0:0
     RDKit          3D

 66 70  0  0  0  0  0  0  0  0999 V2000
   55.7410   27.0300   45.6520 N   0  0  0  0  0  0  0  0  0  0  0  0
   56.6440   26.1000   46.2560 C   0  0  0  0  0  0  0  0  0  0  0  0
   56.2260   25.3570   47.1820 O   0  0  0  0  0  0  0  0  0  0  0  0
   58.0550   26.0130   45.8120 C   0  0  0  0  0  0  0  0  0  0  0  0
   59.1730   25.9450   46.8430 C   0  0  0  0  0  0  0  0  0  0  0  0
   59.4300   27.2870   47.4700 C   0  0  0  0  0  0  0  0  0  0  0  0
   58.5000   28.3190   47.5760 C   0  0  0  0  0  0  0  0  0  0  0  0
   59.0910   29.2440   48.4070 C   0  0  0  0  0  0  0  0  0  0  0  0
   58.5680   30.3970   48.9850 C   0  0  0  0  0  0  0  0  0  0  0  0
   59.3770   31.1050   49.9100 C   0  0  0  0  0  0  0  0  0  0  0  0
   58.9230   32.2540   50.5780 O   0  0  0  0  0  0  0  0  0  0  0  0
   59.6840   33.4490   50.7470 C   0  0  0  0  0  0  0  0  0  0  0  0
   59.6080   34.3080   49.5150 C   0  0  0  0  0  0  0  0  0  0  0  0
   59.9900   33.8900   48.2910 C   0  0  0  0  0  0  0  0  0  0  0  0
   59.1030   34.0340   47.1100 C   0  0  0  0  0  0  0  0  0  0  0  0
   59.5750   34.6140   45.9220 C   0  0  0  0  0  0  0  0  0  0  0  0
   58.7360   34.7230   44.8090 C   0  0  0  0  0  0  0  0  0  0  0  0
   57.4250   34.2420   44.8720 C   0  0  0  0  0  0  0  0  0  0  0  0
   56.9510   33.6540   46.0470 C   0  0  0  0  0  0  0  0  0  0  0  0
   57.7880   33.5430   47.1620 C   0  0  0  0  0  0  0  0  0  0  0  0
   61.3080   33.2320   48.1080 C   0  0  0  0  0  0  0  0  0  0  0  0
   61.4120   32.0720   47.3170 C   0  0  0  0  0  0  0  0  0  0  0  0
   62.6470   31.4400   47.1480 C   0  0  0  0  0  0  0  0  0  0  0  0
   63.7880   31.9530   47.7700 C   0  0  0  0  0  0  0  0  0  0  0  0
   63.6970   33.0970   48.5670 C   0  0  0  0  0  0  0  0  0  0  0  0
   62.4640   33.7350   48.7370 C   0  0  0  0  0  0  0  0  0  0  0  0
   60.6800   30.6360   50.1990 C   0  0  0  0  0  0  0  0  0  0  0  0
   61.1660   29.4510   49.6180 C   0  0  0  0  0  0  0  0  0  0  0  0
   60.3370   28.7750   48.7270 C   0  0  0  0  0  0  0  0  0  0  0  0
   60.5610   27.5820   48.1550 N   0  0  0  0  0  0  0  0  0  0  0  0
   58.2990   25.9530   44.5290 N   0  0  0  0  0  0  0  0  0  0  0  0
   58.1980   27.0530   43.6140 C   0  0  0  0  0  0  0  0  0  0  0  0
   57.9380   26.8240   42.4010 O   0  0  0  0  0  0  0  0  0  0  0  0
   58.3440   28.4450   44.0990 C   0  0  0  0  0  0  0  0  0  0  0  0
   59.5450   28.8720   44.7020 C   0  0  0  0  0  0  0  0  0  0  0  0
   59.6480   30.1580   45.2420 C   0  0  0  0  0  0  0  0  0  0  0  0
   58.5610   31.0320   45.1840 C   0  0  0  0  0  0  0  0  0  0  0  0
   57.3690   30.6240   44.5800 C   0  0  0  0  0  0  0  0  0  0  0  0
   57.2590   29.3400   44.0390 C   0  0  0  0  0  0  0  0  0  0  0  0
   54.7510   27.0880   45.9810 H   0  0  0  0  0  0  0  0  0  0  0  0
   56.0450   27.6670   44.8830 H   0  0  0  0  0  0  0  0  0  0  0  0
   58.8893   25.2314   47.6306 H   0  0  0  0  0  0  0  0  0  0  0  0
   60.0924   25.6219   46.3327 H   0  0  0  0  0  0  0  0  0  0  0  0
   57.5103   28.3811   47.1000 H   0  0  0  0  0  0  0  0  0  0  0  0
   57.5570   30.7488   48.7318 H   0  0  0  0  0  0  0  0  0  0  0  0
   59.2863   34.0118   51.6044 H   0  0  0  0  0  0  0  0  0  0  0  0
   60.7350   33.1763   50.9229 H   0  0  0  0  0  0  0  0  0  0  0  0
   59.2200   35.3322   49.6177 H   0  0  0  0  0  0  0  0  0  0  0  0
   60.6093   34.9843   45.8666 H   0  0  0  0  0  0  0  0  0  0  0  0
   59.1076   35.1873   43.8836 H   0  0  0  0  0  0  0  0  0  0  0  0
   56.7660   34.3266   43.9954 H   0  0  0  0  0  0  0  0  0  0  0  0
   55.9184   33.2779   46.0954 H   0  0  0  0  0  0  0  0  0  0  0  0
   57.4154   33.0698   48.0824 H   0  0  0  0  0  0  0  0  0  0  0  0
   60.5160   31.6607   46.8291 H   0  0  0  0  0  0  0  0  0  0  0  0
   62.7208   30.5370   46.5241 H   0  0  0  0  0  0  0  0  0  0  0  0
   64.7594   31.4556   47.6321 H   0  0  0  0  0  0  0  0  0  0  0  0
   64.5953   33.4960   49.0609 H   0  0  0  0  0  0  0  0  0  0  0  0
   62.3964   34.6351   49.3657 H   0  0  0  0  0  0  0  0  0  0  0  0
   61.3216   31.2057   50.8873 H   0  0  0  0  0  0  0  0  0  0  0  0
   62.1693   29.0704   49.8599 H   0  0  0  0  0  0  0  0  0  0  0  0
   61.3980   26.9700   48.2850 H   0  0  0  0  0  0  0  0  0  0  0  0
   60.4063   28.1893   44.7480 H   0  0  0  0  0  0  0  0  0  0  0  0
   60.5877   30.4815   45.7135 H   0  0  0  0  0  0  0  0  0  0  0  0
   58.6429   32.0413   45.6136 H   0  0  0  0  0  0  0  0  0  0  0  0
   56.5148   31.3152   44.5301 H   0  0  0  0  0  0  0  0  0  0  0  0
   56.3181   29.0266   43.5630 H   0  0  0  0  0  0  0  0  0  0  0  0
  1  2  1  0
  2  3  2  0
  2  4  1  0
  4  5  1  0
  5  6  1  0
  6  7  2  0
  7  8  1  0
  8  9  2  0
  9 10  1  0
 10 11  1  0
 11 12  1  0
 12 13  1  0
 13 14  2  3
 14 15  1  0
 15 16  2  0
 16 17  1  0
 17 18  2  0
 18 19  1  0
 19 20  2  0
 14 21  1  0
 21 22  2  0
 22 23  1  0
 23 24  2  0
 24 25  1  0
 25 26  2  0
 10 27  2  0
 27 28  1  0
 28 29  2  0
 29 30  1  0
  4 31  2  3
 31 32  1  0
 32 33  2  0
 32 34  1  0
 34 35  2  0
 35 36  1  0
 36 37  2  0
 37 38  1  0
 38 39  2  0
 30  6  1  0
 39 34  1  0
 29  8  1  0
 20 15  1  0
 26 21  1  0
  1 40  1  0
  1 41  1  0
  5 42  1  0
  5 43  1  0
  7 44  1  0
  9 45  1  0
 12 46  1  0
 12 47  1  0
 13 48  1  0
 16 49  1  0
 17 50  1  0
 18 51  1  0
 19 52  1  0
 20 53  1  0
 22 54  1  0
 23 55  1  0
 24 56  1  0
 25 57  1  0
 26 58  1  0
 27 59  1  0
 28 60  1  0
 30 61  1  0
 35 62  1  0
 36 63  1  0
 37 64  1  0
 38 65  1  0
 39 66  1  0
M  END
>  <UniqueID>  (1) 
1

>  <SMILES>  (1) 
NC(=O)C(Cc1cc2cc(OCC=C(c3ccccc3)c3ccccc3)ccc2[nH]1)=NC(=O)c1ccccc1

>  <Energy>  (1) 
116.68197762215715

>  <Genealogy>  (1) 
NC(=O)C(Cc1cc2cc(OCC=C(c3ccccc3)c3ccccc3)ccc2[nH]1)=NC(=O)c1ccccc1 (3D coordinates assigned)
NC(=O)C(Cc1cc2cc(OCC=C(c3ccccc3)c3ccccc3)ccc2[nH]1)=NC(=O)c1ccccc1 (optimized conformer: 116.68197762215715 kcal/mol)

>  <smiles>  (1) 
NC(=O)C(Cc1cc2cc(OCC=C(c3ccccc3)c3ccccc3)ccc2[nH]1)=NC(=O)c1ccccc1

>  <score_type>  (1) 
oracle

>  <origin>  (1) 
adg

>  <m_score__min__energy>  (1) 
-11.66

>  <m_primary>  (1) 
energy

$$$$
1:0
     RDKit          3D

 28 29  0  0  0  0  0  0  0  0999 V2000
   56.6570   24.0650   43.8550 C   0  0  0  0  0  0  0  0  0  0  0  0
   56.1350   24.1740   45.1730 O   0  0  0  0  0  0  0  0  0  0  0  0
   55.8240   25.4020   45.7650 C   0  0  0  0  0  0  0  0  0  0  0  0
   54.6210   25.7440   45.9260 O   0  0  0  0  0  0  0  0  0  0  0  0
   56.9020   26.3050   46.1990 C   0  0  0  0  0  0  0  0  0  0  0  0
   58.2450   25.8340   47.0970 S   0  0  0  0  0  0  0  0  0  0  0  0
   58.9470   27.3570   47.2070 C   0  0  0  0  0  0  0  0  0  0  0  0
   58.1350   28.2640   46.5380 C   0  0  0  0  0  0  0  0  0  0  0  0
   56.9930   27.6760   45.9610 C   0  0  0  0  0  0  0  0  0  0  0  0
   55.9800   28.3900   45.2390 N   0  0  0  0  0  0  0  0  0  0  0  0
   56.1020   29.6460   44.5580 C   0  0  0  0  0  0  0  0  0  0  0  0
   55.1410   30.4580   44.5150 O   0  0  0  0  0  0  0  0  0  0  0  0
   57.4180   30.0270   43.9540 C   0  0  0  0  0  0  0  0  0  0  0  0
   57.8130   31.4030   44.3860 C   0  0  0  0  0  0  0  0  0  0  0  0
   57.9410   31.8390   45.6990 C   0  0  0  0  0  0  0  0  0  0  0  0
   58.2440   33.2020   45.7990 C   0  0  0  0  0  0  0  0  0  0  0  0
   58.3400   33.8440   44.5710 C   0  0  0  0  0  0  0  0  0  0  0  0
   58.0450   32.7160   43.3590 S   0  0  0  0  0  0  0  0  0  0  0  0
   57.7327   23.8404   43.9041 H   0  0  0  0  0  0  0  0  0  0  0  0
   56.1375   23.2560   43.3206 H   0  0  0  0  0  0  0  0  0  0  0  0
   56.5047   25.0143   43.3206 H   0  0  0  0  0  0  0  0  0  0  0  0
   59.8896   27.5952   47.7215 H   0  0  0  0  0  0  0  0  0  0  0  0
   58.3622   29.3379   46.4659 H   0  0  0  0  0  0  0  0  0  0  0  0
   58.1867   29.3106   44.2794 H   0  0  0  0  0  0  0  0  0  0  0  0
   57.3248   30.0109   42.8581 H   0  0  0  0  0  0  0  0  0  0  0  0
   57.8169   31.1802   46.5711 H   0  0  0  0  0  0  0  0  0  0  0  0
   58.3922   33.7164   46.7600 H   0  0  0  0  0  0  0  0  0  0  0  0
   58.5698   34.9087   44.4174 H   0  0  0  0  0  0  0  0  0  0  0  0
  1  2  1  0
  2  3  1  0
  3  4  2  0
  3  5  1  0
  5  6  1  0
  6  7  1  0
  7  8  2  0
  8  9  1  0
  9 10  1  0
 10 11  1  0
 11 12  2  0
 11 13  1  0
 13 14  1  0
 14 15  2  0
 15 16  1  0
 16 17  2  0
 17 18  1  0
  9  5  2  0
 18 14  1  0
  1 19  1  0
  1 20  1  0
  1 21  1  0
  7 22  1  0
  8 23  1  0
 13 24  1  0
 13 25  1  0
 15 26  1  0
 16 27  1  0
 17 28  1  0
M  CHG  1  10  -1
M  END
>  <UniqueID>  (2) 
2

>  <SMILES>  (2) 
COC(=O)c1sccc1[N-]C(=O)Cc1cccs1

>  <Energy>  (2) 
76.89023065104526

>  <Genealogy>  (2) 
COC(=O)c1sccc1[N-]C(=O)Cc1cccs1 (protonated)
COC(=O)c1sccc1[N-]C(=O)Cc1cccs1 (3D coordinates assigned)
COC(=O)c1sccc1[N-]C(=O)Cc1cccs1 (optimized conformer: 76.89023065104526 kcal/mol)

>  <smiles>  (2) 
COC(=O)c1sccc1NC(=O)Cc1cccs1

>  <score_type>  (2) 
oracle

>  <origin>  (2) 
adg

>  <m_score__min__energy>  (2) 
-8.8399999999999999

>  <m_primary>  (2) 
energy

$$$$
2:0
     RDKit          3D

 38 40  0  0  0  0  0  0  0  0999 V2000
   57.1230   30.9960   42.9920 O   0  0  0  0  0  0  0  0  0  0  0  0
   57.2880   30.6950   44.2060 C   0  0  0  0  0  0  0  0  0  0  0  0
   56.9880   31.6520   45.2310 N   0  0  0  0  0  0  0  0  0  0  0  0
   57.7410   32.8330   45.5420 C   0  0  0  0  0  0  0  0  0  0  0  0
   58.5240   33.4160   44.5360 C   0  0  0  0  0  0  0  0  0  0  0  0
   59.2870   34.5560   44.8040 C   0  0  0  0  0  0  0  0  0  0  0  0
   59.2870   35.1130   46.0850 C   0  0  0  0  0  0  0  0  0  0  0  0
   58.5300   34.5260   47.1020 C   0  0  0  0  0  0  0  0  0  0  0  0
   57.7640   33.3850   46.8370 C   0  0  0  0  0  0  0  0  0  0  0  0
   57.8730   29.3820   44.5740 C   0  0  0  0  0  0  0  0  0  0  0  0
   57.6400   28.2750   43.7370 C   0  0  0  0  0  0  0  0  0  0  0  0
   58.1270   27.0110   44.0740 C   0  0  0  0  0  0  0  0  0  0  0  0
   58.8600   26.8340   45.2450 C   0  0  0  0  0  0  0  0  0  0  0  0
   59.1150   27.9200   46.0820 C   0  0  0  0  0  0  0  0  0  0  0  0
   58.6280   29.2010   45.7620 C   0  0  0  0  0  0  0  0  0  0  0  0
   58.9850   30.3200   46.5910 N   0  0  0  0  0  0  0  0  0  0  0  0
   60.3050   30.5060   47.1280 C   0  0  0  0  0  0  0  0  0  0  0  0
   61.1430   29.5640   47.0720 O   0  0  0  0  0  0  0  0  0  0  0  0
   60.6840   31.7960   47.7530 C   0  0  0  0  0  0  0  0  0  0  0  0
   61.6610   32.5990   47.1410 C   0  0  0  0  0  0  0  0  0  0  0  0
   62.0480   33.8070   47.7210 C   0  0  0  0  0  0  0  0  0  0  0  0
   61.4540   34.2130   48.9140 C   0  0  0  0  0  0  0  0  0  0  0  0
   60.5050   33.4350   49.4990 N   0  0  0  0  0  0  0  0  0  0  0  0
   60.1080   32.2490   48.9620 C   0  0  0  0  0  0  0  0  0  0  0  0
   58.8330   31.3650   49.7900 Cl  0  0  0  0  0  0  0  0  0  0  0  0
   58.5380   32.9734   43.5291 H   0  0  0  0  0  0  0  0  0  0  0  0
   59.8881   35.0150   44.0053 H   0  0  0  0  0  0  0  0  0  0  0  0
   59.8830   36.0138   46.2930 H   0  0  0  0  0  0  0  0  0  0  0  0
   58.5360   34.9611   48.1123 H   0  0  0  0  0  0  0  0  0  0  0  0
   57.1783   32.9182   47.6427 H   0  0  0  0  0  0  0  0  0  0  0  0
   57.0678   28.4072   42.8069 H   0  0  0  0  0  0  0  0  0  0  0  0
   57.9315   26.1533   43.4136 H   0  0  0  0  0  0  0  0  0  0  0  0
   59.2385   25.8358   45.5102 H   0  0  0  0  0  0  0  0  0  0  0  0
   59.7021   27.7740   47.0007 H   0  0  0  0  0  0  0  0  0  0  0  0
   58.2390   31.0020   46.8530 H   0  0  0  0  0  0  0  0  0  0  0  0
   62.1239   32.2728   46.1980 H   0  0  0  0  0  0  0  0  0  0  0  0
   62.8147   34.4330   47.2412 H   0  0  0  0  0  0  0  0  0  0  0  0
   61.7527   35.1625   49.3823 H   0  0  0  0  0  0  0  0  0  0  0  0
  1  2  2  0
  2  3  1  0
  3  4  1  0
  4  5  2  0
  5  6  1  0
  6  7  2  0
  7  8  1  0
  8  9  2  0
  2 10  1  0
 10 11  2  0
 11 12  1  0
 12 13  2  0
 13 14  1  0
 14 15  2  0
 15 16  1  0
 16 17  1  0
 17 18  2  0
 17 19  1  0
 19 20  2  0
 20 21  1  0
 21 22  2  0
 22 23  1  0
 23 24  2  0
 24 25  1  0
  9  4  1  0
 15 10  1  0
 24 19  1  0
  5 26  1  0
  6 27  1  0
  7 28  1  0
  8 29  1  0
  9 30  1  0
 11 31  1  0
 12 32  1  0
 13 33  1  0
 14 34  1  0
 16 35  1  0
 20 36  1  0
 21 37  1  0
 22 38  1  0
M  CHG  1   3  -1
M  END
>  <UniqueID>  (3) 
3

>  <SMILES>  (3) 
O=C([N-]c1ccccc1)c1ccccc1NC(=O)c1cccnc1Cl

>  <Energy>  (3) 
58.041821995020236

>  <Genealogy>  (3) 
O=C([N-]c1ccccc1)c1ccccc1NC(=O)c1cccnc1Cl (protonated)
O=C([N-]c1ccccc1)c1ccccc1NC(=O)c1cccnc1Cl (3D coordinates assigned)
O=C([N-]c1ccccc1)c1ccccc1NC(=O)c1cccnc1Cl (optimized conformer: 58.041821995020236 kcal/mol)

>  <smiles>  (3) 
O=C(Nc1ccccc1)c1ccccc1NC(=O)c1cccnc1Cl

>  <score_type>  (3) 
oracle

>  <origin>  (3) 
adg

>  <m_score__min__energy>  (3) 
-8.6799999999999997

>  <m_primary>  (3) 
energy

$$$$
3:0
     RDKit          3D

 53 55  0  0  0  0  0  0  0  0999 V2000
   55.4080   26.5610   45.7580 N   0  0  0  0  0  0  0  0  0  0  0  0
   57.0080   27.2050   45.8580 S   0  0  0  0  0  0  0  0  0  0  0  0
   57.3940   27.3710   47.3010 O   0  0  0  0  0  0  0  0  0  0  0  0
   57.9660   26.2300   45.2310 O   0  0  0  0  0  0  0  0  0  0  0  0
   57.0850   28.7400   44.9780 C   0  0  0  0  0  0  0  0  0  0  0  0
   55.8720   29.2860   44.5250 C   0  0  0  0  0  0  0  0  0  0  0  0
   55.8520   30.4750   43.7940 C   0  0  0  0  0  0  0  0  0  0  0  0
   57.0430   31.1330   43.4990 C   0  0  0  0  0  0  0  0  0  0  0  0
   58.2570   30.6110   43.9480 C   0  0  0  0  0  0  0  0  0  0  0  0
   58.2950   29.4320   44.7080 C   0  0  0  0  0  0  0  0  0  0  0  0
   59.9100   28.8540   45.2650 S   0  0  0  0  0  0  0  0  0  0  0  0
   59.6730   29.4090   46.9610 C   0  0  0  0  0  0  0  0  0  0  0  0
   59.6860   28.4540   47.9830 C   0  0  0  0  0  0  0  0  0  0  0  0
   59.4130   28.8210   49.3020 C   0  0  0  0  0  0  0  0  0  0  0  0
   59.1250   30.1520   49.6160 C   0  0  0  0  0  0  0  0  0  0  0  0
   58.7700   30.6030   51.2820 S   0  0  0  0  0  0  0  0  0  0  0  0
   57.3680   30.1920   51.6360 O   0  0  0  0  0  0  0  0  0  0  0  0
   59.7190   29.8760   52.1930 O   0  0  0  0  0  0  0  0  0  0  0  0
   58.9680   32.3680   51.5190 C   0  0  0  0  0  0  0  0  0  0  0  0
   60.3080   32.6880   51.3900 F   0  0  0  0  0  0  0  0  0  0  0  0
   58.2600   33.0360   50.5350 F   0  0  0  0  0  0  0  0  0  0  0  0
   58.4740   32.8250   52.8930 C   0  0  0  0  0  0  0  0  0  0  0  0
   59.1270   32.1380   53.9010 F   0  0  0  0  0  0  0  0  0  0  0  0
   58.6750   34.1840   53.0530 F   0  0  0  0  0  0  0  0  0  0  0  0
   59.1470   31.1220   48.6050 C   0  0  0  0  0  0  0  0  0  0  0  0
   59.4510   30.7660   47.2840 C   0  0  0  0  0  0  0  0  0  0  0  0
   59.5050   31.8000   46.2990 N   0  0  0  0  0  0  0  0  0  0  0  0
   58.5540   33.2470   46.3930 S   0  0  0  0  0  0  0  0  0  0  0  0
   57.3900   33.0250   47.3170 O   0  0  0  0  0  0  0  0  0  0  0  0
   58.0410   33.6160   45.0280 O   0  0  0  0  0  0  0  0  0  0  0  0
   59.5670   34.5740   47.0130 C   0  0  0  0  0  0  0  0  0  0  0  0
   60.9260   34.0560   47.3970 C   0  0  0  0  0  0  0  0  0  0  0  0
   61.2440   33.8360   48.7480 C   0  0  0  0  0  0  0  0  0  0  0  0
   62.5160   33.3790   49.1060 C   0  0  0  0  0  0  0  0  0  0  0  0
   63.4790   33.1460   48.1200 C   0  0  0  0  0  0  0  0  0  0  0  0
   63.1770   33.3800   46.7760 C   0  0  0  0  0  0  0  0  0  0  0  0
   61.9050   33.8360   46.4140 C   0  0  0  0  0  0  0  0  0  0  0  0
   54.8170   27.1040   46.4260 H   0  0  0  0  0  0  0  0  0  0  0  0
   54.9267   28.7701   44.7492 H   0  0  0  0  0  0  0  0  0  0  0  0
   54.8941   30.8926   43.4506 H   0  0  0  0  0  0  0  0  0  0  0  0
   57.0272   32.0635   42.9125 H   0  0  0  0  0  0  0  0  0  0  0  0
   59.1954   31.1301   43.7032 H   0  0  0  0  0  0  0  0  0  0  0  0
   59.9134   27.4043   47.7453 H   0  0  0  0  0  0  0  0  0  0  0  0
   59.4246   28.0603   50.0965 H   0  0  0  0  0  0  0  0  0  0  0  0
   57.3969   32.6103   52.9547 H   0  0  0  0  0  0  0  0  0  0  0  0
   58.9240   32.1709   48.8500 H   0  0  0  0  0  0  0  0  0  0  0  0
   59.6780   35.3412   46.2326 H   0  0  0  0  0  0  0  0  0  0  0  0
   59.0848   35.0081   47.9013 H   0  0  0  0  0  0  0  0  0  0  0  0
   60.4898   34.0239   49.5264 H   0  0  0  0  0  0  0  0  0  0  0  0
   62.7590   33.2027   50.1642 H   0  0  0  0  0  0  0  0  0  0  0  0
   64.4763   32.7778   48.4026 H   0  0  0  0  0  0  0  0  0  0  0  0
   63.9395   33.2057   46.0025 H   0  0  0  0  0  0  0  0  0  0  0  0
   61.6706   34.0230   45.3557 H   0  0  0  0  0  0  0  0  0  0  0  0
  1  2  1  0
  2  3  2  0
  2  4  2  0
  2  5  1  0
  5  6  2  0
  6  7  1  0
  7  8  2  0
  8  9  1  0
  9 10  2  0
 10 11  1  0
 11 12  1  0
 12 13  2  0
 13 14  1  0
 14 15  2  0
 15 16  1  0
 16 17  2  0
 16 18  2  0
 16 19  1  0
 19 20  1  0
 19 21  1  0
 19 22  1  0
 22 23  1  0
 22 24  1  0
 15 25  1  0
 25 26  2  0
 26 27  1  0
 27 28  1  0
 28 29  2  0
 28 30  2  0
 28 31  1  0
 31 32  1  0
 32 33  2  0
 33 34  1  0
 34 35  2  0
 35 36  1  0
 36 37  2  0
 10  5  1  0
 26 12  1  0
 37 32  1  0
  1 38  1  0
  6 39  1  0
  7 40  1  0
  8 41  1  0
  9 42  1  0
 13 43  1  0
 14 44  1  0
 22 45  1  0
 25 46  1  0
 31 47  1  0
 31 48  1  0
 33 49  1  0
 34 50  1  0
 35 51  1  0
 36 52  1  0
 37 53  1  0
M  CHG  2   1  -1  27  -1
M  END
>  <UniqueID>  (4) 
4

>  <SMILES>  (4) 
[NH-]S(=O)(=O)c1ccccc1Sc1ccc(S(=O)(=O)C(F)(F)C(F)F)cc1[N-]S(=O)(=O)Cc1ccccc1

>  <Energy>  (4) 
50.52423242661975

>  <Genealogy>  (4) 
[NH-]S(=O)(=O)c1ccccc1Sc1ccc(S(=O)(=O)C(F)(F)C(F)F)cc1[N-]S(=O)(=O)Cc1ccccc1 (protonated)
[NH-]S(=O)(=O)c1ccccc1Sc1ccc(S(=O)(=O)C(F)(F)C(F)F)cc1[N-]S(=O)(=O)Cc1ccccc1 (3D coordinates assigned)
[NH-]S(=O)(=O)c1ccccc1Sc1ccc(S(=O)(=O)C(F)(F)C(F)F)cc1[N-]S(=O)(=O)Cc1ccccc1 (optimized conformer: 50.52423242661975 kcal/mol)

>  <smiles>  (4) 
NS(=O)(=O)c1ccccc1Sc1ccc(S(=O)(=O)C(F)(F)C(F)F)cc1NS(=O)(=O)Cc1ccccc1

>  <score_type>  (4) 
oracle

>  <origin>  (4) 
adg

>  <m_score__min__energy>  (4) 
-13.26

>  <m_primary>  (4) 
energy

$$$$
4:0
     RDKit          3D

 60 63  0  0  0  0  0  0  0  0999 V2000
   59.0980   30.7210   47.6640 C   0  0  0  0  0  0  0  0  0  0  0  0
   59.5370   29.3530   48.1210 C   0  0  0  0  0  0  0  0  0  0  0  0
   59.1260   28.2300   47.3800 C   0  0  0  0  0  0  0  0  0  0  0  0
   59.5370   26.9430   47.7310 C   0  0  0  0  0  0  0  0  0  0  0  0
   59.1180   25.8470   46.9070 N   0  0  0  0  0  0  0  0  0  0  0  0
   57.5030   25.5450   46.3530 S   0  0  0  0  0  0  0  0  0  0  0  0
   57.5580   24.5590   45.2210 O   0  0  0  0  0  0  0  0  0  0  0  0
   56.6850   24.9470   47.4640 O   0  0  0  0  0  0  0  0  0  0  0  0
   56.7390   27.0570   45.7790 C   0  0  0  0  0  0  0  0  0  0  0  0
   57.4830   27.6740   44.5860 C   0  0  0  0  0  0  0  0  0  0  0  0
   57.4260   29.1470   44.6060 N   0  0  0  0  0  0  0  0  0  0  0  0
   58.5900   29.8550   44.4930 C   0  0  0  0  0  0  0  0  0  0  0  0
   58.5790   31.2480   44.5170 C   0  0  0  0  0  0  0  0  0  0  0  0
   57.3590   31.9010   44.6510 C   0  0  0  0  0  0  0  0  0  0  0  0
   57.3110   33.1590   44.6750 O   0  0  0  0  0  0  0  0  0  0  0  0
   56.2170   31.1780   44.7530 N   0  0  0  0  0  0  0  0  0  0  0  0
   56.2350   29.8200   44.7330 C   0  0  0  0  0  0  0  0  0  0  0  0
   55.1450   29.1960   44.8310 O   0  0  0  0  0  0  0  0  0  0  0  0
   60.3550   26.7660   48.8570 C   0  0  0  0  0  0  0  0  0  0  0  0
   60.7680   27.8690   49.6070 C   0  0  0  0  0  0  0  0  0  0  0  0
   60.3720   29.1700   49.2560 C   0  0  0  0  0  0  0  0  0  0  0  0
   60.8660   30.3010   50.0770 C   0  0  0  0  0  0  0  0  0  0  0  0
   60.8580   30.2320   51.3360 O   0  0  0  0  0  0  0  0  0  0  0  0
   61.3600   31.4820   49.4360 N   0  0  0  0  0  0  0  0  0  0  0  0
   60.8220   32.8190   49.6770 C   0  0  0  0  0  0  0  0  0  0  0  0
   60.4200   33.4700   48.3730 C   0  0  0  0  0  0  0  0  0  0  0  0
   61.1650   33.2500   47.1970 C   0  0  0  0  0  0  0  0  0  0  0  0
   60.7770   33.8450   45.9930 C   0  0  0  0  0  0  0  0  0  0  0  0
   59.6510   34.6710   45.9500 C   0  0  0  0  0  0  0  0  0  0  0  0
   58.9000   34.8890   47.1090 C   0  0  0  0  0  0  0  0  0  0  0  0
   59.2770   34.2860   48.3140 C   0  0  0  0  0  0  0  0  0  0  0  0
   59.6410   32.7630   50.6230 C   0  0  0  0  0  0  0  0  0  0  0  0
   59.6680   33.5200   51.8100 C   0  0  0  0  0  0  0  0  0  0  0  0
   58.5820   33.5000   52.6890 C   0  0  0  0  0  0  0  0  0  0  0  0
   57.4540   32.7330   52.3920 C   0  0  0  0  0  0  0  0  0  0  0  0
   57.4040   31.9940   51.2070 C   0  0  0  0  0  0  0  0  0  0  0  0
   58.4860   32.0130   50.3220 C   0  0  0  0  0  0  0  0  0  0  0  0
   58.8952   31.3530   48.5412 H   0  0  0  0  0  0  0  0  0  0  0  0
   59.8945   31.1785   47.0587 H   0  0  0  0  0  0  0  0  0  0  0  0
   58.1841   30.6296   47.0587 H   0  0  0  0  0  0  0  0  0  0  0  0
   58.4691   28.3686   46.5086 H   0  0  0  0  0  0  0  0  0  0  0  0
   55.7052   26.8367   45.4746 H   0  0  0  0  0  0  0  0  0  0  0  0
   56.7707   27.7827   46.6050 H   0  0  0  0  0  0  0  0  0  0  0  0
   58.5361   27.3582   44.6215 H   0  0  0  0  0  0  0  0  0  0  0  0
   56.9960   27.3261   43.6631 H   0  0  0  0  0  0  0  0  0  0  0  0
   59.5445   29.3197   44.3821 H   0  0  0  0  0  0  0  0  0  0  0  0
   59.5154   31.8188   44.4318 H   0  0  0  0  0  0  0  0  0  0  0  0
   60.6722   25.7544   49.1501 H   0  0  0  0  0  0  0  0  0  0  0  0
   61.4127   27.7168   50.4852 H   0  0  0  0  0  0  0  0  0  0  0  0
   61.6107   33.4259   50.1457 H   0  0  0  0  0  0  0  0  0  0  0  0
   62.0567   32.6066   47.2267 H   0  0  0  0  0  0  0  0  0  0  0  0
   61.3593   33.6625   45.0778 H   0  0  0  0  0  0  0  0  0  0  0  0
   59.3555   35.1496   45.0047 H   0  0  0  0  0  0  0  0  0  0  0  0
   58.0110   35.5359   47.0735 H   0  0  0  0  0  0  0  0  0  0  0  0
   58.6756   34.4514   49.2201 H   0  0  0  0  0  0  0  0  0  0  0  0
   60.5509   34.1318   52.0471 H   0  0  0  0  0  0  0  0  0  0  0  0
   58.6159   34.0898   53.6169 H   0  0  0  0  0  0  0  0  0  0  0  0
   56.6047   32.7104   53.0907 H   0  0  0  0  0  0  0  0  0  0  0  0
   56.5115   31.3962   50.9701 H   0  0  0  0  0  0  0  0  0  0  0  0
   58.4358   31.4391   49.3849 H   0  0  0  0  0  0  0  0  0  0  0  0
  1  2  1  0
  2  3  2  0
  3  4  1  0
  4  5  1  0
  5  6  1  0
  6  7  2  0
  6  8  2  0
  6  9  1  0
  9 10  1  0
 10 11  1  0
 11 12  1  0
 12 13  2  0
 13 14  1  0
 14 15  2  0
 14 16  1  0
 16 17  1  0
 17 18  2  0
  4 19  2  0
 19 20  1  0
 20 21  2  0
 21 22  1  0
 22 23  2  0
 22 24  1  0
 24 25  1  0
 25 26  1  0
 26 27  2  0
 27 28  1  0
 28 29  2  0
 29 30  1  0
 30 31  2  0
 25 32  1  0
 32 33  2  0
 33 34  1  0
 34 35  2  0
 35 36  1  0
 36 37  2  0
 21  2  1  0
 31 26  1  0
 37 32  1  0
 17 11  1  0
  1 38  1  0
  1 39  1  0
  1 40  1  0
  3 41  1  0
  9 42  1  0
  9 43  1  0
 10 44  1  0
 10 45  1  0
 12 46  1  0
 13 47  1  0
 19 48  1  0
 20 49  1  0
 25 50  1  0
 27 51  1  0
 28 52  1  0
 29 53  1  0
 30 54  1  0
 31 55  1  0
 33 56  1  0
 34 57  1  0
 35 58  1  0
 36 59  1  0
 37 60  1  0
M  CHG  3   5  -1  16  -1  24  -1
M  END
>  <UniqueID>  (5) 
5

>  <SMILES>  (5) 
Cc1cc([N-]S(=O)(=O)CCn2ccc(=O)[n-]c2=O)ccc1C(=O)[N-]C(c1ccccc1)c1ccccc1

>  <Energy>  (5) 
67.96407583506121

>  <Genealogy>  (5) 
Cc1cc([N-]S(=O)(=O)CCn2ccc(=O)[n-]c2=O)ccc1C(=O)[N-]C(c1ccccc1)c1ccccc1 (protonated)
Cc1cc([N-]S(=O)(=O)CCn2ccc(=O)[n-]c2=O)ccc1C(=O)[N-]C(c1ccccc1)c1ccccc1 (3D coordinates assigned)
Cc1cc([N-]S(=O)(=O)CCn2ccc(=O)[n-]c2=O)ccc1C(=O)[N-]C(c1ccccc1)c1ccccc1 (optimized conformer: 67.96407583506121 kcal/mol)

>  <smiles>  (5) 
Cc1cc(NS(=O)(=O)CCn2ccc(=O)[nH]c2=O)ccc1C(=O)NC(c1ccccc1)c1ccccc1

>  <score_type>  (5) 
oracle

>  <origin>  (5) 
adg

>  <m_score__min__energy>  (5) 
-14.82

>  <m_primary>  (5) 
energy

$$$$
5:0
     RDKit          3D

 42 43  0  0  0  0  0  0  0  0999 V2000
   55.1460   29.3420   44.8470 O   0  0  0  0  0  0  0  0  0  0  0  0
   56.2260   29.8610   44.4620 C   0  0  0  0  0  0  0  0  0  0  0  0
   57.2240   29.0080   43.7340 C   0  0  0  0  0  0  0  0  0  0  0  0
   57.4060   27.7420   44.4480 N   0  0  0  0  0  0  0  0  0  0  0  0
   59.0650   27.5740   44.9380 S   0  0  0  0  0  0  0  0  0  0  0  0
   59.9740   27.8450   43.7720 O   0  0  0  0  0  0  0  0  0  0  0  0
   59.3000   26.1650   45.4040 O   0  0  0  0  0  0  0  0  0  0  0  0
   59.4060   28.6810   46.2720 C   0  0  0  0  0  0  0  0  0  0  0  0
   60.3320   29.7160   46.0790 C   0  0  0  0  0  0  0  0  0  0  0  0
   60.6520   30.5830   47.1260 C   0  0  0  0  0  0  0  0  0  0  0  0
   60.0460   30.4250   48.3750 C   0  0  0  0  0  0  0  0  0  0  0  0
   59.1280   29.3920   48.5790 C   0  0  0  0  0  0  0  0  0  0  0  0
   58.8080   28.5170   47.5350 C   0  0  0  0  0  0  0  0  0  0  0  0
   57.9350   27.5070   47.7710 F   0  0  0  0  0  0  0  0  0  0  0  0
   56.4750   31.2420   44.7640 N   0  0  0  0  0  0  0  0  0  0  0  0
   57.7490   31.8200   45.1870 C   0  0  0  0  0  0  0  0  0  0  0  0
   58.1980   32.9250   44.2270 C   0  0  0  0  0  0  0  0  0  0  0  0
   58.3760   34.2730   44.9320 C   0  0  0  0  0  0  0  0  0  0  0  0
   59.3100   34.1380   46.1050 C   0  0  0  0  0  0  0  0  0  0  0  0
   60.6870   33.9560   45.8980 C   0  0  0  0  0  0  0  0  0  0  0  0
   61.5480   33.8010   46.9880 C   0  0  0  0  0  0  0  0  0  0  0  0
   61.0400   33.8160   48.2900 C   0  0  0  0  0  0  0  0  0  0  0  0
   59.6700   33.9830   48.5040 C   0  0  0  0  0  0  0  0  0  0  0  0
   58.8040   34.1390   47.4160 C   0  0  0  0  0  0  0  0  0  0  0  0
   56.8581   28.8047   42.7168 H   0  0  0  0  0  0  0  0  0  0  0  0
   58.1864   29.5380   43.6815 H   0  0  0  0  0  0  0  0  0  0  0  0
   57.1970   26.9600   43.7860 H   0  0  0  0  0  0  0  0  0  0  0  0
   60.8095   29.8459   45.0966 H   0  0  0  0  0  0  0  0  0  0  0  0
   61.3816   31.3908   46.9673 H   0  0  0  0  0  0  0  0  0  0  0  0
   60.2916   31.1135   49.1970 H   0  0  0  0  0  0  0  0  0  0  0  0
   58.6549   29.2660   49.5640 H   0  0  0  0  0  0  0  0  0  0  0  0
   57.6339   32.2447   46.1952 H   0  0  0  0  0  0  0  0  0  0  0  0
   58.5104   31.0261   45.1869 H   0  0  0  0  0  0  0  0  0  0  0  0
   59.1577   32.6327   43.7758 H   0  0  0  0  0  0  0  0  0  0  0  0
   57.4147   33.0459   43.4643 H   0  0  0  0  0  0  0  0  0  0  0  0
   58.7923   35.0011   44.2202 H   0  0  0  0  0  0  0  0  0  0  0  0
   57.3960   34.6149   45.2964 H   0  0  0  0  0  0  0  0  0  0  0  0
   61.0894   33.9354   44.8744 H   0  0  0  0  0  0  0  0  0  0  0  0
   62.6270   33.6670   46.8209 H   0  0  0  0  0  0  0  0  0  0  0  0
   61.7196   33.6962   49.1466 H   0  0  0  0  0  0  0  0  0  0  0  0
   59.2712   33.9919   49.5291 H   0  0  0  0  0  0  0  0  0  0  0  0
   57.7245   34.2627   47.5873 H   0  0  0  0  0  0  0  0  0  0  0  0
  1  2  2  0
  2  3  1  0
  3  4  1  0
  4  5  1  0
  5  6  2  0
  5  7  2  0
  5  8  1  0
  8  9  2  0
  9 10  1  0
 10 11  2  0
 11 12  1  0
 12 13  2  0
 13 14  1  0
  2 15  1  0
 15 16  1  0
 16 17  1  0
 17 18  1  0
 18 19  1  0
 19 20  2  0
 20 21  1  0
 21 22  2  0
 22 23  1  0
 23 24  2  0
 13  8  1  0
 24 19  1  0
  3 25  1  0
  3 26  1  0
  4 27  1  0
  9 28  1  0
 10 29  1  0
 11 30  1  0
 12 31  1  0
 16 32  1  0
 16 33  1  0
 17 34  1  0
 17 35  1  0
 18 36  1  0
 18 37  1  0
 20 38  1  0
 21 39  1  0
 22 40  1  0
 23 41  1  0
 24 42  1  0
M  CHG  1  15  -1
M  END
>  <UniqueID>  (6) 
6

>  <SMILES>  (6) 
O=C(CNS(=O)(=O)c1ccccc1F)[N-]CCCc1ccccc1

>  <Energy>  (6) 
31.9047105220126

>  <Genealogy>  (6) 
O=C(CNS(=O)(=O)c1ccccc1F)[N-]CCCc1ccccc1 (protonated)
O=C(CNS(=O)(=O)c1ccccc1F)[N-]CCCc1ccccc1 (3D coordinates assigned)
O=C(CNS(=O)(=O)c1ccccc1F)[N-]CCCc1ccccc1 (optimized conformer: 31.9047105220126 kcal/mol)

>  <smiles>  (6) 
O=C(CNS(=O)(=O)c1ccccc1F)NCCCc1ccccc1

>  <score_type>  (6) 
oracle

>  <origin>  (6) 
adg

>  <m_score__min__energy>  (6) 
-10.15

>  <m_primary>  (6) 
energy

$$$$
6:0
     RDKit          3D

 43 46  0  0  0  0  0  0  0  0999 V2000
   58.1890   26.1340   45.1040 C   0  0  0  0  0  0  0  0  0  0  0  0
   56.9740   26.9880   46.0430 S   0  0  0  0  0  0  0  0  0  0  0  0
   57.6720   27.6050   47.2390 O   0  0  0  0  0  0  0  0  0  0  0  0
   56.0260   25.9600   46.6230 O   0  0  0  0  0  0  0  0  0  0  0  0
   56.1760   28.2350   45.1980 N   0  0  0  0  0  0  0  0  0  0  0  0
   56.7990   29.4530   44.7900 C   0  0  0  0  0  0  0  0  0  0  0  0
   56.3960   30.1730   43.6870 C   0  0  0  0  0  0  0  0  0  0  0  0
   57.0760   31.3370   43.3930 C   0  0  0  0  0  0  0  0  0  0  0  0
   58.1260   31.8170   44.1360 C   0  0  0  0  0  0  0  0  0  0  0  0
   58.5060   31.0710   45.2370 C   0  0  0  0  0  0  0  0  0  0  0  0
   59.6110   31.4770   46.1170 C   0  0  0  0  0  0  0  0  0  0  0  0
   59.7720   32.8200   46.3840 C   0  0  0  0  0  0  0  0  0  0  0  0
   60.8200   33.2110   47.2230 C   0  0  0  0  0  0  0  0  0  0  0  0
   61.6720   32.2530   47.7650 C   0  0  0  0  0  0  0  0  0  0  0  0
   62.7850   32.6320   48.6530 C   0  0  0  0  0  0  0  0  0  0  0  0
   62.6930   33.3780   49.7830 N   0  0  0  0  0  0  0  0  0  0  0  0
   63.9060   33.5270   50.3420 C   0  0  0  0  0  0  0  0  0  0  0  0
   64.3230   34.1910   51.4850 C   0  0  0  0  0  0  0  0  0  0  0  0
   65.6730   34.1760   51.8290 C   0  0  0  0  0  0  0  0  0  0  0  0
   66.1140   34.8230   52.9510 F   0  0  0  0  0  0  0  0  0  0  0  0
   66.5490   33.4920   51.0070 C   0  0  0  0  0  0  0  0  0  0  0  0
   66.1280   32.8260   49.8610 C   0  0  0  0  0  0  0  0  0  0  0  0
   64.7900   32.8470   49.5300 C   0  0  0  0  0  0  0  0  0  0  0  0
   64.0960   32.2990   48.4940 N   0  0  0  0  0  0  0  0  0  0  0  0
   61.4960   30.9140   47.4860 C   0  0  0  0  0  0  0  0  0  0  0  0
   60.4550   30.5380   46.6550 C   0  0  0  0  0  0  0  0  0  0  0  0
   57.8550   29.8950   45.5750 C   0  0  0  0  0  0  0  0  0  0  0  0
   58.8960   25.6371   45.7846 H   0  0  0  0  0  0  0  0  0  0  0  0
   57.6994   25.3803   44.4698 H   0  0  0  0  0  0  0  0  0  0  0  0
   58.7323   26.8499   44.4698 H   0  0  0  0  0  0  0  0  0  0  0  0
   55.1490   28.1570   44.9310 H   0  0  0  0  0  0  0  0  0  0  0  0
   55.5589   29.8310   43.0607 H   0  0  0  0  0  0  0  0  0  0  0  0
   56.7584   31.9140   42.5120 H   0  0  0  0  0  0  0  0  0  0  0  0
   58.6411   32.7513   43.8682 H   0  0  0  0  0  0  0  0  0  0  0  0
   59.0920   33.5663   45.9473 H   0  0  0  0  0  0  0  0  0  0  0  0
   60.9711   34.2756   47.4547 H   0  0  0  0  0  0  0  0  0  0  0  0
   63.5953   34.7245   52.1142 H   0  0  0  0  0  0  0  0  0  0  0  0
   67.6173   33.4738   51.2687 H   0  0  0  0  0  0  0  0  0  0  0  0
   66.8515   32.2908   49.2285 H   0  0  0  0  0  0  0  0  0  0  0  0
   64.4660   31.7270   47.7070 H   0  0  0  0  0  0  0  0  0  0  0  0
   62.1704   30.1588   47.9159 H   0  0  0  0  0  0  0  0  0  0  0  0
   60.3023   29.4737   46.4229 H   0  0  0  0  0  0  0  0  0  0  0  0
   58.1719   29.3179   46.4562 H   0  0  0  0  0  0  0  0  0  0  0  0
  1  2  1  0
  2  3  2  0
  2  4  2  0
  2  5  1  0
  5  6  1  0
  6  7  2  0
  7  8  1  0
  8  9  2  0
  9 10  1  0
 10 11  1  0
 11 12  2  0
 12 13  1  0
 13 14  2  0
 14 15  1  0
 15 16  2  0
 16 17  1  0
 17 18  2  0
 18 19  1  0
 19 20  1  0
 19 21  2  0
 21 22  1  0
 22 23  2  0
 23 24  1  0
 14 25  1  0
 25 26  2  0
 10 27  2  0
 27  6  1  0
 26 11  1  0
 24 15  1  0
 23 17  1  0
  1 28  1  0
  1 29  1  0
  1 30  1  0
  5 31  1  0
  7 32  1  0
  8 33  1  0
  9 34  1  0
 12 35  1  0
 13 36  1  0
 18 37  1  0
 21 38  1  0
 22 39  1  0
 24 40  1  0
 25 41  1  0
 26 42  1  0
 27 43  1  0
M  END
>  <smiles>  (7) 
CS(=O)(=O)Nc1cccc(-c2ccc(-c3nc4cc(F)ccc4[nH]3)cc2)c1

>  <score_type>  (7) 
oracle

>  <origin>  (7) 
adg

>  <m_score__min__energy>  (7) 
-9.25

>  <m_primary>  (7) 
energy

$$$$
7:0
     RDKit          3D

 43 45  0  0  0  0  0  0  0  0999 V2000
   56.4320   22.2000   41.4860 H   0  0  0  0  0  0  0  0  0  0  0  0
   56.2490   21.8500   42.4200 O   0  0  0  0  0  0  0  0  0  0  0  0
   56.6000   22.5810   43.5520 C   0  0  0  0  0  0  0  0  0  0  0  0
   56.8610   21.9350   44.7680 C   0  0  0  0  0  0  0  0  0  0  0  0
   56.7873   20.8395   44.8347 H   0  0  0  0  0  0  0  0  0  0  0  0
   57.2150   22.6810   45.8970 C   0  0  0  0  0  0  0  0  0  0  0  0
   57.4198   22.1697   46.8492 H   0  0  0  0  0  0  0  0  0  0  0  0
   57.3100   24.0790   45.8200 C   0  0  0  0  0  0  0  0  0  0  0  0
   57.7150   24.8770   47.0320 C   0  0  0  0  0  0  0  0  0  0  0  0
   58.2515   24.2205   47.7328 H   0  0  0  0  0  0  0  0  0  0  0  0
   56.8086   25.2837   47.5044 H   0  0  0  0  0  0  0  0  0  0  0  0
   55.5540   28.9880   44.8570 N   0  0  0  0  0  0  0  0  0  0  0  0
   56.6380   28.7370   45.5260 C   0  0  0  0  0  0  0  0  0  0  0  0
   58.9220   28.2460   46.9130 N   0  0  0  0  0  0  0  0  0  0  0  0
   58.5200   29.5250   46.7060 C   0  0  0  0  0  0  0  0  0  0  0  0
   59.3110   30.5750   47.1860 O   0  0  0  0  0  0  0  0  0  0  0  0
   59.2530   31.9030   46.7370 C   0  0  0  0  0  0  0  0  0  0  0  0
   60.4150   32.6830   46.8050 C   0  0  0  0  0  0  0  0  0  0  0  0
   61.3448   32.2454   47.1973 H   0  0  0  0  0  0  0  0  0  0  0  0
   60.4000   34.0150   46.3770 C   0  0  0  0  0  0  0  0  0  0  0  0
   61.3189   34.6178   46.4238 H   0  0  0  0  0  0  0  0  0  0  0  0
   59.2180   34.5800   45.8900 C   0  0  0  0  0  0  0  0  0  0  0  0
   59.2086   35.6253   45.5476 H   0  0  0  0  0  0  0  0  0  0  0  0
   58.0490   33.8180   45.8380 C   0  0  0  0  0  0  0  0  0  0  0  0
   56.8980   34.3730   45.3850 F   0  0  0  0  0  0  0  0  0  0  0  0
   58.0600   32.4860   46.2650 C   0  0  0  0  0  0  0  0  0  0  0  0
   57.1348   31.8919   46.2323 H   0  0  0  0  0  0  0  0  0  0  0  0
   57.3820   29.7660   46.0030 N   0  0  0  0  0  0  0  0  0  0  0  0
   58.1850   27.2080   46.4420 C   0  0  0  0  0  0  0  0  0  0  0  0
   58.5860   25.9900   46.6560 N   0  0  0  0  0  0  0  0  0  0  0  0
   55.4150   30.0900   43.9100 C   0  0  0  0  0  0  0  0  0  0  0  0
   55.3140   31.0358   44.4625 H   0  0  0  0  0  0  0  0  0  0  0  0
   54.5213   29.9258   43.2901 H   0  0  0  0  0  0  0  0  0  0  0  0
   56.6250   30.1560   43.0270 C   0  0  0  0  0  0  0  0  0  0  0  0
   56.8706   29.2963   42.3863 H   0  0  0  0  0  0  0  0  0  0  0  0
   57.4110   31.2350   43.0010 C   0  0  0  0  0  0  0  0  0  0  0  0
   58.2929   31.2574   42.3439 H   0  0  0  0  0  0  0  0  0  0  0  0
   57.1767   32.1016   43.6367 H   0  0  0  0  0  0  0  0  0  0  0  0
   57.0410   27.4570   45.7500 N   0  0  0  0  0  0  0  0  0  0  0  0
   57.0440   24.7220   44.6000 C   0  0  0  0  0  0  0  0  0  0  0  0
   57.1129   25.8177   44.5318 H   0  0  0  0  0  0  0  0  0  0  0  0
   56.6920   23.9750   43.4720 C   0  0  0  0  0  0  0  0  0  0  0  0
   56.4868   24.4844   42.5189 H   0  0  0  0  0  0  0  0  0  0  0  0
  1  2  1  0
  2  3  1  0
  3  4  2  0
  4  5  1  0
  4  6  1  0
  6  7  1  0
  6  8  2  0
  8  9  1  0
  9 10  1  0
  9 11  1  0
  9 12  1  0
 12 13  2  0
 13 14  1  0
 14 15  2  0
 15 16  1  0
 16 17  1  0
 17 18  2  0
 18 19  1  0
 18 20  1  0
 20 21  1  0
 20 22  2  0
 22 23  1  0
 22 24  1  0
 24 25  1  0
 24 26  2  0
 26 27  1  0
 15 28  1  0
 28 29  1  0
 29 30  2  0
 30 31  1  0
 31 32  1  0
 31 33  1  0
 31 34  1  0
 34 35  1  0
 34 36  2  0
 36 37  1  0
 36 38  1  0
 29 39  1  0
  8 40  1  0
 40 41  1  0
 40 42  2  0
 42 43  1  0
 42  3  1  0
 39 13  1  0
 26 17  1  0
M  CHG  2  28  -1  39  -1
M  END
>  <UniqueID>  (8) 
7

>  <SMILES>  (8) 
C=CC/N=c1/[n-]c(Oc2cccc(F)c2)n/c(=N/Cc2ccc(O)cc2)[n-]1

>  <Energy>  (8) 
44.698280429279194

>  <Genealogy>  (8) 
C=CCN=c1[n-]c(Oc2cccc(F)c2)nc(=NCc2ccc(O)cc2)[n-]1 (protonated)
C=CC/N=c1/[n-]c(Oc2cccc(F)c2)n/c(=N/Cc2ccc(O)cc2)[n-]1 (cis-trans isomerization)
C=CC/N=c1/[n-]c(Oc2cccc(F)c2)n/c(=N/Cc2ccc(O)cc2)[n-]1 (3D coordinates assigned)
C=CC/N=c1/[n-]c(Oc2cccc(F)c2)n/c(=N/Cc2ccc(O)cc2)[n-]1 (optimized conformer: 44.698280429279194 kcal/mol)

>  <smiles>  (8) 
C=CCN=c1[nH]c(Oc2cccc(F)c2)nc(=NCc2ccc(O)cc2)[nH]1

>  <score_type>  (8) 
oracle

>  <origin>  (8) 
adg

>  <m_score__min__energy>  (8) 
-10.710000000000001

>  <m_primary>  (8) 
energy

$$$$
8:0
     RDKit          3D

 45 47  0  0  0  0  0  0  0  0999 V2000
   56.5870   29.8430   43.7370 C   0  0  0  0  0  0  0  0  0  0  0  0
   56.8700   30.3210   45.0480 O   0  0  0  0  0  0  0  0  0  0  0  0
   57.5570   31.5130   45.3310 C   0  0  0  0  0  0  0  0  0  0  0  0
   56.9930   32.7760   45.0640 C   0  0  0  0  0  0  0  0  0  0  0  0
   57.7120   33.9430   45.3350 C   0  0  0  0  0  0  0  0  0  0  0  0
   58.9970   33.8660   45.8720 C   0  0  0  0  0  0  0  0  0  0  0  0
   59.5660   32.6210   46.1440 C   0  0  0  0  0  0  0  0  0  0  0  0
   58.8550   31.4390   45.8800 C   0  0  0  0  0  0  0  0  0  0  0  0
   59.4530   30.1660   46.1890 N   0  0  0  0  0  0  0  0  0  0  0  0
   59.7870   29.2260   45.1130 C   0  0  0  0  0  0  0  0  0  0  0  0
   59.7440   27.7780   45.6270 C   0  0  0  0  0  0  0  0  0  0  0  0
   58.6630   27.6250   46.6270 N   0  0  0  0  0  0  0  0  0  0  0  0
   58.3540   26.2030   46.9200 C   0  0  0  0  0  0  0  0  0  0  0  0
   56.9810   25.7620   46.4660 C   0  0  0  0  0  0  0  0  0  0  0  0
   56.7170   24.4220   46.1540 C   0  0  0  0  0  0  0  0  0  0  0  0
   55.4350   24.0490   45.7390 C   0  0  0  0  0  0  0  0  0  0  0  0
   55.1330   22.6180   45.3890 C   0  0  0  0  0  0  0  0  0  0  0  0
   54.4530   25.0440   45.6200 C   0  0  0  0  0  0  0  0  0  0  0  0
   53.2880   24.7610   45.2350 O   0  0  0  0  0  0  0  0  0  0  0  0
   54.7640   26.3310   45.9210 N   0  0  0  0  0  0  0  0  0  0  0  0
   55.9850   26.6780   46.3290 N   0  0  0  0  0  0  0  0  0  0  0  0
   58.9330   28.4090   47.8620 C   0  0  0  0  0  0  0  0  0  0  0  0
   59.6430   29.7520   47.5830 C   0  0  0  0  0  0  0  0  0  0  0  0
   56.0276   28.8982   43.8040 H   0  0  0  0  0  0  0  0  0  0  0  0
   55.9845   30.5883   43.1971 H   0  0  0  0  0  0  0  0  0  0  0  0
   57.5302   29.6732   43.1971 H   0  0  0  0  0  0  0  0  0  0  0  0
   55.9804   32.8439   44.6396 H   0  0  0  0  0  0  0  0  0  0  0  0
   57.2635   34.9251   45.1243 H   0  0  0  0  0  0  0  0  0  0  0  0
   59.5619   34.7864   46.0811 H   0  0  0  0  0  0  0  0  0  0  0  0
   60.5793   32.5651   46.5685 H   0  0  0  0  0  0  0  0  0  0  0  0
   59.0612   29.3408   44.2944 H   0  0  0  0  0  0  0  0  0  0  0  0
   60.8034   29.4448   44.7537 H   0  0  0  0  0  0  0  0  0  0  0  0
   59.5577   27.0977   44.7829 H   0  0  0  0  0  0  0  0  0  0  0  0
   60.7076   27.5345   46.0984 H   0  0  0  0  0  0  0  0  0  0  0  0
   57.7890   28.0190   46.2010 H   0  0  0  0  0  0  0  0  0  0  0  0
   59.1028   25.5757   46.4142 H   0  0  0  0  0  0  0  0  0  0  0  0
   58.3760   26.0932   48.0143 H   0  0  0  0  0  0  0  0  0  0  0  0
   57.5136   23.6678   46.2350 H   0  0  0  0  0  0  0  0  0  0  0  0
   55.0095   22.0329   46.3123 H   0  0  0  0  0  0  0  0  0  0  0  0
   54.2055   22.5726   44.7994 H   0  0  0  0  0  0  0  0  0  0  0  0
   55.9631   22.2017   44.7994 H   0  0  0  0  0  0  0  0  0  0  0  0
   57.9752   28.6164   48.3616 H   0  0  0  0  0  0  0  0  0  0  0  0
   59.6042   27.8075   48.4926 H   0  0  0  0  0  0  0  0  0  0  0  0
   59.2273   30.5238   48.2475 H   0  0  0  0  0  0  0  0  0  0  0  0
   60.7199   29.6246   47.7676 H   0  0  0  0  0  0  0  0  0  0  0  0
  1  2  1  0
  2  3  1  0
  3  4  2  0
  4  5  1  0
  5  6  2  0
  6  7  1  0
  7  8  2  0
  8  9  1  0
  9 10  1  0
 10 11  1  0
 11 12  1  0
 12 13  1  0
 13 14  1  0
 14 15  1  0
 15 16  2  0
 16 17  1  0
 16 18  1  0
 18 19  2  0
 18 20  1  0
 20 21  1  0
 12 22  1  0
 22 23  1  0
  8  3  1  0
 23  9  1  0
 21 14  2  0
  1 24  1  0
  1 25  1  0
  1 26  1  0
  4 27  1  0
  5 28  1  0
  6 29  1  0
  7 30  1  0
 10 31  1  0
 10 32  1  0
 11 33  1  0
 11 34  1  0
 12 35  1  0
 13 36  1  0
 13 37  1  0
 15 38  1  0
 17 39  1  0
 17 40  1  0
 17 41  1  0
 22 42  1  0
 22 43  1  0
 23 44  1  0
 23 45  1  0
M  CHG  2  12   1  20  -1
M  END
>  <UniqueID>  (9) 
8

>  <SMILES>  (9) 
COc1ccccc1N1CC[NH+](Cc2cc(C)c(=O)[n-]n2)CC1

>  <Energy>  (9) 
60.99666947101465

>  <Genealogy>  (9) 
COc1ccccc1N1CC[NH+](Cc2cc(C)c(=O)[n-]n2)CC1 (protonated)
COc1ccccc1N1CC[NH+](Cc2cc(C)c(=O)[n-]n2)CC1 (3D coordinates assigned)
COc1ccccc1N1CC[NH+](Cc2cc(C)c(=O)[n-]n2)CC1 (nonaromatic ring conformer: 60.99666947101465 kcal/mol)

>  <smiles>  (9) 
COc1ccccc1N1CCN(Cc2cc(C)c(=O)[nH]n2)CC1

>  <score_type>  (9) 
oracle

>  <origin>  (9) 
adg

>  <m_score__min__energy>  (9) 
-8.4600000000000009

>  <m_primary>  (9) 
energy

$$$$
9:0
     RDKit          3D

 37 39  0  0  0  0  0  0  0  0999 V2000
   55.1450   29.3450   44.8440 O   0  0  0  0  0  0  0  0  0  0  0  0
   56.3840   29.1820   45.0060 C   0  0  0  0  0  0  0  0  0  0  0  0
   57.3380   30.2630   44.5730 C   0  0  0  0  0  0  0  0  0  0  0  0
   56.8430   31.5600   44.9090 O   0  0  0  0  0  0  0  0  0  0  0  0
   57.6360   32.6580   45.2840 C   0  0  0  0  0  0  0  0  0  0  0  0
   57.5900   33.0850   46.6170 C   0  0  0  0  0  0  0  0  0  0  0  0
   58.3600   34.1720   47.0410 C   0  0  0  0  0  0  0  0  0  0  0  0
   59.1830   34.8430   46.1340 C   0  0  0  0  0  0  0  0  0  0  0  0
   59.2370   34.4270   44.8010 C   0  0  0  0  0  0  0  0  0  0  0  0
   58.4680   33.3400   44.3730 C   0  0  0  0  0  0  0  0  0  0  0  0
   56.8490   27.9310   45.5280 N   0  0  0  0  0  0  0  0  0  0  0  0
   57.7620   27.7740   46.6560 C   0  0  0  0  0  0  0  0  0  0  0  0
   59.1960   28.0890   46.2280 C   0  0  0  0  0  0  0  0  0  0  0  0
   59.6500   29.3790   46.8340 C   0  0  0  0  0  0  0  0  0  0  0  0
   59.1220   29.8750   47.9830 N   0  0  0  0  0  0  0  0  0  0  0  0
   59.8440   30.9880   48.1750 C   0  0  0  0  0  0  0  0  0  0  0  0
   59.7350   31.9080   49.2150 C   0  0  0  0  0  0  0  0  0  0  0  0
   60.6140   33.0080   49.2090 C   0  0  0  0  0  0  0  0  0  0  0  0
   61.5690   33.1550   48.1770 C   0  0  0  0  0  0  0  0  0  0  0  0
   61.6510   32.2030   47.1430 C   0  0  0  0  0  0  0  0  0  0  0  0
   60.7640   31.1300   47.1810 C   0  0  0  0  0  0  0  0  0  0  0  0
   60.6680   30.1140   46.3120 N   0  0  0  0  0  0  0  0  0  0  0  0
   58.3052   30.1083   45.0735 H   0  0  0  0  0  0  0  0  0  0  0  0
   57.4509   30.2079   43.4802 H   0  0  0  0  0  0  0  0  0  0  0  0
   56.9430   32.5610   47.3359 H   0  0  0  0  0  0  0  0  0  0  0  0
   58.3176   34.4992   48.0904 H   0  0  0  0  0  0  0  0  0  0  0  0
   59.7883   35.6984   46.4686 H   0  0  0  0  0  0  0  0  0  0  0  0
   59.8856   34.9555   44.0869 H   0  0  0  0  0  0  0  0  0  0  0  0
   58.5125   33.0164   43.3226 H   0  0  0  0  0  0  0  0  0  0  0  0
   57.4647   28.4616   47.4615 H   0  0  0  0  0  0  0  0  0  0  0  0
   57.7155   26.7339   47.0110 H   0  0  0  0  0  0  0  0  0  0  0  0
   59.8602   27.2782   46.5619 H   0  0  0  0  0  0  0  0  0  0  0  0
   59.2296   28.1784   45.1322 H   0  0  0  0  0  0  0  0  0  0  0  0
   58.9886   31.7798   50.0128 H   0  0  0  0  0  0  0  0  0  0  0  0
   60.5573   33.7575   50.0121 H   0  0  0  0  0  0  0  0  0  0  0  0
   62.2515   34.0176   48.1819 H   0  0  0  0  0  0  0  0  0  0  0  0
   62.3894   32.3031   46.3339 H   0  0  0  0  0  0  0  0  0  0  0  0
  1  2  2  0
  2  3  1  0
  3  4  1  0
  4  5  1  0
  5  6  2  0
  6  7  1  0
  7  8  2  0
  8  9  1  0
  9 10  2  0
  2 11  1  0
 11 12  1  0
 12 13  1  0
 13 14  1  0
 14 15  2  0
 15 16  1  0
 16 17  2  0
 17 18  1  0
 18 19  2  0
 19 20  1  0
 20 21  2  0
 21 22  1  0
 10  5  1  0
 22 14  1  0
 21 16  1  0
  3 23  1  0
  3 24  1  0
  6 25  1  0
  7 26  1  0
  8 27  1  0
  9 28  1  0
 10 29  1  0
 12 30  1  0
 12 31  1  0
 13 32  1  0
 13 33  1  0
 17 34  1  0
 18 35  1  0
 19 36  1  0
 20 37  1  0
M  CHG  2  11  -1  22  -1
M  END
>  <UniqueID>  (10) 
9

>  <SMILES>  (10) 
O=C(COc1ccccc1)[N-]CCc1nc2ccccc2[n-]1

>  <Energy>  (10) 
69.38633175660574

>  <Genealogy>  (10) 
O=C(COc1ccccc1)[N-]CCc1nc2ccccc2[n-]1 (protonated)
O=C(COc1ccccc1)[N-]CCc1nc2ccccc2[n-]1 (3D coordinates assigned)
O=C(COc1ccccc1)[N-]CCc1nc2ccccc2[n-]1 (optimized conformer: 69.38633175660574 kcal/mol)

>  <smiles>  (10) 
O=C(COc1ccccc1)NCCc1nc2ccccc2[nH]1

>  <score_type>  (10) 
oracle

>  <origin>  (10) 
adg

>  <m_score__min__energy>  (10) 
-11.26

>  <m_primary>  (10) 
energy

$$$$
10:0
     RDKit          3D

 35 36  0  0  0  0  0  0  0  0999 V2000
   60.2590   28.9280   44.9490 C   0  0  0  0  0  0  0  0  0  0  0  0
   59.1130   27.9190   44.8930 C   0  0  0  0  0  0  0  0  0  0  0  0
   58.1070   28.0800   46.0440 C   0  0  0  0  0  0  0  0  0  0  0  0
   56.6540   27.8150   45.6300 C   0  0  0  0  0  0  0  0  0  0  0  0
   56.0200   29.0520   45.1830 N   0  0  0  0  0  0  0  0  0  0  0  0
   56.5470   29.9210   44.1730 C   0  0  0  0  0  0  0  0  0  0  0  0
   56.3510   29.6340   42.9630 O   0  0  0  0  0  0  0  0  0  0  0  0
   57.2810   31.1570   44.5050 C   0  0  0  0  0  0  0  0  0  0  0  0
   57.7760   31.3420   45.7380 C   0  0  0  0  0  0  0  0  0  0  0  0
   58.5200   32.5670   46.0780 C   0  0  0  0  0  0  0  0  0  0  0  0
   58.9530   32.8150   47.3870 C   0  0  0  0  0  0  0  0  0  0  0  0
   59.7050   33.9690   47.6820 C   0  0  0  0  0  0  0  0  0  0  0  0
   60.1500   34.2340   49.0240 N   0  0  0  0  0  0  0  0  0  0  0  0
   61.3250   34.5940   49.2470 O   0  0  0  0  0  0  0  0  0  0  0  0
   59.2880   34.0920   50.0880 O   0  0  0  0  0  0  0  0  0  0  0  0
   60.0210   34.8600   46.6390 C   0  0  0  0  0  0  0  0  0  0  0  0
   59.5930   34.6060   45.3330 C   0  0  0  0  0  0  0  0  0  0  0  0
   58.8370   33.4650   45.0540 C   0  0  0  0  0  0  0  0  0  0  0  0
   58.4160   33.1980   43.7490 O   0  0  0  0  0  0  0  0  0  0  0  0
   57.3960   32.2390   43.4500 C   0  0  0  0  0  0  0  0  0  0  0  0
   60.5055   29.1450   45.9988 H   0  0  0  0  0  0  0  0  0  0  0  0
   61.1418   28.5086   44.4442 H   0  0  0  0  0  0  0  0  0  0  0  0
   59.9548   29.8568   44.4442 H   0  0  0  0  0  0  0  0  0  0  0  0
   58.5783   28.0499   43.9406 H   0  0  0  0  0  0  0  0  0  0  0  0
   59.5559   26.9162   44.9841 H   0  0  0  0  0  0  0  0  0  0  0  0
   58.3758   27.3728   46.8425 H   0  0  0  0  0  0  0  0  0  0  0  0
   58.1621   29.1269   46.3770 H   0  0  0  0  0  0  0  0  0  0  0  0
   56.6384   27.0824   44.8096 H   0  0  0  0  0  0  0  0  0  0  0  0
   56.1013   27.4229   46.4964 H   0  0  0  0  0  0  0  0  0  0  0  0
   57.6243   30.5686   46.5054 H   0  0  0  0  0  0  0  0  0  0  0  0
   58.7043   32.1045   48.1891 H   0  0  0  0  0  0  0  0  0  0  0  0
   60.6099   35.7640   46.8537 H   0  0  0  0  0  0  0  0  0  0  0  0
   59.8517   35.3052   44.5241 H   0  0  0  0  0  0  0  0  0  0  0  0
   56.4315   32.7628   43.3769 H   0  0  0  0  0  0  0  0  0  0  0  0
   57.6675   31.7507   42.5024 H   0  0  0  0  0  0  0  0  0  0  0  0
  1  2  1  0
  2  3  1  0
  3  4  1  0
  4  5  1  0
  5  6  1  0
  6  7  2  0
  6  8  1  0
  8  9  2  0
  9 10  1  0
 10 11  2  0
 11 12  1  0
 12 13  1  0
 13 14  2  0
 13 15  1  0
 12 16  2  0
 16 17  1  0
 17 18  2  0
 18 19  1  0
 19 20  1  0
 20  8  1  0
 18 10  1  0
  1 21  1  0
  1 22  1  0
  1 23  1  0
  2 24  1  0
  2 25  1  0
  3 26  1  0
  3 27  1  0
  4 28  1  0
  4 29  1  0
  9 30  1  0
 11 31  1  0
 16 32  1  0
 17 33  1  0
 20 34  1  0
 20 35  1  0
M  CHG  3   5  -1  13   1  15  -1
M  END
>  <UniqueID>  (11) 
10

>  <SMILES>  (11) 
CCCC[N-]C(=O)C1=Cc2cc([N+](=O)[O-])ccc2OC1

>  <Energy>  (11) 
37.511948976504506

>  <Genealogy>  (11) 
CCCC[N-]C(=O)C1=Cc2cc([N+](=O)[O-])ccc2OC1 (protonated)
CCCC[N-]C(=O)C1=Cc2cc([N+](=O)[O-])ccc2OC1 (3D coordinates assigned)
CCCC[N-]C(=O)C1=Cc2cc([N+](=O)[O-])ccc2OC1 (nonaromatic ring conformer: 37.511948976504506 kcal/mol)

>  <smiles>  (11) 
CCCCNC(=O)C1=Cc2cc([N+](=O)[O-])ccc2OC1

>  <score_type>  (11) 
oracle

>  <origin>  (11) 
adg

>  <m_score__min__energy>  (11) 
-8.2599999999999998

>  <m_primary>  (11) 
energy

$$$$
11:0
     RDKit          3D

 49 51  0  0  1  0  0  0  0  0999 V2000
   56.9510   19.5170   46.1920 C   0  0  0  0  0  0  0  0  0  0  0  0
   56.0440   20.6020   46.0140 O   0  0  0  0  0  0  0  0  0  0  0  0
   56.2460   21.4100   44.9040 C   0  0  0  0  0  0  0  0  0  0  0  0
   56.3580   22.7720   45.0480 C   0  0  0  0  0  0  0  0  0  0  0  0
   56.5590   23.6460   44.0070 C   0  0  0  0  0  0  0  0  0  0  0  0
   56.6480   24.8890   44.2560 N   0  0  0  0  0  0  0  0  0  0  0  0
   56.6320   25.6510   45.7800 S   0  0  0  0  0  0  0  0  0  0  0  0
   55.1890   26.1410   45.9710 O   0  0  0  0  0  0  0  0  0  0  0  0
   56.8430   24.7220   46.9400 O   0  0  0  0  0  0  0  0  0  0  0  0
   57.6980   27.0300   45.8900 C   0  0  0  0  0  0  0  0  0  0  0  0
   57.3350   28.3150   45.5750 C   0  0  0  0  0  0  0  0  0  0  0  0
   58.2180   29.3630   45.6860 C   0  0  0  0  0  0  0  0  0  0  0  0
   59.5380   29.1870   46.1260 C   0  0  0  0  0  0  0  0  0  0  0  0
   60.3830   30.3100   46.2130 N   0  0  0  0  0  0  0  0  0  0  0  0
   61.0030   30.8310   47.3530 C   0  0  0  0  0  0  0  0  0  0  0  0
   60.8310   30.2910   48.4450 O   0  0  0  0  0  0  0  0  0  0  0  0
   61.8260   31.9720   47.2700 N   0  0  0  0  0  0  0  0  0  0  0  0
   62.5110   32.6090   48.3170 C   0  0  0  0  0  0  0  0  0  0  0  0
   63.8210   32.4060   48.6670 C   0  0  0  0  0  0  0  0  0  0  0  0
   64.4350   33.0830   49.7290 C   0  0  0  0  0  0  0  0  0  0  0  0
   66.1270   32.7630   50.1140 Cl  0  0  0  0  0  0  0  0  0  0  0  0
   63.7400   34.0010   50.4830 C   0  0  0  0  0  0  0  0  0  0  0  0
   62.4220   34.2130   50.1400 C   0  0  0  0  0  0  0  0  0  0  0  0
   61.8210   33.5510   49.1010 C   0  0  0  0  0  0  0  0  0  0  0  0
   60.4910   33.8170   48.8150 O   0  0  0  0  0  0  0  0  0  0  0  0
   60.1720   34.5830   47.6740 C   0  0  0  0  0  0  0  0  0  0  0  0
   59.8850   27.8960   46.4350 C   0  0  0  0  0  0  0  0  0  0  0  0
   58.9890   26.8280   46.3240 C   0  0  0  0  0  0  0  0  0  0  0  0
   56.6470   23.1050   42.7710 N   0  0  0  0  0  0  0  0  0  0  0  0
   56.5400   21.7650   42.5920 C   0  0  0  0  0  0  0  0  0  0  0  0
   56.3420   20.9240   43.6470 N   0  0  0  0  0  0  0  0  0  0  0  0
   57.1013   19.3373   47.2668 H   0  0  0  0  0  0  0  0  0  0  0  0
   56.5368   18.6122   45.7233 H   0  0  0  0  0  0  0  0  0  0  0  0
   57.9149   19.7642   45.7233 H   0  0  0  0  0  0  0  0  0  0  0  0
   56.2818   23.1898   46.0627 H   0  0  0  0  0  0  0  0  0  0  0  0
   56.3111   28.5119   45.2246 H   0  0  0  0  0  0  0  0  0  0  0  0
   57.8773   30.3747   45.4205 H   0  0  0  0  0  0  0  0  0  0  0  0
   60.5700   30.8200   45.2990 H   0  0  0  0  0  0  0  0  0  0  0  0
   61.9360   32.3930   46.3050 H   0  0  0  0  0  0  0  0  0  0  0  0
   64.4146   31.6816   48.0901 H   0  0  0  0  0  0  0  0  0  0  0  0
   64.2129   34.5388   51.3179 H   0  0  0  0  0  0  0  0  0  0  0  0
   61.8323   34.9382   50.7199 H   0  0  0  0  0  0  0  0  0  0  0  0
   59.7666   35.5564   47.9874 H   0  0  0  0  0  0  0  0  0  0  0  0
   61.0794   34.7402   47.0725 H   0  0  0  0  0  0  0  0  0  0  0  0
   59.4212   34.0496   47.0725 H   0  0  0  0  0  0  0  0  0  0  0  0
   60.9083   27.6930   46.7838 H   0  0  0  0  0  0  0  0  0  0  0  0
   59.3202   25.8126   46.5870 H   0  0  0  0  0  0  0  0  0  0  0  0
   56.8010   23.7600   41.9530 H   0  0  0  0  0  0  0  0  0  0  0  0
   56.6143   21.3486   41.5766 H   0  0  0  0  0  0  0  0  0  0  0  0
  1  2  1  0
  2  3  1  0
  3  4  2  0
  4  5  1  0
  5  6  2  0
  6  7  1  0
  7  8  2  0
  7  9  2  0
  7 10  1  0
 10 11  2  0
 11 12  1  0
 12 13  2  0
 13 14  1  0
 14 15  1  0
 15 16  2  0
 15 17  1  0
 17 18  1  0
 18 19  2  0
 19 20  1  0
 20 21  1  0
 20 22  2  0
 22 23  1  0
 23 24  2  0
 24 25  1  0
 25 26  1  0
 13 27  1  0
 27 28  2  0
  5 29  1  0
 29 30  1  0
 30 31  2  0
 31  3  1  0
 28 10  1  0
 24 18  1  0
  1 32  1  0
  1 33  1  0
  1 34  1  0
  4 35  1  0
 11 36  1  0
 12 37  1  0
 14 38  1  0
 17 39  1  0
 19 40  1  0
 22 41  1  0
 23 42  1  0
 26 43  1  0
 26 44  1  0
 26 45  1  0
 27 46  1  0
 28 47  1  0
 29 48  1  0
 30 49  1  0
M  END
>  <smiles>  (12) 
COc1cc(=NS(=O)(=O)c2ccc(NC(=O)Nc3cc(Cl)ccc3OC)cc2)[nH]cn1

>  <score_type>  (12) 
oracle

>  <origin>  (12) 
adg

>  <m_score__min__energy>  (12) 
-7.7999999999999998

>  <m_primary>  (12) 
energy

$$$$
12:0
     RDKit          3D

 50 52  0  0  0  0  0  0  0  0999 V2000
   60.1140   33.6520   50.8750 C   0  0  0  0  0  0  0  0  0  0  0  0
   60.6930   34.2640   49.7280 O   0  0  0  0  0  0  0  0  0  0  0  0
   61.5960   33.6330   48.8580 C   0  0  0  0  0  0  0  0  0  0  0  0
   62.8890   34.1500   48.6350 C   0  0  0  0  0  0  0  0  0  0  0  0
   63.7870   33.4750   47.8060 C   0  0  0  0  0  0  0  0  0  0  0  0
   63.4120   32.2800   47.1950 C   0  0  0  0  0  0  0  0  0  0  0  0
   62.1330   31.7590   47.4020 C   0  0  0  0  0  0  0  0  0  0  0  0
   61.2100   32.4370   48.2090 C   0  0  0  0  0  0  0  0  0  0  0  0
   59.9100   31.8520   48.3970 N   0  0  0  0  0  0  0  0  0  0  0  0
   58.6670   32.3550   47.8860 C   0  0  0  0  0  0  0  0  0  0  0  0
   57.7790   32.7110   48.7040 O   0  0  0  0  0  0  0  0  0  0  0  0
   58.3940   32.4020   46.4310 C   0  0  0  0  0  0  0  0  0  0  0  0
   57.9780   31.2720   45.8030 N   0  0  0  0  0  0  0  0  0  0  0  0
   57.7560   31.2100   44.4860 N   0  0  0  0  0  0  0  0  0  0  0  0
   57.3490   29.9040   43.9500 C   0  0  0  0  0  0  0  0  0  0  0  0
   56.0260   29.5160   44.5250 C   0  0  0  0  0  0  0  0  0  0  0  0
   55.0580   30.3190   44.4500 O   0  0  0  0  0  0  0  0  0  0  0  0
   55.9090   28.2820   45.2480 N   0  0  0  0  0  0  0  0  0  0  0  0
   56.9550   27.5680   45.9230 C   0  0  0  0  0  0  0  0  0  0  0  0
   57.0080   26.1770   45.7800 C   0  0  0  0  0  0  0  0  0  0  0  0
   58.0160   25.4390   46.4020 C   0  0  0  0  0  0  0  0  0  0  0  0
   58.9800   26.0840   47.1780 C   0  0  0  0  0  0  0  0  0  0  0  0
   58.9440   27.4810   47.3380 C   0  0  0  0  0  0  0  0  0  0  0  0
   59.9470   28.1740   48.2270 C   0  0  0  0  0  0  0  0  0  0  0  0
   59.3000   28.9460   49.1770 F   0  0  0  0  0  0  0  0  0  0  0  0
   60.7190   27.2240   48.8690 F   0  0  0  0  0  0  0  0  0  0  0  0
   60.7720   29.0020   47.4870 F   0  0  0  0  0  0  0  0  0  0  0  0
   57.9060   28.2120   46.7360 C   0  0  0  0  0  0  0  0  0  0  0  0
   57.9640   32.3160   43.6960 C   0  0  0  0  0  0  0  0  0  0  0  0
   57.7710   32.2840   42.2000 C   0  0  0  0  0  0  0  0  0  0  0  0
   58.3640   33.5170   44.2990 C   0  0  0  0  0  0  0  0  0  0  0  0
   58.5820   33.5640   45.6720 C   0  0  0  0  0  0  0  0  0  0  0  0
   58.9670   34.6400   46.2060 O   0  0  0  0  0  0  0  0  0  0  0  0
   60.5393   34.1015   51.7845 H   0  0  0  0  0  0  0  0  0  0  0  0
   59.0252   33.8080   50.8635 H   0  0  0  0  0  0  0  0  0  0  0  0
   60.3300   32.5735   50.8635 H   0  0  0  0  0  0  0  0  0  0  0  0
   63.1920   35.0911   49.1173 H   0  0  0  0  0  0  0  0  0  0  0  0
   64.7924   33.8872   47.6348 H   0  0  0  0  0  0  0  0  0  0  0  0
   64.1245   31.7464   46.5487 H   0  0  0  0  0  0  0  0  0  0  0  0
   61.8479   30.8084   46.9275 H   0  0  0  0  0  0  0  0  0  0  0  0
   57.2678   29.9671   42.8548 H   0  0  0  0  0  0  0  0  0  0  0  0
   58.1007   29.1479   44.2208 H   0  0  0  0  0  0  0  0  0  0  0  0
   56.2494   25.6614   45.1728 H   0  0  0  0  0  0  0  0  0  0  0  0
   58.0507   24.3463   46.2803 H   0  0  0  0  0  0  0  0  0  0  0  0
   59.7717   25.4972   47.6668 H   0  0  0  0  0  0  0  0  0  0  0  0
   57.8362   29.2972   46.9017 H   0  0  0  0  0  0  0  0  0  0  0  0
   56.7096   32.1080   41.9709 H   0  0  0  0  0  0  0  0  0  0  0  0
   58.0844   33.2464   41.7692 H   0  0  0  0  0  0  0  0  0  0  0  0
   58.3783   31.4743   41.7692 H   0  0  0  0  0  0  0  0  0  0  0  0
   58.5051   34.4204   43.6874 H   0  0  0  0  0  0  0  0  0  0  0  0
  1  2  1  0
  2  3  1  0
  3  4  2  0
  4  5  1  0
  5  6  2  0
  6  7  1  0
  7  8  2  0
  8  9  1  0
  9 10  1  0
 10 11  2  0
 10 12  1  0
 12 13  2  0
 13 14  1  0
 14 15  1  0
 15 16  1  0
 16 17  2  0
 16 18  1  0
 18 19  1  0
 19 20  2  0
 20 21  1  0
 21 22  2  0
 22 23  1  0
 23 24  1  0
 24 25  1  0
 24 26  1  0
 24 27  1  0
 23 28  2  0
 14 29  1  0
 29 30  1  0
 29 31  2  0
 31 32  1  0
 32 33  2  0
  8  3  1  0
 32 12  1  0
 28 19  1  0
  1 34  1  0
  1 35  1  0
  1 36  1  0
  4 37  1  0
  5 38  1  0
  6 39  1  0
  7 40  1  0
 15 41  1  0
 15 42  1  0
 20 43  1  0
 21 44  1  0
 22 45  1  0
 28 46  1  0
 30 47  1  0
 30 48  1  0
 30 49  1  0
 31 50  1  0
M  CHG  2   9  -1  18  -1
M  END
>  <UniqueID>  (13) 
11

>  <SMILES>  (13) 
COc1ccccc1[N-]C(=O)c1nn(CC(=O)[N-]c2cccc(C(F)(F)F)c2)c(C)cc1=O

>  <Energy>  (13) 
59.64375487531517

>  <Genealogy>  (13) 
COc1ccccc1[N-]C(=O)c1nn(CC(=O)[N-]c2cccc(C(F)(F)F)c2)c(C)cc1=O (protonated)
COc1ccccc1[N-]C(=O)c1nn(CC(=O)[N-]c2cccc(C(F)(F)F)c2)c(C)cc1=O (3D coordinates assigned)
COc1ccccc1[N-]C(=O)c1nn(CC(=O)[N-]c2cccc(C(F)(F)F)c2)c(C)cc1=O (optimized conformer: 59.64375487531517 kcal/mol)

>  <smiles>  (13) 
COc1ccccc1NC(=O)c1nn(CC(=O)Nc2cccc(C(F)(F)F)c2)c(C)cc1=O

>  <score_type>  (13) 
oracle

>  <origin>  (13) 
adg

>  <m_score__min__energy>  (13) 
-13.039999999999999

>  <m_primary>  (13) 
energy

$$$$
13:0
     RDKit          3D

 35 37  0  0  0  0  0  0  0  0999 V2000
   52.9010   25.0610   45.4050 H   0  0  0  0  0  0  0  0  0  0  0  0
   52.9150   24.1210   45.7720 O   0  0  0  0  0  0  0  0  0  0  0  0
   54.0630   23.5090   46.2820 C   0  0  0  0  0  0  0  0  0  0  0  0
   53.9110   22.2080   46.7690 C   0  0  0  0  0  0  0  0  0  0  0  0
   52.9040   21.7706   46.8371 H   0  0  0  0  0  0  0  0  0  0  0  0
   55.0160   21.4530   47.1710 C   0  0  0  0  0  0  0  0  0  0  0  0
   54.8270   20.0370   47.6390 C   0  0  0  0  0  0  0  0  0  0  0  0
   54.8236   20.0117   48.7387 H   0  0  0  0  0  0  0  0  0  0  0  0
   53.8693   19.6504   47.2604 H   0  0  0  0  0  0  0  0  0  0  0  0
   55.6498   19.4128   47.2604 H   0  0  0  0  0  0  0  0  0  0  0  0
   56.3020   22.0000   47.0620 C   0  0  0  0  0  0  0  0  0  0  0  0
   57.4050   21.2190   47.4030 O   0  0  0  0  0  0  0  0  0  0  0  0
   56.4760   23.3290   46.6230 C   0  0  0  0  0  0  0  0  0  0  0  0
   57.7630   23.8750   46.5400 C   0  0  0  0  0  0  0  0  0  0  0  0
   58.6321   23.2490   46.7905 H   0  0  0  0  0  0  0  0  0  0  0  0
   57.9640   25.2030   46.1440 C   0  0  0  0  0  0  0  0  0  0  0  0
   59.2650   25.7250   46.0460 C   0  0  0  0  0  0  0  0  0  0  0  0
   60.3780   24.9390   46.3280 O   0  0  0  0  0  0  0  0  0  0  0  0
   59.4540   27.0100   45.6650 N   0  0  0  0  0  0  0  0  0  0  0  0
   58.4250   27.8420   45.3810 C   0  0  0  0  0  0  0  0  0  0  0  0
   58.6810   29.0100   44.9840 O   0  0  0  0  0  0  0  0  0  0  0  0
   57.0920   27.3930   45.4980 C   0  0  0  0  0  0  0  0  0  0  0  0
   55.9940   28.2630   45.1660 N   0  0  0  0  0  0  0  0  0  0  0  0
   56.1050   29.5230   44.8700 C   0  0  0  0  0  0  0  0  0  0  0  0
   55.9898   30.2841   45.6558 H   0  0  0  0  0  0  0  0  0  0  0  0
   56.3890   29.9400   43.4630 C   0  0  0  0  0  0  0  0  0  0  0  0
   55.4445   30.2036   42.9646 H   0  0  0  0  0  0  0  0  0  0  0  0
   57.0627   30.8095   43.4756 H   0  0  0  0  0  0  0  0  0  0  0  0
   57.0310   28.8510   42.7340 N   0  0  0  0  0  0  0  0  0  0  0  0
   58.0610   28.9190   42.9060 H   0  0  0  0  0  0  0  0  0  0  0  0
   56.7230   27.9450   43.1570 H   0  0  0  0  0  0  0  0  0  0  0  0
   56.8530   26.0370   45.8630 C   0  0  0  0  0  0  0  0  0  0  0  0
   55.5430   25.4970   45.9820 C   0  0  0  0  0  0  0  0  0  0  0  0
   54.4430   26.3410   45.8780 O   0  0  0  0  0  0  0  0  0  0  0  0
   55.3480   24.1220   46.2760 C   0  0  0  0  0  0  0  0  0  0  0  0
  1  2  1  0
  2  3  1  0
  3  4  2  0
  4  5  1  0
  4  6  1  0
  6  7  1  0
  7  8  1  0
  7  9  1  0
  7 10  1  0
  6 11  2  0
 11 12  1  0
 11 13  1  0
 13 14  2  0
 14 15  1  0
 14 16  1  0
 16 17  2  0
 17 18  1  0
 17 19  1  0
 19 20  1  0
 20 21  2  0
 20 22  1  0
 22 23  1  0
 23 24  2  0
 24 25  1  0
 24 26  1  0
 26 27  1  0
 26 28  1  0
 26 29  1  0
 29 30  1  0
 29 31  1  0
 22 32  2  0
 32 33  1  0
 33 34  1  0
 33 35  2  0
 35  3  1  0
 35 13  1  0
 32 16  1  0
M  CHG  4  12  -1  18  -1  19  -1  34  -1
M  END
>  <UniqueID>  (14) 
12

>  <SMILES>  (14) 
Cc1cc(O)c2c([O-])c3c(/N=C/CN)c(=O)[n-]c([O-])c3cc2c1[O-]

>  <Energy>  (14) 
61.66158356595366

>  <Genealogy>  (14) 
Cc1cc(O)c2c([O-])c3c(N=CCN)c(=O)[n-]c([O-])c3cc2c1[O-] (protonated)
Cc1cc(O)c2c([O-])c3c(/N=C/CN)c(=O)[n-]c([O-])c3cc2c1[O-] (cis-trans isomerization)
Cc1cc(O)c2c([O-])c3c(/N=C/CN)c(=O)[n-]c([O-])c3cc2c1[O-] (3D coordinates assigned)
Cc1cc(O)c2c([O-])c3c(/N=C/CN)c(=O)[n-]c([O-])c3cc2c1[O-] (optimized conformer: 61.66158356595366 kcal/mol)

>  <smiles>  (14) 
Cc1cc(O)c2c(O)c3c(N=CCN)c(=O)[nH]c(O)c3cc2c1O

>  <score_type>  (14) 
oracle

>  <origin>  (14) 
adg

>  <m_score__min__energy>  (14) 
-13.289999999999999

>  <m_primary>  (14) 
energy

$$$$
14:0
     RDKit          3D

 50 51  0  0  0  0  0  0  0  0999 V2000
   54.7736   28.9191   43.7191 H   0  0  0  0  0  0  0  0  0  0  0  0
   55.5600   29.6880   43.7010 C   0  0  0  0  0  0  0  0  0  0  0  0
   55.8810   30.4280   44.7970 N   0  0  0  0  0  0  0  0  0  0  0  0
   56.8730   31.3020   44.5300 C   0  0  0  0  0  0  0  0  0  0  0  0
   57.3450   32.1120   45.4290 N   0  0  0  0  0  0  0  0  0  0  0  0
   57.3540   33.5670   45.2980 C   0  0  0  0  0  0  0  0  0  0  0  0
   56.3279   33.9218   45.1210 H   0  0  0  0  0  0  0  0  0  0  0  0
   58.0003   33.8462   44.4528 H   0  0  0  0  0  0  0  0  0  0  0  0
   57.8980   34.2120   46.5750 C   0  0  0  0  0  0  0  0  0  0  0  0
   57.4568   33.7049   47.4458 H   0  0  0  0  0  0  0  0  0  0  0  0
   57.6294   35.2786   46.5603 H   0  0  0  0  0  0  0  0  0  0  0  0
   59.4330   34.1060   46.6610 C   0  0  0  0  0  0  0  0  0  0  0  0
   59.8306   35.0869   46.9605 H   0  0  0  0  0  0  0  0  0  0  0  0
   59.7849   33.7896   45.6680 H   0  0  0  0  0  0  0  0  0  0  0  0
   59.9380   33.0490   47.6700 C   0  0  2  0  0  0  0  0  0  0  0  0
   59.4053   33.2211   48.6169 H   0  0  0  0  0  0  0  0  0  0  0  0
   61.4210   33.2090   47.9560 C   0  0  0  0  0  0  0  0  0  0  0  0
   61.8950   33.4710   49.2570 C   0  0  0  0  0  0  0  0  0  0  0  0
   61.1814   33.5865   50.0861 H   0  0  0  0  0  0  0  0  0  0  0  0
   63.2670   33.5850   49.5000 C   0  0  0  0  0  0  0  0  0  0  0  0
   63.6287   33.7979   50.5168 H   0  0  0  0  0  0  0  0  0  0  0  0
   64.1790   33.4290   48.4540 C   0  0  0  0  0  0  0  0  0  0  0  0
   65.2578   33.5236   48.6471 H   0  0  0  0  0  0  0  0  0  0  0  0
   63.7230   33.1530   47.1630 C   0  0  0  0  0  0  0  0  0  0  0  0
   64.4432   33.0259   46.3413 H   0  0  0  0  0  0  0  0  0  0  0  0
   62.3510   33.0380   46.9140 C   0  0  0  0  0  0  0  0  0  0  0  0
   61.9971   32.8125   45.8972 H   0  0  0  0  0  0  0  0  0  0  0  0
   59.6160   31.6860   47.2280 N   0  0  0  0  0  0  0  0  0  0  0  0
   59.1560   31.5340   46.3030 H   0  0  0  0  0  0  0  0  0  0  0  0
   59.8040   30.5450   48.0780 C   0  0  0  0  0  0  0  0  0  0  0  0
   60.2770   30.6850   49.2390 O   0  0  0  0  0  0  0  0  0  0  0  0
   59.3950   29.1820   47.6080 C   0  0  0  0  0  0  0  0  0  0  0  0
   58.3366   29.2040   47.3090 H   0  0  0  0  0  0  0  0  0  0  0  0
   59.5411   28.4629   48.4275 H   0  0  0  0  0  0  0  0  0  0  0  0
   60.2490   28.7520   46.4110 C   0  0  0  0  0  0  0  0  0  0  0  0
   60.4863   27.6820   46.5045 H   0  0  0  0  0  0  0  0  0  0  0  0
   61.1706   29.3525   46.4048 H   0  0  0  0  0  0  0  0  0  0  0  0
   59.5040   28.9870   45.0900 C   0  0  0  0  0  0  0  0  0  0  0  0
   60.1987   28.8069   44.2564 H   0  0  0  0  0  0  0  0  0  0  0  0
   59.1364   30.0238   45.0935 H   0  0  0  0  0  0  0  0  0  0  0  0
   58.2880   28.0610   44.9270 C   0  0  0  0  0  0  0  0  0  0  0  0
   57.3720   28.6622   45.0250 H   0  0  0  0  0  0  0  0  0  0  0  0
   58.3520   27.2877   45.7067 H   0  0  0  0  0  0  0  0  0  0  0  0
   58.2650   27.3520   43.5740 C   0  0  0  0  0  0  0  0  0  0  0  0
   58.2297   26.2638   43.7308 H   0  0  0  0  0  0  0  0  0  0  0  0
   57.3767   27.6700   43.0085 H   0  0  0  0  0  0  0  0  0  0  0  0
   59.1720   27.6117   43.0085 H   0  0  0  0  0  0  0  0  0  0  0  0
   57.3930   31.1960   42.9300 S   0  0  0  0  0  0  0  0  0  0  0  0
   56.2970   29.9730   42.5560 C   0  0  0  0  0  0  0  0  0  0  0  0
   56.1837   29.4846   41.5769 H   0  0  0  0  0  0  0  0  0  0  0  0
  1  2  1  0
  2  3  1  0
  3  4  1  0
  4  5  2  0
  5  6  1  0
  6  7  1  0
  6  8  1  0
  6  9  1  0
  9 10  1  0
  9 11  1  0
  9 12  1  0
 12 13  1  0
 12 14  1  0
 12 15  1  0
 15 16  1  1
 15 17  1  0
 17 18  2  0
 18 19  1  0
 18 20  1  0
 20 21  1  0
 20 22  2  0
 22 23  1  0
 22 24  1  0
 24 25  1  0
 24 26  2  0
 26 27  1  0
 15 28  1  0
 28 29  1  0
 28 30  1  0
 30 31  2  0
 30 32  1  0
 32 33  1  0
 32 34  1  0
 32 35  1  0
 35 36  1  0
 35 37  1  0
 35 38  1  0
 38 39  1  0
 38 40  1  0
 38 41  1  0
 41 42  1  0
 41 43  1  0
 41 44  1  0
 44 45  1  0
 44 46  1  0
 44 47  1  0
  4 48  1  0
 48 49  1  0
 49 50  1  0
 49  2  2  0
 26 17  1  0
M  CHG  1   3  -1
M  END
>  <UniqueID>  (15) 
13

>  <SMILES>  (15) 
CCCCCC(=O)N[C@H](CCC/N=c1/[n-]ccs1)c1ccccc1

>  <Energy>  (15) 
64.17188857697877

>  <Genealogy>  (15) 
CCCCCC(=O)NC(CCCN=c1[n-]ccs1)c1ccccc1 (protonated)
CCCCCC(=O)N[C@H](CCCN=c1[n-]ccs1)c1ccccc1 (chirality)
CCCCCC(=O)N[C@H](CCC/N=c1/[n-]ccs1)c1ccccc1 (cis-trans isomerization)
CCCCCC(=O)N[C@H](CCC/N=c1/[n-]ccs1)c1ccccc1 (3D coordinates assigned)
CCCCCC(=O)N[C@H](CCC/N=c1/[n-]ccs1)c1ccccc1 (optimized conformer: 64.17188857697877 kcal/mol)

>  <smiles>  (15) 
CCCCCC(=O)NC(CCCN=c1[nH]ccs1)c1ccccc1

>  <score_type>  (15) 
oracle

>  <origin>  (15) 
adg

>  <m_score__min__energy>  (15) 
-8.7699999999999996

>  <m_primary>  (15) 
energy

$$$$
15:0
     RDKit          3D

 39 41  0  0  0  0  0  0  0  0999 V2000
   54.7770   26.3130   45.9970 N   0  0  0  0  0  0  0  0  0  0  0  0
   56.3380   25.5940   46.1720 S   0  0  0  0  0  0  0  0  0  0  0  0
   56.4390   24.9160   47.5090 O   0  0  0  0  0  0  0  0  0  0  0  0
   56.5180   24.5700   45.0860 O   0  0  0  0  0  0  0  0  0  0  0  0
   57.5830   26.8330   46.0490 C   0  0  0  0  0  0  0  0  0  0  0  0
   58.6760   26.8340   46.9260 C   0  0  0  0  0  0  0  0  0  0  0  0
   59.6340   27.8460   46.8490 C   0  0  0  0  0  0  0  0  0  0  0  0
   59.5040   28.8650   45.9030 C   0  0  0  0  0  0  0  0  0  0  0  0
   58.4180   28.8810   45.0130 C   0  0  0  0  0  0  0  0  0  0  0  0
   58.2660   30.0010   44.1200 N   0  0  0  0  0  0  0  0  0  0  0  0
   57.2470   31.0110   44.2140 C   0  0  0  0  0  0  0  0  0  0  0  0
   56.1170   30.7420   44.7050 O   0  0  0  0  0  0  0  0  0  0  0  0
   57.5250   32.3980   43.7120 C   0  0  0  0  0  0  0  0  0  0  0  0
   57.0650   33.6840   44.9350 S   0  0  0  0  0  0  0  0  0  0  0  0
   58.5610   33.5490   45.9160 C   0  0  0  0  0  0  0  0  0  0  0  0
   59.4000   34.6470   46.1030 C   0  0  0  0  0  0  0  0  0  0  0  0
   60.6090   34.4700   46.7750 C   0  0  0  0  0  0  0  0  0  0  0  0
   60.9460   33.1990   47.2540 C   0  0  0  0  0  0  0  0  0  0  0  0
   62.2440   32.9480   47.8990 C   0  0  0  0  0  0  0  0  0  0  0  0
   63.3710   33.7400   47.7810 C   0  0  0  0  0  0  0  0  0  0  0  0
   64.3310   33.1400   48.5670 C   0  0  0  0  0  0  0  0  0  0  0  0
   63.7340   32.0220   49.1130 C   0  0  0  0  0  0  0  0  0  0  0  0
   62.4920   31.9340   48.6980 O   0  0  0  0  0  0  0  0  0  0  0  0
   60.0670   32.1740   47.0810 N   0  0  0  0  0  0  0  0  0  0  0  0
   58.9150   32.3430   46.4310 N   0  0  0  0  0  0  0  0  0  0  0  0
   57.4570   27.8540   45.0960 C   0  0  0  0  0  0  0  0  0  0  0  0
   54.7150   27.0940   46.6870 H   0  0  0  0  0  0  0  0  0  0  0  0
   58.7790   26.0361   47.6761 H   0  0  0  0  0  0  0  0  0  0  0  0
   60.4937   27.8410   47.5352 H   0  0  0  0  0  0  0  0  0  0  0  0
   60.2597   29.6629   45.8546 H   0  0  0  0  0  0  0  0  0  0  0  0
   58.9930   30.1270   43.3790 H   0  0  0  0  0  0  0  0  0  0  0  0
   58.5993   32.4863   43.4925 H   0  0  0  0  0  0  0  0  0  0  0  0
   56.9168   32.5581   42.8095 H   0  0  0  0  0  0  0  0  0  0  0  0
   59.1121   35.6393   45.7256 H   0  0  0  0  0  0  0  0  0  0  0  0
   61.2903   35.3201   46.9269 H   0  0  0  0  0  0  0  0  0  0  0  0
   63.4790   34.6577   47.1842 H   0  0  0  0  0  0  0  0  0  0  0  0
   65.3639   33.4828   48.7268 H   0  0  0  0  0  0  0  0  0  0  0  0
   64.2253   31.3113   49.7938 H   0  0  0  0  0  0  0  0  0  0  0  0
   56.5997   27.8531   44.4067 H   0  0  0  0  0  0  0  0  0  0  0  0
  1  2  1  0
  2  3  2  0
  2  4  2  0
  2  5  1  0
  5  6  2  0
  6  7  1  0
  7  8  2  0
  8  9  1  0
  9 10  1  0
 10 11  1  0
 11 12  2  0
 11 13  1  0
 13 14  1  0
 14 15  1  0
 15 16  2  0
 16 17  1  0
 17 18  2  0
 18 19  1  0
 19 20  2  0
 20 21  1  0
 21 22  2  0
 22 23  1  0
 18 24  1  0
 24 25  2  0
  9 26  2  0
 26  5  1  0
 25 15  1  0
 23 19  1  0
  1 27  1  0
  6 28  1  0
  7 29  1  0
  8 30  1  0
 10 31  1  0
 13 32  1  0
 13 33  1  0
 16 34  1  0
 17 35  1  0
 20 36  1  0
 21 37  1  0
 22 38  1  0
 26 39  1  0
M  CHG  1   1  -1
M  END
>  <UniqueID>  (16) 
14

>  <SMILES>  (16) 
[NH-]S(=O)(=O)c1cccc(NC(=O)CSc2ccc(-c3ccco3)nn2)c1

>  <Energy>  (16) 
64.31832746062103

>  <Genealogy>  (16) 
[NH-]S(=O)(=O)c1cccc(NC(=O)CSc2ccc(-c3ccco3)nn2)c1 (protonated)
[NH-]S(=O)(=O)c1cccc(NC(=O)CSc2ccc(-c3ccco3)nn2)c1 (3D coordinates assigned)
[NH-]S(=O)(=O)c1cccc(NC(=O)CSc2ccc(-c3ccco3)nn2)c1 (optimized conformer: 64.31832746062103 kcal/mol)

>  <smiles>  (16) 
NS(=O)(=O)c1cccc(NC(=O)CSc2ccc(-c3ccco3)nn2)c1

>  <score_type>  (16) 
oracle

>  <origin>  (16) 
adg

>  <m_score__min__energy>  (16) 
-12.9

>  <m_primary>  (16) 
energy

$$$$
16:0
     RDKit          3D

 57 60  0  0  0  0  0  0  0  0999 V2000
   60.8110   29.7990   45.9360 O   0  0  0  0  0  0  0  0  0  0  0  0
   60.0690   30.0650   46.9190 C   0  0  0  0  0  0  0  0  0  0  0  0
   60.6740   30.1890   48.2820 C   0  0  0  0  0  0  0  0  0  0  0  0
   60.8690   31.6010   48.6150 N   0  0  0  0  0  0  0  0  0  0  0  0
   62.1930   32.1160   48.8410 C   0  0  0  0  0  0  0  0  0  0  0  0
   62.8190   32.9140   47.8680 C   0  0  0  0  0  0  0  0  0  0  0  0
   64.1180   33.3870   48.0750 C   0  0  0  0  0  0  0  0  0  0  0  0
   64.8030   33.0650   49.2500 C   0  0  0  0  0  0  0  0  0  0  0  0
   64.1900   32.2650   50.2180 C   0  0  0  0  0  0  0  0  0  0  0  0
   62.8910   31.7900   50.0140 C   0  0  0  0  0  0  0  0  0  0  0  0
   59.4750   32.6140   48.8520 S   0  0  0  0  0  0  0  0  0  0  0  0
   58.3270   31.8020   49.3840 O   0  0  0  0  0  0  0  0  0  0  0  0
   59.7990   33.6810   49.8600 O   0  0  0  0  0  0  0  0  0  0  0  0
   59.0180   33.3550   47.3200 C   0  0  0  0  0  0  0  0  0  0  0  0
   57.6630   33.5370   47.0040 C   0  0  0  0  0  0  0  0  0  0  0  0
   57.2990   34.1660   45.8100 C   0  0  0  0  0  0  0  0  0  0  0  0
   58.2830   34.6150   44.9260 C   0  0  0  0  0  0  0  0  0  0  0  0
   59.6350   34.4340   45.2350 C   0  0  0  0  0  0  0  0  0  0  0  0
   60.0020   33.8050   46.4280 C   0  0  0  0  0  0  0  0  0  0  0  0
   58.6700   30.3170   46.7220 N   0  0  0  0  0  0  0  0  0  0  0  0
   58.0130   30.1120   45.4620 C   0  0  0  0  0  0  0  0  0  0  0  0
   57.5230   31.2250   44.7650 C   0  0  0  0  0  0  0  0  0  0  0  0
   56.9100   31.0680   43.5200 C   0  0  0  0  0  0  0  0  0  0  0  0
   56.7690   29.7960   42.9660 C   0  0  0  0  0  0  0  0  0  0  0  0
   57.2270   28.6740   43.6620 C   0  0  0  0  0  0  0  0  0  0  0  0
   57.8400   28.8160   44.9180 C   0  0  0  0  0  0  0  0  0  0  0  0
   58.2310   27.6440   45.6570 N   0  0  0  0  0  0  0  0  0  0  0  0
   57.1980   26.7390   46.1670 C   0  0  0  0  0  0  0  0  0  0  0  0
   57.7410   25.9600   47.3680 C   0  0  0  0  0  0  0  0  0  0  0  0
   58.9720   25.3370   47.0500 O   0  0  0  0  0  0  0  0  0  0  0  0
   59.9530   26.3230   46.7890 C   0  0  0  0  0  0  0  0  0  0  0  0
   59.5950   27.1250   45.5340 C   0  0  0  0  0  0  0  0  0  0  0  0
   60.0025   29.7293   49.0221 H   0  0  0  0  0  0  0  0  0  0  0  0
   61.6474   29.6768   48.2936 H   0  0  0  0  0  0  0  0  0  0  0  0
   62.2848   33.1672   46.9403 H   0  0  0  0  0  0  0  0  0  0  0  0
   64.6021   34.0139   47.3116 H   0  0  0  0  0  0  0  0  0  0  0  0
   65.8239   33.4410   49.4126 H   0  0  0  0  0  0  0  0  0  0  0  0
   64.7301   32.0087   51.1414 H   0  0  0  0  0  0  0  0  0  0  0  0
   62.4136   31.1575   50.7769 H   0  0  0  0  0  0  0  0  0  0  0  0
   56.8855   33.1839   47.6974 H   0  0  0  0  0  0  0  0  0  0  0  0
   56.2358   34.3077   45.5660 H   0  0  0  0  0  0  0  0  0  0  0  0
   57.9947   35.1107   43.9873 H   0  0  0  0  0  0  0  0  0  0  0  0
   60.4100   34.7869   44.5387 H   0  0  0  0  0  0  0  0  0  0  0  0
   61.0660   33.6625   46.6679 H   0  0  0  0  0  0  0  0  0  0  0  0
   58.1500   30.8280   47.4720 H   0  0  0  0  0  0  0  0  0  0  0  0
   57.6220   32.2296   45.2019 H   0  0  0  0  0  0  0  0  0  0  0  0
   56.5380   31.9486   42.9758 H   0  0  0  0  0  0  0  0  0  0  0  0
   56.2967   29.6756   41.9799 H   0  0  0  0  0  0  0  0  0  0  0  0
   57.1066   27.6725   43.2232 H   0  0  0  0  0  0  0  0  0  0  0  0
   56.3200   27.3244   46.4776 H   0  0  0  0  0  0  0  0  0  0  0  0
   56.9096   26.0323   45.3749 H   0  0  0  0  0  0  0  0  0  0  0  0
   57.8945   26.6536   48.2079 H   0  0  0  0  0  0  0  0  0  0  0  0
   57.0130   25.1819   47.6412 H   0  0  0  0  0  0  0  0  0  0  0  0
   60.0154   27.0065   47.6486 H   0  0  0  0  0  0  0  0  0  0  0  0
   60.9201   25.8249   46.6261 H   0  0  0  0  0  0  0  0  0  0  0  0
   60.2976   27.9640   45.4226 H   0  0  0  0  0  0  0  0  0  0  0  0
   59.6598   26.4718   44.6514 H   0  0  0  0  0  0  0  0  0  0  0  0
  1  2  2  0
  2  3  1  0
  3  4  1  0
  4  5  1  0
  5  6  2  0
  6  7  1  0
  7  8  2  0
  8  9  1  0
  9 10  2  0
  4 11  1  0
 11 12  2  0
 11 13  2  0
 11 14  1  0
 14 15  2  0
 15 16  1  0
 16 17  2  0
 17 18  1  0
 18 19  2  0
  2 20  1  0
 20 21  1  0
 21 22  2  0
 22 23  1  0
 23 24  2  0
 24 25  1  0
 25 26  2  0
 26 27  1  0
 27 28  1  0
 28 29  1  0
 29 30  1  0
 30 31  1  0
 31 32  1  0
 10  5  1  0
 19 14  1  0
 26 21  1  0
 32 27  1  0
  3 33  1  0
  3 34  1  0
  6 35  1  0
  7 36  1  0
  8 37  1  0
  9 38  1  0
 10 39  1  0
 15 40  1  0
 16 41  1  0
 17 42  1  0
 18 43  1  0
 19 44  1  0
 20 45  1  0
 22 46  1  0
 23 47  1  0
 24 48  1  0
 25 49  1  0
 28 50  1  0
 28 51  1  0
 29 52  1  0
 29 53  1  0
 31 54  1  0
 31 55  1  0
 32 56  1  0
 32 57  1  0
M  END
>  <UniqueID>  (17) 
15

>  <SMILES>  (17) 
O=C(CN(c1ccccc1)S(=O)(=O)c1ccccc1)Nc1ccccc1N1CCOCC1

>  <Energy>  (17) 
70.511007718927

>  <Genealogy>  (17) 
O=C(CN(c1ccccc1)S(=O)(=O)c1ccccc1)Nc1ccccc1N1CCOCC1 (3D coordinates assigned)
O=C(CN(c1ccccc1)S(=O)(=O)c1ccccc1)Nc1ccccc1N1CCOCC1 (nonaromatic ring conformer: 70.511007718927 kcal/mol)

>  <smiles>  (17) 
O=C(CN(c1ccccc1)S(=O)(=O)c1ccccc1)Nc1ccccc1N1CCOCC1

>  <score_type>  (17) 
oracle

>  <origin>  (17) 
adg

>  <m_score__min__energy>  (17) 
-8.5099999999999998

>  <m_primary>  (17) 
energy

$$$$
17:0
     RDKit          3D

 55 60  0  0  0  0  0  0  0  0999 V2000
   63.8360   33.8150   48.0760 C   0  0  0  0  0  0  0  0  0  0  0  0
   63.3480   33.7100   46.7920 C   0  0  0  0  0  0  0  0  0  0  0  0
   61.9800   33.8130   46.5170 C   0  0  0  0  0  0  0  0  0  0  0  0
   61.0660   34.0290   47.5390 C   0  0  0  0  0  0  0  0  0  0  0  0
   59.6460   34.1280   47.1940 C   0  0  0  0  0  0  0  0  0  0  0  0
   59.0240   32.8350   47.3760 N   0  0  0  0  0  0  0  0  0  0  0  0
   60.0100   31.8660   47.7170 C   0  0  0  0  0  0  0  0  0  0  0  0
   59.5340   30.4390   47.5280 C   0  0  0  0  0  0  0  0  0  0  0  0
   58.9410   30.3030   46.1900 N   0  0  0  0  0  0  0  0  0  0  0  0
   58.4580   29.0500   45.7860 C   0  0  0  0  0  0  0  0  0  0  0  0
   59.0740   28.4310   44.7160 C   0  0  0  0  0  0  0  0  0  0  0  0
   58.6400   27.1820   44.2630 C   0  0  0  0  0  0  0  0  0  0  0  0
   57.5810   26.5240   44.8730 C   0  0  0  0  0  0  0  0  0  0  0  0
   56.9520   25.3500   44.6730 N   0  0  0  0  0  0  0  0  0  0  0  0
   55.9600   25.2270   45.5970 C   0  0  0  0  0  0  0  0  0  0  0  0
   55.0190   24.1230   45.7650 C   0  0  0  0  0  0  0  0  0  0  0  0
   55.3970   22.8870   46.2510 C   0  0  0  0  0  0  0  0  0  0  0  0
   54.4730   21.8590   46.3980 C   0  0  0  0  0  0  0  0  0  0  0  0
   53.1520   22.0650   46.0540 C   0  0  0  0  0  0  0  0  0  0  0  0
   52.0550   21.2830   46.0830 N   0  0  0  0  0  0  0  0  0  0  0  0
   50.9900   21.9770   45.6310 C   0  0  0  0  0  0  0  0  0  0  0  0
   51.4280   23.2190   45.3140 N   0  0  0  0  0  0  0  0  0  0  0  0
   52.7500   23.2930   45.5650 C   0  0  0  0  0  0  0  0  0  0  0  0
   53.6760   24.3110   45.4230 C   0  0  0  0  0  0  0  0  0  0  0  0
   55.9710   26.3270   46.3730 N   0  0  0  0  0  0  0  0  0  0  0  0
   56.9660   27.1410   45.9420 C   0  0  0  0  0  0  0  0  0  0  0  0
   57.4100   28.3780   46.3740 C   0  0  0  0  0  0  0  0  0  0  0  0
   58.9100   31.5090   45.3910 C   0  0  0  0  0  0  0  0  0  0  0  0
   58.2060   32.5460   46.2470 C   0  0  0  0  0  0  0  0  0  0  0  0
   61.5820   34.1300   48.8130 C   0  0  0  0  0  0  0  0  0  0  0  0
   62.9240   34.0300   49.1010 C   0  0  0  0  0  0  0  0  0  0  0  0
   64.9132   33.7313   48.2827 H   0  0  0  0  0  0  0  0  0  0  0  0
   64.0509   33.5411   45.9629 H   0  0  0  0  0  0  0  0  0  0  0  0
   61.6251   33.7218   45.4798 H   0  0  0  0  0  0  0  0  0  0  0  0
   59.1587   34.8665   47.8475 H   0  0  0  0  0  0  0  0  0  0  0  0
   59.5403   34.4462   46.1463 H   0  0  0  0  0  0  0  0  0  0  0  0
   60.8933   32.0272   47.0815 H   0  0  0  0  0  0  0  0  0  0  0  0
   60.2406   31.9954   48.7847 H   0  0  0  0  0  0  0  0  0  0  0  0
   60.3864   29.7505   47.6248 H   0  0  0  0  0  0  0  0  0  0  0  0
   58.7823   30.1947   48.2931 H   0  0  0  0  0  0  0  0  0  0  0  0
   59.9173   28.9275   44.2137 H   0  0  0  0  0  0  0  0  0  0  0  0
   59.1470   26.7119   43.4074 H   0  0  0  0  0  0  0  0  0  0  0  0
   57.1750   24.6490   43.9430 H   0  0  0  0  0  0  0  0  0  0  0  0
   56.4476   22.7129   46.5266 H   0  0  0  0  0  0  0  0  0  0  0  0
   54.7942   20.8820   46.7882 H   0  0  0  0  0  0  0  0  0  0  0  0
   49.9593   21.6042   45.5374 H   0  0  0  0  0  0  0  0  0  0  0  0
   50.8540   24.0110   44.9320 H   0  0  0  0  0  0  0  0  0  0  0  0
   53.3498   25.2867   45.0337 H   0  0  0  0  0  0  0  0  0  0  0  0
   56.9010   28.8474   47.2287 H   0  0  0  0  0  0  0  0  0  0  0  0
   59.9321   31.8379   45.1519 H   0  0  0  0  0  0  0  0  0  0  0  0
   58.3916   31.3506   44.4338 H   0  0  0  0  0  0  0  0  0  0  0  0
   58.0458   33.4631   45.6611 H   0  0  0  0  0  0  0  0  0  0  0  0
   57.2309   32.1599   46.5787 H   0  0  0  0  0  0  0  0  0  0  0  0
   60.8829   34.2998   49.6451 H   0  0  0  0  0  0  0  0  0  0  0  0
   63.2733   34.1201   50.1402 H   0  0  0  0  0  0  0  0  0  0  0  0
  1  2  2  0
  2  3  1  0
  3  4  2  0
  4  5  1  0
  5  6  1  0
  6  7  1  0
  7  8  1  0
  8  9  1  0
  9 10  1  0
 10 11  2  0
 11 12  1  0
 12 13  2  0
 13 14  1  0
 14 15  1  0
 15 16  1  0
 16 17  2  0
 17 18  1  0
 18 19  2  0
 19 20  1  0
 20 21  2  0
 21 22  1  0
 22 23  1  0
 23 24  2  0
 15 25  2  0
 25 26  1  0
 26 27  2  0
  9 28  1  0
 28 29  1  0
  4 30  1  0
 30 31  2  0
 31  1  1  0
 29  6  1  0
 27 10  1  0
 26 13  1  0
 24 16  1  0
 23 19  1  0
  1 32  1  0
  2 33  1  0
  3 34  1  0
  5 35  1  0
  5 36  1  0
  7 37  1  0
  7 38  1  0
  8 39  1  0
  8 40  1  0
 11 41  1  0
 12 42  1  0
 14 43  1  0
 17 44  1  0
 18 45  1  0
 21 46  1  0
 22 47  1  0
 24 48  1  0
 27 49  1  0
 28 50  1  0
 28 51  1  0
 29 52  1  0
 29 53  1  0
 30 54  1  0
 31 55  1  0
M  END
>  <smiles>  (18) 
c1ccc(CN2CCN(c3ccc4[nH]c(-c5ccc6nc[nH]c6c5)nc4c3)CC2)cc1

>  <score_type>  (18) 
oracle

>  <origin>  (18) 
adg

>  <m_score__min__energy>  (18) 
-8.4800000000000004

>  <m_primary>  (18) 
energy

$$$$
18:0
     RDKit          3D

 37 39  0  0  0  0  0  0  0  0999 V2000
   55.6200   26.7780   46.0790 N   0  0  0  0  0  0  0  0  0  0  0  0
   57.2270   27.4110   46.0320 S   0  0  0  0  0  0  0  0  0  0  0  0
   57.7370   27.5830   47.4360 O   0  0  0  0  0  0  0  0  0  0  0  0
   58.1260   26.4490   45.3070 O   0  0  0  0  0  0  0  0  0  0  0  0
   57.2220   28.9660   45.2050 C   0  0  0  0  0  0  0  0  0  0  0  0
   56.5790   29.1020   43.9670 C   0  0  0  0  0  0  0  0  0  0  0  0
   56.5680   30.3360   43.3150 C   0  0  0  0  0  0  0  0  0  0  0  0
   57.1920   31.4440   43.8960 C   0  0  0  0  0  0  0  0  0  0  0  0
   57.8330   31.3230   45.1400 C   0  0  0  0  0  0  0  0  0  0  0  0
   58.4710   32.4640   45.7450 N   0  0  0  0  0  0  0  0  0  0  0  0
   58.8480   33.6540   45.0540 C   0  0  0  0  0  0  0  0  0  0  0  0
   58.7670   33.7580   43.8010 O   0  0  0  0  0  0  0  0  0  0  0  0
   59.5450   34.9610   46.0670 S   0  0  0  0  0  0  0  0  0  0  0  0
   59.5840   33.7900   47.4300 C   0  0  0  0  0  0  0  0  0  0  0  0
   60.2110   34.0860   48.5780 C   0  0  0  0  0  0  0  0  0  0  0  0
   61.5640   33.6210   48.9450 C   0  0  0  0  0  0  0  0  0  0  0  0
   61.8870   33.4430   50.2960 C   0  0  0  0  0  0  0  0  0  0  0  0
   63.1750   33.0500   50.6700 C   0  0  0  0  0  0  0  0  0  0  0  0
   64.1700   32.8500   49.6970 C   0  0  0  0  0  0  0  0  0  0  0  0
   65.5320   32.4320   50.0960 C   0  0  0  0  0  0  0  0  0  0  0  0
   66.5280   33.1570   49.8300 O   0  0  0  0  0  0  0  0  0  0  0  0
   65.7320   31.2330   50.7690 O   0  0  0  0  0  0  0  0  0  0  0  0
   63.8520   33.0610   48.3430 C   0  0  0  0  0  0  0  0  0  0  0  0
   62.5630   33.4550   47.9720 C   0  0  0  0  0  0  0  0  0  0  0  0
   58.8640   32.5530   47.1090 C   0  0  0  0  0  0  0  0  0  0  0  0
   58.5280   31.6900   47.9640 O   0  0  0  0  0  0  0  0  0  0  0  0
   57.8400   30.0780   45.7910 C   0  0  0  0  0  0  0  0  0  0  0  0
   55.1460   27.0850   45.2000 H   0  0  0  0  0  0  0  0  0  0  0  0
   56.0820   28.2344   43.5084 H   0  0  0  0  0  0  0  0  0  0  0  0
   56.0668   30.4371   42.3410 H   0  0  0  0  0  0  0  0  0  0  0  0
   57.1810   32.4139   43.3771 H   0  0  0  0  0  0  0  0  0  0  0  0
   59.6781   34.7223   49.2998 H   0  0  0  0  0  0  0  0  0  0  0  0
   61.1220   33.6136   51.0678 H   0  0  0  0  0  0  0  0  0  0  0  0
   63.4119   32.8961   51.7331 H   0  0  0  0  0  0  0  0  0  0  0  0
   64.6223   32.9151   47.5714 H   0  0  0  0  0  0  0  0  0  0  0  0
   62.3300   33.6360   46.9123 H   0  0  0  0  0  0  0  0  0  0  0  0
   58.3345   29.9758   46.7682 H   0  0  0  0  0  0  0  0  0  0  0  0
  1  2  1  0
  2  3  2  0
  2  4  2  0
  2  5  1  0
  5  6  2  0
  6  7  1  0
  7  8  2  0
  8  9  1  0
  9 10  1  0
 10 11  1  0
 11 12  2  0
 11 13  1  0
 13 14  1  0
 14 15  2  3
 15 16  1  0
 16 17  2  0
 17 18  1  0
 18 19  2  0
 19 20  1  0
 20 21  2  0
 20 22  1  0
 19 23  1  0
 23 24  2  0
 14 25  1  0
 25 26  2  0
  9 27  2  0
 27  5  1  0
 25 10  1  0
 24 16  1  0
  1 28  1  0
  6 29  1  0
  7 30  1  0
  8 31  1  0
 15 32  1  0
 17 33  1  0
 18 34  1  0
 23 35  1  0
 24 36  1  0
 27 37  1  0
M  CHG  2   1  -1  22  -1
M  END
>  <UniqueID>  (19) 
16

>  <SMILES>  (19) 
[NH-]S(=O)(=O)c1cccc(N2C(=O)SC(=Cc3ccc(C(=O)[O-])cc3)C2=O)c1

>  <Energy>  (19) 
72.17198258620336

>  <Genealogy>  (19) 
[NH-]S(=O)(=O)c1cccc(N2C(=O)SC(=Cc3ccc(C(=O)[O-])cc3)C2=O)c1 (protonated)
[NH-]S(=O)(=O)c1cccc(N2C(=O)SC(=Cc3ccc(C(=O)[O-])cc3)C2=O)c1 (3D coordinates assigned)
[NH-]S(=O)(=O)c1cccc(N2C(=O)SC(=Cc3ccc(C(=O)[O-])cc3)C2=O)c1 (nonaromatic ring conformer: 72.17198258620336 kcal/mol)

>  <smiles>  (19) 
NS(=O)(=O)c1cccc(N2C(=O)SC(=Cc3ccc(C(=O)O)cc3)C2=O)c1

>  <score_type>  (19) 
oracle

>  <origin>  (19) 
adg

>  <m_score__min__energy>  (19) 
-12.9

>  <m_primary>  (19) 
energy

$$$$
19:0
     RDKit          3D

 51 53  0  0  0  0  0  0  0  0999 V2000
   62.4250   31.3550   49.0630 H   0  0  0  0  0  0  0  0  0  0  0  0
   63.3440   31.4010   49.4360 O   0  0  0  0  0  0  0  0  0  0  0  0
   63.7820   32.7220   49.2700 C   0  0  0  0  0  0  0  0  0  0  0  0
   64.3931   32.7883   48.3578 H   0  0  0  0  0  0  0  0  0  0  0  0
   64.3773   33.0114   50.1486 H   0  0  0  0  0  0  0  0  0  0  0  0
   62.5910   33.6720   49.1470 C   0  0  0  0  0  0  0  0  0  0  0  0
   62.8226   34.4497   48.4043 H   0  0  0  0  0  0  0  0  0  0  0  0
   62.3981   34.1318   50.1275 H   0  0  0  0  0  0  0  0  0  0  0  0
   61.3960   32.9390   48.7220 N   0  0  0  0  0  0  0  0  0  0  0  0
   61.5040   32.4660   47.0520 S   0  0  0  0  0  0  0  0  0  0  0  0
   62.1860   33.5570   46.2760 O   0  0  0  0  0  0  0  0  0  0  0  0
   62.3270   31.2130   46.9340 O   0  0  0  0  0  0  0  0  0  0  0  0
   59.8980   32.2030   46.3780 C   0  0  0  0  0  0  0  0  0  0  0  0
   59.0560   33.3010   46.0780 C   0  0  0  0  0  0  0  0  0  0  0  0
   59.4086   34.3262   46.2643 H   0  0  0  0  0  0  0  0  0  0  0  0
   57.7730   33.0910   45.5440 C   0  0  0  0  0  0  0  0  0  0  0  0
   57.1066   33.9381   45.3242 H   0  0  0  0  0  0  0  0  0  0  0  0
   57.3690   31.7810   45.3010 C   0  0  0  0  0  0  0  0  0  0  0  0
   56.1610   31.3860   44.8600 N   0  0  0  0  0  0  0  0  0  0  0  0
   56.2440   30.0360   44.8360 C   0  0  0  0  0  0  0  0  0  0  0  0
   55.1580   29.2280   44.5220 O   0  0  0  0  0  0  0  0  0  0  0  0
   57.5050   29.5730   45.2130 C   0  0  0  0  0  0  0  0  0  0  0  0
   57.9340   28.1790   45.4550 C   0  0  0  0  0  0  0  0  0  0  0  0
   58.9649   27.9120   45.1795 H   0  0  0  0  0  0  0  0  0  0  0  0
   57.1650   27.2110   45.9850 C   0  0  0  0  0  0  0  0  0  0  0  0
   55.8780   27.0740   45.6150 N   0  0  0  0  0  0  0  0  0  0  0  0
   55.5140   25.8890   46.1400 C   0  0  0  0  0  0  0  0  0  0  0  0
   54.3650   25.4000   45.9820 O   0  0  0  0  0  0  0  0  0  0  0  0
   56.4770   25.2690   46.8480 N   0  0  0  0  0  0  0  0  0  0  0  0
   57.5150   26.1240   46.7950 C   0  0  0  0  0  0  0  0  0  0  0  0
   58.5870   25.9600   47.5880 C   0  0  0  0  0  0  0  0  0  0  0  0
   58.5671   25.1663   48.3494 H   0  0  0  0  0  0  0  0  0  0  0  0
   59.7580   26.7840   47.4770 N   0  0  0  0  0  0  0  0  0  0  0  0
   60.7800   26.3590   46.5170 C   0  0  0  0  0  0  0  0  0  0  0  0
   61.6632   25.9917   47.0602 H   0  0  0  0  0  0  0  0  0  0  0  0
   60.3772   25.5538   45.8850 H   0  0  0  0  0  0  0  0  0  0  0  0
   61.0669   27.2124   45.8850 H   0  0  0  0  0  0  0  0  0  0  0  0
   60.1970   27.4560   48.7120 C   0  0  0  0  0  0  0  0  0  0  0  0
   61.2788   27.2966   48.8316 H   0  0  0  0  0  0  0  0  0  0  0  0
   59.6221   27.0221   49.5434 H   0  0  0  0  0  0  0  0  0  0  0  0
   59.9240   28.9640   48.7060 C   0  0  0  0  0  0  0  0  0  0  0  0
   59.0610   29.1780   49.3537 H   0  0  0  0  0  0  0  0  0  0  0  0
   59.7130   29.2827   47.6746 H   0  0  0  0  0  0  0  0  0  0  0  0
   61.0500   29.6740   49.1820 O   0  0  0  0  0  0  0  0  0  0  0  0
   61.3550   29.2890   50.5040 C   0  0  0  0  0  0  0  0  0  0  0  0
   60.8306   29.9509   51.2089 H   0  0  0  0  0  0  0  0  0  0  0  0
   61.0321   28.2502   50.6671 H   0  0  0  0  0  0  0  0  0  0  0  0
   62.4401   29.3656   50.6671 H   0  0  0  0  0  0  0  0  0  0  0  0
   58.1940   30.7160   45.5590 C   0  0  0  0  0  0  0  0  0  0  0  0
   59.4600   30.8900   46.1200 C   0  0  0  0  0  0  0  0  0  0  0  0
   60.0981   30.0251   46.3542 H   0  0  0  0  0  0  0  0  0  0  0  0
  1  2  1  0
  2  3  1  0
  3  4  1  0
  3  5  1  0
  3  6  1  0
  6  7  1  0
  6  8  1  0
  6  9  1  0
  9 10  1  0
 10 11  2  0
 10 12  2  0
 10 13  1  0
 13 14  2  0
 14 15  1  0
 14 16  1  0
 16 17  1  0
 16 18  2  0
 18 19  1  0
 19 20  1  0
 20 21  1  0
 20 22  2  0
 22 23  1  0
 23 24  1  0
 23 25  2  3
 25 26  1  0
 26 27  1  0
 27 28  2  0
 27 29  1  0
 29 30  1  0
 30 31  2  0
 31 32  1  0
 31 33  1  0
 33 34  1  0
 34 35  1  0
 34 36  1  0
 34 37  1  0
 33 38  1  0
 38 39  1  0
 38 40  1  0
 38 41  1  0
 41 42  1  0
 41 43  1  0
 41 44  1  0
 44 45  1  0
 45 46  1  0
 45 47  1  0
 45 48  1  0
 22 49  1  0
 49 50  2  0
 50 51  1  0
 50 13  1  0
 49 18  1  0
 30 25  1  0
M  CHG  5   9  -1  19  -1  21  -1  26  -1  29  -1
M  END
>  <UniqueID>  (20) 
17

>  <SMILES>  (20) 
COCCN(C)/C=c1/[n-]c(=O)[n-]c1=Cc1c([O-])[n-]c2ccc(S(=O)(=O)[N-]CCO)cc12

>  <Energy>  (20) 
132.22075429358017

>  <Genealogy>  (20) 
COCCN(C)C=c1[n-]c(=O)[n-]c1=Cc1c([O-])[n-]c2ccc(S(=O)(=O)[N-]CCO)cc12 (protonated)
COCCN(C)/C=c1/[n-]c(=O)[n-]c1=Cc1c([O-])[n-]c2ccc(S(=O)(=O)[N-]CCO)cc12 (cis-trans isomerization)
COCCN(C)/C=c1/[n-]c(=O)[n-]c1=Cc1c([O-])[n-]c2ccc(S(=O)(=O)[N-]CCO)cc12 (3D coordinates assigned)
COCCN(C)/C=c1/[n-]c(=O)[n-]c1=Cc1c([O-])[n-]c2ccc(S(=O)(=O)[N-]CCO)cc12 (optimized conformer: 132.22075429358017 kcal/mol)

>  <smiles>  (20) 
COCCN(C)C=c1[nH]c(=O)[nH]c1=Cc1c(O)[nH]c2ccc(S(=O)(=O)NCCO)cc12

>  <score_type>  (20) 
oracle

>  <origin>  (20) 
adg

>  <m_score__min__energy>  (20) 
-16.859999999999999

>  <m_primary>  (20) 
energy

$$$$
20:0
     RDKit          3D

 41 43  0  0  0  0  0  0  0  0999 V2000
   61.5380   28.9280   49.7870 O   0  0  0  0  0  0  0  0  0  0  0  0
   60.5290   28.4980   49.1650 C   0  0  0  0  0  0  0  0  0  0  0  0
   60.3780   27.0230   48.9580 C   0  0  0  0  0  0  0  0  0  0  0  0
   60.7540   26.5890   47.2240 S   0  0  0  0  0  0  0  0  0  0  0  0
   59.4160   27.5590   46.5330 C   0  0  0  0  0  0  0  0  0  0  0  0
   58.1120   27.0570   46.5170 C   0  0  0  0  0  0  0  0  0  0  0  0
   57.0990   27.8050   45.9120 C   0  0  0  0  0  0  0  0  0  0  0  0
   57.3910   29.0560   45.3480 C   0  0  0  0  0  0  0  0  0  0  0  0
   56.3440   29.8450   44.6670 C   0  0  0  0  0  0  0  0  0  0  0  0
   55.1410   29.4780   44.7450 O   0  0  0  0  0  0  0  0  0  0  0  0
   56.6600   31.0030   43.8840 N   0  0  0  0  0  0  0  0  0  0  0  0
   57.3340   32.1830   44.3530 C   0  0  0  0  0  0  0  0  0  0  0  0
   57.0160   32.6910   45.6160 C   0  0  0  0  0  0  0  0  0  0  0  0
   57.6930   33.8060   46.1140 C   0  0  0  0  0  0  0  0  0  0  0  0
   58.6870   34.4040   45.3380 C   0  0  0  0  0  0  0  0  0  0  0  0
   59.0010   33.8900   44.1200 N   0  0  0  0  0  0  0  0  0  0  0  0
   58.3580   32.8020   43.6150 C   0  0  0  0  0  0  0  0  0  0  0  0
   58.7040   29.5430   45.4380 C   0  0  0  0  0  0  0  0  0  0  0  0
   59.6780   28.7860   46.0090 N   0  0  0  0  0  0  0  0  0  0  0  0
   59.5770   29.4120   48.5960 N   0  0  0  0  0  0  0  0  0  0  0  0
   59.7490   30.8370   48.6230 C   0  0  0  0  0  0  0  0  0  0  0  0
   58.9690   31.6450   49.4660 C   0  0  0  0  0  0  0  0  0  0  0  0
   59.1500   33.0320   49.4740 C   0  0  0  0  0  0  0  0  0  0  0  0
   60.1060   33.6200   48.6420 C   0  0  0  0  0  0  0  0  0  0  0  0
   60.2800   34.9650   48.6660 F   0  0  0  0  0  0  0  0  0  0  0  0
   60.8790   32.8210   47.7910 C   0  0  0  0  0  0  0  0  0  0  0  0
   62.0990   33.5450   46.7580 Cl  0  0  0  0  0  0  0  0  0  0  0  0
   60.6920   31.4340   47.7750 C   0  0  0  0  0  0  0  0  0  0  0  0
   61.0713   26.4894   49.6248 H   0  0  0  0  0  0  0  0  0  0  0  0
   59.3415   26.7325   49.1846 H   0  0  0  0  0  0  0  0  0  0  0  0
   57.8855   26.0833   46.9759 H   0  0  0  0  0  0  0  0  0  0  0  0
   56.0718   27.4129   45.8778 H   0  0  0  0  0  0  0  0  0  0  0  0
   56.2308   32.2113   46.2187 H   0  0  0  0  0  0  0  0  0  0  0  0
   57.4456   34.2088   47.1073 H   0  0  0  0  0  0  0  0  0  0  0  0
   59.2167   35.2922   45.7127 H   0  0  0  0  0  0  0  0  0  0  0  0
   58.6399   32.4064   42.6281 H   0  0  0  0  0  0  0  0  0  0  0  0
   58.9460   30.5414   45.0449 H   0  0  0  0  0  0  0  0  0  0  0  0
   58.8140   29.0240   47.9960 H   0  0  0  0  0  0  0  0  0  0  0  0
   58.2141   31.1862   50.1214 H   0  0  0  0  0  0  0  0  0  0  0  0
   58.5381   33.6613   50.1370 H   0  0  0  0  0  0  0  0  0  0  0  0
   61.2881   30.8093   47.0935 H   0  0  0  0  0  0  0  0  0  0  0  0
  1  2  2  0
  2  3  1  0
  3  4  1  0
  4  5  1  0
  5  6  2  0
  6  7  1  0
  7  8  2  0
  8  9  1  0
  9 10  2  0
  9 11  1  0
 11 12  1  0
 12 13  2  0
 13 14  1  0
 14 15  2  0
 15 16  1  0
 16 17  2  0
  8 18  1  0
 18 19  2  0
  2 20  1  0
 20 21  1  0
 21 22  2  0
 22 23  1  0
 23 24  2  0
 24 25  1  0
 24 26  1  0
 26 27  1  0
 26 28  2  0
 19  5  1  0
 28 21  1  0
 17 12  1  0
  3 29  1  0
  3 30  1  0
  6 31  1  0
  7 32  1  0
 13 33  1  0
 14 34  1  0
 15 35  1  0
 17 36  1  0
 18 37  1  0
 20 38  1  0
 22 39  1  0
 23 40  1  0
 28 41  1  0
M  CHG  1  11  -1
M  END
>  <UniqueID>  (21) 
18

>  <SMILES>  (21) 
O=C(CSc1ccc(C(=O)[N-]c2cccnc2)cn1)Nc1ccc(F)c(Cl)c1

>  <Energy>  (21) 
46.597973914994554

>  <Genealogy>  (21) 
O=C(CSc1ccc(C(=O)[N-]c2cccnc2)cn1)Nc1ccc(F)c(Cl)c1 (protonated)
O=C(CSc1ccc(C(=O)[N-]c2cccnc2)cn1)Nc1ccc(F)c(Cl)c1 (3D coordinates assigned)
O=C(CSc1ccc(C(=O)[N-]c2cccnc2)cn1)Nc1ccc(F)c(Cl)c1 (optimized conformer: 46.597973914994554 kcal/mol)

>  <smiles>  (21) 
O=C(CSc1ccc(C(=O)Nc2cccnc2)cn1)Nc1ccc(F)c(Cl)c1

>  <score_type>  (21) 
oracle

>  <origin>  (21) 
adg

>  <m_score__min__energy>  (21) 
-10.289999999999999

>  <m_primary>  (21) 
energy

$$$$
21:0
     RDKit          3D

 43 44  0  0  0  0  0  0  0  0999 V2000
   57.1070   24.9310   45.3580 C   0  0  0  0  0  0  0  0  0  0  0  0
   56.1920   25.9890   45.8710 C   0  0  0  0  0  0  0  0  0  0  0  0
   54.9610   25.7430   45.9830 O   0  0  0  0  0  0  0  0  0  0  0  0
   56.6990   27.2700   46.1130 O   0  0  0  0  0  0  0  0  0  0  0  0
   58.0230   27.6780   45.8840 C   0  0  0  0  0  0  0  0  0  0  0  0
   59.0670   27.3030   46.7500 C   0  0  0  0  0  0  0  0  0  0  0  0
   60.3780   27.7110   46.4940 C   0  0  0  0  0  0  0  0  0  0  0  0
   60.6620   28.4930   45.3730 C   0  0  0  0  0  0  0  0  0  0  0  0
   59.6380   28.8610   44.4990 C   0  0  0  0  0  0  0  0  0  0  0  0
   58.3160   28.4470   44.7370 C   0  0  0  0  0  0  0  0  0  0  0  0
   57.2180   28.8820   43.7990 C   0  0  0  0  0  0  0  0  0  0  0  0
   56.2680   29.8210   44.4980 C   0  0  0  0  0  0  0  0  0  0  0  0
   55.1490   29.3810   44.8730 O   0  0  0  0  0  0  0  0  0  0  0  0
   56.5820   31.1980   44.7520 N   0  0  0  0  0  0  0  0  0  0  0  0
   57.5690   32.0000   44.0360 C   0  0  0  0  0  0  0  0  0  0  0  0
   57.5110   33.4610   44.5010 C   0  0  0  0  0  0  0  0  0  0  0  0
   57.7520   33.6000   46.0110 C   0  0  0  0  0  0  0  0  0  0  0  0
   59.1620   33.2140   46.3870 C   0  0  0  0  0  0  0  0  0  0  0  0
   59.4530   31.9050   46.8080 C   0  0  0  0  0  0  0  0  0  0  0  0
   60.7540   31.5630   47.1930 C   0  0  0  0  0  0  0  0  0  0  0  0
   61.7690   32.5230   47.1640 C   0  0  0  0  0  0  0  0  0  0  0  0
   61.4870   33.8270   46.7470 C   0  0  0  0  0  0  0  0  0  0  0  0
   60.1880   34.1720   46.3600 C   0  0  0  0  0  0  0  0  0  0  0  0
   57.5658   24.4005   46.2054 H   0  0  0  0  0  0  0  0  0  0  0  0
   56.5361   24.2182   44.7449 H   0  0  0  0  0  0  0  0  0  0  0  0
   57.8947   25.3932   44.7449 H   0  0  0  0  0  0  0  0  0  0  0  0
   58.8493   26.6850   47.6336 H   0  0  0  0  0  0  0  0  0  0  0  0
   61.1882   27.4156   47.1769 H   0  0  0  0  0  0  0  0  0  0  0  0
   61.6942   28.8196   45.1783 H   0  0  0  0  0  0  0  0  0  0  0  0
   59.8670   29.4790   43.6183 H   0  0  0  0  0  0  0  0  0  0  0  0
   57.6631   29.3951   42.9338 H   0  0  0  0  0  0  0  0  0  0  0  0
   56.6606   27.9936   43.4673 H   0  0  0  0  0  0  0  0  0  0  0  0
   58.5738   31.5972   44.2314 H   0  0  0  0  0  0  0  0  0  0  0  0
   57.3480   31.9595   42.9592 H   0  0  0  0  0  0  0  0  0  0  0  0
   58.2821   34.0340   43.9652 H   0  0  0  0  0  0  0  0  0  0  0  0
   56.5032   33.8444   44.2836 H   0  0  0  0  0  0  0  0  0  0  0  0
   57.5776   34.6454   46.3055 H   0  0  0  0  0  0  0  0  0  0  0  0
   57.0594   32.9237   46.5334 H   0  0  0  0  0  0  0  0  0  0  0  0
   58.6559   31.1474   46.8349 H   0  0  0  0  0  0  0  0  0  0  0  0
   60.9782   30.5366   47.5191 H   0  0  0  0  0  0  0  0  0  0  0  0
   62.7905   32.2524   47.4695 H   0  0  0  0  0  0  0  0  0  0  0  0
   62.2867   34.5819   46.7232 H   0  0  0  0  0  0  0  0  0  0  0  0
   59.9691   35.1991   46.0328 H   0  0  0  0  0  0  0  0  0  0  0  0
  1  2  1  0
  2  3  2  0
  2  4  1  0
  4  5  1  0
  5  6  2  0
  6  7  1  0
  7  8  2  0
  8  9  1  0
  9 10  2  0
 10 11  1  0
 11 12  1  0
 12 13  2  0
 12 14  1  0
 14 15  1  0
 15 16  1  0
 16 17  1  0
 17 18  1  0
 18 19  2  0
 19 20  1  0
 20 21  2  0
 21 22  1  0
 22 23  2  0
 10  5  1  0
 23 18  1  0
  1 24  1  0
  1 25  1  0
  1 26  1  0
  6 27  1  0
  7 28  1  0
  8 29  1  0
  9 30  1  0
 11 31  1  0
 11 32  1  0
 15 33  1  0
 15 34  1  0
 16 35  1  0
 16 36  1  0
 17 37  1  0
 17 38  1  0
 19 39  1  0
 20 40  1  0
 21 41  1  0
 22 42  1  0
 23 43  1  0
M  CHG  1  14  -1
M  END
>  <UniqueID>  (22) 
19

>  <SMILES>  (22) 
CC(=O)Oc1ccccc1CC(=O)[N-]CCCc1ccccc1

>  <Energy>  (22) 
36.99009546189692

>  <Genealogy>  (22) 
CC(=O)Oc1ccccc1CC(=O)[N-]CCCc1ccccc1 (protonated)
CC(=O)Oc1ccccc1CC(=O)[N-]CCCc1ccccc1 (3D coordinates assigned)
CC(=O)Oc1ccccc1CC(=O)[N-]CCCc1ccccc1 (optimized conformer: 36.99009546189692 kcal/mol)

>  <smiles>  (22) 
CC(=O)Oc1ccccc1CC(=O)NCCCc1ccccc1

>  <score_type>  (22) 
oracle

>  <origin>  (22) 
adg

>  <m_score__min__energy>  (22) 
-10.109999999999999

>  <m_primary>  (22) 
energy

$$$$
22:0
     RDKit          3D

 23 23  0  0  0  0  0  0  0  0999 V2000
   55.1800   28.7850   42.6200 H   0  0  0  0  0  0  0  0  0  0  0  0
   55.5230   29.7250   42.7730 O   0  0  0  0  0  0  0  0  0  0  0  0
   56.4510   30.0190   43.7710 C   0  0  0  0  0  0  0  0  0  0  0  0
   57.4010   31.0210   43.5450 C   0  0  0  0  0  0  0  0  0  0  0  0
   57.4077   31.5629   42.5878 H   0  0  0  0  0  0  0  0  0  0  0  0
   58.3420   31.3370   44.5300 C   0  0  0  0  0  0  0  0  0  0  0  0
   59.0959   32.1148   44.3383 H   0  0  0  0  0  0  0  0  0  0  0  0
   58.3280   30.6660   45.7610 C   0  0  0  0  0  0  0  0  0  0  0  0
   59.3440   31.0000   46.7770 C   0  0  0  0  0  0  0  0  0  0  0  0
   59.8718   30.1696   47.2689 H   0  0  0  0  0  0  0  0  0  0  0  0
   59.6670   32.2540   47.1410 C   0  0  0  0  0  0  0  0  0  0  0  0
   61.0180   32.7100   46.9150 C   0  0  0  0  0  0  0  0  0  0  0  0
   62.1000   33.0760   46.7360 N   0  0  0  0  0  0  0  0  0  0  0  0
   58.6710   33.2380   47.7120 C   0  0  0  0  0  0  0  0  0  0  0  0
   57.6992   32.7369   47.8324 H   0  0  0  0  0  0  0  0  0  0  0  0
   59.0460   33.5914   48.6838 H   0  0  0  0  0  0  0  0  0  0  0  0
   58.5080   34.3890   46.8310 N   0  0  0  0  0  0  0  0  0  0  0  0
   57.7810   34.3300   45.8390 N   0  0  0  0  0  0  0  0  0  0  0  0
   57.0550   34.2730   44.8480 N   0  0  0  0  0  0  0  0  0  0  0  0
   57.3920   29.6410   45.9790 C   0  0  0  0  0  0  0  0  0  0  0  0
   57.3978   29.0860   46.9287 H   0  0  0  0  0  0  0  0  0  0  0  0
   56.4520   29.3240   44.9910 C   0  0  0  0  0  0  0  0  0  0  0  0
   55.5260   28.3130   45.2290 O   0  0  0  0  0  0  0  0  0  0  0  0
  1  2  1  0
  2  3  1  0
  3  4  2  0
  4  5  1  0
  4  6  1  0
  6  7  1  0
  6  8  2  0
  8  9  1  0
  9 10  1  0
  9 11  2  0
 11 12  1  0
 12 13  3  0
 11 14  1  0
 14 15  1  0
 14 16  1  0
 14 17  1  0
 17 18  2  0
 18 19  2  0
  8 20  1  0
 20 21  1  0
 20 22  2  0
 22 23  1  0
 22  3  1  0
M  CHG  3  18   1  19  -1  23  -1
M  END
>  <UniqueID>  (23) 
20

>  <SMILES>  (23) 
N#C/C(=C/c1ccc(O)c([O-])c1)CN=[N+]=[N-]

>  <Energy>  (23) 
24.79027739186638

>  <Genealogy>  (23) 
N#CC(=Cc1ccc(O)c([O-])c1)CN=[N+]=[N-] (protonated)
N#C/C(=C/c1ccc(O)c([O-])c1)CN=[N+]=[N-] (cis-trans isomerization)
N#C/C(=C/c1ccc(O)c([O-])c1)CN=[N+]=[N-] (3D coordinates assigned)
N#C/C(=C/c1ccc(O)c([O-])c1)CN=[N+]=[N-] (optimized conformer: 24.79027739186638 kcal/mol)

>  <smiles>  (23) 
N#CC(=Cc1ccc(O)c(O)c1)CN=[N+]=[N-]

>  <score_type>  (23) 
oracle

>  <origin>  (23) 
adg

>  <m_score__min__energy>  (23) 
-9.8800000000000008

>  <m_primary>  (23) 
energy

$$$$
23:0
     RDKit          3D

 81 83  0  0  0  0  0  0  0  0999 V2000
   59.1580   33.8330   51.8050 C   0  0  0  0  0  0  0  0  0  0  0  0
   60.2900   33.2170   50.5790 S   0  0  0  0  0  0  0  0  0  0  0  0
   61.6140   33.9160   50.7200 O   0  0  0  0  0  0  0  0  0  0  0  0
   60.4930   31.7430   50.7880 O   0  0  0  0  0  0  0  0  0  0  0  0
   59.6380   33.5190   48.9710 C   0  0  0  0  0  0  0  0  0  0  0  0
   58.5780   32.7500   48.4690 C   0  0  0  0  0  0  0  0  0  0  0  0
   58.0830   32.9940   47.1840 C   0  0  0  0  0  0  0  0  0  0  0  0
   58.6240   34.0250   46.3970 C   0  0  0  0  0  0  0  0  0  0  0  0
   58.1050   34.2660   44.9990 C   0  0  0  0  0  0  0  0  0  0  0  0
   58.1690   33.0530   44.1620 N   0  0  0  0  0  0  0  0  0  0  0  0
   57.0810   32.0820   44.4030 C   0  0  0  0  0  0  0  0  0  0  0  0
   57.2240   30.7510   43.6260 C   0  0  0  0  0  0  0  0  0  0  0  0
   56.8510   29.4770   44.4160 C   0  0  0  0  0  0  0  0  0  0  0  0
   57.6230   28.2810   44.0390 N   0  0  0  0  0  0  0  0  0  0  0  0
   58.8380   28.1120   44.8540 C   0  0  0  0  0  0  0  0  0  0  0  0
   58.9360   29.2180   45.9070 C   0  0  0  0  0  0  0  0  0  0  0  0
   60.1750   29.0560   46.7970 C   0  0  0  0  0  0  0  0  0  0  0  0
   60.1360   29.9960   48.0060 C   0  0  0  0  0  0  0  0  0  0  0  0
   61.3920   30.7520   48.1210 N   0  0  0  0  0  0  0  0  0  0  0  0
   61.5980   31.6590   46.9740 C   0  0  0  0  0  0  0  0  0  0  0  0
   62.6870   32.7190   47.2290 C   0  0  0  0  0  0  0  0  0  0  0  0
   63.7810   32.2700   48.2100 C   0  0  0  0  0  0  0  0  0  0  0  0
   63.2960   32.3380   49.5950 N   0  0  0  0  0  0  0  0  0  0  0  0
   63.9770   31.3390   50.4270 C   0  0  0  0  0  0  0  0  0  0  0  0
   65.3810   31.7840   50.7050 C   0  0  0  0  0  0  0  0  0  0  0  0
   65.8280   33.0920   50.6600 C   0  0  0  0  0  0  0  0  0  0  0  0
   67.1620   33.0610   51.0150 C   0  0  0  0  0  0  0  0  0  0  0  0
   67.5450   31.7960   51.2680 N   0  0  0  0  0  0  0  0  0  0  0  0
   66.4740   31.0030   51.0680 C   0  0  0  0  0  0  0  0  0  0  0  0
   66.5070   29.5350   51.2510 C   0  0  0  0  0  0  0  0  0  0  0  0
   65.5250   28.8800   52.0130 C   0  0  0  0  0  0  0  0  0  0  0  0
   65.5630   27.4920   52.1700 C   0  0  0  0  0  0  0  0  0  0  0  0
   66.5720   26.7440   51.5550 C   0  0  0  0  0  0  0  0  0  0  0  0
   67.5440   27.3850   50.7840 C   0  0  0  0  0  0  0  0  0  0  0  0
   68.5240   26.6610   50.1900 F   0  0  0  0  0  0  0  0  0  0  0  0
   67.5080   28.7740   50.6240 C   0  0  0  0  0  0  0  0  0  0  0  0
   59.6730   34.8030   46.9110 C   0  0  0  0  0  0  0  0  0  0  0  0
   60.1820   34.5480   48.1860 C   0  0  0  0  0  0  0  0  0  0  0  0
   59.5525   33.6183   52.8091 H   0  0  0  0  0  0  0  0  0  0  0  0
   59.0400   34.9197   51.6820 H   0  0  0  0  0  0  0  0  0  0  0  0
   58.1814   33.3419   51.6820 H   0  0  0  0  0  0  0  0  0  0  0  0
   58.1356   31.9543   49.0865 H   0  0  0  0  0  0  0  0  0  0  0  0
   57.2650   32.3750   46.7868 H   0  0  0  0  0  0  0  0  0  0  0  0
   57.0580   34.5973   45.0624 H   0  0  0  0  0  0  0  0  0  0  0  0
   58.7408   35.0321   44.5311 H   0  0  0  0  0  0  0  0  0  0  0  0
   59.0960   32.5890   44.3000 H   0  0  0  0  0  0  0  0  0  0  0  0
   58.1290   33.3400   43.1560 H   0  0  0  0  0  0  0  0  0  0  0  0
   57.0585   31.8513   45.4783 H   0  0  0  0  0  0  0  0  0  0  0  0
   56.1548   32.5551   44.0448 H   0  0  0  0  0  0  0  0  0  0  0  0
   56.5732   30.8036   42.7407 H   0  0  0  0  0  0  0  0  0  0  0  0
   58.2930   30.6551   43.3850 H   0  0  0  0  0  0  0  0  0  0  0  0
   57.0201   29.6730   45.4851 H   0  0  0  0  0  0  0  0  0  0  0  0
   55.7986   29.2587   44.1819 H   0  0  0  0  0  0  0  0  0  0  0  0
   57.0250   27.4260   44.1180 H   0  0  0  0  0  0  0  0  0  0  0  0
   58.8028   27.1348   45.3578 H   0  0  0  0  0  0  0  0  0  0  0  0
   59.7179   28.1684   44.1963 H   0  0  0  0  0  0  0  0  0  0  0  0
   58.9903   30.1908   45.3963 H   0  0  0  0  0  0  0  0  0  0  0  0
   58.0455   29.1551   46.5496 H   0  0  0  0  0  0  0  0  0  0  0  0
   60.2221   28.0171   47.1555 H   0  0  0  0  0  0  0  0  0  0  0  0
   61.0616   29.3087   46.1969 H   0  0  0  0  0  0  0  0  0  0  0  0
   59.3002   30.7013   47.8875 H   0  0  0  0  0  0  0  0  0  0  0  0
   60.0027   29.3935   48.9166 H   0  0  0  0  0  0  0  0  0  0  0  0
   61.3950   31.2800   49.0250 H   0  0  0  0  0  0  0  0  0  0  0  0
   61.8922   31.0580   46.1010 H   0  0  0  0  0  0  0  0  0  0  0  0
   60.6521   32.1947   46.8057 H   0  0  0  0  0  0  0  0  0  0  0  0
   63.1635   32.9630   46.2681 H   0  0  0  0  0  0  0  0  0  0  0  0
   62.1862   33.5850   47.6865 H   0  0  0  0  0  0  0  0  0  0  0  0
   64.0701   31.2341   47.9791 H   0  0  0  0  0  0  0  0  0  0  0  0
   64.6469   32.9402   48.1051 H   0  0  0  0  0  0  0  0  0  0  0  0
   62.2760   32.0990   49.5990 H   0  0  0  0  0  0  0  0  0  0  0  0
   63.4351   31.2241   51.3773 H   0  0  0  0  0  0  0  0  0  0  0  0
   63.9990   30.3764   49.8951 H   0  0  0  0  0  0  0  0  0  0  0  0
   65.2376   33.9812   50.3940 H   0  0  0  0  0  0  0  0  0  0  0  0
   67.8167   33.9425   51.0814 H   0  0  0  0  0  0  0  0  0  0  0  0
   68.5060   31.4970   51.5480 H   0  0  0  0  0  0  0  0  0  0  0  0
   64.7222   29.4627   52.4884 H   0  0  0  0  0  0  0  0  0  0  0  0
   64.7981   26.9870   52.7782 H   0  0  0  0  0  0  0  0  0  0  0  0
   66.6000   25.6513   51.6785 H   0  0  0  0  0  0  0  0  0  0  0  0
   68.2673   29.2732   50.0041 H   0  0  0  0  0  0  0  0  0  0  0  0
   60.0966   35.6182   46.3060 H   0  0  0  0  0  0  0  0  0  0  0  0
   61.0118   35.1553   48.5766 H   0  0  0  0  0  0  0  0  0  0  0  0
  1  2  1  0
  2  3  2  0
  2  4  2  0
  2  5  1  0
  5  6  2  0
  6  7  1  0
  7  8  2  0
  8  9  1  0
  9 10  1  0
 10 11  1  0
 11 12  1  0
 12 13  1  0
 13 14  1  0
 14 15  1  0
 15 16  1  0
 16 17  1  0
 17 18  1  0
 18 19  1  0
 19 20  1  0
 20 21  1  0
 21 22  1  0
 22 23  1  0
 23 24  1  0
 24 25  1  0
 25 26  1  0
 26 27  2  0
 27 28  1  0
 28 29  1  0
 29 30  1  0
 30 31  2  0
 31 32  1  0
 32 33  2  0
 33 34  1  0
 34 35  1  0
 34 36  2  0
  8 37  1  0
 37 38  2  0
 38  5  1  0
 29 25  2  0
 36 30  1  0
  1 39  1  0
  1 40  1  0
  1 41  1  0
  6 42  1  0
  7 43  1  0
  9 44  1  0
  9 45  1  0
 10 46  1  0
 10 47  1  0
 11 48  1  0
 11 49  1  0
 12 50  1  0
 12 51  1  0
 13 52  1  0
 13 53  1  0
 14 54  1  0
 15 55  1  0
 15 56  1  0
 16 57  1  0
 16 58  1  0
 17 59  1  0
 17 60  1  0
 18 61  1  0
 18 62  1  0
 19 63  1  0
 20 64  1  0
 20 65  1  0
 21 66  1  0
 21 67  1  0
 22 68  1  0
 22 69  1  0
 23 70  1  0
 24 71  1  0
 24 72  1  0
 26 73  1  0
 27 74  1  0
 28 75  1  0
 31 76  1  0
 32 77  1  0
 33 78  1  0
 36 79  1  0
 37 80  1  0
 38 81  1  0
M  CHG  1  10   1
M  END
>  <UniqueID>  (24) 
21

>  <SMILES>  (24) 
CS(=O)(=O)c1ccc(C[NH2+]CCCNCCCCNCCCNCc2cc[nH]c2-c2cccc(F)c2)cc1

>  <Energy>  (24) 
100.87241223661421

>  <Genealogy>  (24) 
CS(=O)(=O)c1ccc(C[NH2+]CCCNCCCCNCCCNCc2cc[nH]c2-c2cccc(F)c2)cc1 (protonated)
CS(=O)(=O)c1ccc(C[NH2+]CCCNCCCCNCCCNCc2cc[nH]c2-c2cccc(F)c2)cc1 (3D coordinates assigned)
CS(=O)(=O)c1ccc(C[NH2+]CCCNCCCCNCCCNCc2cc[nH]c2-c2cccc(F)c2)cc1 (optimized conformer: 100.87241223661421 kcal/mol)

>  <smiles>  (24) 
CS(=O)(=O)c1ccc(CNCCCNCCCCNCCCNCc2cc[nH]c2-c2cccc(F)c2)cc1

>  <score_type>  (24) 
oracle

>  <origin>  (24) 
adg

>  <m_score__min__energy>  (24) 
-6.4699999999999998

>  <m_primary>  (24) 
energy

$$$$
24:0
     RDKit          3D

 51 54  0  0  0  0  0  0  0  0999 V2000
   60.7760   27.5920   49.2000 C   0  0  0  0  0  0  0  0  0  0  0  0
   59.9270   28.0260   48.0430 C   0  0  0  0  0  0  0  0  0  0  0  0
   60.0220   27.3690   46.8070 C   0  0  0  0  0  0  0  0  0  0  0  0
   59.2530   27.7990   45.7200 C   0  0  0  0  0  0  0  0  0  0  0  0
   58.3910   28.8960   45.8550 C   0  0  0  0  0  0  0  0  0  0  0  0
   57.4240   29.4160   44.4780 S   0  0  0  0  0  0  0  0  0  0  0  0
   57.4220   28.3760   43.3920 O   0  0  0  0  0  0  0  0  0  0  0  0
   56.0090   29.6340   44.9390 O   0  0  0  0  0  0  0  0  0  0  0  0
   58.0580   30.9030   43.8490 N   0  0  0  0  0  0  0  0  0  0  0  0
   58.2410   32.0950   44.6350 C   0  0  0  0  0  0  0  0  0  0  0  0
   57.4030   33.2150   44.4890 C   0  0  0  0  0  0  0  0  0  0  0  0
   57.6050   34.3520   45.2710 C   0  0  0  0  0  0  0  0  0  0  0  0
   58.6410   34.3910   46.2060 C   0  0  0  0  0  0  0  0  0  0  0  0
   59.4970   33.2870   46.3660 C   0  0  0  0  0  0  0  0  0  0  0  0
   60.6090   33.3050   47.3540 C   0  0  0  0  0  0  0  0  0  0  0  0
   60.5020   33.9720   48.5820 C   0  0  0  0  0  0  0  0  0  0  0  0
   61.5790   33.9650   49.4650 C   0  0  0  0  0  0  0  0  0  0  0  0
   62.7630   33.3010   49.1070 C   0  0  0  0  0  0  0  0  0  0  0  0
   63.9160   33.2750   49.9780 N   0  0  0  0  0  0  0  0  0  0  0  0
   63.9000   33.9590   51.2790 C   0  0  0  0  0  0  0  0  0  0  0  0
   65.3210   34.3570   51.6900 C   0  0  0  0  0  0  0  0  0  0  0  0
   66.1960   33.2510   51.6070 O   0  0  0  0  0  0  0  0  0  0  0  0
   66.3280   32.8520   50.2560 C   0  0  0  0  0  0  0  0  0  0  0  0
   64.9990   32.3180   49.7140 C   0  0  0  0  0  0  0  0  0  0  0  0
   62.8120   32.6700   47.9010 N   0  0  0  0  0  0  0  0  0  0  0  0
   61.7780   32.6740   47.0590 N   0  0  0  0  0  0  0  0  0  0  0  0
   59.2770   32.1380   45.5830 C   0  0  0  0  0  0  0  0  0  0  0  0
   58.3080   29.5640   47.0850 C   0  0  0  0  0  0  0  0  0  0  0  0
   59.0750   29.1350   48.1720 C   0  0  0  0  0  0  0  0  0  0  0  0
   60.2710   27.8501   50.1425 H   0  0  0  0  0  0  0  0  0  0  0  0
   60.9311   26.5040   49.1532 H   0  0  0  0  0  0  0  0  0  0  0  0
   61.7488   28.1034   49.1532 H   0  0  0  0  0  0  0  0  0  0  0  0
   60.7033   26.5130   46.6921 H   0  0  0  0  0  0  0  0  0  0  0  0
   59.3252   27.2742   44.7560 H   0  0  0  0  0  0  0  0  0  0  0  0
   58.2300   30.9440   42.8200 H   0  0  0  0  0  0  0  0  0  0  0  0
   56.5844   33.1941   43.7546 H   0  0  0  0  0  0  0  0  0  0  0  0
   56.9442   35.2231   45.1504 H   0  0  0  0  0  0  0  0  0  0  0  0
   58.7885   35.2908   46.8213 H   0  0  0  0  0  0  0  0  0  0  0  0
   59.5729   34.4979   48.8468 H   0  0  0  0  0  0  0  0  0  0  0  0
   61.5025   34.4761   50.4360 H   0  0  0  0  0  0  0  0  0  0  0  0
   63.2772   34.8628   51.2058 H   0  0  0  0  0  0  0  0  0  0  0  0
   63.4873   33.2762   52.0363 H   0  0  0  0  0  0  0  0  0  0  0  0
   65.6806   35.1523   51.0205 H   0  0  0  0  0  0  0  0  0  0  0  0
   65.3003   34.7126   52.7307 H   0  0  0  0  0  0  0  0  0  0  0  0
   66.6415   33.7173   49.6535 H   0  0  0  0  0  0  0  0  0  0  0  0
   67.0800   32.0513   50.1968 H   0  0  0  0  0  0  0  0  0  0  0  0
   65.0872   32.1609   48.6289 H   0  0  0  0  0  0  0  0  0  0  0  0
   64.7653   31.3676   50.2161 H   0  0  0  0  0  0  0  0  0  0  0  0
   59.9264   31.2601   45.7155 H   0  0  0  0  0  0  0  0  0  0  0  0
   57.6370   30.4287   47.1949 H   0  0  0  0  0  0  0  0  0  0  0  0
   59.0110   29.6680   49.1321 H   0  0  0  0  0  0  0  0  0  0  0  0
  1  2  1  0
  2  3  2  0
  3  4  1  0
  4  5  2  0
  5  6  1  0
  6  7  2  0
  6  8  2  0
  6  9  1  0
  9 10  1  0
 10 11  2  0
 11 12  1  0
 12 13  2  0
 13 14  1  0
 14 15  1  0
 15 16  2  0
 16 17  1  0
 17 18  2  0
 18 19  1  0
 19 20  1  0
 20 21  1  0
 21 22  1  0
 22 23  1  0
 23 24  1  0
 18 25  1  0
 25 26  2  0
 14 27  2  0
  5 28  1  0
 28 29  2  0
 29  2  1  0
 27 10  1  0
 26 15  1  0
 24 19  1  0
  1 30  1  0
  1 31  1  0
  1 32  1  0
  3 33  1  0
  4 34  1  0
  9 35  1  0
 11 36  1  0
 12 37  1  0
 13 38  1  0
 16 39  1  0
 17 40  1  0
 20 41  1  0
 20 42  1  0
 21 43  1  0
 21 44  1  0
 23 45  1  0
 23 46  1  0
 24 47  1  0
 24 48  1  0
 27 49  1  0
 28 50  1  0
 29 51  1  0
M  END
>  <UniqueID>  (25) 
22

>  <SMILES>  (25) 
Cc1ccc(S(=O)(=O)Nc2cccc(-c3ccc(N4CCOCC4)nn3)c2)cc1

>  <Energy>  (25) 
65.7275284157002

>  <Genealogy>  (25) 
Cc1ccc(S(=O)(=O)Nc2cccc(-c3ccc(N4CCOCC4)nn3)c2)cc1 (3D coordinates assigned)
Cc1ccc(S(=O)(=O)Nc2cccc(-c3ccc(N4CCOCC4)nn3)c2)cc1 (nonaromatic ring conformer: 65.7275284157002 kcal/mol)

>  <smiles>  (25) 
Cc1ccc(S(=O)(=O)Nc2cccc(-c3ccc(N4CCOCC4)nn3)c2)cc1

>  <score_type>  (25) 
oracle

>  <origin>  (25) 
adg

>  <m_score__min__energy>  (25) 
-9.8699999999999992

>  <m_primary>  (25) 
energy

$$$$
25:0
     RDKit          3D

 37 39  0  0  0  0  0  0  0  0999 V2000
   53.0780   24.9600   45.6230 N   0  0  0  0  0  0  0  0  0  0  0  0
   53.2390   23.4690   44.7610 S   0  0  0  0  0  0  0  0  0  0  0  0
   52.0520   23.3010   43.8540 O   0  0  0  0  0  0  0  0  0  0  0  0
   53.2820   22.3120   45.7190 O   0  0  0  0  0  0  0  0  0  0  0  0
   54.6770   23.4950   43.7920 N   0  0  0  0  0  0  0  0  0  0  0  0
   55.9780   23.0310   44.1900 C   0  0  0  0  0  0  0  0  0  0  0  0
   56.7430   22.1850   43.3650 C   0  0  0  0  0  0  0  0  0  0  0  0
   58.0170   21.7720   43.7600 C   0  0  0  0  0  0  0  0  0  0  0  0
   58.5430   22.1930   44.9800 C   0  0  0  0  0  0  0  0  0  0  0  0
   57.7980   23.0320   45.8090 C   0  0  0  0  0  0  0  0  0  0  0  0
   56.5190   23.4660   45.4210 C   0  0  0  0  0  0  0  0  0  0  0  0
   55.7560   24.3680   46.3180 C   0  0  0  0  0  0  0  0  0  0  0  0
   55.3360   23.9270   47.4200 O   0  0  0  0  0  0  0  0  0  0  0  0
   55.5240   25.7500   45.9970 N   0  0  0  0  0  0  0  0  0  0  0  0
   56.4190   26.6930   46.0030 C   0  0  0  0  0  0  0  0  0  0  0  0
   56.3170   27.8420   45.3040 N   0  0  0  0  0  0  0  0  0  0  0  0
   57.3850   28.6630   45.5030 C   0  0  0  0  0  0  0  0  0  0  0  0
   57.4880   29.9700   44.8040 C   0  0  0  0  0  0  0  0  0  0  0  0
   57.0140   30.0950   43.4830 C   0  0  0  0  0  0  0  0  0  0  0  0
   57.1040   31.3160   42.8080 C   0  0  0  0  0  0  0  0  0  0  0  0
   57.6620   32.4270   43.4410 C   0  0  0  0  0  0  0  0  0  0  0  0
   58.1310   32.3210   44.7520 C   0  0  0  0  0  0  0  0  0  0  0  0
   58.0460   31.1030   45.4330 C   0  0  0  0  0  0  0  0  0  0  0  0
   58.3420   28.1520   46.3880 C   0  0  0  0  0  0  0  0  0  0  0  0
   57.8210   26.6400   46.9180 S   0  0  0  0  0  0  0  0  0  0  0  0
   53.5560   25.7000   45.0640 H   0  0  0  0  0  0  0  0  0  0  0  0
   53.6150   24.8590   46.5120 H   0  0  0  0  0  0  0  0  0  0  0  0
   56.3339   21.8466   42.4016 H   0  0  0  0  0  0  0  0  0  0  0  0
   58.6070   21.1126   43.1065 H   0  0  0  0  0  0  0  0  0  0  0  0
   59.5459   21.8636   45.2894 H   0  0  0  0  0  0  0  0  0  0  0  0
   58.2150   23.3563   46.7739 H   0  0  0  0  0  0  0  0  0  0  0  0
   56.5694   29.2245   42.9785 H   0  0  0  0  0  0  0  0  0  0  0  0
   56.7340   31.4009   41.7756 H   0  0  0  0  0  0  0  0  0  0  0  0
   57.7325   33.3863   42.9074 H   0  0  0  0  0  0  0  0  0  0  0  0
   58.5687   33.1985   45.2504 H   0  0  0  0  0  0  0  0  0  0  0  0
   58.4166   31.0275   46.4659 H   0  0  0  0  0  0  0  0  0  0  0  0
   59.2750   28.6524   46.6864 H   0  0  0  0  0  0  0  0  0  0  0  0
  1  2  1  0
  2  3  2  0
  2  4  2  0
  2  5  1  0
  5  6  1  0
  6  7  2  0
  7  8  1  0
  8  9  2  0
  9 10  1  0
 10 11  2  0
 11 12  1  0
 12 13  2  0
 12 14  1  0
 14 15  2  3
 15 16  1  0
 16 17  1  0
 17 18  1  0
 18 19  2  0
 19 20  1  0
 20 21  2  0
 21 22  1  0
 22 23  2  0
 17 24  2  0
 24 25  1  0
 11  6  1  0
 25 15  1  0
 23 18  1  0
  1 26  1  0
  1 27  1  0
  7 28  1  0
  8 29  1  0
  9 30  1  0
 10 31  1  0
 19 32  1  0
 20 33  1  0
 21 34  1  0
 22 35  1  0
 23 36  1  0
 24 37  1  0
M  CHG  2   5  -1  16  -1
M  END
>  <UniqueID>  (26) 
23

>  <SMILES>  (26) 
NS(=O)(=O)[N-]c1ccccc1C(=O)N=c1[n-]c(-c2ccccc2)cs1

>  <Energy>  (26) 
79.87144184607533

>  <Genealogy>  (26) 
NS(=O)(=O)[N-]c1ccccc1C(=O)N=c1[n-]c(-c2ccccc2)cs1 (protonated)
NS(=O)(=O)[N-]c1ccccc1C(=O)N=c1[n-]c(-c2ccccc2)cs1 (3D coordinates assigned)
NS(=O)(=O)[N-]c1ccccc1C(=O)N=c1[n-]c(-c2ccccc2)cs1 (optimized conformer: 79.87144184607533 kcal/mol)

>  <smiles>  (26) 
NS(=O)(=O)Nc1ccccc1C(=O)N=c1[nH]c(-c2ccccc2)cs1

>  <score_type>  (26) 
oracle

>  <origin>  (26) 
adg

>  <m_score__min__energy>  (26) 
-12.68

>  <m_primary>  (26) 
energy

$$$$
26:0
     RDKit          3D

 72 76  0  0  0  0  0  0  0  0999 V2000
   56.3620   23.2770   43.0280 C   0  0  0  0  0  0  0  0  0  0  0  0
   57.0320   23.8090   44.1660 O   0  0  0  0  0  0  0  0  0  0  0  0
   57.2260   25.1780   44.4030 C   0  0  0  0  0  0  0  0  0  0  0  0
   57.7510   25.9610   43.3700 C   0  0  0  0  0  0  0  0  0  0  0  0
   57.9650   27.3290   43.5530 C   0  0  0  0  0  0  0  0  0  0  0  0
   57.6580   27.9400   44.7820 C   0  0  0  0  0  0  0  0  0  0  0  0
   57.8890   29.3920   44.9770 C   0  0  0  0  0  0  0  0  0  0  0  0
   58.7680   29.8500   45.9760 C   0  0  0  0  0  0  0  0  0  0  0  0
   58.9530   31.2200   46.1810 C   0  0  0  0  0  0  0  0  0  0  0  0
   58.2690   32.1520   45.3880 C   0  0  0  0  0  0  0  0  0  0  0  0
   58.3990   33.8740   45.7260 S   0  0  0  0  0  0  0  0  0  0  0  0
   57.0320   34.4940   45.8250 O   0  0  0  0  0  0  0  0  0  0  0  0
   59.1550   34.5500   44.6170 O   0  0  0  0  0  0  0  0  0  0  0  0
   59.2510   34.0820   47.2160 N   0  0  0  0  0  0  0  0  0  0  0  0
   60.6210   33.6830   47.3210 C   0  0  0  0  0  0  0  0  0  0  0  0
   61.5560   34.2300   46.4310 C   0  0  0  0  0  0  0  0  0  0  0  0
   62.8940   33.8350   46.4790 C   0  0  0  0  0  0  0  0  0  0  0  0
   63.3100   32.8900   47.4160 C   0  0  0  0  0  0  0  0  0  0  0  0
   62.3930   32.3470   48.3200 C   0  0  0  0  0  0  0  0  0  0  0  0
   61.0430   32.7440   48.2950 C   0  0  0  0  0  0  0  0  0  0  0  0
   60.1200   32.2230   49.3320 C   0  0  0  0  0  0  0  0  0  0  0  0
   59.2870   33.0070   50.0580 N   0  0  0  0  0  0  0  0  0  0  0  0
   58.6390   32.1290   50.8480 C   0  0  0  0  0  0  0  0  0  0  0  0
   57.5750   32.5150   51.8300 C   0  0  0  0  0  0  0  0  0  0  0  0
   57.7670   31.7890   53.1630 C   0  0  0  0  0  0  0  0  0  0  0  0
   56.9080   30.6500   53.2380 O   0  0  0  0  0  0  0  0  0  0  0  0
   55.5310   30.6530   52.9550 C   0  0  0  0  0  0  0  0  0  0  0  0
   55.1250   30.8490   51.6300 C   0  0  0  0  0  0  0  0  0  0  0  0
   53.7660   30.8870   51.2990 C   0  0  0  0  0  0  0  0  0  0  0  0
   52.7920   30.7130   52.2930 C   0  0  0  0  0  0  0  0  0  0  0  0
   51.3300   30.8080   51.9510 C   0  0  0  0  0  0  0  0  0  0  0  0
   51.0190   32.1510   51.3700 C   0  0  0  0  0  0  0  0  0  0  0  0
   51.0570   32.3250   50.1230 O   0  0  0  0  0  0  0  0  0  0  0  0
   50.6500   33.1990   52.2010 O   0  0  0  0  0  0  0  0  0  0  0  0
   53.1950   30.5080   53.6220 C   0  0  0  0  0  0  0  0  0  0  0  0
   54.5520   30.4690   53.9510 C   0  0  0  0  0  0  0  0  0  0  0  0
   59.0850   30.8550   50.5650 C   0  0  0  0  0  0  0  0  0  0  0  0
   58.6200   29.5670   51.1610 C   0  0  0  0  0  0  0  0  0  0  0  0
   59.9940   30.9480   49.6310 O   0  0  0  0  0  0  0  0  0  0  0  0
   57.4020   31.7030   44.3870 C   0  0  0  0  0  0  0  0  0  0  0  0
   57.2150   30.3340   44.1800 C   0  0  0  0  0  0  0  0  0  0  0  0
   57.1290   27.1530   45.8200 C   0  0  0  0  0  0  0  0  0  0  0  0
   56.9130   25.7840   45.6340 C   0  0  0  0  0  0  0  0  0  0  0  0
   55.5402   22.6245   43.3581 H   0  0  0  0  0  0  0  0  0  0  0  0
   55.9555   24.1011   42.4233 H   0  0  0  0  0  0  0  0  0  0  0  0
   57.0725   22.6944   42.4233 H   0  0  0  0  0  0  0  0  0  0  0  0
   57.9977   25.4952   42.4045 H   0  0  0  0  0  0  0  0  0  0  0  0
   58.3764   27.9325   42.7305 H   0  0  0  0  0  0  0  0  0  0  0  0
   59.3127   29.1254   46.5992 H   0  0  0  0  0  0  0  0  0  0  0  0
   59.6382   31.5685   46.9678 H   0  0  0  0  0  0  0  0  0  0  0  0
   58.8480   34.7260   47.9330 H   0  0  0  0  0  0  0  0  0  0  0  0
   61.2330   34.9757   45.6897 H   0  0  0  0  0  0  0  0  0  0  0  0
   63.6208   34.2697   45.7770 H   0  0  0  0  0  0  0  0  0  0  0  0
   64.3624   32.5711   47.4437 H   0  0  0  0  0  0  0  0  0  0  0  0
   62.7292   31.6031   49.0573 H   0  0  0  0  0  0  0  0  0  0  0  0
   57.6215   33.6005   52.0020 H   0  0  0  0  0  0  0  0  0  0  0  0
   56.5966   32.2311   51.4150 H   0  0  0  0  0  0  0  0  0  0  0  0
   58.8132   31.4603   53.2493 H   0  0  0  0  0  0  0  0  0  0  0  0
   57.5184   32.4780   53.9836 H   0  0  0  0  0  0  0  0  0  0  0  0
   55.8815   30.9744   50.8413 H   0  0  0  0  0  0  0  0  0  0  0  0
   53.4605   31.0539   50.2555 H   0  0  0  0  0  0  0  0  0  0  0  0
   51.0774   30.0280   51.2176 H   0  0  0  0  0  0  0  0  0  0  0  0
   50.7383   30.6690   52.8678 H   0  0  0  0  0  0  0  0  0  0  0  0
   52.4377   30.3773   54.4090 H   0  0  0  0  0  0  0  0  0  0  0  0
   54.8576   30.2937   54.9930 H   0  0  0  0  0  0  0  0  0  0  0  0
   58.6464   29.6401   52.2583 H   0  0  0  0  0  0  0  0  0  0  0  0
   57.5908   29.3611   50.8319 H   0  0  0  0  0  0  0  0  0  0  0  0
   59.2803   28.7511   50.8319 H   0  0  0  0  0  0  0  0  0  0  0  0
   56.8652   32.4303   43.7602 H   0  0  0  0  0  0  0  0  0  0  0  0
   56.5348   29.9903   43.3868 H   0  0  0  0  0  0  0  0  0  0  0  0
   56.8831   27.6179   46.7861 H   0  0  0  0  0  0  0  0  0  0  0  0
   56.4969   25.1786   46.4528 H   0  0  0  0  0  0  0  0  0  0  0  0
  1  2  1  0
  2  3  1  0
  3  4  2  0
  4  5  1  0
  5  6  2  0
  6  7  1  0
  7  8  2  0
  8  9  1  0
  9 10  2  0
 10 11  1  0
 11 12  2  0
 11 13  2  0
 11 14  1  0
 14 15  1  0
 15 16  2  0
 16 17  1  0
 17 18  2  0
 18 19  1  0
 19 20  2  0
 20 21  1  0
 21 22  2  0
 22 23  1  0
 23 24  1  0
 24 25  1  0
 25 26  1  0
 26 27  1  0
 27 28  2  0
 28 29  1  0
 29 30  2  0
 30 31  1  0
 31 32  1  0
 32 33  2  0
 32 34  1  0
 30 35  1  0
 35 36  2  0
 23 37  2  0
 37 38  1  0
 37 39  1  0
 10 40  1  0
 40 41  2  0
  6 42  1  0
 42 43  2  0
 43  3  1  0
 41  7  1  0
 20 15  1  0
 39 21  1  0
 36 27  1  0
  1 44  1  0
  1 45  1  0
  1 46  1  0
  4 47  1  0
  5 48  1  0
  8 49  1  0
  9 50  1  0
 14 51  1  0
 16 52  1  0
 17 53  1  0
 18 54  1  0
 19 55  1  0
 24 56  1  0
 24 57  1  0
 25 58  1  0
 25 59  1  0
 28 60  1  0
 29 61  1  0
 31 62  1  0
 31 63  1  0
 35 64  1  0
 36 65  1  0
 38 66  1  0
 38 67  1  0
 38 68  1  0
 40 69  1  0
 41 70  1  0
 42 71  1  0
 43 72  1  0
M  CHG  1  34  -1
M  END
>  <UniqueID>  (27) 
24

>  <SMILES>  (27) 
COc1ccc(-c2ccc(S(=O)(=O)Nc3ccccc3-c3nc(CCOc4ccc(CC(=O)[O-])cc4)c(C)o3)cc2)cc1

>  <Energy>  (27) 
112.68742401389717

>  <Genealogy>  (27) 
COc1ccc(-c2ccc(S(=O)(=O)Nc3ccccc3-c3nc(CCOc4ccc(CC(=O)[O-])cc4)c(C)o3)cc2)cc1 (protonated)
COc1ccc(-c2ccc(S(=O)(=O)Nc3ccccc3-c3nc(CCOc4ccc(CC(=O)[O-])cc4)c(C)o3)cc2)cc1 (3D coordinates assigned)
COc1ccc(-c2ccc(S(=O)(=O)Nc3ccccc3-c3nc(CCOc4ccc(CC(=O)[O-])cc4)c(C)o3)cc2)cc1 (optimized conformer: 112.68742401389717 kcal/mol)

>  <smiles>  (27) 
COc1ccc(-c2ccc(S(=O)(=O)Nc3ccccc3-c3nc(CCOc4ccc(CC(=O)O)cc4)c(C)o3)cc2)cc1

>  <score_type>  (27) 
oracle

>  <origin>  (27) 
adg

>  <m_score__min__energy>  (27) 
-15.01

>  <m_primary>  (27) 
energy

$$$$
28:0
     RDKit          3D

 46 49  0  0  1  0  0  0  0  0999 V2000
   58.6920   25.6330   45.3310 O   0  0  0  0  0  0  0  0  0  0  0  0
   57.8480   26.0180   44.5190 C   0  0  0  0  0  0  0  0  0  0  0  0
   57.0150   25.1240   43.8120 N   0  0  0  0  0  0  0  0  0  0  0  0
   57.0190   23.7190   43.9190 C   0  0  0  0  0  0  0  0  0  0  0  0
   56.6500   22.8280   42.9690 C   0  0  0  0  0  0  0  0  0  0  0  0
   56.6840   21.4460   43.1580 C   0  0  0  0  0  0  0  0  0  0  0  0
   57.1080   20.9170   44.3570 C   0  0  0  0  0  0  0  0  0  0  0  0
   57.4860   21.8240   45.3320 C   0  0  0  0  0  0  0  0  0  0  0  0
   57.4510   23.1800   45.1390 C   0  0  0  0  0  0  0  0  0  0  0  0
   57.7300   27.4260   44.3050 N   0  0  0  0  0  0  0  0  0  0  0  0
   58.5510   28.3520   44.9990 C   0  0  0  0  0  0  0  0  0  0  0  0
   58.4540   29.6480   45.4540 C   0  0  0  0  0  0  0  0  0  0  0  0
   57.4860   30.6910   45.4500 N   0  0  0  0  0  0  0  0  0  0  0  0
   57.7940   31.9360   45.6370 C   0  0  0  0  0  0  0  0  0  0  0  0
   57.3150   32.8440   44.7250 C   0  0  0  0  0  0  0  0  0  0  0  0
   57.6610   34.1820   44.9500 C   0  0  0  0  0  0  0  0  0  0  0  0
   58.4230   34.5300   46.0090 N   0  0  0  0  0  0  0  0  0  0  0  0
   58.8580   33.5720   46.8670 C   0  0  0  0  0  0  0  0  0  0  0  0
   59.5920   33.9560   47.8770 N   0  0  0  0  0  0  0  0  0  0  0  0
   60.9810   33.7600   47.9610 C   0  0  0  0  0  0  0  0  0  0  0  0
   61.6240   33.6170   49.1880 C   0  0  0  0  0  0  0  0  0  0  0  0
   62.9970   33.4260   49.2000 C   0  0  0  0  0  0  0  0  0  0  0  0
   63.7130   33.3780   48.0350 C   0  0  0  0  0  0  0  0  0  0  0  0
   63.0880   33.5180   46.8100 C   0  0  0  0  0  0  0  0  0  0  0  0
   61.7270   33.7060   46.7930 C   0  0  0  0  0  0  0  0  0  0  0  0
   61.1320   33.8410   45.5840 F   0  0  0  0  0  0  0  0  0  0  0  0
   58.5540   32.2720   46.6960 N   0  0  0  0  0  0  0  0  0  0  0  0
   59.7370   29.6180   45.9760 C   0  0  0  0  0  0  0  0  0  0  0  0
   60.4960   30.3930   46.5870 O   0  0  0  0  0  0  0  0  0  0  0  0
   59.8270   28.3210   45.5190 C   0  0  0  0  0  0  0  0  0  0  0  0
   60.7390   27.4490   45.5650 O   0  0  0  0  0  0  0  0  0  0  0  0
   56.3280   25.5810   43.1400 H   0  0  0  0  0  0  0  0  0  0  0  0
   56.3056   23.2134   41.9980 H   0  0  0  0  0  0  0  0  0  0  0  0
   56.3704   20.7750   42.3447 H   0  0  0  0  0  0  0  0  0  0  0  0
   57.1443   19.8314   44.5305 H   0  0  0  0  0  0  0  0  0  0  0  0
   57.8293   21.4395   46.3037 H   0  0  0  0  0  0  0  0  0  0  0  0
   57.7653   23.8532   45.9502 H   0  0  0  0  0  0  0  0  0  0  0  0
   57.0140   27.8000   43.6130 H   0  0  0  0  0  0  0  0  0  0  0  0
   56.6962   32.5384   43.8685 H   0  0  0  0  0  0  0  0  0  0  0  0
   57.3079   34.9588   44.2558 H   0  0  0  0  0  0  0  0  0  0  0  0
   58.6780   35.5300   46.1710 H   0  0  0  0  0  0  0  0  0  0  0  0
   61.0542   33.6548   50.1282 H   0  0  0  0  0  0  0  0  0  0  0  0
   63.5191   33.3112   50.1614 H   0  0  0  0  0  0  0  0  0  0  0  0
   64.8017   33.2258   48.0738 H   0  0  0  0  0  0  0  0  0  0  0  0
   63.6647   33.4799   45.8741 H   0  0  0  0  0  0  0  0  0  0  0  0
   58.8990   31.5380   47.3700 H   0  0  0  0  0  0  0  0  0  0  0  0
  1  2  2  0
  2  3  1  0
  3  4  1  0
  4  5  2  0
  5  6  1  0
  6  7  2  0
  7  8  1  0
  8  9  2  0
  2 10  1  0
 10 11  1  0
 11 12  2  0
 12 13  1  0
 13 14  2  0
 14 15  1  0
 15 16  2  0
 16 17  1  0
 17 18  1  0
 18 19  2  0
 19 20  1  0
 20 21  2  0
 21 22  1  0
 22 23  2  0
 23 24  1  0
 24 25  2  0
 25 26  1  0
 18 27  1  0
 12 28  1  0
 28 29  2  0
 28 30  1  0
 30 31  2  0
  9  4  1  0
 30 11  1  0
 27 14  1  0
 25 20  1  0
  3 32  1  0
  5 33  1  0
  6 34  1  0
  7 35  1  0
  8 36  1  0
  9 37  1  0
 10 38  1  0
 15 39  1  0
 16 40  1  0
 17 41  1  0
 21 42  1  0
 22 43  1  0
 23 44  1  0
 24 45  1  0
 27 46  1  0
M  END
>  <smiles>  (28) 
O=C(Nc1ccccc1)Nc1c(N=c2cc[nH]c(=Nc3ccccc3F)[nH]2)c(=O)c1=O

>  <score_type>  (28) 
oracle

>  <origin>  (28) 
adg

>  <m_score__min__energy>  (28) 
-9.1099999999999994

>  <m_primary>  (28) 
energy

$$$$
29:0
     RDKit          3D

 53 56  0  0  0  0  0  0  0  0999 V2000
   54.9910   28.2540   44.4890 H   0  0  0  0  0  0  0  0  0  0  0  0
   55.6610   29.0530   44.5000 N   0  0  0  0  0  0  0  0  0  0  0  0
   56.6180   29.1970   45.3650 C   0  0  0  0  0  0  0  0  0  0  0  0
   57.1070   30.4470   45.5830 N   0  0  0  0  0  0  0  0  0  0  0  0
   58.1530   30.6860   46.4160 C   0  0  0  0  0  0  0  0  0  0  0  0
   58.5018   31.7171   46.5749 H   0  0  0  0  0  0  0  0  0  0  0  0
   58.7900   29.6250   47.0740 C   0  0  0  0  0  0  0  0  0  0  0  0
   59.9230   29.8570   47.9990 C   0  0  0  0  0  0  0  0  0  0  0  0
   60.1590   28.9460   48.9810 N   0  0  0  0  0  0  0  0  0  0  0  0
   61.1820   29.0910   49.8660 C   0  0  0  0  0  0  0  0  0  0  0  0
   61.4030   28.1030   50.8950 N   0  0  0  0  0  0  0  0  0  0  0  0
   61.5070   28.5240   52.3000 C   0  0  0  0  0  0  0  0  0  0  0  0
   62.0398   29.4850   52.3516 H   0  0  0  0  0  0  0  0  0  0  0  0
   60.4942   28.6295   52.7160 H   0  0  0  0  0  0  0  0  0  0  0  0
   62.2720   27.4790   53.1170 C   0  0  0  0  0  0  0  0  0  0  0  0
   63.3277   27.4825   52.8082 H   0  0  0  0  0  0  0  0  0  0  0  0
   62.1832   27.7326   54.1837 H   0  0  0  0  0  0  0  0  0  0  0  0
   61.7340   26.1870   52.9130 O   0  0  0  0  0  0  0  0  0  0  0  0
   61.9490   25.7950   51.5720 C   0  0  0  0  0  0  0  0  0  0  0  0
   63.0206   25.8804   51.3390 H   0  0  0  0  0  0  0  0  0  0  0  0
   61.6118   24.7550   51.4510 H   0  0  0  0  0  0  0  0  0  0  0  0
   61.1540   26.6830   50.6100 C   0  0  0  0  0  0  0  0  0  0  0  0
   61.4602   26.4621   49.5768 H   0  0  0  0  0  0  0  0  0  0  0  0
   60.0813   26.4770   50.7401 H   0  0  0  0  0  0  0  0  0  0  0  0
   61.9980   30.1740   49.7670 N   0  0  0  0  0  0  0  0  0  0  0  0
   61.8220   31.1170   48.8030 C   0  0  0  0  0  0  0  0  0  0  0  0
   60.7750   30.9720   47.8850 C   0  0  0  0  0  0  0  0  0  0  0  0
   60.6420   31.9070   46.8140 N   0  0  0  0  0  0  0  0  0  0  0  0
   61.4700   33.0650   46.7440 C   0  0  0  0  0  0  0  0  0  0  0  0
   61.3780   33.8350   45.7520 O   0  0  0  0  0  0  0  0  0  0  0  0
   62.3960   33.4100   47.8750 C   0  0  0  0  0  0  0  0  0  0  0  0
   63.3257   33.8241   47.4578 H   0  0  0  0  0  0  0  0  0  0  0  0
   61.8850   34.1414   48.5184 H   0  0  0  0  0  0  0  0  0  0  0  0
   62.7280   32.2370   48.7000 N   0  0  0  0  0  0  0  0  0  0  0  0
   63.9090   32.3110   49.5730 C   0  0  0  0  0  0  0  0  0  0  0  0
   63.8877   31.4706   50.2824 H   0  0  0  0  0  0  0  0  0  0  0  0
   64.8146   32.2599   48.9506 H   0  0  0  0  0  0  0  0  0  0  0  0
   63.9190   33.6230   50.3500 C   0  0  0  0  0  0  0  0  0  0  0  0
   63.9174   33.4100   51.4292 H   0  0  0  0  0  0  0  0  0  0  0  0
   64.8215   34.1959   50.0907 H   0  0  0  0  0  0  0  0  0  0  0  0
   63.0253   34.2096   50.0907 H   0  0  0  0  0  0  0  0  0  0  0  0
   58.2880   28.3290   46.8920 C   0  0  0  0  0  0  0  0  0  0  0  0
   58.7602   27.4844   47.4152 H   0  0  0  0  0  0  0  0  0  0  0  0
   57.1900   28.0970   46.0500 C   0  0  0  0  0  0  0  0  0  0  0  0
   56.6710   26.7180   45.9340 C   0  0  0  0  0  0  0  0  0  0  0  0
   55.4290   26.5160   46.0100 O   0  0  0  0  0  0  0  0  0  0  0  0
   57.5630   25.6220   45.6720 N   0  0  0  0  0  0  0  0  0  0  0  0
   58.5820   25.8150   45.5400 H   0  0  0  0  0  0  0  0  0  0  0  0
   57.1070   24.2370   45.6190 C   0  0  0  0  0  0  0  0  0  0  0  0
   56.0843   24.2064   45.2151 H   0  0  0  0  0  0  0  0  0  0  0  0
   57.7841   23.6608   44.9712 H   0  0  0  0  0  0  0  0  0  0  0  0
   57.1150   23.6490   46.9630 C   0  0  0  0  0  0  0  0  0  0  0  0
   57.1200   23.1850   48.0230 N   0  0  0  0  0  0  0  0  0  0  0  0
  1  2  1  0
  2  3  2  0
  3  4  1  0
  4  5  1  0
  5  6  1  0
  5  7  2  0
  7  8  1  0
  8  9  2  0
  9 10  1  0
 10 11  1  0
 11 12  1  0
 12 13  1  0
 12 14  1  0
 12 15  1  0
 15 16  1  0
 15 17  1  0
 15 18  1  0
 18 19  1  0
 19 20  1  0
 19 21  1  0
 19 22  1  0
 22 23  1  0
 22 24  1  0
 10 25  2  0
 25 26  1  0
 26 27  2  0
 27 28  1  0
 28 29  1  0
 29 30  2  0
 29 31  1  0
 31 32  1  0
 31 33  1  0
 31 34  1  0
 34 35  1  0
 35 36  1  0
 35 37  1  0
 35 38  1  0
 38 39  1  0
 38 40  1  0
 38 41  1  0
  7 42  1  0
 42 43  1  0
 42 44  2  0
 44 45  1  0
 45 46  2  0
 45 47  1  0
 47 48  1  0
 47 49  1  0
 49 50  1  0
 49 51  1  0
 49 52  1  0
 52 53  3  0
 44  3  1  0
 27  8  1  0
 22 11  1  0
 34 26  1  0
M  CHG  2   4  -1  28  -1
M  END
>  <UniqueID>  (29) 
25

>  <SMILES>  (29) 
[H]/N=c1/[n-]cc(-c2nc(N3CCOCC3)nc3c2[N-]C(=O)CN3CC)cc1C(=O)NCC#N

>  <Energy>  (29) 
65.46451503937534

>  <Genealogy>  (29) 
CCN1CC(=O)[N-]c2c(-c3c[n-]c(=N)c(C(=O)NCC#N)c3)nc(N3CCOCC3)nc21 (protonated)
[H]/N=c1/[n-]cc(-c2nc(N3CCOCC3)nc3c2[N-]C(=O)CN3CC)cc1C(=O)NCC#N (cis-trans isomerization)
[H]/N=c1/[n-]cc(-c2nc(N3CCOCC3)nc3c2[N-]C(=O)CN3CC)cc1C(=O)NCC#N (3D coordinates assigned)
[H]/N=c1/[n-]cc(-c2nc(N3CCOCC3)nc3c2[N-]C(=O)CN3CC)cc1C(=O)NCC#N (nonaromatic ring conformer: 65.46451503937534 kcal/mol)

>  <smiles>  (29) 
CCN1CC(=O)Nc2c(-c3c[nH]c(=N)c(C(=O)NCC#N)c3)nc(N3CCOCC3)nc21

>  <score_type>  (29) 
oracle

>  <origin>  (29) 
adg

>  <m_score__min__energy>  (29) 
-11.08

>  <m_primary>  (29) 
energy

$$$$
30:0
     RDKit          3D

 38 40  0  0  0  0  0  0  0  0999 V2000
   59.6060   22.2100   44.8620 C   0  0  0  0  0  0  0  0  0  0  0  0
   58.3340   23.0030   44.8060 C   0  0  0  0  0  0  0  0  0  0  0  0
   57.3570   22.7090   43.8410 C   0  0  0  0  0  0  0  0  0  0  0  0
   56.1590   23.4260   43.8130 C   0  0  0  0  0  0  0  0  0  0  0  0
   55.9180   24.4310   44.7540 C   0  0  0  0  0  0  0  0  0  0  0  0
   56.8770   24.7210   45.7380 C   0  0  0  0  0  0  0  0  0  0  0  0
   56.6330   25.8100   46.7470 C   0  0  0  0  0  0  0  0  0  0  0  0
   56.2000   27.0340   46.0750 N   0  0  0  0  0  0  0  0  0  0  0  0
   57.0610   27.7770   45.1980 C   0  0  0  0  0  0  0  0  0  0  0  0
   58.2760   27.4620   45.0900 O   0  0  0  0  0  0  0  0  0  0  0  0
   56.5760   28.9200   44.4850 N   0  0  0  0  0  0  0  0  0  0  0  0
   57.1920   30.2150   44.4560 C   0  0  0  0  0  0  0  0  0  0  0  0
   57.2120   30.9320   43.2400 C   0  0  0  0  0  0  0  0  0  0  0  0
   57.7780   32.2160   43.1700 C   0  0  0  0  0  0  0  0  0  0  0  0
   58.3030   32.7810   44.3330 C   0  0  0  0  0  0  0  0  0  0  0  0
   58.8720   34.0110   44.3980 N   0  0  0  0  0  0  0  0  0  0  0  0
   59.2670   34.2950   45.6630 C   0  0  0  0  0  0  0  0  0  0  0  0
   59.9840   35.5480   46.0320 C   0  0  0  0  0  0  0  0  0  0  0  0
   58.9530   33.0220   46.7370 S   0  0  0  0  0  0  0  0  0  0  0  0
   58.2610   32.0850   45.5290 C   0  0  0  0  0  0  0  0  0  0  0  0
   57.7090   30.8110   45.6260 C   0  0  0  0  0  0  0  0  0  0  0  0
   58.0830   24.0020   45.7600 C   0  0  0  0  0  0  0  0  0  0  0  0
   59.8841   22.0366   45.9121 H   0  0  0  0  0  0  0  0  0  0  0  0
   59.4582   21.2437   44.3575 H   0  0  0  0  0  0  0  0  0  0  0  0
   60.4085   22.7681   44.3575 H   0  0  0  0  0  0  0  0  0  0  0  0
   57.5360   21.9114   43.1049 H   0  0  0  0  0  0  0  0  0  0  0  0
   55.4023   23.1990   43.0476 H   0  0  0  0  0  0  0  0  0  0  0  0
   54.9748   24.9962   44.7237 H   0  0  0  0  0  0  0  0  0  0  0  0
   55.8515   25.4855   47.4498 H   0  0  0  0  0  0  0  0  0  0  0  0
   57.5677   26.0109   47.2909 H   0  0  0  0  0  0  0  0  0  0  0  0
   55.2420   27.3960   46.2830 H   0  0  0  0  0  0  0  0  0  0  0  0
   56.7789   30.4795   42.3357 H   0  0  0  0  0  0  0  0  0  0  0  0
   57.8067   32.7651   42.2173 H   0  0  0  0  0  0  0  0  0  0  0  0
   60.0329   35.6334   47.1276 H   0  0  0  0  0  0  0  0  0  0  0  0
   61.0038   35.5217   45.6204 H   0  0  0  0  0  0  0  0  0  0  0  0
   59.4447   36.4139   45.6204 H   0  0  0  0  0  0  0  0  0  0  0  0
   57.6766   30.2822   46.5900 H   0  0  0  0  0  0  0  0  0  0  0  0
   58.8365   24.2231   46.5303 H   0  0  0  0  0  0  0  0  0  0  0  0
  1  2  1  0
  2  3  2  0
  3  4  1  0
  4  5  2  0
  5  6  1  0
  6  7  1  0
  7  8  1  0
  8  9  1  0
  9 10  2  0
  9 11  1  0
 11 12  1  0
 12 13  2  0
 13 14  1  0
 14 15  2  0
 15 16  1  0
 16 17  2  0
 17 18  1  0
 17 19  1  0
 19 20  1  0
 20 21  2  0
  6 22  2  0
 22  2  1  0
 21 12  1  0
 20 15  1  0
  1 23  1  0
  1 24  1  0
  1 25  1  0
  3 26  1  0
  4 27  1  0
  5 28  1  0
  7 29  1  0
  7 30  1  0
  8 31  1  0
 13 32  1  0
 14 33  1  0
 18 34  1  0
 18 35  1  0
 18 36  1  0
 21 37  1  0
 22 38  1  0
M  CHG  1  11  -1
M  END
>  <UniqueID>  (30) 
26

>  <SMILES>  (30) 
Cc1cccc(CNC(=O)[N-]c2ccc3nc(C)sc3c2)c1

>  <Energy>  (30) 
73.56508627042317

>  <Genealogy>  (30) 
Cc1cccc(CNC(=O)[N-]c2ccc3nc(C)sc3c2)c1 (protonated)
Cc1cccc(CNC(=O)[N-]c2ccc3nc(C)sc3c2)c1 (3D coordinates assigned)
Cc1cccc(CNC(=O)[N-]c2ccc3nc(C)sc3c2)c1 (optimized conformer: 73.56508627042317 kcal/mol)

>  <smiles>  (30) 
Cc1cccc(CNC(=O)Nc2ccc3nc(C)sc3c2)c1

>  <score_type>  (30) 
oracle

>  <origin>  (30) 
adg

>  <m_score__min__energy>  (30) 
-9.8000000000000007

>  <m_primary>  (30) 
energy

$$$$
31:0
     RDKit          3D

 37 38  0  0  0  0  0  0  0  0999 V2000
   55.7130   23.8570   46.4650 C   0  0  0  0  0  0  0  0  0  0  0  0
   56.4960   24.8480   47.1220 O   0  0  0  0  0  0  0  0  0  0  0  0
   57.0330   25.9810   46.4910 C   0  0  0  0  0  0  0  0  0  0  0  0
   58.4210   26.2040   46.4020 C   0  0  0  0  0  0  0  0  0  0  0  0
   58.9130   27.3530   45.7750 C   0  0  0  0  0  0  0  0  0  0  0  0
   58.0310   28.3030   45.2450 C   0  0  0  0  0  0  0  0  0  0  0  0
   58.5740   29.5080   44.5820 C   0  0  0  0  0  0  0  0  0  0  0  0
   57.8400   30.4320   43.9420 C   0  0  0  0  0  0  0  0  0  0  0  0
   56.6230   31.0720   44.4790 C   0  0  0  0  0  0  0  0  0  0  0  0
   55.5430   30.4230   44.4810 O   0  0  0  0  0  0  0  0  0  0  0  0
   56.6420   32.4450   44.8900 N   0  0  0  0  0  0  0  0  0  0  0  0
   57.7340   33.1470   45.4990 C   0  0  0  0  0  0  0  0  0  0  0  0
   58.3430   34.2590   44.8890 C   0  0  0  0  0  0  0  0  0  0  0  0
   59.3760   34.9380   45.5400 C   0  0  0  0  0  0  0  0  0  0  0  0
   59.7990   34.5270   46.8060 C   0  0  0  0  0  0  0  0  0  0  0  0
   59.1780   33.4410   47.4370 C   0  0  0  0  0  0  0  0  0  0  0  0
   59.6890   32.9210   49.0390 S   0  0  0  0  0  0  0  0  0  0  0  0
   60.5980   34.1850   49.7870 N   0  0  0  0  0  0  0  0  0  0  0  0
   60.5390   31.6880   48.9180 O   0  0  0  0  0  0  0  0  0  0  0  0
   58.4900   32.6020   49.8880 O   0  0  0  0  0  0  0  0  0  0  0  0
   58.1480   32.7550   46.7790 C   0  0  0  0  0  0  0  0  0  0  0  0
   56.6480   28.0630   45.2990 C   0  0  0  0  0  0  0  0  0  0  0  0
   56.1540   26.9170   45.9300 C   0  0  0  0  0  0  0  0  0  0  0  0
   54.7810   26.7100   45.9990 O   0  0  0  0  0  0  0  0  0  0  0  0
   55.2146   23.2262   47.2158 H   0  0  0  0  0  0  0  0  0  0  0  0
   54.9550   24.3463   45.8358 H   0  0  0  0  0  0  0  0  0  0  0  0
   56.3644   23.2327   45.8358 H   0  0  0  0  0  0  0  0  0  0  0  0
   59.1215   25.4705   46.8279 H   0  0  0  0  0  0  0  0  0  0  0  0
   59.9988   27.5115   45.6976 H   0  0  0  0  0  0  0  0  0  0  0  0
   59.6631   29.6589   44.6158 H   0  0  0  0  0  0  0  0  0  0  0  0
   58.1716   30.7362   42.9383 H   0  0  0  0  0  0  0  0  0  0  0  0
   58.0051   34.5945   43.8974 H   0  0  0  0  0  0  0  0  0  0  0  0
   59.8577   35.7991   45.0538 H   0  0  0  0  0  0  0  0  0  0  0  0
   60.6214   35.0570   47.3088 H   0  0  0  0  0  0  0  0  0  0  0  0
   60.1450   34.3840   50.7080 H   0  0  0  0  0  0  0  0  0  0  0  0
   57.6602   31.9011   47.2719 H   0  0  0  0  0  0  0  0  0  0  0  0
   55.9500   28.7802   44.8426 H   0  0  0  0  0  0  0  0  0  0  0  0
  1  2  1  0
  2  3  1  0
  3  4  2  0
  4  5  1  0
  5  6  2  0
  6  7  1  0
  7  8  2  3
  8  9  1  0
  9 10  2  0
  9 11  1  0
 11 12  1  0
 12 13  2  0
 13 14  1  0
 14 15  2  0
 15 16  1  0
 16 17  1  0
 17 18  1  0
 17 19  2  0
 17 20  2  0
 16 21  2  0
  6 22  1  0
 22 23  2  0
 23 24  1  0
 23  3  1  0
 21 12  1  0
  1 25  1  0
  1 26  1  0
  1 27  1  0
  4 28  1  0
  5 29  1  0
  7 30  1  0
  8 31  1  0
 13 32  1  0
 14 33  1  0
 15 34  1  0
 18 35  1  0
 21 36  1  0
 22 37  1  0
M  CHG  3  11  -1  18  -1  24  -1
M  END
>  <UniqueID>  (31) 
27

>  <SMILES>  (31) 
COc1ccc(C=CC(=O)[N-]c2cccc(S([NH-])(=O)=O)c2)cc1[O-]

>  <Energy>  (31) 
46.695777585239796

>  <Genealogy>  (31) 
COc1ccc(C=CC(=O)[N-]c2cccc(S([NH-])(=O)=O)c2)cc1[O-] (protonated)
COc1ccc(C=CC(=O)[N-]c2cccc(S([NH-])(=O)=O)c2)cc1[O-] (3D coordinates assigned)
COc1ccc(C=CC(=O)[N-]c2cccc(S([NH-])(=O)=O)c2)cc1[O-] (optimized conformer: 46.695777585239796 kcal/mol)

>  <smiles>  (31) 
COc1ccc(C=CC(=O)Nc2cccc(S(N)(=O)=O)c2)cc1O

>  <score_type>  (31) 
oracle

>  <origin>  (31) 
adg

>  <m_score__min__energy>  (31) 
-14.56

>  <m_primary>  (31) 
energy

$$$$
32:0
     RDKit          3D

 37 39  0  0  0  0  0  0  0  0999 V2000
   60.4220   34.3410   48.5280 C   0  0  0  0  0  0  0  0  0  0  0  0
   59.8540   34.5910   47.2470 O   0  0  0  0  0  0  0  0  0  0  0  0
   59.0580   33.6750   46.5420 C   0  0  0  0  0  0  0  0  0  0  0  0
   57.8040   34.0210   46.0040 C   0  0  0  0  0  0  0  0  0  0  0  0
   57.0490   33.0710   45.3100 C   0  0  0  0  0  0  0  0  0  0  0  0
   57.5260   31.7590   45.1470 C   0  0  0  0  0  0  0  0  0  0  0  0
   56.7150   30.7270   44.3890 C   0  0  2  0  0  0  0  0  0  0  0  0
   55.3870   30.7150   44.8510 O   0  0  0  0  0  0  0  0  0  0  0  0
   57.3380   29.3540   44.4660 C   0  0  0  0  0  0  0  0  0  0  0  0
   56.7960   28.3330   45.1650 N   0  0  0  0  0  0  0  0  0  0  0  0
   57.6910   27.3300   45.0430 C   0  0  0  0  0  0  0  0  0  0  0  0
   57.5080   25.9900   45.6500 C   0  0  0  0  0  0  0  0  0  0  0  0
   57.8050   24.8350   44.9020 C   0  0  0  0  0  0  0  0  0  0  0  0
   57.6390   23.5650   45.4620 C   0  0  0  0  0  0  0  0  0  0  0  0
   57.1740   23.4310   46.7720 C   0  0  0  0  0  0  0  0  0  0  0  0
   56.8760   24.5680   47.5250 C   0  0  0  0  0  0  0  0  0  0  0  0
   57.0400   25.8410   46.9710 C   0  0  0  0  0  0  0  0  0  0  0  0
   58.7650   27.7690   44.2900 C   0  0  0  0  0  0  0  0  0  0  0  0
   58.5390   29.0440   43.9400 N   0  0  0  0  0  0  0  0  0  0  0  0
   58.7810   31.4210   45.6800 C   0  0  0  0  0  0  0  0  0  0  0  0
   59.5360   32.3720   46.3730 C   0  0  0  0  0  0  0  0  0  0  0  0
   59.7141   34.6526   49.3101 H   0  0  0  0  0  0  0  0  0  0  0  0
   60.6336   33.2666   48.6319 H   0  0  0  0  0  0  0  0  0  0  0  0
   61.3573   34.9106   48.6319 H   0  0  0  0  0  0  0  0  0  0  0  0
   57.4167   35.0428   46.1302 H   0  0  0  0  0  0  0  0  0  0  0  0
   56.0731   33.3527   44.8878 H   0  0  0  0  0  0  0  0  0  0  0  0
   56.7110   31.0133   43.3269 H   0  0  0  0  0  0  0  0  0  0  0  0
   55.3370   30.0890   45.6200 H   0  0  0  0  0  0  0  0  0  0  0  0
   58.1704   24.9326   43.8691 H   0  0  0  0  0  0  0  0  0  0  0  0
   57.8752   22.6689   44.8693 H   0  0  0  0  0  0  0  0  0  0  0  0
   57.0427   22.4305   47.2100 H   0  0  0  0  0  0  0  0  0  0  0  0
   56.5111   24.4620   48.5573 H   0  0  0  0  0  0  0  0  0  0  0  0
   56.8022   26.7323   47.5701 H   0  0  0  0  0  0  0  0  0  0  0  0
   59.6517   27.1749   44.0240 H   0  0  0  0  0  0  0  0  0  0  0  0
   59.1730   29.6630   43.3870 H   0  0  0  0  0  0  0  0  0  0  0  0
   59.1724   30.4011   45.5512 H   0  0  0  0  0  0  0  0  0  0  0  0
   60.5151   32.0925   46.7891 H   0  0  0  0  0  0  0  0  0  0  0  0
  1  2  1  0
  2  3  1  0
  3  4  2  0
  4  5  1  0
  5  6  2  0
  6  7  1  0
  7  8  1  0
  7  9  1  0
  9 10  2  0
 10 11  1  0
 11 12  1  0
 12 13  2  0
 13 14  1  0
 14 15  2  0
 15 16  1  0
 16 17  2  0
 11 18  2  0
 18 19  1  0
  6 20  1  0
 20 21  2  0
 21  3  1  0
 19  9  1  0
 17 12  1  0
  1 22  1  0
  1 23  1  0
  1 24  1  0
  4 25  1  0
  5 26  1  0
  7 27  1  6
  8 28  1  0
 13 29  1  0
 14 30  1  0
 15 31  1  0
 16 32  1  0
 17 33  1  0
 18 34  1  0
 19 35  1  0
 20 36  1  0
 21 37  1  0
M  END
>  <UniqueID>  (32) 
28

>  <SMILES>  (32) 
COc1ccc([C@H](O)c2nc(-c3ccccc3)c[nH]2)cc1

>  <Energy>  (32) 
70.39489120543122

>  <Genealogy>  (32) 
COc1ccc([C@H](O)c2nc(-c3ccccc3)c[nH]2)cc1 (chirality)
COc1ccc([C@H](O)c2nc(-c3ccccc3)c[nH]2)cc1 (3D coordinates assigned)
COc1ccc([C@H](O)c2nc(-c3ccccc3)c[nH]2)cc1 (optimized conformer: 70.39489120543122 kcal/mol)

>  <smiles>  (32) 
COc1ccc(C(O)c2nc(-c3ccccc3)c[nH]2)cc1

>  <score_type>  (32) 
oracle

>  <origin>  (32) 
adg

>  <m_score__min__energy>  (32) 
-7.5300000000000002

>  <m_primary>  (32) 
energy

$$$$
33:0
     RDKit          3D

 44 46  0  0  0  0  0  0  0  0999 V2000
   58.1620   34.0580   52.7590 C   0  0  0  0  0  0  0  0  0  0  0  0
   58.6880   33.2060   51.6340 C   0  0  0  0  0  0  0  0  0  0  0  0
   59.8280   33.6220   50.9300 C   0  0  0  0  0  0  0  0  0  0  0  0
   60.3370   32.8560   49.8810 C   0  0  0  0  0  0  0  0  0  0  0  0
   59.7170   31.6530   49.5030 C   0  0  0  0  0  0  0  0  0  0  0  0
   60.2440   30.8230   48.3820 C   0  0  0  0  0  0  0  0  0  0  0  0
   60.2340   29.5660   48.4850 O   0  0  0  0  0  0  0  0  0  0  0  0
   60.7800   31.4230   47.1050 C   0  0  0  0  0  0  0  0  0  0  0  0
   59.7430   32.2460   46.3590 C   0  0  0  0  0  0  0  0  0  0  0  0
   59.5770   33.6080   46.6840 C   0  0  0  0  0  0  0  0  0  0  0  0
   58.5890   34.3760   46.0660 C   0  0  0  0  0  0  0  0  0  0  0  0
   57.7310   33.7950   45.1350 C   0  0  0  0  0  0  0  0  0  0  0  0
   57.8510   32.4410   44.8250 C   0  0  0  0  0  0  0  0  0  0  0  0
   58.8430   31.6530   45.4330 C   0  0  0  0  0  0  0  0  0  0  0  0
   58.8940   30.2170   45.0940 C   0  0  0  0  0  0  0  0  0  0  0  0
   59.9770   29.7120   44.6990 O   0  0  0  0  0  0  0  0  0  0  0  0
   57.6880   29.3730   45.1870 C   0  0  0  0  0  0  0  0  0  0  0  0
   56.4140   29.6890   44.7510 C   0  0  0  0  0  0  0  0  0  0  0  0
   55.5600   28.6800   45.0140 N   0  0  0  0  0  0  0  0  0  0  0  0
   56.2960   27.7270   45.6200 C   0  0  0  0  0  0  0  0  0  0  0  0
   55.7430   26.4470   46.0790 C   0  0  0  0  0  0  0  0  0  0  0  0
   56.5020   25.5730   46.5740 O   0  0  0  0  0  0  0  0  0  0  0  0
   54.3820   26.1910   45.9690 O   0  0  0  0  0  0  0  0  0  0  0  0
   57.6160   28.1160   45.7470 C   0  0  0  0  0  0  0  0  0  0  0  0
   58.5720   31.2350   50.2070 C   0  0  0  0  0  0  0  0  0  0  0  0
   58.0480   32.0010   51.2630 C   0  0  0  0  0  0  0  0  0  0  0  0
   56.8210   31.5150   51.9910 C   0  0  0  0  0  0  0  0  0  0  0  0
   58.4409   33.6062   53.7224 H   0  0  0  0  0  0  0  0  0  0  0  0
   58.5947   35.0668   52.6881 H   0  0  0  0  0  0  0  0  0  0  0  0
   57.0662   34.1232   52.6881 H   0  0  0  0  0  0  0  0  0  0  0  0
   60.3260   34.5625   51.2082 H   0  0  0  0  0  0  0  0  0  0  0  0
   61.2340   33.1977   49.3436 H   0  0  0  0  0  0  0  0  0  0  0  0
   61.6321   32.0729   47.3529 H   0  0  0  0  0  0  0  0  0  0  0  0
   61.0773   30.5920   46.4485 H   0  0  0  0  0  0  0  0  0  0  0  0
   60.2347   34.0712   47.4343 H   0  0  0  0  0  0  0  0  0  0  0  0
   58.4876   35.4427   46.3147 H   0  0  0  0  0  0  0  0  0  0  0  0
   56.9583   34.4049   44.6441 H   0  0  0  0  0  0  0  0  0  0  0  0
   57.1628   31.9854   44.0978 H   0  0  0  0  0  0  0  0  0  0  0  0
   56.1364   30.6325   44.2582 H   0  0  0  0  0  0  0  0  0  0  0  0
   58.4376   27.5421   46.2004 H   0  0  0  0  0  0  0  0  0  0  0  0
   58.0787   30.2928   49.9261 H   0  0  0  0  0  0  0  0  0  0  0  0
   56.9882   31.5812   53.0762 H   0  0  0  0  0  0  0  0  0  0  0  0
   55.9589   32.1396   51.7141 H   0  0  0  0  0  0  0  0  0  0  0  0
   56.6204   30.4695   51.7141 H   0  0  0  0  0  0  0  0  0  0  0  0
  1  2  1  0
  2  3  2  0
  3  4  1  0
  4  5  2  0
  5  6  1  0
  6  7  2  0
  6  8  1  0
  8  9  1  0
  9 10  2  0
 10 11  1  0
 11 12  2  0
 12 13  1  0
 13 14  2  0
 14 15  1  0
 15 16  2  0
 15 17  1  0
 17 18  2  0
 18 19  1  0
 19 20  1  0
 20 21  1  0
 21 22  2  0
 21 23  1  0
 20 24  2  0
  5 25  1  0
 25 26  2  0
 26 27  1  0
 26  2  1  0
 14  9  1  0
 24 17  1  0
  1 28  1  0
  1 29  1  0
  1 30  1  0
  3 31  1  0
  4 32  1  0
  8 33  1  0
  8 34  1  0
 10 35  1  0
 11 36  1  0
 12 37  1  0
 13 38  1  0
 18 39  1  0
 24 40  1  0
 25 41  1  0
 27 42  1  0
 27 43  1  0
 27 44  1  0
M  CHG  2  19  -1  23  -1
M  END
>  <UniqueID>  (33) 
29

>  <SMILES>  (33) 
Cc1ccc(C(=O)Cc2ccccc2C(=O)c2c[n-]c(C(=O)[O-])c2)cc1C

>  <Energy>  (33) 
80.14359205791399

>  <Genealogy>  (33) 
Cc1ccc(C(=O)Cc2ccccc2C(=O)c2c[n-]c(C(=O)[O-])c2)cc1C (protonated)
Cc1ccc(C(=O)Cc2ccccc2C(=O)c2c[n-]c(C(=O)[O-])c2)cc1C (3D coordinates assigned)
Cc1ccc(C(=O)Cc2ccccc2C(=O)c2c[n-]c(C(=O)[O-])c2)cc1C (optimized conformer: 80.14359205791399 kcal/mol)

>  <smiles>  (33) 
Cc1ccc(C(=O)Cc2ccccc2C(=O)c2c[nH]c(C(=O)O)c2)cc1C

>  <score_type>  (33) 
oracle

>  <origin>  (33) 
adg

>  <m_score__min__energy>  (33) 
-13.81

>  <m_primary>  (33) 
energy

$$$$
34:0
     RDKit          3D

 50 52  0  0  0  0  0  0  0  0999 V2000
   57.8830   21.3400   43.8330 C   0  0  0  0  0  0  0  0  0  0  0  0
   56.4900   22.4480   43.9510 S   0  0  0  0  0  0  0  0  0  0  0  0
   55.5090   21.8910   44.9460 O   0  0  0  0  0  0  0  0  0  0  0  0
   55.8200   22.5270   42.6080 O   0  0  0  0  0  0  0  0  0  0  0  0
   56.9750   24.0530   44.4400 N   0  0  0  0  0  0  0  0  0  0  0  0
   55.8580   24.7490   45.1160 C   0  0  0  0  0  0  0  0  0  0  0  0
   56.3210   25.9410   45.9840 C   0  0  0  0  0  0  0  0  0  0  0  0
   57.6750   26.3810   45.6230 N   0  0  0  0  0  0  0  0  0  0  0  0
   57.9870   27.7810   45.5700 C   0  0  0  0  0  0  0  0  0  0  0  0
   57.4740   28.5590   44.5230 C   0  0  0  0  0  0  0  0  0  0  0  0
   57.7560   29.9260   44.4540 C   0  0  0  0  0  0  0  0  0  0  0  0
   58.5690   30.5330   45.4250 C   0  0  0  0  0  0  0  0  0  0  0  0
   58.8490   31.9420   45.3920 N   0  0  0  0  0  0  0  0  0  0  0  0
   57.8460   32.9590   45.5280 C   0  0  0  0  0  0  0  0  0  0  0  0
   56.6340   32.6960   45.2990 O   0  0  0  0  0  0  0  0  0  0  0  0
   58.2380   34.3600   45.8870 C   0  0  0  0  0  0  0  0  0  0  0  0
   59.6480   34.5360   45.7550 O   0  0  0  0  0  0  0  0  0  0  0  0
   60.6030   34.1830   46.7240 C   0  0  0  0  0  0  0  0  0  0  0  0
   61.9160   33.7940   46.3880 C   0  0  0  0  0  0  0  0  0  0  0  0
   62.8260   33.4450   47.3920 C   0  0  0  0  0  0  0  0  0  0  0  0
   62.4390   33.4850   48.7330 C   0  0  0  0  0  0  0  0  0  0  0  0
   61.1410   33.8740   49.0740 C   0  0  0  0  0  0  0  0  0  0  0  0
   60.2280   34.2230   48.0740 C   0  0  0  0  0  0  0  0  0  0  0  0
   58.9700   34.5970   48.4190 F   0  0  0  0  0  0  0  0  0  0  0  0
   59.0710   29.7560   46.4800 C   0  0  0  0  0  0  0  0  0  0  0  0
   58.7940   28.3860   46.5520 C   0  0  0  0  0  0  0  0  0  0  0  0
   59.5040   27.4480   47.8570 Cl  0  0  0  0  0  0  0  0  0  0  0  0
   58.7470   25.4020   45.4170 C   0  0  0  0  0  0  0  0  0  0  0  0
   58.1730   23.9920   45.2870 C   0  0  0  0  0  0  0  0  0  0  0  0
   58.2230   21.0695   44.8436 H   0  0  0  0  0  0  0  0  0  0  0  0
   57.5834   20.4307   43.2913 H   0  0  0  0  0  0  0  0  0  0  0  0
   58.7016   21.8365   43.2913 H   0  0  0  0  0  0  0  0  0  0  0  0
   55.1639   25.1234   44.3492 H   0  0  0  0  0  0  0  0  0  0  0  0
   55.3779   24.0220   45.7876 H   0  0  0  0  0  0  0  0  0  0  0  0
   55.6234   26.7792   45.8401 H   0  0  0  0  0  0  0  0  0  0  0  0
   56.3344   25.6158   47.0348 H   0  0  0  0  0  0  0  0  0  0  0  0
   56.8457   28.0908   43.7510 H   0  0  0  0  0  0  0  0  0  0  0  0
   57.3389   30.5299   43.6346 H   0  0  0  0  0  0  0  0  0  0  0  0
   59.8350   32.2460   45.2180 H   0  0  0  0  0  0  0  0  0  0  0  0
   57.7215   35.0630   45.2169 H   0  0  0  0  0  0  0  0  0  0  0  0
   57.9528   34.5516   46.9320 H   0  0  0  0  0  0  0  0  0  0  0  0
   62.2260   33.7648   45.3330 H   0  0  0  0  0  0  0  0  0  0  0  0
   63.8480   33.1386   47.1244 H   0  0  0  0  0  0  0  0  0  0  0  0
   63.1558   33.2103   49.5208 H   0  0  0  0  0  0  0  0  0  0  0  0
   60.8369   33.9057   50.1307 H   0  0  0  0  0  0  0  0  0  0  0  0
   59.6884   30.2283   47.2583 H   0  0  0  0  0  0  0  0  0  0  0  0
   59.2952   25.6549   44.4975 H   0  0  0  0  0  0  0  0  0  0  0  0
   59.4230   25.4301   46.2843 H   0  0  0  0  0  0  0  0  0  0  0  0
   58.9197   23.3284   44.8264 H   0  0  0  0  0  0  0  0  0  0  0  0
   57.9126   23.5980   46.2804 H   0  0  0  0  0  0  0  0  0  0  0  0
  1  2  1  0
  2  3  2  0
  2  4  2  0
  2  5  1  0
  5  6  1  0
  6  7  1  0
  7  8  1  0
  8  9  1  0
  9 10  2  0
 10 11  1  0
 11 12  2  0
 12 13  1  0
 13 14  1  0
 14 15  2  0
 14 16  1  0
 16 17  1  0
 17 18  1  0
 18 19  2  0
 19 20  1  0
 20 21  2  0
 21 22  1  0
 22 23  2  0
 23 24  1  0
 12 25  1  0
 25 26  2  0
 26 27  1  0
  8 28  1  0
 28 29  1  0
 29  5  1  0
 26  9  1  0
 23 18  1  0
  1 30  1  0
  1 31  1  0
  1 32  1  0
  6 33  1  0
  6 34  1  0
  7 35  1  0
  7 36  1  0
 10 37  1  0
 11 38  1  0
 13 39  1  0
 16 40  1  0
 16 41  1  0
 19 42  1  0
 20 43  1  0
 21 44  1  0
 22 45  1  0
 25 46  1  0
 28 47  1  0
 28 48  1  0
 29 49  1  0
 29 50  1  0
M  END
>  <UniqueID>  (34) 
30

>  <SMILES>  (34) 
CS(=O)(=O)N1CCN(c2ccc(NC(=O)COc3ccccc3F)cc2Cl)CC1

>  <Energy>  (34) 
58.62119249253546

>  <Genealogy>  (34) 
CS(=O)(=O)N1CCN(c2ccc(NC(=O)COc3ccccc3F)cc2Cl)CC1 (3D coordinates assigned)
CS(=O)(=O)N1CCN(c2ccc(NC(=O)COc3ccccc3F)cc2Cl)CC1 (nonaromatic ring conformer: 58.62119249253546 kcal/mol)

>  <smiles>  (34) 
CS(=O)(=O)N1CCN(c2ccc(NC(=O)COc3ccccc3F)cc2Cl)CC1

>  <score_type>  (34) 
oracle

>  <origin>  (34) 
adg

>  <m_score__min__energy>  (34) 
-8.0999999999999996

>  <m_primary>  (34) 
energy

$$$$
35:0
     RDKit          3D

 40 41  0  0  0  0  0  0  0  0999 V2000
   56.5970   29.3990   42.6210 C   0  0  0  0  0  0  0  0  0  0  0  0
   56.5520   29.8230   44.3470 S   0  0  0  0  0  0  0  0  0  0  0  0
   55.5860   28.9180   45.0580 O   0  0  0  0  0  0  0  0  0  0  0  0
   56.0880   31.2440   44.5070 O   0  0  0  0  0  0  0  0  0  0  0  0
   58.1630   29.6460   45.0340 C   0  0  0  0  0  0  0  0  0  0  0  0
   59.0240   28.6530   44.5500 C   0  0  0  0  0  0  0  0  0  0  0  0
   60.3010   28.5050   45.0940 C   0  0  0  0  0  0  0  0  0  0  0  0
   60.7220   29.3390   46.1340 C   0  0  0  0  0  0  0  0  0  0  0  0
   59.8580   30.3210   46.6500 C   0  0  0  0  0  0  0  0  0  0  0  0
   60.2720   31.2050   47.7060 N   0  0  0  0  0  0  0  0  0  0  0  0
   61.5450   31.8660   47.7520 C   0  0  0  0  0  0  0  0  0  0  0  0
   62.4590   31.5570   46.9400 O   0  0  0  0  0  0  0  0  0  0  0  0
   61.7810   32.8560   48.7580 N   0  0  0  0  0  0  0  0  0  0  0  0
   61.2110   34.1990   48.7220 C   0  0  0  0  0  0  0  0  0  0  0  0
   59.6720   34.1380   48.7470 C   0  0  2  0  0  0  0  0  0  0  0  0
   59.2070   33.0460   49.5050 O   0  0  0  0  0  0  0  0  0  0  0  0
   59.0990   34.0980   47.3440 C   0  0  0  0  0  0  0  0  0  0  0  0
   57.8240   33.5480   47.1160 C   0  0  0  0  0  0  0  0  0  0  0  0
   57.2860   33.5180   45.8270 C   0  0  0  0  0  0  0  0  0  0  0  0
   58.0100   34.0400   44.7520 C   0  0  0  0  0  0  0  0  0  0  0  0
   59.2740   34.5940   44.9660 C   0  0  0  0  0  0  0  0  0  0  0  0
   59.8180   34.6250   46.2530 C   0  0  0  0  0  0  0  0  0  0  0  0
   58.5840   30.4780   46.0820 C   0  0  0  0  0  0  0  0  0  0  0  0
   56.7125   28.3104   42.5138 H   0  0  0  0  0  0  0  0  0  0  0  0
   55.6600   29.7174   42.1407 H   0  0  0  0  0  0  0  0  0  0  0  0
   57.4463   29.9069   42.1407 H   0  0  0  0  0  0  0  0  0  0  0  0
   58.6930   27.9878   43.7389 H   0  0  0  0  0  0  0  0  0  0  0  0
   60.9775   27.7305   44.7035 H   0  0  0  0  0  0  0  0  0  0  0  0
   61.7338   29.2265   46.5506 H   0  0  0  0  0  0  0  0  0  0  0  0
   59.6510   31.3000   48.5410 H   0  0  0  0  0  0  0  0  0  0  0  0
   61.5642   34.7648   49.5967 H   0  0  0  0  0  0  0  0  0  0  0  0
   61.5303   34.6940   47.7930 H   0  0  0  0  0  0  0  0  0  0  0  0
   59.3204   35.0592   49.2346 H   0  0  0  0  0  0  0  0  0  0  0  0
   59.9550   32.4030   49.6120 H   0  0  0  0  0  0  0  0  0  0  0  0
   57.2470   33.1389   47.9584 H   0  0  0  0  0  0  0  0  0  0  0  0
   56.2901   33.0824   45.6580 H   0  0  0  0  0  0  0  0  0  0  0  0
   57.5847   34.0146   43.7379 H   0  0  0  0  0  0  0  0  0  0  0  0
   59.8427   35.0069   44.1197 H   0  0  0  0  0  0  0  0  0  0  0  0
   60.8137   35.0636   46.4151 H   0  0  0  0  0  0  0  0  0  0  0  0
   57.9101   31.2600   46.4619 H   0  0  0  0  0  0  0  0  0  0  0  0
  1  2  1  0
  2  3  2  0
  2  4  2  0
  2  5  1  0
  5  6  2  0
  6  7  1  0
  7  8  2  0
  8  9  1  0
  9 10  1  0
 10 11  1  0
 11 12  2  0
 11 13  1  0
 13 14  1  0
 14 15  1  0
 15 16  1  0
 15 17  1  0
 17 18  2  0
 18 19  1  0
 19 20  2  0
 20 21  1  0
 21 22  2  0
  9 23  2  0
 23  5  1  0
 22 17  1  0
  1 24  1  0
  1 25  1  0
  1 26  1  0
  6 27  1  0
  7 28  1  0
  8 29  1  0
 10 30  1  0
 14 31  1  0
 14 32  1  0
 15 33  1  1
 16 34  1  0
 18 35  1  0
 19 36  1  0
 20 37  1  0
 21 38  1  0
 22 39  1  0
 23 40  1  0
M  CHG  1  13  -1
M  END
>  <UniqueID>  (35) 
31

>  <SMILES>  (35) 
CS(=O)(=O)c1cccc(NC(=O)[N-]C[C@H](O)c2ccccc2)c1

>  <Energy>  (35) 
39.261964692675235

>  <Genealogy>  (35) 
CS(=O)(=O)c1cccc(NC(=O)[N-]CC(O)c2ccccc2)c1 (protonated)
CS(=O)(=O)c1cccc(NC(=O)[N-]C[C@H](O)c2ccccc2)c1 (chirality)
CS(=O)(=O)c1cccc(NC(=O)[N-]C[C@H](O)c2ccccc2)c1 (3D coordinates assigned)
CS(=O)(=O)c1cccc(NC(=O)[N-]C[C@H](O)c2ccccc2)c1 (optimized conformer: 39.261964692675235 kcal/mol)

>  <smiles>  (35) 
CS(=O)(=O)c1cccc(NC(=O)NCC(O)c2ccccc2)c1

>  <score_type>  (35) 
oracle

>  <origin>  (35) 
adg

>  <m_score__min__energy>  (35) 
-9.4700000000000006

>  <m_primary>  (35) 
energy

$$$$
36:0
     RDKit          3D

 39 42  0  0  1  0  0  0  0  0999 V2000
   65.4270   32.8960   49.7670 N   0  0  0  0  0  0  0  0  0  0  0  0
   64.5430   33.0970   49.0360 C   0  0  0  0  0  0  0  0  0  0  0  0
   63.4650   33.3630   48.1240 C   0  0  0  0  0  0  0  0  0  0  0  0
   63.6050   33.4560   46.7550 C   0  0  0  0  0  0  0  0  0  0  0  0
   62.3710   33.7120   46.2840 N   0  0  0  0  0  0  0  0  0  0  0  0
   61.4990   33.7770   47.2870 N   0  0  0  0  0  0  0  0  0  0  0  0
   60.1590   34.0120   47.2640 C   0  0  0  0  0  0  0  0  0  0  0  0
   59.4980   34.2190   46.1950 N   0  0  0  0  0  0  0  0  0  0  0  0
   58.6940   32.7500   51.1830 C   0  0  0  0  0  0  0  0  0  0  0  0
   57.8120   32.8690   52.2380 C   0  0  0  0  0  0  0  0  0  0  0  0
   57.8320   32.5800   43.3230 C   0  0  0  0  0  0  0  0  0  0  0  0
   57.4450   31.3620   43.8940 C   0  0  0  0  0  0  0  0  0  0  0  0
   56.7820   30.4590   43.1220 F   0  0  0  0  0  0  0  0  0  0  0  0
   57.7360   31.0870   45.2290 C   0  0  0  0  0  0  0  0  0  0  0  0
   58.8530   31.5340   50.5400 C   0  0  0  0  0  0  0  0  0  0  0  0
   59.4980   34.0250   48.4360 N   0  0  0  0  0  0  0  0  0  0  0  0
   60.1250   33.8160   49.6040 C   0  0  0  0  0  0  0  0  0  0  0  0
   59.4780   33.8330   50.6960 N   0  0  0  0  0  0  0  0  0  0  0  0
   58.8020   33.2230   45.4550 C   0  0  0  0  0  0  0  0  0  0  0  0
   58.4990   33.4700   44.1270 C   0  0  0  0  0  0  0  0  0  0  0  0
   57.1180   31.7390   52.6050 C   0  0  0  0  0  0  0  0  0  0  0  0
   57.2700   30.5220   51.9690 C   0  0  0  0  0  0  0  0  0  0  0  0
   56.5670   29.3810   52.3420 O   0  0  0  0  0  0  0  0  0  0  0  0
   58.1610   30.3970   50.9010 C   0  0  0  0  0  0  0  0  0  0  0  0
   58.4110   32.0140   46.0030 C   0  0  0  0  0  0  0  0  0  0  0  0
   61.4510   33.5820   49.6380 N   0  0  0  0  0  0  0  0  0  0  0  0
   62.1440   33.5630   48.4650 C   0  0  0  0  0  0  0  0  0  0  0  0
   64.5306   33.3444   46.1712 H   0  0  0  0  0  0  0  0  0  0  0  0
   62.0870   33.8490   45.2690 H   0  0  0  0  0  0  0  0  0  0  0  0
   57.6701   33.8254   52.7625 H   0  0  0  0  0  0  0  0  0  0  0  0
   57.6103   32.8145   42.2714 H   0  0  0  0  0  0  0  0  0  0  0  0
   57.4273   30.1276   45.6697 H   0  0  0  0  0  0  0  0  0  0  0  0
   59.5639   31.4721   49.7029 H   0  0  0  0  0  0  0  0  0  0  0  0
   58.4770   34.2000   48.4750 H   0  0  0  0  0  0  0  0  0  0  0  0
   58.8097   34.4317   43.6927 H   0  0  0  0  0  0  0  0  0  0  0  0
   56.4094   31.8078   53.4435 H   0  0  0  0  0  0  0  0  0  0  0  0
   56.5290   29.0770   53.3270 H   0  0  0  0  0  0  0  0  0  0  0  0
   58.3035   29.4414   50.3751 H   0  0  0  0  0  0  0  0  0  0  0  0
   58.6373   31.7896   47.0558 H   0  0  0  0  0  0  0  0  0  0  0  0
  1  2  3  0
  2  3  1  0
  3  4  2  0
  4  5  1  0
  5  6  1  0
  6  7  1  0
  7  8  2  0
  8  9  1  0
  9 10  2  0
 10 11  1  0
 11 12  2  0
 12 13  1  0
 12 14  1  0
 14 15  2  0
  7 16  1  0
 16 17  1  0
 17 18  2  0
 18 19  1  0
 19 20  2  0
 20 21  1  0
 21 22  2  0
 22 23  1  0
 22 24  1  0
 24 25  2  0
 17 26  1  0
 26 27  2  0
 27  3  1  0
 27  6  1  0
 15  9  1  0
 25 19  1  0
  4 28  1  0
  5 29  1  0
 10 30  1  0
 11 31  1  0
 14 32  1  0
 15 33  1  0
 16 34  1  0
 20 35  1  0
 21 36  1  0
 23 37  1  0
 24 38  1  0
 25 39  1  0
M  END
>  <smiles>  (36) 
N#Cc1c[nH]n2c(=Nc3ccc(F)cc3)[nH]c(=Nc3ccc(O)cc3)nc12

>  <score_type>  (36) 
oracle

>  <origin>  (36) 
adg

>  <m_score__min__energy>  (36) 
-8.25

>  <m_primary>  (36) 
energy

$$$$
37:0
     RDKit          3D

 42 45  0  0  1  0  0  0  0  0999 V2000
   56.9320   24.8110   44.3550 C   0  0  0  0  0  0  0  0  0  0  0  0
   56.8210   25.9510   45.6920 S   0  0  0  0  0  0  0  0  0  0  0  0
   57.3900   25.3630   46.9640 O   0  0  0  0  0  0  0  0  0  0  0  0
   55.4100   26.3520   45.9880 O   0  0  0  0  0  0  0  0  0  0  0  0
   57.7110   27.4310   45.3890 C   0  0  0  0  0  0  0  0  0  0  0  0
   58.9400   27.3530   44.7630 C   0  0  0  0  0  0  0  0  0  0  0  0
   59.6790   28.4880   44.5010 C   0  0  0  0  0  0  0  0  0  0  0  0
   59.1670   29.7130   44.8780 C   0  0  0  0  0  0  0  0  0  0  0  0
   57.9170   29.8000   45.5160 C   0  0  0  0  0  0  0  0  0  0  0  0
   57.4440   31.0340   45.9440 N   0  0  0  0  0  0  0  0  0  0  0  0
   57.8090   32.1940   45.6770 C   0  0  0  0  0  0  0  0  0  0  0  0
   57.0060   32.9380   44.8850 N   0  0  0  0  0  0  0  0  0  0  0  0
   57.2420   34.1830   44.5060 C   0  0  0  0  0  0  0  0  0  0  0  0
   58.3800   34.7530   44.9510 N   0  0  0  0  0  0  0  0  0  0  0  0
   59.1680   34.0620   45.7120 C   0  0  0  0  0  0  0  0  0  0  0  0
   60.8040   34.5920   46.4710 S   0  0  0  0  0  0  0  0  0  0  0  0
   61.0560   33.0070   47.2860 C   0  0  0  0  0  0  0  0  0  0  0  0
   62.1920   32.6680   48.1080 C   0  0  0  0  0  0  0  0  0  0  0  0
   62.1550   31.6900   49.0750 C   0  0  0  0  0  0  0  0  0  0  0  0
   63.2770   31.4100   49.8320 C   0  0  0  0  0  0  0  0  0  0  0  0
   64.4460   32.1130   49.6220 C   0  0  0  0  0  0  0  0  0  0  0  0
   65.5760   31.7710   50.4450 C   0  0  0  0  0  0  0  0  0  0  0  0
   66.4830   31.4790   51.1150 N   0  0  0  0  0  0  0  0  0  0  0  0
   64.4870   33.0920   48.6570 C   0  0  0  0  0  0  0  0  0  0  0  0
   63.3670   33.3430   47.9270 C   0  0  0  0  0  0  0  0  0  0  0  0
   59.9410   32.2350   46.9380 C   0  0  0  0  0  0  0  0  0  0  0  0
   59.0150   32.7530   46.1670 C   0  0  0  0  0  0  0  0  0  0  0  0
   57.1800   28.6300   45.7730 C   0  0  0  0  0  0  0  0  0  0  0  0
   57.0314   23.7897   44.7513 H   0  0  0  0  0  0  0  0  0  0  0  0
   56.0230   24.8785   43.7392 H   0  0  0  0  0  0  0  0  0  0  0  0
   57.8109   25.0526   43.7392 H   0  0  0  0  0  0  0  0  0  0  0  0
   59.3358   26.3698   44.4686 H   0  0  0  0  0  0  0  0  0  0  0  0
   60.6566   28.4181   44.0017 H   0  0  0  0  0  0  0  0  0  0  0  0
   59.7418   30.6292   44.6776 H   0  0  0  0  0  0  0  0  0  0  0  0
   56.1020   32.5050   44.5230 H   0  0  0  0  0  0  0  0  0  0  0  0
   56.5414   34.7288   43.8570 H   0  0  0  0  0  0  0  0  0  0  0  0
   61.2258   31.1269   49.2469 H   0  0  0  0  0  0  0  0  0  0  0  0
   63.2382   30.6260   50.6027 H   0  0  0  0  0  0  0  0  0  0  0  0
   65.4103   33.6627   48.4784 H   0  0  0  0  0  0  0  0  0  0  0  0
   63.4087   34.1255   47.1551 H   0  0  0  0  0  0  0  0  0  0  0  0
   59.8425   31.2037   47.3078 H   0  0  0  0  0  0  0  0  0  0  0  0
   56.2003   28.6790   46.2708 H   0  0  0  0  0  0  0  0  0  0  0  0
  1  2  1  0
  2  3  2  0
  2  4  2  0
  2  5  1  0
  5  6  2  0
  6  7  1  0
  7  8  2  0
  8  9  1  0
  9 10  1  0
 10 11  2  0
 11 12  1  0
 12 13  1  0
 13 14  2  0
 14 15  1  0
 15 16  1  0
 16 17  1  0
 17 18  1  0
 18 19  2  0
 19 20  1  0
 20 21  2  0
 21 22  1  0
 22 23  3  0
 21 24  1  0
 24 25  2  0
 17 26  2  0
 26 27  1  0
  9 28  2  0
 28  5  1  0
 27 11  1  0
 27 15  2  0
 25 18  1  0
  1 29  1  0
  1 30  1  0
  1 31  1  0
  6 32  1  0
  7 33  1  0
  8 34  1  0
 12 35  1  0
 13 36  1  0
 19 37  1  0
 20 38  1  0
 24 39  1  0
 25 40  1  0
 26 41  1  0
 28 42  1  0
M  END
>  <smiles>  (37) 
CS(=O)(=O)c1cccc(N=c2[nH]cnc3sc(-c4ccc(C#N)cc4)cc23)c1

>  <score_type>  (37) 
oracle

>  <origin>  (37) 
adg

>  <m_score__min__energy>  (37) 
-9.1099999999999994

>  <m_primary>  (37) 
energy

$$$$
38:0
     RDKit          3D

 51 54  0  0  0  0  0  0  0  0999 V2000
   55.1410   27.4940   45.3440 H   0  0  0  0  0  0  0  0  0  0  0  0
   55.1750   26.7140   45.9880 O   0  0  0  0  0  0  0  0  0  0  0  0
   55.9820   25.6040   45.7500 C   0  0  0  0  0  0  0  0  0  0  0  0
   55.7050   24.5980   44.8520 C   0  0  0  0  0  0  0  0  0  0  0  0
   54.8040   24.5332   44.2244 H   0  0  0  0  0  0  0  0  0  0  0  0
   56.7160   23.7040   44.8650 N   0  0  0  0  0  0  0  0  0  0  0  0
   57.5770   24.2000   45.7800 C   0  0  0  0  0  0  0  0  0  0  0  0
   58.6700   23.6410   46.0620 O   0  0  0  0  0  0  0  0  0  0  0  0
   57.1590   25.3490   46.3510 N   0  0  0  0  0  0  0  0  0  0  0  0
   57.8810   26.1770   47.3180 C   0  0  0  0  0  0  0  0  0  0  0  0
   58.2256   25.5464   48.1508 H   0  0  0  0  0  0  0  0  0  0  0  0
   57.2067   26.9602   47.6947 H   0  0  0  0  0  0  0  0  0  0  0  0
   59.0900   26.8370   46.6490 C   0  0  0  0  0  0  0  0  0  0  0  0
   59.2202   26.4149   45.6416 H   0  0  0  0  0  0  0  0  0  0  0  0
   59.9825   26.6438   47.2623 H   0  0  0  0  0  0  0  0  0  0  0  0
   58.8910   28.3290   46.5390 C   0  0  0  0  0  0  0  0  0  0  0  0
   59.3610   29.2640   47.4820 C   0  0  0  0  0  0  0  0  0  0  0  0
   60.0810   28.9850   48.7460 C   0  0  0  0  0  0  0  0  0  0  0  0
   60.6700   27.8850   48.9040 O   0  0  0  0  0  0  0  0  0  0  0  0
   60.0190   29.8980   49.8510 N   0  0  0  0  0  0  0  0  0  0  0  0
   60.1390   31.1970   49.8090 C   0  0  0  0  0  0  0  0  0  0  0  0
   59.1070   31.9800   50.3390 C   0  0  0  0  0  0  0  0  0  0  0  0
   58.2199   31.4999   50.7778 H   0  0  0  0  0  0  0  0  0  0  0  0
   59.2070   33.3730   50.3090 C   0  0  0  0  0  0  0  0  0  0  0  0
   58.3923   33.9911   50.7143 H   0  0  0  0  0  0  0  0  0  0  0  0
   60.3090   33.9650   49.7800 N   0  0  0  0  0  0  0  0  0  0  0  0
   61.3430   33.2370   49.2760 C   0  0  0  0  0  0  0  0  0  0  0  0
   62.4730   33.8650   48.7410 O   0  0  0  0  0  0  0  0  0  0  0  0
   62.8260   33.8220   47.3570 C   0  0  0  0  0  0  0  0  0  0  0  0
   63.4374   34.7000   47.1016 H   0  0  0  0  0  0  0  0  0  0  0  0
   63.6490   32.5650   47.0620 C   0  0  0  0  0  0  0  0  0  0  0  0
   63.9555   32.0968   48.0090 H   0  0  0  0  0  0  0  0  0  0  0  0
   63.0399   31.8556   46.4825 H   0  0  0  0  0  0  0  0  0  0  0  0
   64.5428   32.8395   46.4825 H   0  0  0  0  0  0  0  0  0  0  0  0
   61.5490   33.8320   46.5210 C   0  0  0  0  0  0  0  0  0  0  0  0
   60.6742   33.8389   47.1879 H   0  0  0  0  0  0  0  0  0  0  0  0
   61.5333   34.7303   45.8863 H   0  0  0  0  0  0  0  0  0  0  0  0
   61.5192   32.9341   45.8863 H   0  0  0  0  0  0  0  0  0  0  0  0
   61.2790   31.8410   49.2860 C   0  0  0  0  0  0  0  0  0  0  0  0
   62.1147   31.2470   48.8874 H   0  0  0  0  0  0  0  0  0  0  0  0
   58.9430   30.8230   46.9750 S   0  0  0  0  0  0  0  0  0  0  0  0
   58.1600   30.3340   45.5790 C   0  0  0  0  0  0  0  0  0  0  0  0
   57.5310   31.1350   44.6290 C   0  0  0  0  0  0  0  0  0  0  0  0
   57.5135   32.2296   44.7362 H   0  0  0  0  0  0  0  0  0  0  0  0
   56.9210   30.5100   43.5330 C   0  0  0  0  0  0  0  0  0  0  0  0
   56.4177   31.1172   42.7661 H   0  0  0  0  0  0  0  0  0  0  0  0
   56.9500   29.1090   43.4100 C   0  0  0  0  0  0  0  0  0  0  0  0
   56.4674   28.6269   42.5470 H   0  0  0  0  0  0  0  0  0  0  0  0
   57.5900   28.3210   44.3800 C   0  0  0  0  0  0  0  0  0  0  0  0
   57.6108   27.2255   44.2832 H   0  0  0  0  0  0  0  0  0  0  0  0
   58.2030   28.9500   45.4750 C   0  0  0  0  0  0  0  0  0  0  0  0
  1  2  1  0
  2  3  1  0
  3  4  2  0
  4  5  1  0
  4  6  1  0
  6  7  1  0
  7  8  2  0
  7  9  1  0
  9 10  1  0
 10 11  1  0
 10 12  1  0
 10 13  1  0
 13 14  1  0
 13 15  1  0
 13 16  1  0
 16 17  2  0
 17 18  1  0
 18 19  2  0
 18 20  1  0
 20 21  2  0
 21 22  1  0
 22 23  1  0
 22 24  2  0
 24 25  1  0
 24 26  1  0
 26 27  1  0
 27 28  1  0
 28 29  1  0
 29 30  1  0
 29 31  1  0
 31 32  1  0
 31 33  1  0
 31 34  1  0
 29 35  1  0
 35 36  1  0
 35 37  1  0
 35 38  1  0
 27 39  2  0
 39 40  1  0
 17 41  1  0
 41 42  1  0
 42 43  2  0
 43 44  1  0
 43 45  1  0
 45 46  1  0
 45 47  2  0
 47 48  1  0
 47 49  1  0
 49 50  1  0
 49 51  2  0
  9  3  1  0
 51 16  1  0
 39 21  1  0
 51 42  1  0
M  CHG  2   6  -1  26  -1
M  END
>  <UniqueID>  (38) 
32

>  <SMILES>  (38) 
CC(C)Oc1c/c(=N\C(=O)c2sc3ccccc3c2CCn2c(O)c[n-]c2=O)cc[n-]1

>  <Energy>  (38) 
119.23307132398224

>  <Genealogy>  (38) 
CC(C)Oc1cc(=NC(=O)c2sc3ccccc3c2CCn2c(O)c[n-]c2=O)cc[n-]1 (protonated)
CC(C)Oc1c/c(=N\C(=O)c2sc3ccccc3c2CCn2c(O)c[n-]c2=O)cc[n-]1 (cis-trans isomerization)
CC(C)Oc1c/c(=N\C(=O)c2sc3ccccc3c2CCn2c(O)c[n-]c2=O)cc[n-]1 (3D coordinates assigned)
CC(C)Oc1c/c(=N\C(=O)c2sc3ccccc3c2CCn2c(O)c[n-]c2=O)cc[n-]1 (optimized conformer: 119.23307132398224 kcal/mol)

>  <smiles>  (38) 
CC(C)Oc1cc(=NC(=O)c2sc3ccccc3c2CCn2c(O)c[nH]c2=O)cc[nH]1

>  <score_type>  (38) 
oracle

>  <origin>  (38) 
adg

>  <m_score__min__energy>  (38) 
-11.43

>  <m_primary>  (38) 
energy

$$$$
39:0
     RDKit          3D

 45 48  0  0  0  0  0  0  0  0999 V2000
   65.7190   32.3620   49.9260 C   0  0  0  0  0  0  0  0  0  0  0  0
   64.3820   32.9080   50.2700 C   0  0  0  0  0  0  0  0  0  0  0  0
   63.3300   32.5160   49.3680 N   0  0  0  0  0  0  0  0  0  0  0  0
   62.7080   31.3470   49.5610 C   0  0  0  0  0  0  0  0  0  0  0  0
   63.0250   30.5910   50.5120 O   0  0  0  0  0  0  0  0  0  0  0  0
   61.6920   30.9210   48.7260 C   0  0  0  0  0  0  0  0  0  0  0  0
   60.8880   29.8600   48.6250 N   0  0  0  0  0  0  0  0  0  0  0  0
   60.0540   29.9780   47.5780 C   0  0  0  0  0  0  0  0  0  0  0  0
   59.0230   29.0820   47.0910 C   0  0  0  0  0  0  0  0  0  0  0  0
   58.1430   29.4600   46.0900 C   0  0  0  0  0  0  0  0  0  0  0  0
   57.1540   28.6290   45.6070 C   0  0  0  0  0  0  0  0  0  0  0  0
   57.0180   27.3660   46.1290 C   0  0  0  0  0  0  0  0  0  0  0  0
   56.0140   26.5560   45.6220 O   0  0  0  0  0  0  0  0  0  0  0  0
   57.8860   26.9860   47.1200 C   0  0  0  0  0  0  0  0  0  0  0  0
   58.8780   27.8090   47.6090 C   0  0  0  0  0  0  0  0  0  0  0  0
   60.3620   31.1630   47.0130 N   0  0  0  0  0  0  0  0  0  0  0  0
   61.3570   31.7720   47.6820 C   0  0  0  0  0  0  0  0  0  0  0  0
   61.9850   32.9530   47.4870 N   0  0  0  0  0  0  0  0  0  0  0  0
   61.5520   33.7600   46.3620 C   0  0  0  0  0  0  0  0  0  0  0  0
   60.0810   33.8180   46.2100 C   0  0  0  0  0  0  0  0  0  0  0  0
   59.2130   33.8150   47.2800 C   0  0  0  0  0  0  0  0  0  0  0  0
   57.8270   33.8700   47.1130 C   0  0  0  0  0  0  0  0  0  0  0  0
   57.3190   33.9280   45.8210 C   0  0  0  0  0  0  0  0  0  0  0  0
   58.1620   33.9330   44.7250 C   0  0  0  0  0  0  0  0  0  0  0  0
   59.5310   33.8780   44.9230 C   0  0  0  0  0  0  0  0  0  0  0  0
   62.9480   33.2850   48.3330 C   0  0  0  0  0  0  0  0  0  0  0  0
   63.5490   34.3890   48.1660 O   0  0  0  0  0  0  0  0  0  0  0  0
   66.2717   32.1363   50.8499 H   0  0  0  0  0  0  0  0  0  0  0  0
   65.5984   31.4411   49.3366 H   0  0  0  0  0  0  0  0  0  0  0  0
   66.2775   33.1041   49.3366 H   0  0  0  0  0  0  0  0  0  0  0  0
   64.1174   32.5599   51.2794 H   0  0  0  0  0  0  0  0  0  0  0  0
   64.4627   34.0029   50.2018 H   0  0  0  0  0  0  0  0  0  0  0  0
   60.9130   29.0480   49.2840 H   0  0  0  0  0  0  0  0  0  0  0  0
   58.2374   30.4685   45.6611 H   0  0  0  0  0  0  0  0  0  0  0  0
   56.4794   28.9750   44.8100 H   0  0  0  0  0  0  0  0  0  0  0  0
   55.9680   26.3180   44.6490 H   0  0  0  0  0  0  0  0  0  0  0  0
   57.7861   25.9764   47.5451 H   0  0  0  0  0  0  0  0  0  0  0  0
   59.5491   27.4551   48.4055 H   0  0  0  0  0  0  0  0  0  0  0  0
   61.9284   34.7840   46.5025 H   0  0  0  0  0  0  0  0  0  0  0  0
   61.9535   33.2897   45.4523 H   0  0  0  0  0  0  0  0  0  0  0  0
   59.6247   33.7678   48.2990 H   0  0  0  0  0  0  0  0  0  0  0  0
   57.1542   33.8674   47.9833 H   0  0  0  0  0  0  0  0  0  0  0  0
   56.2305   33.9706   45.6679 H   0  0  0  0  0  0  0  0  0  0  0  0
   57.7492   33.9802   43.7065 H   0  0  0  0  0  0  0  0  0  0  0  0
   60.2014   33.8815   44.0509 H   0  0  0  0  0  0  0  0  0  0  0  0
  1  2  1  0
  2  3  1  0
  3  4  1  0
  4  5  2  0
  4  6  1  0
  6  7  1  0
  7  8  1  0
  8  9  1  0
  9 10  2  0
 10 11  1  0
 11 12  2  0
 12 13  1  0
 12 14  1  0
 14 15  2  0
  8 16  2  0
 16 17  1  0
 17 18  1  0
 18 19  1  0
 19 20  1  0
 20 21  2  0
 21 22  1  0
 22 23  2  0
 23 24  1  0
 24 25  2  0
 18 26  1  0
 26 27  2  0
 26  3  1  0
 17  6  2  0
 25 20  1  0
 15  9  1  0
  1 28  1  0
  1 29  1  0
  1 30  1  0
  2 31  1  0
  2 32  1  0
  7 33  1  0
 10 34  1  0
 11 35  1  0
 13 36  1  0
 14 37  1  0
 15 38  1  0
 19 39  1  0
 19 40  1  0
 21 41  1  0
 22 42  1  0
 23 43  1  0
 24 44  1  0
 25 45  1  0
M  END
>  <smiles>  (39) 
CCn1c(=O)c2[nH]c(-c3ccc(O)cc3)nc2n(Cc2ccccc2)c1=O

>  <score_type>  (39) 
oracle

>  <origin>  (39) 
adg

>  <m_score__min__energy>  (39) 
-7.75

>  <m_primary>  (39) 
energy

$$$$
40:0
     RDKit          3D

 58 61  0  0  0  0  0  0  0  0999 V2000
   57.7460   31.8890   53.4360 C   0  0  0  0  0  0  0  0  0  0  0  0
   58.4690   31.8660   52.1560 N   0  0  0  0  0  0  0  0  0  0  0  0
   58.5520   33.2300   51.6010 C   0  0  0  0  0  0  0  0  0  0  0  0
   59.3340   33.2270   50.2750 C   0  0  0  0  0  0  0  0  0  0  0  0
   58.8060   32.2370   49.3130 N   0  0  0  0  0  0  0  0  0  0  0  0
   57.8250   32.7180   48.3070 C   0  0  0  0  0  0  0  0  0  0  0  0
   58.4180   33.5670   47.1910 C   0  0  0  0  0  0  0  0  0  0  0  0
   59.6150   34.2630   47.4620 C   0  0  0  0  0  0  0  0  0  0  0  0
   60.2000   35.0850   46.5020 C   0  0  0  0  0  0  0  0  0  0  0  0
   59.6210   35.2120   45.2440 C   0  0  0  0  0  0  0  0  0  0  0  0
   58.4710   34.4880   44.9300 C   0  0  0  0  0  0  0  0  0  0  0  0
   57.8620   33.6480   45.8810 C   0  0  0  0  0  0  0  0  0  0  0  0
   56.7250   32.7820   45.3920 C   0  0  0  0  0  0  0  0  0  0  0  0
   57.2730   31.6010   44.7320 N   0  0  0  0  0  0  0  0  0  0  0  0
   57.1780   30.2680   45.2460 C   0  0  0  0  0  0  0  0  0  0  0  0
   56.1990   29.5380   44.9300 O   0  0  0  0  0  0  0  0  0  0  0  0
   58.2390   29.7440   46.1360 C   0  0  0  0  0  0  0  0  0  0  0  0
   58.1660   28.4410   46.6410 C   0  0  0  0  0  0  0  0  0  0  0  0
   59.1630   27.9820   47.4950 C   0  0  0  0  0  0  0  0  0  0  0  0
   60.2070   28.8340   47.8480 C   0  0  0  0  0  0  0  0  0  0  0  0
   61.1170   28.4090   48.6140 O   0  0  0  0  0  0  0  0  0  0  0  0
   60.2380   30.1140   47.3530 N   0  0  0  0  0  0  0  0  0  0  0  0
   61.2810   31.0300   47.7450 C   0  0  0  0  0  0  0  0  0  0  0  0
   61.7450   31.0610   49.0750 C   0  0  0  0  0  0  0  0  0  0  0  0
   62.7290   31.9770   49.4590 C   0  0  0  0  0  0  0  0  0  0  0  0
   63.2500   32.8760   48.5270 C   0  0  0  0  0  0  0  0  0  0  0  0
   62.7840   32.8640   47.2070 C   0  0  0  0  0  0  0  0  0  0  0  0
   61.8030   31.9460   46.8150 C   0  0  0  0  0  0  0  0  0  0  0  0
   59.2880   30.5380   46.5040 N   0  0  0  0  0  0  0  0  0  0  0  0
   58.5720   30.9020   49.8930 C   0  0  0  0  0  0  0  0  0  0  0  0
   57.7810   30.9770   51.2030 C   0  0  0  0  0  0  0  0  0  0  0  0
   58.4681   31.8660   54.2655 H   0  0  0  0  0  0  0  0  0  0  0  0
   57.1430   32.8068   53.5001 H   0  0  0  0  0  0  0  0  0  0  0  0
   57.0859   31.0114   53.5001 H   0  0  0  0  0  0  0  0  0  0  0  0
   57.5355   33.6097   51.4207 H   0  0  0  0  0  0  0  0  0  0  0  0
   59.0762   33.8754   52.3212 H   0  0  0  0  0  0  0  0  0  0  0  0
   59.2685   34.2281   49.8238 H   0  0  0  0  0  0  0  0  0  0  0  0
   60.3756   32.9542   50.5000 H   0  0  0  0  0  0  0  0  0  0  0  0
   57.3448   31.8399   47.8505 H   0  0  0  0  0  0  0  0  0  0  0  0
   57.1201   33.3666   48.8478 H   0  0  0  0  0  0  0  0  0  0  0  0
   60.0935   34.1547   48.4466 H   0  0  0  0  0  0  0  0  0  0  0  0
   61.1224   35.6352   46.7394 H   0  0  0  0  0  0  0  0  0  0  0  0
   60.0698   35.8832   44.4969 H   0  0  0  0  0  0  0  0  0  0  0  0
   58.0336   34.5748   43.9244 H   0  0  0  0  0  0  0  0  0  0  0  0
   56.1046   32.4721   46.2458 H   0  0  0  0  0  0  0  0  0  0  0  0
   56.1062   33.3497   44.6815 H   0  0  0  0  0  0  0  0  0  0  0  0
   57.3271   27.7853   46.3648 H   0  0  0  0  0  0  0  0  0  0  0  0
   59.1275   26.9553   47.8882 H   0  0  0  0  0  0  0  0  0  0  0  0
   61.3308   30.3607   49.8153 H   0  0  0  0  0  0  0  0  0  0  0  0
   63.0931   31.9892   50.4969 H   0  0  0  0  0  0  0  0  0  0  0  0
   64.0266   33.5938   48.8297 H   0  0  0  0  0  0  0  0  0  0  0  0
   63.1901   33.5783   46.4756 H   0  0  0  0  0  0  0  0  0  0  0  0
   61.4396   31.9412   45.7768 H   0  0  0  0  0  0  0  0  0  0  0  0
   59.3240   31.5210   46.1490 H   0  0  0  0  0  0  0  0  0  0  0  0
   58.0065   30.2950   49.1707 H   0  0  0  0  0  0  0  0  0  0  0  0
   59.5506   30.4499   50.1119 H   0  0  0  0  0  0  0  0  0  0  0  0
   56.7744   31.3707   50.9989 H   0  0  0  0  0  0  0  0  0  0  0  0
   57.7059   29.9695   51.6381 H   0  0  0  0  0  0  0  0  0  0  0  0
  1  2  1  0
  2  3  1  0
  3  4  1  0
  4  5  1  0
  5  6  1  0
  6  7  1  0
  7  8  2  0
  8  9  1  0
  9 10  2  0
 10 11  1  0
 11 12  2  0
 12 13  1  0
 13 14  1  0
 14 15  1  0
 15 16  2  0
 15 17  1  0
 17 18  1  0
 18 19  2  0
 19 20  1  0
 20 21  2  0
 20 22  1  0
 22 23  1  0
 23 24  2  0
 24 25  1  0
 25 26  2  0
 26 27  1  0
 27 28  2  0
 22 29  1  0
  5 30  1  0
 30 31  1  0
 31  2  1  0
 12  7  1  0
 29 17  2  0
 28 23  1  0
  1 32  1  0
  1 33  1  0
  1 34  1  0
  3 35  1  0
  3 36  1  0
  4 37  1  0
  4 38  1  0
  6 39  1  0
  6 40  1  0
  8 41  1  0
  9 42  1  0
 10 43  1  0
 11 44  1  0
 13 45  1  0
 13 46  1  0
 18 47  1  0
 19 48  1  0
 24 49  1  0
 25 50  1  0
 26 51  1  0
 27 52  1  0
 28 53  1  0
 29 54  1  0
 30 55  1  0
 30 56  1  0
 31 57  1  0
 31 58  1  0
M  CHG  2  14  -1  29   1
M  END
>  <UniqueID>  (40) 
33

>  <SMILES>  (40) 
CN1CCN(Cc2ccccc2C[N-]C(=O)c2ccc(=O)n(-c3ccccc3)[nH+]2)CC1

>  <Energy>  (40) 
82.94634234737647

>  <Genealogy>  (40) 
CN1CCN(Cc2ccccc2C[N-]C(=O)c2ccc(=O)n(-c3ccccc3)[nH+]2)CC1 (protonated)
CN1CCN(Cc2ccccc2C[N-]C(=O)c2ccc(=O)n(-c3ccccc3)[nH+]2)CC1 (3D coordinates assigned)
CN1CCN(Cc2ccccc2C[N-]C(=O)c2ccc(=O)n(-c3ccccc3)[nH+]2)CC1 (nonaromatic ring conformer: 82.94634234737647 kcal/mol)

>  <smiles>  (40) 
CN1CCN(Cc2ccccc2CNC(=O)c2ccc(=O)n(-c3ccccc3)n2)CC1

>  <score_type>  (40) 
oracle

>  <origin>  (40) 
adg

>  <m_score__min__energy>  (40) 
-9.1899999999999995

>  <m_primary>  (40) 
energy

$$$$
41:0
     RDKit          3D

 47 49  0  0  0  0  0  0  0  0999 V2000
   55.1690   28.9790   44.5250 N   0  0  0  0  0  0  0  0  0  0  0  0
   56.5030   30.0180   44.1690 S   0  0  0  0  0  0  0  0  0  0  0  0
   56.1590   31.4270   44.5640 O   0  0  0  0  0  0  0  0  0  0  0  0
   56.7850   29.9860   42.6940 O   0  0  0  0  0  0  0  0  0  0  0  0
   57.9220   29.4790   45.0620 C   0  0  0  0  0  0  0  0  0  0  0  0
   59.0650   29.0500   44.3750 C   0  0  0  0  0  0  0  0  0  0  0  0
   60.1790   28.5930   45.0820 C   0  0  0  0  0  0  0  0  0  0  0  0
   60.1580   28.5650   46.4790 C   0  0  0  0  0  0  0  0  0  0  0  0
   59.0290   29.0060   47.1810 C   0  0  0  0  0  0  0  0  0  0  0  0
   59.0370   28.9330   48.6140 N   0  0  0  0  0  0  0  0  0  0  0  0
   59.9400   29.6170   49.4910 C   0  0  0  0  0  0  0  0  0  0  0  0
   59.6200   29.8600   50.6860 O   0  0  0  0  0  0  0  0  0  0  0  0
   61.2470   30.1130   48.9590 C   0  0  0  0  0  0  0  0  0  0  0  0
   61.7990   31.0970   49.8300 O   0  0  0  0  0  0  0  0  0  0  0  0
   62.8010   31.9920   49.4370 C   0  0  0  0  0  0  0  0  0  0  0  0
   63.9920   31.6040   49.2870 O   0  0  0  0  0  0  0  0  0  0  0  0
   62.4570   33.4310   49.2320 C   0  0  0  0  0  0  0  0  0  0  0  0
   61.3090   33.5450   48.3320 N   0  0  0  0  0  0  0  0  0  0  0  0
   61.3490   33.8720   47.0220 C   0  0  0  0  0  0  0  0  0  0  0  0
   62.5080   34.2190   46.3370 O   0  0  0  0  0  0  0  0  0  0  0  0
   60.0880   33.8020   46.4680 C   0  0  0  0  0  0  0  0  0  0  0  0
   59.2340   33.4410   47.4850 C   0  0  0  0  0  0  0  0  0  0  0  0
   60.0140   33.2580   48.6080 C   0  0  0  0  0  0  0  0  0  0  0  0
   59.5370   32.8220   49.8430 O   0  0  0  0  0  0  0  0  0  0  0  0
   57.7730   33.1670   47.2930 C   0  0  0  0  0  0  0  0  0  0  0  0
   57.2740   33.8170   45.9860 C   0  0  0  0  0  0  0  0  0  0  0  0
   58.2390   33.5520   44.8100 C   0  0  0  0  0  0  0  0  0  0  0  0
   59.6420   34.1340   45.0760 C   0  0  0  0  0  0  0  0  0  0  0  0
   57.9010   29.4440   46.4640 C   0  0  0  0  0  0  0  0  0  0  0  0
   54.6800   29.3830   45.3550 H   0  0  0  0  0  0  0  0  0  0  0  0
   59.0850   29.0732   43.2754 H   0  0  0  0  0  0  0  0  0  0  0  0
   61.0738   28.2548   44.5389 H   0  0  0  0  0  0  0  0  0  0  0  0
   61.0341   28.1941   47.0311 H   0  0  0  0  0  0  0  0  0  0  0  0
   61.9477   29.2692   48.8758 H   0  0  0  0  0  0  0  0  0  0  0  0
   61.0801   30.5660   47.9706 H   0  0  0  0  0  0  0  0  0  0  0  0
   62.2077   33.8881   50.2010 H   0  0  0  0  0  0  0  0  0  0  0  0
   63.3190   33.9497   48.7871 H   0  0  0  0  0  0  0  0  0  0  0  0
   59.8600   31.9610   50.2650 H   0  0  0  0  0  0  0  0  0  0  0  0
   57.6111   32.0801   47.2427 H   0  0  0  0  0  0  0  0  0  0  0  0
   57.2147   33.5921   48.1401 H   0  0  0  0  0  0  0  0  0  0  0  0
   56.2861   33.4024   45.7365 H   0  0  0  0  0  0  0  0  0  0  0  0
   57.2176   34.9041   46.1442 H   0  0  0  0  0  0  0  0  0  0  0  0
   58.3270   32.4659   44.6599 H   0  0  0  0  0  0  0  0  0  0  0  0
   57.8296   34.0438   43.9152 H   0  0  0  0  0  0  0  0  0  0  0  0
   60.3546   33.7068   44.3551 H   0  0  0  0  0  0  0  0  0  0  0  0
   59.6026   35.2276   44.9643 H   0  0  0  0  0  0  0  0  0  0  0  0
   56.9975   29.7608   47.0057 H   0  0  0  0  0  0  0  0  0  0  0  0
  1  2  1  0
  2  3  2  0
  2  4  2  0
  2  5  1  0
  5  6  2  0
  6  7  1  0
  7  8  2  0
  8  9  1  0
  9 10  1  0
 10 11  1  0
 11 12  2  0
 11 13  1  0
 13 14  1  0
 14 15  1  0
 15 16  2  0
 15 17  1  0
 17 18  1  0
 18 19  1  0
 19 20  1  0
 19 21  2  0
 21 22  1  0
 22 23  2  0
 23 24  1  0
 22 25  1  0
 25 26  1  0
 26 27  1  0
 27 28  1  0
  9 29  2  0
 29  5  1  0
 23 18  1  0
 28 21  1  0
  1 30  1  0
  6 31  1  0
  7 32  1  0
  8 33  1  0
 13 34  1  0
 13 35  1  0
 17 36  1  0
 17 37  1  0
 24 38  1  0
 25 39  1  0
 25 40  1  0
 26 41  1  0
 26 42  1  0
 27 43  1  0
 27 44  1  0
 28 45  1  0
 28 46  1  0
 29 47  1  0
M  CHG  3   1  -1  10  -1  20  -1
M  END
>  <UniqueID>  (41) 
34

>  <SMILES>  (41) 
[NH-]S(=O)(=O)c1cccc([N-]C(=O)COC(=O)Cn2c([O-])c3c(c2O)CCCC3)c1

>  <Energy>  (41) 
74.85223010692255

>  <Genealogy>  (41) 
[NH-]S(=O)(=O)c1cccc([N-]C(=O)COC(=O)Cn2c([O-])c3c(c2O)CCCC3)c1 (protonated)
[NH-]S(=O)(=O)c1cccc([N-]C(=O)COC(=O)Cn2c([O-])c3c(c2O)CCCC3)c1 (3D coordinates assigned)
[NH-]S(=O)(=O)c1cccc([N-]C(=O)COC(=O)Cn2c([O-])c3c(c2O)CCCC3)c1 (nonaromatic ring conformer: 74.85223010692255 kcal/mol)

>  <smiles>  (41) 
NS(=O)(=O)c1cccc(NC(=O)COC(=O)Cn2c(O)c3c(c2O)CCCC3)c1

>  <score_type>  (41) 
oracle

>  <origin>  (41) 
adg

>  <m_score__min__energy>  (41) 
-14.59

>  <m_primary>  (41) 
energy

$$$$
42:0
     RDKit          3D

 53 55  0  0  0  0  0  0  0  0999 V2000
   52.7970   22.5550   45.9820 C   0  0  0  0  0  0  0  0  0  0  0  0
   53.7850   22.6120   44.9580 O   0  0  0  0  0  0  0  0  0  0  0  0
   54.8800   23.4910   44.9590 C   0  0  0  0  0  0  0  0  0  0  0  0
   54.9140   24.6410   45.7700 C   0  0  0  0  0  0  0  0  0  0  0  0
   56.0200   25.4920   45.7430 C   0  0  0  0  0  0  0  0  0  0  0  0
   57.1140   25.2060   44.9160 C   0  0  0  0  0  0  0  0  0  0  0  0
   58.2920   26.1440   44.8600 C   0  0  0  0  0  0  0  0  0  0  0  0
   57.8540   27.5990   45.0480 C   0  0  0  0  0  0  0  0  0  0  0  0
   57.5420   28.2110   43.7530 N   0  0  0  0  0  0  0  0  0  0  0  0
   56.6470   29.6800   43.9940 S   0  0  0  0  0  0  0  0  0  0  0  0
   56.1630   30.2010   42.6690 O   0  0  0  0  0  0  0  0  0  0  0  0
   55.4490   29.3910   44.8540 O   0  0  0  0  0  0  0  0  0  0  0  0
   57.6520   30.8890   44.7890 C   0  0  0  0  0  0  0  0  0  0  0  0
   57.3040   32.2390   44.7190 C   0  0  0  0  0  0  0  0  0  0  0  0
   58.0780   33.2030   45.3640 C   0  0  0  0  0  0  0  0  0  0  0  0
   59.2290   32.8380   46.1060 C   0  0  0  0  0  0  0  0  0  0  0  0
   59.5720   31.4680   46.1760 C   0  0  0  0  0  0  0  0  0  0  0  0
   58.7790   30.5050   45.5200 C   0  0  0  0  0  0  0  0  0  0  0  0
   60.7050   31.0960   46.9100 C   0  0  0  0  0  0  0  0  0  0  0  0
   61.0150   29.8740   47.0050 O   0  0  0  0  0  0  0  0  0  0  0  0
   61.4720   32.0480   47.5240 N   0  0  0  0  0  0  0  0  0  0  0  0
   62.6520   31.6410   48.3120 C   0  0  0  0  0  0  0  0  0  0  0  0
   61.1080   33.3690   47.4750 C   0  0  0  0  0  0  0  0  0  0  0  0
   61.8000   34.2240   48.0990 O   0  0  0  0  0  0  0  0  0  0  0  0
   60.0030   33.7720   46.7600 N   0  0  0  0  0  0  0  0  0  0  0  0
   59.6490   35.2060   46.7050 C   0  0  0  0  0  0  0  0  0  0  0  0
   57.0800   24.0660   44.0990 C   0  0  0  0  0  0  0  0  0  0  0  0
   55.9680   23.2030   44.1180 C   0  0  0  0  0  0  0  0  0  0  0  0
   55.9030   22.0530   43.3160 O   0  0  0  0  0  0  0  0  0  0  0  0
   57.0090   21.2030   43.0330 C   0  0  0  0  0  0  0  0  0  0  0  0
   53.2871   22.5833   46.9664 H   0  0  0  0  0  0  0  0  0  0  0  0
   52.1186   23.4155   45.8853 H   0  0  0  0  0  0  0  0  0  0  0  0
   52.2221   21.6222   45.8853 H   0  0  0  0  0  0  0  0  0  0  0  0
   54.0637   24.8704   46.4291 H   0  0  0  0  0  0  0  0  0  0  0  0
   56.0327   26.3924   46.3747 H   0  0  0  0  0  0  0  0  0  0  0  0
   59.0007   25.8772   45.6578 H   0  0  0  0  0  0  0  0  0  0  0  0
   58.7650   26.0488   43.8714 H   0  0  0  0  0  0  0  0  0  0  0  0
   56.9595   27.6283   45.6875 H   0  0  0  0  0  0  0  0  0  0  0  0
   58.6745   28.1602   45.5191 H   0  0  0  0  0  0  0  0  0  0  0  0
   56.9190   27.5580   43.2240 H   0  0  0  0  0  0  0  0  0  0  0  0
   56.4129   32.5445   44.1510 H   0  0  0  0  0  0  0  0  0  0  0  0
   57.7909   34.2627   45.2959 H   0  0  0  0  0  0  0  0  0  0  0  0
   59.0500   29.4408   45.5842 H   0  0  0  0  0  0  0  0  0  0  0  0
   62.4217   31.7204   49.3847 H   0  0  0  0  0  0  0  0  0  0  0  0
   62.9139   30.6006   48.0693 H   0  0  0  0  0  0  0  0  0  0  0  0
   63.4996   32.2987   48.0693 H   0  0  0  0  0  0  0  0  0  0  0  0
   59.5519   35.5992   47.7277 H   0  0  0  0  0  0  0  0  0  0  0  0
   60.4378   35.7583   46.1732 H   0  0  0  0  0  0  0  0  0  0  0  0
   58.6938   35.3277   46.1732 H   0  0  0  0  0  0  0  0  0  0  0  0
   57.9303   23.8444   43.4373 H   0  0  0  0  0  0  0  0  0  0  0  0
   57.4574   20.8584   43.9765 H   0  0  0  0  0  0  0  0  0  0  0  0
   56.6649   20.3347   42.4519 H   0  0  0  0  0  0  0  0  0  0  0  0
   57.7595   21.7590   42.4519 H   0  0  0  0  0  0  0  0  0  0  0  0
  1  2  1  0
  2  3  1  0
  3  4  2  0
  4  5  1  0
  5  6  2  0
  6  7  1  0
  7  8  1  0
  8  9  1  0
  9 10  1  0
 10 11  2  0
 10 12  2  0
 10 13  1  0
 13 14  2  0
 14 15  1  0
 15 16  2  0
 16 17  1  0
 17 18  2  0
 17 19  1  0
 19 20  2  0
 19 21  1  0
 21 22  1  0
 21 23  1  0
 23 24  2  0
 23 25  1  0
 25 26  1  0
  6 27  1  0
 27 28  2  0
 28 29  1  0
 29 30  1  0
 28  3  1  0
 18 13  1  0
 25 16  1  0
  1 31  1  0
  1 32  1  0
  1 33  1  0
  4 34  1  0
  5 35  1  0
  7 36  1  0
  7 37  1  0
  8 38  1  0
  8 39  1  0
  9 40  1  0
 14 41  1  0
 15 42  1  0
 18 43  1  0
 22 44  1  0
 22 45  1  0
 22 46  1  0
 26 47  1  0
 26 48  1  0
 26 49  1  0
 27 50  1  0
 30 51  1  0
 30 52  1  0
 30 53  1  0
M  END
>  <UniqueID>  (42) 
35

>  <SMILES>  (42) 
COc1ccc(CCNS(=O)(=O)c2ccc3c(c2)c(=O)n(C)c(=O)n3C)cc1OC

>  <Energy>  (42) 
63.3811849318336

>  <Genealogy>  (42) 
COc1ccc(CCNS(=O)(=O)c2ccc3c(c2)c(=O)n(C)c(=O)n3C)cc1OC (3D coordinates assigned)
COc1ccc(CCNS(=O)(=O)c2ccc3c(c2)c(=O)n(C)c(=O)n3C)cc1OC (optimized conformer: 63.3811849318336 kcal/mol)

>  <smiles>  (42) 
COc1ccc(CCNS(=O)(=O)c2ccc3c(c2)c(=O)n(C)c(=O)n3C)cc1OC

>  <score_type>  (42) 
oracle

>  <origin>  (42) 
adg

>  <m_score__min__energy>  (42) 
-9.6600000000000001

>  <m_primary>  (42) 
energy

$$$$
43:0
     RDKit          3D

 38 40  0  0  1  0  0  0  0  0999 V2000
   62.2240   34.1420   49.4090 C   0  0  0  0  0  0  0  0  0  0  0  0
   61.0590   34.7470   48.9280 O   0  0  0  0  0  0  0  0  0  0  0  0
   60.1830   34.2010   48.0240 C   0  0  0  0  0  0  0  0  0  0  0  0
   60.1970   34.4990   46.6620 C   0  0  0  0  0  0  0  0  0  0  0  0
   59.2870   33.9180   45.7860 C   0  0  0  0  0  0  0  0  0  0  0  0
   59.0870   34.0290   44.4560 N   0  0  0  0  0  0  0  0  0  0  0  0
   58.0790   33.2620   44.0730 N   0  0  0  0  0  0  0  0  0  0  0  0
   57.6140   32.6410   45.1720 C   0  0  0  0  0  0  0  0  0  0  0  0
   56.6420   31.8240   45.1690 N   0  0  0  0  0  0  0  0  0  0  0  0
   56.5380   30.3610   44.2990 S   0  0  0  0  0  0  0  0  0  0  0  0
   56.8240   30.6940   42.8440 O   0  0  0  0  0  0  0  0  0  0  0  0
   55.1650   29.7670   44.3370 O   0  0  0  0  0  0  0  0  0  0  0  0
   57.7490   29.1990   44.8000 C   0  0  0  0  0  0  0  0  0  0  0  0
   59.0920   29.3830   44.5610 C   0  0  0  0  0  0  0  0  0  0  0  0
   60.0590   28.4670   44.9560 C   0  0  0  0  0  0  0  0  0  0  0  0
   59.6190   27.3340   45.6140 C   0  0  0  0  0  0  0  0  0  0  0  0
   58.2870   27.0960   45.8810 C   0  0  0  0  0  0  0  0  0  0  0  0
   57.3720   28.0520   45.4600 C   0  0  0  0  0  0  0  0  0  0  0  0
   58.3530   33.0300   46.2790 C   0  0  0  0  0  0  0  0  0  0  0  0
   58.3110   32.7120   47.6200 C   0  0  0  0  0  0  0  0  0  0  0  0
   59.2360   33.3080   48.4830 C   0  0  0  0  0  0  0  0  0  0  0  0
   59.2030   32.9970   49.8360 O   0  0  0  0  0  0  0  0  0  0  0  0
   58.8230   31.6720   50.2300 C   0  0  0  0  0  0  0  0  0  0  0  0
   62.2129   34.1478   50.5089 H   0  0  0  0  0  0  0  0  0  0  0  0
   62.2739   33.1040   49.0483 H   0  0  0  0  0  0  0  0  0  0  0  0
   63.1018   34.6982   49.0483 H   0  0  0  0  0  0  0  0  0  0  0  0
   60.9428   35.2078   46.2728 H   0  0  0  0  0  0  0  0  0  0  0  0
   59.6540   34.6430   43.8010 H   0  0  0  0  0  0  0  0  0  0  0  0
   57.6880   33.1370   43.0990 H   0  0  0  0  0  0  0  0  0  0  0  0
   59.4133   30.2940   44.0349 H   0  0  0  0  0  0  0  0  0  0  0  0
   61.1270   28.6359   44.7541 H   0  0  0  0  0  0  0  0  0  0  0  0
   60.3624   26.5909   45.9383 H   0  0  0  0  0  0  0  0  0  0  0  0
   57.9625   26.1856   46.4063 H   0  0  0  0  0  0  0  0  0  0  0  0
   56.3036   27.8858   45.6621 H   0  0  0  0  0  0  0  0  0  0  0  0
   57.5634   32.0023   48.0040 H   0  0  0  0  0  0  0  0  0  0  0  0
   58.8044   31.6071   51.3279 H   0  0  0  0  0  0  0  0  0  0  0  0
   57.8232   31.4437   49.8322 H   0  0  0  0  0  0  0  0  0  0  0  0
   59.5499   30.9485   49.8322 H   0  0  0  0  0  0  0  0  0  0  0  0
  1  2  1  0
  2  3  1  0
  3  4  2  0
  4  5  1  0
  5  6  1  0
  6  7  1  0
  7  8  1  0
  8  9  2  0
  9 10  1  0
 10 11  2  0
 10 12  2  0
 10 13  1  0
 13 14  2  0
 14 15  1  0
 15 16  2  0
 16 17  1  0
 17 18  2  0
  8 19  1  0
 19 20  1  0
 20 21  2  0
 21 22  1  0
 22 23  1  0
 21  3  1  0
 19  5  2  0
 18 13  1  0
  1 24  1  0
  1 25  1  0
  1 26  1  0
  4 27  1  0
  6 28  1  0
  7 29  1  0
 14 30  1  0
 15 31  1  0
 16 32  1  0
 17 33  1  0
 18 34  1  0
 20 35  1  0
 23 36  1  0
 23 37  1  0
 23 38  1  0
M  END
>  <smiles>  (43) 
COc1cc2[nH][nH]c(=NS(=O)(=O)c3ccccc3)c2cc1OC

>  <score_type>  (43) 
oracle

>  <origin>  (43) 
adg

>  <m_score__min__energy>  (43) 
-8.0700000000000003

>  <m_primary>  (43) 
energy

$$$$
44:0
     RDKit          3D

 50 53  0  0  0  0  0  0  0  0999 V2000
   55.5770   29.3300   44.6710 O   0  0  0  0  0  0  0  0  0  0  0  0
   56.7750   29.5110   45.0210 C   0  0  0  0  0  0  0  0  0  0  0  0
   57.5130   28.4330   45.6180 N   0  0  0  0  0  0  0  0  0  0  0  0
   57.2690   27.0420   45.3460 C   0  0  0  0  0  0  0  0  0  0  0  0
   56.4300   26.3110   46.2000 C   0  0  0  0  0  0  0  0  0  0  0  0
   56.2040   24.9500   45.9810 C   0  0  0  0  0  0  0  0  0  0  0  0
   56.8310   24.2940   44.9140 C   0  0  0  0  0  0  0  0  0  0  0  0
   56.5470   22.5780   44.6430 S   0  0  0  0  0  0  0  0  0  0  0  0
   55.9160   22.3920   43.2920 O   0  0  0  0  0  0  0  0  0  0  0  0
   57.8510   21.8350   44.7050 O   0  0  0  0  0  0  0  0  0  0  0  0
   55.4910   21.9700   45.8760 N   0  0  0  0  0  0  0  0  0  0  0  0
   55.7620   22.0440   47.1420 C   0  0  0  0  0  0  0  0  0  0  0  0
   57.0150   22.0950   47.6450 N   0  0  0  0  0  0  0  0  0  0  0  0
   56.9990   22.1680   49.0030 C   0  0  0  0  0  0  0  0  0  0  0  0
   55.7330   22.1770   49.5790 C   0  0  0  0  0  0  0  0  0  0  0  0
   54.5910   22.0870   48.3440 S   0  0  0  0  0  0  0  0  0  0  0  0
   57.6800   25.0130   44.0640 C   0  0  0  0  0  0  0  0  0  0  0  0
   57.9060   26.3760   44.2810 C   0  0  0  0  0  0  0  0  0  0  0  0
   57.3830   30.8550   44.8730 C   0  0  0  0  0  0  0  0  0  0  0  0
   57.2010   31.5640   43.6710 C   0  0  0  0  0  0  0  0  0  0  0  0
   57.7710   32.8290   43.4960 C   0  0  0  0  0  0  0  0  0  0  0  0
   58.5330   33.3990   44.5160 C   0  0  0  0  0  0  0  0  0  0  0  0
   58.7330   32.7060   45.7090 C   0  0  0  0  0  0  0  0  0  0  0  0
   58.1740   31.4340   45.8930 C   0  0  0  0  0  0  0  0  0  0  0  0
   58.4590   30.7190   47.0970 N   0  0  0  0  0  0  0  0  0  0  0  0
   59.8680   29.7250   47.2330 S   0  0  0  0  0  0  0  0  0  0  0  0
   60.2620   29.2200   45.8730 O   0  0  0  0  0  0  0  0  0  0  0  0
   59.5570   28.5470   48.1140 O   0  0  0  0  0  0  0  0  0  0  0  0
   61.1920   30.6490   47.9370 C   0  0  0  0  0  0  0  0  0  0  0  0
   61.9840   31.4790   47.1300 C   0  0  0  0  0  0  0  0  0  0  0  0
   63.0610   32.1780   47.6840 C   0  0  0  0  0  0  0  0  0  0  0  0
   63.3550   32.0460   49.0460 C   0  0  0  0  0  0  0  0  0  0  0  0
   64.4020   32.7230   49.5820 F   0  0  0  0  0  0  0  0  0  0  0  0
   62.5700   31.2170   49.8540 C   0  0  0  0  0  0  0  0  0  0  0  0
   61.4930   30.5180   49.3000 C   0  0  0  0  0  0  0  0  0  0  0  0
   58.2310   28.6780   46.3370 H   0  0  0  0  0  0  0  0  0  0  0  0
   55.9456   26.8141   47.0499 H   0  0  0  0  0  0  0  0  0  0  0  0
   55.5314   24.3916   46.6487 H   0  0  0  0  0  0  0  0  0  0  0  0
   57.9202   22.2164   49.6022 H   0  0  0  0  0  0  0  0  0  0  0  0
   55.5150   22.2332   50.6557 H   0  0  0  0  0  0  0  0  0  0  0  0
   58.1714   24.5037   43.2219 H   0  0  0  0  0  0  0  0  0  0  0  0
   58.5847   26.9307   43.6165 H   0  0  0  0  0  0  0  0  0  0  0  0
   56.6045   31.1187   42.8611 H   0  0  0  0  0  0  0  0  0  0  0  0
   57.6184   33.3749   42.5533 H   0  0  0  0  0  0  0  0  0  0  0  0
   58.9765   34.3962   44.3789 H   0  0  0  0  0  0  0  0  0  0  0  0
   59.3333   33.1604   46.5110 H   0  0  0  0  0  0  0  0  0  0  0  0
   61.7573   31.5803   46.0584 H   0  0  0  0  0  0  0  0  0  0  0  0
   63.6772   32.8317   47.0492 H   0  0  0  0  0  0  0  0  0  0  0  0
   62.7998   31.1149   50.9249 H   0  0  0  0  0  0  0  0  0  0  0  0
   60.8796   29.8629   49.9361 H   0  0  0  0  0  0  0  0  0  0  0  0
  1  2  2  0
  2  3  1  0
  3  4  1  0
  4  5  2  0
  5  6  1  0
  6  7  2  0
  7  8  1  0
  8  9  2  0
  8 10  2  0
  8 11  1  0
 11 12  2  3
 12 13  1  0
 13 14  1  0
 14 15  2  0
 15 16  1  0
  7 17  1  0
 17 18  2  0
  2 19  1  0
 19 20  2  0
 20 21  1  0
 21 22  2  0
 22 23  1  0
 23 24  2  0
 24 25  1  0
 25 26  1  0
 26 27  2  0
 26 28  2  0
 26 29  1  0
 29 30  2  0
 30 31  1  0
 31 32  2  0
 32 33  1  0
 32 34  1  0
 34 35  2  0
 18  4  1  0
 24 19  1  0
 35 29  1  0
 16 12  1  0
  3 36  1  0
  5 37  1  0
  6 38  1  0
 14 39  1  0
 15 40  1  0
 17 41  1  0
 18 42  1  0
 20 43  1  0
 21 44  1  0
 22 45  1  0
 23 46  1  0
 30 47  1  0
 31 48  1  0
 34 49  1  0
 35 50  1  0
M  CHG  2  13  -1  25  -1
M  END
>  <UniqueID>  (44) 
36

>  <SMILES>  (44) 
O=C(Nc1ccc(S(=O)(=O)N=c2[n-]ccs2)cc1)c1ccccc1[N-]S(=O)(=O)c1ccc(F)cc1

>  <Energy>  (44) 
104.01765399021286

>  <Genealogy>  (44) 
O=C(Nc1ccc(S(=O)(=O)N=c2[n-]ccs2)cc1)c1ccccc1[N-]S(=O)(=O)c1ccc(F)cc1 (protonated)
O=C(Nc1ccc(S(=O)(=O)N=c2[n-]ccs2)cc1)c1ccccc1[N-]S(=O)(=O)c1ccc(F)cc1 (3D coordinates assigned)
O=C(Nc1ccc(S(=O)(=O)N=c2[n-]ccs2)cc1)c1ccccc1[N-]S(=O)(=O)c1ccc(F)cc1 (optimized conformer: 104.01765399021286 kcal/mol)

>  <smiles>  (44) 
O=C(Nc1ccc(S(=O)(=O)N=c2[nH]ccs2)cc1)c1ccccc1NS(=O)(=O)c1ccc(F)cc1

>  <score_type>  (44) 
oracle

>  <origin>  (44) 
adg

>  <m_score__min__energy>  (44) 
-12.24

>  <m_primary>  (44) 
energy

$$$$
45:0
     RDKit          3D

 38 40  0  0  0  0  0  0  0  0999 V2000
   55.4760   22.3530   43.8090 O   0  0  0  0  0  0  0  0  0  0  0  0
   55.8680   23.3280   44.5030 C   0  0  0  0  0  0  0  0  0  0  0  0
   57.1690   23.4060   44.8800 N   0  0  0  0  0  0  0  0  0  0  0  0
   57.6250   24.4410   45.6300 C   0  0  0  0  0  0  0  0  0  0  0  0
   58.8430   24.4770   45.9490 O   0  0  0  0  0  0  0  0  0  0  0  0
   56.7400   25.4580   46.0370 C   0  0  0  0  0  0  0  0  0  0  0  0
   57.2020   26.6210   46.8910 C   0  0  0  0  0  0  0  0  0  0  0  0
   58.2960   27.4050   46.2030 C   0  0  0  0  0  0  0  0  0  0  0  0
   59.6330   27.2250   46.5990 C   0  0  0  0  0  0  0  0  0  0  0  0
   60.6590   27.9360   45.9740 C   0  0  0  0  0  0  0  0  0  0  0  0
   60.3630   28.8310   44.9470 C   0  0  0  0  0  0  0  0  0  0  0  0
   59.0410   29.0220   44.5430 C   0  0  0  0  0  0  0  0  0  0  0  0
   57.9930   28.3150   45.1680 C   0  0  0  0  0  0  0  0  0  0  0  0
   56.6500   28.4850   44.7870 O   0  0  0  0  0  0  0  0  0  0  0  0
   55.9360   29.7210   44.7910 C   0  0  0  0  0  0  0  0  0  0  0  0
   56.6870   30.7730   44.0220 C   0  0  0  0  0  0  0  0  0  0  0  0
   57.3950   31.7830   44.6950 C   0  0  0  0  0  0  0  0  0  0  0  0
   58.0990   32.7520   43.9710 C   0  0  0  0  0  0  0  0  0  0  0  0
   58.1080   32.7150   42.5740 C   0  0  0  0  0  0  0  0  0  0  0  0
   57.4150   31.7060   41.8980 C   0  0  0  0  0  0  0  0  0  0  0  0
   56.7120   30.7360   42.6170 C   0  0  0  0  0  0  0  0  0  0  0  0
   55.4000   25.3590   45.6230 C   0  0  0  0  0  0  0  0  0  0  0  0
   54.4770   26.3390   45.9730 O   0  0  0  0  0  0  0  0  0  0  0  0
   54.9930   24.3000   44.8730 N   0  0  0  0  0  0  0  0  0  0  0  0
   56.3481   27.2879   47.0810 H   0  0  0  0  0  0  0  0  0  0  0  0
   57.6010   26.2222   47.8354 H   0  0  0  0  0  0  0  0  0  0  0  0
   59.8724   26.5185   47.4075 H   0  0  0  0  0  0  0  0  0  0  0  0
   61.7018   27.7899   46.2921 H   0  0  0  0  0  0  0  0  0  0  0  0
   61.1734   29.3879   44.4539 H   0  0  0  0  0  0  0  0  0  0  0  0
   58.8148   29.7290   43.7313 H   0  0  0  0  0  0  0  0  0  0  0  0
   54.9502   29.5697   44.3270 H   0  0  0  0  0  0  0  0  0  0  0  0
   55.8211   30.0589   45.8315 H   0  0  0  0  0  0  0  0  0  0  0  0
   57.3960   31.8122   45.7946 H   0  0  0  0  0  0  0  0  0  0  0  0
   58.6463   33.5443   44.5026 H   0  0  0  0  0  0  0  0  0  0  0  0
   58.6598   33.4790   42.0067 H   0  0  0  0  0  0  0  0  0  0  0  0
   57.4233   31.6759   40.7984 H   0  0  0  0  0  0  0  0  0  0  0  0
   56.1754   29.9393   42.0809 H   0  0  0  0  0  0  0  0  0  0  0  0
   53.9920   24.2370   44.5750 H   0  0  0  0  0  0  0  0  0  0  0  0
  1  2  2  0
  2  3  1  0
  3  4  1  0
  4  5  2  0
  4  6  1  0
  6  7  1  0
  7  8  1  0
  8  9  2  0
  9 10  1  0
 10 11  2  0
 11 12  1  0
 12 13  2  0
 13 14  1  0
 14 15  1  0
 15 16  1  0
 16 17  2  0
 17 18  1  0
 18 19  2  0
 19 20  1  0
 20 21  2  0
  6 22  2  0
 22 23  1  0
 22 24  1  0
 24  2  1  0
 13  8  1  0
 21 16  1  0
  7 25  1  0
  7 26  1  0
  9 27  1  0
 10 28  1  0
 11 29  1  0
 12 30  1  0
 15 31  1  0
 15 32  1  0
 17 33  1  0
 18 34  1  0
 19 35  1  0
 20 36  1  0
 21 37  1  0
 24 38  1  0
M  CHG  2   3  -1  23  -1
M  END
>  <UniqueID>  (45) 
37

>  <SMILES>  (45) 
O=c1[n-]c(=O)c(Cc2ccccc2OCc2ccccc2)c([O-])[nH]1

>  <Energy>  (45) 
42.53960181324365

>  <Genealogy>  (45) 
O=c1[n-]c(=O)c(Cc2ccccc2OCc2ccccc2)c([O-])[nH]1 (protonated)
O=c1[n-]c(=O)c(Cc2ccccc2OCc2ccccc2)c([O-])[nH]1 (3D coordinates assigned)
O=c1[n-]c(=O)c(Cc2ccccc2OCc2ccccc2)c([O-])[nH]1 (optimized conformer: 42.53960181324365 kcal/mol)

>  <smiles>  (45) 
O=c1[nH]c(O)c(Cc2ccccc2OCc2ccccc2)c(=O)[nH]1

>  <score_type>  (45) 
oracle

>  <origin>  (45) 
adg

>  <m_score__min__energy>  (45) 
-12.92

>  <m_primary>  (45) 
energy

$$$$
46:0
     RDKit          3D

 53 56  0  0  0  0  0  0  0  0999 V2000
   57.6400   31.5890   41.7280 O   0  0  0  0  0  0  0  0  0  0  0  0
   57.9560   31.7770   42.9340 C   0  0  0  0  0  0  0  0  0  0  0  0
   58.4830   33.0390   43.3510 N   0  0  0  0  0  0  0  0  0  0  0  0
   58.0140   33.7470   44.5340 C   0  0  0  0  0  0  0  0  0  0  0  0
   59.1300   34.6490   45.0950 C   0  0  0  0  0  0  0  0  0  0  0  0
   59.6260   34.2710   46.4380 N   0  0  0  0  0  0  0  0  0  0  0  0
   58.7800   33.2970   47.1490 C   0  0  0  0  0  0  0  0  0  0  0  0
   59.2640   33.1560   48.6090 C   0  0  0  0  0  0  0  0  0  0  0  0
   60.5580   33.7000   48.8160 O   0  0  0  0  0  0  0  0  0  0  0  0
   61.4390   33.2600   47.8030 C   0  0  0  0  0  0  0  0  0  0  0  0
   61.0470   33.8710   46.4440 C   0  0  0  0  0  0  0  0  0  0  0  0
   57.7950   30.7250   43.8940 N   0  0  0  0  0  0  0  0  0  0  0  0
   58.7610   29.6660   44.1530 C   0  0  0  0  0  0  0  0  0  0  0  0
   58.1040   28.7470   45.2560 C   0  0  0  0  0  0  0  0  0  0  0  0
   57.8680   27.3190   44.7630 C   0  0  0  0  0  0  0  0  0  0  0  0
   58.0280   26.9940   43.4000 C   0  0  0  0  0  0  0  0  0  0  0  0
   57.7620   25.7000   42.9380 C   0  0  0  0  0  0  0  0  0  0  0  0
   57.3120   24.7200   43.8220 C   0  0  0  0  0  0  0  0  0  0  0  0
   57.1170   25.0310   45.1690 C   0  0  0  0  0  0  0  0  0  0  0  0
   57.3810   26.3220   45.6360 C   0  0  0  0  0  0  0  0  0  0  0  0
   58.9250   28.6960   46.5440 C   0  0  0  0  0  0  0  0  0  0  0  0
   58.6940   29.6270   47.5800 C   0  0  0  0  0  0  0  0  0  0  0  0
   59.4140   29.5550   48.7770 C   0  0  0  0  0  0  0  0  0  0  0  0
   60.3550   28.5430   48.9690 C   0  0  0  0  0  0  0  0  0  0  0  0
   60.5700   27.5920   47.9710 C   0  0  0  0  0  0  0  0  0  0  0  0
   59.8550   27.6590   46.7720 C   0  0  0  0  0  0  0  0  0  0  0  0
   56.8440   29.3810   45.5130 O   0  0  0  0  0  0  0  0  0  0  0  0
   56.6840   30.4960   44.7270 C   0  0  0  0  0  0  0  0  0  0  0  0
   55.6550   31.2220   44.7530 O   0  0  0  0  0  0  0  0  0  0  0  0
   57.1465   34.3677   44.2653 H   0  0  0  0  0  0  0  0  0  0  0  0
   57.7285   33.0121   45.3011 H   0  0  0  0  0  0  0  0  0  0  0  0
   59.9789   34.6158   44.3962 H   0  0  0  0  0  0  0  0  0  0  0  0
   58.6899   35.6515   45.2014 H   0  0  0  0  0  0  0  0  0  0  0  0
   57.7365   33.6448   47.1416 H   0  0  0  0  0  0  0  0  0  0  0  0
   58.8472   32.3207   46.6468 H   0  0  0  0  0  0  0  0  0  0  0  0
   58.5539   33.6791   49.2664 H   0  0  0  0  0  0  0  0  0  0  0  0
   59.3170   32.0812   48.8372 H   0  0  0  0  0  0  0  0  0  0  0  0
   62.4643   33.5679   48.0561 H   0  0  0  0  0  0  0  0  0  0  0  0
   61.3791   32.1640   47.7308 H   0  0  0  0  0  0  0  0  0  0  0  0
   61.6714   34.7563   46.2533 H   0  0  0  0  0  0  0  0  0  0  0  0
   61.2033   33.1154   45.6601 H   0  0  0  0  0  0  0  0  0  0  0  0
   58.9515   29.0883   43.2365 H   0  0  0  0  0  0  0  0  0  0  0  0
   59.7277   30.0716   44.4863 H   0  0  0  0  0  0  0  0  0  0  0  0
   58.3654   27.7658   42.6925 H   0  0  0  0  0  0  0  0  0  0  0  0
   57.9082   25.4556   41.8755 H   0  0  0  0  0  0  0  0  0  0  0  0
   57.1106   23.7017   43.4580 H   0  0  0  0  0  0  0  0  0  0  0  0
   56.7551   24.2590   45.8640 H   0  0  0  0  0  0  0  0  0  0  0  0
   57.2074   26.5636   46.6950 H   0  0  0  0  0  0  0  0  0  0  0  0
   57.9404   30.4167   47.4445 H   0  0  0  0  0  0  0  0  0  0  0  0
   59.2379   30.2980   49.5688 H   0  0  0  0  0  0  0  0  0  0  0  0
   60.9274   28.4949   49.9071 H   0  0  0  0  0  0  0  0  0  0  0  0
   61.3038   26.7878   48.1282 H   0  0  0  0  0  0  0  0  0  0  0  0
   60.0188   26.8952   45.9975 H   0  0  0  0  0  0  0  0  0  0  0  0
  1  2  2  0
  2  3  1  0
  3  4  1  0
  4  5  1  0
  5  6  1  0
  6  7  1  0
  7  8  1  0
  8  9  1  0
  9 10  1  0
 10 11  1  0
  2 12  1  0
 12 13  1  0
 13 14  1  0
 14 15  1  0
 15 16  2  0
 16 17  1  0
 17 18  2  0
 18 19  1  0
 19 20  2  0
 14 21  1  0
 21 22  2  0
 22 23  1  0
 23 24  2  0
 24 25  1  0
 25 26  2  0
 14 27  1  0
 27 28  1  0
 28 29  2  0
 11  6  1  0
 28 12  1  0
 20 15  1  0
 26 21  1  0
  4 30  1  0
  4 31  1  0
  5 32  1  0
  5 33  1  0
  7 34  1  0
  7 35  1  0
  8 36  1  0
  8 37  1  0
 10 38  1  0
 10 39  1  0
 11 40  1  0
 11 41  1  0
 13 42  1  0
 13 43  1  0
 16 44  1  0
 17 45  1  0
 18 46  1  0
 19 47  1  0
 20 48  1  0
 22 49  1  0
 23 50  1  0
 24 51  1  0
 25 52  1  0
 26 53  1  0
M  CHG  1   3  -1
M  END
>  <UniqueID>  (46) 
38

>  <SMILES>  (46) 
O=C([N-]CCN1CCOCC1)N1CC(c2ccccc2)(c2ccccc2)OC1=O

>  <Energy>  (46) 
86.30683381336085

>  <Genealogy>  (46) 
O=C([N-]CCN1CCOCC1)N1CC(c2ccccc2)(c2ccccc2)OC1=O (protonated)
O=C([N-]CCN1CCOCC1)N1CC(c2ccccc2)(c2ccccc2)OC1=O (3D coordinates assigned)
O=C([N-]CCN1CCOCC1)N1CC(c2ccccc2)(c2ccccc2)OC1=O (nonaromatic ring conformer: 86.30683381336085 kcal/mol)

>  <smiles>  (46) 
O=C(NCCN1CCOCC1)N1CC(c2ccccc2)(c2ccccc2)OC1=O

>  <score_type>  (46) 
oracle

>  <origin>  (46) 
adg

>  <m_score__min__energy>  (46) 
-10.289999999999999

>  <m_primary>  (46) 
energy

$$$$
47:0
     RDKit          3D

 33 35  0  0  0  0  0  0  0  0999 V2000
   59.9070   33.2780   50.6670 C   0  0  0  0  0  0  0  0  0  0  0  0
   60.8240   34.1990   50.0830 O   0  0  0  0  0  0  0  0  0  0  0  0
   61.6480   33.9150   48.9820 C   0  0  0  0  0  0  0  0  0  0  0  0
   62.9270   33.3470   49.1430 C   0  0  0  0  0  0  0  0  0  0  0  0
   63.7270   33.0770   48.0290 C   0  0  0  0  0  0  0  0  0  0  0  0
   63.2630   33.3690   46.7470 C   0  0  0  0  0  0  0  0  0  0  0  0
   61.9990   33.9330   46.5720 C   0  0  0  0  0  0  0  0  0  0  0  0
   61.1770   34.2080   47.6810 C   0  0  0  0  0  0  0  0  0  0  0  0
   59.8840   34.8220   47.4810 N   0  0  0  0  0  0  0  0  0  0  0  0
   59.0880   34.0070   46.5980 C   0  0  0  0  0  0  0  0  0  0  0  0
   58.5130   34.5640   45.4260 C   0  0  0  0  0  0  0  0  0  0  0  0
   57.7580   33.7690   44.5470 C   0  0  0  0  0  0  0  0  0  0  0  0
   57.5870   32.4200   44.8510 C   0  0  0  0  0  0  0  0  0  0  0  0
   58.1420   31.8790   45.9830 C   0  0  0  0  0  0  0  0  0  0  0  0
   58.8960   32.6340   46.8780 C   0  0  0  0  0  0  0  0  0  0  0  0
   57.7820   30.4840   45.9940 C   0  0  0  0  0  0  0  0  0  0  0  0
   58.1020   29.6420   46.8720 O   0  0  0  0  0  0  0  0  0  0  0  0
   57.0140   30.1940   44.8730 O   0  0  0  0  0  0  0  0  0  0  0  0
   56.8360   31.3740   44.0790 C   0  0  0  0  0  0  0  0  0  0  0  0
   59.9709   33.3422   51.7633 H   0  0  0  0  0  0  0  0  0  0  0  0
   58.8846   33.5241   50.3443 H   0  0  0  0  0  0  0  0  0  0  0  0
   60.1575   32.2567   50.3443 H   0  0  0  0  0  0  0  0  0  0  0  0
   63.2986   33.1144   50.1519 H   0  0  0  0  0  0  0  0  0  0  0  0
   64.7245   32.6333   48.1640 H   0  0  0  0  0  0  0  0  0  0  0  0
   63.8945   33.1544   45.8723 H   0  0  0  0  0  0  0  0  0  0  0  0
   61.6415   34.1649   45.5579 H   0  0  0  0  0  0  0  0  0  0  0  0
   59.3890   34.9290   48.3980 H   0  0  0  0  0  0  0  0  0  0  0  0
   59.9960   35.7870   47.0920 H   0  0  0  0  0  0  0  0  0  0  0  0
   58.6602   35.6311   45.2030 H   0  0  0  0  0  0  0  0  0  0  0  0
   57.3120   34.2019   43.6394 H   0  0  0  0  0  0  0  0  0  0  0  0
   59.3304   32.1749   47.7783 H   0  0  0  0  0  0  0  0  0  0  0  0
   57.2634   31.2420   43.0741 H   0  0  0  0  0  0  0  0  0  0  0  0
   55.7788   31.6313   43.9177 H   0  0  0  0  0  0  0  0  0  0  0  0
  1  2  1  0
  2  3  1  0
  3  4  2  0
  4  5  1  0
  5  6  2  0
  6  7  1  0
  7  8  2  0
  8  9  1  0
  9 10  1  0
 10 11  2  0
 11 12  1  0
 12 13  2  0
 13 14  1  0
 14 15  2  0
 14 16  1  0
 16 17  2  0
 16 18  1  0
 18 19  1  0
  8  3  1  0
 15 10  1  0
 19 13  1  0
  1 20  1  0
  1 21  1  0
  1 22  1  0
  4 23  1  0
  5 24  1  0
  6 25  1  0
  7 26  1  0
  9 27  1  0
  9 28  1  0
 11 29  1  0
 12 30  1  0
 15 31  1  0
 19 32  1  0
 19 33  1  0
M  CHG  1   9   1
M  END
>  <UniqueID>  (47) 
39

>  <SMILES>  (47) 
COc1ccccc1[NH2+]c1ccc2c(c1)C(=O)OC2

>  <Energy>  (47) 
60.622043492148244

>  <Genealogy>  (47) 
COc1ccccc1[NH2+]c1ccc2c(c1)C(=O)OC2 (protonated)
COc1ccccc1[NH2+]c1ccc2c(c1)C(=O)OC2 (3D coordinates assigned)
COc1ccccc1[NH2+]c1ccc2c(c1)C(=O)OC2 (nonaromatic ring conformer: 60.622043492148244 kcal/mol)

>  <smiles>  (47) 
COc1ccccc1Nc1ccc2c(c1)C(=O)OC2

>  <score_type>  (47) 
oracle

>  <origin>  (47) 
adg

>  <m_score__min__energy>  (47) 
-5.5499999999999998

>  <m_primary>  (47) 
energy

$$$$
48:0
     RDKit          3D

 53 56  0  0  0  0  0  0  0  0999 V2000
   59.5930   33.8960   53.0290 C   0  0  0  0  0  0  0  0  0  0  0  0
   58.6540   33.4510   52.0570 O   0  0  0  0  0  0  0  0  0  0  0  0
   58.9870   33.0850   50.7440 C   0  0  0  0  0  0  0  0  0  0  0  0
   59.7330   33.9210   49.8930 C   0  0  0  0  0  0  0  0  0  0  0  0
   60.0420   33.5100   48.5920 C   0  0  0  0  0  0  0  0  0  0  0  0
   59.6160   32.2570   48.1250 C   0  0  0  0  0  0  0  0  0  0  0  0
   59.9680   31.8090   46.7310 C   0  0  0  0  0  0  0  0  0  0  0  0
   58.8470   31.0870   46.1230 N   0  0  0  0  0  0  0  0  0  0  0  0
   57.9390   31.5630   45.2310 C   0  0  0  0  0  0  0  0  0  0  0  0
   57.9250   33.2470   44.6110 S   0  0  0  0  0  0  0  0  0  0  0  0
   58.0930   32.7330   42.8730 C   0  0  0  0  0  0  0  0  0  0  0  0
   57.0220   30.6400   44.8420 N   0  0  0  0  0  0  0  0  0  0  0  0
   57.3810   29.5480   45.5420 C   0  0  0  0  0  0  0  0  0  0  0  0
   56.7680   28.2980   45.5290 C   0  0  0  0  0  0  0  0  0  0  0  0
   57.3010   27.2820   46.3560 C   0  0  0  0  0  0  0  0  0  0  0  0
   56.6710   25.9390   46.3640 C   0  0  0  0  0  0  0  0  0  0  0  0
   55.4520   25.8280   46.0600 O   0  0  0  0  0  0  0  0  0  0  0  0
   57.4220   24.7680   46.7280 N   0  0  0  0  0  0  0  0  0  0  0  0
   56.8470   23.4260   46.6730 C   0  0  0  0  0  0  0  0  0  0  0  0
   56.8010   22.9360   45.2510 C   0  0  0  0  0  0  0  0  0  0  0  0
   57.6630   21.9080   44.8350 C   0  0  0  0  0  0  0  0  0  0  0  0
   57.6120   21.4350   43.5200 C   0  0  0  0  0  0  0  0  0  0  0  0
   56.6990   21.9820   42.6140 C   0  0  0  0  0  0  0  0  0  0  0  0
   55.8350   23.0020   43.0220 C   0  0  0  0  0  0  0  0  0  0  0  0
   55.8830   23.4780   44.3360 C   0  0  0  0  0  0  0  0  0  0  0  0
   58.4460   27.5600   47.1510 C   0  0  0  0  0  0  0  0  0  0  0  0
   59.0410   28.8340   47.1370 C   0  0  0  0  0  0  0  0  0  0  0  0
   58.4740   29.8090   46.3160 C   0  0  0  0  0  0  0  0  0  0  0  0
   58.8650   31.4280   48.9720 C   0  0  0  0  0  0  0  0  0  0  0  0
   58.5570   31.8400   50.2720 C   0  0  0  0  0  0  0  0  0  0  0  0
   59.1948   33.7073   54.0369 H   0  0  0  0  0  0  0  0  0  0  0  0
   60.5397   33.3508   52.9008 H   0  0  0  0  0  0  0  0  0  0  0  0
   59.7705   34.9740   52.9008 H   0  0  0  0  0  0  0  0  0  0  0  0
   60.0750   34.9027   50.2525 H   0  0  0  0  0  0  0  0  0  0  0  0
   60.6216   34.1721   47.9319 H   0  0  0  0  0  0  0  0  0  0  0  0
   60.2059   32.6903   46.1173 H   0  0  0  0  0  0  0  0  0  0  0  0
   60.8367   31.1362   46.7834 H   0  0  0  0  0  0  0  0  0  0  0  0
   58.4345   31.6882   42.8310 H   0  0  0  0  0  0  0  0  0  0  0  0
   57.1193   32.8211   42.3688 H   0  0  0  0  0  0  0  0  0  0  0  0
   58.8267   33.3791   42.3688 H   0  0  0  0  0  0  0  0  0  0  0  0
   55.8920   28.1056   44.8921 H   0  0  0  0  0  0  0  0  0  0  0  0
   58.3870   24.8650   47.1130 H   0  0  0  0  0  0  0  0  0  0  0  0
   57.4647   22.7416   47.2730 H   0  0  0  0  0  0  0  0  0  0  0  0
   55.8231   23.4585   47.0738 H   0  0  0  0  0  0  0  0  0  0  0  0
   58.3808   21.4734   45.5462 H   0  0  0  0  0  0  0  0  0  0  0  0
   58.2911   20.6317   43.1983 H   0  0  0  0  0  0  0  0  0  0  0  0
   56.6605   21.6096   41.5797 H   0  0  0  0  0  0  0  0  0  0  0  0
   55.1161   23.4310   42.3084 H   0  0  0  0  0  0  0  0  0  0  0  0
   55.1999   24.2793   44.6542 H   0  0  0  0  0  0  0  0  0  0  0  0
   58.8720   26.7686   47.7852 H   0  0  0  0  0  0  0  0  0  0  0  0
   59.9249   29.0547   47.7534 H   0  0  0  0  0  0  0  0  0  0  0  0
   58.5168   30.4489   48.6113 H   0  0  0  0  0  0  0  0  0  0  0  0
   57.9718   31.1799   50.9292 H   0  0  0  0  0  0  0  0  0  0  0  0
  1  2  1  0
  2  3  1  0
  3  4  2  0
  4  5  1  0
  5  6  2  0
  6  7  1  0
  7  8  1  0
  8  9  1  0
  9 10  1  0
 10 11  1  0
  9 12  2  0
 12 13  1  0
 13 14  2  0
 14 15  1  0
 15 16  1  0
 16 17  2  0
 16 18  1  0
 18 19  1  0
 19 20  1  0
 20 21  2  0
 21 22  1  0
 22 23  2  0
 23 24  1  0
 24 25  2  0
 15 26  2  0
 26 27  1  0
 27 28  2  0
  6 29  1  0
 29 30  2  0
 30  3  1  0
 28  8  1  0
 28 13  1  0
 25 20  1  0
  1 31  1  0
  1 32  1  0
  1 33  1  0
  4 34  1  0
  5 35  1  0
  7 36  1  0
  7 37  1  0
 11 38  1  0
 11 39  1  0
 11 40  1  0
 14 41  1  0
 18 42  1  0
 19 43  1  0
 19 44  1  0
 21 45  1  0
 22 46  1  0
 23 47  1  0
 24 48  1  0
 25 49  1  0
 26 50  1  0
 27 51  1  0
 29 52  1  0
 30 53  1  0
M  END
>  <UniqueID>  (48) 
40

>  <SMILES>  (48) 
COc1ccc(Cn2c(SC)nc3cc(C(=O)NCc4ccccc4)ccc32)cc1

>  <Energy>  (48) 
88.16624775678811

>  <Genealogy>  (48) 
COc1ccc(Cn2c(SC)nc3cc(C(=O)NCc4ccccc4)ccc32)cc1 (3D coordinates assigned)
COc1ccc(Cn2c(SC)nc3cc(C(=O)NCc4ccccc4)ccc32)cc1 (optimized conformer: 88.16624775678811 kcal/mol)

>  <smiles>  (48) 
COc1ccc(Cn2c(SC)nc3cc(C(=O)NCc4ccccc4)ccc32)cc1

>  <score_type>  (48) 
oracle

>  <origin>  (48) 
adg

>  <m_score__min__energy>  (48) 
-8.5

>  <m_primary>  (48) 
energy

$$$$
49:0
     RDKit          3D

 20 21  0  0  0  0  0  0  0  0999 V2000
   57.7440   32.3410   41.2510 C   0  0  0  0  0  0  0  0  0  0  0  0
   57.8430   32.3450   42.7460 C   0  0  0  0  0  0  0  0  0  0  0  0
   58.4130   33.3870   43.3450 O   0  0  0  0  0  0  0  0  0  0  0  0
   58.5460   33.4800   44.6640 C   0  0  0  0  0  0  0  0  0  0  0  0
   59.1570   34.6090   45.2210 C   0  0  0  0  0  0  0  0  0  0  0  0
   59.3030   34.7180   46.6060 C   0  0  0  0  0  0  0  0  0  0  0  0
   58.8370   33.6990   47.4430 C   0  0  0  0  0  0  0  0  0  0  0  0
   58.2250   32.5650   46.8980 C   0  0  0  0  0  0  0  0  0  0  0  0
   58.0730   32.4470   45.5040 C   0  0  0  0  0  0  0  0  0  0  0  0
   57.4660   31.3300   44.9080 C   0  0  0  0  0  0  0  0  0  0  0  0
   57.0270   30.3820   45.6160 O   0  0  0  0  0  0  0  0  0  0  0  0
   57.3450   31.2740   43.5130 C   0  0  0  0  0  0  0  0  0  0  0  0
   56.5840   29.8770   42.7500 Cl  0  0  0  0  0  0  0  0  0  0  0  0
   56.6858   32.2982   40.9537 H   0  0  0  0  0  0  0  0  0  0  0  0
   58.2005   33.2583   40.8508 H   0  0  0  0  0  0  0  0  0  0  0  0
   58.2730   31.4635   40.8508 H   0  0  0  0  0  0  0  0  0  0  0  0
   59.5235   35.4132   44.5661 H   0  0  0  0  0  0  0  0  0  0  0  0
   59.7853   35.6068   47.0390 H   0  0  0  0  0  0  0  0  0  0  0  0
   58.9520   33.7894   48.5332 H   0  0  0  0  0  0  0  0  0  0  0  0
   57.8623   31.7648   47.5599 H   0  0  0  0  0  0  0  0  0  0  0  0
  1  2  1  0
  2  3  1  0
  3  4  1  0
  4  5  2  0
  5  6  1  0
  6  7  2  0
  7  8  1  0
  8  9  2  0
  9 10  1  0
 10 11  2  0
 10 12  1  0
 12 13  1  0
 12  2  2  0
  9  4  1  0
  1 14  1  0
  1 15  1  0
  1 16  1  0
  5 17  1  0
  6 18  1  0
  7 19  1  0
  8 20  1  0
M  END
>  <UniqueID>  (49) 
41

>  <SMILES>  (49) 
Cc1oc2ccccc2c(=O)c1Cl

>  <Energy>  (49) 
25.988546896936484

>  <Genealogy>  (49) 
Cc1oc2ccccc2c(=O)c1Cl (3D coordinates assigned)
Cc1oc2ccccc2c(=O)c1Cl (optimized conformer: 25.988546896936484 kcal/mol)

>  <smiles>  (49) 
Cc1oc2ccccc2c(=O)c1Cl

>  <score_type>  (49) 
oracle

>  <origin>  (49) 
adg

>  <m_score__min__energy>  (49) 
-6.29

>  <m_primary>  (49) 
energy

$$$$
50:0
     RDKit          3D

 34 36  0  0  1  0  0  0  0  0999 V2000
   59.3720   26.5020   46.3730 F   0  0  0  0  0  0  0  0  0  0  0  0
   58.7260   27.6250   46.0020 C   0  0  0  0  0  0  0  0  0  0  0  0
   57.6850   27.5010   45.0990 C   0  0  0  0  0  0  0  0  0  0  0  0
   57.0450   28.6310   44.7330 N   0  0  0  0  0  0  0  0  0  0  0  0
   57.4030   29.8350   45.2260 C   0  0  0  0  0  0  0  0  0  0  0  0
   56.7800   30.9030   44.8650 N   0  0  0  0  0  0  0  0  0  0  0  0
   60.4990   30.2550   47.8260 C   0  0  0  0  0  0  0  0  0  0  0  0
   61.4950   30.8860   47.0750 C   0  0  0  0  0  0  0  0  0  0  0  0
   58.0630   34.0550   46.4310 C   0  0  0  0  0  0  0  0  0  0  0  0
   58.7650   34.5020   45.3350 C   0  0  0  0  0  0  0  0  0  0  0  0
   58.8330   33.8340   44.1380 C   0  0  0  0  0  0  0  0  0  0  0  0
   60.0270   30.8330   48.9830 C   0  0  0  0  0  0  0  0  0  0  0  0
   58.4110   29.9920   46.1060 N   0  0  0  0  0  0  0  0  0  0  0  0
   59.0680   28.8810   46.4900 C   0  0  0  0  0  0  0  0  0  0  0  0
   60.0230   29.0130   47.3200 N   0  0  0  0  0  0  0  0  0  0  0  0
   57.4470   32.1470   45.0760 C   0  0  0  0  0  0  0  0  0  0  0  0
   57.3940   32.8360   46.2670 C   0  0  0  0  0  0  0  0  0  0  0  0
   62.0410   32.0950   47.4560 C   0  0  0  0  0  0  0  0  0  0  0  0
   61.5560   32.6730   48.6320 C   0  0  0  0  0  0  0  0  0  0  0  0
   62.2230   34.2190   49.1600 Cl  0  0  0  0  0  0  0  0  0  0  0  0
   60.5630   32.0480   49.3830 C   0  0  0  0  0  0  0  0  0  0  0  0
   58.1690   32.6340   43.9880 C   0  0  0  0  0  0  0  0  0  0  0  0
   57.3910   26.5207   44.6958 H   0  0  0  0  0  0  0  0  0  0  0  0
   56.2540   28.5610   44.0510 H   0  0  0  0  0  0  0  0  0  0  0  0
   61.8541   30.4048   46.1533 H   0  0  0  0  0  0  0  0  0  0  0  0
   58.0296   34.6189   47.3749 H   0  0  0  0  0  0  0  0  0  0  0  0
   59.3062   35.4555   45.4240 H   0  0  0  0  0  0  0  0  0  0  0  0
   59.4136   34.2530   43.3030 H   0  0  0  0  0  0  0  0  0  0  0  0
   59.2421   30.3420   49.5770 H   0  0  0  0  0  0  0  0  0  0  0  0
   58.6570   30.9400   46.4640 H   0  0  0  0  0  0  0  0  0  0  0  0
   56.8152   32.4210   47.1053 H   0  0  0  0  0  0  0  0  0  0  0  0
   62.8252   32.5831   46.8588 H   0  0  0  0  0  0  0  0  0  0  0  0
   60.1993   32.5244   50.3054 H   0  0  0  0  0  0  0  0  0  0  0  0
   58.2082   32.0789   43.0392 H   0  0  0  0  0  0  0  0  0  0  0  0
  1  2  1  0
  2  3  2  0
  3  4  1  0
  4  5  1  0
  5  6  2  0
  6  7  1  0
  7  8  2  0
  8  9  1  0
  9 10  2  0
 10 11  1  0
 11 12  2  0
  5 13  1  0
 13 14  1  0
 14 15  2  0
 15 16  1  0
 16 17  2  0
 17 18  1  0
 18 19  2  0
 19 20  1  0
 19 21  1  0
 21 22  2  0
 14  2  1  0
 22 16  1  0
 12  7  1  0
  3 23  1  0
  4 24  1  0
  8 25  1  0
  9 26  1  0
 10 27  1  0
 11 28  1  0
 12 29  1  0
 13 30  1  0
 17 31  1  0
 18 32  1  0
 21 33  1  0
 22 34  1  0
M  END
>  <smiles>  (50) 
Fc1c[nH]c(=Nc2ccccc2)[nH]c1=Nc1ccc(Cl)cc1

>  <score_type>  (50) 
oracle

>  <origin>  (50) 
adg

>  <m_score__min__energy>  (50) 
-7.5999999999999996

>  <m_primary>  (50) 
energy

$$$$
51:0
     RDKit          3D

 43 46  0  0  0  0  0  0  0  0999 V2000
   58.7850   30.3600   50.4730 O   0  0  0  0  0  0  0  0  0  0  0  0
   60.0110   29.6900   49.9130 S   0  0  0  0  0  0  0  0  0  0  0  0
   60.4160   28.5890   50.8540 O   0  0  0  0  0  0  0  0  0  0  0  0
   59.6310   28.9780   48.3470 C   0  0  0  0  0  0  0  0  0  0  0  0
   60.4650   27.9900   47.8120 C   0  0  0  0  0  0  0  0  0  0  0  0
   60.1850   27.4370   46.5600 C   0  0  0  0  0  0  0  0  0  0  0  0
   59.0730   27.8710   45.8340 C   0  0  0  0  0  0  0  0  0  0  0  0
   58.2300   28.8670   46.3540 C   0  0  0  0  0  0  0  0  0  0  0  0
   57.0580   29.3340   45.5840 C   0  0  0  0  0  0  0  0  0  0  0  0
   56.8980   30.5880   45.1210 N   0  0  0  0  0  0  0  0  0  0  0  0
   55.7320   30.5720   44.4970 N   0  0  0  0  0  0  0  0  0  0  0  0
   55.2010   29.3630   44.5730 N   0  0  0  0  0  0  0  0  0  0  0  0
   56.0080   28.5600   45.2490 N   0  0  0  0  0  0  0  0  0  0  0  0
   58.5170   29.4180   47.6160 C   0  0  0  0  0  0  0  0  0  0  0  0
   61.3340   30.8230   49.7410 N   0  0  0  0  0  0  0  0  0  0  0  0
   61.9160   30.8440   48.3980 C   0  0  0  0  0  0  0  0  0  0  0  0
   60.9630   31.4000   47.3360 C   0  0  0  0  0  0  0  0  0  0  0  0
   60.0980   32.5070   47.7980 N   0  0  0  0  0  0  0  0  0  0  0  0
   59.2130   33.1580   46.8300 C   0  0  0  0  0  0  0  0  0  0  0  0
   57.8070   32.9880   46.8890 C   0  0  0  0  0  0  0  0  0  0  0  0
   56.9670   33.6110   45.9620 C   0  0  0  0  0  0  0  0  0  0  0  0
   57.5010   34.4110   44.9540 C   0  0  0  0  0  0  0  0  0  0  0  0
   58.8800   34.5890   44.8690 C   0  0  0  0  0  0  0  0  0  0  0  0
   59.7290   33.9720   45.7910 C   0  0  0  0  0  0  0  0  0  0  0  0
   59.9980   32.8870   49.2250 C   0  0  0  0  0  0  0  0  0  0  0  0
   60.9860   32.1800   50.1660 C   0  0  0  0  0  0  0  0  0  0  0  0
   61.3435   27.6478   48.3787 H   0  0  0  0  0  0  0  0  0  0  0  0
   60.8415   26.6581   46.1449 H   0  0  0  0  0  0  0  0  0  0  0  0
   58.8564   27.4303   44.8497 H   0  0  0  0  0  0  0  0  0  0  0  0
   57.8639   30.1989   48.0326 H   0  0  0  0  0  0  0  0  0  0  0  0
   62.8201   31.4702   48.4186 H   0  0  0  0  0  0  0  0  0  0  0  0
   62.1405   29.8029   48.1228 H   0  0  0  0  0  0  0  0  0  0  0  0
   61.5667   31.7664   46.4926 H   0  0  0  0  0  0  0  0  0  0  0  0
   60.2897   30.5746   47.0613 H   0  0  0  0  0  0  0  0  0  0  0  0
   57.3704   32.3561   47.6764 H   0  0  0  0  0  0  0  0  0  0  0  0
   55.8782   33.4690   46.0285 H   0  0  0  0  0  0  0  0  0  0  0  0
   56.8357   34.9005   44.2275 H   0  0  0  0  0  0  0  0  0  0  0  0
   59.3025   35.2185   44.0720 H   0  0  0  0  0  0  0  0  0  0  0  0
   60.8159   34.1204   45.7092 H   0  0  0  0  0  0  0  0  0  0  0  0
   60.1731   33.9703   49.3008 H   0  0  0  0  0  0  0  0  0  0  0  0
   58.9942   32.5776   49.5515 H   0  0  0  0  0  0  0  0  0  0  0  0
   61.9088   32.7768   50.2128 H   0  0  0  0  0  0  0  0  0  0  0  0
   60.4922   32.0938   51.1452 H   0  0  0  0  0  0  0  0  0  0  0  0
  1  2  2  0
  2  3  2  0
  2  4  1  0
  4  5  2  0
  5  6  1  0
  6  7  2  0
  7  8  1  0
  8  9  1  0
  9 10  1  0
 10 11  2  0
 11 12  1  0
 12 13  1  0
  8 14  2  0
  2 15  1  0
 15 16  1  0
 16 17  1  0
 17 18  1  0
 18 19  1  0
 19 20  2  0
 20 21  1  0
 21 22  2  0
 22 23  1  0
 23 24  2  0
 18 25  1  0
 25 26  1  0
 14  4  1  0
 26 15  1  0
 13  9  2  0
 24 19  1  0
  5 27  1  0
  6 28  1  0
  7 29  1  0
 14 30  1  0
 16 31  1  0
 16 32  1  0
 17 33  1  0
 17 34  1  0
 20 35  1  0
 21 36  1  0
 22 37  1  0
 23 38  1  0
 24 39  1  0
 25 40  1  0
 25 41  1  0
 26 42  1  0
 26 43  1  0
M  CHG  1  12  -1
M  END
>  <UniqueID>  (51) 
42

>  <SMILES>  (51) 
O=S(=O)(c1cccc(-c2nn[n-]n2)c1)N1CCN(c2ccccc2)CC1

>  <Energy>  (51) 
95.6755078418666

>  <Genealogy>  (51) 
O=S(=O)(c1cccc(-c2nn[n-]n2)c1)N1CCN(c2ccccc2)CC1 (protonated)
O=S(=O)(c1cccc(-c2nn[n-]n2)c1)N1CCN(c2ccccc2)CC1 (3D coordinates assigned)
O=S(=O)(c1cccc(-c2nn[n-]n2)c1)N1CCN(c2ccccc2)CC1 (nonaromatic ring conformer: 95.6755078418666 kcal/mol)

>  <smiles>  (51) 
O=S(=O)(c1cccc(-c2nn[nH]n2)c1)N1CCN(c2ccccc2)CC1

>  <score_type>  (51) 
oracle

>  <origin>  (51) 
adg

>  <m_score__min__energy>  (51) 
-10.56

>  <m_primary>  (51) 
energy

$$$$
52:0
     RDKit          3D

 32 33  0  0  0  0  0  0  0  0999 V2000
   53.4810   26.5250   45.9980 H   0  0  0  0  0  0  0  0  0  0  0  0
   54.3170   25.9240   45.8260 N   0  0  0  0  0  0  0  0  0  0  0  0
   55.5140   26.3420   46.0810 C   0  0  0  0  0  0  0  0  0  0  0  0
   55.9200   27.5480   45.6100 N   0  0  0  0  0  0  0  0  0  0  0  0
   57.1720   28.0240   45.8550 C   0  0  0  0  0  0  0  0  0  0  0  0
   57.5590   29.3110   45.3400 N   0  0  0  0  0  0  0  0  0  0  0  0
   58.0770   29.9830   45.9480 H   0  0  0  0  0  0  0  0  0  0  0  0
   57.2020   29.7620   43.9950 C   0  0  0  0  0  0  0  0  0  0  0  0
   58.0898   29.6973   43.3488 H   0  0  0  0  0  0  0  0  0  0  0  0
   56.3952   29.1168   43.6172 H   0  0  0  0  0  0  0  0  0  0  0  0
   56.6950   31.2140   44.0040 C   0  0  0  0  0  0  0  0  0  0  0  0
   55.8897   31.3067   43.2604 H   0  0  0  0  0  0  0  0  0  0  0  0
   56.3457   31.4294   45.0246 H   0  0  0  0  0  0  0  0  0  0  0  0
   57.7870   32.2450   43.6710 C   0  0  0  0  0  0  0  0  0  0  0  0
   58.6769   31.7129   43.3035 H   0  0  0  0  0  0  0  0  0  0  0  0
   57.3864   32.9279   42.9073 H   0  0  0  0  0  0  0  0  0  0  0  0
   58.1750   33.0690   44.8730 C   0  0  0  0  0  0  0  0  0  0  0  0
   58.9980   34.1980   44.7250 C   0  0  0  0  0  0  0  0  0  0  0  0
   59.3468   34.4951   43.7249 H   0  0  0  0  0  0  0  0  0  0  0  0
   59.3750   34.9450   45.8450 C   0  0  0  0  0  0  0  0  0  0  0  0
   60.0181   35.8292   45.7243 H   0  0  0  0  0  0  0  0  0  0  0  0
   58.9360   34.5700   47.1180 C   0  0  0  0  0  0  0  0  0  0  0  0
   59.2318   35.1604   47.9978 H   0  0  0  0  0  0  0  0  0  0  0  0
   58.1220   33.4460   47.2730 C   0  0  0  0  0  0  0  0  0  0  0  0
   57.7790   33.1507   48.2756 H   0  0  0  0  0  0  0  0  0  0  0  0
   57.7420   32.6950   46.1560 C   0  0  0  0  0  0  0  0  0  0  0  0
   57.1023   31.8091   46.2825 H   0  0  0  0  0  0  0  0  0  0  0  0
   58.0650   27.2470   46.6160 C   0  0  0  0  0  0  0  0  0  0  0  0
   59.7090   27.7860   46.9570 Cl  0  0  0  0  0  0  0  0  0  0  0  0
   57.6240   26.0050   47.0920 C   0  0  0  0  0  0  0  0  0  0  0  0
   58.3890   25.2740   47.7750 O   0  0  0  0  0  0  0  0  0  0  0  0
   56.3640   25.5810   46.8170 N   0  0  0  0  0  0  0  0  0  0  0  0
  1  2  1  0
  2  3  2  0
  3  4  1  0
  4  5  1  0
  5  6  1  0
  6  7  1  0
  6  8  1  0
  8  9  1  0
  8 10  1  0
  8 11  1  0
 11 12  1  0
 11 13  1  0
 11 14  1  0
 14 15  1  0
 14 16  1  0
 14 17  1  0
 17 18  2  0
 18 19  1  0
 18 20  1  0
 20 21  1  0
 20 22  2  0
 22 23  1  0
 22 24  1  0
 24 25  1  0
 24 26  2  0
 26 27  1  0
  5 28  2  0
 28 29  1  0
 28 30  1  0
 30 31  2  0
 30 32  1  0
 32  3  1  0
 26 17  1  0
M  CHG  2   4  -1  32  -1
M  END
>  <UniqueID>  (52) 
43

>  <SMILES>  (52) 
[H]/N=c1/[n-]c(NCCCc2ccccc2)c(Cl)c(=O)[n-]1

>  <Energy>  (52) 
28.579098991581773

>  <Genealogy>  (52) 
N=c1[n-]c(NCCCc2ccccc2)c(Cl)c(=O)[n-]1 (protonated)
[H]/N=c1/[n-]c(NCCCc2ccccc2)c(Cl)c(=O)[n-]1 (cis-trans isomerization)
[H]/N=c1/[n-]c(NCCCc2ccccc2)c(Cl)c(=O)[n-]1 (3D coordinates assigned)
[H]/N=c1/[n-]c(NCCCc2ccccc2)c(Cl)c(=O)[n-]1 (optimized conformer: 28.579098991581773 kcal/mol)

>  <smiles>  (52) 
N=c1[nH]c(NCCCc2ccccc2)c(Cl)c(=O)[nH]1

>  <score_type>  (52) 
oracle

>  <origin>  (52) 
adg

>  <m_score__min__energy>  (52) 
-11.15

>  <m_primary>  (52) 
energy

$$$$
53:0
     RDKit          3D

 67 70  0  0  0  0  0  0  0  0999 V2000
   64.0830   29.8250   52.7250 C   0  0  0  0  0  0  0  0  0  0  0  0
   63.1430   30.1550   51.6420 N   0  0  0  0  0  0  0  0  0  0  0  0
   63.7510   30.9230   50.5270 C   0  0  0  0  0  0  0  0  0  0  0  0
   62.7960   31.8580   49.8030 C   0  0  0  0  0  0  0  0  0  0  0  0
   62.8850   31.9960   48.4050 C   0  0  0  0  0  0  0  0  0  0  0  0
   62.0300   32.8580   47.7160 C   0  0  0  0  0  0  0  0  0  0  0  0
   61.0820   33.6110   48.4130 C   0  0  0  0  0  0  0  0  0  0  0  0
   60.2020   34.5010   47.7030 C   0  0  0  0  0  0  0  0  0  0  0  0
   59.4940   35.2160   47.1300 N   0  0  0  0  0  0  0  0  0  0  0  0
   61.0030   33.5100   49.8060 C   0  0  0  0  0  0  0  0  0  0  0  0
   61.8620   32.6480   50.5060 C   0  0  0  0  0  0  0  0  0  0  0  0
   61.7990   32.5960   51.8960 O   0  0  0  0  0  0  0  0  0  0  0  0
   62.3510   28.9850   51.2130 C   0  0  0  0  0  0  0  0  0  0  0  0
   60.8620   29.3040   51.2360 C   0  0  0  0  0  0  0  0  0  0  0  0
   60.0420   29.0960   50.1010 C   0  0  0  0  0  0  0  0  0  0  0  0
   60.5940   28.5650   48.7950 C   0  0  0  0  0  0  0  0  0  0  0  0
   59.9400   27.3280   48.3790 N   0  0  0  0  0  0  0  0  0  0  0  0
   59.1900   27.0500   47.1830 C   0  0  0  0  0  0  0  0  0  0  0  0
   59.3300   25.9090   46.6660 O   0  0  0  0  0  0  0  0  0  0  0  0
   58.3050   28.0210   46.4860 C   0  0  0  0  0  0  0  0  0  0  0  0
   57.0230   27.7210   46.0460 C   0  0  0  0  0  0  0  0  0  0  0  0
   56.5450   28.8600   45.4390 C   0  0  0  0  0  0  0  0  0  0  0  0
   55.2820   28.9810   44.8720 O   0  0  0  0  0  0  0  0  0  0  0  0
   57.4640   29.8450   45.4770 N   0  0  0  0  0  0  0  0  0  0  0  0
   57.3670   31.2090   44.9370 C   0  0  0  0  0  0  0  0  0  0  0  0
   57.7980   32.2550   45.9840 C   0  0  0  0  0  0  0  0  0  0  0  0
   57.6800   33.6740   45.4110 C   0  0  0  0  0  0  0  0  0  0  0  0
   58.4930   33.8140   44.1150 C   0  0  0  0  0  0  0  0  0  0  0  0
   58.0660   32.7680   43.0770 C   0  0  0  0  0  0  0  0  0  0  0  0
   58.1870   31.3470   43.6440 C   0  0  0  0  0  0  0  0  0  0  0  0
   58.5310   29.3480   46.1390 C   0  0  0  0  0  0  0  0  0  0  0  0
   58.7260   29.4180   50.1680 N   0  0  0  0  0  0  0  0  0  0  0  0
   58.1550   29.9060   51.2940 C   0  0  0  0  0  0  0  0  0  0  0  0
   56.9230   30.1770   51.2830 O   0  0  0  0  0  0  0  0  0  0  0  0
   58.9100   30.1080   52.4180 N   0  0  0  0  0  0  0  0  0  0  0  0
   58.2960   30.6770   53.6290 C   0  0  0  0  0  0  0  0  0  0  0  0
   60.2590   29.8590   52.3850 C   0  0  0  0  0  0  0  0  0  0  0  0
   60.9720   30.1460   53.3860 O   0  0  0  0  0  0  0  0  0  0  0  0
   63.5970   29.9956   53.6970 H   0  0  0  0  0  0  0  0  0  0  0  0
   64.3798   28.7689   52.6438 H   0  0  0  0  0  0  0  0  0  0  0  0
   64.9748   30.4638   52.6438 H   0  0  0  0  0  0  0  0  0  0  0  0
   64.5757   31.5253   50.9358 H   0  0  0  0  0  0  0  0  0  0  0  0
   64.0820   30.1820   49.7844 H   0  0  0  0  0  0  0  0  0  0  0  0
   63.6373   31.4176   47.8487 H   0  0  0  0  0  0  0  0  0  0  0  0
   62.1029   32.9445   46.6218 H   0  0  0  0  0  0  0  0  0  0  0  0
   60.2632   34.1098   50.3564 H   0  0  0  0  0  0  0  0  0  0  0  0
   61.8680   31.7190   52.3980 H   0  0  0  0  0  0  0  0  0  0  0  0
   62.6445   28.7058   50.1903 H   0  0  0  0  0  0  0  0  0  0  0  0
   62.5449   28.1536   51.9066 H   0  0  0  0  0  0  0  0  0  0  0  0
   60.4447   29.3242   48.0132 H   0  0  0  0  0  0  0  0  0  0  0  0
   61.6617   28.3471   48.9449 H   0  0  0  0  0  0  0  0  0  0  0  0
   56.4942   26.7632   46.1599 H   0  0  0  0  0  0  0  0  0  0  0  0
   56.3122   31.4003   44.6905 H   0  0  0  0  0  0  0  0  0  0  0  0
   57.1512   32.1678   46.8695 H   0  0  0  0  0  0  0  0  0  0  0  0
   58.8469   32.0699   46.2590 H   0  0  0  0  0  0  0  0  0  0  0  0
   56.6226   33.8888   45.1972 H   0  0  0  0  0  0  0  0  0  0  0  0
   58.0757   34.3848   46.1514 H   0  0  0  0  0  0  0  0  0  0  0  0
   58.3334   34.8193   43.6980 H   0  0  0  0  0  0  0  0  0  0  0  0
   59.5557   33.6567   44.3515 H   0  0  0  0  0  0  0  0  0  0  0  0
   57.0203   32.9526   42.7899 H   0  0  0  0  0  0  0  0  0  0  0  0
   58.7274   32.8531   42.2022 H   0  0  0  0  0  0  0  0  0  0  0  0
   57.8131   30.6279   42.9003 H   0  0  0  0  0  0  0  0  0  0  0  0
   59.2441   31.1445   43.8710 H   0  0  0  0  0  0  0  0  0  0  0  0
   59.4468   29.9118   46.3703 H   0  0  0  0  0  0  0  0  0  0  0  0
   58.7688   30.2388   54.5203 H   0  0  0  0  0  0  0  0  0  0  0  0
   58.4407   31.7674   53.6358 H   0  0  0  0  0  0  0  0  0  0  0  0
   57.2197   30.4499   53.6358 H   0  0  0  0  0  0  0  0  0  0  0  0
  1  2  1  0
  2  3  1  0
  3  4  1  0
  4  5  2  0
  5  6  1  0
  6  7  2  0
  7  8  1  0
  8  9  3  0
  7 10  1  0
 10 11  2  0
 11 12  1  0
  2 13  1  0
 13 14  1  0
 14 15  2  0
 15 16  1  0
 16 17  1  0
 17 18  1  0
 18 19  2  0
 18 20  1  0
 20 21  1  0
 21 22  2  0
 22 23  1  0
 22 24  1  0
 24 25  1  0
 25 26  1  0
 26 27  1  0
 27 28  1  0
 28 29  1  0
 29 30  1  0
 24 31  1  0
 15 32  1  0
 32 33  1  0
 33 34  2  0
 33 35  1  0
 35 36  1  0
 35 37  1  0
 37 38  2  0
 11  4  1  0
 37 14  1  0
 31 20  2  0
 30 25  1  0
  1 39  1  0
  1 40  1  0
  1 41  1  0
  3 42  1  0
  3 43  1  0
  5 44  1  0
  6 45  1  0
 10 46  1  0
 12 47  1  0
 13 48  1  0
 13 49  1  0
 16 50  1  0
 16 51  1  0
 21 52  1  0
 25 53  1  0
 26 54  1  0
 26 55  1  0
 27 56  1  0
 27 57  1  0
 28 58  1  0
 28 59  1  0
 29 60  1  0
 29 61  1  0
 30 62  1  0
 30 63  1  0
 31 64  1  0
 36 65  1  0
 36 66  1  0
 36 67  1  0
M  CHG  3  17  -1  23  -1  32  -1
M  END
>  <UniqueID>  (53) 
44

>  <SMILES>  (53) 
CN(Cc1ccc(C#N)cc1O)Cc1c(C[N-]C(=O)c2cc([O-])n(C3CCCCC3)c2)[n-]c(=O)n(C)c1=O

>  <Energy>  (53) 
102.77052793526522

>  <Genealogy>  (53) 
CN(Cc1ccc(C#N)cc1O)Cc1c(C[N-]C(=O)c2cc([O-])n(C3CCCCC3)c2)[n-]c(=O)n(C)c1=O (protonated)
CN(Cc1ccc(C#N)cc1O)Cc1c(C[N-]C(=O)c2cc([O-])n(C3CCCCC3)c2)[n-]c(=O)n(C)c1=O (3D coordinates assigned)
CN(Cc1ccc(C#N)cc1O)Cc1c(C[N-]C(=O)c2cc([O-])n(C3CCCCC3)c2)[n-]c(=O)n(C)c1=O (nonaromatic ring conformer: 102.77052793526522 kcal/mol)

>  <smiles>  (53) 
CN(Cc1ccc(C#N)cc1O)Cc1c(CNC(=O)c2cc(O)n(C3CCCCC3)c2)[nH]c(=O)n(C)c1=O

>  <score_type>  (53) 
oracle

>  <origin>  (53) 
adg

>  <m_score__min__energy>  (53) 
-14.789999999999999

>  <m_primary>  (53) 
energy

$$$$
54:0
     RDKit          3D

 54 57  0  0  1  0  0  0  0  0999 V2000
   56.4000   31.1900   52.2370 C   0  0  0  0  0  0  0  0  0  0  0  0
   57.0910   30.4500   51.2450 O   0  0  0  0  0  0  0  0  0  0  0  0
   58.1720   31.0580   50.6220 C   0  0  0  0  0  0  0  0  0  0  0  0
   58.5700   32.3420   51.0030 C   0  0  0  0  0  0  0  0  0  0  0  0
   59.6430   32.9450   50.3830 C   0  0  0  0  0  0  0  0  0  0  0  0
   60.2920   32.2390   49.3920 C   0  0  0  0  0  0  0  0  0  0  0  0
   61.3590   32.8650   48.7740 C   0  0  0  0  0  0  0  0  0  0  0  0
   62.0400   32.1950   47.7590 C   0  0  0  0  0  0  0  0  0  0  0  0
   61.6340   30.9180   47.3920 C   0  0  0  0  0  0  0  0  0  0  0  0
   60.5700   30.2790   48.0000 C   0  0  0  0  0  0  0  0  0  0  0  0
   60.2420   29.0170   47.5720 O   0  0  0  0  0  0  0  0  0  0  0  0
   59.1640   28.7590   46.7500 C   0  0  0  0  0  0  0  0  0  0  0  0
   58.5090   29.8670   46.2010 C   0  0  0  0  0  0  0  0  0  0  0  0
   57.4190   29.6940   45.3670 C   0  0  0  0  0  0  0  0  0  0  0  0
   56.8170   30.7210   44.8630 N   0  0  0  0  0  0  0  0  0  0  0  0
   57.4460   31.9860   45.0120 C   0  0  0  0  0  0  0  0  0  0  0  0
   57.4180   32.6210   46.2430 C   0  0  0  0  0  0  0  0  0  0  0  0
   58.0290   33.8510   46.3890 C   0  0  0  0  0  0  0  0  0  0  0  0
   58.6700   34.4660   45.3320 C   0  0  0  0  0  0  0  0  0  0  0  0
   58.7070   33.8540   44.1100 C   0  0  0  0  0  0  0  0  0  0  0  0
   58.0920   32.6250   43.9790 C   0  0  0  0  0  0  0  0  0  0  0  0
   58.1460   31.9810   42.6420 C   0  0  0  0  0  0  0  0  0  0  0  0
   56.9890   28.4700   45.0830 N   0  0  0  0  0  0  0  0  0  0  0  0
   57.6200   27.3820   45.6120 C   0  0  0  0  0  0  0  0  0  0  0  0
   57.1480   26.0740   45.2980 N   0  0  0  0  0  0  0  0  0  0  0  0
   56.2870   25.3310   46.1850 C   0  0  0  0  0  0  0  0  0  0  0  0
   57.5470   25.4510   44.0280 C   0  0  0  0  0  0  0  0  0  0  0  0
   58.6900   27.5610   46.4310 N   0  0  0  0  0  0  0  0  0  0  0  0
   59.9200   30.9700   48.9970 C   0  0  0  0  0  0  0  0  0  0  0  0
   58.8450   30.3820   49.6260 C   0  0  0  0  0  0  0  0  0  0  0  0
   56.7166   30.8509   53.2344 H   0  0  0  0  0  0  0  0  0  0  0  0
   56.6300   32.2596   52.1232 H   0  0  0  0  0  0  0  0  0  0  0  0
   55.3171   31.0337   52.1232 H   0  0  0  0  0  0  0  0  0  0  0  0
   58.0263   32.8722   51.7988 H   0  0  0  0  0  0  0  0  0  0  0  0
   59.9707   33.9554   50.6690 H   0  0  0  0  0  0  0  0  0  0  0  0
   61.6657   33.8764   49.0788 H   0  0  0  0  0  0  0  0  0  0  0  0
   62.8916   32.6732   47.2529 H   0  0  0  0  0  0  0  0  0  0  0  0
   62.1781   30.3977   46.5900 H   0  0  0  0  0  0  0  0  0  0  0  0
   58.8631   30.8820   46.4341 H   0  0  0  0  0  0  0  0  0  0  0  0
   56.9126   32.1488   47.0983 H   0  0  0  0  0  0  0  0  0  0  0  0
   58.0044   34.3514   47.3683 H   0  0  0  0  0  0  0  0  0  0  0  0
   59.1497   35.4458   45.4727 H   0  0  0  0  0  0  0  0  0  0  0  0
   59.2125   34.3275   43.2554 H   0  0  0  0  0  0  0  0  0  0  0  0
   58.2374   30.8915   42.7632 H   0  0  0  0  0  0  0  0  0  0  0  0
   57.2253   32.2122   42.0862 H   0  0  0  0  0  0  0  0  0  0  0  0
   59.0153   32.3623   42.0862 H   0  0  0  0  0  0  0  0  0  0  0  0
   56.1690   28.3720   44.4530 H   0  0  0  0  0  0  0  0  0  0  0  0
   56.5510   25.5588   47.2283 H   0  0  0  0  0  0  0  0  0  0  0  0
   55.2399   25.6137   46.0016 H   0  0  0  0  0  0  0  0  0  0  0  0
   56.4134   24.2538   46.0016 H   0  0  0  0  0  0  0  0  0  0  0  0
   58.1298   24.5410   44.2332 H   0  0  0  0  0  0  0  0  0  0  0  0
   56.6486   25.1885   43.4502 H   0  0  0  0  0  0  0  0  0  0  0  0
   58.1612   26.1573   43.4502 H   0  0  0  0  0  0  0  0  0  0  0  0
   58.5228   29.3717   49.3335 H   0  0  0  0  0  0  0  0  0  0  0  0
  1  2  1  0
  2  3  1  0
  3  4  2  0
  4  5  1  0
  5  6  2  0
  6  7  1  0
  7  8  2  0
  8  9  1  0
  9 10  2  0
 10 11  1  0
 11 12  1  0
 12 13  2  0
 13 14  1  0
 14 15  2  0
 15 16  1  0
 16 17  2  0
 17 18  1  0
 18 19  2  0
 19 20  1  0
 20 21  2  0
 21 22  1  0
 14 23  1  0
 23 24  1  0
 24 25  1  0
 25 26  1  0
 25 27  1  0
 24 28  2  0
 10 29  1  0
 29 30  2  0
 30  3  1  0
 29  6  1  0
 28 12  1  0
 21 16  1  0
  1 31  1  0
  1 32  1  0
  1 33  1  0
  4 34  1  0
  5 35  1  0
  7 36  1  0
  8 37  1  0
  9 38  1  0
 13 39  1  0
 17 40  1  0
 18 41  1  0
 19 42  1  0
 20 43  1  0
 22 44  1  0
 22 45  1  0
 22 46  1  0
 23 47  1  0
 26 48  1  0
 26 49  1  0
 26 50  1  0
 27 51  1  0
 27 52  1  0
 27 53  1  0
 30 54  1  0
M  END
>  <smiles>  (54) 
COc1ccc2cccc(Oc3cc(=Nc4ccccc4C)[nH]c(N(C)C)n3)c2c1

>  <score_type>  (54) 
oracle

>  <origin>  (54) 
adg

>  <m_score__min__energy>  (54) 
-8.8599999999999994

>  <m_primary>  (54) 
energy

$$$$
55:0
     RDKit          3D

 56 59  0  0  0  0  0  0  0  0999 V2000
   62.5900   31.4790   49.4540 O   0  0  0  0  0  0  0  0  0  0  0  0
   61.6790   32.3260   49.6730 C   0  0  0  0  0  0  0  0  0  0  0  0
   61.3720   32.6900   51.1080 C   0  0  0  0  0  0  0  0  0  0  0  0
   59.9700   32.3640   51.4610 N   0  0  0  0  0  0  0  0  0  0  0  0
   59.2490   33.5920   51.8400 C   0  0  0  0  0  0  0  0  0  0  0  0
   57.8430   33.2470   52.3640 C   0  0  0  0  0  0  0  0  0  0  0  0
   57.1450   32.2250   51.5510 N   0  0  0  0  0  0  0  0  0  0  0  0
   56.8430   30.7500   52.4410 S   0  0  0  0  0  0  0  0  0  0  0  0
   57.4930   30.8080   53.7960 O   0  0  0  0  0  0  0  0  0  0  0  0
   57.3990   29.5720   51.6930 O   0  0  0  0  0  0  0  0  0  0  0  0
   55.1040   30.5270   52.6190 C   0  0  0  0  0  0  0  0  0  0  0  0
   54.6030   29.9210   53.7770 C   0  0  0  0  0  0  0  0  0  0  0  0
   53.2310   29.7080   53.9200 C   0  0  0  0  0  0  0  0  0  0  0  0
   52.3510   30.0940   52.9060 C   0  0  0  0  0  0  0  0  0  0  0  0
   52.8360   30.7050   51.7350 C   0  0  0  0  0  0  0  0  0  0  0  0
   51.9280   31.1040   50.6940 N   0  0  0  0  0  0  0  0  0  0  0  0
   51.6960   30.3470   49.7270 O   0  0  0  0  0  0  0  0  0  0  0  0
   51.3220   32.3390   50.7310 O   0  0  0  0  0  0  0  0  0  0  0  0
   54.2210   30.9180   51.6000 C   0  0  0  0  0  0  0  0  0  0  0  0
   57.7750   31.9610   50.2450 C   0  0  0  0  0  0  0  0  0  0  0  0
   59.2830   31.6440   50.3530 C   0  0  0  0  0  0  0  0  0  0  0  0
   60.9320   32.8730   48.5640 N   0  0  0  0  0  0  0  0  0  0  0  0
   60.3620   34.2250   48.7130 C   0  0  0  0  0  0  0  0  0  0  0  0
   60.0400   34.8620   47.3600 C   0  0  0  0  0  0  0  0  0  0  0  0
   59.2110   33.9260   46.5370 C   0  0  0  0  0  0  0  0  0  0  0  0
   58.1780   34.4070   45.7190 C   0  0  0  0  0  0  0  0  0  0  0  0
   57.4420   33.5220   44.9270 C   0  0  0  0  0  0  0  0  0  0  0  0
   57.7450   32.1580   44.9350 C   0  0  0  0  0  0  0  0  0  0  0  0
   58.7840   31.6760   45.7370 C   0  0  0  0  0  0  0  0  0  0  0  0
   59.5150   32.5550   46.5500 C   0  0  0  0  0  0  0  0  0  0  0  0
   60.6690   32.0430   47.3750 C   0  0  0  0  0  0  0  0  0  0  0  0
   62.0475   32.1301   51.7715 H   0  0  0  0  0  0  0  0  0  0  0  0
   61.5160   33.7739   51.2284 H   0  0  0  0  0  0  0  0  0  0  0  0
   59.9960   31.7430   52.3060 H   0  0  0  0  0  0  0  0  0  0  0  0
   59.8116   34.1144   52.6278 H   0  0  0  0  0  0  0  0  0  0  0  0
   59.1521   34.2373   50.9545 H   0  0  0  0  0  0  0  0  0  0  0  0
   57.9377   32.8688   53.3926 H   0  0  0  0  0  0  0  0  0  0  0  0
   57.2430   34.1675   52.3121 H   0  0  0  0  0  0  0  0  0  0  0  0
   55.2924   29.6118   54.5765 H   0  0  0  0  0  0  0  0  0  0  0  0
   52.8416   29.2349   54.8336 H   0  0  0  0  0  0  0  0  0  0  0  0
   51.2714   29.9191   53.0239 H   0  0  0  0  0  0  0  0  0  0  0  0
   54.6141   31.3942   50.6897 H   0  0  0  0  0  0  0  0  0  0  0  0
   57.2692   31.1023   49.7794 H   0  0  0  0  0  0  0  0  0  0  0  0
   57.6743   32.8750   49.6413 H   0  0  0  0  0  0  0  0  0  0  0  0
   59.3993   30.5626   50.5173 H   0  0  0  0  0  0  0  0  0  0  0  0
   59.7492   31.9795   49.4149 H   0  0  0  0  0  0  0  0  0  0  0  0
   59.4362   34.1573   49.3033 H   0  0  0  0  0  0  0  0  0  0  0  0
   61.1092   34.8557   49.2169 H   0  0  0  0  0  0  0  0  0  0  0  0
   59.4826   35.7965   47.5209 H   0  0  0  0  0  0  0  0  0  0  0  0
   60.9794   35.0743   46.8285 H   0  0  0  0  0  0  0  0  0  0  0  0
   57.9471   35.4823   45.7010 H   0  0  0  0  0  0  0  0  0  0  0  0
   56.6233   33.8994   44.2966 H   0  0  0  0  0  0  0  0  0  0  0  0
   57.1656   31.4627   44.3098 H   0  0  0  0  0  0  0  0  0  0  0  0
   59.0291   30.6037   45.7304 H   0  0  0  0  0  0  0  0  0  0  0  0
   60.4386   31.0192   47.7048 H   0  0  0  0  0  0  0  0  0  0  0  0
   61.5686   32.0747   46.7427 H   0  0  0  0  0  0  0  0  0  0  0  0
  1  2  2  0
  2  3  1  0
  3  4  1  0
  4  5  1  0
  5  6  1  0
  6  7  1  0
  7  8  1  0
  8  9  2  0
  8 10  2  0
  8 11  1  0
 11 12  2  0
 12 13  1  0
 13 14  2  0
 14 15  1  0
 15 16  1  0
 16 17  2  0
 16 18  1  0
 15 19  2  0
  7 20  1  0
 20 21  1  0
  2 22  1  0
 22 23  1  0
 23 24  1  0
 24 25  1  0
 25 26  2  0
 26 27  1  0
 27 28  2  0
 28 29  1  0
 29 30  2  0
 30 31  1  0
 21  4  1  0
 31 22  1  0
 19 11  1  0
 30 25  1  0
  3 32  1  0
  3 33  1  0
  4 34  1  0
  5 35  1  0
  5 36  1  0
  6 37  1  0
  6 38  1  0
 12 39  1  0
 13 40  1  0
 14 41  1  0
 19 42  1  0
 20 43  1  0
 20 44  1  0
 21 45  1  0
 21 46  1  0
 23 47  1  0
 23 48  1  0
 24 49  1  0
 24 50  1  0
 26 51  1  0
 27 52  1  0
 28 53  1  0
 29 54  1  0
 31 55  1  0
 31 56  1  0
M  CHG  3   4   1  16   1  18  -1
M  END
>  <UniqueID>  (55) 
45

>  <SMILES>  (55) 
O=C(C[NH+]1CCN(S(=O)(=O)c2cccc([N+](=O)[O-])c2)CC1)N1CCc2ccccc2C1

>  <Energy>  (55) 
75.55761615389544

>  <Genealogy>  (55) 
O=C(C[NH+]1CCN(S(=O)(=O)c2cccc([N+](=O)[O-])c2)CC1)N1CCc2ccccc2C1 (protonated)
O=C(C[NH+]1CCN(S(=O)(=O)c2cccc([N+](=O)[O-])c2)CC1)N1CCc2ccccc2C1 (3D coordinates assigned)
O=C(C[NH+]1CCN(S(=O)(=O)c2cccc([N+](=O)[O-])c2)CC1)N1CCc2ccccc2C1 (nonaromatic ring conformer: 75.55761615389544 kcal/mol)

>  <smiles>  (55) 
O=C(CN1CCN(S(=O)(=O)c2cccc([N+](=O)[O-])c2)CC1)N1CCc2ccccc2C1

>  <score_type>  (55) 
oracle

>  <origin>  (55) 
adg

>  <m_score__min__energy>  (55) 
-8.5099999999999998

>  <m_primary>  (55) 
energy

$$$$
56:0
     RDKit          3D

 57 60  0  0  0  0  0  0  0  0999 V2000
   57.0490   30.3740   45.3110 O   0  0  0  0  0  0  0  0  0  0  0  0
   58.1080   30.3700   45.9970 C   0  0  0  0  0  0  0  0  0  0  0  0
   58.4980   31.6070   46.7520 C   0  0  0  0  0  0  0  0  0  0  0  0
   59.4110   31.2790   47.8500 N   0  0  0  0  0  0  0  0  0  0  0  0
   59.0190   31.4870   49.2120 C   0  0  0  0  0  0  0  0  0  0  0  0
   58.4960   30.4170   49.9510 C   0  0  0  0  0  0  0  0  0  0  0  0
   58.1040   30.6030   51.2800 C   0  0  0  0  0  0  0  0  0  0  0  0
   58.2280   31.8600   51.8760 C   0  0  0  0  0  0  0  0  0  0  0  0
   58.7370   32.9360   51.1400 C   0  0  0  0  0  0  0  0  0  0  0  0
   59.1330   32.7560   49.8090 C   0  0  0  0  0  0  0  0  0  0  0  0
   59.7260   34.1380   48.8980 Cl  0  0  0  0  0  0  0  0  0  0  0  0
   60.9840   30.6270   47.5140 S   0  0  0  0  0  0  0  0  0  0  0  0
   61.1600   30.4780   46.0280 O   0  0  0  0  0  0  0  0  0  0  0  0
   61.1150   29.2650   48.1370 O   0  0  0  0  0  0  0  0  0  0  0  0
   62.2170   31.6950   48.1690 C   0  0  0  0  0  0  0  0  0  0  0  0
   62.7780   32.7040   47.3690 C   0  0  0  0  0  0  0  0  0  0  0  0
   63.7290   33.5750   47.9040 C   0  0  0  0  0  0  0  0  0  0  0  0
   64.1280   33.4410   49.2390 C   0  0  0  0  0  0  0  0  0  0  0  0
   63.5700   32.4390   50.0400 C   0  0  0  0  0  0  0  0  0  0  0  0
   62.6150   31.5700   49.5080 C   0  0  0  0  0  0  0  0  0  0  0  0
   58.9690   29.2240   46.0030 N   0  0  0  0  0  0  0  0  0  0  0  0
   58.5970   27.9290   45.5030 C   0  0  0  0  0  0  0  0  0  0  0  0
   58.2700   26.9130   46.4070 C   0  0  0  0  0  0  0  0  0  0  0  0
   57.8830   25.6500   45.9510 C   0  0  0  0  0  0  0  0  0  0  0  0
   57.7920   25.3700   44.5670 C   0  0  0  0  0  0  0  0  0  0  0  0
   57.3890   24.0510   44.0850 N   0  0  0  0  0  0  0  0  0  0  0  0
   57.9460   22.8460   44.7300 C   0  0  0  0  0  0  0  0  0  0  0  0
   57.5070   21.5430   44.0640 C   0  0  0  0  0  0  0  0  0  0  0  0
   56.1520   21.6090   43.6880 O   0  0  0  0  0  0  0  0  0  0  0  0
   56.0350   22.5110   42.6150 C   0  0  0  0  0  0  0  0  0  0  0  0
   56.3240   23.9470   43.0630 C   0  0  0  0  0  0  0  0  0  0  0  0
   58.1070   26.4150   43.6650 C   0  0  0  0  0  0  0  0  0  0  0  0
   58.4950   27.6750   44.1280 C   0  0  0  0  0  0  0  0  0  0  0  0
   58.9964   32.3068   46.0651 H   0  0  0  0  0  0  0  0  0  0  0  0
   57.5904   32.0649   47.1723 H   0  0  0  0  0  0  0  0  0  0  0  0
   58.3935   29.4267   49.4833 H   0  0  0  0  0  0  0  0  0  0  0  0
   57.6977   29.7589   51.8566 H   0  0  0  0  0  0  0  0  0  0  0  0
   57.9256   32.0042   52.9237 H   0  0  0  0  0  0  0  0  0  0  0  0
   58.8263   33.9270   51.6089 H   0  0  0  0  0  0  0  0  0  0  0  0
   62.4675   32.8082   46.3189 H   0  0  0  0  0  0  0  0  0  0  0  0
   64.1647   34.3665   47.2765 H   0  0  0  0  0  0  0  0  0  0  0  0
   64.8810   34.1243   49.6586 H   0  0  0  0  0  0  0  0  0  0  0  0
   63.8836   32.3356   51.0893 H   0  0  0  0  0  0  0  0  0  0  0  0
   62.1739   30.7856   50.1406 H   0  0  0  0  0  0  0  0  0  0  0  0
   59.9630   29.3680   46.2890 H   0  0  0  0  0  0  0  0  0  0  0  0
   58.3180   27.1102   47.4881 H   0  0  0  0  0  0  0  0  0  0  0  0
   57.6453   24.8609   46.6796 H   0  0  0  0  0  0  0  0  0  0  0  0
   59.0437   22.9052   44.6903 H   0  0  0  0  0  0  0  0  0  0  0  0
   57.5675   22.8263   45.7626 H   0  0  0  0  0  0  0  0  0  0  0  0
   58.1223   21.3698   43.1688 H   0  0  0  0  0  0  0  0  0  0  0  0
   57.6357   20.7184   44.7806 H   0  0  0  0  0  0  0  0  0  0  0  0
   56.7520   22.2292   41.8298 H   0  0  0  0  0  0  0  0  0  0  0  0
   55.0041   22.4663   42.2339 H   0  0  0  0  0  0  0  0  0  0  0  0
   56.6306   24.5300   42.1821 H   0  0  0  0  0  0  0  0  0  0  0  0
   55.4011   24.3313   43.5219 H   0  0  0  0  0  0  0  0  0  0  0  0
   58.0453   26.2320   42.5821 H   0  0  0  0  0  0  0  0  0  0  0  0
   58.7224   28.4745   43.4075 H   0  0  0  0  0  0  0  0  0  0  0  0
  1  2  2  0
  2  3  1  0
  3  4  1  0
  4  5  1  0
  5  6  2  0
  6  7  1  0
  7  8  2  0
  8  9  1  0
  9 10  2  0
 10 11  1  0
  4 12  1  0
 12 13  2  0
 12 14  2  0
 12 15  1  0
 15 16  2  0
 16 17  1  0
 17 18  2  0
 18 19  1  0
 19 20  2  0
  2 21  1  0
 21 22  1  0
 22 23  2  0
 23 24  1  0
 24 25  2  0
 25 26  1  0
 26 27  1  0
 27 28  1  0
 28 29  1  0
 29 30  1  0
 30 31  1  0
 25 32  1  0
 32 33  2  0
 10  5  1  0
 20 15  1  0
 33 22  1  0
 31 26  1  0
  3 34  1  0
  3 35  1  0
  6 36  1  0
  7 37  1  0
  8 38  1  0
  9 39  1  0
 16 40  1  0
 17 41  1  0
 18 42  1  0
 19 43  1  0
 20 44  1  0
 21 45  1  0
 23 46  1  0
 24 47  1  0
 27 48  1  0
 27 49  1  0
 28 50  1  0
 28 51  1  0
 30 52  1  0
 30 53  1  0
 31 54  1  0
 31 55  1  0
 32 56  1  0
 33 57  1  0
M  END
>  <UniqueID>  (56) 
46

>  <SMILES>  (56) 
O=C(CN(c1ccccc1Cl)S(=O)(=O)c1ccccc1)Nc1ccc(N2CCOCC2)cc1

>  <Energy>  (56) 
74.81674743668017

>  <Genealogy>  (56) 
O=C(CN(c1ccccc1Cl)S(=O)(=O)c1ccccc1)Nc1ccc(N2CCOCC2)cc1 (3D coordinates assigned)
O=C(CN(c1ccccc1Cl)S(=O)(=O)c1ccccc1)Nc1ccc(N2CCOCC2)cc1 (nonaromatic ring conformer: 74.81674743668017 kcal/mol)

>  <smiles>  (56) 
O=C(CN(c1ccccc1Cl)S(=O)(=O)c1ccccc1)Nc1ccc(N2CCOCC2)cc1

>  <score_type>  (56) 
oracle

>  <origin>  (56) 
adg

>  <m_score__min__energy>  (56) 
-9.1899999999999995

>  <m_primary>  (56) 
energy

$$$$
57:0
     RDKit          3D

 37 38  0  0  0  0  0  0  0  0999 V2000
   59.6180   33.6680   47.7790 C   0  0  0  0  0  0  0  0  0  0  0  0
   60.9520   33.6180   47.1950 N   0  0  0  0  0  0  0  0  0  0  0  0
   61.8500   32.5210   47.4150 C   0  0  0  0  0  0  0  0  0  0  0  0
   63.4570   32.7480   47.2060 S   0  0  0  0  0  0  0  0  0  0  0  0
   61.3900   31.2850   47.9780 N   0  0  0  0  0  0  0  0  0  0  0  0
   60.3660   30.4640   47.3870 C   0  0  0  0  0  0  0  0  0  0  0  0
   59.4580   29.7330   48.1760 C   0  0  0  0  0  0  0  0  0  0  0  0
   58.4500   28.9750   47.5740 C   0  0  0  0  0  0  0  0  0  0  0  0
   58.3190   28.9530   46.1800 C   0  0  0  0  0  0  0  0  0  0  0  0
   57.0280   28.0090   45.4400 S   0  0  0  0  0  0  0  0  0  0  0  0
   57.5100   27.5050   44.1080 O   0  0  0  0  0  0  0  0  0  0  0  0
   56.6870   26.8240   46.2990 O   0  0  0  0  0  0  0  0  0  0  0  0
   55.6200   29.0030   45.1920 N   0  0  0  0  0  0  0  0  0  0  0  0
   55.6600   29.6810   43.8960 C   0  0  0  0  0  0  0  0  0  0  0  0
   56.5680   30.8750   43.9360 C   0  0  0  0  0  0  0  0  0  0  0  0
   57.3050   31.2520   42.8050 C   0  0  0  0  0  0  0  0  0  0  0  0
   58.1420   32.3660   42.8730 C   0  0  0  0  0  0  0  0  0  0  0  0
   58.2400   33.0910   44.0640 C   0  0  0  0  0  0  0  0  0  0  0  0
   57.4880   32.6890   45.1690 C   0  0  0  0  0  0  0  0  0  0  0  0
   56.6740   31.6040   45.0820 N   0  0  0  0  0  0  0  0  0  0  0  0
   59.2120   29.6910   45.3910 C   0  0  0  0  0  0  0  0  0  0  0  0
   60.2290   30.4380   45.9920 C   0  0  0  0  0  0  0  0  0  0  0  0
   59.6977   33.6650   48.8761 H   0  0  0  0  0  0  0  0  0  0  0  0
   59.1083   34.5859   47.4509 H   0  0  0  0  0  0  0  0  0  0  0  0
   59.0410   32.7909   47.4509 H   0  0  0  0  0  0  0  0  0  0  0  0
   61.3120   34.4770   46.7180 H   0  0  0  0  0  0  0  0  0  0  0  0
   61.9260   30.8970   48.7880 H   0  0  0  0  0  0  0  0  0  0  0  0
   59.5423   29.7585   49.2725 H   0  0  0  0  0  0  0  0  0  0  0  0
   57.7561   28.3928   48.1982 H   0  0  0  0  0  0  0  0  0  0  0  0
   56.0261   28.9772   43.1340 H   0  0  0  0  0  0  0  0  0  0  0  0
   54.6440   30.0241   43.6509 H   0  0  0  0  0  0  0  0  0  0  0  0
   57.2242   30.6747   41.8722 H   0  0  0  0  0  0  0  0  0  0  0  0
   58.7236   32.6732   41.9913 H   0  0  0  0  0  0  0  0  0  0  0  0
   58.9015   33.9674   44.1296 H   0  0  0  0  0  0  0  0  0  0  0  0
   57.5542   33.2514   46.1121 H   0  0  0  0  0  0  0  0  0  0  0  0
   59.1121   29.6822   44.2956 H   0  0  0  0  0  0  0  0  0  0  0  0
   60.9281   31.0106   45.3649 H   0  0  0  0  0  0  0  0  0  0  0  0
  1  2  1  0
  2  3  1  0
  3  4  2  0
  3  5  1  0
  5  6  1  0
  6  7  2  0
  7  8  1  0
  8  9  2  0
  9 10  1  0
 10 11  2  0
 10 12  2  0
 10 13  1  0
 13 14  1  0
 14 15  1  0
 15 16  2  0
 16 17  1  0
 17 18  2  0
 18 19  1  0
 19 20  2  0
  9 21  1  0
 21 22  2  0
 22  6  1  0
 20 15  1  0
  1 23  1  0
  1 24  1  0
  1 25  1  0
  2 26  1  0
  5 27  1  0
  7 28  1  0
  8 29  1  0
 14 30  1  0
 14 31  1  0
 16 32  1  0
 17 33  1  0
 18 34  1  0
 19 35  1  0
 21 36  1  0
 22 37  1  0
M  CHG  1  13  -1
M  END
>  <UniqueID>  (57) 
47

>  <SMILES>  (57) 
CNC(=S)Nc1ccc(S(=O)(=O)[N-]Cc2ccccn2)cc1

>  <Energy>  (57) 
36.029284310861506

>  <Genealogy>  (57) 
CNC(=S)Nc1ccc(S(=O)(=O)[N-]Cc2ccccn2)cc1 (protonated)
CNC(=S)Nc1ccc(S(=O)(=O)[N-]Cc2ccccn2)cc1 (3D coordinates assigned)
CNC(=S)Nc1ccc(S(=O)(=O)[N-]Cc2ccccn2)cc1 (optimized conformer: 36.029284310861506 kcal/mol)

>  <smiles>  (57) 
CNC(=S)Nc1ccc(S(=O)(=O)NCc2ccccn2)cc1

>  <score_type>  (57) 
oracle

>  <origin>  (57) 
adg

>  <m_score__min__energy>  (57) 
-9.3300000000000001

>  <m_primary>  (57) 
energy

$$$$
58:0
     RDKit          3D

 43 46  0  0  0  0  0  0  0  0999 V2000
   59.2150   35.6060   46.5710 O   0  0  0  0  0  0  0  0  0  0  0  0
   59.4080   34.3660   46.6820 C   0  0  0  0  0  0  0  0  0  0  0  0
   60.3040   33.9000   47.7030 N   0  0  0  0  0  0  0  0  0  0  0  0
   61.4240   33.2510   47.5310 C   0  0  0  0  0  0  0  0  0  0  0  0
   62.5820   33.8570   47.0020 C   0  0  0  0  0  0  0  0  0  0  0  0
   63.7460   33.1010   46.8440 C   0  0  0  0  0  0  0  0  0  0  0  0
   63.7600   31.7850   47.1890 N   0  0  0  0  0  0  0  0  0  0  0  0
   62.6520   31.1710   47.6850 C   0  0  0  0  0  0  0  0  0  0  0  0
   61.4670   31.8910   47.8590 C   0  0  0  0  0  0  0  0  0  0  0  0
   58.7740   33.4360   45.7140 C   0  0  0  0  0  0  0  0  0  0  0  0
   58.7560   33.7480   44.3420 C   0  0  0  0  0  0  0  0  0  0  0  0
   58.1590   32.8810   43.4230 C   0  0  0  0  0  0  0  0  0  0  0  0
   57.5740   31.6860   43.8610 C   0  0  0  0  0  0  0  0  0  0  0  0
   56.9670   30.7990   42.9640 C   0  0  0  0  0  0  0  0  0  0  0  0
   56.3950   29.6160   43.4360 C   0  0  0  0  0  0  0  0  0  0  0  0
   56.4360   29.3230   44.8050 C   0  0  0  0  0  0  0  0  0  0  0  0
   55.8990   28.2160   45.2330 N   0  0  0  0  0  0  0  0  0  0  0  0
   56.5340   27.1890   46.0150 C   0  0  0  0  0  0  0  0  0  0  0  0
   55.8890   26.1640   46.3730 O   0  0  0  0  0  0  0  0  0  0  0  0
   57.9580   27.3320   46.4040 C   0  0  0  0  0  0  0  0  0  0  0  0
   58.3170   28.0900   47.5350 C   0  0  0  0  0  0  0  0  0  0  0  0
   59.6610   28.2250   47.9000 C   0  0  0  0  0  0  0  0  0  0  0  0
   60.6580   27.6070   47.1430 C   0  0  0  0  0  0  0  0  0  0  0  0
   60.3140   26.8520   46.0190 C   0  0  0  0  0  0  0  0  0  0  0  0
   58.9720   26.7140   45.6490 C   0  0  0  0  0  0  0  0  0  0  0  0
   57.0330   30.1990   45.6620 N   0  0  0  0  0  0  0  0  0  0  0  0
   57.5970   31.3600   45.2330 C   0  0  0  0  0  0  0  0  0  0  0  0
   58.1980   32.2270   46.1500 C   0  0  0  0  0  0  0  0  0  0  0  0
   62.5689   34.9189   46.7154 H   0  0  0  0  0  0  0  0  0  0  0  0
   64.6543   33.5713   46.4393 H   0  0  0  0  0  0  0  0  0  0  0  0
   64.6370   31.2320   47.0640 H   0  0  0  0  0  0  0  0  0  0  0  0
   62.6890   30.1040   47.9500 H   0  0  0  0  0  0  0  0  0  0  0  0
   60.5703   31.3902   48.2528 H   0  0  0  0  0  0  0  0  0  0  0  0
   59.2161   34.6830   43.9897 H   0  0  0  0  0  0  0  0  0  0  0  0
   58.1484   33.1375   42.3534 H   0  0  0  0  0  0  0  0  0  0  0  0
   56.9407   31.0336   41.8896 H   0  0  0  0  0  0  0  0  0  0  0  0
   55.9142   28.9171   42.7357 H   0  0  0  0  0  0  0  0  0  0  0  0
   57.5359   28.5792   48.1355 H   0  0  0  0  0  0  0  0  0  0  0  0
   59.9325   28.8192   48.7850 H   0  0  0  0  0  0  0  0  0  0  0  0
   61.7141   27.7145   47.4314 H   0  0  0  0  0  0  0  0  0  0  0  0
   61.1002   26.3649   45.4235 H   0  0  0  0  0  0  0  0  0  0  0  0
   58.7078   26.1188   44.7625 H   0  0  0  0  0  0  0  0  0  0  0  0
   58.2212   31.9637   47.2178 H   0  0  0  0  0  0  0  0  0  0  0  0
  1  2  2  0
  2  3  1  0
  3  4  2  3
  4  5  1  0
  5  6  2  0
  6  7  1  0
  7  8  1  0
  8  9  2  0
  2 10  1  0
 10 11  2  0
 11 12  1  0
 12 13  2  0
 13 14  1  0
 14 15  2  0
 15 16  1  0
 16 17  2  3
 17 18  1  0
 18 19  2  0
 18 20  1  0
 20 21  2  0
 21 22  1  0
 22 23  2  0
 23 24  1  0
 24 25  2  0
 16 26  1  0
 26 27  1  0
 27 28  2  0
  9  4  1  0
 28 10  1  0
 27 13  1  0
 25 20  1  0
  5 29  1  0
  6 30  1  0
  7 31  1  0
  8 32  1  0
  9 33  1  0
 11 34  1  0
 12 35  1  0
 14 36  1  0
 15 37  1  0
 21 38  1  0
 22 39  1  0
 23 40  1  0
 24 41  1  0
 25 42  1  0
 28 43  1  0
M  CHG  1  26  -1
M  END
>  <UniqueID>  (58) 
48

>  <SMILES>  (58) 
O=C(N=c1cc[nH]cc1)c1ccc2ccc(=NC(=O)c3ccccc3)[n-]c2c1

>  <Energy>  (58) 
65.07820617069741

>  <Genealogy>  (58) 
O=C(N=c1cc[nH]cc1)c1ccc2ccc(=NC(=O)c3ccccc3)[n-]c2c1 (protonated)
O=C(N=c1cc[nH]cc1)c1ccc2ccc(=NC(=O)c3ccccc3)[n-]c2c1 (3D coordinates assigned)
O=C(N=c1cc[nH]cc1)c1ccc2ccc(=NC(=O)c3ccccc3)[n-]c2c1 (optimized conformer: 65.07820617069741 kcal/mol)

>  <smiles>  (58) 
O=C(N=c1cc[nH]cc1)c1ccc2ccc(=NC(=O)c3ccccc3)[nH]c2c1

>  <score_type>  (58) 
oracle

>  <origin>  (58) 
adg

>  <m_score__min__energy>  (58) 
-11.98

>  <m_primary>  (58) 
energy

$$$$
59:0
     RDKit          3D

 48 51  0  0  0  0  0  0  0  0999 V2000
   61.4000   33.8640   49.2950 O   0  0  0  0  0  0  0  0  0  0  0  0
   60.3900   33.2830   48.8180 C   0  0  0  0  0  0  0  0  0  0  0  0
   59.9660   33.6180   47.4880 N   0  0  0  0  0  0  0  0  0  0  0  0
   59.2230   32.7510   46.6210 C   0  0  0  0  0  0  0  0  0  0  0  0
   59.6620   31.4440   46.3450 C   0  0  0  0  0  0  0  0  0  0  0  0
   58.8600   30.5760   45.6030 C   0  0  0  0  0  0  0  0  0  0  0  0
   57.6190   31.0070   45.1170 C   0  0  0  0  0  0  0  0  0  0  0  0
   56.5160   29.8630   44.3580 S   0  0  0  0  0  0  0  0  0  0  0  0
   57.0260   29.4720   42.9980 O   0  0  0  0  0  0  0  0  0  0  0  0
   55.1680   30.5060   44.1970 O   0  0  0  0  0  0  0  0  0  0  0  0
   56.3630   28.4510   45.3590 N   0  0  0  0  0  0  0  0  0  0  0  0
   57.3300   27.4370   44.9400 C   0  0  0  0  0  0  0  0  0  0  0  0
   58.4330   27.3540   45.9540 C   0  0  0  0  0  0  0  0  0  0  0  0
   59.6480   26.7230   45.6390 C   0  0  0  0  0  0  0  0  0  0  0  0
   60.6630   26.6350   46.5960 C   0  0  0  0  0  0  0  0  0  0  0  0
   60.4700   27.1670   47.8740 C   0  0  0  0  0  0  0  0  0  0  0  0
   59.2580   27.7830   48.1990 C   0  0  0  0  0  0  0  0  0  0  0  0
   58.2410   27.8730   47.2450 C   0  0  0  0  0  0  0  0  0  0  0  0
   57.2080   32.3280   45.3390 C   0  0  0  0  0  0  0  0  0  0  0  0
   58.0150   33.2000   46.0750 C   0  0  0  0  0  0  0  0  0  0  0  0
   59.6530   32.3000   49.6500 C   0  0  0  0  0  0  0  0  0  0  0  0
   60.0160   30.9410   49.6210 C   0  0  0  0  0  0  0  0  0  0  0  0
   59.2900   29.9970   50.3570 C   0  0  0  0  0  0  0  0  0  0  0  0
   58.2020   30.4060   51.1320 C   0  0  0  0  0  0  0  0  0  0  0  0
   57.8670   31.7630   51.2110 C   0  0  0  0  0  0  0  0  0  0  0  0
   58.5870   32.7070   50.4740 C   0  0  0  0  0  0  0  0  0  0  0  0
   56.8030   32.1550   52.0310 O   0  0  0  0  0  0  0  0  0  0  0  0
   56.2290   31.2520   52.9790 C   0  0  0  0  0  0  0  0  0  0  0  0
   56.1650   29.8360   52.3930 C   0  0  0  0  0  0  0  0  0  0  0  0
   57.4320   29.4740   51.8360 O   0  0  0  0  0  0  0  0  0  0  0  0
   60.6407   31.1047   46.7152 H   0  0  0  0  0  0  0  0  0  0  0  0
   59.2031   29.5509   45.3993 H   0  0  0  0  0  0  0  0  0  0  0  0
   56.8285   26.4611   44.8620 H   0  0  0  0  0  0  0  0  0  0  0  0
   57.7498   27.7107   43.9608 H   0  0  0  0  0  0  0  0  0  0  0  0
   59.8010   26.2970   44.6365 H   0  0  0  0  0  0  0  0  0  0  0  0
   61.6154   26.1462   46.3429 H   0  0  0  0  0  0  0  0  0  0  0  0
   61.2719   27.1009   48.6241 H   0  0  0  0  0  0  0  0  0  0  0  0
   59.1048   28.1972   49.2065 H   0  0  0  0  0  0  0  0  0  0  0  0
   57.2860   28.3523   47.5061 H   0  0  0  0  0  0  0  0  0  0  0  0
   56.2480   32.6796   44.9331 H   0  0  0  0  0  0  0  0  0  0  0  0
   57.6996   34.2430   46.2257 H   0  0  0  0  0  0  0  0  0  0  0  0
   60.8760   30.6180   49.0160 H   0  0  0  0  0  0  0  0  0  0  0  0
   59.5757   28.9352   50.3251 H   0  0  0  0  0  0  0  0  0  0  0  0
   58.3197   33.7721   50.5381 H   0  0  0  0  0  0  0  0  0  0  0  0
   56.8464   31.2406   53.8893 H   0  0  0  0  0  0  0  0  0  0  0  0
   55.2091   31.5863   53.2200 H   0  0  0  0  0  0  0  0  0  0  0  0
   55.9017   29.1246   53.1897 H   0  0  0  0  0  0  0  0  0  0  0  0
   55.4036   29.8100   51.5996 H   0  0  0  0  0  0  0  0  0  0  0  0
  1  2  2  0
  2  3  1  0
  3  4  1  0
  4  5  2  0
  5  6  1  0
  6  7  2  0
  7  8  1  0
  8  9  2  0
  8 10  2  0
  8 11  1  0
 11 12  1  0
 12 13  1  0
 13 14  2  0
 14 15  1  0
 15 16  2  0
 16 17  1  0
 17 18  2  0
  7 19  1  0
 19 20  2  0
  2 21  1  0
 21 22  2  0
 22 23  1  0
 23 24  2  0
 24 25  1  0
 25 26  2  0
 25 27  1  0
 27 28  1  0
 28 29  1  0
 29 30  1  0
 20  4  1  0
 26 21  1  0
 18 13  1  0
 30 24  1  0
  5 31  1  0
  6 32  1  0
 12 33  1  0
 12 34  1  0
 14 35  1  0
 15 36  1  0
 16 37  1  0
 17 38  1  0
 18 39  1  0
 19 40  1  0
 20 41  1  0
 22 42  1  0
 23 43  1  0
 26 44  1  0
 28 45  1  0
 28 46  1  0
 29 47  1  0
 29 48  1  0
M  CHG  2   3  -1  11  -1
M  END
>  <UniqueID>  (59) 
49

>  <SMILES>  (59) 
O=C([N-]c1ccc(S(=O)(=O)[N-]Cc2ccccc2)cc1)c1ccc2c(c1)OCCO2

>  <Energy>  (59) 
55.45870174986256

>  <Genealogy>  (59) 
O=C([N-]c1ccc(S(=O)(=O)[N-]Cc2ccccc2)cc1)c1ccc2c(c1)OCCO2 (protonated)
O=C([N-]c1ccc(S(=O)(=O)[N-]Cc2ccccc2)cc1)c1ccc2c(c1)OCCO2 (3D coordinates assigned)
O=C([N-]c1ccc(S(=O)(=O)[N-]Cc2ccccc2)cc1)c1ccc2c(c1)OCCO2 (nonaromatic ring conformer: 55.45870174986256 kcal/mol)

>  <smiles>  (59) 
O=C(Nc1ccc(S(=O)(=O)NCc2ccccc2)cc1)c1ccc2c(c1)OCCO2

>  <score_type>  (59) 
oracle

>  <origin>  (59) 
adg

>  <m_score__min__energy>  (59) 
-11.369999999999999

>  <m_primary>  (59) 
energy

$$$$
60:0
     RDKit          3D

 40 41  0  0  0  0  0  0  0  0999 V2000
   59.4527   30.0836   43.9614 H   0  0  0  0  0  0  0  0  0  0  0  0
   59.0410   29.2680   44.5740 C   0  0  0  0  0  0  0  0  0  0  0  0
   59.9040   28.3400   45.1650 C   0  0  0  0  0  0  0  0  0  0  0  0
   60.9895   28.4279   45.0104 H   0  0  0  0  0  0  0  0  0  0  0  0
   59.3940   27.2960   45.9550 C   0  0  0  0  0  0  0  0  0  0  0  0
   60.3220   26.2680   46.5540 C   0  0  0  0  0  0  0  0  0  0  0  0
   59.8500   24.9890   46.3190 F   0  0  0  0  0  0  0  0  0  0  0  0
   61.5870   26.3710   46.0010 F   0  0  0  0  0  0  0  0  0  0  0  0
   60.4080   26.4730   47.9180 F   0  0  0  0  0  0  0  0  0  0  0  0
   58.0030   27.1680   46.1000 C   0  0  0  0  0  0  0  0  0  0  0  0
   57.5891   26.3318   46.6826 H   0  0  0  0  0  0  0  0  0  0  0  0
   57.1410   28.0960   45.5090 C   0  0  0  0  0  0  0  0  0  0  0  0
   56.0535   27.9875   45.6338 H   0  0  0  0  0  0  0  0  0  0  0  0
   57.6530   29.1660   44.7570 C   0  0  0  0  0  0  0  0  0  0  0  0
   56.7440   30.1490   44.1190 C   0  0  0  0  0  0  0  0  0  0  0  0
   56.1350   29.8270   43.0650 O   0  0  0  0  0  0  0  0  0  0  0  0
   56.4890   31.4420   44.6890 N   0  0  0  0  0  0  0  0  0  0  0  0
   57.3770   32.2150   45.2420 C   0  0  0  0  0  0  0  0  0  0  0  0
   57.7590   33.4130   44.7420 N   0  0  0  0  0  0  0  0  0  0  0  0
   58.6820   34.0140   45.5390 C   0  0  0  0  0  0  0  0  0  0  0  0
   59.2710   35.3440   45.1940 C   0  0  0  0  0  0  0  0  0  0  0  0
   59.5124   35.8890   46.1185 H   0  0  0  0  0  0  0  0  0  0  0  0
   60.1882   35.1971   44.6048 H   0  0  0  0  0  0  0  0  0  0  0  0
   58.5458   35.9245   44.6048 H   0  0  0  0  0  0  0  0  0  0  0  0
   59.0200   33.2900   46.6800 C   0  0  0  0  0  0  0  0  0  0  0  0
   60.1950   33.7760   47.9450 S   0  0  0  0  0  0  0  0  0  0  0  0
   60.8050   32.0770   48.1980 C   0  0  0  0  0  0  0  0  0  0  0  0
   59.9672   31.3703   48.1047 H   0  0  0  0  0  0  0  0  0  0  0  0
   61.2481   31.9954   49.2015 H   0  0  0  0  0  0  0  0  0  0  0  0
   61.8680   31.7470   47.1470 C   0  0  0  0  0  0  0  0  0  0  0  0
   61.4997   32.0653   46.1606 H   0  0  0  0  0  0  0  0  0  0  0  0
   62.0465   30.6621   47.1809 H   0  0  0  0  0  0  0  0  0  0  0  0
   63.2070   32.4500   47.4240 C   0  0  0  0  0  0  0  0  0  0  0  0
   64.0241   31.7986   47.0806 H   0  0  0  0  0  0  0  0  0  0  0  0
   63.2652   32.6395   48.5060 H   0  0  0  0  0  0  0  0  0  0  0  0
   63.3240   33.7980   46.7120 C   0  0  0  0  0  0  0  0  0  0  0  0
   63.3938   34.6024   47.4590 H   0  0  0  0  0  0  0  0  0  0  0  0
   64.2260   33.8030   46.0824 H   0  0  0  0  0  0  0  0  0  0  0  0
   62.4364   33.9584   46.0824 H   0  0  0  0  0  0  0  0  0  0  0  0
   58.1450   31.8520   46.6920 S   0  0  0  0  0  0  0  0  0  0  0  0
  1  2  1  0
  2  3  2  0
  3  4  1  0
  3  5  1  0
  5  6  1  0
  6  7  1  0
  6  8  1  0
  6  9  1  0
  5 10  2  0
 10 11  1  0
 10 12  1  0
 12 13  1  0
 12 14  2  0
 14 15  1  0
 15 16  2  0
 15 17  1  0
 17 18  2  0
 18 19  1  0
 19 20  1  0
 20 21  1  0
 21 22  1  0
 21 23  1  0
 21 24  1  0
 20 25  2  0
 25 26  1  0
 26 27  1  0
 27 28  1  0
 27 29  1  0
 27 30  1  0
 30 31  1  0
 30 32  1  0
 30 33  1  0
 33 34  1  0
 33 35  1  0
 33 36  1  0
 36 37  1  0
 36 38  1  0
 36 39  1  0
 25 40  1  0
 14  2  1  0
 40 18  1  0
M  CHG  1  19  -1
M  END
>  <UniqueID>  (60) 
50

>  <SMILES>  (60) 
CCCCSc1s/c(=N/C(=O)c2ccc(C(F)(F)F)cc2)[n-]c1C

>  <Energy>  (60) 
66.29608456878564

>  <Genealogy>  (60) 
CCCCSc1sc(=NC(=O)c2ccc(C(F)(F)F)cc2)[n-]c1C (protonated)
CCCCSc1s/c(=N/C(=O)c2ccc(C(F)(F)F)cc2)[n-]c1C (cis-trans isomerization)
CCCCSc1s/c(=N/C(=O)c2ccc(C(F)(F)F)cc2)[n-]c1C (3D coordinates assigned)
CCCCSc1s/c(=N/C(=O)c2ccc(C(F)(F)F)cc2)[n-]c1C (optimized conformer: 66.29608456878564 kcal/mol)

>  <smiles>  (60) 
CCCCSc1sc(=NC(=O)c2ccc(C(F)(F)F)cc2)[nH]c1C

>  <score_type>  (60) 
oracle

>  <origin>  (60) 
adg

>  <m_score__min__energy>  (60) 
-8.8100000000000005

>  <m_primary>  (60) 
energy

$$$$
61:0
     RDKit          3D

 47 48  0  0  0  0  0  0  0  0999 V2000
   59.0290   25.4410   45.9190 C   0  0  0  0  0  0  0  0  0  0  0  0
   58.5030   26.5420   46.4640 C   0  0  0  0  0  0  0  0  0  0  0  0
   59.0300   27.0270   47.7980 C   0  0  0  0  0  0  0  0  0  0  0  0
   60.4760   27.5040   47.6910 C   0  0  0  0  0  0  0  0  0  0  0  0
   57.4450   27.3300   45.7750 C   0  0  0  0  0  0  0  0  0  0  0  0
   56.2720   26.8650   45.6990 O   0  0  0  0  0  0  0  0  0  0  0  0
   57.6930   28.6840   45.2390 C   0  0  0  0  0  0  0  0  0  0  0  0
   58.9980   29.1970   45.1920 C   0  0  0  0  0  0  0  0  0  0  0  0
   59.2330   30.4900   44.7120 C   0  0  0  0  0  0  0  0  0  0  0  0
   58.1750   31.2800   44.2540 C   0  0  0  0  0  0  0  0  0  0  0  0
   58.4660   32.5670   43.7640 O   0  0  0  0  0  0  0  0  0  0  0  0
   58.8050   33.6940   44.5760 C   0  0  0  0  0  0  0  0  0  0  0  0
   57.7650   33.8950   45.6320 C   0  0  0  0  0  0  0  0  0  0  0  0
   56.6530   34.4020   45.3240 O   0  0  0  0  0  0  0  0  0  0  0  0
   58.0400   33.5090   46.9840 N   0  0  0  0  0  0  0  0  0  0  0  0
   59.3440   33.4780   47.5750 C   0  0  0  0  0  0  0  0  0  0  0  0
   59.6800   34.3120   48.6530 C   0  0  0  0  0  0  0  0  0  0  0  0
   60.9490   34.2380   49.2360 C   0  0  0  0  0  0  0  0  0  0  0  0
   61.9060   33.3230   48.7550 C   0  0  0  0  0  0  0  0  0  0  0  0
   63.2680   33.2450   49.3460 C   0  0  0  0  0  0  0  0  0  0  0  0
   64.1970   32.1040   49.0510 C   0  0  0  0  0  0  0  0  0  0  0  0
   63.6670   34.1560   50.1180 O   0  0  0  0  0  0  0  0  0  0  0  0
   61.5530   32.4800   47.6830 C   0  0  0  0  0  0  0  0  0  0  0  0
   60.2810   32.5520   47.1070 C   0  0  0  0  0  0  0  0  0  0  0  0
   56.8650   30.7640   44.2910 C   0  0  0  0  0  0  0  0  0  0  0  0
   56.6240   29.4690   44.7740 C   0  0  0  0  0  0  0  0  0  0  0  0
   55.3210   28.9640   44.8060 O   0  0  0  0  0  0  0  0  0  0  0  0
   58.6574   25.0754   44.9504 H   0  0  0  0  0  0  0  0  0  0  0  0
   59.8336   24.9004   46.4390 H   0  0  0  0  0  0  0  0  0  0  0  0
   58.4038   27.8612   48.1473 H   0  0  0  0  0  0  0  0  0  0  0  0
   58.9964   26.1869   48.5073 H   0  0  0  0  0  0  0  0  0  0  0  0
   60.8924   27.6414   48.6998 H   0  0  0  0  0  0  0  0  0  0  0  0
   61.0702   26.7543   47.1480 H   0  0  0  0  0  0  0  0  0  0  0  0
   60.5075   28.4601   47.1480 H   0  0  0  0  0  0  0  0  0  0  0  0
   59.8412   28.5791   45.5345 H   0  0  0  0  0  0  0  0  0  0  0  0
   60.2584   30.8879   44.6950 H   0  0  0  0  0  0  0  0  0  0  0  0
   59.7801   33.5186   45.0538 H   0  0  0  0  0  0  0  0  0  0  0  0
   58.8557   34.5925   43.9435 H   0  0  0  0  0  0  0  0  0  0  0  0
   58.9408   35.0280   49.0415 H   0  0  0  0  0  0  0  0  0  0  0  0
   61.2020   34.8999   50.0773 H   0  0  0  0  0  0  0  0  0  0  0  0
   64.5527   31.6671   49.9958 H   0  0  0  0  0  0  0  0  0  0  0  0
   63.6631   31.3372   48.4705 H   0  0  0  0  0  0  0  0  0  0  0  0
   65.0561   32.4713   48.4705 H   0  0  0  0  0  0  0  0  0  0  0  0
   62.2859   31.7574   47.2949 H   0  0  0  0  0  0  0  0  0  0  0  0
   60.0160   31.8760   46.2807 H   0  0  0  0  0  0  0  0  0  0  0  0
   56.0250   31.3806   43.9387 H   0  0  0  0  0  0  0  0  0  0  0  0
   55.1400   27.9680   44.8750 H   0  0  0  0  0  0  0  0  0  0  0  0
  1  2  2  0
  2  3  1  0
  3  4  1  0
  2  5  1  0
  5  6  2  0
  5  7  1  0
  7  8  2  0
  8  9  1  0
  9 10  2  0
 10 11  1  0
 11 12  1  0
 12 13  1  0
 13 14  2  0
 13 15  1  0
 15 16  1  0
 16 17  2  0
 17 18  1  0
 18 19  2  0
 19 20  1  0
 20 21  1  0
 20 22  2  0
 19 23  1  0
 23 24  2  0
 10 25  1  0
 25 26  2  0
 26 27  1  0
 26  7  1  0
 24 16  1  0
  1 28  1  0
  1 29  1  0
  3 30  1  0
  3 31  1  0
  4 32  1  0
  4 33  1  0
  4 34  1  0
  8 35  1  0
  9 36  1  0
 12 37  1  0
 12 38  1  0
 17 39  1  0
 18 40  1  0
 21 41  1  0
 21 42  1  0
 21 43  1  0
 23 44  1  0
 24 45  1  0
 25 46  1  0
 27 47  1  0
M  CHG  1  15  -1
M  END
>  <UniqueID>  (61) 
51

>  <SMILES>  (61) 
C=C(CC)C(=O)c1ccc(OCC(=O)[N-]c2ccc(C(C)=O)cc2)cc1O

>  <Energy>  (61) 
54.812920457799756

>  <Genealogy>  (61) 
C=C(CC)C(=O)c1ccc(OCC(=O)[N-]c2ccc(C(C)=O)cc2)cc1O (protonated)
C=C(CC)C(=O)c1ccc(OCC(=O)[N-]c2ccc(C(C)=O)cc2)cc1O (3D coordinates assigned)
C=C(CC)C(=O)c1ccc(OCC(=O)[N-]c2ccc(C(C)=O)cc2)cc1O (optimized conformer: 54.812920457799756 kcal/mol)

>  <smiles>  (61) 
C=C(CC)C(=O)c1ccc(OCC(=O)Nc2ccc(C(C)=O)cc2)cc1O

>  <score_type>  (61) 
oracle

>  <origin>  (61) 
adg

>  <m_score__min__energy>  (61) 
-9.7400000000000002

>  <m_primary>  (61) 
energy

$$$$
62:0
     RDKit          3D

 44 45  0  0  0  0  0  0  0  0999 V2000
   56.4420   23.4220   43.0090 C   0  0  0  0  0  0  0  0  0  0  0  0
   55.9080   22.1630   43.4060 O   0  0  0  0  0  0  0  0  0  0  0  0
   56.1010   21.5710   44.6660 C   0  0  0  0  0  0  0  0  0  0  0  0
   57.0080   20.5070   44.8440 C   0  0  0  0  0  0  0  0  0  0  0  0
   57.2020   19.9450   46.1080 C   0  0  0  0  0  0  0  0  0  0  0  0
   56.5110   20.4440   47.2090 C   0  0  0  0  0  0  0  0  0  0  0  0
   55.6090   21.4990   47.0510 C   0  0  0  0  0  0  0  0  0  0  0  0
   55.3820   22.0640   45.7820 C   0  0  0  0  0  0  0  0  0  0  0  0
   54.3930   23.1620   45.6430 C   0  0  0  0  0  0  0  0  0  0  0  0
   53.2250   22.9180   45.2350 O   0  0  0  0  0  0  0  0  0  0  0  0
   54.7580   24.5030   45.9880 N   0  0  0  0  0  0  0  0  0  0  0  0
   56.0610   24.8700   46.5340 C   0  0  0  0  0  0  0  0  0  0  0  0
   56.3030   26.3350   46.3650 C   0  0  0  0  0  0  0  0  0  0  0  0
   55.5330   27.0130   45.6330 O   0  0  0  0  0  0  0  0  0  0  0  0
   57.3890   26.9570   47.0620 N   0  0  0  0  0  0  0  0  0  0  0  0
   58.5390   27.6120   46.4370 C   0  0  1  0  0  0  0  0  0  0  0  0
   58.1920   28.0730   45.0070 C   0  0  0  0  0  0  0  0  0  0  0  0
   59.0120   29.3010   44.5740 C   0  0  0  0  0  0  0  0  0  0  0  0
   58.4160   30.6330   45.0660 C   0  0  1  0  0  0  0  0  0  0  0  0
   56.9920   30.5220   45.0820 O   0  0  0  0  0  0  0  0  0  0  0  0
   56.2550   30.1670   43.9680 N   0  0  0  0  0  0  0  0  0  0  0  0
   56.5810   30.5510   42.8270 O   0  0  0  0  0  0  0  0  0  0  0  0
   55.1530   29.3600   44.1200 O   0  0  0  0  0  0  0  0  0  0  0  0
   58.9110   31.0550   46.4620 C   0  0  0  0  0  0  0  0  0  0  0  0
   58.7120   30.0110   47.4590 N   0  0  0  0  0  0  0  0  0  0  0  0
   59.1380   28.6430   47.3780 C   0  0  0  0  0  0  0  0  0  0  0  0
   60.0980   28.2820   48.1100 O   0  0  0  0  0  0  0  0  0  0  0  0
   56.6924   24.0123   43.9028 H   0  0  0  0  0  0  0  0  0  0  0  0
   57.3499   23.2624   42.4088 H   0  0  0  0  0  0  0  0  0  0  0  0
   55.6962   23.9638   42.4088 H   0  0  0  0  0  0  0  0  0  0  0  0
   57.5673   20.1162   43.9811 H   0  0  0  0  0  0  0  0  0  0  0  0
   57.9024   19.1062   46.2339 H   0  0  0  0  0  0  0  0  0  0  0  0
   56.6756   20.0068   48.2049 H   0  0  0  0  0  0  0  0  0  0  0  0
   55.0712   21.8918   47.9265 H   0  0  0  0  0  0  0  0  0  0  0  0
   56.0890   24.6192   47.6047 H   0  0  0  0  0  0  0  0  0  0  0  0
   56.8428   24.3148   45.9951 H   0  0  0  0  0  0  0  0  0  0  0  0
   59.3641   26.9023   46.2775 H   0  0  0  0  0  0  0  0  0  0  0  0
   58.3967   27.2472   44.3097 H   0  0  0  0  0  0  0  0  0  0  0  0
   57.1292   28.3563   44.9934 H   0  0  0  0  0  0  0  0  0  0  0  0
   60.0297   29.2024   44.9796 H   0  0  0  0  0  0  0  0  0  0  0  0
   59.0060   29.3267   43.4743 H   0  0  0  0  0  0  0  0  0  0  0  0
   58.7527   31.4135   44.3678 H   0  0  0  0  0  0  0  0  0  0  0  0
   59.9847   31.2862   46.4015 H   0  0  0  0  0  0  0  0  0  0  0  0
   58.3275   31.9337   46.7742 H   0  0  0  0  0  0  0  0  0  0  0  0
  1  2  1  0
  2  3  1  0
  3  4  2  0
  4  5  1  0
  5  6  2  0
  6  7  1  0
  7  8  2  0
  8  9  1  0
  9 10  2  0
  9 11  1  0
 11 12  1  0
 12 13  1  0
 13 14  2  0
 13 15  1  0
 15 16  1  0
 16 17  1  0
 17 18  1  0
 18 19  1  0
 19 20  1  0
 20 21  1  0
 21 22  2  0
 21 23  1  0
 19 24  1  0
 24 25  1  0
 25 26  1  0
 26 27  2  0
  8  3  1  0
 26 16  1  0
  1 28  1  0
  1 29  1  0
  1 30  1  0
  4 31  1  0
  5 32  1  0
  6 33  1  0
  7 34  1  0
 12 35  1  0
 12 36  1  0
 16 37  1  6
 17 38  1  0
 17 39  1  0
 18 40  1  0
 18 41  1  0
 19 42  1  6
 24 43  1  0
 24 44  1  0
M  CHG  5  11  -1  15  -1  21   1  23  -1  25  -1
M  END
>  <UniqueID>  (62) 
52

>  <SMILES>  (62) 
COc1ccccc1C(=O)[N-]CC(=O)[N-][C@H]1CC[C@@H](O[N+](=O)[O-])C[N-]C1=O

>  <Energy>  (62) 
46.13310084804898

>  <Genealogy>  (62) 
COc1ccccc1C(=O)[N-]CC(=O)[N-]C1CCC(O[N+](=O)[O-])C[N-]C1=O (protonated)
COc1ccccc1C(=O)[N-]CC(=O)[N-][C@H]1CC[C@@H](O[N+](=O)[O-])C[N-]C1=O (chirality)
COc1ccccc1C(=O)[N-]CC(=O)[N-][C@H]1CC[C@@H](O[N+](=O)[O-])C[N-]C1=O (3D coordinates assigned)
COc1ccccc1C(=O)[N-]CC(=O)[N-][C@H]1CC[C@@H](O[N+](=O)[O-])C[N-]C1=O (nonaromatic ring conformer: 46.13310084804898 kcal/mol)

>  <smiles>  (62) 
COc1ccccc1C(=O)NCC(=O)NC1CCC(O[N+](=O)[O-])CNC1=O

>  <score_type>  (62) 
oracle

>  <origin>  (62) 
adg

>  <m_score__min__energy>  (62) 
-11.550000000000001

>  <m_primary>  (62) 
energy

$$$$
63:0
     RDKit          3D

 48 52  0  0  0  0  0  0  0  0999 V2000
   55.1440   27.4980   45.3880 H   0  0  0  0  0  0  0  0  0  0  0  0
   54.9860   26.7000   45.9900 O   0  0  0  0  0  0  0  0  0  0  0  0
   55.9970   25.7820   46.2670 C   0  0  0  0  0  0  0  0  0  0  0  0
   55.8120   24.6950   47.0340 N   0  0  0  0  0  0  0  0  0  0  0  0
   57.0470   24.1540   47.0890 C   0  0  0  0  0  0  0  0  0  0  0  0
   57.2980   23.1020   47.7340 O   0  0  0  0  0  0  0  0  0  0  0  0
   57.9940   24.8310   46.4070 N   0  0  0  0  0  0  0  0  0  0  0  0
   57.3160   25.8570   45.8650 C   0  0  0  0  0  0  0  0  0  0  0  0
   57.9540   26.8990   45.0440 C   0  0  0  0  0  0  0  0  0  0  0  0
   58.6760   26.5875   44.2748 H   0  0  0  0  0  0  0  0  0  0  0  0
   57.7010   28.2070   45.1850 C   0  0  0  0  0  0  0  0  0  0  0  0
   56.7670   29.0040   44.5160 C   0  0  0  0  0  0  0  0  0  0  0  0
   56.0478   28.6419   43.7666 H   0  0  0  0  0  0  0  0  0  0  0  0
   56.8810   30.2910   44.9300 N   0  0  0  0  0  0  0  0  0  0  0  0
   57.8510   30.3180   45.8300 N   0  0  0  0  0  0  0  0  0  0  0  0
   58.3290   31.3890   46.5080 C   0  0  0  0  0  0  0  0  0  0  0  0
   57.8070   32.5700   46.3130 N   0  0  0  0  0  0  0  0  0  0  0  0
   58.3930   33.8710   45.9370 C   0  0  0  0  0  0  0  0  0  0  0  0
   57.5772   34.1124   45.2397 H   0  0  0  0  0  0  0  0  0  0  0  0
   59.9110   33.9580   45.8850 C   0  0  0  0  0  0  0  0  0  0  0  0
   60.5209   33.0654   46.0884 H   0  0  0  0  0  0  0  0  0  0  0  0
   60.6470   34.2897   45.1379 H   0  0  0  0  0  0  0  0  0  0  0  0
   59.1400   34.6340   47.0210 C   0  0  0  0  0  0  0  0  0  0  0  0
   59.1951   34.2278   48.0418 H   0  0  0  0  0  0  0  0  0  0  0  0
   59.0911   35.6538   47.4303 H   0  0  0  0  0  0  0  0  0  0  0  0
   59.3570   31.1770   47.3790 N   0  0  0  0  0  0  0  0  0  0  0  0
   59.8850   29.9280   47.5570 C   0  0  0  0  0  0  0  0  0  0  0  0
   60.8720   29.7680   48.3870 N   0  0  0  0  0  0  0  0  0  0  0  0
   61.2700   30.7390   49.4070 C   0  0  0  0  0  0  0  0  0  0  0  0
   61.8968   30.2363   50.1583 H   0  0  0  0  0  0  0  0  0  0  0  0
   60.3634   31.1485   49.8764 H   0  0  0  0  0  0  0  0  0  0  0  0
   62.0510   31.8750   48.7910 C   0  0  0  0  0  0  0  0  0  0  0  0
   62.9060   31.6250   47.7030 C   0  0  0  0  0  0  0  0  0  0  0  0
   63.0196   30.5995   47.3218 H   0  0  0  0  0  0  0  0  0  0  0  0
   63.6110   32.6690   47.1040 C   0  0  0  0  0  0  0  0  0  0  0  0
   64.2759   32.4649   46.2518 H   0  0  0  0  0  0  0  0  0  0  0  0
   63.4740   33.9710   47.5840 C   0  0  0  0  0  0  0  0  0  0  0  0
   64.0320   34.7921   47.1102 H   0  0  0  0  0  0  0  0  0  0  0  0
   62.6300   34.2350   48.6650 C   0  0  0  0  0  0  0  0  0  0  0  0
   62.5278   35.2639   49.0405 H   0  0  0  0  0  0  0  0  0  0  0  0
   61.9080   33.1900   49.2780 C   0  0  0  0  0  0  0  0  0  0  0  0
   61.0450   33.4220   50.3620 O   0  0  0  0  0  0  0  0  0  0  0  0
   59.6310   33.5430   50.2570 C   0  0  0  0  0  0  0  0  0  0  0  0
   59.1904   33.5807   51.2642 H   0  0  0  0  0  0  0  0  0  0  0  0
   59.3814   34.4658   49.7128 H   0  0  0  0  0  0  0  0  0  0  0  0
   59.2282   32.6760   49.7128 H   0  0  0  0  0  0  0  0  0  0  0  0
   59.3780   28.8680   46.8600 N   0  0  0  0  0  0  0  0  0  0  0  0
   58.3590   29.0970   46.0000 C   0  0  0  0  0  0  0  0  0  0  0  0
  1  2  1  0
  2  3  1  0
  3  4  1  0
  4  5  1  0
  5  6  2  0
  5  7  1  0
  7  8  1  0
  8  9  1  0
  9 10  1  0
  9 11  2  3
 11 12  1  0
 12 13  1  0
 12 14  2  0
 14 15  1  0
 15 16  1  0
 16 17  2  0
 17 18  1  0
 18 19  1  0
 18 20  1  0
 20 21  1  0
 20 22  1  0
 20 23  1  0
 23 24  1  0
 23 25  1  0
 16 26  1  0
 26 27  1  0
 27 28  2  0
 28 29  1  0
 29 30  1  0
 29 31  1  0
 29 32  1  0
 32 33  2  0
 33 34  1  0
 33 35  1  0
 35 36  1  0
 35 37  2  0
 37 38  1  0
 37 39  1  0
 39 40  1  0
 39 41  2  0
 41 42  1  0
 42 43  1  0
 43 44  1  0
 43 45  1  0
 43 46  1  0
 27 47  1  0
 47 48  2  0
  8  3  2  0
 48 11  1  0
 48 15  1  0
 23 18  1  0
 41 32  1  0
M  CHG  3   4  -1   7  -1  26  -1
M  END
>  <UniqueID>  (63) 
53

>  <SMILES>  (63) 
COc1ccccc1C/N=c1\nc2c(=Cc3[n-]c(=O)[n-]c3O)cnn2/c(=N/C2CC2)[n-]1

>  <Energy>  (63) 
399.56424775721155

>  <Genealogy>  (63) 
COc1ccccc1CN=c1nc2c(=Cc3[n-]c(=O)[n-]c3O)cnn2c(=NC2CC2)[n-]1 (protonated)
COc1ccccc1C/N=c1\nc2c(=Cc3[n-]c(=O)[n-]c3O)cnn2/c(=N/C2CC2)[n-]1 (cis-trans isomerization)
COc1ccccc1C/N=c1\nc2c(=Cc3[n-]c(=O)[n-]c3O)cnn2/c(=N/C2CC2)[n-]1 (3D coordinates assigned)
COc1ccccc1C/N=c1\nc2c(=Cc3[n-]c(=O)[n-]c3O)cnn2/c(=N/C2CC2)[n-]1 (nonaromatic ring conformer: 399.56424775721155 kcal/mol)

>  <smiles>  (63) 
COc1ccccc1CN=c1nc2c(=Cc3[nH]c(=O)[nH]c3O)cnn2c(=NC2CC2)[nH]1

>  <score_type>  (63) 
oracle

>  <origin>  (63) 
adg

>  <m_score__min__energy>  (63) 
-14.49

>  <m_primary>  (63) 
energy

$$$$
64:0
     RDKit          3D

 27 27  0  0  0  0  0  0  0  0999 V2000
   58.9402   35.2390   45.2091 H   0  0  0  0  0  0  0  0  0  0  0  0
   58.4050   34.2780   45.2020 C   0  0  0  0  0  0  0  0  0  0  0  0
   57.5216   34.1452   44.5602 H   0  0  0  0  0  0  0  0  0  0  0  0
   58.8280   33.2720   45.9730 C   0  0  0  0  0  0  0  0  0  0  0  0
   59.7128   33.4190   46.6097 H   0  0  0  0  0  0  0  0  0  0  0  0
   58.1240   31.9450   45.9910 C   0  0  0  0  0  0  0  0  0  0  0  0
   58.8631   31.1397   45.8673 H   0  0  0  0  0  0  0  0  0  0  0  0
   57.6002   31.8292   46.9513 H   0  0  0  0  0  0  0  0  0  0  0  0
   57.1490   31.8770   44.9040 N   0  0  0  0  0  0  0  0  0  0  0  0
   56.6230   32.7520   44.6800 H   0  0  0  0  0  0  0  0  0  0  0  0
   57.1850   30.8440   43.9070 C   0  0  0  0  0  0  0  0  0  0  0  0
   57.0160   31.2520   42.3310 S   0  0  0  0  0  0  0  0  0  0  0  0
   57.4190   29.4250   44.2480 C   0  0  0  0  0  0  0  0  0  0  0  0
   58.2723   28.9197   43.7719 H   0  0  0  0  0  0  0  0  0  0  0  0
   56.6660   28.7090   45.0960 C   0  0  0  0  0  0  0  0  0  0  0  0
   55.6679   29.0986   45.3451 H   0  0  0  0  0  0  0  0  0  0  0  0
   57.0800   27.4330   45.7210 C   0  0  0  0  0  0  0  0  0  0  0  0
   58.4490   27.1420   45.8190 C   0  0  0  0  0  0  0  0  0  0  0  0
   59.1893   27.8577   45.4320 H   0  0  0  0  0  0  0  0  0  0  0  0
   58.8780   25.9470   46.4060 C   0  0  0  0  0  0  0  0  0  0  0  0
   59.9533   25.7326   46.4943 H   0  0  0  0  0  0  0  0  0  0  0  0
   57.9410   25.0260   46.8800 C   0  0  0  0  0  0  0  0  0  0  0  0
   58.2791   24.0918   47.3522 H   0  0  0  0  0  0  0  0  0  0  0  0
   56.5750   25.2900   46.7550 C   0  0  0  0  0  0  0  0  0  0  0  0
   55.8396   24.5583   47.1208 H   0  0  0  0  0  0  0  0  0  0  0  0
   56.1390   26.4820   46.1660 C   0  0  0  0  0  0  0  0  0  0  0  0
   54.7740   26.7000   46.0080 O   0  0  0  0  0  0  0  0  0  0  0  0
  1  2  1  0
  2  3  1  0
  2  4  2  0
  4  5  1  0
  4  6  1  0
  6  7  1  0
  6  8  1  0
  6  9  1  0
  9 10  1  0
  9 11  1  0
 11 12  2  0
 11 13  1  0
 13 14  1  0
 13 15  2  0
 15 16  1  0
 15 17  1  0
 17 18  2  0
 18 19  1  0
 18 20  1  0
 20 21  1  0
 20 22  2  0
 22 23  1  0
 22 24  1  0
 24 25  1  0
 24 26  2  0
 26 27  1  0
 26 17  1  0
M  CHG  1  27  -1
M  END
>  <UniqueID>  (64) 
54

>  <SMILES>  (64) 
C=CCNC(=S)/C=C\c1ccccc1[O-]

>  <Energy>  (64) 
31.947915134657237

>  <Genealogy>  (64) 
C=CCNC(=S)C=Cc1ccccc1[O-] (protonated)
C=CCNC(=S)/C=C\c1ccccc1[O-] (cis-trans isomerization)
C=CCNC(=S)/C=C\c1ccccc1[O-] (3D coordinates assigned)
C=CCNC(=S)/C=C\c1ccccc1[O-] (optimized conformer: 31.947915134657237 kcal/mol)

>  <smiles>  (64) 
C=CCNC(=S)C=Cc1ccccc1O

>  <score_type>  (64) 
oracle

>  <origin>  (64) 
adg

>  <m_score__min__energy>  (64) 
-9.7699999999999996

>  <m_primary>  (64) 
energy

$$$$
65:0
     RDKit          3D

 49 51  0  0  0  0  0  0  0  0999 V2000
   57.2960   33.9000   45.4720 C   0  0  0  0  0  0  0  0  0  0  0  0
   57.6400   32.2730   44.8410 S   0  0  0  0  0  0  0  0  0  0  0  0
   58.4510   32.3920   43.5810 O   0  0  0  0  0  0  0  0  0  0  0  0
   56.3510   31.5710   44.5180 O   0  0  0  0  0  0  0  0  0  0  0  0
   58.5190   31.3690   46.0380 N   0  0  0  0  0  0  0  0  0  0  0  0
   59.1300   32.0610   47.1450 C   0  0  0  0  0  0  0  0  0  0  0  0
   58.4260   32.3880   48.1390 O   0  0  0  0  0  0  0  0  0  0  0  0
   60.5680   32.4200   47.1370 C   0  0  0  0  0  0  0  0  0  0  0  0
   61.0300   33.5260   46.4020 C   0  0  0  0  0  0  0  0  0  0  0  0
   62.3890   33.8580   46.4050 C   0  0  0  0  0  0  0  0  0  0  0  0
   63.2970   33.0860   47.1340 C   0  0  0  0  0  0  0  0  0  0  0  0
   62.8490   31.9760   47.8550 C   0  0  0  0  0  0  0  0  0  0  0  0
   61.4920   31.6400   47.8540 C   0  0  0  0  0  0  0  0  0  0  0  0
   58.8730   30.0090   45.7370 C   0  0  0  0  0  0  0  0  0  0  0  0
   60.2230   29.6390   45.6470 C   0  0  0  0  0  0  0  0  0  0  0  0
   60.5730   28.3250   45.3300 C   0  0  0  0  0  0  0  0  0  0  0  0
   59.5800   27.3670   45.1190 C   0  0  0  0  0  0  0  0  0  0  0  0
   58.2280   27.7100   45.2370 C   0  0  0  0  0  0  0  0  0  0  0  0
   57.2620   26.7160   45.0280 O   0  0  0  0  0  0  0  0  0  0  0  0
   57.2880   25.4340   45.5970 C   0  0  0  0  0  0  0  0  0  0  0  0
   56.7680   25.1800   46.8780 C   0  0  0  0  0  0  0  0  0  0  0  0
   56.8170   23.8900   47.4120 C   0  0  0  0  0  0  0  0  0  0  0  0
   57.3940   22.8500   46.6820 C   0  0  0  0  0  0  0  0  0  0  0  0
   57.9390   23.0900   45.4090 C   0  0  0  0  0  0  0  0  0  0  0  0
   58.5550   21.9800   44.6390 C   0  0  0  0  0  0  0  0  0  0  0  0
   57.7290   21.1130   43.8520 N   0  0  0  0  0  0  0  0  0  0  0  0
   59.8390   21.7790   44.6750 N   0  0  0  0  0  0  0  0  0  0  0  0
   57.8820   24.3910   44.8760 C   0  0  0  0  0  0  0  0  0  0  0  0
   57.8740   29.0420   45.5250 C   0  0  0  0  0  0  0  0  0  0  0  0
   56.5670   29.4050   45.5770 F   0  0  0  0  0  0  0  0  0  0  0  0
   57.3012   33.8754   46.5717 H   0  0  0  0  0  0  0  0  0  0  0  0
   58.0658   34.6012   45.1173 H   0  0  0  0  0  0  0  0  0  0  0  0
   56.3083   34.2296   45.1173 H   0  0  0  0  0  0  0  0  0  0  0  0
   60.3195   34.1331   45.8219 H   0  0  0  0  0  0  0  0  0  0  0  0
   62.7431   34.7280   45.8326 H   0  0  0  0  0  0  0  0  0  0  0  0
   64.3644   33.3519   47.1404 H   0  0  0  0  0  0  0  0  0  0  0  0
   63.5653   31.3655   48.4244 H   0  0  0  0  0  0  0  0  0  0  0  0
   61.1455   30.7609   48.4171 H   0  0  0  0  0  0  0  0  0  0  0  0
   61.0092   30.3871   45.8269 H   0  0  0  0  0  0  0  0  0  0  0  0
   61.6333   28.0443   45.2464 H   0  0  0  0  0  0  0  0  0  0  0  0
   59.8616   26.3361   44.8584 H   0  0  0  0  0  0  0  0  0  0  0  0
   56.3215   25.9988   47.4613 H   0  0  0  0  0  0  0  0  0  0  0  0
   56.3996   23.6935   48.4106 H   0  0  0  0  0  0  0  0  0  0  0  0
   57.4224   21.8354   47.1059 H   0  0  0  0  0  0  0  0  0  0  0  0
   56.7080   21.3030   43.7320 H   0  0  0  0  0  0  0  0  0  0  0  0
   58.1400   20.3020   43.3390 H   0  0  0  0  0  0  0  0  0  0  0  0
   60.2250   20.8360   44.9050 H   0  0  0  0  0  0  0  0  0  0  0  0
   60.5220   22.5510   44.5050 H   0  0  0  0  0  0  0  0  0  0  0  0
   58.3088   24.5908   43.8820 H   0  0  0  0  0  0  0  0  0  0  0  0
  1  2  1  0
  2  3  2  0
  2  4  2  0
  2  5  1  0
  5  6  1  0
  6  7  2  0
  6  8  1  0
  8  9  2  0
  9 10  1  0
 10 11  2  0
 11 12  1  0
 12 13  2  0
  5 14  1  0
 14 15  2  0
 15 16  1  0
 16 17  2  0
 17 18  1  0
 18 19  1  0
 19 20  1  0
 20 21  2  0
 21 22  1  0
 22 23  2  0
 23 24  1  0
 24 25  1  0
 25 26  1  0
 25 27  2  0
 24 28  2  0
 18 29  2  0
 29 30  1  0
 13  8  1  0
 29 14  1  0
 28 20  1  0
  1 31  1  0
  1 32  1  0
  1 33  1  0
  9 34  1  0
 10 35  1  0
 11 36  1  0
 12 37  1  0
 13 38  1  0
 15 39  1  0
 16 40  1  0
 17 41  1  0
 21 42  1  0
 22 43  1  0
 23 44  1  0
 26 45  1  0
 26 46  1  0
 27 47  1  0
 27 48  1  0
 28 49  1  0
M  CHG  1  27   1
M  END
>  <UniqueID>  (65) 
55

>  <SMILES>  (65) 
CS(=O)(=O)N(C(=O)c1ccccc1)c1cccc(Oc2cccc(C(N)=[NH2+])c2)c1F

>  <Energy>  (65) 
67.84444116981203

>  <Genealogy>  (65) 
CS(=O)(=O)N(C(=O)c1ccccc1)c1cccc(Oc2cccc(C(N)=[NH2+])c2)c1F (protonated)
CS(=O)(=O)N(C(=O)c1ccccc1)c1cccc(Oc2cccc(C(N)=[NH2+])c2)c1F (3D coordinates assigned)
CS(=O)(=O)N(C(=O)c1ccccc1)c1cccc(Oc2cccc(C(N)=[NH2+])c2)c1F (optimized conformer: 67.84444116981203 kcal/mol)

>  <smiles>  (65) 
CS(=O)(=O)N(C(=O)c1ccccc1)c1cccc(Oc2cccc(C(=N)N)c2)c1F

>  <score_type>  (65) 
oracle

>  <origin>  (65) 
adg

>  <m_score__min__energy>  (65) 
-8.3499999999999996

>  <m_primary>  (65) 
energy

$$$$
66:0
     RDKit          3D

 48 51  0  0  0  0  0  0  0  0999 V2000
   57.3900   21.8480   47.7760 O   0  0  0  0  0  0  0  0  0  0  0  0
   57.0470   22.1600   46.4660 C   0  0  0  0  0  0  0  0  0  0  0  0
   56.9920   21.1370   45.5120 C   0  0  0  0  0  0  0  0  0  0  0  0
   56.6460   21.4250   44.1900 C   0  0  0  0  0  0  0  0  0  0  0  0
   56.3520   22.7380   43.8150 C   0  0  0  0  0  0  0  0  0  0  0  0
   56.4050   23.7650   44.7610 C   0  0  0  0  0  0  0  0  0  0  0  0
   56.7590   23.4890   46.0930 C   0  0  0  0  0  0  0  0  0  0  0  0
   56.7780   24.6020   47.1090 C   0  0  0  0  0  0  0  0  0  0  0  0
   57.3000   25.8680   46.4940 C   0  0  0  0  0  0  0  0  0  0  0  0
   56.5470   26.9360   46.0180 C   0  0  0  0  0  0  0  0  0  0  0  0
   55.1570   26.9800   45.9990 O   0  0  0  0  0  0  0  0  0  0  0  0
   57.3390   27.9360   45.5650 N   0  0  0  0  0  0  0  0  0  0  0  0
   56.8970   29.1810   44.9330 C   0  0  0  0  0  0  0  0  0  0  0  0
   57.5400   30.3640   45.6090 C   0  0  0  0  0  0  0  0  0  0  0  0
   58.1360   30.2270   46.8710 C   0  0  0  0  0  0  0  0  0  0  0  0
   58.7890   31.3140   47.4760 C   0  0  0  0  0  0  0  0  0  0  0  0
   59.4040   31.1650   48.8460 C   0  0  0  0  0  0  0  0  0  0  0  0
   59.3370   29.8410   49.2340 F   0  0  0  0  0  0  0  0  0  0  0  0
   60.7290   31.5650   48.8330 F   0  0  0  0  0  0  0  0  0  0  0  0
   58.7290   31.9410   49.7730 F   0  0  0  0  0  0  0  0  0  0  0  0
   58.7870   32.5610   46.8280 C   0  0  0  0  0  0  0  0  0  0  0  0
   58.1670   32.7210   45.5780 C   0  0  0  0  0  0  0  0  0  0  0  0
   58.2270   34.0470   44.8600 C   0  0  0  0  0  0  0  0  0  0  0  0
   56.9530   34.5090   44.5760 F   0  0  0  0  0  0  0  0  0  0  0  0
   58.8670   34.9960   45.6380 F   0  0  0  0  0  0  0  0  0  0  0  0
   58.9230   33.8910   43.6760 F   0  0  0  0  0  0  0  0  0  0  0  0
   57.5710   31.6080   44.9620 C   0  0  0  0  0  0  0  0  0  0  0  0
   58.6070   27.5050   45.7470 C   0  0  0  0  0  0  0  0  0  0  0  0
   59.7950   28.1700   45.4290 C   0  0  0  0  0  0  0  0  0  0  0  0
   61.0110   27.5210   45.7040 C   0  0  0  0  0  0  0  0  0  0  0  0
   61.0200   26.2330   46.2820 C   0  0  0  0  0  0  0  0  0  0  0  0
   59.8130   25.5830   46.5920 C   0  0  0  0  0  0  0  0  0  0  0  0
   58.6190   26.2500   46.3140 C   0  0  0  0  0  0  0  0  0  0  0  0
   57.2223   20.1020   45.8049 H   0  0  0  0  0  0  0  0  0  0  0  0
   56.6050   20.6177   43.4439 H   0  0  0  0  0  0  0  0  0  0  0  0
   56.0784   22.9638   42.7738 H   0  0  0  0  0  0  0  0  0  0  0  0
   56.1681   24.7965   44.4613 H   0  0  0  0  0  0  0  0  0  0  0  0
   55.7557   24.7734   47.4771 H   0  0  0  0  0  0  0  0  0  0  0  0
   57.4375   24.3128   47.9405 H   0  0  0  0  0  0  0  0  0  0  0  0
   57.1819   29.1704   43.8706 H   0  0  0  0  0  0  0  0  0  0  0  0
   55.8042   29.2635   45.0277 H   0  0  0  0  0  0  0  0  0  0  0  0
   58.0918   29.2593   47.3922 H   0  0  0  0  0  0  0  0  0  0  0  0
   59.2770   33.4223   47.3056 H   0  0  0  0  0  0  0  0  0  0  0  0
   57.1242   31.7132   43.9623 H   0  0  0  0  0  0  0  0  0  0  0  0
   59.7785   29.1725   44.9765 H   0  0  0  0  0  0  0  0  0  0  0  0
   61.9622   28.0201   45.4672 H   0  0  0  0  0  0  0  0  0  0  0  0
   61.9781   25.7348   46.4912 H   0  0  0  0  0  0  0  0  0  0  0  0
   59.8095   24.5785   47.0404 H   0  0  0  0  0  0  0  0  0  0  0  0
  1  2  1  0
  2  3  2  0
  3  4  1  0
  4  5  2  0
  5  6  1  0
  6  7  2  0
  7  8  1  0
  8  9  1  0
  9 10  2  0
 10 11  1  0
 10 12  1  0
 12 13  1  0
 13 14  1  0
 14 15  2  0
 15 16  1  0
 16 17  1  0
 17 18  1  0
 17 19  1  0
 17 20  1  0
 16 21  2  0
 21 22  1  0
 22 23  1  0
 23 24  1  0
 23 25  1  0
 23 26  1  0
 22 27  2  0
 12 28  1  0
 28 29  2  0
 29 30  1  0
 30 31  2  0
 31 32  1  0
 32 33  2  0
  7  2  1  0
 33  9  1  0
 27 14  1  0
 33 28  1  0
  3 34  1  0
  4 35  1  0
  5 36  1  0
  6 37  1  0
  8 38  1  0
  8 39  1  0
 13 40  1  0
 13 41  1  0
 15 42  1  0
 21 43  1  0
 27 44  1  0
 29 45  1  0
 30 46  1  0
 31 47  1  0
 32 48  1  0
M  CHG  2   1  -1  11  -1
M  END
>  <UniqueID>  (66) 
56

>  <SMILES>  (66) 
[O-]c1ccccc1Cc1c([O-])n(Cc2cc(C(F)(F)F)cc(C(F)(F)F)c2)c2ccccc12

>  <Energy>  (66) 
86.21122537867721

>  <Genealogy>  (66) 
[O-]c1ccccc1Cc1c([O-])n(Cc2cc(C(F)(F)F)cc(C(F)(F)F)c2)c2ccccc12 (protonated)
[O-]c1ccccc1Cc1c([O-])n(Cc2cc(C(F)(F)F)cc(C(F)(F)F)c2)c2ccccc12 (3D coordinates assigned)
[O-]c1ccccc1Cc1c([O-])n(Cc2cc(C(F)(F)F)cc(C(F)(F)F)c2)c2ccccc12 (optimized conformer: 86.21122537867721 kcal/mol)

>  <smiles>  (66) 
Oc1ccccc1Cc1c(O)n(Cc2cc(C(F)(F)F)cc(C(F)(F)F)c2)c2ccccc12

>  <score_type>  (66) 
oracle

>  <origin>  (66) 
adg

>  <m_score__min__energy>  (66) 
-13.1

>  <m_primary>  (66) 
energy

$$$$
67:0
     RDKit          3D

 52 55  0  0  0  0  0  0  0  0999 V2000
   59.6540   35.6380   46.2660 C   0  0  0  0  0  0  0  0  0  0  0  0
   59.2130   34.1990   46.2110 C   0  0  0  0  0  0  0  0  0  0  0  0
   58.2220   33.8290   45.2880 C   0  0  0  0  0  0  0  0  0  0  0  0
   57.8020   32.5020   45.1860 C   0  0  0  0  0  0  0  0  0  0  0  0
   58.3580   31.5110   46.0110 C   0  0  0  0  0  0  0  0  0  0  0  0
   57.9230   30.0990   45.8930 C   0  0  0  0  0  0  0  0  0  0  0  0
   56.8830   29.8140   45.2400 O   0  0  0  0  0  0  0  0  0  0  0  0
   58.7110   29.0540   46.4820 N   0  0  0  0  0  0  0  0  0  0  0  0
   58.5550   27.6430   46.2710 C   0  0  0  0  0  0  0  0  0  0  0  0
   59.7030   26.8470   46.1800 C   0  0  0  0  0  0  0  0  0  0  0  0
   59.5950   25.4670   45.9980 C   0  0  0  0  0  0  0  0  0  0  0  0
   58.3360   24.8670   45.9170 C   0  0  0  0  0  0  0  0  0  0  0  0
   57.1780   25.6470   46.0240 C   0  0  0  0  0  0  0  0  0  0  0  0
   55.5880   24.8930   45.9630 S   0  0  0  0  0  0  0  0  0  0  0  0
   54.3690   26.1160   45.9350 N   0  0  0  0  0  0  0  0  0  0  0  0
   55.3880   24.0140   47.1650 O   0  0  0  0  0  0  0  0  0  0  0  0
   55.4790   24.0480   44.7240 O   0  0  0  0  0  0  0  0  0  0  0  0
   57.2880   27.0320   46.2140 C   0  0  0  0  0  0  0  0  0  0  0  0
   59.3350   31.8810   46.9520 C   0  0  0  0  0  0  0  0  0  0  0  0
   59.7560   33.2160   47.0720 C   0  0  0  0  0  0  0  0  0  0  0  0
   60.7680   33.5490   48.1020 C   0  0  0  0  0  0  0  0  0  0  0  0
   62.0870   33.8400   47.7240 C   0  0  0  0  0  0  0  0  0  0  0  0
   63.0430   34.1570   48.6930 C   0  0  0  0  0  0  0  0  0  0  0  0
   62.6940   34.1670   50.0460 C   0  0  0  0  0  0  0  0  0  0  0  0
   61.3850   33.8410   50.4410 C   0  0  0  0  0  0  0  0  0  0  0  0
   60.9810   33.8540   51.8180 N   0  0  0  0  0  0  0  0  0  0  0  0
   59.6380   33.7560   52.3120 C   0  0  0  0  0  0  0  0  0  0  0  0
   59.1720   34.6350   53.0830 O   0  0  0  0  0  0  0  0  0  0  0  0
   58.8160   32.5920   51.9590 C   0  0  0  0  0  0  0  0  0  0  0  0
   57.4290   32.5190   52.0230 C   0  0  0  0  0  0  0  0  0  0  0  0
   56.9230   31.2750   51.6270 C   0  0  0  0  0  0  0  0  0  0  0  0
   57.9050   30.3670   51.2500 C   0  0  0  0  0  0  0  0  0  0  0  0
   59.4030   31.1130   51.4110 S   0  0  0  0  0  0  0  0  0  0  0  0
   60.4250   33.5490   49.4640 C   0  0  0  0  0  0  0  0  0  0  0  0
   59.7503   35.9521   47.3158 H   0  0  0  0  0  0  0  0  0  0  0  0
   60.6256   35.7433   45.7612 H   0  0  0  0  0  0  0  0  0  0  0  0
   58.9082   36.2696   45.7612 H   0  0  0  0  0  0  0  0  0  0  0  0
   57.7715   34.5935   44.6379 H   0  0  0  0  0  0  0  0  0  0  0  0
   57.0285   32.2299   44.4528 H   0  0  0  0  0  0  0  0  0  0  0  0
   60.6972   27.3121   46.2524 H   0  0  0  0  0  0  0  0  0  0  0  0
   60.5029   24.8510   45.9182 H   0  0  0  0  0  0  0  0  0  0  0  0
   58.2542   23.7801   45.7689 H   0  0  0  0  0  0  0  0  0  0  0  0
   54.7800   26.9670   46.3820 H   0  0  0  0  0  0  0  0  0  0  0  0
   56.3800   27.6439   46.3190 H   0  0  0  0  0  0  0  0  0  0  0  0
   59.7766   31.1133   47.6044 H   0  0  0  0  0  0  0  0  0  0  0  0
   62.3700   33.8186   46.6612 H   0  0  0  0  0  0  0  0  0  0  0  0
   64.0723   34.3991   48.3899 H   0  0  0  0  0  0  0  0  0  0  0  0
   63.4459   34.4308   50.8043 H   0  0  0  0  0  0  0  0  0  0  0  0
   56.7933   33.3544   52.3516 H   0  0  0  0  0  0  0  0  0  0  0  0
   55.8488   31.0386   51.6154 H   0  0  0  0  0  0  0  0  0  0  0  0
   57.7319   29.3368   50.9053 H   0  0  0  0  0  0  0  0  0  0  0  0
   59.3929   33.3175   49.7661 H   0  0  0  0  0  0  0  0  0  0  0  0
  1  2  1  0
  2  3  2  0
  3  4  1  0
  4  5  2  0
  5  6  1  0
  6  7  2  0
  6  8  1  0
  8  9  1  0
  9 10  2  0
 10 11  1  0
 11 12  2  0
 12 13  1  0
 13 14  1  0
 14 15  1  0
 14 16  2  0
 14 17  2  0
 13 18  2  0
  5 19  1  0
 19 20  2  0
 20 21  1  0
 21 22  2  0
 22 23  1  0
 23 24  2  0
 24 25  1  0
 25 26  1  0
 26 27  1  0
 27 28  2  0
 27 29  1  0
 29 30  2  0
 30 31  1  0
 31 32  2  0
 32 33  1  0
 25 34  2  0
 20  2  1  0
 34 21  1  0
 18  9  1  0
 33 29  1  0
  1 35  1  0
  1 36  1  0
  1 37  1  0
  3 38  1  0
  4 39  1  0
 10 40  1  0
 11 41  1  0
 12 42  1  0
 15 43  1  0
 18 44  1  0
 19 45  1  0
 22 46  1  0
 23 47  1  0
 24 48  1  0
 30 49  1  0
 31 50  1  0
 32 51  1  0
 34 52  1  0
M  CHG  3   8  -1  15  -1  26  -1
M  END
>  <UniqueID>  (67) 
57

>  <SMILES>  (67) 
Cc1ccc(C(=O)[N-]c2cccc(S([NH-])(=O)=O)c2)cc1-c1cccc([N-]C(=O)c2cccs2)c1

>  <Energy>  (67) 
96.58259389357059

>  <Genealogy>  (67) 
Cc1ccc(C(=O)[N-]c2cccc(S([NH-])(=O)=O)c2)cc1-c1cccc([N-]C(=O)c2cccs2)c1 (protonated)
Cc1ccc(C(=O)[N-]c2cccc(S([NH-])(=O)=O)c2)cc1-c1cccc([N-]C(=O)c2cccs2)c1 (3D coordinates assigned)
Cc1ccc(C(=O)[N-]c2cccc(S([NH-])(=O)=O)c2)cc1-c1cccc([N-]C(=O)c2cccs2)c1 (optimized conformer: 96.58259389357059 kcal/mol)

>  <smiles>  (67) 
Cc1ccc(C(=O)Nc2cccc(S(N)(=O)=O)c2)cc1-c1cccc(NC(=O)c2cccs2)c1

>  <score_type>  (67) 
oracle

>  <origin>  (67) 
adg

>  <m_score__min__energy>  (67) 
-16.120000000000001

>  <m_primary>  (67) 
energy

$$$$
68:0
     RDKit          3D

 22 22  0  0  0  0  0  0  0  0999 V2000
   60.7100   34.5940   48.5260 C   0  0  0  0  0  0  0  0  0  0  0  0
   59.9850   34.9690   47.3580 O   0  0  0  0  0  0  0  0  0  0  0  0
   59.1660   34.1000   46.6210 C   0  0  0  0  0  0  0  0  0  0  0  0
   58.8870   34.3030   45.2560 C   0  0  0  0  0  0  0  0  0  0  0  0
   58.0650   33.4070   44.5660 C   0  0  0  0  0  0  0  0  0  0  0  0
   57.5090   32.3010   45.2180 C   0  0  0  0  0  0  0  0  0  0  0  0
   56.6930   31.4360   44.4750 O   0  0  0  0  0  0  0  0  0  0  0  0
   56.5950   29.7450   44.7130 S   0  0  0  0  0  0  0  0  0  0  0  0
   57.3760   28.9240   43.4080 N   0  0  0  0  0  0  0  0  0  0  0  0
   57.2550   29.3750   46.0110 O   0  0  0  0  0  0  0  0  0  0  0  0
   55.1480   29.3390   44.7610 O   0  0  0  0  0  0  0  0  0  0  0  0
   57.7870   32.1000   46.5830 C   0  0  0  0  0  0  0  0  0  0  0  0
   58.6100   32.9950   47.2730 C   0  0  0  0  0  0  0  0  0  0  0  0
   60.1415   34.8881   49.4206 H   0  0  0  0  0  0  0  0  0  0  0  0
   60.8615   33.5045   48.5295 H   0  0  0  0  0  0  0  0  0  0  0  0
   61.6867   35.1000   48.5295 H   0  0  0  0  0  0  0  0  0  0  0  0
   59.3169   35.1688   44.7311 H   0  0  0  0  0  0  0  0  0  0  0  0
   57.8532   33.5733   43.4995 H   0  0  0  0  0  0  0  0  0  0  0  0
   56.6430   28.3690   42.9110 H   0  0  0  0  0  0  0  0  0  0  0  0
   57.7060   29.6570   42.7400 H   0  0  0  0  0  0  0  0  0  0  0  0
   57.3552   31.2356   47.1088 H   0  0  0  0  0  0  0  0  0  0  0  0
   58.8223   32.8283   48.3394 H   0  0  0  0  0  0  0  0  0  0  0  0
  1  2  1  0
  2  3  1  0
  3  4  2  0
  4  5  1  0
  5  6  2  0
  6  7  1  0
  7  8  1  0
  8  9  1  0
  8 10  2  0
  8 11  2  0
  6 12  1  0
 12 13  2  0
 13  3  1  0
  1 14  1  0
  1 15  1  0
  1 16  1  0
  4 17  1  0
  5 18  1  0
  9 19  1  0
  9 20  1  0
 12 21  1  0
 13 22  1  0
M  END
>  <UniqueID>  (68) 
58

>  <SMILES>  (68) 
COc1ccc(OS(N)(=O)=O)cc1

>  <Energy>  (68) 
16.341882758493153

>  <Genealogy>  (68) 
COc1ccc(OS(N)(=O)=O)cc1 (3D coordinates assigned)
COc1ccc(OS(N)(=O)=O)cc1 (optimized conformer: 16.341882758493153 kcal/mol)

>  <smiles>  (68) 
COc1ccc(OS(N)(=O)=O)cc1

>  <score_type>  (68) 
oracle

>  <origin>  (68) 
adg

>  <m_score__min__energy>  (68) 
-5.8499999999999996

>  <m_primary>  (68) 
energy

$$$$
69:0
     RDKit          3D

 48 50  0  0  0  0  0  0  0  0999 V2000
   55.0070   26.3710   46.1660 N   0  0  0  0  0  0  0  0  0  0  0  0
   56.4280   26.2670   46.0900 C   0  0  0  0  0  0  0  0  0  0  0  0
   56.9620   25.1250   46.0370 O   0  0  0  0  0  0  0  0  0  0  0  0
   57.2680   27.4860   46.0680 C   0  0  0  0  0  0  0  0  0  0  0  0
   58.1190   27.7900   47.1480 C   0  0  0  0  0  0  0  0  0  0  0  0
   58.9220   28.9310   47.1220 C   0  0  0  0  0  0  0  0  0  0  0  0
   58.8880   29.7830   46.0200 C   0  0  0  0  0  0  0  0  0  0  0  0
   58.0240   29.5180   44.9500 C   0  0  0  0  0  0  0  0  0  0  0  0
   58.0030   30.3590   43.7920 N   0  0  0  0  0  0  0  0  0  0  0  0
   57.8370   31.7830   43.7790 C   0  0  0  0  0  0  0  0  0  0  0  0
   58.1910   32.4210   42.7520 O   0  0  0  0  0  0  0  0  0  0  0  0
   57.0930   32.5030   44.8730 C   0  0  0  0  0  0  0  0  0  0  0  0
   57.9690   33.4610   45.5660 N   0  0  0  0  0  0  0  0  0  0  0  0
   58.5510   34.4670   44.8460 C   0  0  0  0  0  0  0  0  0  0  0  0
   59.4200   35.3700   45.4560 C   0  0  0  0  0  0  0  0  0  0  0  0
   59.6740   35.2620   46.8180 C   0  0  0  0  0  0  0  0  0  0  0  0
   59.0650   34.2580   47.5650 C   0  0  0  0  0  0  0  0  0  0  0  0
   59.2970   34.2170   48.9790 N   0  0  0  0  0  0  0  0  0  0  0  0
   60.2050   32.9720   49.7730 S   0  0  0  0  0  0  0  0  0  0  0  0
   59.5880   31.6370   49.4700 O   0  0  0  0  0  0  0  0  0  0  0  0
   60.1790   33.1940   51.2640 O   0  0  0  0  0  0  0  0  0  0  0  0
   61.8610   32.9770   49.1630 C   0  0  0  0  0  0  0  0  0  0  0  0
   62.0950   33.2770   47.8170 C   0  0  0  0  0  0  0  0  0  0  0  0
   63.3980   33.3330   47.3230 C   0  0  0  0  0  0  0  0  0  0  0  0
   64.4800   33.1080   48.1760 C   0  0  0  0  0  0  0  0  0  0  0  0
   64.2650   32.8330   49.5380 C   0  0  0  0  0  0  0  0  0  0  0  0
   65.4250   32.5620   50.4620 C   0  0  0  0  0  0  0  0  0  0  0  0
   65.3530   33.4140   51.5470 F   0  0  0  0  0  0  0  0  0  0  0  0
   65.4080   31.2520   50.9140 F   0  0  0  0  0  0  0  0  0  0  0  0
   66.6190   32.7760   49.8020 F   0  0  0  0  0  0  0  0  0  0  0  0
   62.9470   32.7390   50.0180 C   0  0  0  0  0  0  0  0  0  0  0  0
   58.2400   33.3230   46.9050 C   0  0  0  0  0  0  0  0  0  0  0  0
   57.7730   32.3430   47.5440 O   0  0  0  0  0  0  0  0  0  0  0  0
   57.2330   28.3580   44.9680 C   0  0  0  0  0  0  0  0  0  0  0  0
   54.5580   27.0900   46.7690 H   0  0  0  0  0  0  0  0  0  0  0  0
   58.1511   27.1214   48.0209 H   0  0  0  0  0  0  0  0  0  0  0  0
   59.5822   29.1579   47.9720 H   0  0  0  0  0  0  0  0  0  0  0  0
   59.5421   30.6669   45.9903 H   0  0  0  0  0  0  0  0  0  0  0  0
   56.2435   33.0459   44.4329 H   0  0  0  0  0  0  0  0  0  0  0  0
   56.7397   31.7602   45.6034 H   0  0  0  0  0  0  0  0  0  0  0  0
   58.3309   34.5649   43.7727 H   0  0  0  0  0  0  0  0  0  0  0  0
   59.9012   36.1623   44.8637 H   0  0  0  0  0  0  0  0  0  0  0  0
   60.3579   35.9716   47.3067 H   0  0  0  0  0  0  0  0  0  0  0  0
   61.2464   33.4699   47.1442 H   0  0  0  0  0  0  0  0  0  0  0  0
   63.5734   33.5547   46.2600 H   0  0  0  0  0  0  0  0  0  0  0  0
   65.5058   33.1461   47.7806 H   0  0  0  0  0  0  0  0  0  0  0  0
   62.7663   32.4771   51.0710 H   0  0  0  0  0  0  0  0  0  0  0  0
   56.5800   28.1303   44.1126 H   0  0  0  0  0  0  0  0  0  0  0  0
  1  2  1  0
  2  3  2  0
  2  4  1  0
  4  5  2  0
  5  6  1  0
  6  7  2  0
  7  8  1  0
  8  9  1  0
  9 10  1  0
 10 11  2  0
 10 12  1  0
 12 13  1  0
 13 14  1  0
 14 15  2  0
 15 16  1  0
 16 17  2  0
 17 18  1  0
 18 19  1  0
 19 20  2  0
 19 21  2  0
 19 22  1  0
 22 23  2  0
 23 24  1  0
 24 25  2  0
 25 26  1  0
 26 27  1  0
 27 28  1  0
 27 29  1  0
 27 30  1  0
 26 31  2  0
 17 32  1  0
 32 33  2  0
  8 34  2  0
 34  4  1  0
 32 13  1  0
 31 22  1  0
  1 35  1  0
  5 36  1  0
  6 37  1  0
  7 38  1  0
 12 39  1  0
 12 40  1  0
 14 41  1  0
 15 42  1  0
 16 43  1  0
 23 44  1  0
 24 45  1  0
 25 46  1  0
 31 47  1  0
 34 48  1  0
M  CHG  3   1  -1   9  -1  18  -1
M  END
>  <UniqueID>  (69) 
59

>  <SMILES>  (69) 
[NH-]C(=O)c1cccc([N-]C(=O)Cn2cccc([N-]S(=O)(=O)c3cccc(C(F)(F)F)c3)c2=O)c1

>  <Energy>  (69) 
65.40429847670136

>  <Genealogy>  (69) 
[NH-]C(=O)c1cccc([N-]C(=O)Cn2cccc([N-]S(=O)(=O)c3cccc(C(F)(F)F)c3)c2=O)c1 (protonated)
[NH-]C(=O)c1cccc([N-]C(=O)Cn2cccc([N-]S(=O)(=O)c3cccc(C(F)(F)F)c3)c2=O)c1 (3D coordinates assigned)
[NH-]C(=O)c1cccc([N-]C(=O)Cn2cccc([N-]S(=O)(=O)c3cccc(C(F)(F)F)c3)c2=O)c1 (optimized conformer: 65.40429847670136 kcal/mol)

>  <smiles>  (69) 
NC(=O)c1cccc(NC(=O)Cn2cccc(NS(=O)(=O)c3cccc(C(F)(F)F)c3)c2=O)c1

>  <score_type>  (69) 
oracle

>  <origin>  (69) 
adg

>  <m_score__min__energy>  (69) 
-14.33

>  <m_primary>  (69) 
energy

$$$$
70:0
     RDKit          3D

 45 47  0  0  0  0  0  0  0  0999 V2000
   57.3850   30.9580   44.1020 C   0  0  0  0  0  0  0  0  0  0  0  0
   56.6080   31.9530   44.8320 N   0  0  0  0  0  0  0  0  0  0  0  0
   57.5390   33.4090   45.0170 S   0  0  0  0  0  0  0  0  0  0  0  0
   56.6410   34.6080   44.8830 O   0  0  0  0  0  0  0  0  0  0  0  0
   58.5750   33.4700   43.9320 O   0  0  0  0  0  0  0  0  0  0  0  0
   58.3420   33.4280   46.5860 C   0  0  0  0  0  0  0  0  0  0  0  0
   59.1060   34.5370   46.9670 C   0  0  0  0  0  0  0  0  0  0  0  0
   59.7540   34.5510   48.2020 C   0  0  0  0  0  0  0  0  0  0  0  0
   59.6490   33.4560   49.0640 C   0  0  0  0  0  0  0  0  0  0  0  0
   58.8910   32.3290   48.6950 C   0  0  0  0  0  0  0  0  0  0  0  0
   58.7880   31.1620   49.6010 C   0  0  0  0  0  0  0  0  0  0  0  0
   59.6190   30.2170   49.5090 O   0  0  0  0  0  0  0  0  0  0  0  0
   57.7740   31.1320   50.6160 N   0  0  0  0  0  0  0  0  0  0  0  0
   57.8770   31.6380   51.9560 C   0  0  0  0  0  0  0  0  0  0  0  0
   58.8520   32.5950   52.2990 C   0  0  0  0  0  0  0  0  0  0  0  0
   58.9800   33.0350   53.6180 C   0  0  0  0  0  0  0  0  0  0  0  0
   58.1500   32.5180   54.6120 C   0  0  0  0  0  0  0  0  0  0  0  0
   57.1950   31.5530   54.2920 C   0  0  0  0  0  0  0  0  0  0  0  0
   57.0550   31.0940   52.9710 C   0  0  0  0  0  0  0  0  0  0  0  0
   56.0310   30.0670   52.6600 C   0  0  0  0  0  0  0  0  0  0  0  0
   56.3630   29.0280   52.0290 O   0  0  0  0  0  0  0  0  0  0  0  0
   54.6480   30.2540   52.9920 N   0  0  0  0  0  0  0  0  0  0  0  0
   53.5840   30.5190   52.0660 C   0  0  0  0  0  0  0  0  0  0  0  0
   53.4710   29.7200   50.9200 C   0  0  0  0  0  0  0  0  0  0  0  0
   52.4380   29.9430   50.0050 C   0  0  0  0  0  0  0  0  0  0  0  0
   51.5010   30.9540   50.2360 C   0  0  0  0  0  0  0  0  0  0  0  0
   51.5920   31.7390   51.3900 C   0  0  0  0  0  0  0  0  0  0  0  0
   50.6520   32.7350   51.6270 O   0  0  0  0  0  0  0  0  0  0  0  0
   52.6240   31.5190   52.3070 C   0  0  0  0  0  0  0  0  0  0  0  0
   58.2400   32.3260   47.4470 C   0  0  0  0  0  0  0  0  0  0  0  0
   57.8999   30.2987   44.8163 H   0  0  0  0  0  0  0  0  0  0  0  0
   56.7127   30.3596   43.4696 H   0  0  0  0  0  0  0  0  0  0  0  0
   58.1285   31.4652   43.4696 H   0  0  0  0  0  0  0  0  0  0  0  0
   59.1957   35.3999   46.2907 H   0  0  0  0  0  0  0  0  0  0  0  0
   60.3497   35.4269   48.4985 H   0  0  0  0  0  0  0  0  0  0  0  0
   60.1619   33.4751   50.0369 H   0  0  0  0  0  0  0  0  0  0  0  0
   59.5176   32.9988   51.5219 H   0  0  0  0  0  0  0  0  0  0  0  0
   59.7371   33.7910   53.8734 H   0  0  0  0  0  0  0  0  0  0  0  0
   58.2484   32.8713   55.6491 H   0  0  0  0  0  0  0  0  0  0  0  0
   56.5451   31.1473   55.0813 H   0  0  0  0  0  0  0  0  0  0  0  0
   54.1980   28.9144   50.7399 H   0  0  0  0  0  0  0  0  0  0  0  0
   52.3624   29.3212   49.1008 H   0  0  0  0  0  0  0  0  0  0  0  0
   50.6930   31.1321   49.5111 H   0  0  0  0  0  0  0  0  0  0  0  0
   52.6857   32.1296   53.2199 H   0  0  0  0  0  0  0  0  0  0  0  0
   57.6458   31.4511   47.1444 H   0  0  0  0  0  0  0  0  0  0  0  0
  1  2  1  0
  2  3  1  0
  3  4  2  0
  3  5  2  0
  3  6  1  0
  6  7  2  0
  7  8  1  0
  8  9  2  0
  9 10  1  0
 10 11  1  0
 11 12  2  0
 11 13  1  0
 13 14  1  0
 14 15  2  0
 15 16  1  0
 16 17  2  0
 17 18  1  0
 18 19  2  0
 19 20  1  0
 20 21  2  0
 20 22  1  0
 22 23  1  0
 23 24  2  0
 24 25  1  0
 25 26  2  0
 26 27  1  0
 27 28  1  0
 27 29  2  0
 10 30  2  0
 30  6  1  0
 19 14  1  0
 29 23  1  0
  1 31  1  0
  1 32  1  0
  1 33  1  0
  7 34  1  0
  8 35  1  0
  9 36  1  0
 15 37  1  0
 16 38  1  0
 17 39  1  0
 18 40  1  0
 24 41  1  0
 25 42  1  0
 26 43  1  0
 29 44  1  0
 30 45  1  0
M  CHG  4   2  -1  13  -1  22  -1  28  -1
M  END
>  <UniqueID>  (70) 
60

>  <SMILES>  (70) 
C[N-]S(=O)(=O)c1cccc(C(=O)[N-]c2ccccc2C(=O)[N-]c2cccc([O-])c2)c1

>  <Energy>  (70) 
58.13443356967782

>  <Genealogy>  (70) 
C[N-]S(=O)(=O)c1cccc(C(=O)[N-]c2ccccc2C(=O)[N-]c2cccc([O-])c2)c1 (protonated)
C[N-]S(=O)(=O)c1cccc(C(=O)[N-]c2ccccc2C(=O)[N-]c2cccc([O-])c2)c1 (3D coordinates assigned)
C[N-]S(=O)(=O)c1cccc(C(=O)[N-]c2ccccc2C(=O)[N-]c2cccc([O-])c2)c1 (optimized conformer: 58.13443356967782 kcal/mol)

>  <smiles>  (70) 
CNS(=O)(=O)c1cccc(C(=O)Nc2ccccc2C(=O)Nc2cccc(O)c2)c1

>  <score_type>  (70) 
oracle

>  <origin>  (70) 
adg

>  <m_score__min__energy>  (70) 
-16.629999999999999

>  <m_primary>  (70) 
energy

$$$$
71:0
     RDKit          3D

 65 69  0  0  1  0  0  0  0  0999 V2000
   58.9320   29.7920   50.5770 C   0  0  0  0  0  0  0  0  0  0  0  0
   59.0720   31.2750   50.7270 C   0  0  0  0  0  0  0  0  0  0  0  0
   60.0020   31.9720   49.9490 C   0  0  0  0  0  0  0  0  0  0  0  0
   60.1220   33.3380   50.1000 C   0  0  0  0  0  0  0  0  0  0  0  0
   61.0540   34.1680   49.3780 C   0  0  0  0  0  0  0  0  0  0  0  0
   62.0760   34.5840   50.0050 O   0  0  0  0  0  0  0  0  0  0  0  0
   60.9430   34.5700   48.0250 N   0  0  0  0  0  0  0  0  0  0  0  0
   60.1340   33.9110   47.2620 C   0  0  0  0  0  0  0  0  0  0  0  0
   59.9340   32.5600   47.1140 C   0  0  0  0  0  0  0  0  0  0  0  0
   58.9580   32.3240   46.1670 C   0  0  0  0  0  0  0  0  0  0  0  0
   58.4310   31.0520   45.6920 C   0  0  0  0  0  0  0  0  0  0  0  0
   57.5390   30.9370   44.6570 C   0  0  0  0  0  0  0  0  0  0  0  0
   57.0680   29.6820   44.2430 C   0  0  0  0  0  0  0  0  0  0  0  0
   57.4640   28.5230   44.8340 C   0  0  0  0  0  0  0  0  0  0  0  0
   57.0470   27.2110   44.5540 N   0  0  0  0  0  0  0  0  0  0  0  0
   56.5490   26.0010   45.6240 S   0  0  0  0  0  0  0  0  0  0  0  0
   55.1880   26.3380   46.1990 O   0  0  0  0  0  0  0  0  0  0  0  0
   57.5070   25.9470   46.8090 O   0  0  0  0  0  0  0  0  0  0  0  0
   56.5150   24.4470   44.8800 C   0  0  0  0  0  0  0  0  0  0  0  0
   56.6880   24.1750   43.5440 C   0  0  0  0  0  0  0  0  0  0  0  0
   56.7140   22.9110   43.0060 C   0  0  0  0  0  0  0  0  0  0  0  0
   56.5590   21.8090   43.8360 C   0  0  0  0  0  0  0  0  0  0  0  0
   56.3830   22.0450   45.1840 C   0  0  0  0  0  0  0  0  0  0  0  0
   56.3590   23.3280   45.7060 C   0  0  0  0  0  0  0  0  0  0  0  0
   56.1280   23.5090   47.4100 Cl  0  0  0  0  0  0  0  0  0  0  0  0
   58.3800   28.6630   45.8940 C   0  0  0  0  0  0  0  0  0  0  0  0
   58.8450   29.8900   46.3050 C   0  0  0  0  0  0  0  0  0  0  0  0
   58.5780   33.5550   45.7490 N   0  0  0  0  0  0  0  0  0  0  0  0
   59.2590   34.4900   46.3850 N   0  0  0  0  0  0  0  0  0  0  0  0
   59.3020   33.9750   51.0280 C   0  0  0  0  0  0  0  0  0  0  0  0
   58.3840   33.3040   51.7980 C   0  0  0  0  0  0  0  0  0  0  0  0
   58.2750   31.9190   51.6350 C   0  0  0  0  0  0  0  0  0  0  0  0
   57.3180   31.2770   52.4640 N   0  0  0  0  0  0  0  0  0  0  0  0
   55.8890   31.5600   52.3910 C   0  0  0  0  0  0  0  0  0  0  0  0
   55.0930   30.2960   52.1370 C   0  0  0  0  0  0  0  0  0  0  0  0
   55.9230   29.1090   52.3730 N   0  0  0  0  0  0  0  0  0  0  0  0
   56.5180   29.3060   53.6830 C   0  0  0  0  0  0  0  0  0  0  0  0
   57.6960   30.2600   53.4590 C   0  0  0  0  0  0  0  0  0  0  0  0
   58.8879   29.3253   51.5721 H   0  0  0  0  0  0  0  0  0  0  0  0
   58.0084   29.5649   50.0243 H   0  0  0  0  0  0  0  0  0  0  0  0
   59.7968   29.3961   50.0243 H   0  0  0  0  0  0  0  0  0  0  0  0
   60.6318   31.4361   49.2236 H   0  0  0  0  0  0  0  0  0  0  0  0
   60.4737   31.7791   47.6699 H   0  0  0  0  0  0  0  0  0  0  0  0
   57.1870   31.8435   44.1429 H   0  0  0  0  0  0  0  0  0  0  0  0
   56.3518   29.6337   43.4095 H   0  0  0  0  0  0  0  0  0  0  0  0
   57.0410   26.9520   43.5080 H   0  0  0  0  0  0  0  0  0  0  0  0
   56.8141   25.0266   42.8593 H   0  0  0  0  0  0  0  0  0  0  0  0
   56.8568   22.7730   41.9241 H   0  0  0  0  0  0  0  0  0  0  0  0
   56.5759   20.7853   43.4338 H   0  0  0  0  0  0  0  0  0  0  0  0
   56.2581   21.1894   45.8640 H   0  0  0  0  0  0  0  0  0  0  0  0
   58.7359   27.7597   46.4112 H   0  0  0  0  0  0  0  0  0  0  0  0
   59.5607   29.9446   47.1386 H   0  0  0  0  0  0  0  0  0  0  0  0
   57.8510   33.7630   45.0280 H   0  0  0  0  0  0  0  0  0  0  0  0
   59.1300   35.5310   46.2210 H   0  0  0  0  0  0  0  0  0  0  0  0
   59.3937   35.0644   51.1497 H   0  0  0  0  0  0  0  0  0  0  0  0
   57.7527   33.8401   52.5219 H   0  0  0  0  0  0  0  0  0  0  0  0
   55.5622   32.0049   53.3424 H   0  0  0  0  0  0  0  0  0  0  0  0
   55.7136   32.2558   51.5573 H   0  0  0  0  0  0  0  0  0  0  0  0
   54.2263   30.2720   52.8140 H   0  0  0  0  0  0  0  0  0  0  0  0
   54.7567   30.2921   51.0897 H   0  0  0  0  0  0  0  0  0  0  0  0
   56.6710   29.1100   51.6510 H   0  0  0  0  0  0  0  0  0  0  0  0
   55.7876   29.7527   54.3736 H   0  0  0  0  0  0  0  0  0  0  0  0
   56.8427   28.3551   54.1306 H   0  0  0  0  0  0  0  0  0  0  0  0
   57.9548   30.7529   54.4077 H   0  0  0  0  0  0  0  0  0  0  0  0
   58.5645   29.6925   53.0933 H   0  0  0  0  0  0  0  0  0  0  0  0
  1  2  1  0
  2  3  2  0
  3  4  1  0
  4  5  1  0
  5  6  2  0
  5  7  1  0
  7  8  2  0
  8  9  1  0
  9 10  2  0
 10 11  1  0
 11 12  2  0
 12 13  1  0
 13 14  2  0
 14 15  1  0
 15 16  1  0
 16 17  2  0
 16 18  2  0
 16 19  1  0
 19 20  2  0
 20 21  1  0
 21 22  2  0
 22 23  1  0
 23 24  2  0
 24 25  1  0
 14 26  1  0
 26 27  2  0
 10 28  1  0
 28 29  1  0
  4 30  2  0
 30 31  1  0
 31 32  2  0
 32 33  1  0
 33 34  1  0
 34 35  1  0
 35 36  1  0
 36 37  1  0
 37 38  1  0
 32  2  1  0
 38 33  1  0
 29  8  1  0
 27 11  1  0
 24 19  1  0
  1 39  1  0
  1 40  1  0
  1 41  1  0
  3 42  1  0
  9 43  1  0
 12 44  1  0
 13 45  1  0
 15 46  1  0
 20 47  1  0
 21 48  1  0
 22 49  1  0
 23 50  1  0
 26 51  1  0
 27 52  1  0
 28 53  1  0
 29 54  1  0
 30 55  1  0
 31 56  1  0
 34 57  1  0
 34 58  1  0
 35 59  1  0
 35 60  1  0
 36 61  1  0
 37 62  1  0
 37 63  1  0
 38 64  1  0
 38 65  1  0
M  END
>  <smiles>  (71) 
Cc1cc(C(=O)N=c2cc(-c3ccc(NS(=O)(=O)c4ccccc4Cl)cc3)[nH][nH]2)ccc1N1CCNCC1

>  <score_type>  (71) 
oracle

>  <origin>  (71) 
adg

>  <m_score__min__energy>  (71) 
-11.07

>  <m_primary>  (71) 
energy

$$$$
72:0
     RDKit          3D

 26 28  0  0  0  0  0  0  0  0999 V2000
   55.5830   24.9900   46.6950 O   0  0  0  0  0  0  0  0  0  0  0  0
   56.2320   26.0030   46.3290 C   0  0  0  0  0  0  0  0  0  0  0  0
   57.6360   26.0750   46.5700 N   0  0  0  0  0  0  0  0  0  0  0  0
   58.4070   27.1910   46.1180 C   0  0  0  0  0  0  0  0  0  0  0  0
   59.6430   27.2170   46.3680 O   0  0  0  0  0  0  0  0  0  0  0  0
   57.7610   28.2840   45.3460 C   0  0  0  0  0  0  0  0  0  0  0  0
   58.5230   29.2600   44.8030 C   0  0  0  0  0  0  0  0  0  0  0  0
   58.0760   30.6340   44.5050 C   0  0  0  0  0  0  0  0  0  0  0  0
   57.6950   31.1500   43.2660 C   0  0  0  0  0  0  0  0  0  0  0  0
   57.5020   32.4870   43.3500 N   0  0  0  0  0  0  0  0  0  0  0  0
   57.7830   32.8230   44.6200 C   0  0  0  0  0  0  0  0  0  0  0  0
   57.7570   34.0990   45.1820 C   0  0  0  0  0  0  0  0  0  0  0  0
   58.1210   34.2300   46.5350 C   0  0  0  0  0  0  0  0  0  0  0  0
   58.5040   33.0960   47.2850 C   0  0  0  0  0  0  0  0  0  0  0  0
   58.5240   31.8210   46.6910 C   0  0  0  0  0  0  0  0  0  0  0  0
   58.1510   31.7220   45.3500 C   0  0  0  0  0  0  0  0  0  0  0  0
   56.2730   28.2470   45.2540 C   0  0  0  0  0  0  0  0  0  0  0  0
   55.6140   29.2460   44.8640 O   0  0  0  0  0  0  0  0  0  0  0  0
   55.5600   27.0870   45.6900 N   0  0  0  0  0  0  0  0  0  0  0  0
   59.5664   29.0078   44.5627 H   0  0  0  0  0  0  0  0  0  0  0  0
   57.5692   30.5542   42.3499 H   0  0  0  0  0  0  0  0  0  0  0  0
   57.2210   33.1280   42.5740 H   0  0  0  0  0  0  0  0  0  0  0  0
   57.4613   34.9754   44.5865 H   0  0  0  0  0  0  0  0  0  0  0  0
   58.1072   35.2214   47.0114 H   0  0  0  0  0  0  0  0  0  0  0  0
   58.7887   33.2107   48.3413 H   0  0  0  0  0  0  0  0  0  0  0  0
   58.8237   30.9315   47.2646 H   0  0  0  0  0  0  0  0  0  0  0  0
  1  2  2  0
  2  3  1  0
  3  4  1  0
  4  5  2  0
  4  6  1  0
  6  7  2  3
  7  8  1  0
  8  9  2  0
  9 10  1  0
 10 11  1  0
 11 12  2  0
 12 13  1  0
 13 14  2  0
 14 15  1  0
 15 16  2  0
  6 17  1  0
 17 18  2  0
 17 19  1  0
 19  2  1  0
 16  8  1  0
 16 11  1  0
  7 20  1  0
  9 21  1  0
 10 22  1  0
 12 23  1  0
 13 24  1  0
 14 25  1  0
 15 26  1  0
M  CHG  2   3  -1  19  -1
M  END
>  <UniqueID>  (72) 
61

>  <SMILES>  (72) 
O=C1[N-]C(=O)C(=Cc2c[nH]c3ccccc23)C(=O)[N-]1

>  <Energy>  (72) 
69.18902229254434

>  <Genealogy>  (72) 
O=C1[N-]C(=O)C(=Cc2c[nH]c3ccccc23)C(=O)[N-]1 (protonated)
O=C1[N-]C(=O)C(=Cc2c[nH]c3ccccc23)C(=O)[N-]1 (3D coordinates assigned)
O=C1[N-]C(=O)C(=Cc2c[nH]c3ccccc23)C(=O)[N-]1 (nonaromatic ring conformer: 69.18902229254434 kcal/mol)

>  <smiles>  (72) 
O=C1NC(=O)C(=Cc2c[nH]c3ccccc23)C(=O)N1

>  <score_type>  (72) 
oracle

>  <origin>  (72) 
adg

>  <m_score__min__energy>  (72) 
-11.390000000000001

>  <m_primary>  (72) 
energy

$$$$
73:0
     RDKit          3D

 53 57  0  0  0  0  0  0  0  0999 V2000
   55.1900   26.7060   45.9930 N   0  0  0  0  0  0  0  0  0  0  0  0
   56.8390   27.2270   45.9450 S   0  0  0  0  0  0  0  0  0  0  0  0
   57.3940   27.2280   47.3420 O   0  0  0  0  0  0  0  0  0  0  0  0
   57.6440   26.2850   45.0930 O   0  0  0  0  0  0  0  0  0  0  0  0
   56.9100   28.8450   45.2560 C   0  0  0  0  0  0  0  0  0  0  0  0
   56.1010   29.2020   44.1690 C   0  0  0  0  0  0  0  0  0  0  0  0
   56.1810   30.4890   43.6290 C   0  0  0  0  0  0  0  0  0  0  0  0
   57.0800   31.4190   44.1600 C   0  0  0  0  0  0  0  0  0  0  0  0
   57.9110   31.0670   45.2350 C   0  0  0  0  0  0  0  0  0  0  0  0
   58.8640   32.0600   45.7800 C   0  0  0  0  0  0  0  0  0  0  0  0
   58.9570   33.3170   45.3060 N   0  0  0  0  0  0  0  0  0  0  0  0
   59.8550   33.9490   46.0480 N   0  0  0  0  0  0  0  0  0  0  0  0
   60.3080   33.0690   46.9620 C   0  0  0  0  0  0  0  0  0  0  0  0
   61.3590   33.4070   47.9470 C   0  0  0  0  0  0  0  0  0  0  0  0
   62.7090   33.1930   47.6230 C   0  0  0  0  0  0  0  0  0  0  0  0
   63.7150   33.5070   48.5420 C   0  0  0  0  0  0  0  0  0  0  0  0
   63.3810   34.0230   49.7970 C   0  0  0  0  0  0  0  0  0  0  0  0
   62.0390   34.2130   50.1390 C   0  0  0  0  0  0  0  0  0  0  0  0
   61.0310   33.9000   49.2230 C   0  0  0  0  0  0  0  0  0  0  0  0
   59.7040   31.8650   46.8240 N   0  0  0  0  0  0  0  0  0  0  0  0
   59.8980   30.6740   47.6050 C   0  0  0  0  0  0  0  0  0  0  0  0
   60.5770   29.5730   47.0600 C   0  0  0  0  0  0  0  0  0  0  0  0
   60.7400   28.4060   47.8090 C   0  0  0  0  0  0  0  0  0  0  0  0
   60.2430   28.3310   49.1220 C   0  0  0  0  0  0  0  0  0  0  0  0
   60.3740   27.1700   49.9000 O   0  0  0  0  0  0  0  0  0  0  0  0
   61.2710   27.0000   50.9640 C   0  0  0  0  0  0  0  0  0  0  0  0
   61.5910   25.7260   51.4730 C   0  0  0  0  0  0  0  0  0  0  0  0
   62.5060   25.5970   52.5210 C   0  0  0  0  0  0  0  0  0  0  0  0
   63.1180   26.7320   53.0610 C   0  0  0  0  0  0  0  0  0  0  0  0
   62.8180   27.9970   52.5490 C   0  0  0  0  0  0  0  0  0  0  0  0
   61.9010   28.1290   51.5000 C   0  0  0  0  0  0  0  0  0  0  0  0
   59.5540   29.4240   49.6570 C   0  0  0  0  0  0  0  0  0  0  0  0
   59.3850   30.5910   48.9070 C   0  0  0  0  0  0  0  0  0  0  0  0
   57.7970   29.7840   45.7970 C   0  0  0  0  0  0  0  0  0  0  0  0
   54.7750   27.0820   46.8740 H   0  0  0  0  0  0  0  0  0  0  0  0
   55.4022   28.4687   43.7401 H   0  0  0  0  0  0  0  0  0  0  0  0
   55.5351   30.7707   42.7843 H   0  0  0  0  0  0  0  0  0  0  0  0
   57.1363   32.4313   43.7332 H   0  0  0  0  0  0  0  0  0  0  0  0
   62.9762   32.7761   46.6408 H   0  0  0  0  0  0  0  0  0  0  0  0
   64.7706   33.3477   48.2768 H   0  0  0  0  0  0  0  0  0  0  0  0
   64.1736   34.2795   50.5153 H   0  0  0  0  0  0  0  0  0  0  0  0
   61.7759   34.6095   51.1307 H   0  0  0  0  0  0  0  0  0  0  0  0
   59.9760   34.0398   49.5012 H   0  0  0  0  0  0  0  0  0  0  0  0
   60.9822   29.6298   46.0389 H   0  0  0  0  0  0  0  0  0  0  0  0
   61.2595   27.5415   47.3699 H   0  0  0  0  0  0  0  0  0  0  0  0
   61.1190   24.8298   51.0440 H   0  0  0  0  0  0  0  0  0  0  0  0
   62.7452   24.6009   52.9218 H   0  0  0  0  0  0  0  0  0  0  0  0
   63.8354   26.6293   53.8886 H   0  0  0  0  0  0  0  0  0  0  0  0
   63.3029   28.8898   52.9707 H   0  0  0  0  0  0  0  0  0  0  0  0
   61.6741   29.1260   51.0944 H   0  0  0  0  0  0  0  0  0  0  0  0
   59.1422   29.3648   50.6753 H   0  0  0  0  0  0  0  0  0  0  0  0
   58.8475   31.4476   49.3399 H   0  0  0  0  0  0  0  0  0  0  0  0
   58.4101   29.5149   46.6698 H   0  0  0  0  0  0  0  0  0  0  0  0
  1  2  1  0
  2  3  2  0
  2  4  2  0
  2  5  1  0
  5  6  2  0
  6  7  1  0
  7  8  2  0
  8  9  1  0
  9 10  1  0
 10 11  2  0
 11 12  1  0
 12 13  2  0
 13 14  1  0
 14 15  2  0
 15 16  1  0
 16 17  2  0
 17 18  1  0
 18 19  2  0
 13 20  1  0
 20 21  1  0
 21 22  2  0
 22 23  1  0
 23 24  2  0
 24 25  1  0
 25 26  1  0
 26 27  2  0
 27 28  1  0
 28 29  2  0
 29 30  1  0
 30 31  2  0
 24 32  1  0
 32 33  2  0
  9 34  2  0
 34  5  1  0
 20 10  1  0
 33 21  1  0
 19 14  1  0
 31 26  1  0
  1 35  1  0
  6 36  1  0
  7 37  1  0
  8 38  1  0
 15 39  1  0
 16 40  1  0
 17 41  1  0
 18 42  1  0
 19 43  1  0
 22 44  1  0
 23 45  1  0
 27 46  1  0
 28 47  1  0
 29 48  1  0
 30 49  1  0
 31 50  1  0
 32 51  1  0
 33 52  1  0
 34 53  1  0
M  CHG  1   1  -1
M  END
>  <UniqueID>  (73) 
62

>  <SMILES>  (73) 
[NH-]S(=O)(=O)c1cccc(-c2nnc(-c3ccccc3)n2-c2ccc(Oc3ccccc3)cc2)c1

>  <Energy>  (73) 
113.27136450045047

>  <Genealogy>  (73) 
[NH-]S(=O)(=O)c1cccc(-c2nnc(-c3ccccc3)n2-c2ccc(Oc3ccccc3)cc2)c1 (protonated)
[NH-]S(=O)(=O)c1cccc(-c2nnc(-c3ccccc3)n2-c2ccc(Oc3ccccc3)cc2)c1 (3D coordinates assigned)
[NH-]S(=O)(=O)c1cccc(-c2nnc(-c3ccccc3)n2-c2ccc(Oc3ccccc3)cc2)c1 (optimized conformer: 113.27136450045047 kcal/mol)

>  <smiles>  (73) 
NS(=O)(=O)c1cccc(-c2nnc(-c3ccccc3)n2-c2ccc(Oc3ccccc3)cc2)c1

>  <score_type>  (73) 
oracle

>  <origin>  (73) 
adg

>  <m_score__min__energy>  (73) 
-13.140000000000001

>  <m_primary>  (73) 
energy

$$$$
74:0
     RDKit          3D

 28 29  0  0  0  0  0  0  0  0999 V2000
   55.1540   29.4010   44.8600 N   0  0  0  0  0  0  0  0  0  0  0  0
   56.6990   30.0840   44.4960 S   0  0  0  0  0  0  0  0  0  0  0  0
   56.7780   31.4770   45.0540 O   0  0  0  0  0  0  0  0  0  0  0  0
   56.8760   30.1500   43.0050 O   0  0  0  0  0  0  0  0  0  0  0  0
   57.9650   29.0850   45.2060 C   0  0  0  0  0  0  0  0  0  0  0  0
   59.3130   29.4180   45.0200 C   0  0  0  0  0  0  0  0  0  0  0  0
   60.3150   28.6050   45.5560 C   0  0  0  0  0  0  0  0  0  0  0  0
   59.9760   27.4620   46.2850 C   0  0  0  0  0  0  0  0  0  0  0  0
   58.6330   27.1260   46.4930 C   0  0  0  0  0  0  0  0  0  0  0  0
   58.3290   25.9310   47.2270 N   0  0  0  0  0  0  0  0  0  0  0  0
   57.6730   24.7620   46.7210 C   0  0  0  0  0  0  0  0  0  0  0  0
   57.6150   23.7050   47.4060 O   0  0  0  0  0  0  0  0  0  0  0  0
   57.1470   24.7640   45.3230 C   0  0  0  0  0  0  0  0  0  0  0  0
   55.6940   24.4070   45.3230 C   0  0  0  0  0  0  0  0  0  0  0  0
   55.0720   22.8700   45.0220 S   0  0  0  0  0  0  0  0  0  0  0  0
   53.4920   23.3640   45.3140 C   0  0  0  0  0  0  0  0  0  0  0  0
   52.4870   22.6090   45.2370 O   0  0  0  0  0  0  0  0  0  0  0  0
   53.4070   24.6680   45.6510 N   0  0  0  0  0  0  0  0  0  0  0  0
   54.6360   25.2470   45.6620 C   0  0  0  0  0  0  0  0  0  0  0  0
   54.8090   26.5850   45.9960 O   0  0  0  0  0  0  0  0  0  0  0  0
   57.6260   27.9330   45.9310 C   0  0  0  0  0  0  0  0  0  0  0  0
   54.4940   30.1980   45.0020 H   0  0  0  0  0  0  0  0  0  0  0  0
   59.5828   30.3202   44.4515 H   0  0  0  0  0  0  0  0  0  0  0  0
   61.3729   28.8652   45.4038 H   0  0  0  0  0  0  0  0  0  0  0  0
   60.7696   26.8221   46.6981 H   0  0  0  0  0  0  0  0  0  0  0  0
   57.2762   25.7654   44.8865 H   0  0  0  0  0  0  0  0  0  0  0  0
   57.7010   24.0235   44.7275 H   0  0  0  0  0  0  0  0  0  0  0  0
   56.5686   27.6591   46.0609 H   0  0  0  0  0  0  0  0  0  0  0  0
  1  2  1  0
  2  3  2  0
  2  4  2  0
  2  5  1  0
  5  6  2  0
  6  7  1  0
  7  8  2  0
  8  9  1  0
  9 10  1  0
 10 11  1  0
 11 12  2  0
 11 13  1  0
 13 14  1  0
 14 15  1  0
 15 16  1  0
 16 17  2  0
 16 18  1  0
 18 19  1  0
 19 20  1  0
  9 21  2  0
 21  5  1  0
 19 14  2  0
  1 22  1  0
  6 23  1  0
  7 24  1  0
  8 25  1  0
 13 26  1  0
 13 27  1  0
 21 28  1  0
M  CHG  4   1  -1  10  -1  18  -1  20  -1
M  END
>  <UniqueID>  (74) 
63

>  <SMILES>  (74) 
[NH-]S(=O)(=O)c1cccc([N-]C(=O)Cc2sc(=O)[n-]c2[O-])c1

>  <Energy>  (74) 
60.10244790681988

>  <Genealogy>  (74) 
[NH-]S(=O)(=O)c1cccc([N-]C(=O)Cc2sc(=O)[n-]c2[O-])c1 (protonated)
[NH-]S(=O)(=O)c1cccc([N-]C(=O)Cc2sc(=O)[n-]c2[O-])c1 (3D coordinates assigned)
[NH-]S(=O)(=O)c1cccc([N-]C(=O)Cc2sc(=O)[n-]c2[O-])c1 (optimized conformer: 60.10244790681988 kcal/mol)

>  <smiles>  (74) 
NS(=O)(=O)c1cccc(NC(=O)Cc2sc(=O)[nH]c2O)c1

>  <score_type>  (74) 
oracle

>  <origin>  (74) 
adg

>  <m_score__min__energy>  (74) 
-17.719999999999999

>  <m_primary>  (74) 
energy

$$$$
75:0
     RDKit          3D

 35 37  0  0  0  0  0  0  0  0999 V2000
   56.5674   25.2248   47.4329 H   0  0  0  0  0  0  0  0  0  0  0  0
   56.9400   26.0920   46.8680 C   0  0  0  0  0  0  0  0  0  0  0  0
   58.2610   26.5200   47.0370 C   0  0  0  0  0  0  0  0  0  0  0  0
   58.9231   25.9911   47.7384 H   0  0  0  0  0  0  0  0  0  0  0  0
   58.7450   27.6230   46.3140 C   0  0  0  0  0  0  0  0  0  0  0  0
   60.1560   28.1080   46.5130 C   0  0  0  0  0  0  0  0  0  0  0  0
   60.5757   28.4110   45.5424 H   0  0  0  0  0  0  0  0  0  0  0  0
   60.7562   27.2941   46.9458 H   0  0  0  0  0  0  0  0  0  0  0  0
   60.1770   29.2830   47.4510 C   0  0  0  0  0  0  0  0  0  0  0  0
   60.5940   29.0840   48.6720 N   0  0  0  0  0  0  0  0  0  0  0  0
   59.9790   29.5280   49.8900 C   0  0  0  0  0  0  0  0  0  0  0  0
   58.7460   29.3400   50.0570 O   0  0  0  0  0  0  0  0  0  0  0  0
   60.7890   30.0930   51.0170 C   0  0  0  0  0  0  0  0  0  0  0  0
   60.3475   29.7850   51.9763 H   0  0  0  0  0  0  0  0  0  0  0  0
   61.8209   29.7177   50.9510 H   0  0  0  0  0  0  0  0  0  0  0  0
   60.7932   31.1910   50.9510 H   0  0  0  0  0  0  0  0  0  0  0  0
   59.7140   30.6030   46.9620 C   0  0  0  0  0  0  0  0  0  0  0  0
   58.4380   30.8400   46.5540 N   0  0  0  0  0  0  0  0  0  0  0  0
   58.4880   32.1200   46.1590 C   0  0  0  0  0  0  0  0  0  0  0  0
   57.4520   32.8980   45.6470 C   0  0  0  0  0  0  0  0  0  0  0  0
   56.4386   32.4880   45.5246 H   0  0  0  0  0  0  0  0  0  0  0  0
   57.7480   34.2270   45.2920 C   0  0  0  0  0  0  0  0  0  0  0  0
   56.9559   34.8737   44.8866 H   0  0  0  0  0  0  0  0  0  0  0  0
   59.0560   34.7360   45.4530 C   0  0  0  0  0  0  0  0  0  0  0  0
   59.2769   35.7762   45.1717 H   0  0  0  0  0  0  0  0  0  0  0  0
   60.0790   33.9180   45.9720 C   0  0  0  0  0  0  0  0  0  0  0  0
   61.1025   34.2993   46.1023 H   0  0  0  0  0  0  0  0  0  0  0  0
   59.7480   32.6100   46.3140 C   0  0  0  0  0  0  0  0  0  0  0  0
   60.5530   31.6630   46.8170 N   0  0  0  0  0  0  0  0  0  0  0  0
   57.8860   28.2960   45.4290 C   0  0  0  0  0  0  0  0  0  0  0  0
   58.2536   29.1650   44.8635 H   0  0  0  0  0  0  0  0  0  0  0  0
   56.5660   27.8660   45.2640 C   0  0  0  0  0  0  0  0  0  0  0  0
   55.8988   28.3952   44.5678 H   0  0  0  0  0  0  0  0  0  0  0  0
   56.0930   26.7640   45.9830 C   0  0  0  0  0  0  0  0  0  0  0  0
   54.7800   26.3390   45.8180 O   0  0  0  0  0  0  0  0  0  0  0  0
  1  2  1  0
  2  3  2  0
  3  4  1  0
  3  5  1  0
  5  6  1  0
  6  7  1  0
  6  8  1  0
  6  9  1  0
  9 10  2  0
 10 11  1  0
 11 12  2  0
 11 13  1  0
 13 14  1  0
 13 15  1  0
 13 16  1  0
  9 17  1  0
 17 18  2  0
 18 19  1  0
 19 20  2  0
 20 21  1  0
 20 22  1  0
 22 23  1  0
 22 24  2  0
 24 25  1  0
 24 26  1  0
 26 27  1  0
 26 28  2  0
 28 29  1  0
  5 30  2  0
 30 31  1  0
 30 32  1  0
 32 33  1  0
 32 34  2  0
 34 35  1  0
 34  2  1  0
 29 17  1  0
 28 19  1  0
M  CHG  2  29  -1  35  -1
M  END
>  <UniqueID>  (75) 
64

>  <SMILES>  (75) 
CC(=O)/N=C(/Cc1ccc([O-])cc1)c1nc2ccccc2[n-]1

>  <Energy>  (75) 
78.13364806783001

>  <Genealogy>  (75) 
CC(=O)N=C(Cc1ccc([O-])cc1)c1nc2ccccc2[n-]1 (protonated)
CC(=O)/N=C(/Cc1ccc([O-])cc1)c1nc2ccccc2[n-]1 (cis-trans isomerization)
CC(=O)/N=C(/Cc1ccc([O-])cc1)c1nc2ccccc2[n-]1 (3D coordinates assigned)
CC(=O)/N=C(/Cc1ccc([O-])cc1)c1nc2ccccc2[n-]1 (optimized conformer: 78.13364806783001 kcal/mol)

>  <smiles>  (75) 
CC(=O)N=C(Cc1ccc(O)cc1)c1nc2ccccc2[nH]1

>  <score_type>  (75) 
oracle

>  <origin>  (75) 
adg

>  <m_score__min__energy>  (75) 
-11.550000000000001

>  <m_primary>  (75) 
energy

$$$$
76:0
     RDKit          3D

 57 62  0  0  1  0  0  0  0  0999 V2000
   59.6420   34.7920   49.3470 N   0  0  0  0  0  0  0  0  0  0  0  0
   59.4990   34.2990   48.1910 C   0  0  0  0  0  0  0  0  0  0  0  0
   59.4950   35.1280   47.1340 N   0  0  0  0  0  0  0  0  0  0  0  0
   59.3870   34.6830   45.8650 C   0  0  0  0  0  0  0  0  0  0  0  0
   59.2790   33.3710   45.5940 N   0  0  0  0  0  0  0  0  0  0  0  0
   59.2810   32.4990   46.6470 C   0  0  0  0  0  0  0  0  0  0  0  0
   59.1930   31.1480   46.3550 C   0  0  0  0  0  0  0  0  0  0  0  0
   59.2170   30.2740   47.4270 C   0  0  0  0  0  0  0  0  0  0  0  0
   59.1170   28.8190   47.1200 C   0  0  0  0  0  0  0  0  0  0  0  0
   60.1240   27.8710   47.1740 C   0  0  0  0  0  0  0  0  0  0  0  0
   59.7290   26.6600   46.8510 N   0  0  0  0  0  0  0  0  0  0  0  0
   58.6760   26.2810   46.5330 C   0  0  0  0  0  0  0  0  0  0  0  0
   57.8400   25.1650   46.1480 N   0  0  0  0  0  0  0  0  0  0  0  0
   57.3530   24.9540   44.8120 C   0  0  0  0  0  0  0  0  0  0  0  0
   55.8890   24.4910   44.8670 C   0  0  0  0  0  0  0  0  0  0  0  0
   55.3640   24.9350   46.0900 O   0  0  0  0  0  0  0  0  0  0  0  0
   55.8760   24.0770   47.0860 C   0  0  0  0  0  0  0  0  0  0  0  0
   57.4060   24.1690   47.1420 C   0  0  0  0  0  0  0  0  0  0  0  0
   57.6990   27.9430   46.6220 S   0  0  0  0  0  0  0  0  0  0  0  0
   59.3200   30.7480   48.6470 N   0  0  0  0  0  0  0  0  0  0  0  0
   59.4080   32.0350   49.0060 C   0  0  0  0  0  0  0  0  0  0  0  0
   59.4500   32.4150   50.3970 C   0  0  0  0  0  0  0  0  0  0  0  0
   58.2070   32.7210   50.9790 C   0  0  0  0  0  0  0  0  0  0  0  0
   58.0730   33.0070   52.3150 C   0  0  0  0  0  0  0  0  0  0  0  0
   59.1910   32.9960   53.1100 C   0  0  0  0  0  0  0  0  0  0  0  0
   60.3720   32.7050   52.5550 N   0  0  0  0  0  0  0  0  0  0  0  0
   60.5160   32.4180   51.2260 C   0  0  0  0  0  0  0  0  0  0  0  0
   61.6650   32.1960   50.8050 N   0  0  0  0  0  0  0  0  0  0  0  0
   62.3260   32.5660   49.6330 C   0  0  0  0  0  0  0  0  0  0  0  0
   62.6970   33.8830   49.3430 C   0  0  0  0  0  0  0  0  0  0  0  0
   63.2970   34.2100   48.1230 C   0  0  0  0  0  0  0  0  0  0  0  0
   63.5150   33.1870   47.1930 C   0  0  0  0  0  0  0  0  0  0  0  0
   64.0900   33.4380   45.9920 F   0  0  0  0  0  0  0  0  0  0  0  0
   63.1530   31.8920   47.4700 C   0  0  0  0  0  0  0  0  0  0  0  0
   62.5720   31.6140   48.6730 C   0  0  0  0  0  0  0  0  0  0  0  0
   59.3900   32.9570   47.9550 C   0  0  0  0  0  0  0  0  0  0  0  0
   59.2880   35.7050   49.6710 H   0  0  0  0  0  0  0  0  0  0  0  0
   59.5770   36.1820   47.2350 H   0  0  0  0  0  0  0  0  0  0  0  0
   59.3873   35.4072   45.0370 H   0  0  0  0  0  0  0  0  0  0  0  0
   59.1080   30.7870   45.3194 H   0  0  0  0  0  0  0  0  0  0  0  0
   61.1589   28.1092   47.4607 H   0  0  0  0  0  0  0  0  0  0  0  0
   57.4190   25.8943   44.2450 H   0  0  0  0  0  0  0  0  0  0  0  0
   57.9626   24.1836   44.3172 H   0  0  0  0  0  0  0  0  0  0  0  0
   55.3227   24.9287   44.0317 H   0  0  0  0  0  0  0  0  0  0  0  0
   55.8202   23.3963   44.7846 H   0  0  0  0  0  0  0  0  0  0  0  0
   55.4602   24.3673   48.0621 H   0  0  0  0  0  0  0  0  0  0  0  0
   55.5911   23.0424   46.8441 H   0  0  0  0  0  0  0  0  0  0  0  0
   57.7244   24.4820   48.1473 H   0  0  0  0  0  0  0  0  0  0  0  0
   57.8555   23.1894   46.9219 H   0  0  0  0  0  0  0  0  0  0  0  0
   57.3107   32.7316   50.3415 H   0  0  0  0  0  0  0  0  0  0  0  0
   57.0861   33.2410   52.7408 H   0  0  0  0  0  0  0  0  0  0  0  0
   59.1171   33.2223   54.1839 H   0  0  0  0  0  0  0  0  0  0  0  0
   61.2200   32.6960   53.1770 H   0  0  0  0  0  0  0  0  0  0  0  0
   62.5140   34.6734   50.0858 H   0  0  0  0  0  0  0  0  0  0  0  0
   63.5906   35.2463   47.8996 H   0  0  0  0  0  0  0  0  0  0  0  0
   63.3282   31.0925   46.7351 H   0  0  0  0  0  0  0  0  0  0  0  0
   62.2856   30.5734   48.8854 H   0  0  0  0  0  0  0  0  0  0  0  0
  1  2  2  3
  2  3  1  0
  3  4  1  0
  4  5  2  0
  5  6  1  0
  6  7  2  0
  7  8  1  0
  8  9  1  0
  9 10  2  0
 10 11  1  0
 11 12  2  0
 12 13  1  0
 13 14  1  0
 14 15  1  0
 15 16  1  0
 16 17  1  0
 17 18  1  0
 12 19  1  0
  8 20  2  0
 20 21  1  0
 21 22  1  0
 22 23  2  0
 23 24  1  0
 24 25  2  0
 25 26  1  0
 26 27  1  0
 27 28  2  0
 28 29  1  0
 29 30  2  0
 30 31  1  0
 31 32  2  0
 32 33  1  0
 32 34  1  0
 34 35  2  0
 21 36  2  0
 36  2  1  0
 36  6  1  0
 19  9  1  0
 27 22  1  0
 35 29  1  0
 18 13  1  0
  1 37  1  0
  3 38  1  0
  4 39  1  0
  7 40  1  0
 10 41  1  0
 14 42  1  0
 14 43  1  0
 15 44  1  0
 15 45  1  0
 17 46  1  0
 17 47  1  0
 18 48  1  0
 18 49  1  0
 23 50  1  0
 24 51  1  0
 25 52  1  0
 26 53  1  0
 30 54  1  0
 31 55  1  0
 34 56  1  0
 35 57  1  0
M  END
>  <smiles>  (76) 
N=c1[nH]cnc2cc(-c3cnc(N4CCOCC4)s3)nc(-c3ccc[nH]c3=Nc3ccc(F)cc3)c12

>  <score_type>  (76) 
oracle

>  <origin>  (76) 
adg

>  <m_score__min__energy>  (76) 
-8.6300000000000008

>  <m_primary>  (76) 
energy

$$$$
77:0
     RDKit          3D

 37 38  0  0  0  0  0  0  0  0999 V2000
   59.0220   28.5180   44.5260 C   0  0  0  0  0  0  0  0  0  0  0  0
   57.8550   29.3790   45.0080 C   0  0  1  0  0  0  0  0  0  0  0  0
   57.4950   30.6720   43.7670 S   0  0  0  0  0  0  0  0  0  0  0  0
   57.9050   32.0450   44.8510 C   0  0  0  0  0  0  0  0  0  0  0  0
   58.0030   33.3430   44.3320 C   0  0  0  0  0  0  0  0  0  0  0  0
   58.3150   34.4130   45.1780 C   0  0  0  0  0  0  0  0  0  0  0  0
   58.5220   34.1900   46.5430 C   0  0  0  0  0  0  0  0  0  0  0  0
   58.4260   32.8950   47.0620 C   0  0  0  0  0  0  0  0  0  0  0  0
   58.1270   31.8220   46.2160 C   0  0  0  0  0  0  0  0  0  0  0  0
   56.6240   28.5330   45.2500 C   0  0  0  0  0  0  0  0  0  0  0  0
   55.4990   28.9660   44.8810 O   0  0  0  0  0  0  0  0  0  0  0  0
   56.6690   27.3150   46.0080 N   0  0  0  0  0  0  0  0  0  0  0  0
   56.6620   25.9810   45.4840 C   0  0  0  0  0  0  0  0  0  0  0  0
   57.4050   25.7020   44.3310 C   0  0  0  0  0  0  0  0  0  0  0  0
   57.3970   24.4170   43.7810 C   0  0  0  0  0  0  0  0  0  0  0  0
   56.6750   23.3890   44.4010 C   0  0  0  0  0  0  0  0  0  0  0  0
   56.6290   21.7860   43.6780 S   0  0  0  0  0  0  0  0  0  0  0  0
   58.2340   21.1510   43.5810 N   0  0  0  0  0  0  0  0  0  0  0  0
   55.7780   20.8750   44.5170 O   0  0  0  0  0  0  0  0  0  0  0  0
   56.0380   21.8620   42.2980 O   0  0  0  0  0  0  0  0  0  0  0  0
   55.9700   23.6550   45.5840 C   0  0  0  0  0  0  0  0  0  0  0  0
   55.9760   24.9420   46.1320 C   0  0  0  0  0  0  0  0  0  0  0  0
   59.5652   28.1172   45.3945 H   0  0  0  0  0  0  0  0  0  0  0  0
   58.6372   27.6858   43.9183 H   0  0  0  0  0  0  0  0  0  0  0  0
   59.7036   29.1312   43.9183 H   0  0  0  0  0  0  0  0  0  0  0  0
   58.1367   29.8527   45.9600 H   0  0  0  0  0  0  0  0  0  0  0  0
   57.8347   33.5207   43.2596 H   0  0  0  0  0  0  0  0  0  0  0  0
   58.3975   35.4308   44.7689 H   0  0  0  0  0  0  0  0  0  0  0  0
   58.7603   35.0330   47.2082 H   0  0  0  0  0  0  0  0  0  0  0  0
   58.5857   32.7201   48.1362 H   0  0  0  0  0  0  0  0  0  0  0  0
   58.0661   30.8019   46.6230 H   0  0  0  0  0  0  0  0  0  0  0  0
   57.9978   26.4974   43.8557 H   0  0  0  0  0  0  0  0  0  0  0  0
   57.9596   24.2123   42.8582 H   0  0  0  0  0  0  0  0  0  0  0  0
   58.4600   20.7490   44.5170 H   0  0  0  0  0  0  0  0  0  0  0  0
   58.2050   20.3510   42.9100 H   0  0  0  0  0  0  0  0  0  0  0  0
   55.4108   22.8493   46.0822 H   0  0  0  0  0  0  0  0  0  0  0  0
   55.4419   25.1402   47.0730 H   0  0  0  0  0  0  0  0  0  0  0  0
  1  2  1  0
  2  3  1  0
  3  4  1  0
  4  5  2  0
  5  6  1  0
  6  7  2  0
  7  8  1  0
  8  9  2  0
  2 10  1  0
 10 11  2  0
 10 12  1  0
 12 13  1  0
 13 14  2  0
 14 15  1  0
 15 16  2  0
 16 17  1  0
 17 18  1  0
 17 19  2  0
 17 20  2  0
 16 21  1  0
 21 22  2  0
  9  4  1  0
 22 13  1  0
  1 23  1  0
  1 24  1  0
  1 25  1  0
  2 26  1  1
  5 27  1  0
  6 28  1  0
  7 29  1  0
  8 30  1  0
  9 31  1  0
 14 32  1  0
 15 33  1  0
 18 34  1  0
 18 35  1  0
 21 36  1  0
 22 37  1  0
M  CHG  1  12  -1
M  END
>  <UniqueID>  (77) 
65

>  <SMILES>  (77) 
C[C@@H](Sc1ccccc1)C(=O)[N-]c1ccc(S(N)(=O)=O)cc1

>  <Energy>  (77) 
31.827728947546202

>  <Genealogy>  (77) 
CC(Sc1ccccc1)C(=O)[N-]c1ccc(S(N)(=O)=O)cc1 (protonated)
C[C@@H](Sc1ccccc1)C(=O)[N-]c1ccc(S(N)(=O)=O)cc1 (chirality)
C[C@@H](Sc1ccccc1)C(=O)[N-]c1ccc(S(N)(=O)=O)cc1 (3D coordinates assigned)
C[C@@H](Sc1ccccc1)C(=O)[N-]c1ccc(S(N)(=O)=O)cc1 (optimized conformer: 31.827728947546202 kcal/mol)

>  <smiles>  (77) 
CC(Sc1ccccc1)C(=O)Nc1ccc(S(N)(=O)=O)cc1

>  <score_type>  (77) 
oracle

>  <origin>  (77) 
adg

>  <m_score__min__energy>  (77) 
-10.51

>  <m_primary>  (77) 
energy

$$$$
78:0
     RDKit          3D

 42 44  0  0  0  0  0  0  0  0999 V2000
   59.2370   33.6520   51.2030 C   0  0  0  0  0  0  0  0  0  0  0  0
   59.5410   32.9800   49.8860 C   0  0  0  0  0  0  0  0  0  0  0  0
   59.5750   33.7190   48.7730 C   0  0  0  0  0  0  0  0  0  0  0  0
   59.9090   33.1730   47.3970 C   0  0  0  0  0  0  0  0  0  0  0  0
   58.9020   33.8260   46.4160 C   0  0  0  0  0  0  0  0  0  0  0  0
   61.3380   33.6200   47.0470 C   0  0  0  0  0  0  0  0  0  0  0  0
   59.8350   31.6830   47.3440 N   0  0  0  0  0  0  0  0  0  0  0  0
   59.8920   30.9990   46.0310 C   0  0  0  0  0  0  0  0  0  0  0  0
   58.5540   30.4280   45.6150 C   0  0  0  0  0  0  0  0  0  0  0  0
   58.1430   29.1370   45.9980 C   0  0  0  0  0  0  0  0  0  0  0  0
   56.8860   28.6540   45.6210 C   0  0  0  0  0  0  0  0  0  0  0  0
   56.0220   29.4570   44.8720 C   0  0  0  0  0  0  0  0  0  0  0  0
   54.7740   28.9750   44.4980 O   0  0  0  0  0  0  0  0  0  0  0  0
   56.4140   30.7460   44.5010 C   0  0  0  0  0  0  0  0  0  0  0  0
   57.6700   31.2320   44.8760 C   0  0  0  0  0  0  0  0  0  0  0  0
   59.9660   30.8990   48.5670 C   0  0  0  0  0  0  0  0  0  0  0  0
   60.2250   29.5070   48.5330 C   0  0  0  0  0  0  0  0  0  0  0  0
   60.3450   28.7680   49.7090 C   0  0  0  0  0  0  0  0  0  0  0  0
   60.2140   29.3960   50.9470 C   0  0  0  0  0  0  0  0  0  0  0  0
   60.3370   28.6690   52.1290 O   0  0  0  0  0  0  0  0  0  0  0  0
   59.9570   30.7650   51.0040 C   0  0  0  0  0  0  0  0  0  0  0  0
   59.8250   31.5270   49.8230 C   0  0  0  0  0  0  0  0  0  0  0  0
   59.5361   32.9908   52.0297 H   0  0  0  0  0  0  0  0  0  0  0  0
   59.7950   34.5976   51.2695 H   0  0  0  0  0  0  0  0  0  0  0  0
   58.1584   33.8573   51.2695 H   0  0  0  0  0  0  0  0  0  0  0  0
   59.3463   34.7915   48.8598 H   0  0  0  0  0  0  0  0  0  0  0  0
   58.1131   34.3376   46.9869 H   0  0  0  0  0  0  0  0  0  0  0  0
   59.4278   34.5555   45.7825 H   0  0  0  0  0  0  0  0  0  0  0  0
   58.4505   33.0483   45.7825 H   0  0  0  0  0  0  0  0  0  0  0  0
   61.9041   33.7971   47.9734 H   0  0  0  0  0  0  0  0  0  0  0  0
   61.8342   32.8342   46.4586 H   0  0  0  0  0  0  0  0  0  0  0  0
   61.2980   34.5485   46.4586 H   0  0  0  0  0  0  0  0  0  0  0  0
   60.2181   31.7233   45.2701 H   0  0  0  0  0  0  0  0  0  0  0  0
   60.5987   30.1609   46.1218 H   0  0  0  0  0  0  0  0  0  0  0  0
   58.8146   28.5046   46.5973 H   0  0  0  0  0  0  0  0  0  0  0  0
   56.5768   27.6400   45.9146 H   0  0  0  0  0  0  0  0  0  0  0  0
   55.7333   31.3792   43.9130 H   0  0  0  0  0  0  0  0  0  0  0  0
   57.9684   32.2515   44.5904 H   0  0  0  0  0  0  0  0  0  0  0  0
   60.3333   29.0006   47.5625 H   0  0  0  0  0  0  0  0  0  0  0  0
   60.5435   27.6872   49.6601 H   0  0  0  0  0  0  0  0  0  0  0  0
   60.1680   29.0960   53.0340 H   0  0  0  0  0  0  0  0  0  0  0  0
   59.8557   31.2579   51.9821 H   0  0  0  0  0  0  0  0  0  0  0  0
  1  2  1  0
  2  3  2  0
  3  4  1  0
  4  5  1  0
  4  6  1  0
  4  7  1  0
  7  8  1  0
  8  9  1  0
  9 10  2  0
 10 11  1  0
 11 12  2  0
 12 13  1  0
 12 14  1  0
 14 15  2  0
  7 16  1  0
 16 17  2  0
 17 18  1  0
 18 19  2  0
 19 20  1  0
 19 21  1  0
 21 22  2  0
 22  2  1  0
 15  9  1  0
 22 16  1  0
  1 23  1  0
  1 24  1  0
  1 25  1  0
  3 26  1  0
  5 27  1  0
  5 28  1  0
  5 29  1  0
  6 30  1  0
  6 31  1  0
  6 32  1  0
  8 33  1  0
  8 34  1  0
 10 35  1  0
 11 36  1  0
 14 37  1  0
 15 38  1  0
 17 39  1  0
 18 40  1  0
 20 41  1  0
 21 42  1  0
M  CHG  1  13  -1
M  END
>  <UniqueID>  (78) 
66

>  <SMILES>  (78) 
CC1=CC(C)(C)N(Cc2ccc([O-])cc2)c2ccc(O)cc21

>  <Energy>  (78) 
50.26290536808845

>  <Genealogy>  (78) 
CC1=CC(C)(C)N(Cc2ccc([O-])cc2)c2ccc(O)cc21 (protonated)
CC1=CC(C)(C)N(Cc2ccc([O-])cc2)c2ccc(O)cc21 (3D coordinates assigned)
CC1=CC(C)(C)N(Cc2ccc([O-])cc2)c2ccc(O)cc21 (nonaromatic ring conformer: 50.26290536808845 kcal/mol)

>  <smiles>  (78) 
CC1=CC(C)(C)N(Cc2ccc(O)cc2)c2ccc(O)cc21

>  <score_type>  (78) 
oracle

>  <origin>  (78) 
adg

>  <m_score__min__energy>  (78) 
-9.9800000000000004

>  <m_primary>  (78) 
energy

$$$$
79:0
     RDKit          3D

 35 36  0  0  0  0  0  0  0  0999 V2000
   60.0560   28.0800   47.3220 C   0  0  0  0  0  0  0  0  0  0  0  0
   59.1550   28.5110   46.2020 C   0  0  0  0  0  0  0  0  0  0  0  0
   58.8680   27.6300   45.1500 C   0  0  0  0  0  0  0  0  0  0  0  0
   57.9870   28.0110   44.1360 C   0  0  0  0  0  0  0  0  0  0  0  0
   57.3810   29.2710   44.1650 C   0  0  0  0  0  0  0  0  0  0  0  0
   56.2750   29.7220   42.8770 Cl  0  0  0  0  0  0  0  0  0  0  0  0
   57.6590   30.1660   45.2100 C   0  0  0  0  0  0  0  0  0  0  0  0
   57.0220   31.4160   45.2200 O   0  0  0  0  0  0  0  0  0  0  0  0
   57.6550   32.6510   45.0320 C   0  0  0  0  0  0  0  0  0  0  0  0
   57.7000   33.1810   43.8880 O   0  0  0  0  0  0  0  0  0  0  0  0
   58.1980   33.3300   46.1720 N   0  0  0  0  0  0  0  0  0  0  0  0
   58.8640   34.6030   46.1130 C   0  0  0  0  0  0  0  0  0  0  0  0
   59.0410   35.1840   45.0080 O   0  0  0  0  0  0  0  0  0  0  0  0
   59.3080   35.2370   47.3270 N   0  0  0  0  0  0  0  0  0  0  0  0
   60.4800   34.5480   47.8860 C   0  0  0  0  0  0  0  0  0  0  0  0
   60.0910   33.2730   48.5790 C   0  0  0  0  0  0  0  0  0  0  0  0
   60.9440   32.2370   48.9010 C   0  0  0  0  0  0  0  0  0  0  0  0
   60.1520   31.2770   49.4920 C   0  0  0  0  0  0  0  0  0  0  0  0
   58.8680   31.7860   49.4910 C   0  0  0  0  0  0  0  0  0  0  0  0
   58.8640   32.9770   48.9380 O   0  0  0  0  0  0  0  0  0  0  0  0
   58.5340   29.7680   46.2410 C   0  0  0  0  0  0  0  0  0  0  0  0
   59.5779   28.3087   48.2859 H   0  0  0  0  0  0  0  0  0  0  0  0
   60.2377   26.9975   47.2505 H   0  0  0  0  0  0  0  0  0  0  0  0
   61.0128   28.6179   47.2505 H   0  0  0  0  0  0  0  0  0  0  0  0
   59.3381   26.6359   45.1233 H   0  0  0  0  0  0  0  0  0  0  0  0
   57.7687   27.3171   43.3108 H   0  0  0  0  0  0  0  0  0  0  0  0
   58.0930   32.8700   47.1040 H   0  0  0  0  0  0  0  0  0  0  0  0
   58.5300   35.2540   48.0290 H   0  0  0  0  0  0  0  0  0  0  0  0
   59.5680   36.2270   47.1120 H   0  0  0  0  0  0  0  0  0  0  0  0
   61.1789   34.3123   47.0699 H   0  0  0  0  0  0  0  0  0  0  0  0
   60.9508   35.2127   48.6253 H   0  0  0  0  0  0  0  0  0  0  0  0
   62.0284   32.1880   48.7232 H   0  0  0  0  0  0  0  0  0  0  0  0
   60.4766   30.3023   49.8851 H   0  0  0  0  0  0  0  0  0  0  0  0
   57.9826   31.2715   49.8927 H   0  0  0  0  0  0  0  0  0  0  0  0
   58.7313   30.4484   47.0825 H   0  0  0  0  0  0  0  0  0  0  0  0
  1  2  1  0
  2  3  2  0
  3  4  1  0
  4  5  2  0
  5  6  1  0
  5  7  1  0
  7  8  1  0
  8  9  1  0
  9 10  2  0
  9 11  1  0
 11 12  1  0
 12 13  2  0
 12 14  1  0
 14 15  1  0
 15 16  1  0
 16 17  2  0
 17 18  1  0
 18 19  2  0
 19 20  1  0
  7 21  2  0
 21  2  1  0
 20 16  1  0
  1 22  1  0
  1 23  1  0
  1 24  1  0
  3 25  1  0
  4 26  1  0
 11 27  1  0
 14 28  1  0
 14 29  1  0
 15 30  1  0
 15 31  1  0
 17 32  1  0
 18 33  1  0
 19 34  1  0
 21 35  1  0
M  CHG  1  14   1
M  END
>  <UniqueID>  (79) 
67

>  <SMILES>  (79) 
Cc1ccc(Cl)c(OC(=O)NC(=O)[NH2+]Cc2ccco2)c1

>  <Energy>  (79) 
63.620036086991604

>  <Genealogy>  (79) 
Cc1ccc(Cl)c(OC(=O)NC(=O)[NH2+]Cc2ccco2)c1 (protonated)
Cc1ccc(Cl)c(OC(=O)NC(=O)[NH2+]Cc2ccco2)c1 (3D coordinates assigned)
Cc1ccc(Cl)c(OC(=O)NC(=O)[NH2+]Cc2ccco2)c1 (optimized conformer: 63.620036086991604 kcal/mol)

>  <smiles>  (79) 
Cc1ccc(Cl)c(OC(=O)NC(=O)NCc2ccco2)c1

>  <score_type>  (79) 
oracle

>  <origin>  (79) 
adg

>  <m_score__min__energy>  (79) 
-5.7199999999999998

>  <m_primary>  (79) 
energy

$$$$
80:0
     RDKit          3D

 33 35  0  0  0  0  0  0  0  0999 V2000
   59.8120   30.8650   45.9240 O   0  0  0  0  0  0  0  0  0  0  0  0
   58.9130   30.0400   45.5930 C   0  0  0  0  0  0  0  0  0  0  0  0
   58.8490   28.7970   46.2400 C   0  0  0  0  0  0  0  0  0  0  0  0
   59.7370   28.4270   47.2650 C   0  0  0  0  0  0  0  0  0  0  0  0
   59.6190   27.1730   47.8680 C   0  0  0  0  0  0  0  0  0  0  0  0
   58.6160   26.2990   47.4410 C   0  0  0  0  0  0  0  0  0  0  0  0
   57.7660   26.6710   46.4480 N   0  0  0  0  0  0  0  0  0  0  0  0
   57.8580   27.8870   45.8420 C   0  0  0  0  0  0  0  0  0  0  0  0
   56.9980   28.2170   44.8490 N   0  0  0  0  0  0  0  0  0  0  0  0
   57.0630   29.4260   44.2230 C   0  0  0  0  0  0  0  0  0  0  0  0
   55.9940   29.7210   43.0020 S   0  0  0  0  0  0  0  0  0  0  0  0
   58.0100   30.3570   44.6050 N   0  0  0  0  0  0  0  0  0  0  0  0
   58.1120   31.6740   43.9340 C   0  0  0  0  0  0  0  0  0  0  0  0
   57.2460   32.7100   44.6580 C   0  0  0  0  0  0  0  0  0  0  0  0
   58.0700   33.4980   45.6400 C   0  0  0  0  0  0  0  0  0  0  0  0
   58.1050   33.1250   46.9940 C   0  0  0  0  0  0  0  0  0  0  0  0
   58.8970   33.8370   47.9000 C   0  0  0  0  0  0  0  0  0  0  0  0
   59.6670   34.9170   47.4590 C   0  0  0  0  0  0  0  0  0  0  0  0
   59.6500   35.2830   46.1100 C   0  0  0  0  0  0  0  0  0  0  0  0
   58.8580   34.5750   45.2020 C   0  0  0  0  0  0  0  0  0  0  0  0
   60.5231   29.1238   47.5914 H   0  0  0  0  0  0  0  0  0  0  0  0
   60.3091   26.8761   48.6715 H   0  0  0  0  0  0  0  0  0  0  0  0
   58.5142   25.3088   47.9091 H   0  0  0  0  0  0  0  0  0  0  0  0
   56.2740   27.5200   44.5590 H   0  0  0  0  0  0  0  0  0  0  0  0
   59.1605   32.0064   43.9452 H   0  0  0  0  0  0  0  0  0  0  0  0
   57.7584   31.5749   42.8971 H   0  0  0  0  0  0  0  0  0  0  0  0
   56.8108   33.3976   43.9179 H   0  0  0  0  0  0  0  0  0  0  0  0
   56.4493   32.1850   45.2054 H   0  0  0  0  0  0  0  0  0  0  0  0
   57.5073   32.2699   47.3426 H   0  0  0  0  0  0  0  0  0  0  0  0
   58.9141   33.5469   48.9609 H   0  0  0  0  0  0  0  0  0  0  0  0
   60.2864   35.4790   48.1735 H   0  0  0  0  0  0  0  0  0  0  0  0
   60.2608   36.1294   45.7627 H   0  0  0  0  0  0  0  0  0  0  0  0
   58.8517   34.8623   44.1402 H   0  0  0  0  0  0  0  0  0  0  0  0
  1  2  2  0
  2  3  1  0
  3  4  2  0
  4  5  1  0
  5  6  2  0
  6  7  1  0
  7  8  2  0
  8  9  1  0
  9 10  1  0
 10 11  2  0
 10 12  1  0
 12 13  1  0
 13 14  1  0
 14 15  1  0
 15 16  2  0
 16 17  1  0
 17 18  2  0
 18 19  1  0
 19 20  2  0
 12  2  1  0
 20 15  1  0
  8  3  1  0
  4 21  1  0
  5 22  1  0
  6 23  1  0
  9 24  1  0
 13 25  1  0
 13 26  1  0
 14 27  1  0
 14 28  1  0
 16 29  1  0
 17 30  1  0
 18 31  1  0
 19 32  1  0
 20 33  1  0
M  END
>  <UniqueID>  (80) 
68

>  <SMILES>  (80) 
O=c1c2cccnc2[nH]c(=S)n1CCc1ccccc1

>  <Energy>  (80) 
44.04195969200624

>  <Genealogy>  (80) 
O=c1c2cccnc2[nH]c(=S)n1CCc1ccccc1 (3D coordinates assigned)
O=c1c2cccnc2[nH]c(=S)n1CCc1ccccc1 (optimized conformer: 44.04195969200624 kcal/mol)

>  <smiles>  (80) 
O=c1c2cccnc2[nH]c(=S)n1CCc1ccccc1

>  <score_type>  (80) 
oracle

>  <origin>  (80) 
adg

>  <m_score__min__energy>  (80) 
-7.5599999999999996

>  <m_primary>  (80) 
energy

$$$$
81:0
     RDKit          3D

 72 76  0  0  0  0  0  0  0  0999 V2000
   61.9801   28.3589   51.2550 H   0  0  0  0  0  0  0  0  0  0  0  0
   62.4270   29.3640   51.2480 C   0  0  0  0  0  0  0  0  0  0  0  0
   63.7370   29.5250   51.5750 N   0  0  0  0  0  0  0  0  0  0  0  0
   64.3230   30.7520   51.5780 C   0  0  0  0  0  0  0  0  0  0  0  0
   65.3844   30.8529   51.8485 H   0  0  0  0  0  0  0  0  0  0  0  0
   63.5790   31.8850   51.2380 C   0  0  0  0  0  0  0  0  0  0  0  0
   64.0520   32.8781   51.2455 H   0  0  0  0  0  0  0  0  0  0  0  0
   62.2230   31.7520   50.8860 C   0  0  0  0  0  0  0  0  0  0  0  0
   61.4010   32.9420   50.5510 C   0  0  0  0  0  0  0  0  0  0  0  0
   61.6540   33.6260   49.3110 N   0  0  0  0  0  0  0  0  0  0  0  0
   62.5680   34.1190   49.1970 H   0  0  0  0  0  0  0  0  0  0  0  0
   60.6980   33.6810   48.2380 C   0  0  0  0  0  0  0  0  0  0  0  0
   61.0060   34.3950   47.0710 C   0  0  0  0  0  0  0  0  0  0  0  0
   61.9737   34.9112   46.9866 H   0  0  0  0  0  0  0  0  0  0  0  0
   60.0930   34.4560   46.0140 C   0  0  0  0  0  0  0  0  0  0  0  0
   60.3344   35.0410   45.1143 H   0  0  0  0  0  0  0  0  0  0  0  0
   58.8670   33.7720   46.0970 C   0  0  0  0  0  0  0  0  0  0  0  0
   57.9380   33.7850   45.0450 O   0  0  0  0  0  0  0  0  0  0  0  0
   57.5450   32.6610   44.2990 C   0  0  0  0  0  0  0  0  0  0  0  0
   57.7650   32.6590   42.9170 C   0  0  0  0  0  0  0  0  0  0  0  0
   58.2687   33.5139   42.4422 H   0  0  0  0  0  0  0  0  0  0  0  0
   57.3480   31.5760   42.1360 C   0  0  0  0  0  0  0  0  0  0  0  0
   57.5174   31.5858   41.0492 H   0  0  0  0  0  0  0  0  0  0  0  0
   56.7170   30.4820   42.7330 C   0  0  0  0  0  0  0  0  0  0  0  0
   56.3850   29.6357   42.1137 H   0  0  0  0  0  0  0  0  0  0  0  0
   56.5060   30.4590   44.1150 C   0  0  0  0  0  0  0  0  0  0  0  0
   55.8600   29.3260   44.7110 N   0  0  0  0  0  0  0  0  0  0  0  0
   56.5500   28.1620   45.1820 C   0  0  0  0  0  0  0  0  0  0  0  0
   55.9390   27.2990   45.8760 O   0  0  0  0  0  0  0  0  0  0  0  0
   58.0240   28.0240   44.9290 C   0  0  0  0  0  0  0  0  0  0  0  0
   58.2910   26.9570   44.9447 H   0  0  0  0  0  0  0  0  0  0  0  0
   58.2492   28.4696   43.9488 H   0  0  0  0  0  0  0  0  0  0  0  0
   58.8350   28.7480   45.9760 C   0  0  0  0  0  0  0  0  0  0  0  0
   58.6290   28.4860   47.3410 C   0  0  0  0  0  0  0  0  0  0  0  0
   57.8351   27.7910   47.6520 H   0  0  0  0  0  0  0  0  0  0  0  0
   59.4300   29.1060   48.3060 C   0  0  0  0  0  0  0  0  0  0  0  0
   59.2569   28.9060   49.3737 H   0  0  0  0  0  0  0  0  0  0  0  0
   60.4510   29.9800   47.9160 C   0  0  0  0  0  0  0  0  0  0  0  0
   61.0859   30.4584   48.6763 H   0  0  0  0  0  0  0  0  0  0  0  0
   60.6640   30.2450   46.5600 C   0  0  0  0  0  0  0  0  0  0  0  0
   61.4672   30.9312   46.2533 H   0  0  0  0  0  0  0  0  0  0  0  0
   59.8550   29.6370   45.5920 C   0  0  0  0  0  0  0  0  0  0  0  0
   60.0180   29.8557   44.5264 H   0  0  0  0  0  0  0  0  0  0  0  0
   56.8920   31.5640   44.8910 C   0  0  0  0  0  0  0  0  0  0  0  0
   56.6821   31.5721   45.9708 H   0  0  0  0  0  0  0  0  0  0  0  0
   58.5470   33.0780   47.2700 C   0  0  0  0  0  0  0  0  0  0  0  0
   57.5735   32.5736   47.3582 H   0  0  0  0  0  0  0  0  0  0  0  0
   59.4560   33.0220   48.3290 C   0  0  0  0  0  0  0  0  0  0  0  0
   59.2007   32.4600   49.2395 H   0  0  0  0  0  0  0  0  0  0  0  0
   60.4310   33.3270   51.3430 N   0  0  0  0  0  0  0  0  0  0  0  0
   60.5040   34.2370   51.8530 H   0  0  0  0  0  0  0  0  0  0  0  0
   59.2260   32.5730   51.5620 C   0  0  0  0  0  0  0  0  0  0  0  0
   58.3010   33.0140   52.5120 C   0  0  0  0  0  0  0  0  0  0  0  0
   58.5051   33.9280   53.0891 H   0  0  0  0  0  0  0  0  0  0  0  0
   57.1170   32.3020   52.7350 C   0  0  0  0  0  0  0  0  0  0  0  0
   56.4062   32.6545   53.4969 H   0  0  0  0  0  0  0  0  0  0  0  0
   56.8240   31.1370   51.9940 C   0  0  0  0  0  0  0  0  0  0  0  0
   55.5940   30.3970   52.2200 N   0  0  0  0  0  0  0  0  0  0  0  0
   55.6070   29.1430   52.9850 C   0  0  0  0  0  0  0  0  0  0  0  0
   55.6046   29.3701   54.0613 H   0  0  0  0  0  0  0  0  0  0  0  0
   54.7149   28.5507   52.7333 H   0  0  0  0  0  0  0  0  0  0  0  0
   56.5111   28.5693   52.7333 H   0  0  0  0  0  0  0  0  0  0  0  0
   54.3160   30.8900   51.6920 C   0  0  0  0  0  0  0  0  0  0  0  0
   53.6488   31.1474   52.5278 H   0  0  0  0  0  0  0  0  0  0  0  0
   54.4941   31.7840   51.0763 H   0  0  0  0  0  0  0  0  0  0  0  0
   53.8476   30.1081   51.0763 H   0  0  0  0  0  0  0  0  0  0  0  0
   57.7530   30.7180   51.0170 C   0  0  0  0  0  0  0  0  0  0  0  0
   57.5439   29.8190   50.4187 H   0  0  0  0  0  0  0  0  0  0  0  0
   58.9340   31.4310   50.8010 C   0  0  0  0  0  0  0  0  0  0  0  0
   59.6409   31.0947   50.0282 H   0  0  0  0  0  0  0  0  0  0  0  0
   61.6460   30.4710   50.9030 C   0  0  0  0  0  0  0  0  0  0  0  0
   60.5845   30.3397   50.6460 H   0  0  0  0  0  0  0  0  0  0  0  0
  1  2  1  0
  2  3  2  0
  3  4  1  0
  4  5  1  0
  4  6  2  0
  6  7  1  0
  6  8  1  0
  8  9  1  0
  9 10  1  0
 10 11  1  0
 10 12  1  0
 12 13  2  0
 13 14  1  0
 13 15  1  0
 15 16  1  0
 15 17  2  0
 17 18  1  0
 18 19  1  0
 19 20  2  0
 20 21  1  0
 20 22  1  0
 22 23  1  0
 22 24  2  0
 24 25  1  0
 24 26  1  0
 26 27  1  0
 27 28  1  0
 28 29  2  0
 28 30  1  0
 30 31  1  0
 30 32  1  0
 30 33  1  0
 33 34  2  0
 34 35  1  0
 34 36  1  0
 36 37  1  0
 36 38  2  0
 38 39  1  0
 38 40  1  0
 40 41  1  0
 40 42  2  0
 42 43  1  0
 26 44  2  0
 44 45  1  0
 17 46  1  0
 46 47  1  0
 46 48  2  0
 48 49  1  0
  9 50  2  0
 50 51  1  0
 50 52  1  0
 52 53  2  0
 53 54  1  0
 53 55  1  0
 55 56  1  0
 55 57  2  0
 57 58  1  0
 58 59  1  0
 59 60  1  0
 59 61  1  0
 59 62  1  0
 58 63  1  0
 63 64  1  0
 63 65  1  0
 63 66  1  0
 57 67  1  0
 67 68  1  0
 67 69  2  0
 69 70  1  0
  8 71  2  0
 71 72  1  0
 71  2  1  0
 48 12  1  0
 69 52  1  0
 44 19  1  0
 42 33  1  0
M  CHG  2  27  -1  50   1
M  END
>  <UniqueID>  (81) 
69

>  <SMILES>  (81) 
CN(C)c1ccc(/[NH+]=C(\Nc2ccc(Oc3cccc([N-]C(=O)Cc4ccccc4)c3)cc2)c2ccncc2)cc1

>  <Energy>  (81) 
105.25178354549243

>  <Genealogy>  (81) 
CN(C)c1ccc([NH+]=C(Nc2ccc(Oc3cccc([N-]C(=O)Cc4ccccc4)c3)cc2)c2ccncc2)cc1 (protonated)
CN(C)c1ccc(/[NH+]=C(\Nc2ccc(Oc3cccc([N-]C(=O)Cc4ccccc4)c3)cc2)c2ccncc2)cc1 (cis-trans isomerization)
CN(C)c1ccc(/[NH+]=C(\Nc2ccc(Oc3cccc([N-]C(=O)Cc4ccccc4)c3)cc2)c2ccncc2)cc1 (3D coordinates assigned)
CN(C)c1ccc(/[NH+]=C(\Nc2ccc(Oc3cccc([N-]C(=O)Cc4ccccc4)c3)cc2)c2ccncc2)cc1 (optimized conformer: 105.25178354549243 kcal/mol)

>  <smiles>  (81) 
CN(C)c1ccc(N=C(Nc2ccc(Oc3cccc(NC(=O)Cc4ccccc4)c3)cc2)c2ccncc2)cc1

>  <score_type>  (81) 
oracle

>  <origin>  (81) 
adg

>  <m_score__min__energy>  (81) 
-10.91

>  <m_primary>  (81) 
energy

$$$$
82:0
     RDKit          3D

 52 55  0  0  1  0  0  0  0  0999 V2000
   56.2660   30.4630   44.8560 O   0  0  0  0  0  0  0  0  0  0  0  0
   57.2630   30.8190   44.1670 C   0  0  0  0  0  0  0  0  0  0  0  0
   57.3940   32.1410   43.5350 C   0  0  0  0  0  0  0  0  0  0  0  0
   57.4560   33.3980   44.8690 S   0  0  0  0  0  0  0  0  0  0  0  0
   58.7410   32.9470   46.0570 C   0  0  0  0  0  0  0  0  0  0  0  0
   58.4360   32.0720   47.0310 N   0  0  0  0  0  0  0  0  0  0  0  0
   59.3710   31.7180   47.9290 C   0  0  0  0  0  0  0  0  0  0  0  0
   59.0120   30.8670   48.8470 N   0  0  0  0  0  0  0  0  0  0  0  0
   58.5470   31.3620   50.1180 C   0  0  0  0  0  0  0  0  0  0  0  0
   58.8960   32.6130   50.5680 C   0  0  0  0  0  0  0  0  0  0  0  0
   58.3900   32.9880   51.8080 C   0  0  0  0  0  0  0  0  0  0  0  0
   57.5730   32.1270   52.5420 C   0  0  0  0  0  0  0  0  0  0  0  0
   57.2680   30.8780   52.0120 C   0  0  0  0  0  0  0  0  0  0  0  0
   57.7580   30.5140   50.8110 N   0  0  0  0  0  0  0  0  0  0  0  0
   60.6350   32.2360   47.8700 C   0  0  0  0  0  0  0  0  0  0  0  0
   60.9200   33.1410   46.8490 C   0  0  0  0  0  0  0  0  0  0  0  0
   62.3150   33.6840   46.8190 C   0  0  0  0  0  0  0  0  0  0  0  0
   62.9120   33.4620   48.1570 C   0  0  0  0  0  0  0  0  0  0  0  0
   62.5300   34.3070   49.1850 C   0  0  0  0  0  0  0  0  0  0  0  0
   63.0270   34.1860   50.4650 C   0  0  0  0  0  0  0  0  0  0  0  0
   63.9520   33.1750   50.7490 C   0  0  0  0  0  0  0  0  0  0  0  0
   64.3430   32.3180   49.7200 C   0  0  0  0  0  0  0  0  0  0  0  0
   63.8230   32.4640   48.4310 C   0  0  0  0  0  0  0  0  0  0  0  0
   59.9840   33.4930   45.9520 N   0  0  0  0  0  0  0  0  0  0  0  0
   58.3230   29.8760   43.9910 N   0  0  0  0  0  0  0  0  0  0  0  0
   58.1290   28.6020   44.6350 C   0  0  0  0  0  0  0  0  0  0  0  0
   57.9980   27.4540   43.8810 C   0  0  0  0  0  0  0  0  0  0  0  0
   57.8080   26.2060   44.4750 C   0  0  0  0  0  0  0  0  0  0  0  0
   57.7540   26.1420   45.8600 C   0  0  0  0  0  0  0  0  0  0  0  0
   57.5730   24.9690   46.5040 F   0  0  0  0  0  0  0  0  0  0  0  0
   57.8830   27.2750   46.6390 C   0  0  0  0  0  0  0  0  0  0  0  0
   58.0710   28.5120   46.0260 C   0  0  0  0  0  0  0  0  0  0  0  0
   58.3183   32.1812   42.9400 H   0  0  0  0  0  0  0  0  0  0  0  0
   56.5419   32.3328   42.8663 H   0  0  0  0  0  0  0  0  0  0  0  0
   59.5409   33.2817   49.9790 H   0  0  0  0  0  0  0  0  0  0  0  0
   58.6377   33.9788   52.2166 H   0  0  0  0  0  0  0  0  0  0  0  0
   57.1773   32.4309   53.5223 H   0  0  0  0  0  0  0  0  0  0  0  0
   56.6250   30.1854   52.5749 H   0  0  0  0  0  0  0  0  0  0  0  0
   61.4018   31.9480   48.6042 H   0  0  0  0  0  0  0  0  0  0  0  0
   62.9052   33.1592   46.0533 H   0  0  0  0  0  0  0  0  0  0  0  0
   62.3066   34.7561   46.5732 H   0  0  0  0  0  0  0  0  0  0  0  0
   61.8029   35.1046   48.9724 H   0  0  0  0  0  0  0  0  0  0  0  0
   62.6997   34.8774   51.2555 H   0  0  0  0  0  0  0  0  0  0  0  0
   64.3624   33.0584   51.7629 H   0  0  0  0  0  0  0  0  0  0  0  0
   65.0692   31.5178   49.9256 H   0  0  0  0  0  0  0  0  0  0  0  0
   64.1421   31.7794   47.6313 H   0  0  0  0  0  0  0  0  0  0  0  0
   60.2270   34.1660   45.2070 H   0  0  0  0  0  0  0  0  0  0  0  0
   59.1850   30.0900   43.4350 H   0  0  0  0  0  0  0  0  0  0  0  0
   58.0445   27.5245   42.7842 H   0  0  0  0  0  0  0  0  0  0  0  0
   57.7039   25.2982   43.8625 H   0  0  0  0  0  0  0  0  0  0  0  0
   57.8376   27.2014   47.7356 H   0  0  0  0  0  0  0  0  0  0  0  0
   58.1739   29.4190   46.6397 H   0  0  0  0  0  0  0  0  0  0  0  0
  1  2  2  0
  2  3  1  0
  3  4  1  0
  4  5  1  0
  5  6  2  0
  6  7  1  0
  7  8  2  0
  8  9  1  0
  9 10  2  0
 10 11  1  0
 11 12  2  0
 12 13  1  0
 13 14  2  0
  7 15  1  0
 15 16  2  0
 16 17  1  0
 17 18  1  0
 18 19  2  0
 19 20  1  0
 20 21  2  0
 21 22  1  0
 22 23  2  0
 16 24  1  0
  2 25  1  0
 25 26  1  0
 26 27  2  0
 27 28  1  0
 28 29  2  0
 29 30  1  0
 29 31  1  0
 31 32  2  0
 24  5  1  0
 32 26  1  0
 14  9  1  0
 23 18  1  0
  3 33  1  0
  3 34  1  0
 10 35  1  0
 11 36  1  0
 12 37  1  0
 13 38  1  0
 15 39  1  0
 17 40  1  0
 17 41  1  0
 19 42  1  0
 20 43  1  0
 21 44  1  0
 22 45  1  0
 23 46  1  0
 24 47  1  0
 25 48  1  0
 27 49  1  0
 28 50  1  0
 31 51  1  0
 32 52  1  0
M  END
>  <smiles>  (82) 
O=C(CSc1nc(=Nc2ccccn2)cc(Cc2ccccc2)[nH]1)Nc1ccc(F)cc1

>  <score_type>  (82) 
oracle

>  <origin>  (82) 
adg

>  <m_score__min__energy>  (82) 
-9.0099999999999998

>  <m_primary>  (82) 
energy

$$$$
83:0
     RDKit          3D

 51 53  0  0  1  0  0  0  0  0999 V2000
   56.3160   29.3920   52.8680 C   0  0  0  0  0  0  0  0  0  0  0  0
   57.1380   30.2120   51.9660 C   0  0  0  0  0  0  0  0  0  0  0  0
   57.4450   31.5690   52.0420 C   0  0  0  0  0  0  0  0  0  0  0  0
   58.2490   31.8690   50.9630 C   0  0  0  0  0  0  0  0  0  0  0  0
   58.4000   30.6840   50.2710 C   0  0  0  0  0  0  0  0  0  0  0  0
   59.1730   30.4940   49.0460 C   0  0  0  0  0  0  0  0  0  0  0  0
   60.1560   31.3210   48.7150 N   0  0  0  0  0  0  0  0  0  0  0  0
   60.9090   31.2090   47.6050 C   0  0  0  0  0  0  0  0  0  0  0  0
   61.9930   32.1240   47.2470 C   0  0  2  0  0  0  0  0  0  0  0  0
   62.6850   32.7530   48.4230 C   0  0  0  0  0  0  0  0  0  0  0  0
   63.5150   33.8310   47.7580 C   0  0  0  0  0  0  0  0  0  0  0  0
   62.8840   34.0070   46.3980 C   0  0  0  0  0  0  0  0  0  0  0  0
   61.6730   33.2120   46.4000 N   0  0  0  0  0  0  0  0  0  0  0  0
   60.3130   34.1280   46.8990 S   0  0  0  0  0  0  0  0  0  0  0  0
   58.7870   33.3110   46.5180 C   0  0  0  0  0  0  0  0  0  0  0  0
   60.3570   34.5210   48.3220 O   0  0  0  0  0  0  0  0  0  0  0  0
   60.3110   35.4100   46.0900 O   0  0  0  0  0  0  0  0  0  0  0  0
   60.6290   30.1570   46.7620 C   0  0  0  0  0  0  0  0  0  0  0  0
   59.6040   29.3030   47.1150 C   0  0  0  0  0  0  0  0  0  0  0  0
   59.3530   28.3080   46.3000 N   0  0  0  0  0  0  0  0  0  0  0  0
   58.0350   27.7840   46.1730 C   0  0  0  0  0  0  0  0  0  0  0  0
   57.4200   27.2480   47.1460 O   0  0  0  0  0  0  0  0  0  0  0  0
   57.4070   27.8970   44.8220 C   0  0  0  0  0  0  0  0  0  0  0  0
   56.6100   29.4680   44.6120 S   0  0  0  0  0  0  0  0  0  0  0  0
   56.9590   29.9980   42.9400 C   0  0  0  0  0  0  0  0  0  0  0  0
   57.2130   30.4530   45.5790 O   0  0  0  0  0  0  0  0  0  0  0  0
   55.1460   29.4100   44.8760 O   0  0  0  0  0  0  0  0  0  0  0  0
   58.8730   29.4510   48.2370 N   0  0  0  0  0  0  0  0  0  0  0  0
   57.7340   29.7420   50.8930 O   0  0  0  0  0  0  0  0  0  0  0  0
   56.5615   29.6369   53.9119 H   0  0  0  0  0  0  0  0  0  0  0  0
   55.2515   29.5987   52.6835 H   0  0  0  0  0  0  0  0  0  0  0  0
   56.5201   28.3270   52.6835 H   0  0  0  0  0  0  0  0  0  0  0  0
   57.1082   32.2710   52.8191 H   0  0  0  0  0  0  0  0  0  0  0  0
   58.6801   32.8481   50.7069 H   0  0  0  0  0  0  0  0  0  0  0  0
   62.6336   31.4133   46.7043 H   0  0  0  0  0  0  0  0  0  0  0  0
   61.9606   33.1846   49.1294 H   0  0  0  0  0  0  0  0  0  0  0  0
   63.2753   32.0442   49.0223 H   0  0  0  0  0  0  0  0  0  0  0  0
   63.4685   34.7678   48.3326 H   0  0  0  0  0  0  0  0  0  0  0  0
   64.5793   33.5604   47.6940 H   0  0  0  0  0  0  0  0  0  0  0  0
   62.6428   35.0662   46.2253 H   0  0  0  0  0  0  0  0  0  0  0  0
   63.5680   33.6876   45.5980 H   0  0  0  0  0  0  0  0  0  0  0  0
   58.2748   33.0368   47.4520 H   0  0  0  0  0  0  0  0  0  0  0  0
   58.1457   33.9864   45.9328 H   0  0  0  0  0  0  0  0  0  0  0  0
   58.9935   32.4028   45.9328 H   0  0  0  0  0  0  0  0  0  0  0  0
   61.2038   30.0022   45.8370 H   0  0  0  0  0  0  0  0  0  0  0  0
   58.1864   27.7849   44.0539 H   0  0  0  0  0  0  0  0  0  0  0  0
   56.6483   27.1066   44.7242 H   0  0  0  0  0  0  0  0  0  0  0  0
   57.5638   30.9165   42.9652 H   0  0  0  0  0  0  0  0  0  0  0  0
   57.5141   29.2078   42.4132 H   0  0  0  0  0  0  0  0  0  0  0  0
   56.0138   30.1957   42.4132 H   0  0  0  0  0  0  0  0  0  0  0  0
   58.0970   28.7950   48.4940 H   0  0  0  0  0  0  0  0  0  0  0  0
  1  2  1  0
  2  3  2  0
  3  4  1  0
  4  5  2  0
  5  6  1  0
  6  7  2  0
  7  8  1  0
  8  9  1  0
  9 10  1  0
 10 11  1  0
 11 12  1  0
 12 13  1  0
 13 14  1  0
 14 15  1  0
 14 16  2  0
 14 17  2  0
  8 18  2  0
 18 19  1  0
 19 20  2  0
 20 21  1  0
 21 22  2  0
 21 23  1  0
 23 24  1  0
 24 25  1  0
 24 26  2  0
 24 27  2  0
 19 28  1  0
  5 29  1  0
 29  2  1  0
 28  6  1  0
 13  9  1  0
  1 30  1  0
  1 31  1  0
  1 32  1  0
  3 33  1  0
  4 34  1  0
  9 35  1  6
 10 36  1  0
 10 37  1  0
 11 38  1  0
 11 39  1  0
 12 40  1  0
 12 41  1  0
 15 42  1  0
 15 43  1  0
 15 44  1  0
 18 45  1  0
 23 46  1  0
 23 47  1  0
 25 48  1  0
 25 49  1  0
 25 50  1  0
 28 51  1  0
M  END
>  <smiles>  (83) 
Cc1ccc(-c2nc(C3CCCN3S(C)(=O)=O)cc(=NC(=O)CS(C)(=O)=O)[nH]2)o1

>  <score_type>  (83) 
oracle

>  <origin>  (83) 
adg

>  <m_score__min__energy>  (83) 
-9.5700000000000003

>  <m_primary>  (83) 
energy

$$$$
84:0
     RDKit          3D

 40 42  0  0  1  0  0  0  0  0999 V2000
   57.7750   32.1150   42.2330 C   0  0  0  0  0  0  0  0  0  0  0  0
   57.4140   31.2320   43.1580 C   0  0  0  0  0  0  0  0  0  0  0  0
   56.2700   30.2930   42.9900 C   0  0  0  0  0  0  0  0  0  0  0  0
   55.9300   29.7010   44.2920 N   0  0  0  0  0  0  0  0  0  0  0  0
   56.8660   29.2020   45.0250 C   0  0  0  0  0  0  0  0  0  0  0  0
   57.4120   29.9250   46.0180 N   0  0  0  0  0  0  0  0  0  0  0  0
   58.3940   29.4710   46.8230 C   0  0  0  0  0  0  0  0  0  0  0  0
   58.8180   30.1840   47.7320 N   0  0  0  0  0  0  0  0  0  0  0  0
   59.5610   31.3530   47.7920 C   0  0  0  0  0  0  0  0  0  0  0  0
   59.1370   32.4550   46.8880 C   0  0  0  0  0  0  0  0  0  0  0  0
   57.8010   32.8450   46.7630 C   0  0  0  0  0  0  0  0  0  0  0  0
   57.4120   33.8760   45.9240 C   0  0  0  0  0  0  0  0  0  0  0  0
   58.3240   34.5760   45.1650 C   0  0  0  0  0  0  0  0  0  0  0  0
   59.6410   34.2110   45.2710 C   0  0  0  0  0  0  0  0  0  0  0  0
   60.0190   33.1880   46.1040 C   0  0  0  0  0  0  0  0  0  0  0  0
   58.8890   28.2030   46.6480 C   0  0  0  0  0  0  0  0  0  0  0  0
   59.8820   27.7550   47.4550 C   0  0  0  0  0  0  0  0  0  0  0  0
   60.3360   26.4390   47.2040 C   0  0  0  0  0  0  0  0  0  0  0  0
   59.7570   25.7380   46.1950 C   0  0  0  0  0  0  0  0  0  0  0  0
   58.7510   26.2050   45.3800 C   0  0  0  0  0  0  0  0  0  0  0  0
   58.3120   27.4770   45.6210 C   0  0  0  0  0  0  0  0  0  0  0  0
   57.3340   27.9560   44.8350 N   0  0  0  0  0  0  0  0  0  0  0  0
   58.6298   32.7832   42.4143 H   0  0  0  0  0  0  0  0  0  0  0  0
   57.2190   32.1778   41.2859 H   0  0  0  0  0  0  0  0  0  0  0  0
   57.9889   31.1925   44.0950 H   0  0  0  0  0  0  0  0  0  0  0  0
   55.4004   30.8403   42.5972 H   0  0  0  0  0  0  0  0  0  0  0  0
   56.5489   29.4959   42.2851 H   0  0  0  0  0  0  0  0  0  0  0  0
   57.0310   30.8890   46.1440 H   0  0  0  0  0  0  0  0  0  0  0  0
   59.5098   31.7291   48.8244 H   0  0  0  0  0  0  0  0  0  0  0  0
   60.5710   31.0739   47.4574 H   0  0  0  0  0  0  0  0  0  0  0  0
   57.0345   32.3168   47.3491 H   0  0  0  0  0  0  0  0  0  0  0  0
   56.3467   34.1430   45.8621 H   0  0  0  0  0  0  0  0  0  0  0  0
   58.0083   35.3943   44.5011 H   0  0  0  0  0  0  0  0  0  0  0  0
   60.4026   34.7435   44.6824 H   0  0  0  0  0  0  0  0  0  0  0  0
   61.0877   32.9323   46.1541 H   0  0  0  0  0  0  0  0  0  0  0  0
   60.3085   28.3768   48.2559 H   0  0  0  0  0  0  0  0  0  0  0  0
   61.1383   25.9943   47.8111 H   0  0  0  0  0  0  0  0  0  0  0  0
   60.1210   24.7157   46.0148 H   0  0  0  0  0  0  0  0  0  0  0  0
   58.3228   25.5872   44.5769 H   0  0  0  0  0  0  0  0  0  0  0  0
   56.9340   27.3630   44.0750 H   0  0  0  0  0  0  0  0  0  0  0  0
  1  2  2  0
  2  3  1  0
  3  4  1  0
  4  5  2  0
  5  6  1  0
  6  7  1  0
  7  8  2  0
  8  9  1  0
  9 10  1  0
 10 11  2  0
 11 12  1  0
 12 13  2  0
 13 14  1  0
 14 15  2  0
  7 16  1  0
 16 17  2  0
 17 18  1  0
 18 19  2  0
 19 20  1  0
 20 21  2  0
 21 22  1  0
 22  5  1  0
 15 10  1  0
 21 16  1  0
  1 23  1  0
  1 24  1  0
  2 25  1  0
  3 26  1  0
  3 27  1  0
  6 28  1  0
  9 29  1  0
  9 30  1  0
 11 31  1  0
 12 32  1  0
 13 33  1  0
 14 34  1  0
 15 35  1  0
 17 36  1  0
 18 37  1  0
 19 38  1  0
 20 39  1  0
 22 40  1  0
M  END
>  <smiles>  (84) 
C=CCN=c1[nH]c(=NCc2ccccc2)c2ccccc2[nH]1

>  <score_type>  (84) 
oracle

>  <origin>  (84) 
adg

>  <m_score__min__energy>  (84) 
-7.9100000000000001

>  <m_primary>  (84) 
energy

$$$$
85:0
     RDKit          3D

 50 53  0  0  0  0  0  0  0  0999 V2000
   54.0911   22.4923   44.2583 H   0  0  0  0  0  0  0  0  0  0  0  0
   54.8080   23.2020   44.6970 C   0  0  0  0  0  0  0  0  0  0  0  0
   56.1370   22.8210   44.8890 C   0  0  0  0  0  0  0  0  0  0  0  0
   56.4669   21.8121   44.6003 H   0  0  0  0  0  0  0  0  0  0  0  0
   57.0490   23.7210   45.4480 C   0  0  0  0  0  0  0  0  0  0  0  0
   58.0980   23.4205   45.5868 H   0  0  0  0  0  0  0  0  0  0  0  0
   56.6340   25.0080   45.8340 C   0  0  0  0  0  0  0  0  0  0  0  0
   57.6090   25.9500   46.4380 C   0  0  0  0  0  0  0  0  0  0  0  0
   57.6600   26.0610   47.6910 O   0  0  0  0  0  0  0  0  0  0  0  0
   58.4620   26.7900   45.6400 N   0  0  0  0  0  0  0  0  0  0  0  0
   58.3360   28.0740   45.4610 C   0  0  0  0  0  0  0  0  0  0  0  0
   59.1540   28.9530   46.0970 N   0  0  0  0  0  0  0  0  0  0  0  0
   59.0450   30.2950   45.9300 C   0  0  0  0  0  0  0  0  0  0  0  0
   59.9270   31.1510   46.5880 C   0  0  0  0  0  0  0  0  0  0  0  0
   60.7047   30.7352   47.2455 H   0  0  0  0  0  0  0  0  0  0  0  0
   59.8280   32.5410   46.4160 C   0  0  0  0  0  0  0  0  0  0  0  0
   60.7390   33.4420   47.0910 N   0  0  0  0  0  0  0  0  0  0  0  0
   60.2550   34.2670   48.2100 C   0  0  0  0  0  0  0  0  0  0  0  0
   59.1639   34.3800   48.1286 H   0  0  0  0  0  0  0  0  0  0  0  0
   60.7475   35.2494   48.1613 H   0  0  0  0  0  0  0  0  0  0  0  0
   60.5940   33.6140   49.5590 C   0  0  0  0  0  0  0  0  0  0  0  0
   60.4055   32.5328   49.4848 H   0  0  0  0  0  0  0  0  0  0  0  0
   59.9605   34.0833   50.3261 H   0  0  0  0  0  0  0  0  0  0  0  0
   61.9930   33.8220   49.9480 N   0  0  0  0  0  0  0  0  0  0  0  0
   62.1420   33.5160   50.9390 H   0  0  0  0  0  0  0  0  0  0  0  0
   62.9430   33.1450   49.0530 C   0  0  0  0  0  0  0  0  0  0  0  0
   62.5592   32.1396   48.8251 H   0  0  0  0  0  0  0  0  0  0  0  0
   63.9142   33.0975   49.5673 H   0  0  0  0  0  0  0  0  0  0  0  0
   63.1470   33.9080   47.7320 C   0  0  0  0  0  0  0  0  0  0  0  0
   64.1644   33.7079   47.3647 H   0  0  0  0  0  0  0  0  0  0  0  0
   62.9897   34.9766   47.9404 H   0  0  0  0  0  0  0  0  0  0  0  0
   62.1430   33.4980   46.6430 C   0  0  0  0  0  0  0  0  0  0  0  0
   62.4253   32.5009   46.2741 H   0  0  0  0  0  0  0  0  0  0  0  0
   62.1913   34.2754   45.8663 H   0  0  0  0  0  0  0  0  0  0  0  0
   58.8150   33.0340   45.5730 C   0  0  0  0  0  0  0  0  0  0  0  0
   58.7108   34.1193   45.4274 H   0  0  0  0  0  0  0  0  0  0  0  0
   57.9620   32.1860   44.9350 N   0  0  0  0  0  0  0  0  0  0  0  0
   57.2370   32.6140   44.3190 H   0  0  0  0  0  0  0  0  0  0  0  0
   58.0480   30.8300   45.0880 C   0  0  0  0  0  0  0  0  0  0  0  0
   57.1700   29.9370   44.4270 C   0  0  0  0  0  0  0  0  0  0  0  0
   56.0770   30.4320   43.5160 C   0  0  0  0  0  0  0  0  0  0  0  0
   55.2397   30.8112   44.1203 H   0  0  0  0  0  0  0  0  0  0  0  0
   56.4671   31.2413   42.8813 H   0  0  0  0  0  0  0  0  0  0  0  0
   55.7261   29.6050   42.8813 H   0  0  0  0  0  0  0  0  0  0  0  0
   57.3250   28.5550   44.6240 C   0  0  0  0  0  0  0  0  0  0  0  0
   56.6492   27.8495   44.1184 H   0  0  0  0  0  0  0  0  0  0  0  0
   55.2930   25.3880   45.6270 C   0  0  0  0  0  0  0  0  0  0  0  0
   54.8470   26.6530   45.9950 O   0  0  0  0  0  0  0  0  0  0  0  0
   54.3870   24.4830   45.0610 C   0  0  0  0  0  0  0  0  0  0  0  0
   53.3403   24.7818   44.9025 H   0  0  0  0  0  0  0  0  0  0  0  0
  1  2  1  0
  2  3  2  0
  3  4  1  0
  3  5  1  0
  5  6  1  0
  5  7  2  0
  7  8  1  0
  8  9  2  0
  8 10  1  0
 10 11  2  0
 11 12  1  0
 12 13  1  0
 13 14  2  0
 14 15  1  0
 14 16  1  0
 16 17  1  0
 17 18  1  0
 18 19  1  0
 18 20  1  0
 18 21  1  0
 21 22  1  0
 21 23  1  0
 21 24  1  0
 24 25  1  0
 24 26  1  0
 26 27  1  0
 26 28  1  0
 26 29  1  0
 29 30  1  0
 29 31  1  0
 29 32  1  0
 32 33  1  0
 32 34  1  0
 16 35  2  0
 35 36  1  0
 35 37  1  0
 37 38  1  0
 37 39  2  0
 39 40  1  0
 40 41  1  0
 41 42  1  0
 41 43  1  0
 41 44  1  0
 40 45  2  0
 45 46  1  0
  7 47  1  0
 47 48  1  0
 47 49  2  0
 49 50  1  0
 49  2  1  0
 45 11  1  0
 39 13  1  0
 32 17  1  0
M  CHG  3  12  -1  37   1  48  -1
M  END
>  <UniqueID>  (85) 
70

>  <SMILES>  (85) 
Cc1c/c(=N/C(=O)c2ccccc2[O-])[n-]c2cc(N3CCCNCC3)c[nH+]c12

>  <Energy>  (85) 
72.77209028126886

>  <Genealogy>  (85) 
Cc1cc(=NC(=O)c2ccccc2[O-])[n-]c2cc(N3CCCNCC3)c[nH+]c12 (protonated)
Cc1c/c(=N/C(=O)c2ccccc2[O-])[n-]c2cc(N3CCCNCC3)c[nH+]c12 (cis-trans isomerization)
Cc1c/c(=N/C(=O)c2ccccc2[O-])[n-]c2cc(N3CCCNCC3)c[nH+]c12 (3D coordinates assigned)
Cc1c/c(=N/C(=O)c2ccccc2[O-])[n-]c2cc(N3CCCNCC3)c[nH+]c12 (nonaromatic ring conformer: 72.77209028126886 kcal/mol)

>  <smiles>  (85) 
Cc1cc(=NC(=O)c2ccccc2O)[nH]c2cc(N3CCCNCC3)cnc12

>  <score_type>  (85) 
oracle

>  <origin>  (85) 
adg

>  <m_score__min__energy>  (85) 
-10.5

>  <m_primary>  (85) 
energy

$$$$
86:0
     RDKit          3D

 51 53  0  0  0  0  0  0  0  0999 V2000
   56.1340   24.2410   44.4040 C   0  0  0  0  0  0  0  0  0  0  0  0
   54.9390   24.6430   45.2640 C   0  0  0  0  0  0  0  0  0  0  0  0
   55.2730   25.7420   46.1120 O   0  0  0  0  0  0  0  0  0  0  0  0
   56.5690   26.2210   46.3600 C   0  0  0  0  0  0  0  0  0  0  0  0
   57.5420   25.4560   47.0360 C   0  0  0  0  0  0  0  0  0  0  0  0
   58.8190   25.9760   47.2600 C   0  0  0  0  0  0  0  0  0  0  0  0
   59.1440   27.2510   46.8060 C   0  0  0  0  0  0  0  0  0  0  0  0
   58.1930   28.0180   46.1300 C   0  0  0  0  0  0  0  0  0  0  0  0
   56.8980   27.5120   45.9090 C   0  0  0  0  0  0  0  0  0  0  0  0
   55.8910   28.2800   45.2330 N   0  0  0  0  0  0  0  0  0  0  0  0
   56.1730   29.6200   44.1720 S   0  0  0  0  0  0  0  0  0  0  0  0
   55.5120   29.3720   42.8430 O   0  0  0  0  0  0  0  0  0  0  0  0
   55.5720   30.8520   44.7880 O   0  0  0  0  0  0  0  0  0  0  0  0
   57.9300   29.8650   43.9640 C   0  0  0  0  0  0  0  0  0  0  0  0
   58.3910   31.0720   44.7310 C   0  0  0  0  0  0  0  0  0  0  0  0
   59.2120   30.9240   45.8590 C   0  0  0  0  0  0  0  0  0  0  0  0
   59.6490   32.0480   46.5670 C   0  0  0  0  0  0  0  0  0  0  0  0
   59.2770   33.3400   46.1550 C   0  0  0  0  0  0  0  0  0  0  0  0
   59.7260   34.5320   46.9130 C   0  0  0  0  0  0  0  0  0  0  0  0
   59.3070   35.6780   46.5950 O   0  0  0  0  0  0  0  0  0  0  0  0
   60.6420   34.3870   48.0040 N   0  0  0  0  0  0  0  0  0  0  0  0
   60.2310   34.1170   49.3780 C   0  0  0  0  0  0  0  0  0  0  0  0
   60.0000   32.6500   49.5800 C   0  0  0  0  0  0  0  0  0  0  0  0
   58.7320   32.1700   49.9400 C   0  0  0  0  0  0  0  0  0  0  0  0
   58.5390   30.7980   50.1030 C   0  0  0  0  0  0  0  0  0  0  0  0
   59.6050   29.9180   49.9060 C   0  0  0  0  0  0  0  0  0  0  0  0
   60.8540   30.4310   49.5500 C   0  0  0  0  0  0  0  0  0  0  0  0
   61.0220   31.7720   49.3960 N   0  0  0  0  0  0  0  0  0  0  0  0
   58.4610   33.4830   45.0180 C   0  0  0  0  0  0  0  0  0  0  0  0
   58.0290   32.3590   44.3080 C   0  0  0  0  0  0  0  0  0  0  0  0
   56.9750   23.9581   45.0541 H   0  0  0  0  0  0  0  0  0  0  0  0
   55.8578   23.3863   43.7690 H   0  0  0  0  0  0  0  0  0  0  0  0
   56.4305   25.0889   43.7690 H   0  0  0  0  0  0  0  0  0  0  0  0
   54.1044   24.9333   44.6089 H   0  0  0  0  0  0  0  0  0  0  0  0
   54.6520   23.7868   45.8921 H   0  0  0  0  0  0  0  0  0  0  0  0
   57.2939   24.4441   47.3889 H   0  0  0  0  0  0  0  0  0  0  0  0
   59.5694   25.3766   47.7963 H   0  0  0  0  0  0  0  0  0  0  0  0
   60.1521   27.6552   46.9801 H   0  0  0  0  0  0  0  0  0  0  0  0
   58.4570   29.0227   45.7683 H   0  0  0  0  0  0  0  0  0  0  0  0
   58.4647   28.9770   44.3321 H   0  0  0  0  0  0  0  0  0  0  0  0
   58.1418   30.0217   42.8960 H   0  0  0  0  0  0  0  0  0  0  0  0
   59.5135   29.9187   46.1882 H   0  0  0  0  0  0  0  0  0  0  0  0
   60.2885   31.9205   47.4529 H   0  0  0  0  0  0  0  0  0  0  0  0
   61.0201   34.4568   50.0649 H   0  0  0  0  0  0  0  0  0  0  0  0
   59.2932   34.6552   49.5803 H   0  0  0  0  0  0  0  0  0  0  0  0
   57.8969   32.8695   50.0925 H   0  0  0  0  0  0  0  0  0  0  0  0
   57.5493   30.4103   50.3861 H   0  0  0  0  0  0  0  0  0  0  0  0
   59.4627   28.8343   50.0297 H   0  0  0  0  0  0  0  0  0  0  0  0
   61.7033   29.7496   49.3939 H   0  0  0  0  0  0  0  0  0  0  0  0
   58.1605   34.4874   44.6850 H   0  0  0  0  0  0  0  0  0  0  0  0
   57.4020   32.4847   43.4130 H   0  0  0  0  0  0  0  0  0  0  0  0
  1  2  1  0
  2  3  1  0
  3  4  1  0
  4  5  2  0
  5  6  1  0
  6  7  2  0
  7  8  1  0
  8  9  2  0
  9 10  1  0
 10 11  1  0
 11 12  2  0
 11 13  2  0
 11 14  1  0
 14 15  1  0
 15 16  2  0
 16 17  1  0
 17 18  2  0
 18 19  1  0
 19 20  2  0
 19 21  1  0
 21 22  1  0
 22 23  1  0
 23 24  2  0
 24 25  1  0
 25 26  2  0
 26 27  1  0
 27 28  2  0
 18 29  1  0
 29 30  2  0
  9  4  1  0
 30 15  1  0
 28 23  1  0
  1 31  1  0
  1 32  1  0
  1 33  1  0
  2 34  1  0
  2 35  1  0
  5 36  1  0
  6 37  1  0
  7 38  1  0
  8 39  1  0
 14 40  1  0
 14 41  1  0
 16 42  1  0
 17 43  1  0
 22 44  1  0
 22 45  1  0
 24 46  1  0
 25 47  1  0
 26 48  1  0
 27 49  1  0
 29 50  1  0
 30 51  1  0
M  CHG  2  10  -1  21  -1
M  END
>  <UniqueID>  (86) 
71

>  <SMILES>  (86) 
CCOc1ccccc1[N-]S(=O)(=O)Cc1ccc(C(=O)[N-]Cc2ccccn2)cc1

>  <Energy>  (86) 
49.2240654894753

>  <Genealogy>  (86) 
CCOc1ccccc1[N-]S(=O)(=O)Cc1ccc(C(=O)[N-]Cc2ccccn2)cc1 (protonated)
CCOc1ccccc1[N-]S(=O)(=O)Cc1ccc(C(=O)[N-]Cc2ccccn2)cc1 (3D coordinates assigned)
CCOc1ccccc1[N-]S(=O)(=O)Cc1ccc(C(=O)[N-]Cc2ccccn2)cc1 (optimized conformer: 49.2240654894753 kcal/mol)

>  <smiles>  (86) 
CCOc1ccccc1NS(=O)(=O)Cc1ccc(C(=O)NCc2ccccn2)cc1

>  <score_type>  (86) 
oracle

>  <origin>  (86) 
adg

>  <m_score__min__energy>  (86) 
-12.65

>  <m_primary>  (86) 
energy

$$$$
87:0
     RDKit          3D

 38 40  0  0  0  0  0  0  0  0999 V2000
   54.8250   25.4220   45.9980 N   0  0  0  0  0  0  0  0  0  0  0  0
   55.8560   25.9480   45.9960 C   0  0  0  0  0  0  0  0  0  0  0  0
   57.1400   26.6030   45.9970 C   0  0  0  0  0  0  0  0  0  0  0  0
   58.2660   25.8770   46.4090 C   0  0  0  0  0  0  0  0  0  0  0  0
   59.5110   26.5010   46.5100 C   0  0  0  0  0  0  0  0  0  0  0  0
   59.6380   27.8590   46.2130 C   0  0  0  0  0  0  0  0  0  0  0  0
   58.5230   28.5930   45.8010 C   0  0  0  0  0  0  0  0  0  0  0  0
   57.2750   27.9720   45.6630 C   0  0  0  0  0  0  0  0  0  0  0  0
   56.1590   28.7690   45.2420 N   0  0  0  0  0  0  0  0  0  0  0  0
   56.2410   29.8830   44.3450 C   0  0  0  0  0  0  0  0  0  0  0  0
   56.4130   29.6910   43.1120 O   0  0  0  0  0  0  0  0  0  0  0  0
   56.2250   31.2230   44.8460 N   0  0  0  0  0  0  0  0  0  0  0  0
   57.3750   31.9900   45.2320 C   0  0  0  0  0  0  0  0  0  0  0  0
   57.7000   33.1370   44.4970 C   0  0  0  0  0  0  0  0  0  0  0  0
   58.7990   33.9200   44.8580 C   0  0  0  0  0  0  0  0  0  0  0  0
   59.5880   33.5670   45.9670 C   0  0  0  0  0  0  0  0  0  0  0  0
   60.6900   34.3370   46.3690 O   0  0  0  0  0  0  0  0  0  0  0  0
   61.6900   33.9220   47.2600 C   0  0  0  0  0  0  0  0  0  0  0  0
   62.9170   33.4890   46.7410 C   0  0  0  0  0  0  0  0  0  0  0  0
   63.9440   33.0820   47.5990 C   0  0  0  0  0  0  0  0  0  0  0  0
   63.7560   33.1170   48.9830 C   0  0  0  0  0  0  0  0  0  0  0  0
   62.5420   33.5670   49.5110 C   0  0  0  0  0  0  0  0  0  0  0  0
   61.5130   33.9740   48.6560 C   0  0  0  0  0  0  0  0  0  0  0  0
   59.2350   32.4480   46.7290 C   0  0  0  0  0  0  0  0  0  0  0  0
   58.1370   31.6630   46.3690 C   0  0  0  0  0  0  0  0  0  0  0  0
   58.1682   24.8092   46.6543 H   0  0  0  0  0  0  0  0  0  0  0  0
   60.3922   25.9222   46.8238 H   0  0  0  0  0  0  0  0  0  0  0  0
   60.6172   28.3518   46.3035 H   0  0  0  0  0  0  0  0  0  0  0  0
   58.6258   29.6663   45.5834 H   0  0  0  0  0  0  0  0  0  0  0  0
   57.0861   33.4230   43.6302 H   0  0  0  0  0  0  0  0  0  0  0  0
   59.0483   34.8169   44.2720 H   0  0  0  0  0  0  0  0  0  0  0  0
   63.0738   33.4689   45.6524 H   0  0  0  0  0  0  0  0  0  0  0  0
   64.9011   32.7338   47.1834 H   0  0  0  0  0  0  0  0  0  0  0  0
   64.5622   32.7909   49.6566 H   0  0  0  0  0  0  0  0  0  0  0  0
   62.3961   33.6009   50.6008 H   0  0  0  0  0  0  0  0  0  0  0  0
   60.5625   34.3358   49.0752 H   0  0  0  0  0  0  0  0  0  0  0  0
   59.8265   32.1844   47.6182 H   0  0  0  0  0  0  0  0  0  0  0  0
   57.8671   30.7864   46.9763 H   0  0  0  0  0  0  0  0  0  0  0  0
  1  2  3  0
  2  3  1  0
  3  4  2  0
  4  5  1  0
  5  6  2  0
  6  7  1  0
  7  8  2  0
  8  9  1  0
  9 10  1  0
 10 11  2  0
 10 12  1  0
 12 13  1  0
 13 14  2  0
 14 15  1  0
 15 16  2  0
 16 17  1  0
 17 18  1  0
 18 19  2  0
 19 20  1  0
 20 21  2  0
 21 22  1  0
 22 23  2  0
 16 24  1  0
 24 25  2  0
  8  3  1  0
 25 13  1  0
 23 18  1  0
  4 26  1  0
  5 27  1  0
  6 28  1  0
  7 29  1  0
 14 30  1  0
 15 31  1  0
 19 32  1  0
 20 33  1  0
 21 34  1  0
 22 35  1  0
 23 36  1  0
 24 37  1  0
 25 38  1  0
M  CHG  2   9  -1  12  -1
M  END
>  <UniqueID>  (87) 
72

>  <SMILES>  (87) 
N#Cc1ccccc1[N-]C(=O)[N-]c1ccc(Oc2ccccc2)cc1

>  <Energy>  (87) 
56.57219522946729

>  <Genealogy>  (87) 
N#Cc1ccccc1[N-]C(=O)[N-]c1ccc(Oc2ccccc2)cc1 (protonated)
N#Cc1ccccc1[N-]C(=O)[N-]c1ccc(Oc2ccccc2)cc1 (3D coordinates assigned)
N#Cc1ccccc1[N-]C(=O)[N-]c1ccc(Oc2ccccc2)cc1 (optimized conformer: 56.57219522946729 kcal/mol)

>  <smiles>  (87) 
N#Cc1ccccc1NC(=O)Nc1ccc(Oc2ccccc2)cc1

>  <score_type>  (87) 
oracle

>  <origin>  (87) 
adg

>  <m_score__min__energy>  (87) 
-11.720000000000001

>  <m_primary>  (87) 
energy

$$$$
88:0
     RDKit          3D

 35 37  0  0  0  0  0  0  0  0999 V2000
   56.4670   31.4940   44.8700 O   0  0  0  0  0  0  0  0  0  0  0  0
   57.4170   32.1720   45.3480 C   0  0  0  0  0  0  0  0  0  0  0  0
   57.2320   33.6440   45.5630 C   0  0  0  0  0  0  0  0  0  0  0  0
   58.6380   34.5850   44.8750 S   0  0  0  0  0  0  0  0  0  0  0  0
   59.7110   34.3350   46.2940 C   0  0  0  0  0  0  0  0  0  0  0  0
   59.2520   34.6100   47.5860 C   0  0  0  0  0  0  0  0  0  0  0  0
   60.0610   34.3960   48.6590 N   0  0  0  0  0  0  0  0  0  0  0  0
   61.3280   33.9220   48.5160 C   0  0  0  0  0  0  0  0  0  0  0  0
   62.1300   33.7050   49.6420 C   0  0  0  0  0  0  0  0  0  0  0  0
   63.4300   33.2120   49.4890 C   0  0  0  0  0  0  0  0  0  0  0  0
   63.9340   32.9360   48.2140 C   0  0  0  0  0  0  0  0  0  0  0  0
   63.1410   33.1520   47.0820 C   0  0  0  0  0  0  0  0  0  0  0  0
   61.8350   33.6460   47.2260 C   0  0  0  0  0  0  0  0  0  0  0  0
   61.0160   33.8700   46.1150 C   0  0  0  0  0  0  0  0  0  0  0  0
   58.6590   31.5420   45.6960 N   0  0  0  0  0  0  0  0  0  0  0  0
   58.8870   30.1320   45.5590 C   0  0  0  0  0  0  0  0  0  0  0  0
   58.3380   29.4630   44.4550 C   0  0  0  0  0  0  0  0  0  0  0  0
   58.5320   28.0890   44.2910 C   0  0  0  0  0  0  0  0  0  0  0  0
   59.2620   27.3670   45.2370 C   0  0  0  0  0  0  0  0  0  0  0  0
   59.7900   28.0160   46.3550 C   0  0  0  0  0  0  0  0  0  0  0  0
   59.6030   29.3940   46.5290 C   0  0  0  0  0  0  0  0  0  0  0  0
   60.2060   30.1330   48.0060 Cl  0  0  0  0  0  0  0  0  0  0  0  0
   56.3051   33.9668   45.0663 H   0  0  0  0  0  0  0  0  0  0  0  0
   57.1757   33.8368   46.6445 H   0  0  0  0  0  0  0  0  0  0  0  0
   58.2345   35.0003   47.7353 H   0  0  0  0  0  0  0  0  0  0  0  0
   61.7384   33.9220   50.6468 H   0  0  0  0  0  0  0  0  0  0  0  0
   64.0586   33.0407   50.3753 H   0  0  0  0  0  0  0  0  0  0  0  0
   64.9570   32.5479   48.1009 H   0  0  0  0  0  0  0  0  0  0  0  0
   63.5404   32.9350   46.0803 H   0  0  0  0  0  0  0  0  0  0  0  0
   61.3989   33.6803   45.1014 H   0  0  0  0  0  0  0  0  0  0  0  0
   59.3420   32.0900   46.2680 H   0  0  0  0  0  0  0  0  0  0  0  0
   57.7506   30.0240   43.7132 H   0  0  0  0  0  0  0  0  0  0  0  0
   58.1089   27.5754   43.4151 H   0  0  0  0  0  0  0  0  0  0  0  0
   59.4212   26.2870   45.1017 H   0  0  0  0  0  0  0  0  0  0  0  0
   60.3561   27.4423   47.1036 H   0  0  0  0  0  0  0  0  0  0  0  0
  1  2  2  0
  2  3  1  0
  3  4  1  0
  4  5  1  0
  5  6  2  0
  6  7  1  0
  7  8  2  0
  8  9  1  0
  9 10  2  0
 10 11  1  0
 11 12  2  0
 12 13  1  0
 13 14  2  0
  2 15  1  0
 15 16  1  0
 16 17  2  0
 17 18  1  0
 18 19  2  0
 19 20  1  0
 20 21  2  0
 21 22  1  0
 14  5  1  0
 21 16  1  0
 13  8  1  0
  3 23  1  0
  3 24  1  0
  6 25  1  0
  9 26  1  0
 10 27  1  0
 11 28  1  0
 12 29  1  0
 14 30  1  0
 15 31  1  0
 17 32  1  0
 18 33  1  0
 19 34  1  0
 20 35  1  0
M  END
>  <UniqueID>  (88) 
73

>  <SMILES>  (88) 
O=C(CSc1cnc2ccccc2c1)Nc1ccccc1Cl

>  <Energy>  (88) 
40.39969386854896

>  <Genealogy>  (88) 
O=C(CSc1cnc2ccccc2c1)Nc1ccccc1Cl (3D coordinates assigned)
O=C(CSc1cnc2ccccc2c1)Nc1ccccc1Cl (optimized conformer: 40.39969386854896 kcal/mol)

>  <smiles>  (88) 
O=C(CSc1cnc2ccccc2c1)Nc1ccccc1Cl

>  <score_type>  (88) 
oracle

>  <origin>  (88) 
adg

>  <m_score__min__energy>  (88) 
-8.0999999999999996

>  <m_primary>  (88) 
energy

$$$$
89:0
     RDKit          3D

 62 65  0  0  0  0  0  0  0  0999 V2000
   55.8960   25.2050   47.1770 O   0  0  0  0  0  0  0  0  0  0  0  0
   55.5570   25.6330   46.0440 C   0  0  0  0  0  0  0  0  0  0  0  0
   54.7910   24.7450   45.1160 C   0  0  0  0  0  0  0  0  0  0  0  0
   55.6850   23.6960   44.5140 C   0  0  0  0  0  0  0  0  0  0  0  0
   56.7230   23.1280   45.2720 C   0  0  0  0  0  0  0  0  0  0  0  0
   57.5660   22.1680   44.7040 C   0  0  0  0  0  0  0  0  0  0  0  0
   57.3830   21.7730   43.3770 C   0  0  0  0  0  0  0  0  0  0  0  0
   56.3590   22.3400   42.6130 C   0  0  0  0  0  0  0  0  0  0  0  0
   55.5150   23.3020   43.1750 C   0  0  0  0  0  0  0  0  0  0  0  0
   55.9450   26.9440   45.6240 N   0  0  0  0  0  0  0  0  0  0  0  0
   57.3110   27.2970   45.2610 C   0  0  0  0  0  0  0  0  0  0  0  0
   57.3660   28.7320   44.8010 C   0  0  0  0  0  0  0  0  0  0  0  0
   56.9020   29.0460   43.5120 C   0  0  0  0  0  0  0  0  0  0  0  0
   56.9080   30.3660   43.0580 C   0  0  0  0  0  0  0  0  0  0  0  0
   57.3780   31.3840   43.8830 C   0  0  0  0  0  0  0  0  0  0  0  0
   57.8550   31.0880   45.1610 C   0  0  0  0  0  0  0  0  0  0  0  0
   57.8550   29.7620   45.6350 C   0  0  0  0  0  0  0  0  0  0  0  0
   58.3730   29.4510   46.9040 O   0  0  0  0  0  0  0  0  0  0  0  0
   59.6890   29.7140   47.3070 C   0  0  0  0  0  0  0  0  0  0  0  0
   60.6550   29.3830   46.5660 O   0  0  0  0  0  0  0  0  0  0  0  0
   59.9530   30.4660   48.5570 C   0  0  0  0  0  0  0  0  0  0  0  0
   61.3390   30.4170   49.1540 C   0  0  0  0  0  0  0  0  0  0  0  0
   62.1720   31.6000   48.7290 C   0  0  0  0  0  0  0  0  0  0  0  0
   62.3480   32.6880   49.6030 C   0  0  0  0  0  0  0  0  0  0  0  0
   63.0860   33.8040   49.1990 C   0  0  0  0  0  0  0  0  0  0  0  0
   63.6530   33.8430   47.9220 C   0  0  0  0  0  0  0  0  0  0  0  0
   63.4760   32.7690   47.0440 C   0  0  0  0  0  0  0  0  0  0  0  0
   62.7320   31.6530   47.4420 C   0  0  0  0  0  0  0  0  0  0  0  0
   59.0670   31.2570   49.1010 N   0  0  0  0  0  0  0  0  0  0  0  0
   59.0020   32.6900   49.0220 C   0  0  0  0  0  0  0  0  0  0  0  0
   58.9020   33.3430   50.0960 O   0  0  0  0  0  0  0  0  0  0  0  0
   58.9380   33.4070   47.7260 C   0  0  0  0  0  0  0  0  0  0  0  0
   60.0950   34.0010   47.1870 C   0  0  0  0  0  0  0  0  0  0  0  0
   60.0400   34.6770   45.9670 C   0  0  0  0  0  0  0  0  0  0  0  0
   58.8280   34.7820   45.2800 C   0  0  0  0  0  0  0  0  0  0  0  0
   57.6700   34.2140   45.8130 C   0  0  0  0  0  0  0  0  0  0  0  0
   57.7210   33.5320   47.0310 C   0  0  0  0  0  0  0  0  0  0  0  0
   53.9830   24.2511   45.6757 H   0  0  0  0  0  0  0  0  0  0  0  0
   54.3766   25.3605   44.3040 H   0  0  0  0  0  0  0  0  0  0  0  0
   56.8729   23.4398   46.3162 H   0  0  0  0  0  0  0  0  0  0  0  0
   58.3743   21.7233   45.3030 H   0  0  0  0  0  0  0  0  0  0  0  0
   58.0451   21.0152   42.9328 H   0  0  0  0  0  0  0  0  0  0  0  0
   56.2171   22.0286   41.5676 H   0  0  0  0  0  0  0  0  0  0  0  0
   54.7156   23.7521   42.5681 H   0  0  0  0  0  0  0  0  0  0  0  0
   57.9654   27.1692   46.1359 H   0  0  0  0  0  0  0  0  0  0  0  0
   57.6492   26.6421   44.4445 H   0  0  0  0  0  0  0  0  0  0  0  0
   56.5311   28.2450   42.8556 H   0  0  0  0  0  0  0  0  0  0  0  0
   56.5413   30.6018   42.0481 H   0  0  0  0  0  0  0  0  0  0  0  0
   57.3735   32.4247   43.5268 H   0  0  0  0  0  0  0  0  0  0  0  0
   58.2339   31.8969   45.8029 H   0  0  0  0  0  0  0  0  0  0  0  0
   61.2548   30.4160   50.2508 H   0  0  0  0  0  0  0  0  0  0  0  0
   61.8344   29.5026   48.7956 H   0  0  0  0  0  0  0  0  0  0  0  0
   61.9030   32.6604   50.6086 H   0  0  0  0  0  0  0  0  0  0  0  0
   63.2207   34.6522   49.8864 H   0  0  0  0  0  0  0  0  0  0  0  0
   64.2389   34.7192   47.6074 H   0  0  0  0  0  0  0  0  0  0  0  0
   63.9223   32.8017   46.0391 H   0  0  0  0  0  0  0  0  0  0  0  0
   62.5852   30.8147   46.7450 H   0  0  0  0  0  0  0  0  0  0  0  0
   61.0486   33.9319   47.7309 H   0  0  0  0  0  0  0  0  0  0  0  0
   60.9512   35.1272   45.5463 H   0  0  0  0  0  0  0  0  0  0  0  0
   58.7864   35.3131   44.3176 H   0  0  0  0  0  0  0  0  0  0  0  0
   56.7157   34.3035   45.2732 H   0  0  0  0  0  0  0  0  0  0  0  0
   56.8045   33.0902   47.4492 H   0  0  0  0  0  0  0  0  0  0  0  0
  1  2  2  0
  2  3  1  0
  3  4  1  0
  4  5  2  0
  5  6  1  0
  6  7  2  0
  7  8  1  0
  8  9  2  0
  2 10  1  0
 10 11  1  0
 11 12  1  0
 12 13  2  0
 13 14  1  0
 14 15  2  0
 15 16  1  0
 16 17  2  0
 17 18  1  0
 18 19  1  0
 19 20  2  0
 19 21  1  0
 21 22  1  0
 22 23  1  0
 23 24  2  0
 24 25  1  0
 25 26  2  0
 26 27  1  0
 27 28  2  0
 21 29  2  3
 29 30  1  0
 30 31  2  0
 30 32  1  0
 32 33  2  0
 33 34  1  0
 34 35  2  0
 35 36  1  0
 36 37  2  0
  9  4  1  0
 17 12  1  0
 28 23  1  0
 37 32  1  0
  3 38  1  0
  3 39  1  0
  5 40  1  0
  6 41  1  0
  7 42  1  0
  8 43  1  0
  9 44  1  0
 11 45  1  0
 11 46  1  0
 13 47  1  0
 14 48  1  0
 15 49  1  0
 16 50  1  0
 22 51  1  0
 22 52  1  0
 24 53  1  0
 25 54  1  0
 26 55  1  0
 27 56  1  0
 28 57  1  0
 33 58  1  0
 34 59  1  0
 35 60  1  0
 36 61  1  0
 37 62  1  0
M  CHG  1  10  -1
M  END
>  <UniqueID>  (89) 
74

>  <SMILES>  (89) 
O=C(Cc1ccccc1)[N-]Cc1ccccc1OC(=O)C(Cc1ccccc1)=NC(=O)c1ccccc1

>  <Energy>  (89) 
74.88342190526105

>  <Genealogy>  (89) 
O=C(Cc1ccccc1)[N-]Cc1ccccc1OC(=O)C(Cc1ccccc1)=NC(=O)c1ccccc1 (protonated)
O=C(Cc1ccccc1)[N-]Cc1ccccc1OC(=O)C(Cc1ccccc1)=NC(=O)c1ccccc1 (3D coordinates assigned)
O=C(Cc1ccccc1)[N-]Cc1ccccc1OC(=O)C(Cc1ccccc1)=NC(=O)c1ccccc1 (optimized conformer: 74.88342190526105 kcal/mol)

>  <smiles>  (89) 
O=C(Cc1ccccc1)NCc1ccccc1OC(=O)C(Cc1ccccc1)=NC(=O)c1ccccc1

>  <score_type>  (89) 
oracle

>  <origin>  (89) 
adg

>  <m_score__min__energy>  (89) 
-12.51

>  <m_primary>  (89) 
energy

$$$$
90:0
     RDKit          3D

 43 44  0  0  0  0  0  0  0  0999 V2000
   57.3670   33.5850   45.1740 C   0  0  0  0  0  0  0  0  0  0  0  0
   57.8210   32.4850   44.5640 C   0  0  0  0  0  0  0  0  0  0  0  0
   56.9900   31.2360   44.4630 C   0  0  0  0  0  0  0  0  0  0  0  0
   57.6540   30.0960   45.1960 C   0  0  0  0  0  0  0  0  0  0  0  0
   58.9550   30.2720   45.6900 C   0  0  0  0  0  0  0  0  0  0  0  0
   59.5770   29.2630   46.4190 C   0  0  0  0  0  0  0  0  0  0  0  0
   58.9150   28.0600   46.6550 C   0  0  0  0  0  0  0  0  0  0  0  0
   57.6140   27.8470   46.1670 C   0  0  0  0  0  0  0  0  0  0  0  0
   56.9860   26.5280   46.4060 C   0  0  0  0  0  0  0  0  0  0  0  0
   55.7310   26.4200   46.3460 O   0  0  0  0  0  0  0  0  0  0  0  0
   57.7850   25.3980   46.7720 N   0  0  0  0  0  0  0  0  0  0  0  0
   58.7230   24.7310   45.8730 C   0  0  0  0  0  0  0  0  0  0  0  0
   58.2710   23.2980   45.5590 C   0  0  0  0  0  0  0  0  0  0  0  0
   56.7730   23.1880   45.4290 C   0  0  0  0  0  0  0  0  0  0  0  0
   56.1050   23.7860   44.3490 C   0  0  0  0  0  0  0  0  0  0  0  0
   54.7110   23.7220   44.2560 C   0  0  0  0  0  0  0  0  0  0  0  0
   53.9650   23.0580   45.2480 C   0  0  0  0  0  0  0  0  0  0  0  0
   52.5650   22.9730   45.2050 O   0  0  0  0  0  0  0  0  0  0  0  0
   51.7160   23.9610   44.6290 C   0  0  0  0  0  0  0  0  0  0  0  0
   54.6350   22.4570   46.3210 C   0  0  0  0  0  0  0  0  0  0  0  0
   56.0280   22.5190   46.4120 C   0  0  0  0  0  0  0  0  0  0  0  0
   56.9640   28.8910   45.4570 C   0  0  0  0  0  0  0  0  0  0  0  0
   55.6370   28.7790   45.0340 O   0  0  0  0  0  0  0  0  0  0  0  0
   57.9997   34.4830   45.2312 H   0  0  0  0  0  0  0  0  0  0  0  0
   56.3609   33.5918   45.6186 H   0  0  0  0  0  0  0  0  0  0  0  0
   58.8293   32.4941   44.1244 H   0  0  0  0  0  0  0  0  0  0  0  0
   56.0006   31.4232   44.9058 H   0  0  0  0  0  0  0  0  0  0  0  0
   56.8865   30.9635   43.4023 H   0  0  0  0  0  0  0  0  0  0  0  0
   59.4879   31.2153   45.4996 H   0  0  0  0  0  0  0  0  0  0  0  0
   60.5938   29.4156   46.8099 H   0  0  0  0  0  0  0  0  0  0  0  0
   59.4163   27.2675   47.2300 H   0  0  0  0  0  0  0  0  0  0  0  0
   58.7862   25.3007   44.9341 H   0  0  0  0  0  0  0  0  0  0  0  0
   59.7047   24.6851   46.3671 H   0  0  0  0  0  0  0  0  0  0  0  0
   58.7328   22.9804   44.6125 H   0  0  0  0  0  0  0  0  0  0  0  0
   58.5853   22.6546   46.3940 H   0  0  0  0  0  0  0  0  0  0  0  0
   56.6814   24.3081   43.5711 H   0  0  0  0  0  0  0  0  0  0  0  0
   54.1960   24.1919   43.4051 H   0  0  0  0  0  0  0  0  0  0  0  0
   51.2241   24.5334   45.4292 H   0  0  0  0  0  0  0  0  0  0  0  0
   52.3153   24.6417   44.0065 H   0  0  0  0  0  0  0  0  0  0  0  0
   50.9529   23.4709   44.0065 H   0  0  0  0  0  0  0  0  0  0  0  0
   54.0602   21.9321   47.0982 H   0  0  0  0  0  0  0  0  0  0  0  0
   56.5430   22.0410   47.2583 H   0  0  0  0  0  0  0  0  0  0  0  0
   55.1460   27.9000   44.9530 H   0  0  0  0  0  0  0  0  0  0  0  0
  1  2  2  0
  2  3  1  0
  3  4  1  0
  4  5  2  0
  5  6  1  0
  6  7  2  0
  7  8  1  0
  8  9  1  0
  9 10  2  0
  9 11  1  0
 11 12  1  0
 12 13  1  0
 13 14  1  0
 14 15  2  0
 15 16  1  0
 16 17  2  0
 17 18  1  0
 18 19  1  0
 17 20  1  0
 20 21  2  0
  8 22  2  0
 22 23  1  0
 22  4  1  0
 21 14  1  0
  1 24  1  0
  1 25  1  0
  2 26  1  0
  3 27  1  0
  3 28  1  0
  5 29  1  0
  6 30  1  0
  7 31  1  0
 12 32  1  0
 12 33  1  0
 13 34  1  0
 13 35  1  0
 15 36  1  0
 16 37  1  0
 19 38  1  0
 19 39  1  0
 19 40  1  0
 20 41  1  0
 21 42  1  0
 23 43  1  0
M  CHG  1  11  -1
M  END
>  <UniqueID>  (90) 
75

>  <SMILES>  (90) 
C=CCc1cccc(C(=O)[N-]CCc2ccc(OC)cc2)c1O

>  <Energy>  (90) 
41.1123725203457

>  <Genealogy>  (90) 
C=CCc1cccc(C(=O)[N-]CCc2ccc(OC)cc2)c1O (protonated)
C=CCc1cccc(C(=O)[N-]CCc2ccc(OC)cc2)c1O (3D coordinates assigned)
C=CCc1cccc(C(=O)[N-]CCc2ccc(OC)cc2)c1O (optimized conformer: 41.1123725203457 kcal/mol)

>  <smiles>  (90) 
C=CCc1cccc(C(=O)NCCc2ccc(OC)cc2)c1O

>  <score_type>  (90) 
oracle

>  <origin>  (90) 
adg

>  <m_score__min__energy>  (90) 
-10.289999999999999

>  <m_primary>  (90) 
energy

$$$$
91:0
     RDKit          3D

 37 39  0  0  0  0  0  0  0  0999 V2000
   58.1110   32.4010   42.1740 C   0  0  0  0  0  0  0  0  0  0  0  0
   57.5030   31.8360   43.4620 C   0  0  1  0  0  0  0  0  0  0  0  0
   57.6930   30.3830   43.5310 N   0  0  0  0  0  0  0  0  0  0  0  0
   56.9040   29.5550   44.4010 C   0  0  0  0  0  0  0  0  0  0  0  0
   55.9840   30.0730   45.0920 O   0  0  0  0  0  0  0  0  0  0  0  0
   57.1630   28.1010   44.4950 C   0  0  0  0  0  0  0  0  0  0  0  0
   57.7700   27.4040   43.4370 C   0  0  0  0  0  0  0  0  0  0  0  0
   57.9990   26.0310   43.5530 C   0  0  0  0  0  0  0  0  0  0  0  0
   57.6220   25.3570   44.7200 C   0  0  0  0  0  0  0  0  0  0  0  0
   57.8370   23.9790   44.8700 C   0  0  0  0  0  0  0  0  0  0  0  0
   57.4470   23.3360   46.0500 C   0  0  0  0  0  0  0  0  0  0  0  0
   56.8440   24.0630   47.0810 C   0  0  0  0  0  0  0  0  0  0  0  0
   56.6270   25.4370   46.9410 C   0  0  0  0  0  0  0  0  0  0  0  0
   57.0130   26.0880   45.7630 C   0  0  0  0  0  0  0  0  0  0  0  0
   56.8030   27.4250   45.6220 N   0  0  0  0  0  0  0  0  0  0  0  0
   58.1210   32.5070   44.6690 C   0  0  0  0  0  0  0  0  0  0  0  0
   57.9900   33.8950   44.8660 C   0  0  0  0  0  0  0  0  0  0  0  0
   58.5520   34.5050   45.9920 C   0  0  0  0  0  0  0  0  0  0  0  0
   59.2430   33.7390   46.9340 C   0  0  0  0  0  0  0  0  0  0  0  0
   60.0100   34.5740   48.4700 Br  0  0  0  0  0  0  0  0  0  0  0  0
   59.3690   32.3570   46.7530 C   0  0  0  0  0  0  0  0  0  0  0  0
   58.8090   31.7430   45.6280 C   0  0  0  0  0  0  0  0  0  0  0  0
   58.8951   33.1296   42.4276 H   0  0  0  0  0  0  0  0  0  0  0  0
   58.5486   31.5816   41.5849 H   0  0  0  0  0  0  0  0  0  0  0  0
   57.3258   32.8974   41.5849 H   0  0  0  0  0  0  0  0  0  0  0  0
   56.4225   32.0420   43.4571 H   0  0  0  0  0  0  0  0  0  0  0  0
   58.4300   29.9390   42.9360 H   0  0  0  0  0  0  0  0  0  0  0  0
   58.0638   27.9374   42.5209 H   0  0  0  0  0  0  0  0  0  0  0  0
   58.4750   25.4804   42.7282 H   0  0  0  0  0  0  0  0  0  0  0  0
   58.3117   23.4045   44.0609 H   0  0  0  0  0  0  0  0  0  0  0  0
   57.6153   22.2553   46.1669 H   0  0  0  0  0  0  0  0  0  0  0  0
   56.5391   23.5518   48.0060 H   0  0  0  0  0  0  0  0  0  0  0  0
   56.1538   26.0057   47.7550 H   0  0  0  0  0  0  0  0  0  0  0  0
   57.4427   34.5028   44.1304 H   0  0  0  0  0  0  0  0  0  0  0  0
   58.4497   35.5907   46.1363 H   0  0  0  0  0  0  0  0  0  0  0  0
   59.9093   31.7527   47.4966 H   0  0  0  0  0  0  0  0  0  0  0  0
   58.9074   30.6558   45.4927 H   0  0  0  0  0  0  0  0  0  0  0  0
  1  2  1  0
  2  3  1  0
  3  4  1  0
  4  5  2  0
  4  6  1  0
  6  7  2  0
  7  8  1  0
  8  9  2  0
  9 10  1  0
 10 11  2  0
 11 12  1  0
 12 13  2  0
 13 14  1  0
 14 15  2  0
  2 16  1  0
 16 17  2  0
 17 18  1  0
 18 19  2  0
 19 20  1  0
 19 21  1  0
 21 22  2  0
 15  6  1  0
 22 16  1  0
 14  9  1  0
  1 23  1  0
  1 24  1  0
  1 25  1  0
  2 26  1  6
  3 27  1  0
  7 28  1  0
  8 29  1  0
 10 30  1  0
 11 31  1  0
 12 32  1  0
 13 33  1  0
 17 34  1  0
 18 35  1  0
 21 36  1  0
 22 37  1  0
M  END
>  <UniqueID>  (91) 
76

>  <SMILES>  (91) 
C[C@@H](NC(=O)c1ccc2ccccc2n1)c1ccc(Br)cc1

>  <Energy>  (91) 
39.11771163752839

>  <Genealogy>  (91) 
C[C@@H](NC(=O)c1ccc2ccccc2n1)c1ccc(Br)cc1 (chirality)
C[C@@H](NC(=O)c1ccc2ccccc2n1)c1ccc(Br)cc1 (3D coordinates assigned)
C[C@@H](NC(=O)c1ccc2ccccc2n1)c1ccc(Br)cc1 (optimized conformer: 39.11771163752839 kcal/mol)

>  <smiles>  (91) 
CC(NC(=O)c1ccc2ccccc2n1)c1ccc(Br)cc1

>  <score_type>  (91) 
oracle

>  <origin>  (91) 
adg

>  <m_score__min__energy>  (91) 
-8.4100000000000001

>  <m_primary>  (91) 
energy

$$$$
92:0
     RDKit          3D

 53 55  0  0  1  0  0  0  0  0999 V2000
   58.7620   32.0320   49.6420 C   0  0  0  0  0  0  0  0  0  0  0  0
   60.0040   32.3400   50.4120 C   0  0  0  0  0  0  0  0  0  0  0  0
   60.6870   33.4900   49.9880 O   0  0  0  0  0  0  0  0  0  0  0  0
   61.5950   33.4580   48.9730 C   0  0  0  0  0  0  0  0  0  0  0  0
   62.9110   33.0710   49.0790 C   0  0  0  0  0  0  0  0  0  0  0  0
   63.7890   33.0590   48.0160 C   0  0  0  0  0  0  0  0  0  0  0  0
   63.3690   33.4450   46.7670 C   0  0  0  0  0  0  0  0  0  0  0  0
   62.0540   33.8390   46.6350 C   0  0  0  0  0  0  0  0  0  0  0  0
   61.1680   33.8510   47.7090 C   0  0  0  0  0  0  0  0  0  0  0  0
   59.8200   34.2640   47.5220 N   0  0  0  0  0  0  0  0  0  0  0  0
   59.0820   33.6830   46.6410 C   0  0  0  0  0  0  0  0  0  0  0  0
   57.9010   34.3210   46.2880 C   0  0  0  0  0  0  0  0  0  0  0  0
   57.0630   33.7480   45.3470 C   0  0  0  0  0  0  0  0  0  0  0  0
   57.4490   32.5820   44.8150 N   0  0  0  0  0  0  0  0  0  0  0  0
   58.5940   31.9580   45.1530 C   0  0  0  0  0  0  0  0  0  0  0  0
   58.8860   30.8380   44.5910 N   0  0  0  0  0  0  0  0  0  0  0  0
   58.4690   29.5630   45.0740 C   0  0  0  0  0  0  0  0  0  0  0  0
   59.3660   28.6420   45.5980 C   0  0  0  0  0  0  0  0  0  0  0  0
   58.9580   27.4020   46.0670 C   0  0  0  0  0  0  0  0  0  0  0  0
   57.6140   27.0440   46.0220 C   0  0  0  0  0  0  0  0  0  0  0  0
   57.2460   25.7700   46.5140 N   0  0  0  0  0  0  0  0  0  0  0  0
   55.8290   24.9200   46.0290 S   0  0  0  0  0  0  0  0  0  0  0  0
   56.0350   23.9750   44.5640 C   0  0  0  0  0  0  0  0  0  0  0  0
   55.3870   24.0360   47.1780 O   0  0  0  0  0  0  0  0  0  0  0  0
   54.6870   25.9030   45.8050 O   0  0  0  0  0  0  0  0  0  0  0  0
   56.7400   27.9670   45.5020 C   0  0  0  0  0  0  0  0  0  0  0  0
   57.1340   29.2080   45.0300 C   0  0  0  0  0  0  0  0  0  0  0  0
   56.2190   30.1140   44.5100 O   0  0  0  0  0  0  0  0  0  0  0  0
   55.9470   30.0840   43.1130 C   0  0  0  0  0  0  0  0  0  0  0  0
   59.4130   32.5110   46.0690 N   0  0  0  0  0  0  0  0  0  0  0  0
   57.9381   31.8277   50.3416 H   0  0  0  0  0  0  0  0  0  0  0  0
   58.5004   32.8925   49.0086 H   0  0  0  0  0  0  0  0  0  0  0  0
   58.9327   31.1490   49.0086 H   0  0  0  0  0  0  0  0  0  0  0  0
   59.7276   32.4755   51.4680 H   0  0  0  0  0  0  0  0  0  0  0  0
   60.6884   31.4944   50.2487 H   0  0  0  0  0  0  0  0  0  0  0  0
   63.2826   32.7542   50.0647 H   0  0  0  0  0  0  0  0  0  0  0  0
   64.8302   32.7389   48.1691 H   0  0  0  0  0  0  0  0  0  0  0  0
   64.0539   33.4402   45.9063 H   0  0  0  0  0  0  0  0  0  0  0  0
   61.6920   34.1552   45.6455 H   0  0  0  0  0  0  0  0  0  0  0  0
   57.6316   35.2798   46.7550 H   0  0  0  0  0  0  0  0  0  0  0  0
   56.1203   34.2302   45.0492 H   0  0  0  0  0  0  0  0  0  0  0  0
   56.8110   32.1550   44.1040 H   0  0  0  0  0  0  0  0  0  0  0  0
   60.4335   28.9038   45.6426 H   0  0  0  0  0  0  0  0  0  0  0  0
   59.6991   26.6994   46.4758 H   0  0  0  0  0  0  0  0  0  0  0  0
   57.9140   25.3450   47.2240 H   0  0  0  0  0  0  0  0  0  0  0  0
   56.2624   22.9320   44.8294 H   0  0  0  0  0  0  0  0  0  0  0  0
   55.1083   24.0091   43.9723 H   0  0  0  0  0  0  0  0  0  0  0  0
   56.8634   24.3917   43.9723 H   0  0  0  0  0  0  0  0  0  0  0  0
   55.6720   27.7072   45.4581 H   0  0  0  0  0  0  0  0  0  0  0  0
   54.8653   29.9647   42.9525 H   0  0  0  0  0  0  0  0  0  0  0  0
   56.2843   31.0248   42.6535 H   0  0  0  0  0  0  0  0  0  0  0  0
   56.4812   29.2393   42.6535 H   0  0  0  0  0  0  0  0  0  0  0  0
   60.2910   32.0530   46.3420 H   0  0  0  0  0  0  0  0  0  0  0  0
  1  2  1  0
  2  3  1  0
  3  4  1  0
  4  5  2  0
  5  6  1  0
  6  7  2  0
  7  8  1  0
  8  9  2  0
  9 10  1  0
 10 11  2  0
 11 12  1  0
 12 13  2  0
 13 14  1  0
 14 15  1  0
 15 16  2  0
 16 17  1  0
 17 18  2  0
 18 19  1  0
 19 20  2  0
 20 21  1  0
 21 22  1  0
 22 23  1  0
 22 24  2  0
 22 25  2  0
 20 26  1  0
 26 27  2  0
 27 28  1  0
 28 29  1  0
 15 30  1  0
  9  4  1  0
 30 11  1  0
 27 17  1  0
  1 31  1  0
  1 32  1  0
  1 33  1  0
  2 34  1  0
  2 35  1  0
  5 36  1  0
  6 37  1  0
  7 38  1  0
  8 39  1  0
 12 40  1  0
 13 41  1  0
 14 42  1  0
 18 43  1  0
 19 44  1  0
 21 45  1  0
 23 46  1  0
 23 47  1  0
 23 48  1  0
 26 49  1  0
 29 50  1  0
 29 51  1  0
 29 52  1  0
 30 53  1  0
M  END
>  <smiles>  (92) 
CCOc1ccccc1N=c1cc[nH]c(=Nc2ccc(NS(C)(=O)=O)cc2OC)[nH]1

>  <score_type>  (92) 
oracle

>  <origin>  (92) 
adg

>  <m_score__min__energy>  (92) 
-8.1799999999999997

>  <m_primary>  (92) 
energy

$$$$
93:0
     RDKit          3D

 41 44  0  0  0  0  0  0  0  0999 V2000
   54.7620   26.7030   47.1130 H   0  0  0  0  0  0  0  0  0  0  0  0
   54.8500   26.3960   46.1520 O   0  0  0  0  0  0  0  0  0  0  0  0
   55.6220   25.2920   45.7970 C   0  0  0  0  0  0  0  0  0  0  0  0
   56.9830   25.1820   46.0420 C   0  0  0  0  0  0  0  0  0  0  0  0
   57.8510   26.2270   46.6080 C   0  0  0  0  0  0  0  0  0  0  0  0
   58.5558   25.9218   47.3955 H   0  0  0  0  0  0  0  0  0  0  0  0
   57.8580   27.5250   46.2460 C   0  0  0  0  0  0  0  0  0  0  0  0
   58.6970   28.5740   46.6850 C   0  0  0  0  0  0  0  0  0  0  0  0
   59.5920   28.5850   47.6810 C   0  0  0  0  0  0  0  0  0  0  0  0
   60.1690   29.4975   47.8919 H   0  0  0  0  0  0  0  0  0  0  0  0
   59.7502   27.6816   48.2883 H   0  0  0  0  0  0  0  0  0  0  0  0
   58.3210   29.6820   45.9380 C   0  0  0  0  0  0  0  0  0  0  0  0
   58.7940   30.9980   45.9370 C   0  0  0  0  0  0  0  0  0  0  0  0
   59.6203   31.3030   46.5959 H   0  0  0  0  0  0  0  0  0  0  0  0
   58.1830   31.9190   45.0700 C   0  0  0  0  0  0  0  0  0  0  0  0
   58.5378   32.9598   45.0423 H   0  0  0  0  0  0  0  0  0  0  0  0
   57.1190   31.5210   44.2350 C   0  0  0  0  0  0  0  0  0  0  0  0
   56.6519   32.2537   43.5605 H   0  0  0  0  0  0  0  0  0  0  0  0
   56.6480   30.1910   44.2570 C   0  0  0  0  0  0  0  0  0  0  0  0
   55.5120   29.7550   43.3800 C   0  0  0  0  0  0  0  0  0  0  0  0
   54.6682   29.4311   44.0070 H   0  0  0  0  0  0  0  0  0  0  0  0
   55.1955   30.5956   42.7449 H   0  0  0  0  0  0  0  0  0  0  0  0
   55.8392   28.9185   42.7449 H   0  0  0  0  0  0  0  0  0  0  0  0
   57.2800   29.2940   45.1320 C   0  0  0  0  0  0  0  0  0  0  0  0
   56.9840   27.9960   45.3230 N   0  0  0  0  0  0  0  0  0  0  0  0
   56.2440   27.4480   44.8280 H   0  0  0  0  0  0  0  0  0  0  0  0
   57.3670   23.9940   45.4460 C   0  0  0  0  0  0  0  0  0  0  0  0
   58.6290   23.4180   45.2860 C   0  0  0  0  0  0  0  0  0  0  0  0
   59.5286   23.9001   45.6963 H   0  0  0  0  0  0  0  0  0  0  0  0
   58.7140   22.2040   44.5850 C   0  0  0  0  0  0  0  0  0  0  0  0
   59.6914   21.7169   44.4530 H   0  0  0  0  0  0  0  0  0  0  0  0
   57.5550   21.6050   44.0490 C   0  0  0  0  0  0  0  0  0  0  0  0
   57.6350   20.6521   43.5053 H   0  0  0  0  0  0  0  0  0  0  0  0
   56.2980   22.2160   44.2040 C   0  0  0  0  0  0  0  0  0  0  0  0
   55.3914   21.7619   43.7774 H   0  0  0  0  0  0  0  0  0  0  0  0
   56.2340   23.4190   44.9170 C   0  0  0  0  0  0  0  0  0  0  0  0
   55.1510   24.1960   45.1470 N   0  0  0  0  0  0  0  0  0  0  0  0
   53.7860   23.9830   44.6680 C   0  0  0  0  0  0  0  0  0  0  0  0
   53.1080   23.8772   45.5278 H   0  0  0  0  0  0  0  0  0  0  0  0
   53.4731   24.8432   44.0580 H   0  0  0  0  0  0  0  0  0  0  0  0
   53.7500   23.0684   44.0580 H   0  0  0  0  0  0  0  0  0  0  0  0
  1  2  1  0
  2  3  1  0
  3  4  2  0
  4  5  1  0
  5  6  1  0
  5  7  2  0
  7  8  1  0
  8  9  2  0
  9 10  1  0
  9 11  1  0
  8 12  1  0
 12 13  2  0
 13 14  1  0
 13 15  1  0
 15 16  1  0
 15 17  2  0
 17 18  1  0
 17 19  1  0
 19 20  1  0
 20 21  1  0
 20 22  1  0
 20 23  1  0
 19 24  2  0
 24 25  1  0
 25 26  1  0
  4 27  1  0
 27 28  2  0
 28 29  1  0
 28 30  1  0
 30 31  1  0
 30 32  2  0
 32 33  1  0
 32 34  1  0
 34 35  1  0
 34 36  2  0
 36 37  1  0
 37 38  1  0
 38 39  1  0
 38 40  1  0
 38 41  1  0
 37  3  1  0
 25  7  1  0
 36 27  1  0
 24 12  1  0
M  END
>  <UniqueID>  (93) 
77

>  <SMILES>  (93) 
C=c1/c(=C\c2c(O)n(C)c3ccccc23)[nH]c2c(C)cccc12

>  <Energy>  (93) 
125.63458343677063

>  <Genealogy>  (93) 
C=c1/c(=C\c2c(O)n(C)c3ccccc23)[nH]c2c(C)cccc12 (cis-trans isomerization)
C=c1/c(=C\c2c(O)n(C)c3ccccc23)[nH]c2c(C)cccc12 (3D coordinates assigned)
C=c1/c(=C\c2c(O)n(C)c3ccccc23)[nH]c2c(C)cccc12 (optimized conformer: 125.63458343677063 kcal/mol)

>  <smiles>  (93) 
C=c1c(=Cc2c(O)n(C)c3ccccc23)[nH]c2c(C)cccc12

>  <score_type>  (93) 
oracle

>  <origin>  (93) 
adg

>  <m_score__min__energy>  (93) 
-9.6799999999999997

>  <m_primary>  (93) 
energy

$$$$
94:0
     RDKit          3D

 47 49  0  0  0  0  0  0  0  0999 V2000
   57.7700   27.7430   43.8710 N   0  0  0  0  0  0  0  0  0  0  0  0
   57.2270   28.3320   45.4020 S   0  0  0  0  0  0  0  0  0  0  0  0
   56.6530   27.1960   46.2000 O   0  0  0  0  0  0  0  0  0  0  0  0
   56.1550   29.3660   45.1950 O   0  0  0  0  0  0  0  0  0  0  0  0
   58.5830   29.0440   46.2710 C   0  0  0  0  0  0  0  0  0  0  0  0
   59.7390   29.4260   45.5770 C   0  0  0  0  0  0  0  0  0  0  0  0
   60.8230   29.9720   46.2700 C   0  0  0  0  0  0  0  0  0  0  0  0
   60.7560   30.1490   47.6540 C   0  0  0  0  0  0  0  0  0  0  0  0
   59.5920   29.7870   48.3570 C   0  0  0  0  0  0  0  0  0  0  0  0
   59.4830   29.9350   49.7810 N   0  0  0  0  0  0  0  0  0  0  0  0
   58.3800   30.4930   50.5060 C   0  0  0  0  0  0  0  0  0  0  0  0
   57.4520   29.7600   50.9390 O   0  0  0  0  0  0  0  0  0  0  0  0
   58.3820   31.9530   50.8370 C   0  0  0  0  0  0  0  0  0  0  0  0
   58.9430   32.7030   49.7640 O   0  0  0  0  0  0  0  0  0  0  0  0
   60.1350   33.4320   49.8720 C   0  0  0  0  0  0  0  0  0  0  0  0
   60.3330   34.1660   50.8790 O   0  0  0  0  0  0  0  0  0  0  0  0
   61.1370   33.3590   48.7820 C   0  0  0  0  0  0  0  0  0  0  0  0
   62.3100   32.6140   49.0020 C   0  0  0  0  0  0  0  0  0  0  0  0
   63.2730   32.4830   48.0000 C   0  0  0  0  0  0  0  0  0  0  0  0
   63.0810   33.0960   46.7630 C   0  0  0  0  0  0  0  0  0  0  0  0
   61.9320   33.8510   46.5280 C   0  0  0  0  0  0  0  0  0  0  0  0
   60.9610   34.0020   47.5280 C   0  0  0  0  0  0  0  0  0  0  0  0
   59.5540   35.0660   47.1660 S   0  0  0  0  0  0  0  0  0  0  0  0
   58.8390   33.8950   46.0110 C   0  0  0  0  0  0  0  0  0  0  0  0
   58.0480   32.8370   46.4770 C   0  0  0  0  0  0  0  0  0  0  0  0
   57.4860   31.9290   45.5740 C   0  0  0  0  0  0  0  0  0  0  0  0
   57.7190   32.0730   44.2020 C   0  0  0  0  0  0  0  0  0  0  0  0
   58.5140   33.1240   43.7340 C   0  0  0  0  0  0  0  0  0  0  0  0
   59.0760   34.0330   44.6370 C   0  0  0  0  0  0  0  0  0  0  0  0
   58.5200   29.2150   47.6600 C   0  0  0  0  0  0  0  0  0  0  0  0
   58.3200   26.8740   44.0540 H   0  0  0  0  0  0  0  0  0  0  0  0
   56.9210   27.4570   43.3340 H   0  0  0  0  0  0  0  0  0  0  0  0
   59.7933   29.2960   44.4861 H   0  0  0  0  0  0  0  0  0  0  0  0
   61.7322   30.2634   45.7236 H   0  0  0  0  0  0  0  0  0  0  0  0
   61.6149   30.5722   48.1954 H   0  0  0  0  0  0  0  0  0  0  0  0
   57.3485   32.2868   51.0115 H   0  0  0  0  0  0  0  0  0  0  0  0
   58.9880   32.1139   51.7408 H   0  0  0  0  0  0  0  0  0  0  0  0
   62.4703   32.1286   49.9760 H   0  0  0  0  0  0  0  0  0  0  0  0
   64.1841   31.8956   48.1868 H   0  0  0  0  0  0  0  0  0  0  0  0
   63.8364   32.9842   45.9713 H   0  0  0  0  0  0  0  0  0  0  0  0
   61.7864   34.3321   45.5496 H   0  0  0  0  0  0  0  0  0  0  0  0
   57.8685   32.7201   47.5559 H   0  0  0  0  0  0  0  0  0  0  0  0
   56.8611   31.1020   45.9422 H   0  0  0  0  0  0  0  0  0  0  0  0
   57.2768   31.3594   43.4913 H   0  0  0  0  0  0  0  0  0  0  0  0
   58.6976   33.2361   42.6552 H   0  0  0  0  0  0  0  0  0  0  0  0
   59.7045   34.8568   44.2679 H   0  0  0  0  0  0  0  0  0  0  0  0
   57.6208   28.8973   48.2081 H   0  0  0  0  0  0  0  0  0  0  0  0
  1  2  1  0
  2  3  2  0
  2  4  2  0
  2  5  1  0
  5  6  2  0
  6  7  1  0
  7  8  2  0
  8  9  1  0
  9 10  1  0
 10 11  1  0
 11 12  2  0
 11 13  1  0
 13 14  1  0
 14 15  1  0
 15 16  2  0
 15 17  1  0
 17 18  2  0
 18 19  1  0
 19 20  2  0
 20 21  1  0
 21 22  2  0
 22 23  1  0
 23 24  1  0
 24 25  2  0
 25 26  1  0
 26 27  2  0
 27 28  1  0
 28 29  2  0
  9 30  2  0
 30  5  1  0
 22 17  1  0
 29 24  1  0
  1 31  1  0
  1 32  1  0
  6 33  1  0
  7 34  1  0
  8 35  1  0
 13 36  1  0
 13 37  1  0
 18 38  1  0
 19 39  1  0
 20 40  1  0
 21 41  1  0
 25 42  1  0
 26 43  1  0
 27 44  1  0
 28 45  1  0
 29 46  1  0
 30 47  1  0
M  CHG  1  10  -1
M  END
>  <UniqueID>  (94) 
78

>  <SMILES>  (94) 
NS(=O)(=O)c1cccc([N-]C(=O)COC(=O)c2ccccc2Sc2ccccc2)c1

>  <Energy>  (94) 
48.59069341832911

>  <Genealogy>  (94) 
NS(=O)(=O)c1cccc([N-]C(=O)COC(=O)c2ccccc2Sc2ccccc2)c1 (protonated)
NS(=O)(=O)c1cccc([N-]C(=O)COC(=O)c2ccccc2Sc2ccccc2)c1 (3D coordinates assigned)
NS(=O)(=O)c1cccc([N-]C(=O)COC(=O)c2ccccc2Sc2ccccc2)c1 (optimized conformer: 48.59069341832911 kcal/mol)

>  <smiles>  (94) 
NS(=O)(=O)c1cccc(NC(=O)COC(=O)c2ccccc2Sc2ccccc2)c1

>  <score_type>  (94) 
oracle

>  <origin>  (94) 
adg

>  <m_score__min__energy>  (94) 
-11.23

>  <m_primary>  (94) 
energy

$$$$
