0:0
     RDKit          3D

 36 39  0  0  0  0  0  0  0  0999 V2000
   58.2850   27.8830   52.5620 H   0  0  0  0  0  0  0  0  0  0  0  0
   58.7430   28.7870   52.3090 N   0  0  0  0  0  0  0  0  0  0  0  0
   58.0570   29.8770   52.1760 C   0  0  0  0  0  0  0  0  0  0  0  0
   58.6810   31.0710   51.9610 N   0  0  0  0  0  0  0  0  0  0  0  0
   54.6450   30.6720   52.1780 C   0  0  0  0  0  0  0  0  0  0  0  0
   58.5670   33.3410   51.5990 N   0  0  0  0  0  0  0  0  0  0  0  0
   59.7570   33.4730   50.7610 C   0  0  0  0  0  0  0  0  0  0  0  0
   60.2781   34.4096   51.0083 H   0  0  0  0  0  0  0  0  0  0  0  0
   60.4300   32.6218   50.9413 H   0  0  0  0  0  0  0  0  0  0  0  0
   59.3490   33.4930   49.3170 C   0  0  0  0  0  0  0  0  0  0  0  0
   58.5860   32.4420   48.7830 C   0  0  0  0  0  0  0  0  0  0  0  0
   58.3089   31.5878   49.4183 H   0  0  0  0  0  0  0  0  0  0  0  0
   58.1770   32.4780   47.4450 C   0  0  0  0  0  0  0  0  0  0  0  0
   57.5850   31.6494   47.0291 H   0  0  0  0  0  0  0  0  0  0  0  0
   58.5200   33.5660   46.6360 C   0  0  0  0  0  0  0  0  0  0  0  0
   58.0050   33.6100   44.9590 Cl  0  0  0  0  0  0  0  0  0  0  0  0
   59.2670   34.6220   47.1670 C   0  0  0  0  0  0  0  0  0  0  0  0
   59.5335   35.4797   46.5319 H   0  0  0  0  0  0  0  0  0  0  0  0
   59.6760   34.5900   48.5040 C   0  0  0  0  0  0  0  0  0  0  0  0
   60.2558   35.4271   48.9200 H   0  0  0  0  0  0  0  0  0  0  0  0
   56.5850   32.1730   51.8710 N   0  0  0  0  0  0  0  0  0  0  0  0
   55.9900   30.9800   52.1060 C   0  0  0  0  0  0  0  0  0  0  0  0
   57.9510   32.2170   51.8070 C   0  0  0  0  0  0  0  0  0  0  0  0
   53.5670   31.4610   52.0610 C   0  0  0  0  0  0  0  0  0  0  0  0
   53.4290   32.2599   52.8045 H   0  0  0  0  0  0  0  0  0  0  0  0
   52.5580   31.3240   51.0000 C   0  0  0  0  0  0  0  0  0  0  0  0
   52.5630   30.3320   50.0930 N   0  0  0  0  0  0  0  0  0  0  0  0
   51.4340   30.5510   49.3830 C   0  0  0  0  0  0  0  0  0  0  0  0
   51.0900   29.8240   48.4150 O   0  0  0  0  0  0  0  0  0  0  0  0
   50.6980   31.6030   49.7990 N   0  0  0  0  0  0  0  0  0  0  0  0
   51.4170   32.0750   50.8310 C   0  0  0  0  0  0  0  0  0  0  0  0
   51.0170   33.1440   51.6230 O   0  0  0  0  0  0  0  0  0  0  0  0
   54.6380   29.2880   52.3520 C   0  0  0  0  0  0  0  0  0  0  0  0
   53.7331   28.6694   52.4435 H   0  0  0  0  0  0  0  0  0  0  0  0
   55.9080   28.8160   52.3920 N   0  0  0  0  0  0  0  0  0  0  0  0
   56.7050   29.8620   52.2400 N   0  0  0  0  0  0  0  0  0  0  0  0
  1  2  1  0
  2  3  2  3
  3  4  1  0
  4  5  1  0
  5  6  2  0
  6  7  1  0
  7  8  1  0
  7  9  1  0
  7 10  1  0
 10 11  2  0
 11 12  1  0
 11 13  1  0
 13 14  1  0
 13 15  2  0
 15 16  1  0
 15 17  1  0
 17 18  1  0
 17 19  2  0
 19 20  1  0
  5 21  1  0
 21 22  2  0
 22 23  1  0
 23 24  2  0
 24 25  1  0
 24 26  1  0
 26 27  1  0
 27 28  1  0
 28 29  2  0
 28 30  1  0
 30 31  1  0
 31 32  1  0
 23 33  1  0
 33 34  1  0
 33 35  2  0
 35 36  1  0
 36  3  1  0
 19 10  1  0
 36 22  1  0
 31 26  2  0
M  CHG  4   4  -1  27  -1  30  -1  32  -1
M  END
>  <UniqueID>  (1) 
1

>  <SMILES>  (1) 
N=c1[n-]/c(=N/Cc2ccc(Cl)cc2)nc2/c(=C\c3[n-]c(=O)[n-]c3[O-])cnn12

>  <Energy>  (1) 
113.62151739747443

>  <Genealogy>  (1) 
N=c1[n-]c(=NCc2ccc(Cl)cc2)nc2c(=Cc3[n-]c(=O)[n-]c3[O-])cnn12 (protonated)
N=c1[n-]/c(=N/Cc2ccc(Cl)cc2)nc2/c(=C\c3[n-]c(=O)[n-]c3[O-])cnn12 (cis-trans isomerization)
N=c1[n-]/c(=N/Cc2ccc(Cl)cc2)nc2/c(=C\c3[n-]c(=O)[n-]c3[O-])cnn12 (3D coordinates assigned)
N=c1[n-]/c(=N/Cc2ccc(Cl)cc2)nc2/c(=C\c3[n-]c(=O)[n-]c3[O-])cnn12 (optimized conformer: 113.62151739747443 kcal/mol)

>  <smiles>  (1) 
N=c1[nH]c(=NCc2ccc(Cl)cc2)nc2c(=Cc3[nH]c(=O)[nH]c3O)cnn12

>  <score_type>  (1) 
oracle

>  <origin>  (1) 
adg

>  <m_score__min__energy>  (1) 
-18.449999999999999

>  <m_primary>  (1) 
energy

$$$$
1:0
     RDKit          3D

 34 35  0  0  0  0  0  0  0  0999 V2000
   61.0120   30.2070   46.6770 C   0  0  0  0  0  0  0  0  0  0  0  0
   60.4150   31.1550   47.7150 C   0  0  0  0  0  0  0  0  0  0  0  0
   61.4140   32.2290   48.1950 C   0  0  1  0  0  0  0  0  0  0  0  0
   62.8720   31.7230   48.0820 C   0  0  0  0  0  0  0  0  0  0  0  0
   63.5090   32.6390   47.1490 N   0  0  0  0  0  0  0  0  0  0  0  0
   62.6840   33.5470   46.7670 C   0  0  0  0  0  0  0  0  0  0  0  0
   61.3910   33.4090   47.3300 N   0  0  0  0  0  0  0  0  0  0  0  0
   60.4550   34.5260   47.4570 C   0  0  0  0  0  0  0  0  0  0  0  0
   59.4570   34.5060   46.3290 C   0  0  0  0  0  0  0  0  0  0  0  0
   59.6300   35.2660   45.3410 O   0  0  0  0  0  0  0  0  0  0  0  0
   58.3350   33.6140   46.3250 N   0  0  0  0  0  0  0  0  0  0  0  0
   58.0740   32.5810   45.3660 C   0  0  0  0  0  0  0  0  0  0  0  0
   58.0500   32.9090   44.0050 C   0  0  0  0  0  0  0  0  0  0  0  0
   57.7770   31.9270   43.0460 C   0  0  0  0  0  0  0  0  0  0  0  0
   57.7720   32.3430   41.3420 Cl  0  0  0  0  0  0  0  0  0  0  0  0
   57.5100   30.6140   43.4460 C   0  0  0  0  0  0  0  0  0  0  0  0
   57.5040   30.2850   44.8050 C   0  0  0  0  0  0  0  0  0  0  0  0
   57.1440   28.6430   45.3090 Cl  0  0  0  0  0  0  0  0  0  0  0  0
   57.7760   31.2660   45.7650 C   0  0  0  0  0  0  0  0  0  0  0  0
   61.5309   29.3830   47.1885 H   0  0  0  0  0  0  0  0  0  0  0  0
   60.2075   29.7990   46.0474 H   0  0  0  0  0  0  0  0  0  0  0  0
   61.7275   30.7562   46.0474 H   0  0  0  0  0  0  0  0  0  0  0  0
   59.5449   31.6595   47.2697 H   0  0  0  0  0  0  0  0  0  0  0  0
   60.1352   30.5507   48.5905 H   0  0  0  0  0  0  0  0  0  0  0  0
   61.1179   32.4586   49.2292 H   0  0  0  0  0  0  0  0  0  0  0  0
   63.3716   31.7572   49.0614 H   0  0  0  0  0  0  0  0  0  0  0  0
   62.9250   30.6783   47.7416 H   0  0  0  0  0  0  0  0  0  0  0  0
   64.5090   32.5950   46.8540 H   0  0  0  0  0  0  0  0  0  0  0  0
   62.9553   34.3537   46.0701 H   0  0  0  0  0  0  0  0  0  0  0  0
   59.9208   34.4440   48.4150 H   0  0  0  0  0  0  0  0  0  0  0  0
   61.0186   35.4698   47.4179 H   0  0  0  0  0  0  0  0  0  0  0  0
   58.2467   33.9438   43.6880 H   0  0  0  0  0  0  0  0  0  0  0  0
   57.3047   29.8401   42.6917 H   0  0  0  0  0  0  0  0  0  0  0  0
   57.7567   31.0079   46.8341 H   0  0  0  0  0  0  0  0  0  0  0  0
  1  2  1  0
  2  3  1  0
  3  4  1  0
  4  5  1  0
  5  6  2  0
  6  7  1  0
  7  8  1  0
  8  9  1  0
  9 10  2  0
  9 11  1  0
 11 12  1  0
 12 13  2  0
 13 14  1  0
 14 15  1  0
 14 16  2  0
 16 17  1  0
 17 18  1  0
 17 19  2  0
  7  3  1  0
 19 12  1  0
  1 20  1  0
  1 21  1  0
  1 22  1  0
  2 23  1  0
  2 24  1  0
  3 25  1  1
  4 26  1  0
  4 27  1  0
  5 28  1  0
  6 29  1  0
  8 30  1  0
  8 31  1  0
 13 32  1  0
 16 33  1  0
 19 34  1  0
M  CHG  2   5   1  11  -1
M  END
>  <UniqueID>  (2) 
2

>  <SMILES>  (2) 
CC[C@H]1C[NH+]=CN1CC(=O)[N-]c1cc(Cl)cc(Cl)c1

>  <Energy>  (2) 
43.57651543781988

>  <Genealogy>  (2) 
CCC1C[NH+]=CN1CC(=O)[N-]c1cc(Cl)cc(Cl)c1 (protonated)
CC[C@H]1C[NH+]=CN1CC(=O)[N-]c1cc(Cl)cc(Cl)c1 (chirality)
CC[C@H]1C[NH+]=CN1CC(=O)[N-]c1cc(Cl)cc(Cl)c1 (3D coordinates assigned)
CC[C@H]1C[NH+]=CN1CC(=O)[N-]c1cc(Cl)cc(Cl)c1 (nonaromatic ring conformer: 43.57651543781988 kcal/mol)

>  <smiles>  (2) 
CCC1CN=CN1CC(=O)Nc1cc(Cl)cc(Cl)c1

>  <score_type>  (2) 
oracle

>  <origin>  (2) 
adg

>  <m_score__min__energy>  (2) 
-7.0099999999999998

>  <m_primary>  (2) 
energy

$$$$
2:0
     RDKit          3D

 68 71  0  0  1  0  0  0  0  0999 V2000
   58.5270   24.7700   46.7420 N   0  0  0  0  0  0  0  0  0  0  0  0
   58.4210   25.9400   46.1830 C   0  0  0  0  0  0  0  0  0  0  0  0
   58.3980   26.0040   44.8260 N   0  0  0  0  0  0  0  0  0  0  0  0
   58.2860   27.2190   44.2160 C   0  0  0  0  0  0  0  0  0  0  0  0
   58.1990   28.3750   45.0000 C   0  0  0  0  0  0  0  0  0  0  0  0
   58.0950   29.6540   44.2580 C   0  0  0  0  0  0  0  0  0  0  0  0
   56.6760   30.1790   44.1860 C   0  0  0  0  0  0  0  0  0  0  0  0
   56.6050   31.3990   44.8050 O   0  0  0  0  0  0  0  0  0  0  0  0
   57.4330   32.3140   44.1900 C   0  0  0  0  0  0  0  0  0  0  0  0
   58.1010   33.2350   45.1730 C   0  0  0  0  0  0  0  0  0  0  0  0
   59.1360   34.0710   44.7490 C   0  0  0  0  0  0  0  0  0  0  0  0
   59.7520   34.9220   45.6680 C   0  0  0  0  0  0  0  0  0  0  0  0
   59.3490   34.9490   47.0020 C   0  0  0  0  0  0  0  0  0  0  0  0
   58.3230   34.1130   47.3990 C   0  0  0  0  0  0  0  0  0  0  0  0
   57.7100   33.2720   46.5050 C   0  0  0  0  0  0  0  0  0  0  0  0
   58.2230   28.2900   46.3750 C   0  0  0  0  0  0  0  0  0  0  0  0
   58.1330   29.3770   47.0610 N   0  0  0  0  0  0  0  0  0  0  0  0
   59.2720   30.1640   47.2700 C   0  0  0  0  0  0  0  0  0  0  0  0
   60.4320   30.0780   46.5130 C   0  0  0  0  0  0  0  0  0  0  0  0
   61.5360   30.8700   46.7430 C   0  0  0  0  0  0  0  0  0  0  0  0
   61.5080   31.7970   47.7690 C   0  0  0  0  0  0  0  0  0  0  0  0
   62.8830   32.8460   48.1080 S   0  0  0  0  0  0  0  0  0  0  0  0
   62.3620   34.1250   48.6720 O   0  0  0  0  0  0  0  0  0  0  0  0
   63.5650   33.0520   46.7650 O   0  0  0  0  0  0  0  0  0  0  0  0
   63.8980   32.0140   49.2260 N   0  0  0  0  0  0  0  0  0  0  0  0
   65.1100   32.6830   49.4330 C   0  0  0  0  0  0  0  0  0  0  0  0
   65.8060   32.5240   50.7320 C   0  0  0  0  0  0  0  0  0  0  0  0
   64.8900   32.3410   51.7900 N   0  0  0  0  0  0  0  0  0  0  0  0
   64.6600   33.4230   52.6720 C   0  0  0  0  0  0  0  0  0  0  0  0
   64.3070   34.7360   52.0150 C   0  0  0  0  0  0  0  0  0  0  0  0
   63.3950   34.5740   50.9890 O   0  0  0  0  0  0  0  0  0  0  0  0
   63.8420   31.4090   51.6170 C   0  0  0  0  0  0  0  0  0  0  0  0
   63.1890   31.4240   50.2730 C   0  0  0  0  0  0  0  0  0  0  0  0
   60.3480   31.8960   48.5400 C   0  0  0  0  0  0  0  0  0  0  0  0
   59.2520   31.0890   48.2870 C   0  0  0  0  0  0  0  0  0  0  0  0
   58.3340   27.0670   46.9220 N   0  0  0  0  0  0  0  0  0  0  0  0
   57.6240   24.2500   46.8540 H   0  0  0  0  0  0  0  0  0  0  0  0
   58.4630   25.1480   44.2240 H   0  0  0  0  0  0  0  0  0  0  0  0
   58.2643   27.2894   43.1185 H   0  0  0  0  0  0  0  0  0  0  0  0
   58.7219   30.4043   44.7620 H   0  0  0  0  0  0  0  0  0  0  0  0
   58.4306   29.4664   43.2274 H   0  0  0  0  0  0  0  0  0  0  0  0
   56.3781   30.2852   43.1325 H   0  0  0  0  0  0  0  0  0  0  0  0
   55.9996   29.4735   44.6908 H   0  0  0  0  0  0  0  0  0  0  0  0
   58.2093   31.7691   43.6328 H   0  0  0  0  0  0  0  0  0  0  0  0
   56.8137   32.9299   43.5213 H   0  0  0  0  0  0  0  0  0  0  0  0
   59.4633   34.0590   43.6989 H   0  0  0  0  0  0  0  0  0  0  0  0
   60.5673   35.5809   45.3346 H   0  0  0  0  0  0  0  0  0  0  0  0
   59.8371   35.6212   47.7230 H   0  0  0  0  0  0  0  0  0  0  0  0
   57.9925   34.1219   48.4482 H   0  0  0  0  0  0  0  0  0  0  0  0
   56.8960   32.6168   46.8487 H   0  0  0  0  0  0  0  0  0  0  0  0
   60.4719   29.3454   45.6934 H   0  0  0  0  0  0  0  0  0  0  0  0
   62.4331   30.7657   46.1151 H   0  0  0  0  0  0  0  0  0  0  0  0
   65.8044   32.3412   48.6513 H   0  0  0  0  0  0  0  0  0  0  0  0
   64.8310   33.7468   49.4118 H   0  0  0  0  0  0  0  0  0  0  0  0
   66.4690   31.6479   50.6775 H   0  0  0  0  0  0  0  0  0  0  0  0
   66.3829   33.4396   50.9291 H   0  0  0  0  0  0  0  0  0  0  0  0
   63.8313   33.1451   53.3399 H   0  0  0  0  0  0  0  0  0  0  0  0
   65.6132   33.5940   53.1938 H   0  0  0  0  0  0  0  0  0  0  0  0
   63.8743   35.4066   52.7720 H   0  0  0  0  0  0  0  0  0  0  0  0
   65.2275   35.1596   51.5870 H   0  0  0  0  0  0  0  0  0  0  0  0
   63.4550   33.6740   50.5360 H   0  0  0  0  0  0  0  0  0  0  0  0
   64.2518   30.4020   51.7844 H   0  0  0  0  0  0  0  0  0  0  0  0
   63.0609   31.6926   52.3377 H   0  0  0  0  0  0  0  0  0  0  0  0
   62.9894   30.3798   49.9904 H   0  0  0  0  0  0  0  0  0  0  0  0
   62.2948   32.0521   50.3993 H   0  0  0  0  0  0  0  0  0  0  0  0
   60.3044   32.6266   49.3612 H   0  0  0  0  0  0  0  0  0  0  0  0
   58.3507   31.1894   48.9096 H   0  0  0  0  0  0  0  0  0  0  0  0
   58.3590   26.9710   47.9600 H   0  0  0  0  0  0  0  0  0  0  0  0
  1  2  2  3
  2  3  1  0
  3  4  1  0
  4  5  2  0
  5  6  1  0
  6  7  1  0
  7  8  1  0
  8  9  1  0
  9 10  1  0
 10 11  2  0
 11 12  1  0
 12 13  2  0
 13 14  1  0
 14 15  2  0
  5 16  1  0
 16 17  2  0
 17 18  1  0
 18 19  2  0
 19 20  1  0
 20 21  2  0
 21 22  1  0
 22 23  2  0
 22 24  2  0
 22 25  1  0
 25 26  1  0
 26 27  1  0
 27 28  1  0
 28 29  1  0
 29 30  1  0
 30 31  1  0
 28 32  1  0
 32 33  1  0
 21 34  1  0
 34 35  2  0
 16 36  1  0
 36  2  1  0
 15 10  1  0
 35 18  1  0
 33 25  1  0
  1 37  1  0
  3 38  1  0
  4 39  1  0
  6 40  1  0
  6 41  1  0
  7 42  1  0
  7 43  1  0
  9 44  1  0
  9 45  1  0
 11 46  1  0
 12 47  1  0
 13 48  1  0
 14 49  1  0
 15 50  1  0
 19 51  1  0
 20 52  1  0
 26 53  1  0
 26 54  1  0
 27 55  1  0
 27 56  1  0
 29 57  1  0
 29 58  1  0
 30 59  1  0
 30 60  1  0
 31 61  1  0
 32 62  1  0
 32 63  1  0
 33 64  1  0
 33 65  1  0
 34 66  1  0
 35 67  1  0
 36 68  1  0
M  END
>  <smiles>  (3) 
N=c1[nH]cc(CCOCc2ccccc2)c(=Nc2ccc(S(=O)(=O)N3CCN(CCO)CC3)cc2)[nH]1

>  <score_type>  (3) 
oracle

>  <origin>  (3) 
adg

>  <m_score__min__energy>  (3) 
-9.5399999999999991

>  <m_primary>  (3) 
energy

$$$$
3:0
     RDKit          3D

 36 38  0  0  0  0  0  0  0  0999 V2000
   59.0227   29.1751   48.0603 H   0  0  0  0  0  0  0  0  0  0  0  0
   58.9450   29.4650   47.0020 C   0  0  0  0  0  0  0  0  0  0  0  0
   59.2920   30.6790   46.6790 N   0  0  0  0  0  0  0  0  0  0  0  0
   58.5130   31.8780   46.8170 C   0  0  0  0  0  0  0  0  0  0  0  0
   58.8980   32.7980   47.5870 O   0  0  0  0  0  0  0  0  0  0  0  0
   57.4010   32.1280   45.9470 N   0  0  0  0  0  0  0  0  0  0  0  0
   57.1030   31.5310   44.8270 C   0  0  0  0  0  0  0  0  0  0  0  0
   56.2540   30.4670   44.8720 N   0  0  0  0  0  0  0  0  0  0  0  0
   55.8950   29.7740   43.7590 C   0  0  0  0  0  0  0  0  0  0  0  0
   55.2009   28.9246   43.8407 H   0  0  0  0  0  0  0  0  0  0  0  0
   56.4060   30.1390   42.5130 C   0  0  0  0  0  0  0  0  0  0  0  0
   56.1109   29.5892   41.6071 H   0  0  0  0  0  0  0  0  0  0  0  0
   57.2950   31.2090   42.4310 C   0  0  0  0  0  0  0  0  0  0  0  0
   57.7129   31.5025   41.4567 H   0  0  0  0  0  0  0  0  0  0  0  0
   57.6560   31.9090   43.5840 C   0  0  0  0  0  0  0  0  0  0  0  0
   58.3652   32.7478   43.5245 H   0  0  0  0  0  0  0  0  0  0  0  0
   58.4550   28.4520   46.0470 C   0  0  0  0  0  0  0  0  0  0  0  0
   59.2150   28.0970   45.1080 O   0  0  0  0  0  0  0  0  0  0  0  0
   57.1050   27.9670   46.1340 N   0  0  0  0  0  0  0  0  0  0  0  0
   56.6800   26.7590   45.9020 C   0  0  0  0  0  0  0  0  0  0  0  0
   55.4700   26.3350   46.3250 N   0  0  0  0  0  0  0  0  0  0  0  0
   55.2140   25.0680   46.0000 N   0  0  0  0  0  0  0  0  0  0  0  0
   56.2220   24.4690   45.3290 C   0  0  0  0  0  0  0  0  0  0  0  0
   56.1460   23.0700   44.8000 C   0  0  2  0  0  0  0  0  0  0  0  0
   55.1717   22.6566   45.0996 H   0  0  0  0  0  0  0  0  0  0  0  0
   57.1860   22.2860   45.3400 O   0  0  0  0  0  0  0  0  0  0  0  0
   57.7400   21.5260   44.2880 C   0  0  0  0  0  0  0  0  0  0  0  0
   57.7221   20.4597   44.5577 H   0  0  0  0  0  0  0  0  0  0  0  0
   58.7786   21.8442   44.1146 H   0  0  0  0  0  0  0  0  0  0  0  0
   56.9290   21.7410   43.0240 C   0  0  0  0  0  0  0  0  0  0  0  0
   56.1994   20.9305   42.8798 H   0  0  0  0  0  0  0  0  0  0  0  0
   57.5429   21.7489   42.1112 H   0  0  0  0  0  0  0  0  0  0  0  0
   56.2410   23.0440   43.2830 C   0  0  0  0  0  0  0  0  0  0  0  0
   55.2426   23.0649   42.8218 H   0  0  0  0  0  0  0  0  0  0  0  0
   56.7710   23.9111   42.8619 H   0  0  0  0  0  0  0  0  0  0  0  0
   57.5070   25.5350   45.0810 S   0  0  0  0  0  0  0  0  0  0  0  0
  1  2  1  0
  2  3  2  3
  3  4  1  0
  4  5  2  0
  4  6  1  0
  6  7  2  3
  7  8  1  0
  8  9  1  0
  9 10  1  0
  9 11  2  0
 11 12  1  0
 11 13  1  0
 13 14  1  0
 13 15  2  0
 15 16  1  0
  2 17  1  0
 17 18  2  0
 17 19  1  0
 19 20  2  0
 20 21  1  0
 21 22  1  0
 22 23  2  0
 23 24  1  0
 24 25  1  6
 24 26  1  0
 26 27  1  0
 27 28  1  0
 27 29  1  0
 27 30  1  0
 30 31  1  0
 30 32  1  0
 30 33  1  0
 33 34  1  0
 33 35  1  0
 23 36  1  0
 15  7  1  0
 36 20  1  0
 33 24  1  0
M  CHG  2   8  -1  21  -1
M  END
>  <UniqueID>  (4) 
3

>  <SMILES>  (4) 
O=C(N=CC(=O)/N=c1/[n-]nc([C@H]2CCCO2)s1)N=c1cccc[n-]1

>  <Energy>  (4) 
89.43603854149659

>  <Genealogy>  (4) 
O=C(C=NC(=O)N=c1cccc[n-]1)N=c1[n-]nc(C2CCCO2)s1 (protonated)
O=C(C=NC(=O)N=c1cccc[n-]1)N=c1[n-]nc([C@H]2CCCO2)s1 (chirality)
O=C(N=CC(=O)/N=c1/[n-]nc([C@H]2CCCO2)s1)N=c1cccc[n-]1 (cis-trans isomerization)
O=C(N=CC(=O)/N=c1/[n-]nc([C@H]2CCCO2)s1)N=c1cccc[n-]1 (3D coordinates assigned)
O=C(N=CC(=O)/N=c1/[n-]nc([C@H]2CCCO2)s1)N=c1cccc[n-]1 (nonaromatic ring conformer: 89.43603854149659 kcal/mol)

>  <smiles>  (4) 
O=C(C=NC(=O)N=c1cccc[nH]1)N=c1[nH]nc(C2CCCO2)s1

>  <score_type>  (4) 
oracle

>  <origin>  (4) 
adg

>  <m_score__min__energy>  (4) 
-11.41

>  <m_primary>  (4) 
energy

$$$$
4:0
     RDKit          3D

 74 80  0  0  0  0  0  0  0  0999 V2000
   51.1490   20.7070   45.5230 C   0  0  0  0  0  0  0  0  0  0  0  0
   52.0150   21.5630   46.3010 N   0  0  0  0  0  0  0  0  0  0  0  0
   51.4330   22.6720   47.0230 C   0  0  0  0  0  0  0  0  0  0  0  0
   50.6120   22.1580   48.2060 C   0  0  0  0  0  0  0  0  0  0  0  0
   51.3000   22.5810   49.4420 C   0  0  0  0  0  0  0  0  0  0  0  0
   50.6340   23.3460   50.3910 C   0  0  0  0  0  0  0  0  0  0  0  0
   51.2880   23.7400   51.5520 C   0  0  0  0  0  0  0  0  0  0  0  0
   52.6040   23.3660   51.7520 C   0  0  0  0  0  0  0  0  0  0  0  0
   53.2580   22.6040   50.7990 C   0  0  0  0  0  0  0  0  0  0  0  0
   52.6260   22.2050   49.6460 C   0  0  0  0  0  0  0  0  0  0  0  0
   53.4330   21.3270   46.3630 C   0  0  0  0  0  0  0  0  0  0  0  0
   53.9060   20.1490   46.3250 O   0  0  0  0  0  0  0  0  0  0  0  0
   54.3240   22.4850   46.4720 C   0  0  0  0  0  0  0  0  0  0  0  0
   54.1750   23.4680   45.5110 C   0  0  0  0  0  0  0  0  0  0  0  0
   54.9940   24.5910   45.5630 C   0  0  0  0  0  0  0  0  0  0  0  0
   55.9480   24.7460   46.5480 C   0  0  0  0  0  0  0  0  0  0  0  0
   56.7650   25.9550   46.5300 C   0  0  0  0  0  0  0  0  0  0  0  0
   57.7890   26.2920   47.3340 N   0  0  0  0  0  0  0  0  0  0  0  0
   58.2870   27.5010   46.9930 C   0  0  0  0  0  0  0  0  0  0  0  0
   59.3200   28.2990   47.4820 C   0  0  0  0  0  0  0  0  0  0  0  0
   59.5780   29.5140   46.8920 C   0  0  0  0  0  0  0  0  0  0  0  0
   60.6450   30.4120   47.3480 C   0  0  0  0  0  0  0  0  0  0  0  0
   61.4040   30.2520   48.4480 N   0  0  0  0  0  0  0  0  0  0  0  0
   62.2830   31.2900   48.5310 C   0  0  0  0  0  0  0  0  0  0  0  0
   63.2740   31.6030   49.4580 C   0  0  0  0  0  0  0  0  0  0  0  0
   64.0640   32.7260   49.3490 C   0  0  0  0  0  0  0  0  0  0  0  0
   65.0810   33.0700   50.2770 N   0  0  0  0  0  0  0  0  0  0  0  0
   66.3770   32.4820   50.3450 C   0  0  0  0  0  0  0  0  0  0  0  0
   67.4800   33.5340   50.4950 C   0  0  0  0  0  0  0  0  0  0  0  0
   67.0680   34.6320   51.2280 O   0  0  0  0  0  0  0  0  0  0  0  0
   66.0120   34.3560   52.0860 C   0  0  0  0  0  0  0  0  0  0  0  0
   64.7720   34.1230   51.2530 C   0  0  0  0  0  0  0  0  0  0  0  0
   63.8090   33.5370   48.2430 C   0  0  0  0  0  0  0  0  0  0  0  0
   62.8320   33.2370   47.3190 C   0  0  0  0  0  0  0  0  0  0  0  0
   62.0520   32.1070   47.4480 C   0  0  0  0  0  0  0  0  0  0  0  0
   61.0510   31.5550   46.7400 N   0  0  0  0  0  0  0  0  0  0  0  0
   58.7950   29.9000   45.8240 C   0  0  0  0  0  0  0  0  0  0  0  0
   57.7670   29.1330   45.3180 C   0  0  0  0  0  0  0  0  0  0  0  0
   57.5130   27.9090   45.9170 C   0  0  0  0  0  0  0  0  0  0  0  0
   56.5850   26.9530   45.6470 N   0  0  0  0  0  0  0  0  0  0  0  0
   56.0680   23.7570   47.4810 C   0  0  0  0  0  0  0  0  0  0  0  0
   55.2690   22.6080   47.4710 C   0  0  0  0  0  0  0  0  0  0  0  0
   50.5321   20.0973   46.1995 H   0  0  0  0  0  0  0  0  0  0  0  0
   50.4964   21.3248   44.8886 H   0  0  0  0  0  0  0  0  0  0  0  0
   51.7592   20.0473   44.8886 H   0  0  0  0  0  0  0  0  0  0  0  0
   52.2361   23.3255   47.3944 H   0  0  0  0  0  0  0  0  0  0  0  0
   50.7740   23.2353   46.3460 H   0  0  0  0  0  0  0  0  0  0  0  0
   49.5994   22.5865   48.1746 H   0  0  0  0  0  0  0  0  0  0  0  0
   50.5228   21.0623   48.1683 H   0  0  0  0  0  0  0  0  0  0  0  0
   49.5875   23.6403   50.2232 H   0  0  0  0  0  0  0  0  0  0  0  0
   50.7629   24.3447   52.3060 H   0  0  0  0  0  0  0  0  0  0  0  0
   53.1308   23.6736   52.6674 H   0  0  0  0  0  0  0  0  0  0  0  0
   54.3049   22.3120   50.9683 H   0  0  0  0  0  0  0  0  0  0  0  0
   53.1576   21.5994   48.8972 H   0  0  0  0  0  0  0  0  0  0  0  0
   53.4203   23.3635   44.7176 H   0  0  0  0  0  0  0  0  0  0  0  0
   54.8784   25.3750   44.8001 H   0  0  0  0  0  0  0  0  0  0  0  0
   59.9254   27.9587   48.3351 H   0  0  0  0  0  0  0  0  0  0  0  0
   63.4321   30.9267   50.3110 H   0  0  0  0  0  0  0  0  0  0  0  0
   66.4138   31.8037   51.2102 H   0  0  0  0  0  0  0  0  0  0  0  0
   66.5524   31.9392   49.4045 H   0  0  0  0  0  0  0  0  0  0  0  0
   68.3402   33.0734   51.0028 H   0  0  0  0  0  0  0  0  0  0  0  0
   67.7462   33.8855   49.4872 H   0  0  0  0  0  0  0  0  0  0  0  0
   66.2380   33.4558   52.6764 H   0  0  0  0  0  0  0  0  0  0  0  0
   65.8530   35.1988   52.7747 H   0  0  0  0  0  0  0  0  0  0  0  0
   63.9413   33.8028   51.8991 H   0  0  0  0  0  0  0  0  0  0  0  0
   64.4734   35.0488   50.7393 H   0  0  0  0  0  0  0  0  0  0  0  0
   64.4092   34.4483   48.1037 H   0  0  0  0  0  0  0  0  0  0  0  0
   62.6714   33.9102   46.4640 H   0  0  0  0  0  0  0  0  0  0  0  0
   60.6700   31.9760   45.8550 H   0  0  0  0  0  0  0  0  0  0  0  0
   59.0017   30.8713   45.3509 H   0  0  0  0  0  0  0  0  0  0  0  0
   57.1666   29.4818   44.4648 H   0  0  0  0  0  0  0  0  0  0  0  0
   55.8980   27.0580   44.8740 H   0  0  0  0  0  0  0  0  0  0  0  0
   56.8234   23.8675   48.2729 H   0  0  0  0  0  0  0  0  0  0  0  0
   55.3902   21.8267   48.2358 H   0  0  0  0  0  0  0  0  0  0  0  0
  1  2  1  0
  2  3  1  0
  3  4  1  0
  4  5  1  0
  5  6  2  0
  6  7  1  0
  7  8  2  0
  8  9  1  0
  9 10  2  0
  2 11  1  0
 11 12  2  0
 11 13  1  0
 13 14  2  0
 14 15  1  0
 15 16  2  0
 16 17  1  0
 17 18  2  0
 18 19  1  0
 19 20  2  0
 20 21  1  0
 21 22  1  0
 22 23  2  0
 23 24  1  0
 24 25  2  0
 25 26  1  0
 26 27  1  0
 27 28  1  0
 28 29  1  0
 29 30  1  0
 30 31  1  0
 31 32  1  0
 26 33  2  0
 33 34  1  0
 34 35  2  0
 35 36  1  0
 21 37  2  0
 37 38  1  0
 38 39  2  0
 39 40  1  0
 16 41  1  0
 41 42  2  0
 10  5  1  0
 42 13  1  0
 40 17  1  0
 39 19  1  0
 36 22  1  0
 35 24  1  0
 32 27  1  0
  1 43  1  0
  1 44  1  0
  1 45  1  0
  3 46  1  0
  3 47  1  0
  4 48  1  0
  4 49  1  0
  6 50  1  0
  7 51  1  0
  8 52  1  0
  9 53  1  0
 10 54  1  0
 14 55  1  0
 15 56  1  0
 20 57  1  0
 25 58  1  0
 28 59  1  0
 28 60  1  0
 29 61  1  0
 29 62  1  0
 31 63  1  0
 31 64  1  0
 32 65  1  0
 32 66  1  0
 33 67  1  0
 34 68  1  0
 36 69  1  0
 37 70  1  0
 38 71  1  0
 40 72  1  0
 41 73  1  0
 42 74  1  0
M  END
>  <smiles>  (5) 
CN(CCc1ccccc1)C(=O)c1ccc(-c2nc3cc(-c4nc5cc(N6CCOCC6)ccc5[nH]4)ccc3[nH]2)cc1

>  <score_type>  (5) 
oracle

>  <origin>  (5) 
adg

>  <m_score__min__energy>  (5) 
-8.3800000000000008

>  <m_primary>  (5) 
energy

$$$$
5:0
     RDKit          3D

 38 40  0  0  0  0  0  0  0  0999 V2000
   62.8600   32.3030   49.5380 H   0  0  0  0  0  0  0  0  0  0  0  0
   62.8020   31.3390   49.2290 O   0  0  0  0  0  0  0  0  0  0  0  0
   61.7050   30.8700   48.5080 C   0  0  0  0  0  0  0  0  0  0  0  0
   60.5790   30.3650   49.1690 C   0  0  0  0  0  0  0  0  0  0  0  0
   60.5553   30.3370   50.2684 H   0  0  0  0  0  0  0  0  0  0  0  0
   59.4840   29.8960   48.4360 C   0  0  0  0  0  0  0  0  0  0  0  0
   58.6042   29.4974   48.9623 H   0  0  0  0  0  0  0  0  0  0  0  0
   59.5010   29.9310   47.0300 C   0  0  0  0  0  0  0  0  0  0  0  0
   58.3700   29.4680   46.2670 N   0  0  0  0  0  0  0  0  0  0  0  0
   57.5280   28.4760   46.6080 C   0  0  0  0  0  0  0  0  0  0  0  0
   57.5868   27.8561   47.5148 H   0  0  0  0  0  0  0  0  0  0  0  0
   56.5800   28.3780   45.6160 C   0  0  0  0  0  0  0  0  0  0  0  0
   55.5290   27.4710   45.5970 O   0  0  0  0  0  0  0  0  0  0  0  0
   56.7950   29.2920   44.6510 N   0  0  0  0  0  0  0  0  0  0  0  0
   57.9010   29.9410   45.0870 C   0  0  0  0  0  0  0  0  0  0  0  0
   58.4400   30.9480   44.4650 N   0  0  0  0  0  0  0  0  0  0  0  0
   57.7610   31.9050   43.6370 C   0  0  0  0  0  0  0  0  0  0  0  0
   57.3440   31.5950   42.4870 O   0  0  0  0  0  0  0  0  0  0  0  0
   57.5110   33.2790   44.1720 C   0  0  0  0  0  0  0  0  0  0  0  0
   57.8323   34.0240   43.4292 H   0  0  0  0  0  0  0  0  0  0  0  0
   56.4369   33.3988   44.3769 H   0  0  0  0  0  0  0  0  0  0  0  0
   58.2850   33.4790   45.4470 C   0  0  0  0  0  0  0  0  0  0  0  0
   59.5250   34.1380   45.4270 C   0  0  0  0  0  0  0  0  0  0  0  0
   59.9511   34.4746   44.4704 H   0  0  0  0  0  0  0  0  0  0  0  0
   60.2200   34.3680   46.6180 C   0  0  0  0  0  0  0  0  0  0  0  0
   61.1939   34.8786   46.5911 H   0  0  0  0  0  0  0  0  0  0  0  0
   59.6870   33.9540   47.8450 C   0  0  0  0  0  0  0  0  0  0  0  0
   60.4320   34.2270   49.0450 N   0  0  0  0  0  0  0  0  0  0  0  0
   60.0630   33.8610   50.2080 C   0  0  0  0  0  0  0  0  0  0  0  0
   59.5990   33.4000   51.6820 S   0  0  0  0  0  0  0  0  0  0  0  0
   58.4390   33.2990   47.8670 C   0  0  0  0  0  0  0  0  0  0  0  0
   58.0110   32.9675   48.8246 H   0  0  0  0  0  0  0  0  0  0  0  0
   57.7430   33.0690   46.6760 C   0  0  0  0  0  0  0  0  0  0  0  0
   56.7659   32.5643   46.7020 H   0  0  0  0  0  0  0  0  0  0  0  0
   60.6330   30.4490   46.3740 C   0  0  0  0  0  0  0  0  0  0  0  0
   60.6564   30.4907   45.2750 H   0  0  0  0  0  0  0  0  0  0  0  0
   61.7280   30.9110   47.1100 C   0  0  0  0  0  0  0  0  0  0  0  0
   62.6109   31.3082   46.5879 H   0  0  0  0  0  0  0  0  0  0  0  0
  1  2  1  0
  2  3  1  0
  3  4  2  0
  4  5  1  0
  4  6  1  0
  6  7  1  0
  6  8  2  0
  8  9  1  0
  9 10  1  0
 10 11  1  0
 10 12  2  0
 12 13  1  0
 12 14  1  0
 14 15  1  0
 15 16  2  0
 16 17  1  0
 17 18  2  0
 17 19  1  0
 19 20  1  0
 19 21  1  0
 19 22  1  0
 22 23  2  0
 23 24  1  0
 23 25  1  0
 25 26  1  0
 25 27  2  0
 27 28  1  0
 28 29  2  0
 29 30  2  0
 27 31  1  0
 31 32  1  0
 31 33  2  0
 33 34  1  0
  8 35  1  0
 35 36  1  0
 35 37  2  0
 37 38  1  0
 37  3  1  0
 15  9  1  0
 33 22  1  0
M  CHG  2  13  -1  14  -1
M  END
>  <UniqueID>  (6) 
4

>  <SMILES>  (6) 
O=C(Cc1ccc(N=C=S)cc1)/N=c1\[n-]c([O-])cn1-c1ccc(O)cc1

>  <Energy>  (6) 
76.44395291317674

>  <Genealogy>  (6) 
O=C(Cc1ccc(N=C=S)cc1)N=c1[n-]c([O-])cn1-c1ccc(O)cc1 (protonated)
O=C(Cc1ccc(N=C=S)cc1)/N=c1\[n-]c([O-])cn1-c1ccc(O)cc1 (cis-trans isomerization)
O=C(Cc1ccc(N=C=S)cc1)/N=c1\[n-]c([O-])cn1-c1ccc(O)cc1 (3D coordinates assigned)
O=C(Cc1ccc(N=C=S)cc1)/N=c1\[n-]c([O-])cn1-c1ccc(O)cc1 (optimized conformer: 76.44395291317674 kcal/mol)

>  <smiles>  (6) 
O=C(Cc1ccc(N=C=S)cc1)N=c1[nH]c(O)cn1-c1ccc(O)cc1

>  <score_type>  (6) 
oracle

>  <origin>  (6) 
adg

>  <m_score__min__energy>  (6) 
-11.289999999999999

>  <m_primary>  (6) 
energy

$$$$
6:0
     RDKit          3D

 46 48  0  0  0  0  0  0  0  0999 V2000
   61.3640   32.1050   47.2550 O   0  0  0  0  0  0  0  0  0  0  0  0
   60.3780   32.8300   47.5650 C   0  0  0  0  0  0  0  0  0  0  0  0
   60.2690   33.3540   48.8980 N   0  0  0  0  0  0  0  0  0  0  0  0
   61.3650   33.2880   49.8640 C   0  0  0  0  0  0  0  0  0  0  0  0
   60.8590   33.4290   51.3040 C   0  0  0  0  0  0  0  0  0  0  0  0
   59.3950   33.3870   51.3470 N   0  0  0  0  0  0  0  0  0  0  0  0
   58.6200   32.3430   51.4640 C   0  0  0  0  0  0  0  0  0  0  0  0
   57.4100   32.3610   52.1890 C   0  0  0  0  0  0  0  0  0  0  0  0
   56.6210   31.2080   52.2470 C   0  0  0  0  0  0  0  0  0  0  0  0
   57.0220   30.0700   51.6220 N   0  0  0  0  0  0  0  0  0  0  0  0
   58.1880   30.0180   50.9240 C   0  0  0  0  0  0  0  0  0  0  0  0
   59.0010   31.1520   50.8280 C   0  0  0  0  0  0  0  0  0  0  0  0
   59.3410   33.1210   46.5480 C   0  0  0  0  0  0  0  0  0  0  0  0
   59.3340   34.3490   45.8620 C   0  0  0  0  0  0  0  0  0  0  0  0
   58.3710   34.6060   44.8830 C   0  0  0  0  0  0  0  0  0  0  0  0
   57.4110   33.6420   44.5740 C   0  0  0  0  0  0  0  0  0  0  0  0
   57.3990   32.4110   45.2390 C   0  0  0  0  0  0  0  0  0  0  0  0
   56.3910   31.4570   44.8700 N   0  0  0  0  0  0  0  0  0  0  0  0
   56.6190   29.7990   44.4070 S   0  0  0  0  0  0  0  0  0  0  0  0
   56.7120   29.6650   42.9120 O   0  0  0  0  0  0  0  0  0  0  0  0
   55.4150   29.0280   44.8750 O   0  0  0  0  0  0  0  0  0  0  0  0
   58.0600   29.1330   45.1770 C   0  0  0  0  0  0  0  0  0  0  0  0
   57.9460   28.4430   46.3950 C   0  0  0  0  0  0  0  0  0  0  0  0
   59.0900   27.9570   47.0400 C   0  0  0  0  0  0  0  0  0  0  0  0
   60.3500   28.1440   46.4640 C   0  0  0  0  0  0  0  0  0  0  0  0
   60.4680   28.8170   45.2440 C   0  0  0  0  0  0  0  0  0  0  0  0
   59.3270   29.3130   44.6010 C   0  0  0  0  0  0  0  0  0  0  0  0
   58.3670   32.1530   46.2320 C   0  0  0  0  0  0  0  0  0  0  0  0
   59.3950   33.8430   49.1920 H   0  0  0  0  0  0  0  0  0  0  0  0
   61.8756   32.3194   49.7585 H   0  0  0  0  0  0  0  0  0  0  0  0
   62.0541   34.1205   49.6590 H   0  0  0  0  0  0  0  0  0  0  0  0
   61.2615   32.6041   51.9102 H   0  0  0  0  0  0  0  0  0  0  0  0
   61.1961   34.3970   51.7032 H   0  0  0  0  0  0  0  0  0  0  0  0
   57.0888   33.2773   52.7060 H   0  0  0  0  0  0  0  0  0  0  0  0
   55.6710   31.2223   52.8013 H   0  0  0  0  0  0  0  0  0  0  0  0
   58.4925   29.0816   50.4336 H   0  0  0  0  0  0  0  0  0  0  0  0
   59.9385   31.1101   50.2542 H   0  0  0  0  0  0  0  0  0  0  0  0
   60.0911   35.1114   46.0977 H   0  0  0  0  0  0  0  0  0  0  0  0
   58.3697   35.5707   44.3545 H   0  0  0  0  0  0  0  0  0  0  0  0
   56.6570   33.8515   43.8009 H   0  0  0  0  0  0  0  0  0  0  0  0
   56.9545   28.2838   46.8439 H   0  0  0  0  0  0  0  0  0  0  0  0
   58.9972   27.4280   48.0000 H   0  0  0  0  0  0  0  0  0  0  0  0
   61.2485   27.7617   46.9705 H   0  0  0  0  0  0  0  0  0  0  0  0
   61.4593   28.9572   44.7883 H   0  0  0  0  0  0  0  0  0  0  0  0
   59.4241   29.8446   43.6429 H   0  0  0  0  0  0  0  0  0  0  0  0
   58.3615   31.1898   46.7632 H   0  0  0  0  0  0  0  0  0  0  0  0
  1  2  2  0
  2  3  1  0
  3  4  1  0
  4  5  1  0
  5  6  1  0
  6  7  2  3
  7  8  1  0
  8  9  2  0
  9 10  1  0
 10 11  1  0
 11 12  2  0
  2 13  1  0
 13 14  2  0
 14 15  1  0
 15 16  2  0
 16 17  1  0
 17 18  1  0
 18 19  1  0
 19 20  2  0
 19 21  2  0
 19 22  1  0
 22 23  2  0
 23 24  1  0
 24 25  2  0
 25 26  1  0
 26 27  2  0
 17 28  2  0
 12  7  1  0
 28 13  1  0
 27 22  1  0
  3 29  1  0
  4 30  1  0
  4 31  1  0
  5 32  1  0
  5 33  1  0
  8 34  1  0
  9 35  1  0
 11 36  1  0
 12 37  1  0
 14 38  1  0
 15 39  1  0
 16 40  1  0
 23 41  1  0
 24 42  1  0
 25 43  1  0
 26 44  1  0
 27 45  1  0
 28 46  1  0
M  CHG  2  10  -1  18  -1
M  END
>  <UniqueID>  (7) 
5

>  <SMILES>  (7) 
O=C(NCCN=c1cc[n-]cc1)c1cccc([N-]S(=O)(=O)c2ccccc2)c1

>  <Energy>  (7) 
55.40527929967146

>  <Genealogy>  (7) 
O=C(NCCN=c1cc[n-]cc1)c1cccc([N-]S(=O)(=O)c2ccccc2)c1 (protonated)
O=C(NCCN=c1cc[n-]cc1)c1cccc([N-]S(=O)(=O)c2ccccc2)c1 (3D coordinates assigned)
O=C(NCCN=c1cc[n-]cc1)c1cccc([N-]S(=O)(=O)c2ccccc2)c1 (optimized conformer: 55.40527929967146 kcal/mol)

>  <smiles>  (7) 
O=C(NCCN=c1cc[nH]cc1)c1cccc(NS(=O)(=O)c2ccccc2)c1

>  <score_type>  (7) 
oracle

>  <origin>  (7) 
adg

>  <m_score__min__energy>  (7) 
-12.65

>  <m_primary>  (7) 
energy

$$$$
7:0
     RDKit          3D

 53 55  0  0  0  0  0  0  0  0999 V2000
   57.1500   24.3160   47.8120 C   0  0  0  0  0  0  0  0  0  0  0  0
   55.9590   24.6970   47.0700 N   0  0  0  0  0  0  0  0  0  0  0  0
   55.8830   25.8880   46.2840 C   0  0  0  0  0  0  0  0  0  0  0  0
   54.7610   26.3460   45.9310 O   0  0  0  0  0  0  0  0  0  0  0  0
   57.1420   26.5650   45.8430 C   0  0  0  0  0  0  0  0  0  0  0  0
   56.9310   28.0430   45.6670 C   0  0  0  0  0  0  0  0  0  0  0  0
   56.0170   28.5680   44.8300 N   0  0  0  0  0  0  0  0  0  0  0  0
   56.2490   29.8950   44.9050 C   0  0  0  0  0  0  0  0  0  0  0  0
   55.5760   30.7390   44.2580 O   0  0  0  0  0  0  0  0  0  0  0  0
   57.2640   30.2450   45.7230 N   0  0  0  0  0  0  0  0  0  0  0  0
   57.6890   29.0650   46.2070 C   0  0  0  0  0  0  0  0  0  0  0  0
   58.8200   28.9310   47.1320 C   0  0  0  0  0  0  0  0  0  0  0  0
   58.8510   27.9570   47.9280 O   0  0  0  0  0  0  0  0  0  0  0  0
   59.8970   29.8720   47.1350 N   0  0  0  0  0  0  0  0  0  0  0  0
   60.8630   29.9960   48.2200 C   0  0  0  0  0  0  0  0  0  0  0  0
   60.1640   29.8300   49.5750 C   0  0  0  0  0  0  0  0  0  0  0  0
   59.9680   31.1530   50.3310 C   0  0  0  0  0  0  0  0  0  0  0  0
   58.5700   32.1620   49.7100 S   0  0  0  0  0  0  0  0  0  0  0  0
   59.4940   32.9210   48.3670 C   0  0  0  0  0  0  0  0  0  0  0  0
   60.8300   33.0980   48.5340 N   0  0  0  0  0  0  0  0  0  0  0  0
   61.6050   33.6610   47.5690 C   0  0  0  0  0  0  0  0  0  0  0  0
   63.0810   33.8400   47.7940 C   0  0  0  0  0  0  0  0  0  0  0  0
   63.4480   33.4630   49.2330 C   0  0  0  0  0  0  0  0  0  0  0  0
   63.8850   33.0090   46.7900 C   0  0  0  0  0  0  0  0  0  0  0  0
   61.0380   34.0770   46.4070 N   0  0  0  0  0  0  0  0  0  0  0  0
   59.7050   33.9380   46.1860 C   0  0  0  0  0  0  0  0  0  0  0  0
   59.1500   34.3750   44.9780 C   0  0  0  0  0  0  0  0  0  0  0  0
   57.7800   34.2290   44.7430 C   0  0  0  0  0  0  0  0  0  0  0  0
   56.9610   33.6470   45.7130 C   0  0  0  0  0  0  0  0  0  0  0  0
   57.5040   33.2090   46.9250 C   0  0  0  0  0  0  0  0  0  0  0  0
   58.8820   33.3490   47.1720 C   0  0  0  0  0  0  0  0  0  0  0  0
   56.9463   24.3812   48.8910 H   0  0  0  0  0  0  0  0  0  0  0  0
   57.4287   23.2839   47.5532 H   0  0  0  0  0  0  0  0  0  0  0  0
   57.9760   24.9947   47.5532 H   0  0  0  0  0  0  0  0  0  0  0  0
   57.9219   26.4016   46.6013 H   0  0  0  0  0  0  0  0  0  0  0  0
   57.4465   26.1388   44.8757 H   0  0  0  0  0  0  0  0  0  0  0  0
   61.6332   29.2182   48.1111 H   0  0  0  0  0  0  0  0  0  0  0  0
   61.3259   30.9928   48.1754 H   0  0  0  0  0  0  0  0  0  0  0  0
   59.1761   29.3774   49.4038 H   0  0  0  0  0  0  0  0  0  0  0  0
   60.8122   29.1954   50.1972 H   0  0  0  0  0  0  0  0  0  0  0  0
   59.7850   30.9226   51.3909 H   0  0  0  0  0  0  0  0  0  0  0  0
   60.8821   31.7460   50.1798 H   0  0  0  0  0  0  0  0  0  0  0  0
   63.3341   34.8990   47.6378 H   0  0  0  0  0  0  0  0  0  0  0  0
   62.8564   34.0707   49.9335 H   0  0  0  0  0  0  0  0  0  0  0  0
   63.2320   32.3973   49.3993 H   0  0  0  0  0  0  0  0  0  0  0  0
   64.5191   33.6503   49.3993 H   0  0  0  0  0  0  0  0  0  0  0  0
   64.5503   32.3213   47.3327 H   0  0  0  0  0  0  0  0  0  0  0  0
   63.1956   32.4298   46.1581 H   0  0  0  0  0  0  0  0  0  0  0  0
   64.4866   33.6789   46.1581 H   0  0  0  0  0  0  0  0  0  0  0  0
   59.7928   34.8340   44.2124 H   0  0  0  0  0  0  0  0  0  0  0  0
   57.3462   34.5731   43.7925 H   0  0  0  0  0  0  0  0  0  0  0  0
   55.8836   33.5326   45.5228 H   0  0  0  0  0  0  0  0  0  0  0  0
   56.8529   32.7544   47.6862 H   0  0  0  0  0  0  0  0  0  0  0  0
  1  2  1  0
  2  3  1  0
  3  4  2  0
  3  5  1  0
  5  6  1  0
  6  7  1  0
  7  8  1  0
  8  9  2  0
  8 10  1  0
 10 11  1  0
 11 12  1  0
 12 13  2  0
 12 14  1  0
 14 15  1  0
 15 16  1  0
 16 17  1  0
 17 18  1  0
 18 19  1  0
 19 20  2  0
 20 21  1  0
 21 22  1  0
 22 23  1  0
 22 24  1  0
 21 25  2  0
 25 26  1  0
 26 27  2  0
 27 28  1  0
 28 29  2  0
 29 30  1  0
 30 31  2  0
 11  6  2  0
 31 19  1  0
 31 26  1  0
  1 32  1  0
  1 33  1  0
  1 34  1  0
  5 35  1  0
  5 36  1  0
 15 37  1  0
 15 38  1  0
 16 39  1  0
 16 40  1  0
 17 41  1  0
 17 42  1  0
 22 43  1  0
 23 44  1  0
 23 45  1  0
 23 46  1  0
 24 47  1  0
 24 48  1  0
 24 49  1  0
 27 50  1  0
 28 51  1  0
 29 52  1  0
 30 53  1  0
M  CHG  4   2  -1   7  -1  10  -1  14  -1
M  END
>  <UniqueID>  (8) 
6

>  <SMILES>  (8) 
C[N-]C(=O)Cc1[n-]c(=O)[n-]c1C(=O)[N-]CCCSc1nc(C(C)C)nc2ccccc12

>  <Energy>  (8) 
73.92864181555662

>  <Genealogy>  (8) 
C[N-]C(=O)Cc1[n-]c(=O)[n-]c1C(=O)[N-]CCCSc1nc(C(C)C)nc2ccccc12 (protonated)
C[N-]C(=O)Cc1[n-]c(=O)[n-]c1C(=O)[N-]CCCSc1nc(C(C)C)nc2ccccc12 (3D coordinates assigned)
C[N-]C(=O)Cc1[n-]c(=O)[n-]c1C(=O)[N-]CCCSc1nc(C(C)C)nc2ccccc12 (optimized conformer: 73.92864181555662 kcal/mol)

>  <smiles>  (8) 
CNC(=O)Cc1[nH]c(=O)[nH]c1C(=O)NCCCSc1nc(C(C)C)nc2ccccc12

>  <score_type>  (8) 
oracle

>  <origin>  (8) 
adg

>  <m_score__min__energy>  (8) 
-15.960000000000001

>  <m_primary>  (8) 
energy

$$$$
8:0
     RDKit          3D

 37 38  0  0  0  0  0  0  0  0999 V2000
   60.5641   34.3994   48.7917 H   0  0  0  0  0  0  0  0  0  0  0  0
   59.8970   34.1480   47.9540 C   0  0  0  0  0  0  0  0  0  0  0  0
   58.9940   33.0890   48.0740 C   0  0  0  0  0  0  0  0  0  0  0  0
   58.9501   32.5072   49.0065 H   0  0  0  0  0  0  0  0  0  0  0  0
   58.1460   32.7680   47.0100 C   0  0  0  0  0  0  0  0  0  0  0  0
   57.4350   31.9346   47.1094 H   0  0  0  0  0  0  0  0  0  0  0  0
   58.1970   33.5050   45.8130 C   0  0  0  0  0  0  0  0  0  0  0  0
   57.3070   33.1340   44.6580 C   0  0  0  0  0  0  0  0  0  0  0  0
   57.0727   34.0402   44.0802 H   0  0  0  0  0  0  0  0  0  0  0  0
   56.3883   32.6804   45.0583 H   0  0  0  0  0  0  0  0  0  0  0  0
   58.1200   31.9200   43.5590 S   0  0  0  0  0  0  0  0  0  0  0  0
   57.4660   30.4830   44.4030 C   0  0  0  0  0  0  0  0  0  0  0  0
   56.1470   30.2370   44.5520 N   0  0  0  0  0  0  0  0  0  0  0  0
   55.8950   29.1120   45.2190 N   0  0  0  0  0  0  0  0  0  0  0  0
   57.0120   28.4570   45.6010 C   0  0  0  0  0  0  0  0  0  0  0  0
   56.9610   27.3420   46.2720 N   0  0  0  0  0  0  0  0  0  0  0  0
   56.1080   26.2130   46.0330 C   0  0  0  0  0  0  0  0  0  0  0  0
   54.8550   26.3450   45.9890 O   0  0  0  0  0  0  0  0  0  0  0  0
   56.7040   24.9590   45.8450 O   0  0  0  0  0  0  0  0  0  0  0  0
   57.1890   24.4240   44.6030 C   0  0  0  0  0  0  0  0  0  0  0  0
   57.7550   25.6010   43.7920 C   0  0  0  0  0  0  0  0  0  0  0  0
   58.1271   26.3748   44.4796 H   0  0  0  0  0  0  0  0  0  0  0  0
   58.5809   25.2460   43.1580 H   0  0  0  0  0  0  0  0  0  0  0  0
   56.9620   26.0244   43.1580 H   0  0  0  0  0  0  0  0  0  0  0  0
   56.0410   23.7770   43.8050 C   0  0  0  0  0  0  0  0  0  0  0  0
   55.2998   23.3593   44.5022 H   0  0  0  0  0  0  0  0  0  0  0  0
   55.5608   24.5373   43.1715 H   0  0  0  0  0  0  0  0  0  0  0  0
   56.4427   22.9725   43.1715 H   0  0  0  0  0  0  0  0  0  0  0  0
   58.3180   23.4070   44.8540 C   0  0  0  0  0  0  0  0  0  0  0  0
   58.4612   23.2780   45.9370 H   0  0  0  0  0  0  0  0  0  0  0  0
   58.0485   22.4410   44.4021 H   0  0  0  0  0  0  0  0  0  0  0  0
   59.2507   23.7756   44.4021 H   0  0  0  0  0  0  0  0  0  0  0  0
   58.4060   29.2750   45.1030 S   0  0  0  0  0  0  0  0  0  0  0  0
   59.1090   34.5710   45.7010 C   0  0  0  0  0  0  0  0  0  0  0  0
   59.1830   35.2970   44.5570 F   0  0  0  0  0  0  0  0  0  0  0  0
   59.9530   34.8880   46.7700 C   0  0  0  0  0  0  0  0  0  0  0  0
   60.6635   35.7228   46.6785 H   0  0  0  0  0  0  0  0  0  0  0  0
  1  2  1  0
  2  3  2  0
  3  4  1  0
  3  5  1  0
  5  6  1  0
  5  7  2  0
  7  8  1  0
  8  9  1  0
  8 10  1  0
  8 11  1  0
 11 12  1  0
 12 13  2  0
 13 14  1  0
 14 15  1  0
 15 16  2  0
 16 17  1  0
 17 18  2  0
 17 19  1  0
 19 20  1  0
 20 21  1  0
 21 22  1  0
 21 23  1  0
 21 24  1  0
 20 25  1  0
 25 26  1  0
 25 27  1  0
 25 28  1  0
 20 29  1  0
 29 30  1  0
 29 31  1  0
 29 32  1  0
 15 33  1  0
  7 34  1  0
 34 35  1  0
 34 36  2  0
 36 37  1  0
 36  2  1  0
 33 12  1  0
M  CHG  1  14  -1
M  END
>  <UniqueID>  (9) 
7

>  <SMILES>  (9) 
CC(C)(C)OC(=O)/N=c1/[n-]nc(SCc2ccccc2F)s1

>  <Energy>  (9) 
65.82212918793549

>  <Genealogy>  (9) 
CC(C)(C)OC(=O)N=c1[n-]nc(SCc2ccccc2F)s1 (protonated)
CC(C)(C)OC(=O)/N=c1/[n-]nc(SCc2ccccc2F)s1 (cis-trans isomerization)
CC(C)(C)OC(=O)/N=c1/[n-]nc(SCc2ccccc2F)s1 (3D coordinates assigned)
CC(C)(C)OC(=O)/N=c1/[n-]nc(SCc2ccccc2F)s1 (optimized conformer: 65.82212918793549 kcal/mol)

>  <smiles>  (9) 
CC(C)(C)OC(=O)N=c1[nH]nc(SCc2ccccc2F)s1

>  <score_type>  (9) 
oracle

>  <origin>  (9) 
adg

>  <m_score__min__energy>  (9) 
-9.9600000000000009

>  <m_primary>  (9) 
energy

$$$$
9:0
     RDKit          3D

 51 53  0  0  0  0  0  0  0  0999 V2000
   58.8822   28.8651   43.4456 H   0  0  0  0  0  0  0  0  0  0  0  0
   59.3140   27.9330   43.8390 C   0  0  0  0  0  0  0  0  0  0  0  0
   60.2875   27.5787   43.4691 H   0  0  0  0  0  0  0  0  0  0  0  0
   58.6540   27.2290   44.7690 C   0  0  0  0  0  0  0  0  0  0  0  0
   59.2510   26.0930   45.2030 N   0  0  0  0  0  0  0  0  0  0  0  0
   58.6160   25.1780   45.9700 C   0  0  0  0  0  0  0  0  0  0  0  0
   59.2540   24.1600   46.3500 O   0  0  0  0  0  0  0  0  0  0  0  0
   57.2950   25.3460   46.2920 N   0  0  0  0  0  0  0  0  0  0  0  0
   56.5770   24.3150   47.0790 C   0  0  0  0  0  0  0  0  0  0  0  0
   56.9825   24.3032   48.1015 H   0  0  0  0  0  0  0  0  0  0  0  0
   55.5073   24.5713   47.0765 H   0  0  0  0  0  0  0  0  0  0  0  0
   56.7260   22.9360   46.4800 C   0  0  0  0  0  0  0  0  0  0  0  0
   56.9680   21.9690   47.2520 O   0  0  0  0  0  0  0  0  0  0  0  0
   56.6490   22.7040   45.0590 N   0  0  0  0  0  0  0  0  0  0  0  0
   55.9300   23.6360   44.1810 C   0  0  0  0  0  0  0  0  0  0  0  0
   55.0268   23.9943   44.6967 H   0  0  0  0  0  0  0  0  0  0  0  0
   56.5931   24.4806   43.9424 H   0  0  0  0  0  0  0  0  0  0  0  0
   55.5230   22.9440   42.8750 C   0  0  0  0  0  0  0  0  0  0  0  0
   54.7296   22.2124   43.0878 H   0  0  0  0  0  0  0  0  0  0  0  0
   55.1636   23.7087   42.1707 H   0  0  0  0  0  0  0  0  0  0  0  0
   56.6230   22.2760   42.2910 O   0  0  0  0  0  0  0  0  0  0  0  0
   57.0250   21.2130   43.1310 C   0  0  0  0  0  0  0  0  0  0  0  0
   56.1572   20.5704   43.3405 H   0  0  0  0  0  0  0  0  0  0  0  0
   57.8119   20.6377   42.6212 H   0  0  0  0  0  0  0  0  0  0  0  0
   57.5840   21.7480   44.4510 C   0  0  0  0  0  0  0  0  0  0  0  0
   57.7430   20.9080   45.1431 H   0  0  0  0  0  0  0  0  0  0  0  0
   58.5359   22.2616   44.2507 H   0  0  0  0  0  0  0  0  0  0  0  0
   56.6590   26.5160   45.9510 C   0  0  0  0  0  0  0  0  0  0  0  0
   55.4670   26.7050   46.3300 O   0  0  0  0  0  0  0  0  0  0  0  0
   57.3350   27.5340   45.2250 C   0  0  0  0  0  0  0  0  0  0  0  0
   56.7080   28.7290   45.0350 C   0  0  0  0  0  0  0  0  0  0  0  0
   55.6686   28.6924   44.6769 H   0  0  0  0  0  0  0  0  0  0  0  0
   57.2880   30.0700   45.2630 C   0  0  0  0  0  0  0  0  0  0  0  0
   58.1470   30.3130   46.3450 C   0  0  0  0  0  0  0  0  0  0  0  0
   58.4302   29.4875   47.0146 H   0  0  0  0  0  0  0  0  0  0  0  0
   58.6450   31.5980   46.5770 C   0  0  0  0  0  0  0  0  0  0  0  0
   59.3288   31.7712   47.4210 H   0  0  0  0  0  0  0  0  0  0  0  0
   58.2820   32.6750   45.7430 C   0  0  0  0  0  0  0  0  0  0  0  0
   58.7980   34.0110   45.9830 N   0  0  0  0  0  0  0  0  0  0  0  0
   59.0800   34.4660   47.3510 C   0  0  0  0  0  0  0  0  0  0  0  0
   58.6416   33.7587   48.0704 H   0  0  0  0  0  0  0  0  0  0  0  0
   60.1682   34.5169   47.5035 H   0  0  0  0  0  0  0  0  0  0  0  0
   58.6414   35.4632   47.5035 H   0  0  0  0  0  0  0  0  0  0  0  0
   59.0490   34.9260   44.8640 C   0  0  0  0  0  0  0  0  0  0  0  0
   59.3210   35.9175   45.2550 H   0  0  0  0  0  0  0  0  0  0  0  0
   59.8732   34.5357   44.2490 H   0  0  0  0  0  0  0  0  0  0  0  0
   58.1410   35.0109   44.2490 H   0  0  0  0  0  0  0  0  0  0  0  0
   57.3950   32.4240   44.6760 C   0  0  0  0  0  0  0  0  0  0  0  0
   57.0923   33.2497   44.0152 H   0  0  0  0  0  0  0  0  0  0  0  0
   56.8960   31.1390   44.4480 C   0  0  0  0  0  0  0  0  0  0  0  0
   56.1901   30.9659   43.6223 H   0  0  0  0  0  0  0  0  0  0  0  0
  1  2  1  0
  2  3  1  0
  2  4  2  0
  4  5  1  0
  5  6  1  0
  6  7  2  0
  6  8  1  0
  8  9  1  0
  9 10  1  0
  9 11  1  0
  9 12  1  0
 12 13  2  0
 12 14  1  0
 14 15  1  0
 15 16  1  0
 15 17  1  0
 15 18  1  0
 18 19  1  0
 18 20  1  0
 18 21  1  0
 21 22  1  0
 22 23  1  0
 22 24  1  0
 22 25  1  0
 25 26  1  0
 25 27  1  0
  8 28  1  0
 28 29  2  0
 28 30  1  0
 30 31  2  0
 31 32  1  0
 31 33  1  0
 33 34  2  0
 34 35  1  0
 34 36  1  0
 36 37  1  0
 36 38  2  0
 38 39  1  0
 39 40  1  0
 40 41  1  0
 40 42  1  0
 40 43  1  0
 39 44  1  0
 44 45  1  0
 44 46  1  0
 44 47  1  0
 38 48  1  0
 48 49  1  0
 48 50  2  0
 50 51  1  0
 30  4  1  0
 50 33  1  0
 25 14  1  0
M  CHG  1   5  -1
M  END
>  <UniqueID>  (10) 
8

>  <SMILES>  (10) 
C=c1[n-]c(=O)n(CC(=O)N2CCOCC2)c(=O)/c1=C/c1ccc(N(C)C)cc1

>  <Energy>  (10) 
84.19599639858771

>  <Genealogy>  (10) 
C=c1[n-]c(=O)n(CC(=O)N2CCOCC2)c(=O)c1=Cc1ccc(N(C)C)cc1 (protonated)
C=c1[n-]c(=O)n(CC(=O)N2CCOCC2)c(=O)/c1=C/c1ccc(N(C)C)cc1 (cis-trans isomerization)
C=c1[n-]c(=O)n(CC(=O)N2CCOCC2)c(=O)/c1=C/c1ccc(N(C)C)cc1 (3D coordinates assigned)
C=c1[n-]c(=O)n(CC(=O)N2CCOCC2)c(=O)/c1=C/c1ccc(N(C)C)cc1 (nonaromatic ring conformer: 84.19599639858771 kcal/mol)

>  <smiles>  (10) 
C=c1[nH]c(=O)n(CC(=O)N2CCOCC2)c(=O)c1=Cc1ccc(N(C)C)cc1

>  <score_type>  (10) 
oracle

>  <origin>  (10) 
adg

>  <m_score__min__energy>  (10) 
-9.4499999999999993

>  <m_primary>  (10) 
energy

$$$$
10:0
     RDKit          3D

 45 47  0  0  0  0  0  0  0  0999 V2000
   62.4090   33.7300   51.2510 O   0  0  0  0  0  0  0  0  0  0  0  0
   61.9430   32.9610   50.3700 C   0  0  0  0  0  0  0  0  0  0  0  0
   60.9570   31.9950   50.7540 N   0  0  0  0  0  0  0  0  0  0  0  0
   59.4460   31.7290   49.9420 S   0  0  0  0  0  0  0  0  0  0  0  0
   58.4490   31.1830   50.9250 O   0  0  0  0  0  0  0  0  0  0  0  0
   58.9320   33.0360   49.4040 O   0  0  0  0  0  0  0  0  0  0  0  0
   59.6440   30.5540   48.6450 C   0  0  0  0  0  0  0  0  0  0  0  0
   58.8710   29.3840   48.6130 C   0  0  0  0  0  0  0  0  0  0  0  0
   58.9860   28.4950   47.5420 C   0  0  0  0  0  0  0  0  0  0  0  0
   59.8860   28.7560   46.4970 C   0  0  0  0  0  0  0  0  0  0  0  0
   59.9750   27.8240   45.3160 C   0  0  0  0  0  0  0  0  0  0  0  0
   58.8860   28.1150   44.2780 C   0  0  0  0  0  0  0  0  0  0  0  0
   57.5670   28.2250   44.9090 N   0  0  0  0  0  0  0  0  0  0  0  0
   56.6620   29.5710   44.2780 S   0  0  0  0  0  0  0  0  0  0  0  0
   56.5400   29.4240   42.7880 O   0  0  0  0  0  0  0  0  0  0  0  0
   55.2790   29.5780   44.8680 O   0  0  0  0  0  0  0  0  0  0  0  0
   57.4840   31.0860   44.6370 C   0  0  0  0  0  0  0  0  0  0  0  0
   57.8130   31.9800   43.6080 C   0  0  0  0  0  0  0  0  0  0  0  0
   58.4340   33.1970   43.9070 C   0  0  0  0  0  0  0  0  0  0  0  0
   58.7270   33.5270   45.2340 C   0  0  0  0  0  0  0  0  0  0  0  0
   59.5690   35.1920   45.6420 Br  0  0  0  0  0  0  0  0  0  0  0  0
   58.3980   32.6380   46.2630 C   0  0  0  0  0  0  0  0  0  0  0  0
   57.7790   31.4200   45.9660 C   0  0  0  0  0  0  0  0  0  0  0  0
   60.6670   29.9220   46.5370 C   0  0  0  0  0  0  0  0  0  0  0  0
   60.5470   30.8140   47.6070 C   0  0  0  0  0  0  0  0  0  0  0  0
   62.4360   33.0840   48.9890 C   0  0  0  0  0  0  0  0  0  0  0  0
   61.8910   33.8660   47.9780 C   0  0  0  0  0  0  0  0  0  0  0  0
   62.6090   33.8000   46.7790 C   0  0  0  0  0  0  0  0  0  0  0  0
   63.7320   32.9850   46.8470 C   0  0  0  0  0  0  0  0  0  0  0  0
   63.8270   32.3470   48.3980 S   0  0  0  0  0  0  0  0  0  0  0  0
   58.1721   29.1660   49.4340 H   0  0  0  0  0  0  0  0  0  0  0  0
   58.3679   27.5854   47.5173 H   0  0  0  0  0  0  0  0  0  0  0  0
   60.9602   27.9436   44.8415 H   0  0  0  0  0  0  0  0  0  0  0  0
   59.8338   26.7958   45.6805 H   0  0  0  0  0  0  0  0  0  0  0  0
   59.1199   29.0614   43.7684 H   0  0  0  0  0  0  0  0  0  0  0  0
   58.8595   27.2831   43.5588 H   0  0  0  0  0  0  0  0  0  0  0  0
   57.5822   31.7236   42.5635 H   0  0  0  0  0  0  0  0  0  0  0  0
   58.6923   33.8954   43.0974 H   0  0  0  0  0  0  0  0  0  0  0  0
   58.6266   32.8977   47.3072 H   0  0  0  0  0  0  0  0  0  0  0  0
   57.5230   30.7224   46.7770 H   0  0  0  0  0  0  0  0  0  0  0  0
   61.3761   30.1346   45.7234 H   0  0  0  0  0  0  0  0  0  0  0  0
   61.1646   31.7239   47.6334 H   0  0  0  0  0  0  0  0  0  0  0  0
   60.9851   34.4763   48.1074 H   0  0  0  0  0  0  0  0  0  0  0  0
   62.3125   34.3420   45.8689 H   0  0  0  0  0  0  0  0  0  0  0  0
   64.4379   32.7908   46.0260 H   0  0  0  0  0  0  0  0  0  0  0  0
  1  2  2  0
  2  3  1  0
  3  4  1  0
  4  5  2  0
  4  6  2  0
  4  7  1  0
  7  8  2  0
  8  9  1  0
  9 10  2  0
 10 11  1  0
 11 12  1  0
 12 13  1  0
 13 14  1  0
 14 15  2  0
 14 16  2  0
 14 17  1  0
 17 18  2  0
 18 19  1  0
 19 20  2  0
 20 21  1  0
 20 22  1  0
 22 23  2  0
 10 24  1  0
 24 25  2  0
  2 26  1  0
 26 27  2  0
 27 28  1  0
 28 29  2  0
 29 30  1  0
 25  7  1  0
 30 26  1  0
 23 17  1  0
  8 31  1  0
  9 32  1  0
 11 33  1  0
 11 34  1  0
 12 35  1  0
 12 36  1  0
 18 37  1  0
 19 38  1  0
 22 39  1  0
 23 40  1  0
 24 41  1  0
 25 42  1  0
 27 43  1  0
 28 44  1  0
 29 45  1  0
M  CHG  2   3  -1  13  -1
M  END
>  <UniqueID>  (11) 
9

>  <SMILES>  (11) 
O=C([N-]S(=O)(=O)c1ccc(CC[N-]S(=O)(=O)c2ccc(Br)cc2)cc1)c1cccs1

>  <Energy>  (11) 
72.32648932075611

>  <Genealogy>  (11) 
O=C([N-]S(=O)(=O)c1ccc(CC[N-]S(=O)(=O)c2ccc(Br)cc2)cc1)c1cccs1 (protonated)
O=C([N-]S(=O)(=O)c1ccc(CC[N-]S(=O)(=O)c2ccc(Br)cc2)cc1)c1cccs1 (3D coordinates assigned)
O=C([N-]S(=O)(=O)c1ccc(CC[N-]S(=O)(=O)c2ccc(Br)cc2)cc1)c1cccs1 (optimized conformer: 72.32648932075611 kcal/mol)

>  <smiles>  (11) 
O=C(NS(=O)(=O)c1ccc(CCNS(=O)(=O)c2ccc(Br)cc2)cc1)c1cccs1

>  <score_type>  (11) 
oracle

>  <origin>  (11) 
adg

>  <m_score__min__energy>  (11) 
-13.06

>  <m_primary>  (11) 
energy

$$$$
11:0
     RDKit          3D

 49 52  0  0  0  0  0  0  0  0999 V2000
   56.2690   30.4545   44.0934 H   0  0  0  0  0  0  0  0  0  0  0  0
   56.5610   29.4010   44.2150 C   0  0  0  0  0  0  0  0  0  0  0  0
   55.8978   28.6012   43.8537 H   0  0  0  0  0  0  0  0  0  0  0  0
   57.7280   29.0910   44.8050 C   0  0  0  0  0  0  0  0  0  0  0  0
   58.2320   27.8020   45.0290 C   0  0  0  0  0  0  0  0  0  0  0  0
   57.6310   26.6340   44.7160 C   0  0  0  0  0  0  0  0  0  0  0  0
   57.5465   26.3860   43.6477 H   0  0  0  0  0  0  0  0  0  0  0  0
   57.0750   25.6560   45.6800 C   0  0  0  0  0  0  0  0  0  0  0  0
   57.7100   24.5770   46.1720 N   0  0  0  0  0  0  0  0  0  0  0  0
   56.8040   24.0280   47.0090 C   0  0  0  0  0  0  0  0  0  0  0  0
   57.0360   22.9820   47.6660 O   0  0  0  0  0  0  0  0  0  0  0  0
   55.6310   24.6920   47.0850 N   0  0  0  0  0  0  0  0  0  0  0  0
   55.8200   25.7190   46.2410 C   0  0  0  0  0  0  0  0  0  0  0  0
   54.8640   26.6940   45.9890 O   0  0  0  0  0  0  0  0  0  0  0  0
   59.4790   27.9780   45.6200 C   0  0  0  0  0  0  0  0  0  0  0  0
   60.1744   27.1844   45.9307 H   0  0  0  0  0  0  0  0  0  0  0  0
   59.6770   29.3380   45.7420 C   0  0  0  0  0  0  0  0  0  0  0  0
   60.9080   29.9720   46.3150 C   0  0  0  0  0  0  0  0  0  0  0  0
   60.8567   29.9456   47.4135 H   0  0  0  0  0  0  0  0  0  0  0  0
   61.7967   29.4194   45.9761 H   0  0  0  0  0  0  0  0  0  0  0  0
   60.9742   31.0164   45.9761 H   0  0  0  0  0  0  0  0  0  0  0  0
   58.6190   30.0150   45.2430 N   0  0  0  0  0  0  0  0  0  0  0  0
   58.4860   31.4470   45.1970 C   0  0  0  0  0  0  0  0  0  0  0  0
   58.0410   32.0760   44.0260 C   0  0  0  0  0  0  0  0  0  0  0  0
   57.8048   31.4749   43.1356 H   0  0  0  0  0  0  0  0  0  0  0  0
   57.8970   33.4650   43.9880 C   0  0  0  0  0  0  0  0  0  0  0  0
   57.5434   33.9549   43.0688 H   0  0  0  0  0  0  0  0  0  0  0  0
   58.2010   34.2340   45.1150 C   0  0  0  0  0  0  0  0  0  0  0  0
   58.0775   35.3266   45.0827 H   0  0  0  0  0  0  0  0  0  0  0  0
   58.6630   33.6170   46.2870 C   0  0  0  0  0  0  0  0  0  0  0  0
   58.9750   34.4160   47.4890 C   0  0  0  0  0  0  0  0  0  0  0  0
   58.9300   35.6730   47.4150 O   0  0  0  0  0  0  0  0  0  0  0  0
   59.2900   33.8100   48.7470 N   0  0  0  0  0  0  0  0  0  0  0  0
   60.3870   34.2190   49.6170 C   0  0  0  0  0  0  0  0  0  0  0  0
   60.3758   35.3128   49.7329 H   0  0  0  0  0  0  0  0  0  0  0  0
   60.2706   33.7465   50.6035 H   0  0  0  0  0  0  0  0  0  0  0  0
   61.6930   33.7920   49.0050 C   0  0  0  0  0  0  0  0  0  0  0  0
   61.7450   33.4210   47.6500 C   0  0  0  0  0  0  0  0  0  0  0  0
   60.8257   33.4225   47.0459 H   0  0  0  0  0  0  0  0  0  0  0  0
   62.9610   33.0500   47.0670 C   0  0  0  0  0  0  0  0  0  0  0  0
   62.9939   32.7513   46.0088 H   0  0  0  0  0  0  0  0  0  0  0  0
   64.1340   33.0580   47.8260 C   0  0  0  0  0  0  0  0  0  0  0  0
   65.0887   32.7635   47.3657 H   0  0  0  0  0  0  0  0  0  0  0  0
   64.0950   33.4400   49.1700 C   0  0  0  0  0  0  0  0  0  0  0  0
   65.0200   33.4482   49.7652 H   0  0  0  0  0  0  0  0  0  0  0  0
   62.8820   33.8120   49.7600 C   0  0  0  0  0  0  0  0  0  0  0  0
   62.8660   34.2000   51.0960 O   0  0  0  0  0  0  0  0  0  0  0  0
   58.7860   32.2190   46.3280 C   0  0  0  0  0  0  0  0  0  0  0  0
   59.1198   31.7265   47.2532 H   0  0  0  0  0  0  0  0  0  0  0  0
  1  2  1  0
  2  3  1  0
  2  4  2  0
  4  5  1  0
  5  6  2  0
  6  7  1  0
  6  8  1  0
  8  9  1  0
  9 10  1  0
 10 11  2  0
 10 12  1  0
 12 13  1  0
 13 14  1  0
  5 15  1  0
 15 16  1  0
 15 17  2  0
 17 18  1  0
 18 19  1  0
 18 20  1  0
 18 21  1  0
 17 22  1  0
 22 23  1  0
 23 24  2  0
 24 25  1  0
 24 26  1  0
 26 27  1  0
 26 28  2  0
 28 29  1  0
 28 30  1  0
 30 31  1  0
 31 32  2  0
 31 33  1  0
 33 34  1  0
 34 35  1  0
 34 36  1  0
 34 37  1  0
 37 38  2  0
 38 39  1  0
 38 40  1  0
 40 41  1  0
 40 42  2  0
 42 43  1  0
 42 44  1  0
 44 45  1  0
 44 46  2  0
 46 47  1  0
 30 48  2  0
 48 49  1  0
 22  4  1  0
 48 23  1  0
 13  8  2  0
 46 37  1  0
M  CHG  5   9  -1  12  -1  14  -1  33  -1  47  -1
M  END
>  <UniqueID>  (12) 
10

>  <SMILES>  (12) 
C=c1/c(=C/c2[n-]c(=O)[n-]c2[O-])cc(C)n1-c1cccc(C(=O)[N-]Cc2ccccc2[O-])c1

>  <Energy>  (12) 
125.73166322605006

>  <Genealogy>  (12) 
C=c1c(=Cc2[n-]c(=O)[n-]c2[O-])cc(C)n1-c1cccc(C(=O)[N-]Cc2ccccc2[O-])c1 (protonated)
C=c1/c(=C/c2[n-]c(=O)[n-]c2[O-])cc(C)n1-c1cccc(C(=O)[N-]Cc2ccccc2[O-])c1 (cis-trans isomerization)
C=c1/c(=C/c2[n-]c(=O)[n-]c2[O-])cc(C)n1-c1cccc(C(=O)[N-]Cc2ccccc2[O-])c1 (3D coordinates assigned)
C=c1/c(=C/c2[n-]c(=O)[n-]c2[O-])cc(C)n1-c1cccc(C(=O)[N-]Cc2ccccc2[O-])c1 (optimized conformer: 125.73166322605006 kcal/mol)

>  <smiles>  (12) 
C=c1c(=Cc2[nH]c(=O)[nH]c2O)cc(C)n1-c1cccc(C(=O)NCc2ccccc2O)c1

>  <score_type>  (12) 
oracle

>  <origin>  (12) 
adg

>  <m_score__min__energy>  (12) 
-19.359999999999999

>  <m_primary>  (12) 
energy

$$$$
12:0
     RDKit          3D

 31 32  0  0  0  0  0  0  0  0999 V2000
   63.7660   33.1450   47.5090 C   0  0  0  0  0  0  0  0  0  0  0  0
   62.7810   32.5300   48.3330 O   0  0  0  0  0  0  0  0  0  0  0  0
   61.6600   31.8420   47.8470 C   0  0  0  0  0  0  0  0  0  0  0  0
   60.3490   32.1410   48.2640 C   0  0  0  0  0  0  0  0  0  0  0  0
   59.2640   31.4270   47.7480 C   0  0  0  0  0  0  0  0  0  0  0  0
   59.4720   30.4030   46.8120 C   0  0  0  0  0  0  0  0  0  0  0  0
   58.3190   29.6440   46.2640 C   0  0  0  0  0  0  0  0  0  0  0  0
   58.1300   28.2850   46.6030 C   0  0  0  0  0  0  0  0  0  0  0  0
   59.0680   27.5980   47.4660 C   0  0  0  0  0  0  0  0  0  0  0  0
   59.8170   27.0480   48.1550 N   0  0  0  0  0  0  0  0  0  0  0  0
   57.0310   27.5900   46.0660 C   0  0  0  0  0  0  0  0  0  0  0  0
   56.7290   25.8590   46.4480 S   0  0  0  0  0  0  0  0  0  0  0  0
   57.4720   25.2640   44.8980 C   0  0  0  0  0  0  0  0  0  0  0  0
   56.1640   28.2280   45.2400 N   0  0  0  0  0  0  0  0  0  0  0  0
   56.3150   29.5310   44.8950 C   0  0  0  0  0  0  0  0  0  0  0  0
   55.4730   30.0660   44.1230 O   0  0  0  0  0  0  0  0  0  0  0  0
   57.3970   30.2720   45.3980 C   0  0  0  0  0  0  0  0  0  0  0  0
   57.5330   31.6700   45.0460 C   0  0  0  0  0  0  0  0  0  0  0  0
   57.6430   32.7870   44.7650 N   0  0  0  0  0  0  0  0  0  0  0  0
   60.7770   30.1050   46.3960 C   0  0  0  0  0  0  0  0  0  0  0  0
   61.8620   30.8200   46.9100 C   0  0  0  0  0  0  0  0  0  0  0  0
   64.5287   33.6212   48.1426 H   0  0  0  0  0  0  0  0  0  0  0  0
   64.2408   32.3826   46.8739 H   0  0  0  0  0  0  0  0  0  0  0  0
   63.2894   33.9063   46.8739 H   0  0  0  0  0  0  0  0  0  0  0  0
   60.1778   32.9407   48.9997 H   0  0  0  0  0  0  0  0  0  0  0  0
   58.2427   31.6690   48.0772 H   0  0  0  0  0  0  0  0  0  0  0  0
   58.3116   24.5916   45.1283 H   0  0  0  0  0  0  0  0  0  0  0  0
   56.7155   24.7192   44.3142 H   0  0  0  0  0  0  0  0  0  0  0  0
   57.8383   26.1213   44.3142 H   0  0  0  0  0  0  0  0  0  0  0  0
   60.9478   29.3043   45.6613 H   0  0  0  0  0  0  0  0  0  0  0  0
   62.8821   30.5788   46.5766 H   0  0  0  0  0  0  0  0  0  0  0  0
  1  2  1  0
  2  3  1  0
  3  4  2  0
  4  5  1  0
  5  6  2  0
  6  7  1  0
  7  8  1  0
  8  9  1  0
  9 10  3  0
  8 11  2  0
 11 12  1  0
 12 13  1  0
 11 14  1  0
 14 15  1  0
 15 16  2  0
 15 17  1  0
 17 18  1  0
 18 19  3  0
  6 20  1  0
 20 21  2  0
 21  3  1  0
 17  7  2  0
  1 22  1  0
  1 23  1  0
  1 24  1  0
  4 25  1  0
  5 26  1  0
 13 27  1  0
 13 28  1  0
 13 29  1  0
 20 30  1  0
 21 31  1  0
M  CHG  1  14  -1
M  END
>  <UniqueID>  (13) 
11

>  <SMILES>  (13) 
COc1ccc(-c2c(C#N)c(SC)[n-]c(=O)c2C#N)cc1

>  <Energy>  (13) 
37.55411231883405

>  <Genealogy>  (13) 
COc1ccc(-c2c(C#N)c(SC)[n-]c(=O)c2C#N)cc1 (protonated)
COc1ccc(-c2c(C#N)c(SC)[n-]c(=O)c2C#N)cc1 (3D coordinates assigned)
COc1ccc(-c2c(C#N)c(SC)[n-]c(=O)c2C#N)cc1 (optimized conformer: 37.55411231883405 kcal/mol)

>  <smiles>  (13) 
COc1ccc(-c2c(C#N)c(SC)[nH]c(=O)c2C#N)cc1

>  <score_type>  (13) 
oracle

>  <origin>  (13) 
adg

>  <m_score__min__energy>  (13) 
-7.46

>  <m_primary>  (13) 
energy

$$$$
13:0
     RDKit          3D

 75 79  0  0  0  0  0  0  0  0999 V2000
   57.1900   21.8650   50.5810 C   0  0  0  0  0  0  0  0  0  0  0  0
   57.3030   22.1960   49.2000 O   0  0  0  0  0  0  0  0  0  0  0  0
   56.6130   21.5410   48.1680 C   0  0  0  0  0  0  0  0  0  0  0  0
   57.0920   20.3020   47.7330 C   0  0  0  0  0  0  0  0  0  0  0  0
   56.4660   19.6300   46.6820 C   0  0  0  0  0  0  0  0  0  0  0  0
   55.3280   20.1790   46.0610 C   0  0  0  0  0  0  0  0  0  0  0  0
   54.6970   19.5450   44.9780 O   0  0  0  0  0  0  0  0  0  0  0  0
   55.3800   18.8640   43.9330 C   0  0  0  0  0  0  0  0  0  0  0  0
   54.8050   21.3950   46.5290 C   0  0  0  0  0  0  0  0  0  0  0  0
   53.6660   21.9650   45.8680 N   0  0  0  0  0  0  0  0  0  0  0  0
   53.5910   23.2550   45.2470 C   0  0  0  0  0  0  0  0  0  0  0  0
   53.1540   24.2250   45.9200 O   0  0  0  0  0  0  0  0  0  0  0  0
   54.1600   23.5190   43.8790 C   0  0  0  0  0  0  0  0  0  0  0  0
   55.6100   23.3500   43.8940 N   0  0  0  0  0  0  0  0  0  0  0  0
   56.2360   22.2370   43.5040 N   0  0  0  0  0  0  0  0  0  0  0  0
   57.5480   22.3340   43.8540 C   0  0  0  0  0  0  0  0  0  0  0  0
   57.7170   23.5550   44.4660 C   0  0  0  0  0  0  0  0  0  0  0  0
   58.4500   24.0220   45.5330 C   0  0  0  0  0  0  0  0  0  0  0  0
   57.6890   24.9450   46.1870 N   0  0  0  0  0  0  0  0  0  0  0  0
   58.0240   25.5220   47.4910 C   0  0  0  0  0  0  0  0  0  0  0  0
   58.5020   26.9400   47.3210 C   0  0  0  0  0  0  0  0  0  0  0  0
   57.7800   27.8460   46.5290 C   0  0  0  0  0  0  0  0  0  0  0  0
   58.1710   29.1840   46.4510 C   0  0  0  0  0  0  0  0  0  0  0  0
   59.2800   29.6420   47.1760 C   0  0  0  0  0  0  0  0  0  0  0  0
   59.6730   31.0660   47.1230 C   0  0  0  0  0  0  0  0  0  0  0  0
   60.1630   31.5320   46.0630 O   0  0  0  0  0  0  0  0  0  0  0  0
   59.5140   31.9400   48.2500 N   0  0  0  0  0  0  0  0  0  0  0  0
   60.1860   31.7860   49.5400 C   0  0  0  0  0  0  0  0  0  0  0  0
   59.2640   32.2230   50.6510 C   0  0  0  0  0  0  0  0  0  0  0  0
   59.3510   33.5340   51.1420 C   0  0  0  0  0  0  0  0  0  0  0  0
   58.5180   33.9600   52.1770 C   0  0  0  0  0  0  0  0  0  0  0  0
   57.6170   33.0670   52.7640 C   0  0  0  0  0  0  0  0  0  0  0  0
   57.5290   31.7390   52.3030 C   0  0  0  0  0  0  0  0  0  0  0  0
   56.6630   30.8070   52.8980 O   0  0  0  0  0  0  0  0  0  0  0  0
   55.3660   30.4760   52.4090 C   0  0  0  0  0  0  0  0  0  0  0  0
   58.3460   31.3240   51.2330 C   0  0  0  0  0  0  0  0  0  0  0  0
   58.2880   30.0070   50.7680 O   0  0  0  0  0  0  0  0  0  0  0  0
   59.1950   29.0060   51.2050 C   0  0  0  0  0  0  0  0  0  0  0  0
   60.0290   28.7300   47.9350 C   0  0  0  0  0  0  0  0  0  0  0  0
   59.6360   27.3910   48.0180 C   0  0  0  0  0  0  0  0  0  0  0  0
   56.4790   24.9850   45.5550 C   0  0  0  0  0  0  0  0  0  0  0  0
   55.3580   25.6900   45.9860 O   0  0  0  0  0  0  0  0  0  0  0  0
   56.5240   24.1490   44.4670 C   0  0  0  0  0  0  0  0  0  0  0  0
   55.4670   22.0880   47.5590 C   0  0  0  0  0  0  0  0  0  0  0  0
   57.4857   22.7312   51.1911 H   0  0  0  0  0  0  0  0  0  0  0  0
   56.1485   21.5943   50.8091 H   0  0  0  0  0  0  0  0  0  0  0  0
   57.8485   21.0139   50.8091 H   0  0  0  0  0  0  0  0  0  0  0  0
   57.9688   19.8532   48.2226 H   0  0  0  0  0  0  0  0  0  0  0  0
   56.8646   18.6647   46.3365 H   0  0  0  0  0  0  0  0  0  0  0  0
   56.0958   18.1503   44.3669 H   0  0  0  0  0  0  0  0  0  0  0  0
   54.6521   18.3214   43.3119 H   0  0  0  0  0  0  0  0  0  0  0  0
   55.9204   19.5935   43.3119 H   0  0  0  0  0  0  0  0  0  0  0  0
   53.7194   22.8127   43.1599 H   0  0  0  0  0  0  0  0  0  0  0  0
   53.9224   24.5520   43.5851 H   0  0  0  0  0  0  0  0  0  0  0  0
   58.3275   21.5776   43.6801 H   0  0  0  0  0  0  0  0  0  0  0  0
   59.4673   23.7071   45.8087 H   0  0  0  0  0  0  0  0  0  0  0  0
   57.1309   25.5134   48.1331 H   0  0  0  0  0  0  0  0  0  0  0  0
   58.8234   24.9253   47.9546 H   0  0  0  0  0  0  0  0  0  0  0  0
   56.9006   27.4998   45.9662 H   0  0  0  0  0  0  0  0  0  0  0  0
   57.6056   29.8829   45.8170 H   0  0  0  0  0  0  0  0  0  0  0  0
   60.4592   30.7305   49.6859 H   0  0  0  0  0  0  0  0  0  0  0  0
   61.0928   32.4085   49.5541 H   0  0  0  0  0  0  0  0  0  0  0  0
   60.0819   34.2319   50.7075 H   0  0  0  0  0  0  0  0  0  0  0  0
   58.5704   35.0000   52.5315 H   0  0  0  0  0  0  0  0  0  0  0  0
   56.9733   33.4031   53.5903 H   0  0  0  0  0  0  0  0  0  0  0  0
   54.6875   30.3028   53.2573 H   0  0  0  0  0  0  0  0  0  0  0  0
   54.9826   31.3051   51.7961 H   0  0  0  0  0  0  0  0  0  0  0  0
   55.4268   29.5646   51.7961 H   0  0  0  0  0  0  0  0  0  0  0  0
   59.2149   28.9840   52.3046 H   0  0  0  0  0  0  0  0  0  0  0  0
   58.8709   28.0261   50.8245 H   0  0  0  0  0  0  0  0  0  0  0  0
   60.2020   29.2323   50.8245 H   0  0  0  0  0  0  0  0  0  0  0  0
   60.9296   29.0702   48.4672 H   0  0  0  0  0  0  0  0  0  0  0  0
   60.2171   26.6870   48.6318 H   0  0  0  0  0  0  0  0  0  0  0  0
   54.7610   25.3420   46.7230 H   0  0  0  0  0  0  0  0  0  0  0  0
   55.0864   23.0651   47.8914 H   0  0  0  0  0  0  0  0  0  0  0  0
  1  2  1  0
  2  3  1  0
  3  4  2  0
  4  5  1  0
  5  6  2  0
  6  7  1  0
  7  8  1  0
  6  9  1  0
  9 10  1  0
 10 11  1  0
 11 12  2  0
 11 13  1  0
 13 14  1  0
 14 15  1  0
 15 16  2  0
 16 17  1  0
 17 18  2  0
 18 19  1  0
 19 20  1  0
 20 21  1  0
 21 22  2  0
 22 23  1  0
 23 24  2  0
 24 25  1  0
 25 26  2  0
 25 27  1  0
 27 28  1  0
 28 29  1  0
 29 30  2  0
 30 31  1  0
 31 32  2  0
 32 33  1  0
 33 34  1  0
 34 35  1  0
 33 36  2  0
 36 37  1  0
 37 38  1  0
 24 39  1  0
 39 40  2  0
 19 41  1  0
 41 42  1  0
 41 43  2  0
  9 44  2  0
 44  3  1  0
 43 14  1  0
 43 17  1  0
 40 21  1  0
 36 29  1  0
  1 45  1  0
  1 46  1  0
  1 47  1  0
  4 48  1  0
  5 49  1  0
  8 50  1  0
  8 51  1  0
  8 52  1  0
 13 53  1  0
 13 54  1  0
 16 55  1  0
 18 56  1  0
 20 57  1  0
 20 58  1  0
 22 59  1  0
 23 60  1  0
 28 61  1  0
 28 62  1  0
 30 63  1  0
 31 64  1  0
 32 65  1  0
 35 66  1  0
 35 67  1  0
 35 68  1  0
 38 69  1  0
 38 70  1  0
 38 71  1  0
 39 72  1  0
 40 73  1  0
 42 74  1  0
 44 75  1  0
M  CHG  2  10  -1  27  -1
M  END
>  <UniqueID>  (14) 
12

>  <SMILES>  (14) 
COc1ccc(OC)c([N-]C(=O)Cn2ncc3cn(Cc4ccc(C(=O)[N-]Cc5cccc(OC)c5OC)cc4)c(O)c32)c1

>  <Energy>  (14) 
177.84686837529412

>  <Genealogy>  (14) 
COc1ccc(OC)c([N-]C(=O)Cn2ncc3cn(Cc4ccc(C(=O)[N-]Cc5cccc(OC)c5OC)cc4)c(O)c32)c1 (protonated)
COc1ccc(OC)c([N-]C(=O)Cn2ncc3cn(Cc4ccc(C(=O)[N-]Cc5cccc(OC)c5OC)cc4)c(O)c32)c1 (3D coordinates assigned)
COc1ccc(OC)c([N-]C(=O)Cn2ncc3cn(Cc4ccc(C(=O)[N-]Cc5cccc(OC)c5OC)cc4)c(O)c32)c1 (optimized conformer: 177.84686837529412 kcal/mol)

>  <smiles>  (14) 
COc1ccc(OC)c(NC(=O)Cn2ncc3cn(Cc4ccc(C(=O)NCc5cccc(OC)c5OC)cc4)c(O)c32)c1

>  <score_type>  (14) 
oracle

>  <origin>  (14) 
adg

>  <m_score__min__energy>  (14) 
-11.720000000000001

>  <m_primary>  (14) 
energy

$$$$
14:0
     RDKit          3D

 48 49  0  0  0  0  0  0  0  0999 V2000
   57.1910   25.4950   46.2090 C   0  0  0  0  0  0  0  0  0  0  0  0
   57.2110   26.8930   45.7950 N   0  0  0  0  0  0  0  0  0  0  0  0
   57.6600   27.2860   44.4890 C   0  0  0  0  0  0  0  0  0  0  0  0
   58.1600   26.4280   43.7120 O   0  0  0  0  0  0  0  0  0  0  0  0
   57.5860   28.6520   44.0590 N   0  0  0  0  0  0  0  0  0  0  0  0
   56.4910   29.5240   44.3800 C   0  0  0  0  0  0  0  0  0  0  0  0
   55.5140   29.1060   45.0570 O   0  0  0  0  0  0  0  0  0  0  0  0
   56.4600   30.9160   43.8240 C   0  0  0  0  0  0  0  0  0  0  0  0
   57.3790   31.7660   44.5740 N   0  0  0  0  0  0  0  0  0  0  0  0
   57.0500   32.9020   45.1680 N   0  0  0  0  0  0  0  0  0  0  0  0
   58.1320   33.3190   45.8570 C   0  0  0  0  0  0  0  0  0  0  0  0
   58.1490   34.5590   46.6950 C   0  0  0  0  0  0  0  0  0  0  0  0
   59.1600   32.4440   45.7270 N   0  0  0  0  0  0  0  0  0  0  0  0
   60.4420   32.4390   46.3820 C   0  0  0  0  0  0  0  0  0  0  0  0
   61.2460   33.5870   46.3770 C   0  0  0  0  0  0  0  0  0  0  0  0
   62.4580   33.6060   47.0750 C   0  0  0  0  0  0  0  0  0  0  0  0
   62.8880   32.4690   47.7820 C   0  0  0  0  0  0  0  0  0  0  0  0
   64.0960   32.4810   48.5630 N   0  0  0  0  0  0  0  0  0  0  0  0
   64.2780   33.2380   49.7700 C   0  0  0  0  0  0  0  0  0  0  0  0
   63.5560   34.2410   49.9990 O   0  0  0  0  0  0  0  0  0  0  0  0
   65.3190   32.8660   50.6860 N   0  0  0  0  0  0  0  0  0  0  0  0
   65.5960   33.5580   51.9150 C   0  0  0  0  0  0  0  0  0  0  0  0
   66.7530   33.1360   52.7590 C   0  0  0  0  0  0  0  0  0  0  0  0
   64.8650   34.5080   52.2990 O   0  0  0  0  0  0  0  0  0  0  0  0
   62.0750   31.3260   47.7950 C   0  0  0  0  0  0  0  0  0  0  0  0
   60.8640   31.3080   47.0990 C   0  0  0  0  0  0  0  0  0  0  0  0
   58.6490   31.4870   44.9220 C   0  0  0  0  0  0  0  0  0  0  0  0
   59.2660   30.4420   44.5800 O   0  0  0  0  0  0  0  0  0  0  0  0
   57.1902   25.4379   47.3075 H   0  0  0  0  0  0  0  0  0  0  0  0
   56.2858   25.0091   45.8159 H   0  0  0  0  0  0  0  0  0  0  0  0
   58.0819   24.9834   45.8159 H   0  0  0  0  0  0  0  0  0  0  0  0
   56.9470   27.6220   46.4950 H   0  0  0  0  0  0  0  0  0  0  0  0
   58.2740   28.9720   43.3450 H   0  0  0  0  0  0  0  0  0  0  0  0
   56.7625   30.8942   42.7666 H   0  0  0  0  0  0  0  0  0  0  0  0
   55.4400   31.3192   43.9082 H   0  0  0  0  0  0  0  0  0  0  0  0
   56.1130   33.3630   45.1220 H   0  0  0  0  0  0  0  0  0  0  0  0
   58.1452   34.2822   47.7596 H   0  0  0  0  0  0  0  0  0  0  0  0
   59.0552   35.1408   46.4706 H   0  0  0  0  0  0  0  0  0  0  0  0
   57.2591   35.1654   46.4706 H   0  0  0  0  0  0  0  0  0  0  0  0
   60.9218   34.4788   45.8206 H   0  0  0  0  0  0  0  0  0  0  0  0
   63.0778   34.5148   47.0709 H   0  0  0  0  0  0  0  0  0  0  0  0
   64.9120   31.9300   48.2160 H   0  0  0  0  0  0  0  0  0  0  0  0
   65.9110   32.0390   50.4450 H   0  0  0  0  0  0  0  0  0  0  0  0
   66.4864   33.2333   53.8218 H   0  0  0  0  0  0  0  0  0  0  0  0
   67.0048   32.0881   52.5385 H   0  0  0  0  0  0  0  0  0  0  0  0
   67.6203   33.7757   52.5385 H   0  0  0  0  0  0  0  0  0  0  0  0
   62.3938   30.4364   48.3580 H   0  0  0  0  0  0  0  0  0  0  0  0
   60.2381   30.4035   47.1127 H   0  0  0  0  0  0  0  0  0  0  0  0
  1  2  1  0
  2  3  1  0
  3  4  2  0
  3  5  1  0
  5  6  1  0
  6  7  2  0
  6  8  1  0
  8  9  1  0
  9 10  1  0
 10 11  2  0
 11 12  1  0
 11 13  1  0
 13 14  1  0
 14 15  2  0
 15 16  1  0
 16 17  2  0
 17 18  1  0
 18 19  1  0
 19 20  2  0
 19 21  1  0
 21 22  1  0
 22 23  1  0
 22 24  2  0
 17 25  1  0
 25 26  2  0
 13 27  1  0
 27 28  2  0
 27  9  1  0
 26 14  1  0
  1 29  1  0
  1 30  1  0
  1 31  1  0
  2 32  1  0
  5 33  1  0
  8 34  1  0
  8 35  1  0
 10 36  1  0
 12 37  1  0
 12 38  1  0
 12 39  1  0
 15 40  1  0
 16 41  1  0
 18 42  1  0
 21 43  1  0
 23 44  1  0
 23 45  1  0
 23 46  1  0
 25 47  1  0
 26 48  1  0
M  CHG  1  10   1
M  END
>  <UniqueID>  (15) 
13

>  <SMILES>  (15) 
CNC(=O)NC(=O)Cn1[nH+]c(C)n(-c2ccc(NC(=O)NC(C)=O)cc2)c1=O

>  <Energy>  (15) 
89.19795552896683

>  <Genealogy>  (15) 
CNC(=O)NC(=O)Cn1[nH+]c(C)n(-c2ccc(NC(=O)NC(C)=O)cc2)c1=O (protonated)
CNC(=O)NC(=O)Cn1[nH+]c(C)n(-c2ccc(NC(=O)NC(C)=O)cc2)c1=O (3D coordinates assigned)
CNC(=O)NC(=O)Cn1[nH+]c(C)n(-c2ccc(NC(=O)NC(C)=O)cc2)c1=O (optimized conformer: 89.19795552896683 kcal/mol)

>  <smiles>  (15) 
CNC(=O)NC(=O)Cn1nc(C)n(-c2ccc(NC(=O)NC(C)=O)cc2)c1=O

>  <score_type>  (15) 
oracle

>  <origin>  (15) 
adg

>  <m_score__min__energy>  (15) 
-6.6600000000000001

>  <m_primary>  (15) 
energy

$$$$
15:0
     RDKit          3D

 37 39  0  0  0  0  0  0  0  0999 V2000
   56.7470   29.4410   43.0280 C   0  0  0  0  0  0  0  0  0  0  0  0
   57.3330   30.4080   44.0210 C   0  0  0  0  0  0  0  0  0  0  0  0
   57.2420   31.7890   43.7770 C   0  0  0  0  0  0  0  0  0  0  0  0
   57.7760   32.7070   44.6850 C   0  0  0  0  0  0  0  0  0  0  0  0
   58.4160   32.2570   45.8400 C   0  0  0  0  0  0  0  0  0  0  0  0
   58.5290   30.8870   46.0880 C   0  0  0  0  0  0  0  0  0  0  0  0
   57.9960   29.9520   45.1850 C   0  0  0  0  0  0  0  0  0  0  0  0
   58.1550   28.5460   45.4440 N   0  0  0  0  0  0  0  0  0  0  0  0
   57.0540   27.7960   45.5780 N   0  0  0  0  0  0  0  0  0  0  0  0
   57.1100   26.4620   45.8320 C   0  0  0  0  0  0  0  0  0  0  0  0
   55.8550   25.7000   45.9510 C   0  0  0  0  0  0  0  0  0  0  0  0
   54.7670   26.3290   46.0120 O   0  0  0  0  0  0  0  0  0  0  0  0
   55.8310   24.2700   46.0510 N   0  0  0  0  0  0  0  0  0  0  0  0
   55.1650   23.3760   45.1130 C   0  0  0  0  0  0  0  0  0  0  0  0
   56.1900   22.5660   44.3920 C   0  0  0  0  0  0  0  0  0  0  0  0
   57.5400   22.5300   44.6800 C   0  0  0  0  0  0  0  0  0  0  0  0
   58.0850   21.6340   43.7860 C   0  0  0  0  0  0  0  0  0  0  0  0
   57.0350   21.1750   43.0140 C   0  0  0  0  0  0  0  0  0  0  0  0
   55.9180   21.7470   43.4020 O   0  0  0  0  0  0  0  0  0  0  0  0
   58.3580   25.8390   45.9160 C   0  0  0  0  0  0  0  0  0  0  0  0
   59.5100   26.6080   45.7790 C   0  0  0  0  0  0  0  0  0  0  0  0
   59.3960   27.9770   45.5470 C   0  0  0  0  0  0  0  0  0  0  0  0
   60.4400   28.6780   45.4400 O   0  0  0  0  0  0  0  0  0  0  0  0
   56.2495   28.6201   43.5653 H   0  0  0  0  0  0  0  0  0  0  0  0
   56.0134   29.9635   42.3964 H   0  0  0  0  0  0  0  0  0  0  0  0
   57.5497   29.0325   42.3964 H   0  0  0  0  0  0  0  0  0  0  0  0
   56.7464   32.1502   42.8638 H   0  0  0  0  0  0  0  0  0  0  0  0
   57.6916   33.7861   44.4888 H   0  0  0  0  0  0  0  0  0  0  0  0
   58.8319   32.9814   46.5558 H   0  0  0  0  0  0  0  0  0  0  0  0
   59.0394   30.5374   46.9976 H   0  0  0  0  0  0  0  0  0  0  0  0
   54.4868   22.7062   45.6620 H   0  0  0  0  0  0  0  0  0  0  0  0
   54.5856   23.9670   44.3884 H   0  0  0  0  0  0  0  0  0  0  0  0
   58.0694   23.0975   45.4595 H   0  0  0  0  0  0  0  0  0  0  0  0
   59.1426   21.3429   43.7036 H   0  0  0  0  0  0  0  0  0  0  0  0
   57.1214   20.4420   42.1984 H   0  0  0  0  0  0  0  0  0  0  0  0
   58.4290   24.7549   46.0882 H   0  0  0  0  0  0  0  0  0  0  0  0
   60.5021   26.1388   45.8533 H   0  0  0  0  0  0  0  0  0  0  0  0
  1  2  1  0
  2  3  2  0
  3  4  1  0
  4  5  2  0
  5  6  1  0
  6  7  2  0
  7  8  1  0
  8  9  1  0
  9 10  2  0
 10 11  1  0
 11 12  2  0
 11 13  1  0
 13 14  1  0
 14 15  1  0
 15 16  2  0
 16 17  1  0
 17 18  2  0
 18 19  1  0
 10 20  1  0
 20 21  2  0
 21 22  1  0
 22 23  2  0
  7  2  1  0
 22  8  1  0
 19 15  1  0
  1 24  1  0
  1 25  1  0
  1 26  1  0
  3 27  1  0
  4 28  1  0
  5 29  1  0
  6 30  1  0
 14 31  1  0
 14 32  1  0
 16 33  1  0
 17 34  1  0
 18 35  1  0
 20 36  1  0
 21 37  1  0
M  CHG  1  13  -1
M  END
>  <UniqueID>  (16) 
14

>  <SMILES>  (16) 
Cc1ccccc1-n1nc(C(=O)[N-]Cc2ccco2)ccc1=O

>  <Energy>  (16) 
75.80887892437809

>  <Genealogy>  (16) 
Cc1ccccc1-n1nc(C(=O)[N-]Cc2ccco2)ccc1=O (protonated)
Cc1ccccc1-n1nc(C(=O)[N-]Cc2ccco2)ccc1=O (3D coordinates assigned)
Cc1ccccc1-n1nc(C(=O)[N-]Cc2ccco2)ccc1=O (optimized conformer: 75.80887892437809 kcal/mol)

>  <smiles>  (16) 
Cc1ccccc1-n1nc(C(=O)NCc2ccco2)ccc1=O

>  <score_type>  (16) 
oracle

>  <origin>  (16) 
adg

>  <m_score__min__energy>  (16) 
-10.449999999999999

>  <m_primary>  (16) 
energy

$$$$
16:0
     RDKit          3D

 50 53  0  0  0  0  0  0  0  0999 V2000
   57.6490   26.3222   44.6587 H   0  0  0  0  0  0  0  0  0  0  0  0
   57.2100   27.1450   45.2420 C   0  0  0  0  0  0  0  0  0  0  0  0
   55.9230   26.9760   45.8530 N   0  0  0  0  0  0  0  0  0  0  0  0
   55.3150   25.8360   45.9940 C   0  0  0  0  0  0  0  0  0  0  0  0
   54.0570   25.6450   45.5130 N   0  0  0  0  0  0  0  0  0  0  0  0
   53.4210   24.4560   45.6590 C   0  0  0  0  0  0  0  0  0  0  0  0
   52.4037   24.3263   45.2611 H   0  0  0  0  0  0  0  0  0  0  0  0
   54.0550   23.3920   46.3150 C   0  0  0  0  0  0  0  0  0  0  0  0
   53.3460   22.0730   46.4750 C   0  0  0  0  0  0  0  0  0  0  0  0
   53.2255   21.8489   47.5452 H   0  0  0  0  0  0  0  0  0  0  0  0
   52.3562   22.1286   45.9983 H   0  0  0  0  0  0  0  0  0  0  0  0
   53.9384   21.2781   45.9983 H   0  0  0  0  0  0  0  0  0  0  0  0
   55.3590   23.6090   46.8050 C   0  0  0  0  0  0  0  0  0  0  0  0
   56.1960   22.4350   47.5880 S   0  0  0  0  0  0  0  0  0  0  0  0
   55.9500   24.8200   46.6320 N   0  0  0  0  0  0  0  0  0  0  0  0
   57.8780   28.2900   45.3750 C   0  0  0  0  0  0  0  0  0  0  0  0
   59.1880   28.3480   45.6880 N   0  0  0  0  0  0  0  0  0  0  0  0
   59.6400   29.6290   45.7730 C   0  0  0  0  0  0  0  0  0  0  0  0
   60.8010   29.8600   46.1950 O   0  0  0  0  0  0  0  0  0  0  0  0
   58.6920   30.6330   45.4910 C   0  0  0  0  0  0  0  0  0  0  0  0
   58.8170   31.9890   45.4880 C   0  0  0  0  0  0  0  0  0  0  0  0
   58.4310   32.7390   44.2240 C   0  0  0  0  0  0  0  0  0  0  0  0
   59.3310   32.9092   43.6149 H   0  0  0  0  0  0  0  0  0  0  0  0
   57.7012   32.1376   43.6621 H   0  0  0  0  0  0  0  0  0  0  0  0
   57.7910   34.1000   44.5770 C   0  0  0  0  0  0  0  0  0  0  0  0
   58.5877   34.8491   44.6960 H   0  0  0  0  0  0  0  0  0  0  0  0
   57.1070   34.3804   43.7624 H   0  0  0  0  0  0  0  0  0  0  0  0
   56.9770   34.0220   45.8860 C   0  0  0  0  0  0  0  0  0  0  0  0
   56.6271   35.0331   46.1415 H   0  0  0  0  0  0  0  0  0  0  0  0
   56.1409   33.3288   45.7117 H   0  0  0  0  0  0  0  0  0  0  0  0
   57.8000   33.4650   47.0840 C   0  0  0  0  0  0  0  0  0  0  0  0
   58.0334   34.2938   47.7685 H   0  0  0  0  0  0  0  0  0  0  0  0
   57.1926   32.6934   47.5796 H   0  0  0  0  0  0  0  0  0  0  0  0
   59.0660   32.8350   46.6510 N   0  0  1  0  0  0  0  0  0  0  0  0
   59.6650   33.6120   46.2820 H   0  0  0  0  0  0  0  0  0  0  0  0
   59.8530   32.2410   47.7680 C   0  0  0  0  0  0  0  0  0  0  0  0
   59.4629   32.6255   48.7219 H   0  0  0  0  0  0  0  0  0  0  0  0
   59.7535   31.1470   47.7117 H   0  0  0  0  0  0  0  0  0  0  0  0
   61.3240   32.5850   47.6660 C   0  0  0  0  0  0  0  0  0  0  0  0
   62.2470   32.0520   48.5810 C   0  0  0  0  0  0  0  0  0  0  0  0
   61.9054   31.3563   49.3616 H   0  0  0  0  0  0  0  0  0  0  0  0
   63.6000   32.4030   48.5030 C   0  0  0  0  0  0  0  0  0  0  0  0
   64.3202   31.9779   49.2175 H   0  0  0  0  0  0  0  0  0  0  0  0
   64.0360   33.2930   47.5180 C   0  0  0  0  0  0  0  0  0  0  0  0
   65.0997   33.5662   47.4560 H   0  0  0  0  0  0  0  0  0  0  0  0
   63.1220   33.8360   46.6120 C   0  0  0  0  0  0  0  0  0  0  0  0
   63.4666   34.5386   45.8390 H   0  0  0  0  0  0  0  0  0  0  0  0
   61.7700   33.4880   46.6860 C   0  0  0  0  0  0  0  0  0  0  0  0
   61.0526   33.9227   45.9744 H   0  0  0  0  0  0  0  0  0  0  0  0
   57.2300   29.8290   45.2050 S   0  0  0  0  0  0  0  0  0  0  0  0
  1  2  1  0
  2  3  1  0
  3  4  2  3
  4  5  1  0
  5  6  1  0
  6  7  1  0
  6  8  2  0
  8  9  1  0
  9 10  1  0
  9 11  1  0
  9 12  1  0
  8 13  1  0
 13 14  2  0
 13 15  1  0
  2 16  2  0
 16 17  1  0
 17 18  1  0
 18 19  2  0
 18 20  1  0
 20 21  2  0
 21 22  1  0
 22 23  1  0
 22 24  1  0
 22 25  1  0
 25 26  1  0
 25 27  1  0
 25 28  1  0
 28 29  1  0
 28 30  1  0
 28 31  1  0
 31 32  1  0
 31 33  1  0
 31 34  1  0
 34 35  1  6
 34 36  1  0
 36 37  1  0
 36 38  1  0
 36 39  1  0
 39 40  2  0
 40 41  1  0
 40 42  1  0
 42 43  1  0
 42 44  2  0
 44 45  1  0
 44 46  1  0
 46 47  1  0
 46 48  2  0
 48 49  1  0
 20 50  1  0
 15  4  1  0
 50 16  1  0
 34 21  1  0
 48 39  1  0
M  CHG  4   5  -1  15  -1  17  -1  34   1
M  END
>  <UniqueID>  (17) 
15

>  <SMILES>  (17) 
Cc1c[n-]c(=N/C=c2/[n-]c(=O)/c(=C3/CCCC[N@H+]3Cc3ccccc3)s2)[n-]c1=S

>  <Energy>  (17) 
117.49566902022947

>  <Genealogy>  (17) 
Cc1c[n-]c(=NC=c2[n-]c(=O)c(=C3CCCC[NH+]3Cc3ccccc3)s2)[n-]c1=S (protonated)
Cc1c[n-]c(=NC=c2[n-]c(=O)c(=C3CCCC[N@H+]3Cc3ccccc3)s2)[n-]c1=S (chirality)
Cc1c[n-]c(=N/C=c2/[n-]c(=O)/c(=C3/CCCC[N@H+]3Cc3ccccc3)s2)[n-]c1=S (cis-trans isomerization)
Cc1c[n-]c(=N/C=c2/[n-]c(=O)/c(=C3/CCCC[N@H+]3Cc3ccccc3)s2)[n-]c1=S (3D coordinates assigned)
Cc1c[n-]c(=N/C=c2/[n-]c(=O)/c(=C3/CCCC[N@H+]3Cc3ccccc3)s2)[n-]c1=S (nonaromatic ring conformer: 117.49566902022947 kcal/mol)

>  <smiles>  (17) 
Cc1c[nH]c(=NC=c2[nH]c(=O)c(=C3CCCCN3Cc3ccccc3)s2)[nH]c1=S

>  <score_type>  (17) 
oracle

>  <origin>  (17) 
adg

>  <m_score__min__energy>  (17) 
-13.130000000000001

>  <m_primary>  (17) 
energy

$$$$
17:0
     RDKit          3D

 55 58  0  0  0  0  0  0  0  0999 V2000
   62.8550   33.8330   51.1660 O   0  0  0  0  0  0  0  0  0  0  0  0
   62.6430   33.5950   49.9470 C   0  0  0  0  0  0  0  0  0  0  0  0
   61.8820   34.5340   49.1800 N   0  0  0  0  0  0  0  0  0  0  0  0
   60.9080   34.2110   48.1760 C   0  0  0  0  0  0  0  0  0  0  0  0
   61.3130   33.4820   47.0530 C   0  0  0  0  0  0  0  0  0  0  0  0
   60.3990   33.1760   46.0410 C   0  0  0  0  0  0  0  0  0  0  0  0
   59.0720   33.6230   46.1290 C   0  0  0  0  0  0  0  0  0  0  0  0
   57.9260   33.2130   44.8570 S   0  0  0  0  0  0  0  0  0  0  0  0
   58.6860   32.8490   43.6120 O   0  0  0  0  0  0  0  0  0  0  0  0
   57.0450   34.3840   44.5280 O   0  0  0  0  0  0  0  0  0  0  0  0
   56.9870   31.8380   45.3510 N   0  0  0  0  0  0  0  0  0  0  0  0
   57.2040   30.4630   44.9990 C   0  0  0  0  0  0  0  0  0  0  0  0
   57.2030   30.1250   43.6410 C   0  0  0  0  0  0  0  0  0  0  0  0
   57.3680   28.7980   43.2370 C   0  0  0  0  0  0  0  0  0  0  0  0
   57.5050   27.7890   44.1920 C   0  0  0  0  0  0  0  0  0  0  0  0
   57.5000   28.1030   45.5610 C   0  0  0  0  0  0  0  0  0  0  0  0
   57.6380   27.0100   46.5900 C   0  0  0  0  0  0  0  0  0  0  0  0
   57.0090   25.7250   46.1020 C   0  0  0  0  0  0  0  0  0  0  0  0
   55.6180   25.6250   45.9180 C   0  0  0  0  0  0  0  0  0  0  0  0
   54.7860   26.7120   46.1570 O   0  0  0  0  0  0  0  0  0  0  0  0
   55.0730   24.4560   45.4930 N   0  0  0  0  0  0  0  0  0  0  0  0
   55.8450   23.3670   45.2480 C   0  0  0  0  0  0  0  0  0  0  0  0
   55.3150   22.2940   44.8590 O   0  0  0  0  0  0  0  0  0  0  0  0
   57.1880   23.4350   45.4220 N   0  0  0  0  0  0  0  0  0  0  0  0
   57.7860   24.5810   45.8390 C   0  0  0  0  0  0  0  0  0  0  0  0
   59.0360   24.6040   45.9800 O   0  0  0  0  0  0  0  0  0  0  0  0
   57.3720   29.4450   45.9600 C   0  0  0  0  0  0  0  0  0  0  0  0
   58.6670   34.3710   47.2430 C   0  0  0  0  0  0  0  0  0  0  0  0
   59.5810   34.6730   48.2590 C   0  0  0  0  0  0  0  0  0  0  0  0
   63.2130   32.4300   49.3340 N   0  0  0  0  0  0  0  0  0  0  0  0
   63.8600   31.3760   50.1110 C   0  0  0  0  0  0  0  0  0  0  0  0
   65.2510   31.7940   50.5050 C   0  0  0  0  0  0  0  0  0  0  0  0
   65.7650   33.0460   50.1210 C   0  0  0  0  0  0  0  0  0  0  0  0
   67.0590   33.4200   50.4950 C   0  0  0  0  0  0  0  0  0  0  0  0
   67.8490   32.5490   51.2530 C   0  0  0  0  0  0  0  0  0  0  0  0
   67.3440   31.3050   51.6410 C   0  0  0  0  0  0  0  0  0  0  0  0
   66.0500   30.9280   51.2690 C   0  0  0  0  0  0  0  0  0  0  0  0
   62.3573   33.1475   46.9659 H   0  0  0  0  0  0  0  0  0  0  0  0
   60.7211   32.5827   45.1725 H   0  0  0  0  0  0  0  0  0  0  0  0
   57.0710   30.9122   42.8841 H   0  0  0  0  0  0  0  0  0  0  0  0
   57.3900   28.5480   42.1660 H   0  0  0  0  0  0  0  0  0  0  0  0
   57.6174   26.7430   43.8708 H   0  0  0  0  0  0  0  0  0  0  0  0
   58.7058   26.8353   46.7884 H   0  0  0  0  0  0  0  0  0  0  0  0
   57.1223   27.3261   47.5088 H   0  0  0  0  0  0  0  0  0  0  0  0
   57.4031   29.7025   47.0290 H   0  0  0  0  0  0  0  0  0  0  0  0
   57.6272   34.7219   47.3190 H   0  0  0  0  0  0  0  0  0  0  0  0
   59.2617   35.2726   49.1241 H   0  0  0  0  0  0  0  0  0  0  0  0
   63.2050   32.3420   48.2930 H   0  0  0  0  0  0  0  0  0  0  0  0
   63.2697   31.1801   51.0183 H   0  0  0  0  0  0  0  0  0  0  0  0
   63.9213   30.4658   49.4964 H   0  0  0  0  0  0  0  0  0  0  0  0
   65.1466   33.7329   49.5245 H   0  0  0  0  0  0  0  0  0  0  0  0
   67.4565   34.4002   50.1930 H   0  0  0  0  0  0  0  0  0  0  0  0
   68.8682   32.8435   51.5437 H   0  0  0  0  0  0  0  0  0  0  0  0
   67.9649   30.6221   52.2394 H   0  0  0  0  0  0  0  0  0  0  0  0
   65.6559   29.9481   51.5763 H   0  0  0  0  0  0  0  0  0  0  0  0
  1  2  2  0
  2  3  1  0
  3  4  1  0
  4  5  2  0
  5  6  1  0
  6  7  2  0
  7  8  1  0
  8  9  2  0
  8 10  2  0
  8 11  1  0
 11 12  1  0
 12 13  2  0
 13 14  1  0
 14 15  2  0
 15 16  1  0
 16 17  1  0
 17 18  1  0
 18 19  2  0
 19 20  1  0
 19 21  1  0
 21 22  1  0
 22 23  2  0
 22 24  1  0
 24 25  1  0
 25 26  2  0
 16 27  2  0
  7 28  1  0
 28 29  2  0
  2 30  1  0
 30 31  1  0
 31 32  1  0
 32 33  2  0
 33 34  1  0
 34 35  2  0
 35 36  1  0
 36 37  2  0
 29  4  1  0
 37 32  1  0
 27 12  1  0
 25 18  1  0
  5 38  1  0
  6 39  1  0
 13 40  1  0
 14 41  1  0
 15 42  1  0
 17 43  1  0
 17 44  1  0
 27 45  1  0
 28 46  1  0
 29 47  1  0
 30 48  1  0
 31 49  1  0
 31 50  1  0
 33 51  1  0
 34 52  1  0
 35 53  1  0
 36 54  1  0
 37 55  1  0
M  CHG  5   3  -1  11  -1  20  -1  21  -1  24  -1
M  END
>  <UniqueID>  (18) 
16

>  <SMILES>  (18) 
O=C([N-]c1ccc(S(=O)(=O)[N-]c2cccc(Cc3c([O-])[n-]c(=O)[n-]c3=O)c2)cc1)NCc1ccccc1

>  <Energy>  (18) 
65.27164064793932

>  <Genealogy>  (18) 
O=C([N-]c1ccc(S(=O)(=O)[N-]c2cccc(Cc3c([O-])[n-]c(=O)[n-]c3=O)c2)cc1)NCc1ccccc1 (protonated)
O=C([N-]c1ccc(S(=O)(=O)[N-]c2cccc(Cc3c([O-])[n-]c(=O)[n-]c3=O)c2)cc1)NCc1ccccc1 (3D coordinates assigned)
O=C([N-]c1ccc(S(=O)(=O)[N-]c2cccc(Cc3c([O-])[n-]c(=O)[n-]c3=O)c2)cc1)NCc1ccccc1 (optimized conformer: 65.27164064793932 kcal/mol)

>  <smiles>  (18) 
O=C(NCc1ccccc1)Nc1ccc(S(=O)(=O)Nc2cccc(Cc3c(O)[nH]c(=O)[nH]c3=O)c2)cc1

>  <score_type>  (18) 
oracle

>  <origin>  (18) 
adg

>  <m_score__min__energy>  (18) 
-18.890000000000001

>  <m_primary>  (18) 
energy

$$$$
18:0
     RDKit          3D

 21 22  0  0  0  0  0  0  0  0999 V2000
   56.5390   29.8210   42.5050 N   0  0  0  0  0  0  0  0  0  0  0  0
   56.3060   29.3770   43.8420 C   0  0  0  0  0  0  0  0  0  0  0  0
   55.1450   29.4480   44.3220 O   0  0  0  0  0  0  0  0  0  0  0  0
   57.4230   28.8760   44.6750 C   0  0  0  0  0  0  0  0  0  0  0  0
   58.7150   29.4210   44.4860 C   0  0  0  0  0  0  0  0  0  0  0  0
   59.7880   29.0260   45.2940 C   0  0  0  0  0  0  0  0  0  0  0  0
   59.5420   28.0830   46.2830 C   0  0  0  0  0  0  0  0  0  0  0  0
   60.4620   27.5910   47.1380 N   0  0  0  0  0  0  0  0  0  0  0  0
   59.7570   26.7090   47.8830 C   0  0  0  0  0  0  0  0  0  0  0  0
   58.4380   26.6830   47.4670 C   0  0  0  0  0  0  0  0  0  0  0  0
   58.3160   27.5610   46.4570 N   0  0  0  0  0  0  0  0  0  0  0  0
   57.2360   27.9010   45.6930 C   0  0  0  0  0  0  0  0  0  0  0  0
   55.9720   27.2490   45.8880 N   0  0  0  0  0  0  0  0  0  0  0  0
   57.4770   29.7220   42.0580 H   0  0  0  0  0  0  0  0  0  0  0  0
   55.7530   30.2120   41.9380 H   0  0  0  0  0  0  0  0  0  0  0  0
   58.8787   30.1656   43.6930 H   0  0  0  0  0  0  0  0  0  0  0  0
   60.7932   29.4490   45.1500 H   0  0  0  0  0  0  0  0  0  0  0  0
   60.1721   26.1011   48.7004 H   0  0  0  0  0  0  0  0  0  0  0  0
   57.6358   26.0580   47.8862 H   0  0  0  0  0  0  0  0  0  0  0  0
   55.1460   27.4800   45.2940 H   0  0  0  0  0  0  0  0  0  0  0  0
   55.8110   26.5860   46.6760 H   0  0  0  0  0  0  0  0  0  0  0  0
  1  2  1  0
  2  3  2  0
  2  4  1  0
  4  5  1  0
  5  6  2  0
  6  7  1  0
  7  8  2  0
  8  9  1  0
  9 10  2  0
 10 11  1  0
 11 12  1  0
 12 13  1  0
 12  4  2  0
 11  7  1  0
  1 14  1  0
  1 15  1  0
  5 16  1  0
  6 17  1  0
  9 18  1  0
 10 19  1  0
 13 20  1  0
 13 21  1  0
M  END
>  <UniqueID>  (19) 
17

>  <SMILES>  (19) 
NC(=O)c1ccc2nccn2c1N

>  <Energy>  (19) 
60.65246747600784

>  <Genealogy>  (19) 
NC(=O)c1ccc2nccn2c1N (3D coordinates assigned)
NC(=O)c1ccc2nccn2c1N (optimized conformer: 60.65246747600784 kcal/mol)

>  <smiles>  (19) 
NC(=O)c1ccc2nccn2c1N

>  <score_type>  (19) 
oracle

>  <origin>  (19) 
adg

>  <m_score__min__energy>  (19) 
-5.3700000000000001

>  <m_primary>  (19) 
energy

$$$$
19:0
     RDKit          3D

 43 45  0  0  0  0  0  0  0  0999 V2000
   58.4200   28.0850   46.8050 C   0  0  0  0  0  0  0  0  0  0  0  0
   58.0310   29.0560   45.7390 C   0  0  0  0  0  0  0  0  0  0  0  0
   58.4820   30.3580   45.6400 C   0  0  0  0  0  0  0  0  0  0  0  0
   57.8360   30.9030   44.5450 C   0  0  0  0  0  0  0  0  0  0  0  0
   57.9340   32.3000   44.0780 C   0  0  0  0  0  0  0  0  0  0  0  0
   58.5110   32.5040   42.9760 O   0  0  0  0  0  0  0  0  0  0  0  0
   57.5020   33.4450   44.8690 N   0  0  0  0  0  0  0  0  0  0  0  0
   57.0230   33.1310   46.2370 C   0  0  0  0  0  0  0  0  0  0  0  0
   58.1570   32.9710   47.2680 C   0  0  0  0  0  0  0  0  0  0  0  0
   59.0930   34.1060   47.2120 N   0  0  0  0  0  0  0  0  0  0  0  0
   60.1570   34.0050   48.2400 C   0  0  0  0  0  0  0  0  0  0  0  0
   61.3880   33.2640   47.7750 C   0  0  0  0  0  0  0  0  0  0  0  0
   62.6360   33.8240   47.5310 C   0  0  0  0  0  0  0  0  0  0  0  0
   63.6050   32.8800   47.1660 C   0  0  0  0  0  0  0  0  0  0  0  0
   63.1230   31.5790   47.1130 C   0  0  0  0  0  0  0  0  0  0  0  0
   61.4920   31.6030   47.5220 S   0  0  0  0  0  0  0  0  0  0  0  0
   59.6440   34.2680   45.8580 C   0  0  0  0  0  0  0  0  0  0  0  0
   58.5100   34.5260   44.8610 C   0  0  0  0  0  0  0  0  0  0  0  0
   56.9730   29.9260   44.0680 C   0  0  0  0  0  0  0  0  0  0  0  0
   55.9590   30.0830   42.9790 C   0  0  0  0  0  0  0  0  0  0  0  0
   57.1030   28.8020   44.7980 N   0  0  0  0  0  0  0  0  0  0  0  0
   58.2402   28.5338   47.7931 H   0  0  0  0  0  0  0  0  0  0  0  0
   57.8194   27.1690   46.7035 H   0  0  0  0  0  0  0  0  0  0  0  0
   59.4869   27.8370   46.7035 H   0  0  0  0  0  0  0  0  0  0  0  0
   59.2072   30.8593   46.2980 H   0  0  0  0  0  0  0  0  0  0  0  0
   56.6660   33.8310   44.3670 H   0  0  0  0  0  0  0  0  0  0  0  0
   56.3634   33.9460   46.5697 H   0  0  0  0  0  0  0  0  0  0  0  0
   56.5002   32.1648   46.1811 H   0  0  0  0  0  0  0  0  0  0  0  0
   57.7201   32.9159   48.2760 H   0  0  0  0  0  0  0  0  0  0  0  0
   58.7121   32.0505   47.0344 H   0  0  0  0  0  0  0  0  0  0  0  0
   60.4549   35.0230   48.5315 H   0  0  0  0  0  0  0  0  0  0  0  0
   59.7369   33.4315   49.0794 H   0  0  0  0  0  0  0  0  0  0  0  0
   62.8427   34.9011   47.6159 H   0  0  0  0  0  0  0  0  0  0  0  0
   64.6490   33.1447   46.9425 H   0  0  0  0  0  0  0  0  0  0  0  0
   63.7078   30.6856   46.8487 H   0  0  0  0  0  0  0  0  0  0  0  0
   60.3401   35.1197   45.8470 H   0  0  0  0  0  0  0  0  0  0  0  0
   60.1762   33.3490   45.5713 H   0  0  0  0  0  0  0  0  0  0  0  0
   58.0159   35.4729   45.1240 H   0  0  0  0  0  0  0  0  0  0  0  0
   58.9498   34.5698   43.8537 H   0  0  0  0  0  0  0  0  0  0  0  0
   54.9646   30.2370   43.4233 H   0  0  0  0  0  0  0  0  0  0  0  0
   56.2209   30.9513   42.3565 H   0  0  0  0  0  0  0  0  0  0  0  0
   55.9461   29.1762   42.3565 H   0  0  0  0  0  0  0  0  0  0  0  0
   56.5640   27.9160   44.6760 H   0  0  0  0  0  0  0  0  0  0  0  0
  1  2  1  0
  2  3  2  0
  3  4  1  0
  4  5  1  0
  5  6  2  0
  5  7  1  0
  7  8  1  0
  8  9  1  0
  9 10  1  0
 10 11  1  0
 11 12  1  0
 12 13  2  0
 13 14  1  0
 14 15  2  0
 15 16  1  0
 10 17  1  0
 17 18  1  0
  4 19  2  0
 19 20  1  0
 19 21  1  0
 21  2  1  0
 18  7  1  0
 16 12  1  0
  1 22  1  0
  1 23  1  0
  1 24  1  0
  3 25  1  0
  7 26  1  0
  8 27  1  0
  8 28  1  0
  9 29  1  0
  9 30  1  0
 11 31  1  0
 11 32  1  0
 13 33  1  0
 14 34  1  0
 15 35  1  0
 17 36  1  0
 17 37  1  0
 18 38  1  0
 18 39  1  0
 20 40  1  0
 20 41  1  0
 20 42  1  0
 21 43  1  0
M  CHG  1   7   1
M  END
>  <UniqueID>  (20) 
18

>  <SMILES>  (20) 
Cc1cc(C(=O)[NH+]2CCN(Cc3cccs3)CC2)c(C)[nH]1

>  <Energy>  (20) 
105.91133068109684

>  <Genealogy>  (20) 
Cc1cc(C(=O)[NH+]2CCN(Cc3cccs3)CC2)c(C)[nH]1 (protonated)
Cc1cc(C(=O)[NH+]2CCN(Cc3cccs3)CC2)c(C)[nH]1 (3D coordinates assigned)
Cc1cc(C(=O)[NH+]2CCN(Cc3cccs3)CC2)c(C)[nH]1 (nonaromatic ring conformer: 105.91133068109684 kcal/mol)

>  <smiles>  (20) 
Cc1cc(C(=O)N2CCN(Cc3cccs3)CC2)c(C)[nH]1

>  <score_type>  (20) 
oracle

>  <origin>  (20) 
adg

>  <m_score__min__energy>  (20) 
-6.0999999999999996

>  <m_primary>  (20) 
energy

$$$$
20:0
     RDKit          3D

 56 59  0  0  0  0  0  0  0  0999 V2000
   57.2692   27.8098   47.1253 H   0  0  0  0  0  0  0  0  0  0  0  0
   57.0980   26.9430   46.4700 C   0  0  0  0  0  0  0  0  0  0  0  0
   55.8690   26.3660   46.4180 N   0  0  0  0  0  0  0  0  0  0  0  0
   55.5990   25.2960   45.6220 C   0  0  0  0  0  0  0  0  0  0  0  0
   54.3900   24.8090   45.6270 N   0  0  0  0  0  0  0  0  0  0  0  0
   53.9730   23.4580   45.2430 C   0  0  0  0  0  0  0  0  0  0  0  0
   54.0593   23.3515   44.1516 H   0  0  0  0  0  0  0  0  0  0  0  0
   52.9315   23.3084   45.5638 H   0  0  0  0  0  0  0  0  0  0  0  0
   54.8370   22.4140   45.9110 C   0  0  0  0  0  0  0  0  0  0  0  0
   54.7230   22.1960   47.2960 C   0  0  0  0  0  0  0  0  0  0  0  0
   54.0054   22.7863   47.8847 H   0  0  0  0  0  0  0  0  0  0  0  0
   55.5140   21.2360   47.9280 C   0  0  0  0  0  0  0  0  0  0  0  0
   55.4010   21.0400   49.2650 F   0  0  0  0  0  0  0  0  0  0  0  0
   56.4190   20.4760   47.1860 C   0  0  0  0  0  0  0  0  0  0  0  0
   57.0436   19.7221   47.6874 H   0  0  0  0  0  0  0  0  0  0  0  0
   56.5330   20.6710   45.8080 C   0  0  0  0  0  0  0  0  0  0  0  0
   57.2466   20.0673   45.2281 H   0  0  0  0  0  0  0  0  0  0  0  0
   55.7400   21.6360   45.1550 C   0  0  0  0  0  0  0  0  0  0  0  0
   55.8240   21.8460   43.7680 O   0  0  0  0  0  0  0  0  0  0  0  0
   56.9700   21.5570   42.9740 C   0  0  0  0  0  0  0  0  0  0  0  0
   57.8259   21.3412   43.6304 H   0  0  0  0  0  0  0  0  0  0  0  0
   56.7651   20.6824   42.3391 H   0  0  0  0  0  0  0  0  0  0  0  0
   57.2044   22.4242   42.3391 H   0  0  0  0  0  0  0  0  0  0  0  0
   56.6290   24.7610   44.8240 C   0  0  0  0  0  0  0  0  0  0  0  0
   56.4341   23.8927   44.1774 H   0  0  0  0  0  0  0  0  0  0  0  0
   57.8990   25.3400   44.8590 C   0  0  0  0  0  0  0  0  0  0  0  0
   58.7054   24.9331   44.2312 H   0  0  0  0  0  0  0  0  0  0  0  0
   58.1480   26.4380   45.6920 C   0  0  0  0  0  0  0  0  0  0  0  0
   59.5050   27.0980   45.7070 C   0  0  0  0  0  0  0  0  0  0  0  0
   60.2550   26.3298   45.9464 H   0  0  0  0  0  0  0  0  0  0  0  0
   59.6391   27.5457   44.7112 H   0  0  0  0  0  0  0  0  0  0  0  0
   59.6590   28.2380   46.7100 C   0  0  0  0  0  0  0  0  0  0  0  0
   60.4240   28.0810   47.8870 C   0  0  0  0  0  0  0  0  0  0  0  0
   60.9217   27.1204   48.0858 H   0  0  0  0  0  0  0  0  0  0  0  0
   60.5540   29.0990   48.7770 N   0  0  0  0  0  0  0  0  0  0  0  0
   61.1230   28.9500   49.6400 H   0  0  0  0  0  0  0  0  0  0  0  0
   59.9660   30.3050   48.5760 C   0  0  0  0  0  0  0  0  0  0  0  0
   60.0891   31.1050   49.3209 H   0  0  0  0  0  0  0  0  0  0  0  0
   59.2040   30.5360   47.4260 C   0  0  0  0  0  0  0  0  0  0  0  0
   58.6060   31.7860   47.2210 C   0  0  0  0  0  0  0  0  0  0  0  0
   58.7342   32.5811   47.9702 H   0  0  0  0  0  0  0  0  0  0  0  0
   57.8440   32.0330   46.0670 C   0  0  0  0  0  0  0  0  0  0  0  0
   57.2290   33.2740   45.8300 O   0  0  0  0  0  0  0  0  0  0  0  0
   57.6710   34.2230   44.8650 C   0  0  0  0  0  0  0  0  0  0  0  0
   58.0816   35.1046   45.3790 H   0  0  0  0  0  0  0  0  0  0  0  0
   58.4506   33.7696   44.2352 H   0  0  0  0  0  0  0  0  0  0  0  0
   56.8223   34.5280   44.2352 H   0  0  0  0  0  0  0  0  0  0  0  0
   57.6850   31.0210   45.1120 C   0  0  0  0  0  0  0  0  0  0  0  0
   56.9190   31.3060   43.9680 O   0  0  0  0  0  0  0  0  0  0  0  0
   56.6530   30.3790   42.9190 C   0  0  0  0  0  0  0  0  0  0  0  0
   56.3740   29.4066   43.3510 H   0  0  0  0  0  0  0  0  0  0  0  0
   55.8265   30.7551   42.2981 H   0  0  0  0  0  0  0  0  0  0  0  0
   57.5531   30.2597   42.2981 H   0  0  0  0  0  0  0  0  0  0  0  0
   58.2850   29.7640   45.3160 C   0  0  0  0  0  0  0  0  0  0  0  0
   58.1576   28.9746   44.5606 H   0  0  0  0  0  0  0  0  0  0  0  0
   59.0480   29.5000   46.4750 C   0  0  0  0  0  0  0  0  0  0  0  0
  1  2  1  0
  2  3  1  0
  3  4  1  0
  4  5  2  0
  5  6  1  0
  6  7  1  0
  6  8  1  0
  6  9  1  0
  9 10  2  0
 10 11  1  0
 10 12  1  0
 12 13  1  0
 12 14  2  0
 14 15  1  0
 14 16  1  0
 16 17  1  0
 16 18  2  0
 18 19  1  0
 19 20  1  0
 20 21  1  0
 20 22  1  0
 20 23  1  0
  4 24  1  0
 24 25  1  0
 24 26  2  0
 26 27  1  0
 26 28  1  0
 28 29  1  0
 29 30  1  0
 29 31  1  0
 29 32  1  0
 32 33  2  0
 33 34  1  0
 33 35  1  0
 35 36  1  0
 35 37  2  0
 37 38  1  0
 37 39  1  0
 39 40  2  0
 40 41  1  0
 40 42  1  0
 42 43  1  0
 43 44  1  0
 44 45  1  0
 44 46  1  0
 44 47  1  0
 42 48  2  0
 48 49  1  0
 49 50  1  0
 50 51  1  0
 50 52  1  0
 50 53  1  0
 48 54  1  0
 54 55  1  0
 54 56  2  0
 28  2  2  0
 56 32  1  0
 18  9  1  0
 56 39  1  0
M  CHG  2   3  -1  35   1
M  END
>  <UniqueID>  (21) 
19

>  <SMILES>  (21) 
COc1ccc(F)cc1C/N=c1\ccc(Cc2c[nH+]cc3cc(OC)c(OC)cc23)c[n-]1

>  <Energy>  (21) 
69.68133064069649

>  <Genealogy>  (21) 
COc1ccc(F)cc1CN=c1ccc(Cc2c[nH+]cc3cc(OC)c(OC)cc23)c[n-]1 (protonated)
COc1ccc(F)cc1C/N=c1\ccc(Cc2c[nH+]cc3cc(OC)c(OC)cc23)c[n-]1 (cis-trans isomerization)
COc1ccc(F)cc1C/N=c1\ccc(Cc2c[nH+]cc3cc(OC)c(OC)cc23)c[n-]1 (3D coordinates assigned)
COc1ccc(F)cc1C/N=c1\ccc(Cc2c[nH+]cc3cc(OC)c(OC)cc23)c[n-]1 (optimized conformer: 69.68133064069649 kcal/mol)

>  <smiles>  (21) 
COc1ccc(F)cc1CN=c1ccc(Cc2cncc3cc(OC)c(OC)cc23)c[nH]1

>  <score_type>  (21) 
oracle

>  <origin>  (21) 
adg

>  <m_score__min__energy>  (21) 
-9.1099999999999994

>  <m_primary>  (21) 
energy

$$$$
21:0
     RDKit          3D

 47 49  0  0  0  0  0  0  0  0999 V2000
   55.5550   29.6970   44.8120 O   0  0  0  0  0  0  0  0  0  0  0  0
   56.7550   29.4710   45.1190 C   0  0  0  0  0  0  0  0  0  0  0  0
   57.4040   28.2070   44.6260 C   0  0  0  0  0  0  0  0  0  0  0  0
   56.9980   26.8200   45.6800 S   0  0  0  0  0  0  0  0  0  0  0  0
   57.5240   25.5610   45.0500 O   0  0  0  0  0  0  0  0  0  0  0  0
   55.5050   26.7110   45.8010 O   0  0  0  0  0  0  0  0  0  0  0  0
   57.6830   26.9670   47.2760 N   0  0  0  0  0  0  0  0  0  0  0  0
   59.1220   27.2500   47.2490 C   0  0  0  0  0  0  0  0  0  0  0  0
   59.5490   28.1550   48.3800 C   0  0  0  0  0  0  0  0  0  0  0  0
   60.7270   27.8840   49.0980 C   0  0  0  0  0  0  0  0  0  0  0  0
   61.1080   28.7020   50.1660 C   0  0  0  0  0  0  0  0  0  0  0  0
   60.3000   29.7800   50.5480 C   0  0  0  0  0  0  0  0  0  0  0  0
   60.6550   30.5850   51.6280 O   0  0  0  0  0  0  0  0  0  0  0  0
   59.1220   30.0480   49.8440 C   0  0  0  0  0  0  0  0  0  0  0  0
   58.7440   29.2380   48.7690 C   0  0  0  0  0  0  0  0  0  0  0  0
   57.4250   30.3890   45.9970 N   0  0  0  0  0  0  0  0  0  0  0  0
   57.8600   31.7250   45.6990 C   0  0  0  0  0  0  0  0  0  0  0  0
   56.9510   32.7100   45.2690 C   0  0  0  0  0  0  0  0  0  0  0  0
   57.3920   34.0030   44.9800 C   0  0  0  0  0  0  0  0  0  0  0  0
   58.7350   34.3400   45.1590 C   0  0  0  0  0  0  0  0  0  0  0  0
   59.6330   33.3920   45.6510 C   0  0  0  0  0  0  0  0  0  0  0  0
   59.2010   32.0880   45.9330 C   0  0  0  0  0  0  0  0  0  0  0  0
   60.3620   30.9250   46.6600 S   0  0  0  0  0  0  0  0  0  0  0  0
   61.2870   32.1910   47.5290 C   0  0  0  0  0  0  0  0  0  0  0  0
   62.5800   32.5280   47.1090 C   0  0  0  0  0  0  0  0  0  0  0  0
   63.2810   33.5490   47.7570 C   0  0  0  0  0  0  0  0  0  0  0  0
   62.6930   34.2340   48.8250 C   0  0  0  0  0  0  0  0  0  0  0  0
   61.4020   33.8990   49.2440 C   0  0  0  0  0  0  0  0  0  0  0  0
   60.6980   32.8800   48.5950 C   0  0  0  0  0  0  0  0  0  0  0  0
   57.0522   27.9973   43.6051 H   0  0  0  0  0  0  0  0  0  0  0  0
   58.4950   28.3471   44.6383 H   0  0  0  0  0  0  0  0  0  0  0  0
   59.6710   26.3002   47.3293 H   0  0  0  0  0  0  0  0  0  0  0  0
   59.3463   27.7646   46.3030 H   0  0  0  0  0  0  0  0  0  0  0  0
   61.3525   27.0236   48.8179 H   0  0  0  0  0  0  0  0  0  0  0  0
   62.0439   28.4984   50.7070 H   0  0  0  0  0  0  0  0  0  0  0  0
   61.6160   30.8640   51.7870 H   0  0  0  0  0  0  0  0  0  0  0  0
   58.4902   30.8994   50.1371 H   0  0  0  0  0  0  0  0  0  0  0  0
   57.8116   29.4500   48.2253 H   0  0  0  0  0  0  0  0  0  0  0  0
   55.8855   32.4593   45.1598 H   0  0  0  0  0  0  0  0  0  0  0  0
   56.6807   34.7566   44.6110 H   0  0  0  0  0  0  0  0  0  0  0  0
   59.0853   35.3531   44.9121 H   0  0  0  0  0  0  0  0  0  0  0  0
   60.6844   33.6688   45.8184 H   0  0  0  0  0  0  0  0  0  0  0  0
   63.0437   31.9893   46.2694 H   0  0  0  0  0  0  0  0  0  0  0  0
   64.2962   33.8139   47.4265 H   0  0  0  0  0  0  0  0  0  0  0  0
   63.2462   35.0362   49.3353 H   0  0  0  0  0  0  0  0  0  0  0  0
   60.9398   34.4373   50.0846 H   0  0  0  0  0  0  0  0  0  0  0  0
   59.6806   32.6199   48.9226 H   0  0  0  0  0  0  0  0  0  0  0  0
  1  2  2  0
  2  3  1  0
  3  4  1  0
  4  5  2  0
  4  6  2  0
  4  7  1  0
  7  8  1  0
  8  9  1  0
  9 10  2  0
 10 11  1  0
 11 12  2  0
 12 13  1  0
 12 14  1  0
 14 15  2  0
  2 16  1  0
 16 17  1  0
 17 18  2  0
 18 19  1  0
 19 20  2  0
 20 21  1  0
 21 22  2  0
 22 23  1  0
 23 24  1  0
 24 25  2  0
 25 26  1  0
 26 27  2  0
 27 28  1  0
 28 29  2  0
 15  9  1  0
 22 17  1  0
 29 24  1  0
  3 30  1  0
  3 31  1  0
  8 32  1  0
  8 33  1  0
 10 34  1  0
 11 35  1  0
 13 36  1  0
 14 37  1  0
 15 38  1  0
 18 39  1  0
 19 40  1  0
 20 41  1  0
 21 42  1  0
 25 43  1  0
 26 44  1  0
 27 45  1  0
 28 46  1  0
 29 47  1  0
M  CHG  2   7  -1  16  -1
M  END
>  <UniqueID>  (22) 
20

>  <SMILES>  (22) 
O=C(CS(=O)(=O)[N-]Cc1ccc(O)cc1)[N-]c1ccccc1Sc1ccccc1

>  <Energy>  (22) 
39.41394765867817

>  <Genealogy>  (22) 
O=C(CS(=O)(=O)[N-]Cc1ccc(O)cc1)[N-]c1ccccc1Sc1ccccc1 (protonated)
O=C(CS(=O)(=O)[N-]Cc1ccc(O)cc1)[N-]c1ccccc1Sc1ccccc1 (3D coordinates assigned)
O=C(CS(=O)(=O)[N-]Cc1ccc(O)cc1)[N-]c1ccccc1Sc1ccccc1 (optimized conformer: 39.41394765867817 kcal/mol)

>  <smiles>  (22) 
O=C(CS(=O)(=O)NCc1ccc(O)cc1)Nc1ccccc1Sc1ccccc1

>  <score_type>  (22) 
oracle

>  <origin>  (22) 
adg

>  <m_score__min__energy>  (22) 
-12.609999999999999

>  <m_primary>  (22) 
energy

$$$$
22:0
     RDKit          3D

 40 42  0  0  0  0  0  0  0  0999 V2000
   56.3580   28.9990   43.8310 O   0  0  0  0  0  0  0  0  0  0  0  0
   56.9270   28.9620   44.9530 C   0  0  0  0  0  0  0  0  0  0  0  0
   57.0070   30.1690   45.7220 N   0  0  0  0  0  0  0  0  0  0  0  0
   57.6920   31.3740   45.3430 C   0  0  0  0  0  0  0  0  0  0  0  0
   57.4190   31.9980   44.1120 C   0  0  0  0  0  0  0  0  0  0  0  0
   58.0480   33.1960   43.7700 C   0  0  0  0  0  0  0  0  0  0  0  0
   58.9440   33.7920   44.6560 C   0  0  0  0  0  0  0  0  0  0  0  0
   59.2100   33.1960   45.8900 C   0  0  0  0  0  0  0  0  0  0  0  0
   58.5830   31.9900   46.2510 C   0  0  0  0  0  0  0  0  0  0  0  0
   58.8780   31.3680   47.5630 C   0  0  0  0  0  0  0  0  0  0  0  0
   59.2220   30.1570   47.6120 O   0  0  0  0  0  0  0  0  0  0  0  0
   58.6940   32.1260   48.8480 C   0  0  0  0  0  0  0  0  0  0  0  0
   59.9640   32.7560   49.2450 N   0  0  0  0  0  0  0  0  0  0  0  0
   61.0010   32.7550   48.3510 C   0  0  0  0  0  0  0  0  0  0  0  0
   62.2390   33.3030   48.6930 C   0  0  0  0  0  0  0  0  0  0  0  0
   63.6780   33.2930   47.4370 Br  0  0  0  0  0  0  0  0  0  0  0  0
   62.4180   33.8520   49.9600 C   0  0  0  0  0  0  0  0  0  0  0  0
   61.3640   33.8440   50.8710 C   0  0  0  0  0  0  0  0  0  0  0  0
   60.1350   33.2870   50.5020 C   0  0  0  0  0  0  0  0  0  0  0  0
   59.1930   33.2800   51.3400 O   0  0  0  0  0  0  0  0  0  0  0  0
   57.4290   27.6660   45.4750 C   0  0  0  0  0  0  0  0  0  0  0  0
   58.8120   27.4020   45.4860 C   0  0  0  0  0  0  0  0  0  0  0  0
   59.2970   26.1890   45.9820 C   0  0  0  0  0  0  0  0  0  0  0  0
   58.4120   25.2320   46.4800 C   0  0  0  0  0  0  0  0  0  0  0  0
   57.0390   25.4860   46.4840 C   0  0  0  0  0  0  0  0  0  0  0  0
   56.5430   26.6950   45.9860 C   0  0  0  0  0  0  0  0  0  0  0  0
   55.1690   26.9150   45.9890 O   0  0  0  0  0  0  0  0  0  0  0  0
   56.7043   31.5381   43.4137 H   0  0  0  0  0  0  0  0  0  0  0  0
   57.8365   33.6704   42.8003 H   0  0  0  0  0  0  0  0  0  0  0  0
   59.4424   34.7337   44.3823 H   0  0  0  0  0  0  0  0  0  0  0  0
   59.9157   33.6735   46.5857 H   0  0  0  0  0  0  0  0  0  0  0  0
   57.9296   32.9042   48.7061 H   0  0  0  0  0  0  0  0  0  0  0  0
   58.3736   31.4292   49.6365 H   0  0  0  0  0  0  0  0  0  0  0  0
   60.8573   32.3176   47.3520 H   0  0  0  0  0  0  0  0  0  0  0  0
   63.3873   34.2901   50.2404 H   0  0  0  0  0  0  0  0  0  0  0  0
   61.4975   34.2733   51.8749 H   0  0  0  0  0  0  0  0  0  0  0  0
   59.5152   28.1555   45.1017 H   0  0  0  0  0  0  0  0  0  0  0  0
   60.3785   25.9882   45.9799 H   0  0  0  0  0  0  0  0  0  0  0  0
   58.7959   24.2776   46.8694 H   0  0  0  0  0  0  0  0  0  0  0  0
   56.3440   24.7313   46.8809 H   0  0  0  0  0  0  0  0  0  0  0  0
  1  2  2  0
  2  3  1  0
  3  4  1  0
  4  5  2  0
  5  6  1  0
  6  7  2  0
  7  8  1  0
  8  9  2  0
  9 10  1  0
 10 11  2  0
 10 12  1  0
 12 13  1  0
 13 14  1  0
 14 15  2  0
 15 16  1  0
 15 17  1  0
 17 18  2  0
 18 19  1  0
 19 20  2  0
  2 21  1  0
 21 22  2  0
 22 23  1  0
 23 24  2  0
 24 25  1  0
 25 26  2  0
 26 27  1  0
  9  4  1  0
 19 13  1  0
 26 21  1  0
  5 28  1  0
  6 29  1  0
  7 30  1  0
  8 31  1  0
 12 32  1  0
 12 33  1  0
 14 34  1  0
 17 35  1  0
 18 36  1  0
 22 37  1  0
 23 38  1  0
 24 39  1  0
 25 40  1  0
M  CHG  2   3  -1  27  -1
M  END
>  <UniqueID>  (23) 
21

>  <SMILES>  (23) 
O=C([N-]c1ccccc1C(=O)Cn1cc(Br)ccc1=O)c1ccccc1[O-]

>  <Energy>  (23) 
56.90256007078687

>  <Genealogy>  (23) 
O=C([N-]c1ccccc1C(=O)Cn1cc(Br)ccc1=O)c1ccccc1[O-] (protonated)
O=C([N-]c1ccccc1C(=O)Cn1cc(Br)ccc1=O)c1ccccc1[O-] (3D coordinates assigned)
O=C([N-]c1ccccc1C(=O)Cn1cc(Br)ccc1=O)c1ccccc1[O-] (optimized conformer: 56.90256007078687 kcal/mol)

>  <smiles>  (23) 
O=C(Nc1ccccc1C(=O)Cn1cc(Br)ccc1=O)c1ccccc1O

>  <score_type>  (23) 
oracle

>  <origin>  (23) 
adg

>  <m_score__min__energy>  (23) 
-14.449999999999999

>  <m_primary>  (23) 
energy

$$$$
23:0
     RDKit          3D

 44 45  0  0  0  0  0  0  0  0999 V2000
   56.1150   23.1530   42.9950 C   0  0  0  0  0  0  0  0  0  0  0  0
   56.1640   21.7760   43.5200 N   0  0  0  0  0  0  0  0  0  0  0  0
   57.4160   21.1350   43.0880 C   0  0  0  0  0  0  0  0  0  0  0  0
   56.0680   21.7710   44.9960 C   0  0  0  0  0  0  0  0  0  0  0  0
   57.4640   21.6860   45.6260 C   0  0  0  0  0  0  0  0  0  0  0  0
   57.4320   22.1010   47.0270 N   0  0  0  0  0  0  0  0  0  0  0  0
   56.8990   23.3340   47.5300 C   0  0  0  0  0  0  0  0  0  0  0  0
   56.1850   23.3080   48.5670 O   0  0  0  0  0  0  0  0  0  0  0  0
   57.1900   24.6370   46.8980 C   0  0  0  0  0  0  0  0  0  0  0  0
   57.9580   25.5890   47.5850 C   0  0  0  0  0  0  0  0  0  0  0  0
   58.2700   26.8110   46.9820 C   0  0  0  0  0  0  0  0  0  0  0  0
   57.8180   27.1000   45.6890 C   0  0  0  0  0  0  0  0  0  0  0  0
   58.1910   28.3500   45.0950 N   0  0  0  0  0  0  0  0  0  0  0  0
   57.0730   29.5440   44.5180 S   0  0  0  0  0  0  0  0  0  0  0  0
   55.7580   29.3740   45.2230 O   0  0  0  0  0  0  0  0  0  0  0  0
   56.8610   29.3550   43.0420 O   0  0  0  0  0  0  0  0  0  0  0  0
   57.7010   31.1520   44.8670 C   0  0  0  0  0  0  0  0  0  0  0  0
   57.7500   32.1370   43.8700 C   0  0  0  0  0  0  0  0  0  0  0  0
   58.2740   33.4010   44.1550 C   0  0  0  0  0  0  0  0  0  0  0  0
   58.7490   33.6900   45.4410 C   0  0  0  0  0  0  0  0  0  0  0  0
   59.2960   34.9890   45.7330 C   0  0  0  0  0  0  0  0  0  0  0  0
   59.7350   36.0330   45.9670 N   0  0  0  0  0  0  0  0  0  0  0  0
   58.6960   32.7100   46.4390 C   0  0  0  0  0  0  0  0  0  0  0  0
   58.1770   31.4450   46.1530 C   0  0  0  0  0  0  0  0  0  0  0  0
   57.0140   26.1630   45.0160 C   0  0  0  0  0  0  0  0  0  0  0  0
   56.6950   24.9450   45.6230 C   0  0  0  0  0  0  0  0  0  0  0  0
   56.0897   23.8644   43.8336 H   0  0  0  0  0  0  0  0  0  0  0  0
   57.0070   23.3428   42.3799 H   0  0  0  0  0  0  0  0  0  0  0  0
   55.2118   23.2790   42.3799 H   0  0  0  0  0  0  0  0  0  0  0  0
   57.9990   20.8365   43.9717 H   0  0  0  0  0  0  0  0  0  0  0  0
   57.1832   20.2452   42.4847 H   0  0  0  0  0  0  0  0  0  0  0  0
   58.0018   21.8441   42.4847 H   0  0  0  0  0  0  0  0  0  0  0  0
   55.5762   22.6966   45.3297 H   0  0  0  0  0  0  0  0  0  0  0  0
   55.4821   20.8949   45.3110 H   0  0  0  0  0  0  0  0  0  0  0  0
   57.8231   20.6480   45.5663 H   0  0  0  0  0  0  0  0  0  0  0  0
   58.1384   22.3590   45.0762 H   0  0  0  0  0  0  0  0  0  0  0  0
   58.3162   25.3730   48.6024 H   0  0  0  0  0  0  0  0  0  0  0  0
   58.8748   27.5505   47.5273 H   0  0  0  0  0  0  0  0  0  0  0  0
   57.3748   31.9141   42.8603 H   0  0  0  0  0  0  0  0  0  0  0  0
   58.3135   34.1695   43.3690 H   0  0  0  0  0  0  0  0  0  0  0  0
   59.0638   32.9364   47.4506 H   0  0  0  0  0  0  0  0  0  0  0  0
   58.1416   30.6763   46.9391 H   0  0  0  0  0  0  0  0  0  0  0  0
   56.6348   26.3893   44.0085 H   0  0  0  0  0  0  0  0  0  0  0  0
   56.0518   24.2239   45.0973 H   0  0  0  0  0  0  0  0  0  0  0  0
  1  2  1  0
  2  3  1  0
  2  4  1  0
  4  5  1  0
  5  6  1  0
  6  7  1  0
  7  8  2  0
  7  9  1  0
  9 10  2  0
 10 11  1  0
 11 12  2  0
 12 13  1  0
 13 14  1  0
 14 15  2  0
 14 16  2  0
 14 17  1  0
 17 18  2  0
 18 19  1  0
 19 20  2  0
 20 21  1  0
 21 22  3  0
 20 23  1  0
 23 24  2  0
 12 25  1  0
 25 26  2  0
 26  9  1  0
 24 17  1  0
  1 27  1  0
  1 28  1  0
  1 29  1  0
  3 30  1  0
  3 31  1  0
  3 32  1  0
  4 33  1  0
  4 34  1  0
  5 35  1  0
  5 36  1  0
 10 37  1  0
 11 38  1  0
 18 39  1  0
 19 40  1  0
 23 41  1  0
 24 42  1  0
 25 43  1  0
 26 44  1  0
M  CHG  2   6  -1  13  -1
M  END
>  <UniqueID>  (24) 
22

>  <SMILES>  (24) 
CN(C)CC[N-]C(=O)c1ccc([N-]S(=O)(=O)c2ccc(C#N)cc2)cc1

>  <Energy>  (24) 
46.31225427345722

>  <Genealogy>  (24) 
CN(C)CC[N-]C(=O)c1ccc([N-]S(=O)(=O)c2ccc(C#N)cc2)cc1 (protonated)
CN(C)CC[N-]C(=O)c1ccc([N-]S(=O)(=O)c2ccc(C#N)cc2)cc1 (3D coordinates assigned)
CN(C)CC[N-]C(=O)c1ccc([N-]S(=O)(=O)c2ccc(C#N)cc2)cc1 (optimized conformer: 46.31225427345722 kcal/mol)

>  <smiles>  (24) 
CN(C)CCNC(=O)c1ccc(NS(=O)(=O)c2ccc(C#N)cc2)cc1

>  <score_type>  (24) 
oracle

>  <origin>  (24) 
adg

>  <m_score__min__energy>  (24) 
-10.68

>  <m_primary>  (24) 
energy

$$$$
24:0
     RDKit          3D

 52 55  0  0  0  0  0  0  0  0999 V2000
   58.5460   31.3540   45.1920 N   0  0  0  0  0  0  0  0  0  0  0  0
   57.8750   32.3780   45.9280 C   0  0  0  0  0  0  0  0  0  0  0  0
   56.7360   32.7660   45.5470 O   0  0  0  0  0  0  0  0  0  0  0  0
   58.4710   32.9530   47.1510 C   0  0  0  0  0  0  0  0  0  0  0  0
   58.1610   32.3720   48.3920 C   0  0  0  0  0  0  0  0  0  0  0  0
   58.7340   32.8610   49.5790 C   0  0  0  0  0  0  0  0  0  0  0  0
   58.3870   32.2660   50.8890 C   0  0  0  0  0  0  0  0  0  0  0  0
   57.0740   32.2290   51.2410 N   0  0  0  0  0  0  0  0  0  0  0  0
   56.6520   31.6280   52.3850 C   0  0  0  0  0  0  0  0  0  0  0  0
   55.3910   31.5910   52.7060 N   0  0  0  0  0  0  0  0  0  0  0  0
   54.3720   30.7760   52.1030 C   0  0  0  0  0  0  0  0  0  0  0  0
   54.6590   29.8790   51.2630 O   0  0  0  0  0  0  0  0  0  0  0  0
   52.9390   31.0380   52.4380 C   0  0  0  0  0  0  0  0  0  0  0  0
   52.1310   31.1720   51.1840 C   0  0  0  0  0  0  0  0  0  0  0  0
   52.1490   30.2850   50.1730 N   0  0  0  0  0  0  0  0  0  0  0  0
   51.3020   30.8280   49.2700 C   0  0  0  0  0  0  0  0  0  0  0  0
   51.0420   30.2760   48.1690 O   0  0  0  0  0  0  0  0  0  0  0  0
   50.7540   32.0060   49.6410 N   0  0  0  0  0  0  0  0  0  0  0  0
   51.2930   32.2110   50.8540 C   0  0  0  0  0  0  0  0  0  0  0  0
   51.0230   33.3230   51.6420 O   0  0  0  0  0  0  0  0  0  0  0  0
   57.5580   31.0330   53.2010 N   0  0  0  0  0  0  0  0  0  0  0  0
   58.8830   31.0470   52.9110 C   0  0  0  0  0  0  0  0  0  0  0  0
   59.3500   31.6870   51.7540 C   0  0  0  0  0  0  0  0  0  0  0  0
   60.8070   31.7730   51.5130 C   0  0  0  0  0  0  0  0  0  0  0  0
   61.4280   32.8480   51.7400 O   0  0  0  0  0  0  0  0  0  0  0  0
   61.5190   30.6250   51.0350 N   0  0  0  0  0  0  0  0  0  0  0  0
   62.8700   30.6860   50.4900 C   0  0  0  0  0  0  0  0  0  0  0  0
   62.9080   31.6060   49.3000 C   0  0  0  0  0  0  0  0  0  0  0  0
   62.0510   31.3810   48.2100 C   0  0  0  0  0  0  0  0  0  0  0  0
   62.0570   32.2540   47.1180 C   0  0  0  0  0  0  0  0  0  0  0  0
   62.9210   33.3510   47.1020 C   0  0  0  0  0  0  0  0  0  0  0  0
   63.7760   33.5840   48.1840 C   0  0  0  0  0  0  0  0  0  0  0  0
   63.7660   32.7200   49.2830 C   0  0  0  0  0  0  0  0  0  0  0  0
   59.5780   33.9780   49.5220 C   0  0  0  0  0  0  0  0  0  0  0  0
   59.8690   34.5810   48.2970 C   0  0  0  0  0  0  0  0  0  0  0  0
   59.3250   34.0770   47.1100 C   0  0  0  0  0  0  0  0  0  0  0  0
   59.6640   34.9460   45.6150 Cl  0  0  0  0  0  0  0  0  0  0  0  0
   59.4200   30.9160   45.5560 H   0  0  0  0  0  0  0  0  0  0  0  0
   58.1160   30.9610   44.3270 H   0  0  0  0  0  0  0  0  0  0  0  0
   57.4615   31.5242   48.4354 H   0  0  0  0  0  0  0  0  0  0  0  0
   52.5467   30.2018   53.0354 H   0  0  0  0  0  0  0  0  0  0  0  0
   52.8697   31.9741   53.0115 H   0  0  0  0  0  0  0  0  0  0  0  0
   59.5958   30.5531   53.5878 H   0  0  0  0  0  0  0  0  0  0  0  0
   63.5570   31.0621   51.2624 H   0  0  0  0  0  0  0  0  0  0  0  0
   63.1762   29.6776   50.1746 H   0  0  0  0  0  0  0  0  0  0  0  0
   61.3728   30.5149   48.2156 H   0  0  0  0  0  0  0  0  0  0  0  0
   61.3797   32.0764   46.2696 H   0  0  0  0  0  0  0  0  0  0  0  0
   62.9291   34.0320   46.2382 H   0  0  0  0  0  0  0  0  0  0  0  0
   64.4569   34.4478   48.1703 H   0  0  0  0  0  0  0  0  0  0  0  0
   64.4316   32.9123   50.1374 H   0  0  0  0  0  0  0  0  0  0  0  0
   60.0137   34.3820   50.4477 H   0  0  0  0  0  0  0  0  0  0  0  0
   60.5309   35.4590   48.2644 H   0  0  0  0  0  0  0  0  0  0  0  0
  1  2  1  0
  2  3  2  0
  2  4  1  0
  4  5  2  0
  5  6  1  0
  6  7  1  0
  7  8  2  0
  8  9  1  0
  9 10  2  3
 10 11  1  0
 11 12  2  0
 11 13  1  0
 13 14  1  0
 14 15  1  0
 15 16  1  0
 16 17  2  0
 16 18  1  0
 18 19  1  0
 19 20  1  0
  9 21  1  0
 21 22  1  0
 22 23  2  0
 23 24  1  0
 24 25  2  0
 24 26  1  0
 26 27  1  0
 27 28  1  0
 28 29  2  0
 29 30  1  0
 30 31  2  0
 31 32  1  0
 32 33  2  0
  6 34  2  0
 34 35  1  0
 35 36  2  0
 36 37  1  0
 36  4  1  0
 23  7  1  0
 33 28  1  0
 19 14  2  0
  1 38  1  0
  1 39  1  0
  5 40  1  0
 13 41  1  0
 13 42  1  0
 22 43  1  0
 27 44  1  0
 27 45  1  0
 29 46  1  0
 30 47  1  0
 31 48  1  0
 32 49  1  0
 33 50  1  0
 34 51  1  0
 35 52  1  0
M  CHG  5  15  -1  18  -1  20  -1  21  -1  26  -1
M  END
>  <UniqueID>  (25) 
23

>  <SMILES>  (25) 
NC(=O)c1cc(-c2nc(=NC(=O)Cc3[n-]c(=O)[n-]c3[O-])[n-]cc2C(=O)[N-]Cc2ccccc2)ccc1Cl

>  <Energy>  (25) 
96.37976895524184

>  <Genealogy>  (25) 
NC(=O)c1cc(-c2nc(=NC(=O)Cc3[n-]c(=O)[n-]c3[O-])[n-]cc2C(=O)[N-]Cc2ccccc2)ccc1Cl (protonated)
NC(=O)c1cc(-c2nc(=NC(=O)Cc3[n-]c(=O)[n-]c3[O-])[n-]cc2C(=O)[N-]Cc2ccccc2)ccc1Cl (3D coordinates assigned)
NC(=O)c1cc(-c2nc(=NC(=O)Cc3[n-]c(=O)[n-]c3[O-])[n-]cc2C(=O)[N-]Cc2ccccc2)ccc1Cl (optimized conformer: 96.37976895524184 kcal/mol)

>  <smiles>  (25) 
NC(=O)c1cc(-c2nc(=NC(=O)Cc3[nH]c(=O)[nH]c3O)[nH]cc2C(=O)NCc2ccccc2)ccc1Cl

>  <score_type>  (25) 
oracle

>  <origin>  (25) 
adg

>  <m_score__min__energy>  (25) 
-21.460000000000001

>  <m_primary>  (25) 
energy

$$$$
25:0
     RDKit          3D

 37 39  0  0  0  0  0  0  0  0999 V2000
   54.5830   29.2250   52.2750 O   0  0  0  0  0  0  0  0  0  0  0  0
   54.7000   30.4240   51.9090 C   0  0  0  0  0  0  0  0  0  0  0  0
   53.5240   31.1700   51.5750 N   0  0  0  0  0  0  0  0  0  0  0  0
   52.4400   31.3510   52.2800 C   0  0  0  0  0  0  0  0  0  0  0  0
   52.2970   30.6130   53.4160 N   0  0  0  0  0  0  0  0  0  0  0  0
   51.2180   30.7270   54.2340 C   0  0  0  0  0  0  0  0  0  0  0  0
   50.1980   31.6220   53.9220 C   0  0  0  0  0  0  0  0  0  0  0  0
   50.2870   32.3740   52.7520 C   0  0  0  0  0  0  0  0  0  0  0  0
   51.3940   32.2350   51.9080 C   0  0  0  0  0  0  0  0  0  0  0  0
   51.3960   32.9310   50.7060 O   0  0  0  0  0  0  0  0  0  0  0  0
   55.9800   31.0670   51.9440 N   0  0  0  0  0  0  0  0  0  0  0  0
   57.2470   30.3460   51.9380 C   0  0  0  0  0  0  0  0  0  0  0  0
   57.9490   30.5420   50.6270 C   0  0  0  0  0  0  0  0  0  0  0  0
   58.2700   31.8200   50.1570 C   0  0  0  0  0  0  0  0  0  0  0  0
   58.8780   31.9560   48.9510 N   0  0  0  0  0  0  0  0  0  0  0  0
   59.1920   30.8750   48.1900 C   0  0  0  0  0  0  0  0  0  0  0  0
   58.8820   29.5820   48.6600 C   0  0  0  0  0  0  0  0  0  0  0  0
   59.1400   28.5020   47.9770 N   0  0  0  0  0  0  0  0  0  0  0  0
   58.2930   27.8790   47.0000 C   0  0  0  0  0  0  0  0  0  0  0  0
   58.2300   26.6220   46.9610 O   0  0  0  0  0  0  0  0  0  0  0  0
   57.5650   28.6700   45.9910 C   0  0  0  0  0  0  0  0  0  0  0  0
   58.0620   29.7700   45.3120 C   0  0  0  0  0  0  0  0  0  0  0  0
   57.0630   30.1800   44.4580 C   0  0  0  0  0  0  0  0  0  0  0  0
   56.0180   29.3040   44.6590 C   0  0  0  0  0  0  0  0  0  0  0  0
   54.7980   29.3510   43.9930 O   0  0  0  0  0  0  0  0  0  0  0  0
   56.3110   28.3760   45.5890 N   0  0  0  0  0  0  0  0  0  0  0  0
   58.2570   29.4600   49.8610 N   0  0  0  0  0  0  0  0  0  0  0  0
   51.1503   30.1118   55.1433 H   0  0  0  0  0  0  0  0  0  0  0  0
   49.3321   31.7342   54.5911 H   0  0  0  0  0  0  0  0  0  0  0  0
   49.4841   33.0792   52.4913 H   0  0  0  0  0  0  0  0  0  0  0  0
   57.8840   30.7241   52.7512 H   0  0  0  0  0  0  0  0  0  0  0  0
   57.0500   29.2735   52.0826 H   0  0  0  0  0  0  0  0  0  0  0  0
   58.0314   32.7082   50.7604 H   0  0  0  0  0  0  0  0  0  0  0  0
   59.6841   31.0074   47.2151 H   0  0  0  0  0  0  0  0  0  0  0  0
   59.0563   30.2252   45.4312 H   0  0  0  0  0  0  0  0  0  0  0  0
   57.0926   31.0299   43.7603 H   0  0  0  0  0  0  0  0  0  0  0  0
   54.7210   29.0500   43.0290 H   0  0  0  0  0  0  0  0  0  0  0  0
  1  2  2  0
  2  3  1  0
  3  4  2  3
  4  5  1  0
  5  6  1  0
  6  7  2  0
  7  8  1  0
  8  9  2  0
  9 10  1  0
  2 11  1  0
 11 12  1  0
 12 13  1  0
 13 14  2  0
 14 15  1  0
 15 16  2  0
 16 17  1  0
 17 18  2  3
 18 19  1  0
 19 20  2  0
 19 21  1  0
 21 22  2  0
 22 23  1  0
 23 24  2  0
 24 25  1  0
 24 26  1  0
 17 27  1  0
  9  4  1  0
 27 13  1  0
 26 21  1  0
  6 28  1  0
  7 29  1  0
  8 30  1  0
 12 31  1  0
 12 32  1  0
 14 33  1  0
 16 34  1  0
 22 35  1  0
 23 36  1  0
 25 37  1  0
M  CHG  5   5  -1  10  -1  11  -1  26  -1  27  -1
M  END
>  <UniqueID>  (26) 
24

>  <SMILES>  (26) 
O=C(N=c1[n-]cccc1[O-])[N-]Cc1cncc(=NC(=O)c2ccc(O)[n-]2)[n-]1

>  <Energy>  (26) 
85.03033793211804

>  <Genealogy>  (26) 
O=C(N=c1[n-]cccc1[O-])[N-]Cc1cncc(=NC(=O)c2ccc(O)[n-]2)[n-]1 (protonated)
O=C(N=c1[n-]cccc1[O-])[N-]Cc1cncc(=NC(=O)c2ccc(O)[n-]2)[n-]1 (3D coordinates assigned)
O=C(N=c1[n-]cccc1[O-])[N-]Cc1cncc(=NC(=O)c2ccc(O)[n-]2)[n-]1 (optimized conformer: 85.03033793211804 kcal/mol)

>  <smiles>  (26) 
O=C(N=c1[nH]cccc1O)NCc1cncc(=NC(=O)c2ccc(O)[nH]2)[nH]1

>  <score_type>  (26) 
oracle

>  <origin>  (26) 
adg

>  <m_score__min__energy>  (26) 
-16.149999999999999

>  <m_primary>  (26) 
energy

$$$$
26:0
     RDKit          3D

 36 37  0  0  0  0  0  0  0  0999 V2000
   58.2320   27.4520   43.3510 C   0  0  0  0  0  0  0  0  0  0  0  0
   57.6530   28.5300   44.2320 C   0  0  0  0  0  0  0  0  0  0  0  0
   57.1330   28.2470   45.4420 C   0  0  0  0  0  0  0  0  0  0  0  0
   57.2070   26.9120   46.0700 C   0  0  0  0  0  0  0  0  0  0  0  0
   56.0350   26.1830   46.3160 C   0  0  0  0  0  0  0  0  0  0  0  0
   54.7910   26.7140   45.9960 O   0  0  0  0  0  0  0  0  0  0  0  0
   56.1090   24.9490   46.8800 N   0  0  0  0  0  0  0  0  0  0  0  0
   57.3070   24.3970   47.2030 C   0  0  0  0  0  0  0  0  0  0  0  0
   57.3500   23.2540   47.7270 O   0  0  0  0  0  0  0  0  0  0  0  0
   58.4570   25.0740   46.9540 N   0  0  0  0  0  0  0  0  0  0  0  0
   58.4360   26.3090   46.3910 C   0  0  0  0  0  0  0  0  0  0  0  0
   59.5240   26.8960   46.1480 O   0  0  0  0  0  0  0  0  0  0  0  0
   57.7110   29.9710   43.7730 C   0  0  0  0  0  0  0  0  0  0  0  0
   56.7500   30.8690   44.5660 C   0  0  0  0  0  0  0  0  0  0  0  0
   57.4750   32.0180   45.2200 C   0  0  0  0  0  0  0  0  0  0  0  0
   57.4830   33.2830   44.6200 C   0  0  0  0  0  0  0  0  0  0  0  0
   58.1940   34.3340   45.2010 C   0  0  0  0  0  0  0  0  0  0  0  0
   58.9120   34.1430   46.3910 C   0  0  0  0  0  0  0  0  0  0  0  0
   59.6200   35.2580   46.9530 N   0  0  0  0  0  0  0  0  0  0  0  0
   58.9130   32.8630   46.9980 C   0  0  0  0  0  0  0  0  0  0  0  0
   59.6120   32.5820   48.1750 O   0  0  0  0  0  0  0  0  0  0  0  0
   58.1950   31.8160   46.4060 C   0  0  0  0  0  0  0  0  0  0  0  0
   58.6595   26.6560   43.9784 H   0  0  0  0  0  0  0  0  0  0  0  0
   57.4382   27.0318   42.7159 H   0  0  0  0  0  0  0  0  0  0  0  0
   59.0207   27.8817   42.7159 H   0  0  0  0  0  0  0  0  0  0  0  0
   56.6260   29.0535   45.9920 H   0  0  0  0  0  0  0  0  0  0  0  0
   58.7370   30.3447   43.9062 H   0  0  0  0  0  0  0  0  0  0  0  0
   57.4090   30.0022   42.7157 H   0  0  0  0  0  0  0  0  0  0  0  0
   55.9895   31.2709   43.8804 H   0  0  0  0  0  0  0  0  0  0  0  0
   56.2852   30.2614   45.3564 H   0  0  0  0  0  0  0  0  0  0  0  0
   56.9261   33.4493   43.6861 H   0  0  0  0  0  0  0  0  0  0  0  0
   58.1914   35.3234   44.7204 H   0  0  0  0  0  0  0  0  0  0  0  0
   60.5860   35.1870   47.3330 H   0  0  0  0  0  0  0  0  0  0  0  0
   59.1610   36.1940   47.0150 H   0  0  0  0  0  0  0  0  0  0  0  0
   60.6110   32.6860   48.2800 H   0  0  0  0  0  0  0  0  0  0  0  0
   58.1961   30.8223   46.8778 H   0  0  0  0  0  0  0  0  0  0  0  0
  1  2  1  0
  2  3  2  3
  3  4  1  0
  4  5  2  0
  5  6  1  0
  5  7  1  0
  7  8  1  0
  8  9  2  0
  8 10  1  0
 10 11  1  0
 11 12  2  0
  2 13  1  0
 13 14  1  0
 14 15  1  0
 15 16  2  0
 16 17  1  0
 17 18  2  0
 18 19  1  0
 18 20  1  0
 20 21  1  0
 20 22  2  0
 11  4  1  0
 22 15  1  0
  1 23  1  0
  1 24  1  0
  1 25  1  0
  3 26  1  0
 13 27  1  0
 13 28  1  0
 14 29  1  0
 14 30  1  0
 16 31  1  0
 17 32  1  0
 19 33  1  0
 19 34  1  0
 21 35  1  0
 22 36  1  0
M  CHG  3   6  -1   7  -1  10  -1
M  END
>  <UniqueID>  (27) 
25

>  <SMILES>  (27) 
CC(=Cc1c([O-])[n-]c(=O)[n-]c1=O)CCc1ccc(N)c(O)c1

>  <Energy>  (27) 
41.30683373199241

>  <Genealogy>  (27) 
CC(=Cc1c([O-])[n-]c(=O)[n-]c1=O)CCc1ccc(N)c(O)c1 (protonated)
CC(=Cc1c([O-])[n-]c(=O)[n-]c1=O)CCc1ccc(N)c(O)c1 (3D coordinates assigned)
CC(=Cc1c([O-])[n-]c(=O)[n-]c1=O)CCc1ccc(N)c(O)c1 (optimized conformer: 41.30683373199241 kcal/mol)

>  <smiles>  (27) 
CC(=Cc1c(O)[nH]c(=O)[nH]c1=O)CCc1ccc(N)c(O)c1

>  <score_type>  (27) 
oracle

>  <origin>  (27) 
adg

>  <m_score__min__energy>  (27) 
-14.51

>  <m_primary>  (27) 
energy

$$$$
27:0
     RDKit          3D

 52 55  0  0  0  0  0  0  0  0999 V2000
   60.3130   27.9100   46.6020 O   0  0  0  0  0  0  0  0  0  0  0  0
   59.3080   28.5110   47.0710 C   0  0  0  0  0  0  0  0  0  0  0  0
   59.2910   28.8920   48.4580 N   0  0  0  0  0  0  0  0  0  0  0  0
   60.1950   28.3460   49.4330 C   0  0  0  0  0  0  0  0  0  0  0  0
   60.3940   26.9560   49.5180 C   0  0  0  0  0  0  0  0  0  0  0  0
   61.2200   26.4170   50.5070 C   0  0  0  0  0  0  0  0  0  0  0  0
   61.8480   27.2570   51.4280 C   0  0  0  0  0  0  0  0  0  0  0  0
   61.6520   28.6380   51.3610 C   0  0  0  0  0  0  0  0  0  0  0  0
   60.8310   29.1920   50.3680 C   0  0  0  0  0  0  0  0  0  0  0  0
   60.6820   30.6180   50.2970 N   0  0  0  0  0  0  0  0  0  0  0  0
   59.4620   31.2540   50.8110 C   0  0  0  0  0  0  0  0  0  0  0  0
   59.0100   32.4290   49.9170 C   0  0  0  0  0  0  0  0  0  0  0  0
   60.0870   32.9370   49.0380 N   0  0  0  0  0  0  0  0  0  0  0  0
   59.7710   34.2410   48.4150 C   0  0  0  0  0  0  0  0  0  0  0  0
   59.0200   34.1320   47.1030 C   0  0  0  0  0  0  0  0  0  0  0  0
   59.6010   34.5930   45.9080 C   0  0  0  0  0  0  0  0  0  0  0  0
   58.9070   34.4880   44.6990 C   0  0  0  0  0  0  0  0  0  0  0  0
   57.6330   33.9140   44.6690 C   0  0  0  0  0  0  0  0  0  0  0  0
   57.0550   33.4370   45.8480 C   0  0  0  0  0  0  0  0  0  0  0  0
   57.7450   33.5410   47.0590 C   0  0  0  0  0  0  0  0  0  0  0  0
   61.4090   32.8940   49.6820 C   0  0  0  0  0  0  0  0  0  0  0  0
   61.8190   31.4310   49.8520 C   0  0  0  0  0  0  0  0  0  0  0  0
   58.1810   28.8540   46.1720 C   0  0  0  0  0  0  0  0  0  0  0  0
   58.1820   30.0410   45.4190 C   0  0  0  0  0  0  0  0  0  0  0  0
   57.1050   30.3430   44.5820 C   0  0  0  0  0  0  0  0  0  0  0  0
   56.0270   29.4590   44.5070 C   0  0  0  0  0  0  0  0  0  0  0  0
   55.0490   29.7160   43.7570 O   0  0  0  0  0  0  0  0  0  0  0  0
   56.0320   28.3190   45.2460 N   0  0  0  0  0  0  0  0  0  0  0  0
   57.0680   28.0020   46.0680 C   0  0  0  0  0  0  0  0  0  0  0  0
   58.6640   29.6730   48.7520 H   0  0  0  0  0  0  0  0  0  0  0  0
   59.8952   26.2884   48.8000 H   0  0  0  0  0  0  0  0  0  0  0  0
   61.3758   25.3294   50.5601 H   0  0  0  0  0  0  0  0  0  0  0  0
   62.4975   26.8310   52.2069 H   0  0  0  0  0  0  0  0  0  0  0  0
   62.1449   29.2958   52.0920 H   0  0  0  0  0  0  0  0  0  0  0  0
   58.6578   30.5044   50.8481 H   0  0  0  0  0  0  0  0  0  0  0  0
   59.6785   31.6501   51.8141 H   0  0  0  0  0  0  0  0  0  0  0  0
   58.1751   32.0885   49.2869 H   0  0  0  0  0  0  0  0  0  0  0  0
   58.7138   33.2530   50.5829 H   0  0  0  0  0  0  0  0  0  0  0  0
   59.1553   34.8204   49.1188 H   0  0  0  0  0  0  0  0  0  0  0  0
   60.7317   34.7281   48.1920 H   0  0  0  0  0  0  0  0  0  0  0  0
   60.6066   35.0384   45.9248 H   0  0  0  0  0  0  0  0  0  0  0  0
   59.3645   34.8578   43.7695 H   0  0  0  0  0  0  0  0  0  0  0  0
   57.0858   33.8379   43.7178 H   0  0  0  0  0  0  0  0  0  0  0  0
   56.0553   32.9788   45.8232 H   0  0  0  0  0  0  0  0  0  0  0  0
   57.2878   33.1581   47.9833 H   0  0  0  0  0  0  0  0  0  0  0  0
   62.1454   33.4149   49.0524 H   0  0  0  0  0  0  0  0  0  0  0  0
   61.3664   33.3897   50.6631 H   0  0  0  0  0  0  0  0  0  0  0  0
   62.1831   31.0446   48.8886 H   0  0  0  0  0  0  0  0  0  0  0  0
   62.6115   31.3738   50.6127 H   0  0  0  0  0  0  0  0  0  0  0  0
   59.0333   30.7341   45.4890 H   0  0  0  0  0  0  0  0  0  0  0  0
   57.1063   31.2686   43.9876 H   0  0  0  0  0  0  0  0  0  0  0  0
   57.0347   27.0726   46.6554 H   0  0  0  0  0  0  0  0  0  0  0  0
  1  2  2  0
  2  3  1  0
  3  4  1  0
  4  5  2  0
  5  6  1  0
  6  7  2  0
  7  8  1  0
  8  9  2  0
  9 10  1  0
 10 11  1  0
 11 12  1  0
 12 13  1  0
 13 14  1  0
 14 15  1  0
 15 16  2  0
 16 17  1  0
 17 18  2  0
 18 19  1  0
 19 20  2  0
 13 21  1  0
 21 22  1  0
  2 23  1  0
 23 24  1  0
 24 25  2  0
 25 26  1  0
 26 27  2  0
 26 28  1  0
 28 29  1  0
  9  4  1  0
 22 10  1  0
 29 23  2  0
 20 15  1  0
  3 30  1  0
  5 31  1  0
  6 32  1  0
  7 33  1  0
  8 34  1  0
 11 35  1  0
 11 36  1  0
 12 37  1  0
 12 38  1  0
 14 39  1  0
 14 40  1  0
 16 41  1  0
 17 42  1  0
 18 43  1  0
 19 44  1  0
 20 45  1  0
 21 46  1  0
 21 47  1  0
 22 48  1  0
 22 49  1  0
 24 50  1  0
 25 51  1  0
 29 52  1  0
M  CHG  1  28  -1
M  END
>  <UniqueID>  (28) 
26

>  <SMILES>  (28) 
O=C(Nc1ccccc1N1CCN(Cc2ccccc2)CC1)c1ccc(=O)[n-]c1

>  <Energy>  (28) 
75.56214613463476

>  <Genealogy>  (28) 
O=C(Nc1ccccc1N1CCN(Cc2ccccc2)CC1)c1ccc(=O)[n-]c1 (protonated)
O=C(Nc1ccccc1N1CCN(Cc2ccccc2)CC1)c1ccc(=O)[n-]c1 (3D coordinates assigned)
O=C(Nc1ccccc1N1CCN(Cc2ccccc2)CC1)c1ccc(=O)[n-]c1 (nonaromatic ring conformer: 75.56214613463476 kcal/mol)

>  <smiles>  (28) 
O=C(Nc1ccccc1N1CCN(Cc2ccccc2)CC1)c1ccc(=O)[nH]c1

>  <score_type>  (28) 
oracle

>  <origin>  (28) 
adg

>  <m_score__min__energy>  (28) 
-11.140000000000001

>  <m_primary>  (28) 
energy

$$$$
28:0
     RDKit          3D

 33 35  0  0  0  0  0  0  0  0999 V2000
   56.8476   24.8684   44.7752 H   0  0  0  0  0  0  0  0  0  0  0  0
   56.6840   25.4840   45.6720 C   0  0  0  0  0  0  0  0  0  0  0  0
   55.8550   25.0990   46.5360 O   0  0  0  0  0  0  0  0  0  0  0  0
   57.4450   26.7430   45.8300 C   0  0  0  0  0  0  0  0  0  0  0  0
   58.7870   26.6690   46.2370 C   0  0  0  0  0  0  0  0  0  0  0  0
   59.2483   25.6868   46.4172 H   0  0  0  0  0  0  0  0  0  0  0  0
   59.5410   27.8300   46.4150 C   0  0  0  0  0  0  0  0  0  0  0  0
   60.5873   27.7591   46.7469 H   0  0  0  0  0  0  0  0  0  0  0  0
   58.9710   29.0800   46.1730 C   0  0  0  0  0  0  0  0  0  0  0  0
   59.5645   29.9927   46.3302 H   0  0  0  0  0  0  0  0  0  0  0  0
   57.6470   29.1770   45.7310 C   0  0  0  0  0  0  0  0  0  0  0  0
   57.0770   30.4770   45.5250 N   0  0  0  0  0  0  0  0  0  0  0  0
   57.5560   31.5200   44.8940 C   0  0  0  0  0  0  0  0  0  0  0  0
   57.4700   31.4880   43.4960 C   0  0  0  0  0  0  0  0  0  0  0  0
   56.8897   30.6933   43.0043 H   0  0  0  0  0  0  0  0  0  0  0  0
   58.1130   32.4540   42.7210 C   0  0  0  0  0  0  0  0  0  0  0  0
   58.0930   32.3640   41.2280 C   0  0  0  0  0  0  0  0  0  0  0  0
   57.8635   31.3315   40.9260 H   0  0  0  0  0  0  0  0  0  0  0  0
   57.3236   33.0420   40.8301 H   0  0  0  0  0  0  0  0  0  0  0  0
   59.0771   32.6523   40.8301 H   0  0  0  0  0  0  0  0  0  0  0  0
   58.8180   33.4420   43.3250 N   0  0  0  0  0  0  0  0  0  0  0  0
   58.8710   33.5700   44.6760 C   0  0  0  0  0  0  0  0  0  0  0  0
   59.5660   34.6540   45.2260 C   0  0  0  0  0  0  0  0  0  0  0  0
   60.1274   35.3350   44.5695 H   0  0  0  0  0  0  0  0  0  0  0  0
   59.5490   34.8730   46.6010 C   0  0  0  0  0  0  0  0  0  0  0  0
   60.1191   35.7093   47.0318 H   0  0  0  0  0  0  0  0  0  0  0  0
   58.8100   34.0330   47.4310 C   0  0  0  0  0  0  0  0  0  0  0  0
   58.7697   34.2295   48.5126 H   0  0  0  0  0  0  0  0  0  0  0  0
   58.1190   32.9410   46.8960 C   0  0  0  0  0  0  0  0  0  0  0  0
   57.5099   32.3068   47.5569 H   0  0  0  0  0  0  0  0  0  0  0  0
   58.1940   32.6420   45.5140 C   0  0  0  0  0  0  0  0  0  0  0  0
   56.8680   28.0110   45.5940 C   0  0  0  0  0  0  0  0  0  0  0  0
   55.5270   28.1240   45.2350 O   0  0  0  0  0  0  0  0  0  0  0  0
  1  2  1  0
  2  3  2  0
  2  4  1  0
  4  5  2  0
  5  6  1  0
  5  7  1  0
  7  8  1  0
  7  9  2  0
  9 10  1  0
  9 11  1  0
 11 12  1  0
 12 13  2  0
 13 14  1  0
 14 15  1  0
 14 16  2  0
 16 17  1  0
 17 18  1  0
 17 19  1  0
 17 20  1  0
 16 21  1  0
 21 22  1  0
 22 23  2  0
 23 24  1  0
 23 25  1  0
 25 26  1  0
 25 27  2  0
 27 28  1  0
 27 29  1  0
 29 30  1  0
 29 31  2  0
 11 32  2  0
 32 33  1  0
 32  4  1  0
 31 13  1  0
 31 22  1  0
M  CHG  2  21  -1  33  -1
M  END
>  <UniqueID>  (29) 
27

>  <SMILES>  (29) 
Cc1c/c(=N/c2cccc(C=O)c2[O-])c2ccccc2[n-]1

>  <Energy>  (29) 
59.89899831945933

>  <Genealogy>  (29) 
Cc1cc(=Nc2cccc(C=O)c2[O-])c2ccccc2[n-]1 (protonated)
Cc1c/c(=N/c2cccc(C=O)c2[O-])c2ccccc2[n-]1 (cis-trans isomerization)
Cc1c/c(=N/c2cccc(C=O)c2[O-])c2ccccc2[n-]1 (3D coordinates assigned)
Cc1c/c(=N/c2cccc(C=O)c2[O-])c2ccccc2[n-]1 (optimized conformer: 59.89899831945933 kcal/mol)

>  <smiles>  (29) 
Cc1cc(=Nc2cccc(C=O)c2O)c2ccccc2[nH]1

>  <score_type>  (29) 
oracle

>  <origin>  (29) 
adg

>  <m_score__min__energy>  (29) 
-12.699999999999999

>  <m_primary>  (29) 
energy

$$$$
29:0
     RDKit          3D

 48 50  0  0  0  0  0  0  0  0999 V2000
   57.6582   24.6252   47.4012 H   0  0  0  0  0  0  0  0  0  0  0  0
   57.7190   25.6140   46.9230 C   0  0  0  0  0  0  0  0  0  0  0  0
   57.2800   25.9760   45.3380 S   0  0  0  0  0  0  0  0  0  0  0  0
   57.6700   27.6040   45.4840 C   0  0  0  0  0  0  0  0  0  0  0  0
   57.5190   28.4580   44.5110 N   0  0  0  0  0  0  0  0  0  0  0  0
   58.0640   29.7830   44.3740 C   0  0  0  0  0  0  0  0  0  0  0  0
   59.2720   29.9620   44.0670 O   0  0  0  0  0  0  0  0  0  0  0  0
   57.2110   30.9460   44.6860 C   0  0  0  0  0  0  0  0  0  0  0  0
   55.9670   30.8610   44.4930 O   0  0  0  0  0  0  0  0  0  0  0  0
   57.7750   32.1950   45.2510 C   0  0  0  0  0  0  0  0  0  0  0  0
   57.7370   33.3810   44.4970 C   0  0  0  0  0  0  0  0  0  0  0  0
   57.2661   33.3799   43.5029 H   0  0  0  0  0  0  0  0  0  0  0  0
   58.2910   34.5590   44.9980 C   0  0  0  0  0  0  0  0  0  0  0  0
   58.2515   35.4825   44.4016 H   0  0  0  0  0  0  0  0  0  0  0  0
   58.8940   34.5660   46.2530 C   0  0  0  0  0  0  0  0  0  0  0  0
   59.3416   35.4927   46.6415 H   0  0  0  0  0  0  0  0  0  0  0  0
   58.9320   33.3990   47.0200 C   0  0  0  0  0  0  0  0  0  0  0  0
   59.4124   33.4115   48.0095 H   0  0  0  0  0  0  0  0  0  0  0  0
   58.3600   32.2070   46.5360 C   0  0  0  0  0  0  0  0  0  0  0  0
   58.4030   30.9930   47.3050 N   0  0  0  0  0  0  0  0  0  0  0  0
   59.8380   30.2300   47.9140 S   0  0  0  0  0  0  0  0  0  0  0  0
   59.4500   29.2010   48.9390 O   0  0  0  0  0  0  0  0  0  0  0  0
   60.5390   29.5460   46.7730 O   0  0  0  0  0  0  0  0  0  0  0  0
   60.9330   31.4240   48.6190 C   0  0  0  0  0  0  0  0  0  0  0  0
   62.2860   31.4310   48.2520 C   0  0  0  0  0  0  0  0  0  0  0  0
   62.6538   30.7073   47.5097 H   0  0  0  0  0  0  0  0  0  0  0  0
   63.1700   32.3490   48.8210 C   0  0  0  0  0  0  0  0  0  0  0  0
   64.2299   32.3436   48.5268 H   0  0  0  0  0  0  0  0  0  0  0  0
   62.7130   33.2770   49.7650 C   0  0  0  0  0  0  0  0  0  0  0  0
   63.6770   34.2220   50.4250 C   0  0  0  0  0  0  0  0  0  0  0  0
   63.5869   34.1337   51.5177 H   0  0  0  0  0  0  0  0  0  0  0  0
   64.7036   33.9707   50.1202 H   0  0  0  0  0  0  0  0  0  0  0  0
   63.4461   35.2534   50.1202 H   0  0  0  0  0  0  0  0  0  0  0  0
   61.3640   33.2630   50.1510 C   0  0  0  0  0  0  0  0  0  0  0  0
   61.0066   33.9764   50.9082 H   0  0  0  0  0  0  0  0  0  0  0  0
   60.4630   32.3440   49.5780 C   0  0  0  0  0  0  0  0  0  0  0  0
   59.1060   32.3110   49.9410 O   0  0  0  0  0  0  0  0  0  0  0  0
   58.6240   32.1000   51.2640 C   0  0  0  0  0  0  0  0  0  0  0  0
   58.0319   32.9708   51.5821 H   0  0  0  0  0  0  0  0  0  0  0  0
   59.4750   31.9665   51.9481 H   0  0  0  0  0  0  0  0  0  0  0  0
   57.7510   30.8560   51.2910 C   0  0  0  0  0  0  0  0  0  0  0  0
   57.5510   30.5710   52.3344 H   0  0  0  0  0  0  0  0  0  0  0  0
   56.7999   31.0643   50.7790 H   0  0  0  0  0  0  0  0  0  0  0  0
   58.2703   30.0324   50.7790 H   0  0  0  0  0  0  0  0  0  0  0  0
   58.1470   27.8860   46.7220 N   0  0  0  0  0  0  0  0  0  0  0  0
   58.4970   28.8090   47.0560 H   0  0  0  0  0  0  0  0  0  0  0  0
   58.1720   26.7850   47.5210 C   0  0  0  0  0  0  0  0  0  0  0  0
   58.5243   26.8186   48.5625 H   0  0  0  0  0  0  0  0  0  0  0  0
  1  2  1  0
  2  3  1  0
  3  4  1  0
  4  5  2  0
  5  6  1  0
  6  7  2  0
  6  8  1  0
  8  9  2  0
  8 10  1  0
 10 11  2  0
 11 12  1  0
 11 13  1  0
 13 14  1  0
 13 15  2  0
 15 16  1  0
 15 17  1  0
 17 18  1  0
 17 19  2  0
 19 20  1  0
 20 21  1  0
 21 22  2  0
 21 23  2  0
 21 24  1  0
 24 25  2  0
 25 26  1  0
 25 27  1  0
 27 28  1  0
 27 29  2  0
 29 30  1  0
 30 31  1  0
 30 32  1  0
 30 33  1  0
 29 34  1  0
 34 35  1  0
 34 36  2  0
 36 37  1  0
 37 38  1  0
 38 39  1  0
 38 40  1  0
 38 41  1  0
 41 42  1  0
 41 43  1  0
 41 44  1  0
  4 45  1  0
 45 46  1  0
 45 47  1  0
 47 48  1  0
 47  2  2  0
 19 10  1  0
 36 24  1  0
M  CHG  1  20  -1
M  END
>  <UniqueID>  (30) 
28

>  <SMILES>  (30) 
CCOc1cc(C)ccc1S(=O)(=O)[N-]c1ccccc1C(=O)C(=O)/N=c1\[nH]ccs1

>  <Energy>  (30) 
89.83858743975576

>  <Genealogy>  (30) 
CCOc1cc(C)ccc1S(=O)(=O)[N-]c1ccccc1C(=O)C(=O)N=c1[nH]ccs1 (protonated)
CCOc1cc(C)ccc1S(=O)(=O)[N-]c1ccccc1C(=O)C(=O)/N=c1\[nH]ccs1 (cis-trans isomerization)
CCOc1cc(C)ccc1S(=O)(=O)[N-]c1ccccc1C(=O)C(=O)/N=c1\[nH]ccs1 (3D coordinates assigned)
CCOc1cc(C)ccc1S(=O)(=O)[N-]c1ccccc1C(=O)C(=O)/N=c1\[nH]ccs1 (optimized conformer: 89.83858743975576 kcal/mol)

>  <smiles>  (30) 
CCOc1cc(C)ccc1S(=O)(=O)Nc1ccccc1C(=O)C(=O)N=c1[nH]ccs1

>  <score_type>  (30) 
oracle

>  <origin>  (30) 
adg

>  <m_score__min__energy>  (30) 
-9.0099999999999998

>  <m_primary>  (30) 
energy

$$$$
30:0
     RDKit          3D

 46 48  0  0  0  0  0  0  0  0999 V2000
   64.4450   31.8620   51.4850 N   0  0  0  0  0  0  0  0  0  0  0  0
   64.8420   32.3480   50.2020 C   0  0  0  0  0  0  0  0  0  0  0  0
   65.8350   33.1190   50.1120 O   0  0  0  0  0  0  0  0  0  0  0  0
   64.0590   31.9770   48.9660 C   0  0  0  0  0  0  0  0  0  0  0  0
   64.1320   33.0970   47.8960 C   0  0  0  0  0  0  0  0  0  0  0  0
   62.9000   34.0110   47.9110 C   0  0  0  0  0  0  0  0  0  0  0  0
   61.6630   33.2270   47.7730 N   0  0  0  0  0  0  0  0  0  0  0  0
   60.4480   33.8990   47.3890 C   0  0  0  0  0  0  0  0  0  0  0  0
   60.2900   35.1140   47.6890 O   0  0  0  0  0  0  0  0  0  0  0  0
   59.3750   33.1990   46.6460 C   0  0  0  0  0  0  0  0  0  0  0  0
   58.1920   33.8760   46.3110 C   0  0  0  0  0  0  0  0  0  0  0  0
   57.1780   33.2210   45.6040 C   0  0  0  0  0  0  0  0  0  0  0  0
   57.3290   31.8820   45.2300 C   0  0  0  0  0  0  0  0  0  0  0  0
   56.2840   31.2470   44.4800 N   0  0  0  0  0  0  0  0  0  0  0  0
   56.1070   29.8350   44.3060 C   0  0  0  0  0  0  0  0  0  0  0  0
   55.1440   29.2680   44.8840 O   0  0  0  0  0  0  0  0  0  0  0  0
   57.1060   28.9950   43.5610 C   0  0  0  0  0  0  0  0  0  0  0  0
   57.9370   28.2140   44.5270 C   0  0  0  0  0  0  0  0  0  0  0  0
   57.4550   27.4290   45.5680 C   0  0  0  0  0  0  0  0  0  0  0  0
   58.4740   26.8700   46.3500 C   0  0  0  0  0  0  0  0  0  0  0  0
   59.7520   27.2230   45.9370 C   0  0  0  0  0  0  0  0  0  0  0  0
   59.6170   28.2330   44.5990 S   0  0  0  0  0  0  0  0  0  0  0  0
   58.5310   31.2170   45.5190 C   0  0  0  0  0  0  0  0  0  0  0  0
   59.5440   31.8700   46.2270 C   0  0  0  0  0  0  0  0  0  0  0  0
   61.6370   31.8170   48.1910 C   0  0  0  0  0  0  0  0  0  0  0  0
   62.6090   31.5930   49.3520 C   0  0  0  0  0  0  0  0  0  0  0  0
   63.6110   31.2420   51.5900 H   0  0  0  0  0  0  0  0  0  0  0  0
   64.9850   32.1270   52.3380 H   0  0  0  0  0  0  0  0  0  0  0  0
   64.5149   31.0906   48.5007 H   0  0  0  0  0  0  0  0  0  0  0  0
   65.0262   33.7085   48.0870 H   0  0  0  0  0  0  0  0  0  0  0  0
   64.1741   32.6120   46.9096 H   0  0  0  0  0  0  0  0  0  0  0  0
   62.8725   34.5627   48.8622 H   0  0  0  0  0  0  0  0  0  0  0  0
   62.9700   34.7091   47.0638 H   0  0  0  0  0  0  0  0  0  0  0  0
   58.0614   34.9276   46.6061 H   0  0  0  0  0  0  0  0  0  0  0  0
   56.2571   33.7621   45.3409 H   0  0  0  0  0  0  0  0  0  0  0  0
   56.5734   28.3010   42.8941 H   0  0  0  0  0  0  0  0  0  0  0  0
   57.7607   29.6516   42.9693 H   0  0  0  0  0  0  0  0  0  0  0  0
   56.3842   27.2638   45.7581 H   0  0  0  0  0  0  0  0  0  0  0  0
   58.2800   26.2130   47.2106 H   0  0  0  0  0  0  0  0  0  0  0  0
   60.6926   26.8974   46.4053 H   0  0  0  0  0  0  0  0  0  0  0  0
   58.6762   30.1784   45.1871 H   0  0  0  0  0  0  0  0  0  0  0  0
   60.4795   31.3391   46.4573 H   0  0  0  0  0  0  0  0  0  0  0  0
   60.6191   31.5519   48.5128 H   0  0  0  0  0  0  0  0  0  0  0  0
   61.9387   31.1850   47.3427 H   0  0  0  0  0  0  0  0  0  0  0  0
   62.2922   32.2093   50.2063 H   0  0  0  0  0  0  0  0  0  0  0  0
   62.5942   30.5240   49.6108 H   0  0  0  0  0  0  0  0  0  0  0  0
  1  2  1  0
  2  3  2  0
  2  4  1  0
  4  5  1  0
  5  6  1  0
  6  7  1  0
  7  8  1  0
  8  9  2  0
  8 10  1  0
 10 11  2  0
 11 12  1  0
 12 13  2  0
 13 14  1  0
 14 15  1  0
 15 16  2  0
 15 17  1  0
 17 18  1  0
 18 19  2  0
 19 20  1  0
 20 21  2  0
 21 22  1  0
 13 23  1  0
 23 24  2  0
  7 25  1  0
 25 26  1  0
 26  4  1  0
 24 10  1  0
 22 18  1  0
  1 27  1  0
  1 28  1  0
  4 29  1  0
  5 30  1  0
  5 31  1  0
  6 32  1  0
  6 33  1  0
 11 34  1  0
 12 35  1  0
 17 36  1  0
 17 37  1  0
 19 38  1  0
 20 39  1  0
 21 40  1  0
 23 41  1  0
 24 42  1  0
 25 43  1  0
 25 44  1  0
 26 45  1  0
 26 46  1  0
M  CHG  1  14  -1
M  END
>  <UniqueID>  (31) 
29

>  <SMILES>  (31) 
NC(=O)C1CCN(C(=O)c2ccc([N-]C(=O)Cc3cccs3)cc2)CC1

>  <Energy>  (31) 
81.32739338844317

>  <Genealogy>  (31) 
NC(=O)C1CCN(C(=O)c2ccc([N-]C(=O)Cc3cccs3)cc2)CC1 (protonated)
NC(=O)C1CCN(C(=O)c2ccc([N-]C(=O)Cc3cccs3)cc2)CC1 (3D coordinates assigned)
NC(=O)C1CCN(C(=O)c2ccc([N-]C(=O)Cc3cccs3)cc2)CC1 (nonaromatic ring conformer: 81.32739338844317 kcal/mol)

>  <smiles>  (31) 
NC(=O)C1CCN(C(=O)c2ccc(NC(=O)Cc3cccs3)cc2)CC1

>  <score_type>  (31) 
oracle

>  <origin>  (31) 
adg

>  <m_score__min__energy>  (31) 
-10.42

>  <m_primary>  (31) 
energy

$$$$
31:0
     RDKit          3D

 56 59  0  0  0  0  0  0  0  0999 V2000
   58.2170   25.4920   46.1320 O   0  0  0  0  0  0  0  0  0  0  0  0
   57.1790   26.2060   46.1830 C   0  0  0  0  0  0  0  0  0  0  0  0
   55.9390   25.6410   46.6390 N   0  0  0  0  0  0  0  0  0  0  0  0
   55.7870   24.2140   46.9130 C   0  0  0  0  0  0  0  0  0  0  0  0
   56.1540   23.4120   45.6950 C   0  0  0  0  0  0  0  0  0  0  0  0
   57.1060   22.3800   45.7770 C   0  0  0  0  0  0  0  0  0  0  0  0
   57.4620   21.6600   44.6340 C   0  0  0  0  0  0  0  0  0  0  0  0
   56.8770   21.9650   43.4020 C   0  0  0  0  0  0  0  0  0  0  0  0
   57.2270   21.2670   42.2940 F   0  0  0  0  0  0  0  0  0  0  0  0
   55.9360   22.9930   43.3120 C   0  0  0  0  0  0  0  0  0  0  0  0
   55.5760   23.7170   44.4530 C   0  0  0  0  0  0  0  0  0  0  0  0
   57.2530   27.6160   45.7660 C   0  0  0  0  0  0  0  0  0  0  0  0
   56.1570   28.2300   45.2480 N   0  0  0  0  0  0  0  0  0  0  0  0
   56.1900   29.5350   44.8770 C   0  0  0  0  0  0  0  0  0  0  0  0
   55.1530   30.0650   44.3940 O   0  0  0  0  0  0  0  0  0  0  0  0
   57.3710   30.2790   45.0280 C   0  0  0  0  0  0  0  0  0  0  0  0
   57.4060   31.7090   44.6600 C   0  0  0  0  0  0  0  0  0  0  0  0
   57.8080   32.0420   43.5150 O   0  0  0  0  0  0  0  0  0  0  0  0
   57.0170   32.7260   45.5880 N   0  0  0  0  0  0  0  0  0  0  0  0
   57.5990   34.0640   45.6190 C   0  0  0  0  0  0  0  0  0  0  0  0
   58.8970   34.0360   46.3760 C   0  0  0  0  0  0  0  0  0  0  0  0
   60.1100   33.8560   45.6900 C   0  0  0  0  0  0  0  0  0  0  0  0
   61.3200   33.8270   46.3910 C   0  0  0  0  0  0  0  0  0  0  0  0
   61.3290   33.9830   47.7800 C   0  0  0  0  0  0  0  0  0  0  0  0
   62.5010   33.9510   48.4590 F   0  0  0  0  0  0  0  0  0  0  0  0
   60.1260   34.1750   48.4690 C   0  0  0  0  0  0  0  0  0  0  0  0
   58.9150   34.2040   47.7710 C   0  0  0  0  0  0  0  0  0  0  0  0
   58.5050   29.6220   45.5520 C   0  0  0  0  0  0  0  0  0  0  0  0
   59.8090   30.3360   45.8000 C   0  0  0  0  0  0  0  0  0  0  0  0
   60.0310   30.5510   47.2740 C   0  0  0  0  0  0  0  0  0  0  0  0
   58.9340   30.7020   48.1390 C   0  0  0  0  0  0  0  0  0  0  0  0
   59.1370   30.9120   49.5060 C   0  0  0  0  0  0  0  0  0  0  0  0
   60.4350   30.9710   50.0200 C   0  0  0  0  0  0  0  0  0  0  0  0
   60.6360   31.1820   51.3790 O   0  0  0  0  0  0  0  0  0  0  0  0
   61.5320   30.8230   49.1660 C   0  0  0  0  0  0  0  0  0  0  0  0
   61.3340   30.6130   47.7990 C   0  0  0  0  0  0  0  0  0  0  0  0
   58.4070   28.3160   45.9140 N   0  0  0  0  0  0  0  0  0  0  0  0
   55.1040   26.2560   46.7620 H   0  0  0  0  0  0  0  0  0  0  0  0
   56.4463   23.9314   47.7469 H   0  0  0  0  0  0  0  0  0  0  0  0
   54.7394   24.0078   47.1777 H   0  0  0  0  0  0  0  0  0  0  0  0
   57.5716   22.1391   46.7440 H   0  0  0  0  0  0  0  0  0  0  0  0
   58.2044   20.8513   44.7039 H   0  0  0  0  0  0  0  0  0  0  0  0
   55.4771   23.2337   42.3417 H   0  0  0  0  0  0  0  0  0  0  0  0
   54.8372   24.5284   44.3768 H   0  0  0  0  0  0  0  0  0  0  0  0
   57.7835   34.4061   44.5900 H   0  0  0  0  0  0  0  0  0  0  0  0
   56.9015   34.7525   46.1185 H   0  0  0  0  0  0  0  0  0  0  0  0
   60.1080   33.7373   44.5964 H   0  0  0  0  0  0  0  0  0  0  0  0
   62.2657   33.6812   45.8485 H   0  0  0  0  0  0  0  0  0  0  0  0
   60.1333   34.3033   49.5615 H   0  0  0  0  0  0  0  0  0  0  0  0
   57.9722   34.3590   48.3162 H   0  0  0  0  0  0  0  0  0  0  0  0
   60.6338   29.7307   45.3959 H   0  0  0  0  0  0  0  0  0  0  0  0
   59.7733   31.3166   45.3028 H   0  0  0  0  0  0  0  0  0  0  0  0
   57.9106   30.6547   47.7385 H   0  0  0  0  0  0  0  0  0  0  0  0
   58.2741   31.0309   50.1777 H   0  0  0  0  0  0  0  0  0  0  0  0
   62.5534   30.8720   49.5713 H   0  0  0  0  0  0  0  0  0  0  0  0
   62.2002   30.4958   47.1312 H   0  0  0  0  0  0  0  0  0  0  0  0
  1  2  2  0
  2  3  1  0
  3  4  1  0
  4  5  1  0
  5  6  2  0
  6  7  1  0
  7  8  2  0
  8  9  1  0
  8 10  1  0
 10 11  2  0
  2 12  1  0
 12 13  2  0
 13 14  1  0
 14 15  2  0
 14 16  1  0
 16 17  1  0
 17 18  2  0
 17 19  1  0
 19 20  1  0
 20 21  1  0
 21 22  2  0
 22 23  1  0
 23 24  2  0
 24 25  1  0
 24 26  1  0
 26 27  2  0
 16 28  2  0
 28 29  1  0
 29 30  1  0
 30 31  2  0
 31 32  1  0
 32 33  2  0
 33 34  1  0
 33 35  1  0
 35 36  2  0
 28 37  1  0
 11  5  1  0
 37 12  1  0
 27 21  1  0
 36 30  1  0
  3 38  1  0
  4 39  1  0
  4 40  1  0
  6 41  1  0
  7 42  1  0
 10 43  1  0
 11 44  1  0
 20 45  1  0
 20 46  1  0
 22 47  1  0
 23 48  1  0
 26 49  1  0
 27 50  1  0
 29 51  1  0
 29 52  1  0
 31 53  1  0
 32 54  1  0
 35 55  1  0
 36 56  1  0
M  CHG  3  19  -1  34  -1  37  -1
M  END
>  <UniqueID>  (32) 
30

>  <SMILES>  (32) 
O=C(NCc1ccc(F)cc1)c1nc(=O)c(C(=O)[N-]Cc2ccc(F)cc2)c(Cc2ccc([O-])cc2)[n-]1

>  <Energy>  (32) 
60.387202280008125

>  <Genealogy>  (32) 
O=C(NCc1ccc(F)cc1)c1nc(=O)c(C(=O)[N-]Cc2ccc(F)cc2)c(Cc2ccc([O-])cc2)[n-]1 (protonated)
O=C(NCc1ccc(F)cc1)c1nc(=O)c(C(=O)[N-]Cc2ccc(F)cc2)c(Cc2ccc([O-])cc2)[n-]1 (3D coordinates assigned)
O=C(NCc1ccc(F)cc1)c1nc(=O)c(C(=O)[N-]Cc2ccc(F)cc2)c(Cc2ccc([O-])cc2)[n-]1 (optimized conformer: 60.387202280008125 kcal/mol)

>  <smiles>  (32) 
O=C(NCc1ccc(F)cc1)c1nc(=O)c(C(=O)NCc2ccc(F)cc2)c(Cc2ccc(O)cc2)[nH]1

>  <score_type>  (32) 
oracle

>  <origin>  (32) 
adg

>  <m_score__min__energy>  (32) 
-13.109999999999999

>  <m_primary>  (32) 
energy

$$$$
32:0
     RDKit          3D

 51 53  0  0  0  0  0  0  0  0999 V2000
   51.4140   24.2090   44.5760 C   0  0  0  0  0  0  0  0  0  0  0  0
   52.5690   24.0750   45.2360 C   0  0  0  0  0  0  0  0  0  0  0  0
   53.8580   23.7350   44.5300 C   0  0  0  0  0  0  0  0  0  0  0  0
   55.0480   24.1670   45.2860 N   0  0  0  0  0  0  0  0  0  0  0  0
   56.2960   24.0960   44.5090 C   0  0  0  0  0  0  0  0  0  0  0  0
   57.4770   24.6800   45.2580 C   0  0  0  0  0  0  0  0  0  0  0  0
   58.7530   24.1250   45.4120 C   0  0  0  0  0  0  0  0  0  0  0  0
   59.2320   22.7800   45.0180 C   0  0  0  0  0  0  0  0  0  0  0  0
   60.4010   22.2050   45.5910 N   0  0  0  0  0  0  0  0  0  0  0  0
   58.6100   22.1410   44.1290 O   0  0  0  0  0  0  0  0  0  0  0  0
   59.5790   25.0310   45.9690 N   0  0  0  0  0  0  0  0  0  0  0  0
   58.8720   26.1540   46.1890 C   0  0  0  0  0  0  0  0  0  0  0  0
   59.4530   27.3550   46.8280 C   0  0  0  0  0  0  0  0  0  0  0  0
   59.6830   27.3920   48.2120 C   0  0  0  0  0  0  0  0  0  0  0  0
   60.2540   28.5220   48.8040 C   0  0  0  0  0  0  0  0  0  0  0  0
   60.6080   29.6300   48.0180 C   0  0  0  0  0  0  0  0  0  0  0  0
   61.2610   30.8300   48.6480 C   0  0  0  0  0  0  0  0  0  0  0  0
   60.8390   32.0860   47.9370 C   0  0  0  0  0  0  0  0  0  0  0  0
   59.5460   32.6040   48.1190 C   0  0  0  0  0  0  0  0  0  0  0  0
   59.1660   33.7910   47.4850 C   0  0  0  0  0  0  0  0  0  0  0  0
   60.0770   34.4750   46.6740 C   0  0  0  0  0  0  0  0  0  0  0  0
   59.6980   35.6550   46.0460 O   0  0  0  0  0  0  0  0  0  0  0  0
   61.3700   33.9730   46.4970 C   0  0  0  0  0  0  0  0  0  0  0  0
   61.7520   32.7850   47.1300 C   0  0  0  0  0  0  0  0  0  0  0  0
   60.4060   29.5820   46.6300 C   0  0  0  0  0  0  0  0  0  0  0  0
   59.8330   28.4510   46.0390 C   0  0  0  0  0  0  0  0  0  0  0  0
   57.5610   25.9820   45.7560 C   0  0  0  0  0  0  0  0  0  0  0  0
   56.5140   27.0270   45.7040 C   0  0  0  0  0  0  0  0  0  0  0  0
   55.1560   26.7090   45.9950 N   0  0  0  0  0  0  0  0  0  0  0  0
   56.8190   28.2100   45.4000 O   0  0  0  0  0  0  0  0  0  0  0  0
   50.4931   24.4576   45.1239 H   0  0  0  0  0  0  0  0  0  0  0  0
   51.3846   24.0706   43.4851 H   0  0  0  0  0  0  0  0  0  0  0  0
   52.5796   24.2170   46.3267 H   0  0  0  0  0  0  0  0  0  0  0  0
   53.9061   22.6451   44.3894 H   0  0  0  0  0  0  0  0  0  0  0  0
   53.8622   24.2680   43.5678 H   0  0  0  0  0  0  0  0  0  0  0  0
   54.9140   25.1210   45.6910 H   0  0  0  0  0  0  0  0  0  0  0  0
   56.5097   23.0417   44.2794 H   0  0  0  0  0  0  0  0  0  0  0  0
   56.1545   24.6875   43.5924 H   0  0  0  0  0  0  0  0  0  0  0  0
   61.3410   22.6330   45.4400 H   0  0  0  0  0  0  0  0  0  0  0  0
   60.5870   24.8860   46.2050 H   0  0  0  0  0  0  0  0  0  0  0  0
   59.4122   26.5265   48.8345 H   0  0  0  0  0  0  0  0  0  0  0  0
   60.4267   28.5432   49.8901 H   0  0  0  0  0  0  0  0  0  0  0  0
   60.9620   30.8931   49.7047 H   0  0  0  0  0  0  0  0  0  0  0  0
   62.3533   30.7248   48.5715 H   0  0  0  0  0  0  0  0  0  0  0  0
   58.8293   32.0735   48.7631 H   0  0  0  0  0  0  0  0  0  0  0  0
   58.1493   34.1872   47.6244 H   0  0  0  0  0  0  0  0  0  0  0  0
   62.0869   34.5120   45.8602 H   0  0  0  0  0  0  0  0  0  0  0  0
   62.7722   32.3965   46.9950 H   0  0  0  0  0  0  0  0  0  0  0  0
   60.6996   30.4376   46.0041 H   0  0  0  0  0  0  0  0  0  0  0  0
   59.6796   28.4208   44.9502 H   0  0  0  0  0  0  0  0  0  0  0  0
   54.5210   26.3370   45.2550 H   0  0  0  0  0  0  0  0  0  0  0  0
  1  2  2  0
  2  3  1  0
  3  4  1  0
  4  5  1  0
  5  6  1  0
  6  7  2  0
  7  8  1  0
  8  9  1  0
  8 10  2  0
  7 11  1  0
 11 12  1  0
 12 13  1  0
 13 14  2  0
 14 15  1  0
 15 16  2  0
 16 17  1  0
 17 18  1  0
 18 19  2  0
 19 20  1  0
 20 21  2  0
 21 22  1  0
 21 23  1  0
 23 24  2  0
 16 25  1  0
 25 26  2  0
 12 27  2  0
 27 28  1  0
 28 29  1  0
 28 30  2  0
 27  6  1  0
 26 13  1  0
 24 18  1  0
  1 31  1  0
  1 32  1  0
  2 33  1  0
  3 34  1  0
  3 35  1  0
  4 36  1  0
  5 37  1  0
  5 38  1  0
  9 39  1  0
 11 40  1  0
 14 41  1  0
 15 42  1  0
 17 43  1  0
 17 44  1  0
 19 45  1  0
 20 46  1  0
 23 47  1  0
 24 48  1  0
 25 49  1  0
 26 50  1  0
 29 51  1  0
M  CHG  3   9  -1  22  -1  29  -1
M  END
>  <UniqueID>  (33) 
31

>  <SMILES>  (33) 
C=CCNCc1c(C([NH-])=O)[nH]c(-c2ccc(Cc3ccc([O-])cc3)cc2)c1C([NH-])=O

>  <Energy>  (33) 
84.29891408229742

>  <Genealogy>  (33) 
C=CCNCc1c(C([NH-])=O)[nH]c(-c2ccc(Cc3ccc([O-])cc3)cc2)c1C([NH-])=O (protonated)
C=CCNCc1c(C([NH-])=O)[nH]c(-c2ccc(Cc3ccc([O-])cc3)cc2)c1C([NH-])=O (3D coordinates assigned)
C=CCNCc1c(C([NH-])=O)[nH]c(-c2ccc(Cc3ccc([O-])cc3)cc2)c1C([NH-])=O (optimized conformer: 84.29891408229742 kcal/mol)

>  <smiles>  (33) 
C=CCNCc1c(C(N)=O)[nH]c(-c2ccc(Cc3ccc(O)cc3)cc2)c1C(N)=O

>  <score_type>  (33) 
oracle

>  <origin>  (33) 
adg

>  <m_score__min__energy>  (33) 
-13.24

>  <m_primary>  (33) 
energy

$$$$
33:0
     RDKit          3D

 46 48  0  0  0  0  0  0  0  0999 V2000
   57.0190   28.8230   42.8860 N   0  0  0  0  0  0  0  0  0  0  0  0
   56.2220   29.7270   44.1270 S   0  0  0  0  0  0  0  0  0  0  0  0
   56.3270   31.1930   43.8170 O   0  0  0  0  0  0  0  0  0  0  0  0
   54.7680   29.3410   44.1920 O   0  0  0  0  0  0  0  0  0  0  0  0
   56.9860   29.4140   45.6520 N   0  0  0  0  0  0  0  0  0  0  0  0
   58.1860   28.6410   45.7630 C   0  0  0  0  0  0  0  0  0  0  0  0
   58.5590   27.9210   44.7980 O   0  0  0  0  0  0  0  0  0  0  0  0
   58.9940   28.7010   47.0040 C   0  0  0  0  0  0  0  0  0  0  0  0
   58.7620   29.7020   47.9680 C   0  0  0  0  0  0  0  0  0  0  0  0
   59.5390   29.7690   49.1290 C   0  0  0  0  0  0  0  0  0  0  0  0
   60.5580   28.8300   49.3570 C   0  0  0  0  0  0  0  0  0  0  0  0
   61.3840   28.8670   50.5320 N   0  0  0  0  0  0  0  0  0  0  0  0
   62.2770   30.2430   51.0990 S   0  0  0  0  0  0  0  0  0  0  0  0
   63.6910   29.8200   51.3880 O   0  0  0  0  0  0  0  0  0  0  0  0
   61.6720   30.7670   52.3730 O   0  0  0  0  0  0  0  0  0  0  0  0
   62.2980   31.4830   49.8500 C   0  0  0  0  0  0  0  0  0  0  0  0
   63.4120   31.5960   49.0070 C   0  0  0  0  0  0  0  0  0  0  0  0
   63.4260   32.5480   47.9870 C   0  0  0  0  0  0  0  0  0  0  0  0
   62.3260   33.3870   47.7960 C   0  0  0  0  0  0  0  0  0  0  0  0
   61.1980   33.2910   48.6350 C   0  0  0  0  0  0  0  0  0  0  0  0
   59.9960   34.1290   48.4020 C   0  0  0  0  0  0  0  0  0  0  0  0
   59.6440   34.9590   49.2840 O   0  0  0  0  0  0  0  0  0  0  0  0
   59.1810   34.0150   47.1730 C   0  0  0  0  0  0  0  0  0  0  0  0
   59.5220   34.7400   46.0160 C   0  0  0  0  0  0  0  0  0  0  0  0
   58.7230   34.6500   44.8700 C   0  0  0  0  0  0  0  0  0  0  0  0
   57.5900   33.8330   44.8680 C   0  0  0  0  0  0  0  0  0  0  0  0
   57.2410   33.1130   46.0150 C   0  0  0  0  0  0  0  0  0  0  0  0
   58.0280   33.2100   47.1670 C   0  0  0  0  0  0  0  0  0  0  0  0
   61.1970   32.3320   49.6640 C   0  0  0  0  0  0  0  0  0  0  0  0
   60.7770   27.8190   48.4090 C   0  0  0  0  0  0  0  0  0  0  0  0
   60.0060   27.7540   47.2440 C   0  0  0  0  0  0  0  0  0  0  0  0
   58.0330   29.0780   42.9180 H   0  0  0  0  0  0  0  0  0  0  0  0
   56.9510   27.8140   43.1630 H   0  0  0  0  0  0  0  0  0  0  0  0
   57.9613   30.4386   47.8058 H   0  0  0  0  0  0  0  0  0  0  0  0
   59.3508   30.5619   49.8679 H   0  0  0  0  0  0  0  0  0  0  0  0
   64.2776   30.9324   49.1499 H   0  0  0  0  0  0  0  0  0  0  0  0
   64.3052   32.6379   47.3320 H   0  0  0  0  0  0  0  0  0  0  0  0
   62.3403   34.1289   46.9839 H   0  0  0  0  0  0  0  0  0  0  0  0
   60.4178   35.3784   46.0121 H   0  0  0  0  0  0  0  0  0  0  0  0
   58.9879   35.2236   43.9696 H   0  0  0  0  0  0  0  0  0  0  0  0
   56.9708   33.7558   43.9621 H   0  0  0  0  0  0  0  0  0  0  0  0
   56.3480   32.4707   46.0111 H   0  0  0  0  0  0  0  0  0  0  0  0
   57.7438   32.6540   48.0726 H   0  0  0  0  0  0  0  0  0  0  0  0
   60.3248   32.2470   50.3289 H   0  0  0  0  0  0  0  0  0  0  0  0
   61.5632   27.0698   48.5839 H   0  0  0  0  0  0  0  0  0  0  0  0
   60.1924   26.9563   46.5099 H   0  0  0  0  0  0  0  0  0  0  0  0
  1  2  1  0
  2  3  2  0
  2  4  2  0
  2  5  1  0
  5  6  1  0
  6  7  2  0
  6  8  1  0
  8  9  2  0
  9 10  1  0
 10 11  2  0
 11 12  1  0
 12 13  1  0
 13 14  2  0
 13 15  2  0
 13 16  1  0
 16 17  2  0
 17 18  1  0
 18 19  2  0
 19 20  1  0
 20 21  1  0
 21 22  2  0
 21 23  1  0
 23 24  2  0
 24 25  1  0
 25 26  2  0
 26 27  1  0
 27 28  2  0
 20 29  2  0
 11 30  1  0
 30 31  2  0
 31  8  1  0
 29 16  1  0
 28 23  1  0
  1 32  1  0
  1 33  1  0
  9 34  1  0
 10 35  1  0
 17 36  1  0
 18 37  1  0
 19 38  1  0
 24 39  1  0
 25 40  1  0
 26 41  1  0
 27 42  1  0
 28 43  1  0
 29 44  1  0
 30 45  1  0
 31 46  1  0
M  CHG  2   5  -1  12  -1
M  END
>  <UniqueID>  (34) 
32

>  <SMILES>  (34) 
NS(=O)(=O)[N-]C(=O)c1ccc([N-]S(=O)(=O)c2cccc(C(=O)c3ccccc3)c2)cc1

>  <Energy>  (34) 
58.53707870191179

>  <Genealogy>  (34) 
NS(=O)(=O)[N-]C(=O)c1ccc([N-]S(=O)(=O)c2cccc(C(=O)c3ccccc3)c2)cc1 (protonated)
NS(=O)(=O)[N-]C(=O)c1ccc([N-]S(=O)(=O)c2cccc(C(=O)c3ccccc3)c2)cc1 (3D coordinates assigned)
NS(=O)(=O)[N-]C(=O)c1ccc([N-]S(=O)(=O)c2cccc(C(=O)c3ccccc3)c2)cc1 (optimized conformer: 58.53707870191179 kcal/mol)

>  <smiles>  (34) 
NS(=O)(=O)NC(=O)c1ccc(NS(=O)(=O)c2cccc(C(=O)c3ccccc3)c2)cc1

>  <score_type>  (34) 
oracle

>  <origin>  (34) 
adg

>  <m_score__min__energy>  (34) 
-13.609999999999999

>  <m_primary>  (34) 
energy

$$$$
34:0
     RDKit          3D

 70 74  0  0  0  0  0  0  0  0999 V2000
   59.2720   35.0880   47.8430 O   0  0  0  0  0  0  0  0  0  0  0  0
   59.2880   35.0070   46.5860 C   0  0  0  0  0  0  0  0  0  0  0  0
   59.8530   36.0430   45.8510 O   0  0  0  0  0  0  0  0  0  0  0  0
   58.7140   33.8270   45.9020 C   0  0  0  0  0  0  0  0  0  0  0  0
   58.3610   32.6810   46.6370 C   0  0  0  0  0  0  0  0  0  0  0  0
   57.8180   31.5650   45.9930 C   0  0  0  0  0  0  0  0  0  0  0  0
   57.6300   31.5700   44.6030 C   0  0  0  0  0  0  0  0  0  0  0  0
   57.0170   30.3860   43.9160 C   0  0  0  0  0  0  0  0  0  0  0  0
   56.2280   29.6270   44.8770 N   0  0  0  0  0  0  0  0  0  0  0  0
   56.6640   28.4600   45.5870 C   0  0  0  0  0  0  0  0  0  0  0  0
   55.9030   27.4580   45.6110 O   0  0  0  0  0  0  0  0  0  0  0  0
   57.9710   28.3770   46.2730 C   0  0  0  0  0  0  0  0  0  0  0  0
   58.1830   27.8300   47.5250 C   0  0  0  0  0  0  0  0  0  0  0  0
   59.5390   27.9860   47.7180 C   0  0  0  0  0  0  0  0  0  0  0  0
   60.3250   27.5160   48.8980 C   0  0  0  0  0  0  0  0  0  0  0  0
   60.8360   28.6700   49.6320 N   0  0  0  0  0  0  0  0  0  0  0  0
   59.9990   29.5050   50.4450 C   0  0  0  0  0  0  0  0  0  0  0  0
   58.7540   29.3070   50.4890 O   0  0  0  0  0  0  0  0  0  0  0  0
   60.5740   30.6510   51.1800 C   0  0  0  0  0  0  0  0  0  0  0  0
   61.0770   30.4140   52.4660 C   0  0  0  0  0  0  0  0  0  0  0  0
   61.6330   31.4590   53.2000 C   0  0  0  0  0  0  0  0  0  0  0  0
   62.0880   31.2380   54.3550 O   0  0  0  0  0  0  0  0  0  0  0  0
   61.6890   32.7430   52.6550 C   0  0  0  0  0  0  0  0  0  0  0  0
   62.2750   33.7760   53.4120 O   0  0  0  0  0  0  0  0  0  0  0  0
   63.6310   34.2120   53.3050 C   0  0  0  0  0  0  0  0  0  0  0  0
   64.3600   33.4450   52.2320 C   0  0  0  0  0  0  0  0  0  0  0  0
   64.3140   33.8700   50.8930 C   0  0  0  0  0  0  0  0  0  0  0  0
   64.9930   33.1530   49.9030 C   0  0  0  0  0  0  0  0  0  0  0  0
   65.7290   32.0140   50.2420 C   0  0  0  0  0  0  0  0  0  0  0  0
   65.7910   31.5930   51.5750 C   0  0  0  0  0  0  0  0  0  0  0  0
   65.1120   32.3070   52.5680 C   0  0  0  0  0  0  0  0  0  0  0  0
   61.1710   32.9510   51.3650 C   0  0  0  0  0  0  0  0  0  0  0  0
   60.6470   31.9170   50.6350 N   0  0  0  0  0  0  0  0  0  0  0  0
   60.2700   32.1820   49.2320 C   0  0  0  0  0  0  0  0  0  0  0  0
   61.4950   32.4090   48.3830 C   0  0  0  0  0  0  0  0  0  0  0  0
   61.8860   33.7160   48.0380 C   0  0  0  0  0  0  0  0  0  0  0  0
   63.0230   33.9260   47.2530 C   0  0  0  0  0  0  0  0  0  0  0  0
   63.7730   32.8360   46.7980 C   0  0  0  0  0  0  0  0  0  0  0  0
   63.3850   31.5340   47.1290 C   0  0  0  0  0  0  0  0  0  0  0  0
   62.2500   31.3190   47.9170 C   0  0  0  0  0  0  0  0  0  0  0  0
   60.0540   28.5800   46.6670 O   0  0  0  0  0  0  0  0  0  0  0  0
   59.1390   28.8320   45.7780 N   0  0  0  0  0  0  0  0  0  0  0  0
   57.9650   32.7180   43.8690 C   0  0  0  0  0  0  0  0  0  0  0  0
   58.5070   33.8350   44.5100 C   0  0  0  0  0  0  0  0  0  0  0  0
   58.5132   32.6625   47.7263 H   0  0  0  0  0  0  0  0  0  0  0  0
   57.5367   30.6781   46.5797 H   0  0  0  0  0  0  0  0  0  0  0  0
   56.3673   30.7314   43.0983 H   0  0  0  0  0  0  0  0  0  0  0  0
   57.8118   29.7463   43.5048 H   0  0  0  0  0  0  0  0  0  0  0  0
   57.4456   27.3782   48.2048 H   0  0  0  0  0  0  0  0  0  0  0  0
   59.6765   26.9199   49.5569 H   0  0  0  0  0  0  0  0  0  0  0  0
   61.1670   26.8967   48.5552 H   0  0  0  0  0  0  0  0  0  0  0  0
   61.8250   28.9580   49.4590 H   0  0  0  0  0  0  0  0  0  0  0  0
   61.0328   29.4025   52.8960 H   0  0  0  0  0  0  0  0  0  0  0  0
   63.6461   35.2832   53.0553 H   0  0  0  0  0  0  0  0  0  0  0  0
   64.1340   34.0343   54.2670 H   0  0  0  0  0  0  0  0  0  0  0  0
   63.7418   34.7698   50.6230 H   0  0  0  0  0  0  0  0  0  0  0  0
   64.9479   33.4859   48.8555 H   0  0  0  0  0  0  0  0  0  0  0  0
   66.2592   31.4489   49.4612 H   0  0  0  0  0  0  0  0  0  0  0  0
   66.3743   30.6996   51.8424 H   0  0  0  0  0  0  0  0  0  0  0  0
   65.1671   31.9762   53.6156 H   0  0  0  0  0  0  0  0  0  0  0  0
   61.1867   33.9628   50.9337 H   0  0  0  0  0  0  0  0  0  0  0  0
   59.7134   31.3185   48.8387 H   0  0  0  0  0  0  0  0  0  0  0  0
   59.6453   33.0868   49.1993 H   0  0  0  0  0  0  0  0  0  0  0  0
   61.2947   34.5753   48.3874 H   0  0  0  0  0  0  0  0  0  0  0  0
   63.3288   34.9500   46.9924 H   0  0  0  0  0  0  0  0  0  0  0  0
   64.6676   33.0032   46.1801 H   0  0  0  0  0  0  0  0  0  0  0  0
   63.9737   30.6774   46.7689 H   0  0  0  0  0  0  0  0  0  0  0  0
   61.9470   30.2930   48.1731 H   0  0  0  0  0  0  0  0  0  0  0  0
   57.7998   32.7387   42.7817 H   0  0  0  0  0  0  0  0  0  0  0  0
   58.7736   34.7262   43.9229 H   0  0  0  0  0  0  0  0  0  0  0  0
  1  2  2  0
  2  3  1  0
  2  4  1  0
  4  5  2  0
  5  6  1  0
  6  7  2  0
  7  8  1  0
  8  9  1  0
  9 10  1  0
 10 11  2  0
 10 12  1  0
 12 13  1  0
 13 14  2  0
 14 15  1  0
 15 16  1  0
 16 17  1  0
 17 18  2  0
 17 19  1  0
 19 20  2  0
 20 21  1  0
 21 22  2  0
 21 23  1  0
 23 24  1  0
 24 25  1  0
 25 26  1  0
 26 27  2  0
 27 28  1  0
 28 29  2  0
 29 30  1  0
 30 31  2  0
 23 32  2  0
 32 33  1  0
 33 34  1  0
 34 35  1  0
 35 36  2  0
 36 37  1  0
 37 38  2  0
 38 39  1  0
 39 40  2  0
 14 41  1  0
 41 42  1  0
  7 43  1  0
 43 44  2  0
 44  4  1  0
 42 12  2  0
 33 19  1  0
 40 35  1  0
 31 26  1  0
  5 45  1  0
  6 46  1  0
  8 47  1  0
  8 48  1  0
 13 49  1  0
 15 50  1  0
 15 51  1  0
 16 52  1  0
 20 53  1  0
 25 54  1  0
 25 55  1  0
 27 56  1  0
 28 57  1  0
 29 58  1  0
 30 59  1  0
 31 60  1  0
 32 61  1  0
 34 62  1  0
 34 63  1  0
 36 64  1  0
 37 65  1  0
 38 66  1  0
 39 67  1  0
 40 68  1  0
 43 69  1  0
 44 70  1  0
M  CHG  2   3  -1   9  -1
M  END
>  <UniqueID>  (35) 
33

>  <SMILES>  (35) 
O=C([O-])c1ccc(C[N-]C(=O)c2cc(CNC(=O)c3cc(=O)c(OCc4ccccc4)cn3Cc3ccccc3)on2)cc1

>  <Energy>  (35) 
111.13029107384882

>  <Genealogy>  (35) 
O=C([O-])c1ccc(C[N-]C(=O)c2cc(CNC(=O)c3cc(=O)c(OCc4ccccc4)cn3Cc3ccccc3)on2)cc1 (protonated)
O=C([O-])c1ccc(C[N-]C(=O)c2cc(CNC(=O)c3cc(=O)c(OCc4ccccc4)cn3Cc3ccccc3)on2)cc1 (3D coordinates assigned)
O=C([O-])c1ccc(C[N-]C(=O)c2cc(CNC(=O)c3cc(=O)c(OCc4ccccc4)cn3Cc3ccccc3)on2)cc1 (optimized conformer: 111.13029107384882 kcal/mol)

>  <smiles>  (35) 
O=C(O)c1ccc(CNC(=O)c2cc(CNC(=O)c3cc(=O)c(OCc4ccccc4)cn3Cc3ccccc3)on2)cc1

>  <score_type>  (35) 
oracle

>  <origin>  (35) 
adg

>  <m_score__min__energy>  (35) 
-14.859999999999999

>  <m_primary>  (35) 
energy

$$$$
35:0
     RDKit          3D

 51 53  0  0  0  0  0  0  0  0999 V2000
   60.2272   29.0578   46.6930 H   0  0  0  0  0  0  0  0  0  0  0  0
   59.3330   28.4360   46.5390 C   0  0  0  0  0  0  0  0  0  0  0  0
   58.2400   28.9490   45.8370 C   0  0  0  0  0  0  0  0  0  0  0  0
   58.2838   29.9677   45.4243 H   0  0  0  0  0  0  0  0  0  0  0  0
   57.0890   28.1730   45.6560 C   0  0  0  0  0  0  0  0  0  0  0  0
   55.9580   28.7540   44.9900 N   0  0  0  0  0  0  0  0  0  0  0  0
   55.9920   29.8450   44.0560 C   0  0  0  0  0  0  0  0  0  0  0  0
   55.9590   29.5910   42.8240 O   0  0  0  0  0  0  0  0  0  0  0  0
   56.0320   31.2150   44.4830 N   0  0  0  0  0  0  0  0  0  0  0  0
   57.1030   31.9360   44.6550 C   0  0  0  0  0  0  0  0  0  0  0  0
   57.5970   32.4250   45.8500 C   0  0  0  0  0  0  0  0  0  0  0  0
   57.2111   32.2517   46.8654 H   0  0  0  0  0  0  0  0  0  0  0  0
   58.6940   33.1860   45.4690 C   0  0  0  0  0  0  0  0  0  0  0  0
   59.5690   34.0050   46.4020 C   0  0  0  0  0  0  0  0  0  0  0  0
   58.9830   34.0100   47.8300 C   0  0  0  0  0  0  0  0  0  0  0  0
   59.8032   34.0030   48.5629 H   0  0  0  0  0  0  0  0  0  0  0  0
   58.3718   34.9134   47.9724 H   0  0  0  0  0  0  0  0  0  0  0  0
   58.3564   33.1172   47.9724 H   0  0  0  0  0  0  0  0  0  0  0  0
   60.9820   33.3930   46.4440 C   0  0  0  0  0  0  0  0  0  0  0  0
   61.2924   33.2586   47.4907 H   0  0  0  0  0  0  0  0  0  0  0  0
   60.9744   32.4175   45.9356 H   0  0  0  0  0  0  0  0  0  0  0  0
   61.6883   34.0659   45.9356 H   0  0  0  0  0  0  0  0  0  0  0  0
   59.6460   35.4540   45.8860 C   0  0  0  0  0  0  0  0  0  0  0  0
   59.6828   36.1460   46.7403 H   0  0  0  0  0  0  0  0  0  0  0  0
   60.5520   35.5778   45.2746 H   0  0  0  0  0  0  0  0  0  0  0  0
   58.7582   35.6732   45.2746 H   0  0  0  0  0  0  0  0  0  0  0  0
   58.8510   33.1210   44.1280 N   0  0  0  0  0  0  0  0  0  0  0  0
   57.8950   32.3430   43.6470 N   0  0  0  0  0  0  0  0  0  0  0  0
   57.6880   32.1010   42.2230 C   0  0  0  0  0  0  0  0  0  0  0  0
   56.9781   31.2711   42.0915 H   0  0  0  0  0  0  0  0  0  0  0  0
   57.2824   33.0086   41.7520 H   0  0  0  0  0  0  0  0  0  0  0  0
   58.6474   31.8409   41.7520 H   0  0  0  0  0  0  0  0  0  0  0  0
   57.0670   26.8500   46.1330 C   0  0  0  0  0  0  0  0  0  0  0  0
   56.1796   26.2229   45.9619 H   0  0  0  0  0  0  0  0  0  0  0  0
   58.1660   26.3250   46.8240 C   0  0  0  0  0  0  0  0  0  0  0  0
   58.0850   24.9880   47.3400 N   0  0  0  0  0  0  0  0  0  0  0  0
   57.0530   24.0320   47.0650 C   0  0  0  0  0  0  0  0  0  0  0  0
   56.2570   23.7210   47.9900 O   0  0  0  0  0  0  0  0  0  0  0  0
   56.8650   23.4430   45.7170 C   0  0  0  0  0  0  0  0  0  0  0  0
   57.7260   22.4360   45.2430 C   0  0  0  0  0  0  0  0  0  0  0  0
   58.5508   22.0781   45.8767 H   0  0  0  0  0  0  0  0  0  0  0  0
   57.5380   21.8880   43.9700 C   0  0  0  0  0  0  0  0  0  0  0  0
   58.2082   21.0937   43.6097 H   0  0  0  0  0  0  0  0  0  0  0  0
   56.5000   22.3480   43.1550 C   0  0  0  0  0  0  0  0  0  0  0  0
   56.3190   21.8140   41.9220 F   0  0  0  0  0  0  0  0  0  0  0  0
   55.6530   23.3610   43.6090 C   0  0  0  0  0  0  0  0  0  0  0  0
   54.8406   23.7277   42.9643 H   0  0  0  0  0  0  0  0  0  0  0  0
   55.8360   23.9100   44.8820 C   0  0  0  0  0  0  0  0  0  0  0  0
   55.1701   24.7126   45.2319 H   0  0  0  0  0  0  0  0  0  0  0  0
   59.2930   27.1350   47.0460 C   0  0  0  0  0  0  0  0  0  0  0  0
   60.1455   26.7435   47.6204 H   0  0  0  0  0  0  0  0  0  0  0  0
  1  2  1  0
  2  3  2  0
  3  4  1  0
  3  5  1  0
  5  6  1  0
  6  7  1  0
  7  8  2  0
  7  9  1  0
  9 10  2  0
 10 11  1  0
 11 12  1  0
 11 13  2  0
 13 14  1  0
 14 15  1  0
 15 16  1  0
 15 17  1  0
 15 18  1  0
 14 19  1  0
 19 20  1  0
 19 21  1  0
 19 22  1  0
 14 23  1  0
 23 24  1  0
 23 25  1  0
 23 26  1  0
 13 27  1  0
 27 28  1  0
 28 29  1  0
 29 30  1  0
 29 31  1  0
 29 32  1  0
  5 33  2  0
 33 34  1  0
 33 35  1  0
 35 36  1  0
 36 37  1  0
 37 38  2  0
 37 39  1  0
 39 40  2  0
 40 41  1  0
 40 42  1  0
 42 43  1  0
 42 44  2  0
 44 45  1  0
 44 46  1  0
 46 47  1  0
 46 48  2  0
 48 49  1  0
 35 50  2  0
 50 51  1  0
 50  2  1  0
 28 10  1  0
 48 39  1  0
M  CHG  3   6  -1  27  -1  36  -1
M  END
>  <UniqueID>  (36) 
34

>  <SMILES>  (36) 
Cn1[n-]c(C(C)(C)C)c/c1=N\C(=O)[N-]c1cccc([N-]C(=O)c2ccc(F)cc2)c1

>  <Energy>  (36) 
93.45501258057844

>  <Genealogy>  (36) 
Cn1[n-]c(C(C)(C)C)cc1=NC(=O)[N-]c1cccc([N-]C(=O)c2ccc(F)cc2)c1 (protonated)
Cn1[n-]c(C(C)(C)C)c/c1=N\C(=O)[N-]c1cccc([N-]C(=O)c2ccc(F)cc2)c1 (cis-trans isomerization)
Cn1[n-]c(C(C)(C)C)c/c1=N\C(=O)[N-]c1cccc([N-]C(=O)c2ccc(F)cc2)c1 (3D coordinates assigned)
Cn1[n-]c(C(C)(C)C)c/c1=N\C(=O)[N-]c1cccc([N-]C(=O)c2ccc(F)cc2)c1 (optimized conformer: 93.45501258057844 kcal/mol)

>  <smiles>  (36) 
Cn1[nH]c(C(C)(C)C)cc1=NC(=O)Nc1cccc(NC(=O)c2ccc(F)cc2)c1

>  <score_type>  (36) 
oracle

>  <origin>  (36) 
adg

>  <m_score__min__energy>  (36) 
-13.02

>  <m_primary>  (36) 
energy

$$$$
36:0
     RDKit          3D

 34 36  0  0  0  0  0  0  0  0999 V2000
   59.2720   20.5030   45.6220 H   0  0  0  0  0  0  0  0  0  0  0  0
   59.0820   21.4830   45.7900 O   0  0  0  0  0  0  0  0  0  0  0  0
   57.9730   22.1160   45.2310 C   0  0  0  0  0  0  0  0  0  0  0  0
   57.6800   21.9240   43.8770 C   0  0  0  0  0  0  0  0  0  0  0  0
   58.3215   21.2748   43.2629 H   0  0  0  0  0  0  0  0  0  0  0  0
   56.5730   22.5560   43.3030 C   0  0  0  0  0  0  0  0  0  0  0  0
   56.3463   22.4050   42.2373 H   0  0  0  0  0  0  0  0  0  0  0  0
   55.7540   23.3790   44.0800 C   0  0  0  0  0  0  0  0  0  0  0  0
   54.8890   23.8805   43.6214 H   0  0  0  0  0  0  0  0  0  0  0  0
   56.0300   23.5690   45.4440 C   0  0  0  0  0  0  0  0  0  0  0  0
   55.1570   24.4640   46.2860 C   0  0  0  0  0  0  0  0  0  0  0  0
   54.1026   24.1981   46.1203 H   0  0  0  0  0  0  0  0  0  0  0  0
   55.4266   24.3246   47.3433 H   0  0  0  0  0  0  0  0  0  0  0  0
   55.3580   25.8720   45.9330 N   0  0  0  0  0  0  0  0  0  0  0  0
   56.4320   26.5860   46.1240 C   0  0  0  0  0  0  0  0  0  0  0  0
   56.4820   27.8390   45.6010 N   0  0  0  0  0  0  0  0  0  0  0  0
   57.5660   28.6500   45.7510 C   0  0  0  0  0  0  0  0  0  0  0  0
   57.5670   30.0090   45.1570 C   0  0  0  0  0  0  0  0  0  0  0  0
   57.7390   31.1010   45.9560 N   0  0  0  0  0  0  0  0  0  0  0  0
   57.7490   32.3680   45.4610 C   0  0  0  0  0  0  0  0  0  0  0  0
   57.8913   33.2220   46.1395 H   0  0  0  0  0  0  0  0  0  0  0  0
   57.5790   32.5850   44.0940 C   0  0  0  0  0  0  0  0  0  0  0  0
   57.5859   33.6073   43.6879 H   0  0  0  0  0  0  0  0  0  0  0  0
   57.4000   31.4900   43.2470 C   0  0  0  0  0  0  0  0  0  0  0  0
   57.2647   31.6456   42.1665 H   0  0  0  0  0  0  0  0  0  0  0  0
   57.3930   30.1960   43.7740 C   0  0  0  0  0  0  0  0  0  0  0  0
   57.2523   29.3292   43.1115 H   0  0  0  0  0  0  0  0  0  0  0  0
   58.6670   28.1690   46.4740 C   0  0  0  0  0  0  0  0  0  0  0  0
   59.5575   28.8000   46.6111 H   0  0  0  0  0  0  0  0  0  0  0  0
   58.6270   26.9190   47.0040 N   0  0  0  0  0  0  0  0  0  0  0  0
   57.5430   26.1160   46.8500 C   0  0  0  0  0  0  0  0  0  0  0  0
   57.5329   25.1072   47.2885 H   0  0  0  0  0  0  0  0  0  0  0  0
   57.1510   22.9410   46.0120 C   0  0  0  0  0  0  0  0  0  0  0  0
   57.3852   23.0973   47.0753 H   0  0  0  0  0  0  0  0  0  0  0  0
  1  2  1  0
  2  3  1  0
  3  4  2  0
  4  5  1  0
  4  6  1  0
  6  7  1  0
  6  8  2  0
  8  9  1  0
  8 10  1  0
 10 11  1  0
 11 12  1  0
 11 13  1  0
 11 14  1  0
 14 15  2  0
 15 16  1  0
 16 17  1  0
 17 18  1  0
 18 19  2  0
 19 20  1  0
 20 21  1  0
 20 22  2  0
 22 23  1  0
 22 24  1  0
 24 25  1  0
 24 26  2  0
 26 27  1  0
 17 28  2  0
 28 29  1  0
 28 30  1  0
 30 31  2  0
 31 32  1  0
 10 33  2  0
 33 34  1  0
 33  3  1  0
 31 15  1  0
 26 18  1  0
M  CHG  1  16  -1
M  END
>  <UniqueID>  (37) 
35

>  <SMILES>  (37) 
Oc1cccc(C/N=c2\cncc(-c3ccccn3)[n-]2)c1

>  <Energy>  (37) 
41.98634235259039

>  <Genealogy>  (37) 
Oc1cccc(CN=c2cncc(-c3ccccn3)[n-]2)c1 (protonated)
Oc1cccc(C/N=c2\cncc(-c3ccccn3)[n-]2)c1 (cis-trans isomerization)
Oc1cccc(C/N=c2\cncc(-c3ccccn3)[n-]2)c1 (3D coordinates assigned)
Oc1cccc(C/N=c2\cncc(-c3ccccn3)[n-]2)c1 (optimized conformer: 41.98634235259039 kcal/mol)

>  <smiles>  (37) 
Oc1cccc(CN=c2cncc(-c3ccccn3)[nH]2)c1

>  <score_type>  (37) 
oracle

>  <origin>  (37) 
adg

>  <m_score__min__energy>  (37) 
-9.4299999999999997

>  <m_primary>  (37) 
energy

$$$$
37:0
     RDKit          3D

 55 57  0  0  0  0  0  0  0  0999 V2000
   56.8990   24.3620   44.0630 C   0  0  0  0  0  0  0  0  0  0  0  0
   55.5440   24.2720   44.7590 C   0  0  0  0  0  0  0  0  0  0  0  0
   55.5040   25.1280   45.9970 C   0  0  0  0  0  0  0  0  0  0  0  0
   55.4560   26.4300   45.9730 N   0  0  0  0  0  0  0  0  0  0  0  0
   56.5870   27.2990   45.8310 C   0  0  0  0  0  0  0  0  0  0  0  0
   57.8690   26.8530   46.1720 C   0  0  0  0  0  0  0  0  0  0  0  0
   58.9720   27.6950   46.0300 C   0  0  0  0  0  0  0  0  0  0  0  0
   60.2330   27.2180   46.3850 O   0  0  0  0  0  0  0  0  0  0  0  0
   58.8000   29.0060   45.5500 C   0  0  0  0  0  0  0  0  0  0  0  0
   59.9120   29.8570   45.4920 O   0  0  0  0  0  0  0  0  0  0  0  0
   60.1580   30.8820   46.4590 C   0  0  0  0  0  0  0  0  0  0  0  0
   60.3930   30.2770   47.8110 C   0  0  0  0  0  0  0  0  0  0  0  0
   60.9850   29.1680   47.9110 O   0  0  0  0  0  0  0  0  0  0  0  0
   59.9760   30.9790   48.9840 N   0  0  0  0  0  0  0  0  0  0  0  0
   60.2400   32.3950   49.1940 C   0  0  0  0  0  0  0  0  0  0  0  0
   61.5970   32.7340   48.6510 C   0  0  0  0  0  0  0  0  0  0  0  0
   61.7290   33.4660   47.4590 C   0  0  0  0  0  0  0  0  0  0  0  0
   62.9980   33.7740   46.9590 C   0  0  0  0  0  0  0  0  0  0  0  0
   64.1400   33.3740   47.6520 C   0  0  0  0  0  0  0  0  0  0  0  0
   64.0170   32.6700   48.8540 C   0  0  0  0  0  0  0  0  0  0  0  0
   62.7510   32.3520   49.3540 C   0  0  0  0  0  0  0  0  0  0  0  0
   57.5180   29.4400   45.1320 C   0  0  0  0  0  0  0  0  0  0  0  0
   57.3240   30.7710   44.5070 C   0  0  0  0  0  0  0  0  0  0  0  0
   57.4160   30.8850   43.2560 O   0  0  0  0  0  0  0  0  0  0  0  0
   56.9720   31.9280   45.2800 N   0  0  0  0  0  0  0  0  0  0  0  0
   57.8190   33.0550   45.5410 C   0  0  0  0  0  0  0  0  0  0  0  0
   58.4420   33.7610   44.4970 C   0  0  0  0  0  0  0  0  0  0  0  0
   59.2570   34.8610   44.7800 C   0  0  0  0  0  0  0  0  0  0  0  0
   59.4480   35.2680   46.1030 C   0  0  0  0  0  0  0  0  0  0  0  0
   58.8160   34.5820   47.1440 C   0  0  0  0  0  0  0  0  0  0  0  0
   57.9970   33.4850   46.8640 C   0  0  0  0  0  0  0  0  0  0  0  0
   57.3900   32.8250   47.8820 F   0  0  0  0  0  0  0  0  0  0  0  0
   56.4160   28.5750   45.2810 C   0  0  0  0  0  0  0  0  0  0  0  0
   55.1450   28.9760   44.8800 O   0  0  0  0  0  0  0  0  0  0  0  0
   57.6966   24.4150   44.8187 H   0  0  0  0  0  0  0  0  0  0  0  0
   57.0481   23.4718   43.4343 H   0  0  0  0  0  0  0  0  0  0  0  0
   56.9291   25.2641   43.4343 H   0  0  0  0  0  0  0  0  0  0  0  0
   54.7616   24.6110   44.0641 H   0  0  0  0  0  0  0  0  0  0  0  0
   55.3762   23.2262   45.0558 H   0  0  0  0  0  0  0  0  0  0  0  0
   55.5160   24.6265   46.9760 H   0  0  0  0  0  0  0  0  0  0  0  0
   58.0078   25.8311   46.5547 H   0  0  0  0  0  0  0  0  0  0  0  0
   61.0170   27.8360   46.5570 H   0  0  0  0  0  0  0  0  0  0  0  0
   61.0464   31.4575   46.1597 H   0  0  0  0  0  0  0  0  0  0  0  0
   59.2803   31.5431   46.5106 H   0  0  0  0  0  0  0  0  0  0  0  0
   59.4766   32.9919   48.6735 H   0  0  0  0  0  0  0  0  0  0  0  0
   60.2080   32.6194   50.2704 H   0  0  0  0  0  0  0  0  0  0  0  0
   60.8310   33.7979   46.9173 H   0  0  0  0  0  0  0  0  0  0  0  0
   63.0956   34.3332   46.0168 H   0  0  0  0  0  0  0  0  0  0  0  0
   65.1372   33.6121   47.2534 H   0  0  0  0  0  0  0  0  0  0  0  0
   64.9180   32.3660   49.4069 H   0  0  0  0  0  0  0  0  0  0  0  0
   62.6584   31.8007   50.3013 H   0  0  0  0  0  0  0  0  0  0  0  0
   58.2877   33.4469   43.4542 H   0  0  0  0  0  0  0  0  0  0  0  0
   59.7482   35.4064   43.9607 H   0  0  0  0  0  0  0  0  0  0  0  0
   60.0960   36.1286   46.3253 H   0  0  0  0  0  0  0  0  0  0  0  0
   58.9635   34.9060   48.1848 H   0  0  0  0  0  0  0  0  0  0  0  0
  1  2  1  0
  2  3  1  0
  3  4  2  3
  4  5  1  0
  5  6  2  0
  6  7  1  0
  7  8  1  0
  7  9  2  0
  9 10  1  0
 10 11  1  0
 11 12  1  0
 12 13  2  0
 12 14  1  0
 14 15  1  0
 15 16  1  0
 16 17  2  0
 17 18  1  0
 18 19  2  0
 19 20  1  0
 20 21  2  0
  9 22  1  0
 22 23  1  0
 23 24  2  0
 23 25  1  0
 25 26  1  0
 26 27  2  0
 27 28  1  0
 28 29  2  0
 29 30  1  0
 30 31  2  0
 31 32  1  0
 22 33  2  0
 33 34  1  0
 33  5  1  0
 21 16  1  0
 31 26  1  0
  1 35  1  0
  1 36  1  0
  1 37  1  0
  2 38  1  0
  2 39  1  0
  3 40  1  0
  6 41  1  0
  8 42  1  0
 11 43  1  0
 11 44  1  0
 15 45  1  0
 15 46  1  0
 17 47  1  0
 18 48  1  0
 19 49  1  0
 20 50  1  0
 21 51  1  0
 27 52  1  0
 28 53  1  0
 29 54  1  0
 30 55  1  0
M  CHG  3  14  -1  25  -1  34  -1
M  END
>  <UniqueID>  (38) 
36

>  <SMILES>  (38) 
CCC=Nc1cc(O)c(OCC(=O)[N-]Cc2ccccc2)c(C(=O)[N-]c2ccccc2F)c1[O-]

>  <Energy>  (38) 
68.43949528980892

>  <Genealogy>  (38) 
CCC=Nc1cc(O)c(OCC(=O)[N-]Cc2ccccc2)c(C(=O)[N-]c2ccccc2F)c1[O-] (protonated)
CCC=Nc1cc(O)c(OCC(=O)[N-]Cc2ccccc2)c(C(=O)[N-]c2ccccc2F)c1[O-] (3D coordinates assigned)
CCC=Nc1cc(O)c(OCC(=O)[N-]Cc2ccccc2)c(C(=O)[N-]c2ccccc2F)c1[O-] (optimized conformer: 68.43949528980892 kcal/mol)

>  <smiles>  (38) 
CCC=Nc1cc(O)c(OCC(=O)NCc2ccccc2)c(C(=O)Nc2ccccc2F)c1O

>  <score_type>  (38) 
oracle

>  <origin>  (38) 
adg

>  <m_score__min__energy>  (38) 
-14.59

>  <m_primary>  (38) 
energy

$$$$
38:0
     RDKit          3D

 48 51  0  0  0  0  0  0  0  0999 V2000
   54.4710   23.7130   44.2530 C   0  0  0  0  0  0  0  0  0  0  0  0
   54.2800   24.4580   45.5690 C   0  0  0  0  0  0  0  0  0  0  0  0
   55.5300   24.4720   46.3310 N   0  0  0  0  0  0  0  0  0  0  0  0
   55.9930   23.5230   47.1840 C   0  0  0  0  0  0  0  0  0  0  0  0
   55.3990   22.4330   47.3940 O   0  0  0  0  0  0  0  0  0  0  0  0
   57.1570   23.8520   47.8010 N   0  0  0  0  0  0  0  0  0  0  0  0
   57.4120   25.0780   47.3040 C   0  0  0  0  0  0  0  0  0  0  0  0
   58.4900   25.9030   47.6050 C   0  0  0  0  0  0  0  0  0  0  0  0
   58.5500   27.1610   46.9790 C   0  0  0  0  0  0  0  0  0  0  0  0
   57.5320   27.5790   46.0770 C   0  0  0  0  0  0  0  0  0  0  0  0
   57.6270   28.9140   45.4320 C   0  0  0  0  0  0  0  0  0  0  0  0
   58.8610   29.5650   45.2590 C   0  0  0  0  0  0  0  0  0  0  0  0
   58.8990   30.8180   44.6450 C   0  0  0  0  0  0  0  0  0  0  0  0
   57.7160   31.4200   44.2000 C   0  0  0  0  0  0  0  0  0  0  0  0
   57.7350   32.7770   43.5470 C   0  0  0  0  0  0  0  0  0  0  0  0
   57.3800   33.8270   44.5130 N   0  0  0  0  0  0  0  0  0  0  0  0
   58.5520   34.5580   45.0250 C   0  0  0  0  0  0  0  0  0  0  0  0
   58.9620   34.0930   46.4030 C   0  0  0  0  0  0  0  0  0  0  0  0
   58.1920   33.1370   47.0850 C   0  0  0  0  0  0  0  0  0  0  0  0
   58.5630   32.7170   48.3670 C   0  0  0  0  0  0  0  0  0  0  0  0
   59.7040   33.2470   48.9750 C   0  0  0  0  0  0  0  0  0  0  0  0
   60.4760   34.1990   48.3020 C   0  0  0  0  0  0  0  0  0  0  0  0
   60.1090   34.6210   47.0210 C   0  0  0  0  0  0  0  0  0  0  0  0
   56.5060   30.7360   44.3770 C   0  0  0  0  0  0  0  0  0  0  0  0
   56.4930   29.5170   44.9790 N   0  0  0  0  0  0  0  0  0  0  0  0
   56.4560   26.7020   45.7930 C   0  0  0  0  0  0  0  0  0  0  0  0
   56.4360   25.4590   46.4300 C   0  0  0  0  0  0  0  0  0  0  0  0
   54.7393   22.6664   44.4597 H   0  0  0  0  0  0  0  0  0  0  0  0
   53.5358   23.7444   43.6748 H   0  0  0  0  0  0  0  0  0  0  0  0
   55.2758   24.1905   43.6748 H   0  0  0  0  0  0  0  0  0  0  0  0
   53.9716   25.4927   45.3588 H   0  0  0  0  0  0  0  0  0  0  0  0
   53.5061   23.9469   46.1605 H   0  0  0  0  0  0  0  0  0  0  0  0
   59.2709   25.5820   48.3101 H   0  0  0  0  0  0  0  0  0  0  0  0
   59.3962   27.8315   47.1898 H   0  0  0  0  0  0  0  0  0  0  0  0
   59.7907   29.0899   45.6053 H   0  0  0  0  0  0  0  0  0  0  0  0
   59.8612   31.3339   44.5104 H   0  0  0  0  0  0  0  0  0  0  0  0
   58.7435   32.9742   43.1546 H   0  0  0  0  0  0  0  0  0  0  0  0
   56.9978   32.7855   42.7307 H   0  0  0  0  0  0  0  0  0  0  0  0
   56.7290   34.5020   44.0480 H   0  0  0  0  0  0  0  0  0  0  0  0
   59.3943   34.4036   44.3346 H   0  0  0  0  0  0  0  0  0  0  0  0
   58.2800   35.6215   45.0962 H   0  0  0  0  0  0  0  0  0  0  0  0
   57.2936   32.7167   46.6094 H   0  0  0  0  0  0  0  0  0  0  0  0
   57.9556   31.9685   48.8970 H   0  0  0  0  0  0  0  0  0  0  0  0
   59.9948   32.9154   49.9827 H   0  0  0  0  0  0  0  0  0  0  0  0
   61.3736   34.6165   48.7815 H   0  0  0  0  0  0  0  0  0  0  0  0
   60.7199   35.3690   46.4945 H   0  0  0  0  0  0  0  0  0  0  0  0
   55.5648   31.1861   44.0282 H   0  0  0  0  0  0  0  0  0  0  0  0
   55.6597   26.9915   45.0915 H   0  0  0  0  0  0  0  0  0  0  0  0
  1  2  1  0
  2  3  1  0
  3  4  1  0
  4  5  2  0
  4  6  1  0
  6  7  1  0
  7  8  2  0
  8  9  1  0
  9 10  2  0
 10 11  1  0
 11 12  2  0
 12 13  1  0
 13 14  2  0
 14 15  1  0
 15 16  1  0
 16 17  1  0
 17 18  1  0
 18 19  2  0
 19 20  1  0
 20 21  2  0
 21 22  1  0
 22 23  2  0
 14 24  1  0
 24 25  2  0
 10 26  1  0
 26 27  2  0
 27  3  1  0
 27  7  1  0
 25 11  1  0
 23 18  1  0
  1 28  1  0
  1 29  1  0
  1 30  1  0
  2 31  1  0
  2 32  1  0
  8 33  1  0
  9 34  1  0
 12 35  1  0
 13 36  1  0
 15 37  1  0
 15 38  1  0
 16 39  1  0
 17 40  1  0
 17 41  1  0
 19 42  1  0
 20 43  1  0
 21 44  1  0
 22 45  1  0
 23 46  1  0
 24 47  1  0
 26 48  1  0
M  CHG  1   6  -1
M  END
>  <UniqueID>  (39) 
37

>  <SMILES>  (39) 
CCn1c(=O)[n-]c2ccc(-c3ccc(CNCc4ccccc4)cn3)cc21

>  <Energy>  (39) 
91.45925209494135

>  <Genealogy>  (39) 
CCn1c(=O)[n-]c2ccc(-c3ccc(CNCc4ccccc4)cn3)cc21 (protonated)
CCn1c(=O)[n-]c2ccc(-c3ccc(CNCc4ccccc4)cn3)cc21 (3D coordinates assigned)
CCn1c(=O)[n-]c2ccc(-c3ccc(CNCc4ccccc4)cn3)cc21 (optimized conformer: 91.45925209494135 kcal/mol)

>  <smiles>  (39) 
CCn1c(=O)[nH]c2ccc(-c3ccc(CNCc4ccccc4)cn3)cc21

>  <score_type>  (39) 
oracle

>  <origin>  (39) 
adg

>  <m_score__min__energy>  (39) 
-9.5500000000000007

>  <m_primary>  (39) 
energy

$$$$
39:0
     RDKit          3D

 37 39  0  0  0  0  0  0  0  0999 V2000
   54.7680   27.1220   45.9550 H   0  0  0  0  0  0  0  0  0  0  0  0
   54.4560   26.1690   45.8090 O   0  0  0  0  0  0  0  0  0  0  0  0
   55.3410   25.1620   45.4240 C   0  0  0  0  0  0  0  0  0  0  0  0
   54.8540   23.8850   45.1050 C   0  0  0  0  0  0  0  0  0  0  0  0
   53.7733   23.6842   45.1472 H   0  0  0  0  0  0  0  0  0  0  0  0
   55.7370   22.8680   44.7340 C   0  0  0  0  0  0  0  0  0  0  0  0
   55.3512   21.8678   44.4874 H   0  0  0  0  0  0  0  0  0  0  0  0
   57.1110   23.1210   44.6760 C   0  0  0  0  0  0  0  0  0  0  0  0
   58.2190   21.8360   44.2330 Cl  0  0  0  0  0  0  0  0  0  0  0  0
   57.6010   24.3950   44.9780 C   0  0  0  0  0  0  0  0  0  0  0  0
   58.6813   24.5940   44.9192 H   0  0  0  0  0  0  0  0  0  0  0  0
   56.7210   25.4220   45.3560 C   0  0  0  0  0  0  0  0  0  0  0  0
   57.3470   27.0200   45.7690 S   0  0  0  0  0  0  0  0  0  0  0  0
   57.5220   27.1680   47.2540 O   0  0  0  0  0  0  0  0  0  0  0  0
   58.6850   27.2050   45.1090 O   0  0  0  0  0  0  0  0  0  0  0  0
   56.2570   28.2430   45.1960 N   0  0  0  0  0  0  0  0  0  0  0  0
   56.6500   29.4450   44.5190 C   0  0  0  0  0  0  0  0  0  0  0  0
   56.6010   29.4750   43.1190 C   0  0  0  0  0  0  0  0  0  0  0  0
   56.2818   28.5804   42.5641 H   0  0  0  0  0  0  0  0  0  0  0  0
   56.9550   30.6340   42.4230 C   0  0  0  0  0  0  0  0  0  0  0  0
   56.9146   30.6485   41.3238 H   0  0  0  0  0  0  0  0  0  0  0  0
   57.3600   31.7740   43.1210 C   0  0  0  0  0  0  0  0  0  0  0  0
   57.6330   32.6866   42.5709 H   0  0  0  0  0  0  0  0  0  0  0  0
   57.4190   31.7570   44.5190 C   0  0  0  0  0  0  0  0  0  0  0  0
   57.8810   33.2160   45.3940 S   0  0  0  0  0  0  0  0  0  0  0  0
   57.4000   33.1060   46.8130 O   0  0  0  0  0  0  0  0  0  0  0  0
   57.2620   34.4340   44.7660 O   0  0  0  0  0  0  0  0  0  0  0  0
   59.6060   33.3860   45.3840 N   0  0  0  0  0  0  0  0  0  0  0  0
   60.3120   33.5470   46.4600 C   0  0  0  0  0  0  0  0  0  0  0  0
   61.4470   32.8660   46.7300 N   0  0  0  0  0  0  0  0  0  0  0  0
   61.9640   33.2270   47.9330 C   0  0  0  0  0  0  0  0  0  0  0  0
   62.8854   32.7815   48.3363 H   0  0  0  0  0  0  0  0  0  0  0  0
   61.2450   34.2000   48.6180 C   0  0  0  0  0  0  0  0  0  0  0  0
   61.5048   34.6224   49.5999 H   0  0  0  0  0  0  0  0  0  0  0  0
   59.9080   34.6200   47.6850 S   0  0  0  0  0  0  0  0  0  0  0  0
   57.0710   30.5920   45.2150 C   0  0  0  0  0  0  0  0  0  0  0  0
   57.1275   30.5744   46.3134 H   0  0  0  0  0  0  0  0  0  0  0  0
  1  2  1  0
  2  3  1  0
  3  4  2  0
  4  5  1  0
  4  6  1  0
  6  7  1  0
  6  8  2  0
  8  9  1  0
  8 10  1  0
 10 11  1  0
 10 12  2  0
 12 13  1  0
 13 14  2  0
 13 15  2  0
 13 16  1  0
 16 17  1  0
 17 18  2  0
 18 19  1  0
 18 20  1  0
 20 21  1  0
 20 22  2  0
 22 23  1  0
 22 24  1  0
 24 25  1  0
 25 26  2  0
 25 27  2  0
 25 28  1  0
 28 29  2  0
 29 30  1  0
 30 31  1  0
 31 32  1  0
 31 33  2  0
 33 34  1  0
 33 35  1  0
 24 36  2  0
 36 37  1  0
 12  3  1  0
 36 17  1  0
 35 29  1  0
M  CHG  2  16  -1  30  -1
M  END
>  <UniqueID>  (40) 
38

>  <SMILES>  (40) 
O=S(=O)(/N=c1\[n-]ccs1)c1cccc([N-]S(=O)(=O)c2cc(Cl)ccc2O)c1

>  <Energy>  (40) 
72.97183725635313

>  <Genealogy>  (40) 
O=S(=O)(N=c1[n-]ccs1)c1cccc([N-]S(=O)(=O)c2cc(Cl)ccc2O)c1 (protonated)
O=S(=O)(/N=c1\[n-]ccs1)c1cccc([N-]S(=O)(=O)c2cc(Cl)ccc2O)c1 (cis-trans isomerization)
O=S(=O)(/N=c1\[n-]ccs1)c1cccc([N-]S(=O)(=O)c2cc(Cl)ccc2O)c1 (3D coordinates assigned)
O=S(=O)(/N=c1\[n-]ccs1)c1cccc([N-]S(=O)(=O)c2cc(Cl)ccc2O)c1 (optimized conformer: 72.97183725635313 kcal/mol)

>  <smiles>  (40) 
O=S(=O)(N=c1[nH]ccs1)c1cccc(NS(=O)(=O)c2cc(Cl)ccc2O)c1

>  <score_type>  (40) 
oracle

>  <origin>  (40) 
adg

>  <m_score__min__energy>  (40) 
-12.289999999999999

>  <m_primary>  (40) 
energy

$$$$
40:0
     RDKit          3D

 67 71  0  0  0  0  0  0  0  0999 V2000
   54.4330   25.3460   45.6650 O   0  0  0  0  0  0  0  0  0  0  0  0
   54.7500   24.1950   45.2570 C   0  0  0  0  0  0  0  0  0  0  0  0
   53.7300   23.2970   44.8000 N   0  0  0  0  0  0  0  0  0  0  0  0
   52.4270   23.1430   45.3810 C   0  0  0  0  0  0  0  0  0  0  0  0
   51.2580   23.4830   44.6710 C   0  0  0  0  0  0  0  0  0  0  0  0
   49.9990   23.2640   45.2430 C   0  0  0  0  0  0  0  0  0  0  0  0
   49.8970   22.7150   46.5220 C   0  0  0  0  0  0  0  0  0  0  0  0
   51.0530   22.3790   47.2310 C   0  0  0  0  0  0  0  0  0  0  0  0
   52.3120   22.5780   46.6600 C   0  0  0  0  0  0  0  0  0  0  0  0
   53.4240   22.2260   47.3560 F   0  0  0  0  0  0  0  0  0  0  0  0
   56.1680   23.7500   45.2780 C   0  0  0  0  0  0  0  0  0  0  0  0
   56.4950   22.4870   44.7500 C   0  0  0  0  0  0  0  0  0  0  0  0
   57.8170   22.0350   44.7440 C   0  0  0  0  0  0  0  0  0  0  0  0
   58.8330   22.8390   45.2540 C   0  0  0  0  0  0  0  0  0  0  0  0
   58.5280   24.0880   45.7990 C   0  0  0  0  0  0  0  0  0  0  0  0
   57.1950   24.5390   45.8500 C   0  0  0  0  0  0  0  0  0  0  0  0
   56.8830   25.7920   46.4870 N   0  0  0  0  0  0  0  0  0  0  0  0
   56.9530   27.0840   45.8650 C   0  0  0  0  0  0  0  0  0  0  0  0
   55.8820   27.6940   45.6140 O   0  0  0  0  0  0  0  0  0  0  0  0
   58.2520   27.7390   45.5820 C   0  0  0  0  0  0  0  0  0  0  0  0
   59.4310   27.1480   46.0710 C   0  0  0  0  0  0  0  0  0  0  0  0
   60.6740   27.7410   45.8390 C   0  0  0  0  0  0  0  0  0  0  0  0
   60.7570   28.9380   45.1270 C   0  0  0  0  0  0  0  0  0  0  0  0
   59.5970   29.5510   44.6510 C   0  0  0  0  0  0  0  0  0  0  0  0
   58.3380   28.9590   44.8650 C   0  0  0  0  0  0  0  0  0  0  0  0
   57.1610   29.5940   44.2430 C   0  0  0  0  0  0  0  0  0  0  0  0
   56.6480   29.0780   43.2040 O   0  0  0  0  0  0  0  0  0  0  0  0
   56.5900   30.7750   44.8090 N   0  0  0  0  0  0  0  0  0  0  0  0
   57.3870   31.9020   45.1950 C   0  0  0  0  0  0  0  0  0  0  0  0
   57.5020   33.0050   44.3380 C   0  0  0  0  0  0  0  0  0  0  0  0
   58.3110   34.0890   44.6900 C   0  0  0  0  0  0  0  0  0  0  0  0
   59.0350   34.0690   45.8890 C   0  0  0  0  0  0  0  0  0  0  0  0
   58.9440   32.9600   46.7460 C   0  0  0  0  0  0  0  0  0  0  0  0
   59.8970   32.8870   48.2330 S   0  0  0  0  0  0  0  0  0  0  0  0
   60.1710   31.4450   48.5800 O   0  0  0  0  0  0  0  0  0  0  0  0
   59.0910   33.4870   49.3540 O   0  0  0  0  0  0  0  0  0  0  0  0
   61.4120   33.7470   48.0710 N   0  0  0  0  0  0  0  0  0  0  0  0
   62.0240   33.4800   46.7540 C   0  0  0  0  0  0  0  0  0  0  0  0
   63.5240   33.8360   46.7640 C   0  0  0  0  0  0  0  0  0  0  0  0
   64.2880   33.1680   47.7600 O   0  0  0  0  0  0  0  0  0  0  0  0
   63.5070   32.5810   48.7900 C   0  0  0  0  0  0  0  0  0  0  0  0
   62.3190   33.4630   49.2040 C   0  0  0  0  0  0  0  0  0  0  0  0
   58.1210   31.8850   46.3950 C   0  0  0  0  0  0  0  0  0  0  0  0
   51.3349   23.9215   43.6651 H   0  0  0  0  0  0  0  0  0  0  0  0
   49.0887   23.5251   44.6834 H   0  0  0  0  0  0  0  0  0  0  0  0
   48.9072   22.5470   46.9715 H   0  0  0  0  0  0  0  0  0  0  0  0
   50.9713   21.9560   48.2431 H   0  0  0  0  0  0  0  0  0  0  0  0
   55.7003   21.8482   44.3372 H   0  0  0  0  0  0  0  0  0  0  0  0
   58.0557   21.0419   44.3355 H   0  0  0  0  0  0  0  0  0  0  0  0
   59.8759   22.4903   45.2276 H   0  0  0  0  0  0  0  0  0  0  0  0
   59.3350   24.7242   46.1914 H   0  0  0  0  0  0  0  0  0  0  0  0
   59.3734   26.2095   46.6418 H   0  0  0  0  0  0  0  0  0  0  0  0
   61.5894   27.2634   46.2184 H   0  0  0  0  0  0  0  0  0  0  0  0
   61.7381   29.3992   44.9405 H   0  0  0  0  0  0  0  0  0  0  0  0
   59.6671   30.5033   44.1049 H   0  0  0  0  0  0  0  0  0  0  0  0
   56.9534   33.0176   43.3846 H   0  0  0  0  0  0  0  0  0  0  0  0
   58.3794   34.9611   44.0230 H   0  0  0  0  0  0  0  0  0  0  0  0
   59.6749   34.9219   46.1594 H   0  0  0  0  0  0  0  0  0  0  0  0
   61.9083   32.4131   46.5124 H   0  0  0  0  0  0  0  0  0  0  0  0
   61.5197   34.1009   45.9989 H   0  0  0  0  0  0  0  0  0  0  0  0
   63.9436   33.5781   45.7804 H   0  0  0  0  0  0  0  0  0  0  0  0
   63.5862   34.9099   46.9939 H   0  0  0  0  0  0  0  0  0  0  0  0
   63.1212   31.6148   48.4328 H   0  0  0  0  0  0  0  0  0  0  0  0
   64.1543   32.4579   49.6708 H   0  0  0  0  0  0  0  0  0  0  0  0
   61.7511   32.9455   49.9912 H   0  0  0  0  0  0  0  0  0  0  0  0
   62.7199   34.4220   49.5639 H   0  0  0  0  0  0  0  0  0  0  0  0
   58.0468   31.0159   47.0652 H   0  0  0  0  0  0  0  0  0  0  0  0
  1  2  2  0
  2  3  1  0
  3  4  1  0
  4  5  2  0
  5  6  1  0
  6  7  2  0
  7  8  1  0
  8  9  2  0
  9 10  1  0
  2 11  1  0
 11 12  2  0
 12 13  1  0
 13 14  2  0
 14 15  1  0
 15 16  2  0
 16 17  1  0
 17 18  1  0
 18 19  2  0
 18 20  1  0
 20 21  2  0
 21 22  1  0
 22 23  2  0
 23 24  1  0
 24 25  2  0
 25 26  1  0
 26 27  2  0
 26 28  1  0
 28 29  1  0
 29 30  2  0
 30 31  1  0
 31 32  2  0
 32 33  1  0
 33 34  1  0
 34 35  2  0
 34 36  2  0
 34 37  1  0
 37 38  1  0
 38 39  1  0
 39 40  1  0
 40 41  1  0
 41 42  1  0
 33 43  2  0
  9  4  1  0
 16 11  1  0
 25 20  1  0
 43 29  1  0
 42 37  1  0
  5 44  1  0
  6 45  1  0
  7 46  1  0
  8 47  1  0
 12 48  1  0
 13 49  1  0
 14 50  1  0
 15 51  1  0
 21 52  1  0
 22 53  1  0
 23 54  1  0
 24 55  1  0
 30 56  1  0
 31 57  1  0
 32 58  1  0
 38 59  1  0
 38 60  1  0
 39 61  1  0
 39 62  1  0
 41 63  1  0
 41 64  1  0
 42 65  1  0
 42 66  1  0
 43 67  1  0
M  CHG  3   3  -1  17  -1  28  -1
M  END
>  <UniqueID>  (41) 
39

>  <SMILES>  (41) 
O=C([N-]c1ccccc1F)c1ccccc1[N-]C(=O)c1ccccc1C(=O)[N-]c1cccc(S(=O)(=O)N2CCOCC2)c1

>  <Energy>  (41) 
112.19145455117173

>  <Genealogy>  (41) 
O=C([N-]c1ccccc1F)c1ccccc1[N-]C(=O)c1ccccc1C(=O)[N-]c1cccc(S(=O)(=O)N2CCOCC2)c1 (protonated)
O=C([N-]c1ccccc1F)c1ccccc1[N-]C(=O)c1ccccc1C(=O)[N-]c1cccc(S(=O)(=O)N2CCOCC2)c1 (3D coordinates assigned)
O=C([N-]c1ccccc1F)c1ccccc1[N-]C(=O)c1ccccc1C(=O)[N-]c1cccc(S(=O)(=O)N2CCOCC2)c1 (nonaromatic ring conformer: 112.19145455117173 kcal/mol)

>  <smiles>  (41) 
O=C(Nc1ccccc1F)c1ccccc1NC(=O)c1ccccc1C(=O)Nc1cccc(S(=O)(=O)N2CCOCC2)c1

>  <score_type>  (41) 
oracle

>  <origin>  (41) 
adg

>  <m_score__min__energy>  (41) 
-16.43

>  <m_primary>  (41) 
energy

$$$$
41:0
     RDKit          3D

 41 44  0  0  0  0  0  0  0  0999 V2000
   55.3750   26.4450   46.0200 N   0  0  0  0  0  0  0  0  0  0  0  0
   57.0880   26.3200   46.2060 S   0  0  0  0  0  0  0  0  0  0  0  0
   57.3960   25.6230   47.5020 O   0  0  0  0  0  0  0  0  0  0  0  0
   57.6690   25.5290   45.0690 O   0  0  0  0  0  0  0  0  0  0  0  0
   57.7840   27.9040   46.2240 N   0  0  0  0  0  0  0  0  0  0  0  0
   58.9060   28.2120   46.8540 N   0  0  0  0  0  0  0  0  0  0  0  0
   59.1280   29.5330   46.6700 C   0  0  0  0  0  0  0  0  0  0  0  0
   60.2630   30.2410   47.2870 C   0  0  0  0  0  0  0  0  0  0  0  0
   60.6470   30.1030   48.6180 C   0  0  0  0  0  0  0  0  0  0  0  0
   61.7350   30.9330   48.7620 C   0  0  0  0  0  0  0  0  0  0  0  0
   62.5260   31.2090   49.8760 C   0  0  0  0  0  0  0  0  0  0  0  0
   63.5920   32.1130   49.7160 C   0  0  0  0  0  0  0  0  0  0  0  0
   63.8400   32.7110   48.4600 C   0  0  0  0  0  0  0  0  0  0  0  0
   63.0240   32.4120   47.3540 C   0  0  0  0  0  0  0  0  0  0  0  0
   61.9740   31.5150   47.5450 C   0  0  0  0  0  0  0  0  0  0  0  0
   61.0850   31.0930   46.6290 N   0  0  0  0  0  0  0  0  0  0  0  0
   58.0950   30.0840   45.9100 C   0  0  0  0  0  0  0  0  0  0  0  0
   57.8080   31.5290   45.5970 C   0  0  0  0  0  0  0  0  0  0  0  0
   58.4740   32.4430   46.5920 C   0  0  0  0  0  0  0  0  0  0  0  0
   59.3140   33.4830   46.1580 C   0  0  0  0  0  0  0  0  0  0  0  0
   59.9440   34.3160   47.0870 C   0  0  0  0  0  0  0  0  0  0  0  0
   59.7300   34.1280   48.4540 C   0  0  0  0  0  0  0  0  0  0  0  0
   58.8810   33.1070   48.9000 C   0  0  0  0  0  0  0  0  0  0  0  0
   58.6550   32.9140   50.2600 O   0  0  0  0  0  0  0  0  0  0  0  0
   58.2520   32.2710   47.9700 C   0  0  0  0  0  0  0  0  0  0  0  0
   57.2700   29.0080   45.6590 C   0  0  0  0  0  0  0  0  0  0  0  0
   56.1810   29.0420   45.0260 O   0  0  0  0  0  0  0  0  0  0  0  0
   55.1430   27.4640   46.0000 H   0  0  0  0  0  0  0  0  0  0  0  0
   60.1820   29.4687   49.3870 H   0  0  0  0  0  0  0  0  0  0  0  0
   62.3234   30.7356   50.8481 H   0  0  0  0  0  0  0  0  0  0  0  0
   64.2363   32.3558   50.5738 H   0  0  0  0  0  0  0  0  0  0  0  0
   64.6772   33.4154   48.3464 H   0  0  0  0  0  0  0  0  0  0  0  0
   63.2082   32.8706   46.3713 H   0  0  0  0  0  0  0  0  0  0  0  0
   61.0700   31.3460   45.6180 H   0  0  0  0  0  0  0  0  0  0  0  0
   58.1844   31.7598   44.5895 H   0  0  0  0  0  0  0  0  0  0  0  0
   56.7209   31.6883   45.6500 H   0  0  0  0  0  0  0  0  0  0  0  0
   59.4764   33.6422   45.0818 H   0  0  0  0  0  0  0  0  0  0  0  0
   60.6093   35.1207   46.7408 H   0  0  0  0  0  0  0  0  0  0  0  0
   60.2295   34.7835   49.1826 H   0  0  0  0  0  0  0  0  0  0  0  0
   59.3830   32.5660   50.8740 H   0  0  0  0  0  0  0  0  0  0  0  0
   57.5793   31.4739   48.3195 H   0  0  0  0  0  0  0  0  0  0  0  0
  1  2  1  0
  2  3  2  0
  2  4  2  0
  2  5  1  0
  5  6  1  0
  6  7  1  0
  7  8  1  0
  8  9  2  0
  9 10  1  0
 10 11  2  0
 11 12  1  0
 12 13  2  0
 13 14  1  0
 14 15  2  0
 15 16  1  0
  7 17  2  0
 17 18  1  0
 18 19  1  0
 19 20  2  0
 20 21  1  0
 21 22  2  0
 22 23  1  0
 23 24  1  0
 23 25  2  0
 17 26  1  0
 26 27  2  0
 26  5  1  0
 16  8  1  0
 25 19  1  0
 15 10  1  0
  1 28  1  0
  9 29  1  0
 11 30  1  0
 12 31  1  0
 13 32  1  0
 14 33  1  0
 16 34  1  0
 18 35  1  0
 18 36  1  0
 20 37  1  0
 21 38  1  0
 22 39  1  0
 24 40  1  0
 25 41  1  0
M  CHG  2   1  -1   6  -1
M  END
>  <UniqueID>  (42) 
40

>  <SMILES>  (42) 
[NH-]S(=O)(=O)n1[n-]c(-c2cc3ccccc3[nH]2)c(Cc2cccc(O)c2)c1=O

>  <Energy>  (42) 
110.4957249139951

>  <Genealogy>  (42) 
[NH-]S(=O)(=O)n1[n-]c(-c2cc3ccccc3[nH]2)c(Cc2cccc(O)c2)c1=O (protonated)
[NH-]S(=O)(=O)n1[n-]c(-c2cc3ccccc3[nH]2)c(Cc2cccc(O)c2)c1=O (3D coordinates assigned)
[NH-]S(=O)(=O)n1[n-]c(-c2cc3ccccc3[nH]2)c(Cc2cccc(O)c2)c1=O (optimized conformer: 110.4957249139951 kcal/mol)

>  <smiles>  (42) 
NS(=O)(=O)n1[nH]c(-c2cc3ccccc3[nH]2)c(Cc2cccc(O)c2)c1=O

>  <score_type>  (42) 
oracle

>  <origin>  (42) 
adg

>  <m_score__min__energy>  (42) 
-12.52

>  <m_primary>  (42) 
energy

$$$$
42:0
     RDKit          3D

 55 58  0  0  0  0  0  0  0  0999 V2000
   56.1210   29.0420   45.0910 O   0  0  0  0  0  0  0  0  0  0  0  0
   57.1610   29.1940   45.7890 C   0  0  0  0  0  0  0  0  0  0  0  0
   57.7750   28.0550   46.4030 N   0  0  0  0  0  0  0  0  0  0  0  0
   57.6430   26.7920   46.0890 C   0  0  0  0  0  0  0  0  0  0  0  0
   58.7740   26.0350   46.0420 N   0  0  0  0  0  0  0  0  0  0  0  0
   58.7560   24.7100   45.7400 C   0  0  0  0  0  0  0  0  0  0  0  0
   57.5490   24.0720   45.4650 C   0  0  0  0  0  0  0  0  0  0  0  0
   56.3660   24.8040   45.5150 C   0  0  0  0  0  0  0  0  0  0  0  0
   56.3910   26.1670   45.8450 C   0  0  0  0  0  0  0  0  0  0  0  0
   55.1850   26.8570   45.9730 O   0  0  0  0  0  0  0  0  0  0  0  0
   57.7870   30.5310   45.9080 C   0  0  0  0  0  0  0  0  0  0  0  0
   57.7900   31.4120   44.8140 C   0  0  0  0  0  0  0  0  0  0  0  0
   58.4010   32.6650   44.9170 C   0  0  0  0  0  0  0  0  0  0  0  0
   59.0190   33.0550   46.1100 C   0  0  0  0  0  0  0  0  0  0  0  0
   59.8120   34.6260   46.1980 S   0  0  0  0  0  0  0  0  0  0  0  0
   59.2630   35.3830   47.3750 O   0  0  0  0  0  0  0  0  0  0  0  0
   59.5330   35.3760   44.9250 O   0  0  0  0  0  0  0  0  0  0  0  0
   61.5260   34.4340   46.3910 N   0  0  0  0  0  0  0  0  0  0  0  0
   62.1550   33.6550   47.4160 C   0  0  0  0  0  0  0  0  0  0  0  0
   62.3770   34.2410   48.6690 C   0  0  0  0  0  0  0  0  0  0  0  0
   62.9780   33.5120   49.6990 C   0  0  0  0  0  0  0  0  0  0  0  0
   63.3830   32.1870   49.4850 C   0  0  0  0  0  0  0  0  0  0  0  0
   63.9680   31.4080   50.5950 C   0  0  0  0  0  0  0  0  0  0  0  0
   65.2200   31.3790   50.7280 O   0  0  0  0  0  0  0  0  0  0  0  0
   63.1620   30.6710   51.5210 N   0  0  0  0  0  0  0  0  0  0  0  0
   61.8710   30.0720   51.2140 C   0  0  0  0  0  0  0  0  0  0  0  0
   60.8250   31.1460   51.1920 C   0  0  0  0  0  0  0  0  0  0  0  0
   59.6820   31.0060   50.3850 C   0  0  0  0  0  0  0  0  0  0  0  0
   58.6820   31.9810   50.4060 C   0  0  0  0  0  0  0  0  0  0  0  0
   58.8070   33.0960   51.2400 C   0  0  0  0  0  0  0  0  0  0  0  0
   59.9330   33.2350   52.0550 C   0  0  0  0  0  0  0  0  0  0  0  0
   60.9380   32.2630   52.0360 C   0  0  0  0  0  0  0  0  0  0  0  0
   63.1450   31.5910   48.2370 C   0  0  0  0  0  0  0  0  0  0  0  0
   62.5450   32.3210   47.2060 C   0  0  0  0  0  0  0  0  0  0  0  0
   59.0170   32.1850   47.2070 C   0  0  0  0  0  0  0  0  0  0  0  0
   58.4030   30.9330   47.1080 C   0  0  0  0  0  0  0  0  0  0  0  0
   59.6966   24.1404   45.7127 H   0  0  0  0  0  0  0  0  0  0  0  0
   57.5307   23.0018   45.2112 H   0  0  0  0  0  0  0  0  0  0  0  0
   55.4075   24.3114   45.2948 H   0  0  0  0  0  0  0  0  0  0  0  0
   55.1400   27.8680   45.9150 H   0  0  0  0  0  0  0  0  0  0  0  0
   57.3088   31.1142   43.8708 H   0  0  0  0  0  0  0  0  0  0  0  0
   58.3959   33.3484   44.0550 H   0  0  0  0  0  0  0  0  0  0  0  0
   62.0756   35.2844   48.8438 H   0  0  0  0  0  0  0  0  0  0  0  0
   63.1340   33.9801   50.6821 H   0  0  0  0  0  0  0  0  0  0  0  0
   61.9168   29.5821   50.2302 H   0  0  0  0  0  0  0  0  0  0  0  0
   61.6180   29.3238   51.9796 H   0  0  0  0  0  0  0  0  0  0  0  0
   59.5750   30.1253   49.7347 H   0  0  0  0  0  0  0  0  0  0  0  0
   57.7946   31.8713   49.7652 H   0  0  0  0  0  0  0  0  0  0  0  0
   58.0191   33.8635   51.2545 H   0  0  0  0  0  0  0  0  0  0  0  0
   60.0293   34.1111   52.7132 H   0  0  0  0  0  0  0  0  0  0  0  0
   61.8199   32.3735   52.6841 H   0  0  0  0  0  0  0  0  0  0  0  0
   63.4323   30.5426   48.0686 H   0  0  0  0  0  0  0  0  0  0  0  0
   62.3776   31.8492   46.2265 H   0  0  0  0  0  0  0  0  0  0  0  0
   59.4993   32.4871   48.1483 H   0  0  0  0  0  0  0  0  0  0  0  0
   58.4013   30.2563   47.9752 H   0  0  0  0  0  0  0  0  0  0  0  0
  1  2  2  0
  2  3  1  0
  3  4  2  3
  4  5  1  0
  5  6  1  0
  6  7  2  0
  7  8  1  0
  8  9  2  0
  9 10  1  0
  2 11  1  0
 11 12  2  0
 12 13  1  0
 13 14  2  0
 14 15  1  0
 15 16  2  0
 15 17  2  0
 15 18  1  0
 18 19  1  0
 19 20  2  0
 20 21  1  0
 21 22  2  0
 22 23  1  0
 23 24  2  0
 23 25  1  0
 25 26  1  0
 26 27  1  0
 27 28  2  0
 28 29  1  0
 29 30  2  0
 30 31  1  0
 31 32  2  0
 22 33  1  0
 33 34  2  0
 14 35  1  0
 35 36  2  0
  9  4  1  0
 36 11  1  0
 34 19  1  0
 32 27  1  0
  6 37  1  0
  7 38  1  0
  8 39  1  0
 10 40  1  0
 12 41  1  0
 13 42  1  0
 20 43  1  0
 21 44  1  0
 26 45  1  0
 26 46  1  0
 28 47  1  0
 29 48  1  0
 30 49  1  0
 31 50  1  0
 32 51  1  0
 33 52  1  0
 34 53  1  0
 35 54  1  0
 36 55  1  0
M  CHG  3   5  -1  18  -1  25  -1
M  END
>  <UniqueID>  (43) 
41

>  <SMILES>  (43) 
O=C(N=c1[n-]cccc1O)c1ccc(S(=O)(=O)[N-]c2ccc(C(=O)[N-]Cc3ccccc3)cc2)cc1

>  <Energy>  (43) 
81.17008447867524

>  <Genealogy>  (43) 
O=C(N=c1[n-]cccc1O)c1ccc(S(=O)(=O)[N-]c2ccc(C(=O)[N-]Cc3ccccc3)cc2)cc1 (protonated)
O=C(N=c1[n-]cccc1O)c1ccc(S(=O)(=O)[N-]c2ccc(C(=O)[N-]Cc3ccccc3)cc2)cc1 (3D coordinates assigned)
O=C(N=c1[n-]cccc1O)c1ccc(S(=O)(=O)[N-]c2ccc(C(=O)[N-]Cc3ccccc3)cc2)cc1 (optimized conformer: 81.17008447867524 kcal/mol)

>  <smiles>  (43) 
O=C(N=c1[nH]cccc1O)c1ccc(S(=O)(=O)Nc2ccc(C(=O)NCc3ccccc3)cc2)cc1

>  <score_type>  (43) 
oracle

>  <origin>  (43) 
adg

>  <m_score__min__energy>  (43) 
-13.08

>  <m_primary>  (43) 
energy

$$$$
43:0
     RDKit          3D

 28 29  0  0  0  0  0  0  0  0999 V2000
   54.9470   23.9180   46.8290 O   0  0  0  0  0  0  0  0  0  0  0  0
   56.1980   24.0460   46.9010 C   0  0  0  0  0  0  0  0  0  0  0  0
   56.9340   23.0440   47.5210 O   0  0  0  0  0  0  0  0  0  0  0  0
   56.8630   25.2490   46.3350 C   0  0  0  0  0  0  0  0  0  0  0  0
   58.2460   25.2200   46.0760 C   0  0  0  0  0  0  0  0  0  0  0  0
   58.8940   26.3350   45.5460 C   0  0  0  0  0  0  0  0  0  0  0  0
   58.1780   27.4960   45.2630 C   0  0  0  0  0  0  0  0  0  0  0  0
   56.7960   27.5520   45.5090 C   0  0  0  0  0  0  0  0  0  0  0  0
   56.0270   28.7310   45.2300 N   0  0  0  0  0  0  0  0  0  0  0  0
   56.6580   30.2150   44.5950 S   0  0  0  0  0  0  0  0  0  0  0  0
   57.2980   29.9500   43.2610 O   0  0  0  0  0  0  0  0  0  0  0  0
   55.5510   31.2190   44.4270 O   0  0  0  0  0  0  0  0  0  0  0  0
   57.8530   30.8590   45.7270 C   0  0  0  0  0  0  0  0  0  0  0  0
   58.3190   30.0460   46.7730 C   0  0  0  0  0  0  0  0  0  0  0  0
   59.2590   30.5310   47.6820 C   0  0  0  0  0  0  0  0  0  0  0  0
   59.7470   31.8320   47.5580 C   0  0  0  0  0  0  0  0  0  0  0  0
   59.2960   32.6580   46.5220 C   0  0  0  0  0  0  0  0  0  0  0  0
   59.9400   34.2900   46.4070 Cl  0  0  0  0  0  0  0  0  0  0  0  0
   58.3460   32.1770   45.6000 C   0  0  0  0  0  0  0  0  0  0  0  0
   57.7880   33.2310   44.2980 Cl  0  0  0  0  0  0  0  0  0  0  0  0
   56.1420   26.4310   46.0450 C   0  0  0  0  0  0  0  0  0  0  0  0
   54.7720   26.5040   46.2830 O   0  0  0  0  0  0  0  0  0  0  0  0
   58.8216   24.3083   46.2939 H   0  0  0  0  0  0  0  0  0  0  0  0
   59.9758   26.2977   45.3504 H   0  0  0  0  0  0  0  0  0  0  0  0
   58.6964   28.3718   44.8456 H   0  0  0  0  0  0  0  0  0  0  0  0
   57.9397   29.0186   46.8762 H   0  0  0  0  0  0  0  0  0  0  0  0
   59.6164   29.8863   48.4985 H   0  0  0  0  0  0  0  0  0  0  0  0
   60.4888   32.2100   48.2769 H   0  0  0  0  0  0  0  0  0  0  0  0
  1  2  2  0
  2  3  1  0
  2  4  1  0
  4  5  2  0
  5  6  1  0
  6  7  2  0
  7  8  1  0
  8  9  1  0
  9 10  1  0
 10 11  2  0
 10 12  2  0
 10 13  1  0
 13 14  2  0
 14 15  1  0
 15 16  2  0
 16 17  1  0
 17 18  1  0
 17 19  2  0
 19 20  1  0
  8 21  2  0
 21 22  1  0
 21  4  1  0
 19 13  1  0
  5 23  1  0
  6 24  1  0
  7 25  1  0
 14 26  1  0
 15 27  1  0
 16 28  1  0
M  CHG  3   3  -1   9  -1  22  -1
M  END
>  <UniqueID>  (44) 
42

>  <SMILES>  (44) 
O=C([O-])c1cccc([N-]S(=O)(=O)c2cccc(Cl)c2Cl)c1[O-]

>  <Energy>  (44) 
38.58956723124518

>  <Genealogy>  (44) 
O=C([O-])c1cccc([N-]S(=O)(=O)c2cccc(Cl)c2Cl)c1[O-] (protonated)
O=C([O-])c1cccc([N-]S(=O)(=O)c2cccc(Cl)c2Cl)c1[O-] (3D coordinates assigned)
O=C([O-])c1cccc([N-]S(=O)(=O)c2cccc(Cl)c2Cl)c1[O-] (optimized conformer: 38.58956723124518 kcal/mol)

>  <smiles>  (44) 
O=C(O)c1cccc(NS(=O)(=O)c2cccc(Cl)c2Cl)c1O

>  <score_type>  (44) 
oracle

>  <origin>  (44) 
adg

>  <m_score__min__energy>  (44) 
-15.779999999999999

>  <m_primary>  (44) 
energy

$$$$
44:0
     RDKit          3D

 39 42  0  0  0  0  0  0  0  0999 V2000
   60.3630   34.5770   45.7170 O   0  0  0  0  0  0  0  0  0  0  0  0
   61.0040   33.8770   46.5440 C   0  0  0  0  0  0  0  0  0  0  0  0
   62.3800   33.8970   46.4660 C   0  0  0  0  0  0  0  0  0  0  0  0
   63.0500   33.1060   47.4040 C   0  0  0  0  0  0  0  0  0  0  0  0
   64.4310   33.1180   47.3340 O   0  0  0  0  0  0  0  0  0  0  0  0
   62.3650   32.3760   48.3190 N   0  0  0  0  0  0  0  0  0  0  0  0
   63.1630   31.5950   49.2400 C   0  0  0  0  0  0  0  0  0  0  0  0
   63.9950   32.5080   50.0480 C   0  0  0  0  0  0  0  0  0  0  0  0
   63.5110   33.4400   50.9590 C   0  0  0  0  0  0  0  0  0  0  0  0
   64.6380   34.0530   51.4650 C   0  0  0  0  0  0  0  0  0  0  0  0
   65.7450   33.4930   50.8640 C   0  0  0  0  0  0  0  0  0  0  0  0
   65.3030   32.5950   50.0440 O   0  0  0  0  0  0  0  0  0  0  0  0
   61.0180   32.3990   48.3430 C   0  0  0  0  0  0  0  0  0  0  0  0
   60.4070   31.7260   49.1890 O   0  0  0  0  0  0  0  0  0  0  0  0
   60.3280   33.1480   47.4590 N   0  0  0  0  0  0  0  0  0  0  0  0
   58.8790   33.2120   47.4370 C   0  0  0  0  0  0  0  0  0  0  0  0
   58.3520   32.5320   46.2070 C   0  0  0  0  0  0  0  0  0  0  0  0
   57.7560   31.3280   46.1520 N   0  0  0  0  0  0  0  0  0  0  0  0
   57.4180   31.0560   44.8600 C   0  0  0  0  0  0  0  0  0  0  0  0
   56.7960   29.9860   44.2400 C   0  0  0  0  0  0  0  0  0  0  0  0
   56.6210   30.0630   42.8840 C   0  0  0  0  0  0  0  0  0  0  0  0
   57.0240   31.1370   42.1140 C   0  0  0  0  0  0  0  0  0  0  0  0
   57.6390   32.1910   42.7430 C   0  0  0  0  0  0  0  0  0  0  0  0
   57.8300   32.1390   44.1100 C   0  0  0  0  0  0  0  0  0  0  0  0
   58.3960   33.0280   44.9420 N   0  0  0  0  0  0  0  0  0  0  0  0
   62.9158   34.4961   45.7150 H   0  0  0  0  0  0  0  0  0  0  0  0
   65.0380   32.6590   48.0020 H   0  0  0  0  0  0  0  0  0  0  0  0
   62.5019   31.0158   49.9014 H   0  0  0  0  0  0  0  0  0  0  0  0
   63.8080   30.9030   48.6786 H   0  0  0  0  0  0  0  0  0  0  0  0
   62.4616   33.6434   51.2187 H   0  0  0  0  0  0  0  0  0  0  0  0
   64.6513   34.8529   52.2199 H   0  0  0  0  0  0  0  0  0  0  0  0
   66.7971   33.7575   51.0458 H   0  0  0  0  0  0  0  0  0  0  0  0
   58.4789   32.7099   48.3302 H   0  0  0  0  0  0  0  0  0  0  0  0
   58.5650   34.2662   47.4285 H   0  0  0  0  0  0  0  0  0  0  0  0
   56.4565   29.1104   44.8127 H   0  0  0  0  0  0  0  0  0  0  0  0
   56.1301   29.2190   42.3774 H   0  0  0  0  0  0  0  0  0  0  0  0
   56.8567   31.1473   41.0268 H   0  0  0  0  0  0  0  0  0  0  0  0
   57.9751   33.0652   42.1661 H   0  0  0  0  0  0  0  0  0  0  0  0
   58.8060   33.9500   44.6890 H   0  0  0  0  0  0  0  0  0  0  0  0
  1  2  2  0
  2  3  1  0
  3  4  2  0
  4  5  1  0
  4  6  1  0
  6  7  1  0
  7  8  1  0
  8  9  2  0
  9 10  1  0
 10 11  2  0
 11 12  1  0
  6 13  1  0
 13 14  2  0
 13 15  1  0
 15 16  1  0
 16 17  1  0
 17 18  2  0
 18 19  1  0
 19 20  2  0
 20 21  1  0
 21 22  2  0
 22 23  1  0
 23 24  2  0
 24 25  1  0
 15  2  1  0
 25 17  1  0
 12  8  1  0
 24 19  1  0
  3 26  1  0
  5 27  1  0
  7 28  1  0
  7 29  1  0
  9 30  1  0
 10 31  1  0
 11 32  1  0
 16 33  1  0
 16 34  1  0
 20 35  1  0
 21 36  1  0
 22 37  1  0
 23 38  1  0
 25 39  1  0
M  END
>  <smiles>  (45) 
O=c1cc(O)n(Cc2ccco2)c(=O)n1Cc1nc2ccccc2[nH]1

>  <score_type>  (45) 
oracle

>  <origin>  (45) 
adg

>  <m_score__min__energy>  (45) 
-7.5999999999999996

>  <m_primary>  (45) 
energy

$$$$
45:0
     RDKit          3D

 35 36  0  0  0  0  0  0  0  0999 V2000
   58.0150   34.1620   45.3770 C   0  0  0  0  0  0  0  0  0  0  0  0
   57.7330   32.9400   44.5080 C   0  0  0  0  0  0  0  0  0  0  0  0
   56.7600   32.0510   45.1440 N   0  0  0  0  0  0  0  0  0  0  0  0
   57.0430   30.3720   44.7600 S   0  0  0  0  0  0  0  0  0  0  0  0
   55.7760   29.5670   44.8680 O   0  0  0  0  0  0  0  0  0  0  0  0
   57.5550   30.2970   43.3480 O   0  0  0  0  0  0  0  0  0  0  0  0
   58.2610   29.6880   45.8470 C   0  0  0  0  0  0  0  0  0  0  0  0
   58.5500   30.3360   47.0590 C   0  0  0  0  0  0  0  0  0  0  0  0
   59.4970   29.8400   47.8990 N   0  0  0  0  0  0  0  0  0  0  0  0
   60.1900   28.7100   47.6020 C   0  0  0  0  0  0  0  0  0  0  0  0
   59.9430   28.0300   46.4100 C   0  0  0  0  0  0  0  0  0  0  0  0
   58.9850   28.5230   45.5100 C   0  0  0  0  0  0  0  0  0  0  0  0
   58.7120   27.7840   44.2550 C   0  0  0  0  0  0  0  0  0  0  0  0
   57.7660   26.8430   44.1140 C   0  0  0  0  0  0  0  0  0  0  0  0
   57.4030   25.8410   45.1460 C   0  0  0  0  0  0  0  0  0  0  0  0
   58.1580   24.6670   45.3170 C   0  0  0  0  0  0  0  0  0  0  0  0
   57.7810   23.7260   46.2750 C   0  0  0  0  0  0  0  0  0  0  0  0
   56.6400   23.9520   47.0450 C   0  0  0  0  0  0  0  0  0  0  0  0
   55.9020   25.0760   46.8520 N   0  0  0  0  0  0  0  0  0  0  0  0
   56.2460   26.0140   45.9280 C   0  0  0  0  0  0  0  0  0  0  0  0
   55.5240   27.0380   45.7910 O   0  0  0  0  0  0  0  0  0  0  0  0
   57.9499   33.8801   46.4383 H   0  0  0  0  0  0  0  0  0  0  0  0
   59.0243   34.5415   45.1596 H   0  0  0  0  0  0  0  0  0  0  0  0
   57.2740   34.9454   45.1596 H   0  0  0  0  0  0  0  0  0  0  0  0
   57.3342   33.2735   43.5386 H   0  0  0  0  0  0  0  0  0  0  0  0
   58.6733   32.3859   44.3709 H   0  0  0  0  0  0  0  0  0  0  0  0
   58.0057   31.2524   47.3309 H   0  0  0  0  0  0  0  0  0  0  0  0
   59.6950   30.3370   48.7960 H   0  0  0  0  0  0  0  0  0  0  0  0
   60.9477   28.3306   48.3034 H   0  0  0  0  0  0  0  0  0  0  0  0
   60.4975   27.1094   46.1754 H   0  0  0  0  0  0  0  0  0  0  0  0
   59.3288   28.0239   43.3764 H   0  0  0  0  0  0  0  0  0  0  0  0
   57.2179   26.8122   43.1607 H   0  0  0  0  0  0  0  0  0  0  0  0
   59.0474   24.4905   44.6942 H   0  0  0  0  0  0  0  0  0  0  0  0
   58.3780   22.8139   46.4220 H   0  0  0  0  0  0  0  0  0  0  0  0
   56.3379   23.2200   47.8085 H   0  0  0  0  0  0  0  0  0  0  0  0
  1  2  1  0
  2  3  1  0
  3  4  1  0
  4  5  2  0
  4  6  2  0
  4  7  1  0
  7  8  2  0
  8  9  1  0
  9 10  2  0
 10 11  1  0
 11 12  2  0
 12 13  1  0
 13 14  2  3
 14 15  1  0
 15 16  2  0
 16 17  1  0
 17 18  2  0
 18 19  1  0
 19 20  1  0
 20 21  2  0
 12  7  1  0
 20 15  1  0
  1 22  1  0
  1 23  1  0
  1 24  1  0
  2 25  1  0
  2 26  1  0
  8 27  1  0
  9 28  1  0
 10 29  1  0
 11 30  1  0
 13 31  1  0
 14 32  1  0
 16 33  1  0
 17 34  1  0
 18 35  1  0
M  CHG  3   3  -1   9   1  19  -1
M  END
>  <UniqueID>  (46) 
43

>  <SMILES>  (46) 
CC[N-]S(=O)(=O)c1c[nH+]ccc1C=Cc1ccc[n-]c1=O

>  <Energy>  (46) 
46.67442737302956

>  <Genealogy>  (46) 
CC[N-]S(=O)(=O)c1c[nH+]ccc1C=Cc1ccc[n-]c1=O (protonated)
CC[N-]S(=O)(=O)c1c[nH+]ccc1C=Cc1ccc[n-]c1=O (3D coordinates assigned)
CC[N-]S(=O)(=O)c1c[nH+]ccc1C=Cc1ccc[n-]c1=O (optimized conformer: 46.67442737302956 kcal/mol)

>  <smiles>  (46) 
CCNS(=O)(=O)c1cnccc1C=Cc1ccc[nH]c1=O

>  <score_type>  (46) 
oracle

>  <origin>  (46) 
adg

>  <m_score__min__energy>  (46) 
-9.1500000000000004

>  <m_primary>  (46) 
energy

$$$$
46:0
     RDKit          3D

 59 62  0  0  0  0  0  0  0  0999 V2000
   55.1920   30.3590   44.3910 O   0  0  0  0  0  0  0  0  0  0  0  0
   56.3160   29.8830   44.7090 C   0  0  0  0  0  0  0  0  0  0  0  0
   56.5740   28.4820   44.5250 N   0  0  0  0  0  0  0  0  0  0  0  0
   57.0310   27.6100   45.3840 C   0  0  0  0  0  0  0  0  0  0  0  0
   58.3720   27.6140   45.6300 N   0  0  0  0  0  0  0  0  0  0  0  0
   58.9620   26.7380   46.4840 C   0  0  0  0  0  0  0  0  0  0  0  0
   58.1900   25.7890   47.1540 C   0  0  0  0  0  0  0  0  0  0  0  0
   56.8100   25.7710   46.9570 C   0  0  0  0  0  0  0  0  0  0  0  0
   56.2120   26.6900   46.0900 C   0  0  0  0  0  0  0  0  0  0  0  0
   54.8240   26.7020   45.9990 O   0  0  0  0  0  0  0  0  0  0  0  0
   57.4030   30.7860   45.1560 C   0  0  0  0  0  0  0  0  0  0  0  0
   57.6380   32.0060   44.4930 C   0  0  0  0  0  0  0  0  0  0  0  0
   58.6590   32.8580   44.9220 C   0  0  0  0  0  0  0  0  0  0  0  0
   59.4590   32.5060   46.0110 C   0  0  0  0  0  0  0  0  0  0  0  0
   59.2430   31.2920   46.6770 C   0  0  0  0  0  0  0  0  0  0  0  0
   60.2250   30.8440   48.0750 S   0  0  0  0  0  0  0  0  0  0  0  0
   61.6420   30.6030   47.6370 O   0  0  0  0  0  0  0  0  0  0  0  0
   59.6620   29.5580   48.6100 O   0  0  0  0  0  0  0  0  0  0  0  0
   60.1500   32.1090   49.3000 N   0  0  2  0  0  0  0  0  0  0  0  0
   59.3690   33.2890   48.8170 C   0  0  0  0  0  0  0  0  0  0  0  0
   60.2060   34.5650   48.5950 C   0  0  0  0  0  0  0  0  0  0  0  0
   61.5560   34.2270   47.9730 C   0  0  0  0  0  0  0  0  0  0  0  0
   62.3610   33.2640   48.8620 C   0  0  0  0  0  0  0  0  0  0  0  0
   61.4760   32.4880   49.8730 C   0  0  2  0  0  0  0  0  0  0  0  0
   62.2310   31.2860   50.5000 C   0  0  0  0  0  0  0  0  0  0  0  0
   61.4110   30.5370   51.5680 C   0  0  0  0  0  0  0  0  0  0  0  0
   60.2510   31.3200   52.0050 N   0  0  0  0  0  0  0  0  0  0  0  0
   58.9970   30.9580   51.9890 C   0  0  0  0  0  0  0  0  0  0  0  0
   58.6740   29.6440   52.3550 C   0  0  0  0  0  0  0  0  0  0  0  0
   57.3390   29.2360   52.3680 C   0  0  0  0  0  0  0  0  0  0  0  0
   56.3550   30.1060   52.0150 N   0  0  0  0  0  0  0  0  0  0  0  0
   56.6340   31.3840   51.6450 C   0  0  0  0  0  0  0  0  0  0  0  0
   57.9550   31.8360   51.6220 C   0  0  0  0  0  0  0  0  0  0  0  0
   58.2180   30.4370   46.2500 C   0  0  0  0  0  0  0  0  0  0  0  0
   60.0491   26.7770   46.6473 H   0  0  0  0  0  0  0  0  0  0  0  0
   58.6647   25.0629   47.8303 H   0  0  0  0  0  0  0  0  0  0  0  0
   56.1901   25.0316   47.4852 H   0  0  0  0  0  0  0  0  0  0  0  0
   57.0143   32.2898   43.6325 H   0  0  0  0  0  0  0  0  0  0  0  0
   58.8333   33.8102   44.3996 H   0  0  0  0  0  0  0  0  0  0  0  0
   60.2593   33.1821   46.3464 H   0  0  0  0  0  0  0  0  0  0  0  0
   59.5960   31.6890   50.0830 H   0  0  0  0  0  0  0  0  0  0  0  0
   58.8949   33.0191   47.8618 H   0  0  0  0  0  0  0  0  0  0  0  0
   58.6418   33.5265   49.6074 H   0  0  0  0  0  0  0  0  0  0  0  0
   59.6590   35.2424   47.9228 H   0  0  0  0  0  0  0  0  0  0  0  0
   60.3778   35.0471   49.5687 H   0  0  0  0  0  0  0  0  0  0  0  0
   61.3901   33.7549   46.9934 H   0  0  0  0  0  0  0  0  0  0  0  0
   62.1299   35.1593   47.8662 H   0  0  0  0  0  0  0  0  0  0  0  0
   62.8745   32.5369   48.2157 H   0  0  0  0  0  0  0  0  0  0  0  0
   63.0710   33.8699   49.4441 H   0  0  0  0  0  0  0  0  0  0  0  0
   61.2548   33.1796   50.6993 H   0  0  0  0  0  0  0  0  0  0  0  0
   62.4872   30.5784   49.6977 H   0  0  0  0  0  0  0  0  0  0  0  0
   63.1239   31.6891   51.0003 H   0  0  0  0  0  0  0  0  0  0  0  0
   61.0598   29.5842   51.1451 H   0  0  0  0  0  0  0  0  0  0  0  0
   62.0583   30.3647   52.4405 H   0  0  0  0  0  0  0  0  0  0  0  0
   59.4699   28.9366   52.6311 H   0  0  0  0  0  0  0  0  0  0  0  0
   57.0823   28.2083   52.6645 H   0  0  0  0  0  0  0  0  0  0  0  0
   55.8167   32.0641   51.3629 H   0  0  0  0  0  0  0  0  0  0  0  0
   58.1818   32.8691   51.3200 H   0  0  0  0  0  0  0  0  0  0  0  0
   58.0486   29.4848   46.7741 H   0  0  0  0  0  0  0  0  0  0  0  0
  1  2  2  0
  2  3  1  0
  3  4  2  3
  4  5  1  0
  5  6  1  0
  6  7  2  0
  7  8  1  0
  8  9  2  0
  9 10  1  0
  2 11  1  0
 11 12  2  0
 12 13  1  0
 13 14  2  0
 14 15  1  0
 15 16  1  0
 16 17  2  0
 16 18  2  0
 16 19  1  0
 19 20  1  0
 20 21  1  0
 21 22  1  0
 22 23  1  0
 23 24  1  0
 24 25  1  0
 25 26  1  0
 26 27  1  0
 27 28  2  3
 28 29  1  0
 29 30  2  0
 30 31  1  0
 31 32  1  0
 32 33  2  0
 15 34  2  0
  9  4  1  0
 34 11  1  0
 24 19  1  0
 33 28  1  0
  6 35  1  0
  7 36  1  0
  8 37  1  0
 12 38  1  0
 13 39  1  0
 14 40  1  0
 19 41  1  1
 20 42  1  0
 20 43  1  0
 21 44  1  0
 21 45  1  0
 22 46  1  0
 22 47  1  0
 23 48  1  0
 23 49  1  0
 24 50  1  1
 25 51  1  0
 25 52  1  0
 26 53  1  0
 26 54  1  0
 29 55  1  0
 30 56  1  0
 32 57  1  0
 33 58  1  0
 34 59  1  0
M  CHG  4   5  -1  10  -1  19   1  31  -1
M  END
>  <UniqueID>  (47) 
44

>  <SMILES>  (47) 
O=C(N=c1[n-]cccc1[O-])c1cccc(S(=O)(=O)[N@@H+]2CCCC[C@@H]2CCN=c2cc[n-]cc2)c1

>  <Energy>  (47) 
89.30846344508245

>  <Genealogy>  (47) 
O=C(N=c1[n-]cccc1[O-])c1cccc(S(=O)(=O)[NH+]2CCCCC2CCN=c2cc[n-]cc2)c1 (protonated)
O=C(N=c1[n-]cccc1[O-])c1cccc(S(=O)(=O)[N@@H+]2CCCC[C@@H]2CCN=c2cc[n-]cc2)c1 (chirality)
O=C(N=c1[n-]cccc1[O-])c1cccc(S(=O)(=O)[N@@H+]2CCCC[C@@H]2CCN=c2cc[n-]cc2)c1 (3D coordinates assigned)
O=C(N=c1[n-]cccc1[O-])c1cccc(S(=O)(=O)[N@@H+]2CCCC[C@@H]2CCN=c2cc[n-]cc2)c1 (nonaromatic ring conformer: 89.30846344508245 kcal/mol)

>  <smiles>  (47) 
O=C(N=c1[nH]cccc1O)c1cccc(S(=O)(=O)N2CCCCC2CCN=c2cc[nH]cc2)c1

>  <score_type>  (47) 
oracle

>  <origin>  (47) 
adg

>  <m_score__min__energy>  (47) 
-15.08

>  <m_primary>  (47) 
energy

$$$$
47:0
     RDKit          3D

 37 39  0  0  0  0  0  0  0  0999 V2000
   63.0480   33.8580   49.4970 C   0  0  0  0  0  0  0  0  0  0  0  0
   61.7210   34.3670   49.4020 O   0  0  0  0  0  0  0  0  0  0  0  0
   60.8200   34.0430   48.3760 C   0  0  0  0  0  0  0  0  0  0  0  0
   61.3070   33.9500   47.0680 C   0  0  0  0  0  0  0  0  0  0  0  0
   60.4510   33.6290   46.0120 C   0  0  0  0  0  0  0  0  0  0  0  0
   59.0890   33.3860   46.2510 C   0  0  0  0  0  0  0  0  0  0  0  0
   58.1580   33.0370   45.1060 C   0  0  0  0  0  0  0  0  0  0  0  0
   57.4600   31.7360   45.2620 N   0  0  1  0  0  0  0  0  0  0  0  0
   56.8410   31.2730   44.0030 C   0  0  0  0  0  0  0  0  0  0  0  0
   55.8850   30.1030   44.2720 C   0  0  0  0  0  0  0  0  0  0  0  0
   56.4950   29.0720   45.1810 C   0  0  0  0  0  0  0  0  0  0  0  0
   55.8940   27.8570   45.2930 N   0  0  0  0  0  0  0  0  0  0  0  0
   56.3770   26.9080   46.1340 C   0  0  0  0  0  0  0  0  0  0  0  0
   55.8050   25.7910   46.2140 O   0  0  0  0  0  0  0  0  0  0  0  0
   57.4760   27.1630   46.8880 N   0  0  0  0  0  0  0  0  0  0  0  0
   58.1090   28.3630   46.8240 C   0  0  0  0  0  0  0  0  0  0  0  0
   59.1360   28.5580   47.5270 O   0  0  0  0  0  0  0  0  0  0  0  0
   57.6180   29.3700   45.9770 C   0  0  0  0  0  0  0  0  0  0  0  0
   58.3430   30.6900   45.8240 C   0  0  0  0  0  0  0  0  0  0  0  0
   58.5950   33.4920   47.5610 C   0  0  0  0  0  0  0  0  0  0  0  0
   59.4520   33.8130   48.6170 C   0  0  0  0  0  0  0  0  0  0  0  0
   63.3250   33.7518   50.5562 H   0  0  0  0  0  0  0  0  0  0  0  0
   63.1002   32.8760   49.0041 H   0  0  0  0  0  0  0  0  0  0  0  0
   63.7435   34.5532   49.0041 H   0  0  0  0  0  0  0  0  0  0  0  0
   62.3736   34.1313   46.8693 H   0  0  0  0  0  0  0  0  0  0  0  0
   60.8462   33.5662   44.9874 H   0  0  0  0  0  0  0  0  0  0  0  0
   57.3982   33.8284   45.0261 H   0  0  0  0  0  0  0  0  0  0  0  0
   58.7837   32.9532   44.2052 H   0  0  0  0  0  0  0  0  0  0  0  0
   56.6910   31.9050   45.9570 H   0  0  0  0  0  0  0  0  0  0  0  0
   56.2789   32.1027   43.5496 H   0  0  0  0  0  0  0  0  0  0  0  0
   57.6342   30.9343   43.3204 H   0  0  0  0  0  0  0  0  0  0  0  0
   54.9701   30.4932   44.7417 H   0  0  0  0  0  0  0  0  0  0  0  0
   55.6638   29.6180   43.3098 H   0  0  0  0  0  0  0  0  0  0  0  0
   58.7001   31.0174   46.8116 H   0  0  0  0  0  0  0  0  0  0  0  0
   59.1840   30.5416   45.1307 H   0  0  0  0  0  0  0  0  0  0  0  0
   57.5262   33.3212   47.7573 H   0  0  0  0  0  0  0  0  0  0  0  0
   59.0563   33.8863   49.6407 H   0  0  0  0  0  0  0  0  0  0  0  0
  1  2  1  0
  2  3  1  0
  3  4  2  0
  4  5  1  0
  5  6  2  0
  6  7  1  0
  7  8  1  0
  8  9  1  0
  9 10  1  0
 10 11  1  0
 11 12  1  0
 12 13  1  0
 13 14  2  0
 13 15  1  0
 15 16  1  0
 16 17  2  0
 16 18  1  0
 18 19  1  0
  6 20  1  0
 20 21  2  0
 21  3  1  0
 19  8  1  0
 18 11  2  0
  1 22  1  0
  1 23  1  0
  1 24  1  0
  4 25  1  0
  5 26  1  0
  7 27  1  0
  7 28  1  0
  8 29  1  1
  9 30  1  0
  9 31  1  0
 10 32  1  0
 10 33  1  0
 19 34  1  0
 19 35  1  0
 20 36  1  0
 21 37  1  0
M  CHG  3   8   1  12  -1  15  -1
M  END
>  <UniqueID>  (48) 
45

>  <SMILES>  (48) 
COc1ccc(C[N@H+]2CCc3[n-]c(=O)[n-]c(=O)c3C2)cc1

>  <Energy>  (48) 
45.82841705811451

>  <Genealogy>  (48) 
COc1ccc(C[NH+]2CCc3[n-]c(=O)[n-]c(=O)c3C2)cc1 (protonated)
COc1ccc(C[N@H+]2CCc3[n-]c(=O)[n-]c(=O)c3C2)cc1 (chirality)
COc1ccc(C[N@H+]2CCc3[n-]c(=O)[n-]c(=O)c3C2)cc1 (3D coordinates assigned)
COc1ccc(C[N@H+]2CCc3[n-]c(=O)[n-]c(=O)c3C2)cc1 (nonaromatic ring conformer: 45.82841705811451 kcal/mol)

>  <smiles>  (48) 
COc1ccc(CN2CCc3[nH]c(=O)[nH]c(=O)c3C2)cc1

>  <score_type>  (48) 
oracle

>  <origin>  (48) 
adg

>  <m_score__min__energy>  (48) 
-8.7200000000000006

>  <m_primary>  (48) 
energy

$$$$
48:0
     RDKit          3D

 42 45  0  0  0  0  0  0  0  0999 V2000
   55.1370   29.3670   44.9160 N   0  0  0  0  0  0  0  0  0  0  0  0
   56.6120   29.6760   44.0720 S   0  0  0  0  0  0  0  0  0  0  0  0
   57.4610   28.4360   44.0710 O   0  0  0  0  0  0  0  0  0  0  0  0
   56.3020   30.0490   42.6490 O   0  0  0  0  0  0  0  0  0  0  0  0
   57.4800   30.9880   44.8620 C   0  0  0  0  0  0  0  0  0  0  0  0
   56.9950   32.3010   44.7950 C   0  0  0  0  0  0  0  0  0  0  0  0
   57.6720   33.3330   45.4490 C   0  0  0  0  0  0  0  0  0  0  0  0
   58.8240   33.0580   46.1910 C   0  0  0  0  0  0  0  0  0  0  0  0
   59.3060   31.7440   46.2790 C   0  0  0  0  0  0  0  0  0  0  0  0
   60.4630   31.4290   47.1330 C   0  0  0  0  0  0  0  0  0  0  0  0
   61.6980   31.9320   46.9510 N   0  0  0  0  0  0  0  0  0  0  0  0
   62.4380   31.3340   47.9030 C   0  0  0  0  0  0  0  0  0  0  0  0
   63.6660   31.5550   48.0690 O   0  0  0  0  0  0  0  0  0  0  0  0
   61.7460   30.4900   48.6370 O   0  0  0  0  0  0  0  0  0  0  0  0
   60.5150   30.5120   48.1770 C   0  0  0  0  0  0  0  0  0  0  0  0
   59.4050   29.6460   48.7080 C   0  0  0  0  0  0  0  0  0  0  0  0
   59.0990   28.5160   47.7630 C   0  0  0  0  0  0  0  0  0  0  0  0
   60.1240   27.7260   47.2340 C   0  0  0  0  0  0  0  0  0  0  0  0
   59.8030   26.6140   46.4570 C   0  0  0  0  0  0  0  0  0  0  0  0
   58.4620   26.2980   46.1860 C   0  0  0  0  0  0  0  0  0  0  0  0
   58.1460   25.0840   45.3950 C   0  0  0  0  0  0  0  0  0  0  0  0
   57.2680   24.9880   44.3150 C   0  0  0  0  0  0  0  0  0  0  0  0
   57.1820   23.6990   43.7780 C   0  0  0  0  0  0  0  0  0  0  0  0
   57.9880   22.7690   44.4200 C   0  0  0  0  0  0  0  0  0  0  0  0
   58.8100   23.5560   45.6540 S   0  0  0  0  0  0  0  0  0  0  0  0
   57.4600   27.1400   46.7140 C   0  0  0  0  0  0  0  0  0  0  0  0
   56.2390   26.8960   46.5220 O   0  0  0  0  0  0  0  0  0  0  0  0
   57.8040   28.2110   47.4770 N   0  0  0  0  0  0  0  0  0  0  0  0
   58.6400   30.7130   45.5990 C   0  0  0  0  0  0  0  0  0  0  0  0
   55.3380   28.6200   45.6180 H   0  0  0  0  0  0  0  0  0  0  0  0
   56.0792   32.5194   44.2262 H   0  0  0  0  0  0  0  0  0  0  0  0
   57.2974   34.3649   45.3798 H   0  0  0  0  0  0  0  0  0  0  0  0
   59.3531   33.8730   46.7065 H   0  0  0  0  0  0  0  0  0  0  0  0
   62.0110   32.6270   46.2380 H   0  0  0  0  0  0  0  0  0  0  0  0
   59.7083   29.2293   49.6798 H   0  0  0  0  0  0  0  0  0  0  0  0
   58.5017   30.2642   48.8168 H   0  0  0  0  0  0  0  0  0  0  0  0
   61.1763   27.9801   47.4295 H   0  0  0  0  0  0  0  0  0  0  0  0
   60.6059   25.9796   46.0533 H   0  0  0  0  0  0  0  0  0  0  0  0
   56.6982   25.8435   43.9234 H   0  0  0  0  0  0  0  0  0  0  0  0
   56.5350   23.4457   42.9252 H   0  0  0  0  0  0  0  0  0  0  0  0
   58.0732   21.7024   44.1647 H   0  0  0  0  0  0  0  0  0  0  0  0
   59.0297   29.6853   45.6445 H   0  0  0  0  0  0  0  0  0  0  0  0
  1  2  1  0
  2  3  2  0
  2  4  2  0
  2  5  1  0
  5  6  2  0
  6  7  1  0
  7  8  2  0
  8  9  1  0
  9 10  1  0
 10 11  1  0
 11 12  1  0
 12 13  2  0
 12 14  1  0
 14 15  1  0
 15 16  1  0
 16 17  1  0
 17 18  2  0
 18 19  1  0
 19 20  2  0
 20 21  1  0
 21 22  2  0
 22 23  1  0
 23 24  2  0
 24 25  1  0
 20 26  1  0
 26 27  2  0
 26 28  1  0
  9 29  2  0
 29  5  1  0
 15 10  2  0
 28 17  1  0
 25 21  1  0
  1 30  1  0
  6 31  1  0
  7 32  1  0
  8 33  1  0
 11 34  1  0
 16 35  1  0
 16 36  1  0
 18 37  1  0
 19 38  1  0
 22 39  1  0
 23 40  1  0
 24 41  1  0
 29 42  1  0
M  CHG  2   1  -1  28  -1
M  END
>  <UniqueID>  (49) 
46

>  <SMILES>  (49) 
[NH-]S(=O)(=O)c1cccc(-c2[nH]c(=O)oc2Cc2ccc(-c3cccs3)c(=O)[n-]2)c1

>  <Energy>  (49) 
110.05203989659354

>  <Genealogy>  (49) 
[NH-]S(=O)(=O)c1cccc(-c2[nH]c(=O)oc2Cc2ccc(-c3cccs3)c(=O)[n-]2)c1 (protonated)
[NH-]S(=O)(=O)c1cccc(-c2[nH]c(=O)oc2Cc2ccc(-c3cccs3)c(=O)[n-]2)c1 (3D coordinates assigned)
[NH-]S(=O)(=O)c1cccc(-c2[nH]c(=O)oc2Cc2ccc(-c3cccs3)c(=O)[n-]2)c1 (optimized conformer: 110.05203989659354 kcal/mol)

>  <smiles>  (49) 
NS(=O)(=O)c1cccc(-c2[nH]c(=O)oc2Cc2ccc(-c3cccs3)c(=O)[nH]2)c1

>  <score_type>  (49) 
oracle

>  <origin>  (49) 
adg

>  <m_score__min__energy>  (49) 
-13.220000000000001

>  <m_primary>  (49) 
energy

$$$$
49:0
     RDKit          3D

 49 51  0  0  0  0  0  0  0  0999 V2000
   55.3240   29.5280   52.0130 O   0  0  0  0  0  0  0  0  0  0  0  0
   55.0990   30.7660   51.9640 C   0  0  0  0  0  0  0  0  0  0  0  0
   56.2590   31.7260   51.9600 C   0  0  0  0  0  0  0  0  0  0  0  0
   57.5160   31.0310   51.6810 N   0  0  0  0  0  0  0  0  0  0  0  0
   58.4020   31.4750   50.6460 C   0  0  0  0  0  0  0  0  0  0  0  0
   58.0930   32.4670   49.9310 O   0  0  0  0  0  0  0  0  0  0  0  0
   59.7420   30.8160   50.4780 C   0  0  0  0  0  0  0  0  0  0  0  0
   60.5650   31.4560   49.3780 C   0  0  0  0  0  0  0  0  0  0  0  0
   61.8440   31.9470   49.7050 C   0  0  0  0  0  0  0  0  0  0  0  0
   62.6210   32.6070   48.7530 C   0  0  0  0  0  0  0  0  0  0  0  0
   62.1310   32.8000   47.4630 C   0  0  0  0  0  0  0  0  0  0  0  0
   60.8660   32.3250   47.1180 C   0  0  0  0  0  0  0  0  0  0  0  0
   60.0780   31.6320   48.0520 C   0  0  0  0  0  0  0  0  0  0  0  0
   58.7810   31.1790   47.6280 N   0  0  0  0  0  0  0  0  0  0  0  0
   58.3230   31.1080   46.2640 C   0  0  0  0  0  0  0  0  0  0  0  0
   58.3580   29.9000   45.5260 C   0  0  0  0  0  0  0  0  0  0  0  0
   59.0470   28.4140   46.1700 Cl  0  0  0  0  0  0  0  0  0  0  0  0
   57.8780   29.8730   44.2100 C   0  0  0  0  0  0  0  0  0  0  0  0
   57.3910   31.0340   43.6110 C   0  0  0  0  0  0  0  0  0  0  0  0
   57.4000   32.2390   44.3140 C   0  0  0  0  0  0  0  0  0  0  0  0
   57.8760   32.2840   45.6280 C   0  0  0  0  0  0  0  0  0  0  0  0
   57.8870   33.8340   46.4610 Cl  0  0  0  0  0  0  0  0  0  0  0  0
   53.7400   31.2220   51.9490 N   0  0  0  0  0  0  0  0  0  0  0  0
   52.6380   30.6420   52.6640 C   0  0  0  0  0  0  0  0  0  0  0  0
   52.8610   29.5750   53.5540 C   0  0  0  0  0  0  0  0  0  0  0  0
   51.8070   29.0260   54.2850 C   0  0  0  0  0  0  0  0  0  0  0  0
   50.5220   29.5460   54.1520 C   0  0  0  0  0  0  0  0  0  0  0  0
   50.2860   30.6220   53.2950 C   0  0  0  0  0  0  0  0  0  0  0  0
   51.3350   31.1920   52.5450 C   0  0  0  0  0  0  0  0  0  0  0  0
   51.0310   32.3370   51.6460 C   0  0  0  0  0  0  0  0  0  0  0  0
   50.7800   33.4810   52.1080 O   0  0  0  0  0  0  0  0  0  0  0  0
   51.0250   32.1620   50.2670 O   0  0  0  0  0  0  0  0  0  0  0  0
   56.0910   32.4895   51.1861 H   0  0  0  0  0  0  0  0  0  0  0  0
   56.3304   32.1924   52.9537 H   0  0  0  0  0  0  0  0  0  0  0  0
   57.8060   30.2170   52.2710 H   0  0  0  0  0  0  0  0  0  0  0  0
   60.2958   30.8945   51.4252 H   0  0  0  0  0  0  0  0  0  0  0  0
   59.5677   29.7661   50.1998 H   0  0  0  0  0  0  0  0  0  0  0  0
   62.2350   31.8083   50.7238 H   0  0  0  0  0  0  0  0  0  0  0  0
   63.6221   32.9757   49.0211 H   0  0  0  0  0  0  0  0  0  0  0  0
   62.7425   33.3275   46.7161 H   0  0  0  0  0  0  0  0  0  0  0  0
   60.4804   32.4951   46.1019 H   0  0  0  0  0  0  0  0  0  0  0  0
   58.0840   30.9700   48.3780 H   0  0  0  0  0  0  0  0  0  0  0  0
   57.8854   28.9290   43.6453 H   0  0  0  0  0  0  0  0  0  0  0  0
   56.9995   30.9999   42.5836 H   0  0  0  0  0  0  0  0  0  0  0  0
   57.0313   33.1569   43.8329 H   0  0  0  0  0  0  0  0  0  0  0  0
   53.8765   29.1697   53.6746 H   0  0  0  0  0  0  0  0  0  0  0  0
   51.9911   28.1823   54.9664 H   0  0  0  0  0  0  0  0  0  0  0  0
   49.6909   29.1076   54.7238 H   0  0  0  0  0  0  0  0  0  0  0  0
   49.2688   31.0305   53.2036 H   0  0  0  0  0  0  0  0  0  0  0  0
  1  2  2  0
  2  3  1  0
  3  4  1  0
  4  5  1  0
  5  6  2  0
  5  7  1  0
  7  8  1  0
  8  9  2  0
  9 10  1  0
 10 11  2  0
 11 12  1  0
 12 13  2  0
 13 14  1  0
 14 15  1  0
 15 16  2  0
 16 17  1  0
 16 18  1  0
 18 19  2  0
 19 20  1  0
 20 21  2  0
 21 22  1  0
  2 23  1  0
 23 24  1  0
 24 25  2  0
 25 26  1  0
 26 27  2  0
 27 28  1  0
 28 29  2  0
 29 30  1  0
 30 31  2  0
 30 32  1  0
 13  8  1  0
 21 15  1  0
 29 24  1  0
  3 33  1  0
  3 34  1  0
  4 35  1  0
  7 36  1  0
  7 37  1  0
  9 38  1  0
 10 39  1  0
 11 40  1  0
 12 41  1  0
 14 42  1  0
 18 43  1  0
 19 44  1  0
 20 45  1  0
 25 46  1  0
 26 47  1  0
 27 48  1  0
 28 49  1  0
M  CHG  2  23  -1  32  -1
M  END
>  <UniqueID>  (50) 
47

>  <SMILES>  (50) 
O=C(CNC(=O)Cc1ccccc1Nc1c(Cl)cccc1Cl)[N-]c1ccccc1C(=O)[O-]

>  <Energy>  (50) 
66.72855183986951

>  <Genealogy>  (50) 
O=C(CNC(=O)Cc1ccccc1Nc1c(Cl)cccc1Cl)[N-]c1ccccc1C(=O)[O-] (protonated)
O=C(CNC(=O)Cc1ccccc1Nc1c(Cl)cccc1Cl)[N-]c1ccccc1C(=O)[O-] (3D coordinates assigned)
O=C(CNC(=O)Cc1ccccc1Nc1c(Cl)cccc1Cl)[N-]c1ccccc1C(=O)[O-] (optimized conformer: 66.72855183986951 kcal/mol)

>  <smiles>  (50) 
O=C(Cc1ccccc1Nc1c(Cl)cccc1Cl)NCC(=O)Nc1ccccc1C(=O)O

>  <score_type>  (50) 
oracle

>  <origin>  (50) 
adg

>  <m_score__min__energy>  (50) 
-13.300000000000001

>  <m_primary>  (50) 
energy

$$$$
50:0
     RDKit          3D

 51 56  0  0  0  0  0  0  0  0999 V2000
   60.6449   29.3188   49.7928 H   0  0  0  0  0  0  0  0  0  0  0  0
   60.2140   29.2680   48.7820 C   0  0  0  0  0  0  0  0  0  0  0  0
   59.2270   28.0390   48.1940 S   0  0  0  0  0  0  0  0  0  0  0  0
   59.0840   28.7440   46.6810 C   0  0  0  0  0  0  0  0  0  0  0  0
   58.4220   28.2090   45.7000 N   0  0  0  0  0  0  0  0  0  0  0  0
   56.9930   28.2020   45.5430 C   0  0  0  0  0  0  0  0  0  0  0  0
   56.3320   27.1450   45.7190 O   0  0  0  0  0  0  0  0  0  0  0  0
   56.3030   29.3840   45.1210 N   0  0  0  0  0  0  0  0  0  0  0  0
   56.8760   30.5090   44.4360 C   0  0  0  0  0  0  0  0  0  0  0  0
   56.8530   30.5230   43.0380 C   0  0  0  0  0  0  0  0  0  0  0  0
   56.4115   29.6779   42.4896 H   0  0  0  0  0  0  0  0  0  0  0  0
   57.3880   31.6050   42.3340 C   0  0  0  0  0  0  0  0  0  0  0  0
   57.3721   31.6049   41.2341 H   0  0  0  0  0  0  0  0  0  0  0  0
   57.9430   32.6870   43.0220 C   0  0  0  0  0  0  0  0  0  0  0  0
   58.3817   33.5250   42.4605 H   0  0  0  0  0  0  0  0  0  0  0  0
   57.9440   32.7110   44.4300 C   0  0  0  0  0  0  0  0  0  0  0  0
   58.5150   33.8560   45.1780 C   0  0  0  0  0  0  0  0  0  0  0  0
   59.4650   34.6800   44.6930 N   0  0  0  0  0  0  0  0  0  0  0  0
   59.6780   35.5670   45.6560 N   0  0  0  0  0  0  0  0  0  0  0  0
   58.8970   35.3070   46.6930 N   0  0  0  0  0  0  0  0  0  0  0  0
   58.1610   34.2440   46.4180 N   0  0  0  0  0  0  0  0  0  0  0  0
   57.4660   33.8200   47.0700 H   0  0  0  0  0  0  0  0  0  0  0  0
   57.3930   31.6200   45.1280 C   0  0  0  0  0  0  0  0  0  0  0  0
   57.3662   31.6360   46.2276 H   0  0  0  0  0  0  0  0  0  0  0  0
   59.7720   29.9040   46.5940 N   0  0  0  0  0  0  0  0  0  0  0  0
   60.3940   30.2150   47.7670 C   0  0  0  0  0  0  0  0  0  0  0  0
   61.2900   31.4380   47.9060 C   0  0  2  0  0  0  0  0  0  0  0  0
   62.6210   31.2380   47.1200 C   0  0  0  0  0  0  0  0  0  0  0  0
   63.1421   30.3505   47.5083 H   0  0  0  0  0  0  0  0  0  0  0  0
   62.3901   31.1021   46.0531 H   0  0  0  0  0  0  0  0  0  0  0  0
   63.5300   32.4750   47.2840 C   0  0  1  0  0  0  0  0  0  0  0  0
   64.4658   32.3214   46.7266 H   0  0  0  0  0  0  0  0  0  0  0  0
   62.8060   33.7230   46.7330 C   0  0  0  0  0  0  0  0  0  0  0  0
   63.4546   34.6039   46.8481 H   0  0  0  0  0  0  0  0  0  0  0  0
   62.5766   33.5735   45.6676 H   0  0  0  0  0  0  0  0  0  0  0  0
   61.4940   33.9440   47.5160 C   0  0  2  0  0  0  0  0  0  0  0  0
   60.9818   34.8357   47.1254 H   0  0  0  0  0  0  0  0  0  0  0  0
   61.8130   34.1490   49.0140 C   0  0  0  0  0  0  0  0  0  0  0  0
   62.4594   35.0310   49.1333 H   0  0  0  0  0  0  0  0  0  0  0  0
   60.8759   34.3014   49.5695 H   0  0  0  0  0  0  0  0  0  0  0  0
   62.5390   32.9010   49.5650 C   0  0  2  0  0  0  0  0  0  0  0  0
   62.7680   33.0524   50.6302 H   0  0  0  0  0  0  0  0  0  0  0  0
   63.8510   32.6800   48.7810 C   0  0  0  0  0  0  0  0  0  0  0  0
   64.5010   33.5595   48.8992 H   0  0  0  0  0  0  0  0  0  0  0  0
   64.3644   31.7886   49.1706 H   0  0  0  0  0  0  0  0  0  0  0  0
   61.6300   31.6610   49.4040 C   0  0  0  0  0  0  0  0  0  0  0  0
   62.1516   30.7747   49.7943 H   0  0  0  0  0  0  0  0  0  0  0  0
   60.6973   31.8239   49.9639 H   0  0  0  0  0  0  0  0  0  0  0  0
   60.5810   32.7090   47.3500 C   0  0  0  0  0  0  0  0  0  0  0  0
   59.6437   32.8731   47.9019 H   0  0  0  0  0  0  0  0  0  0  0  0
   60.3663   32.5620   46.2812 H   0  0  0  0  0  0  0  0  0  0  0  0
  1  2  1  0
  2  3  1  0
  3  4  1  0
  4  5  2  0
  5  6  1  0
  6  7  2  0
  6  8  1  0
  8  9  1  0
  9 10  2  0
 10 11  1  0
 10 12  1  0
 12 13  1  0
 12 14  2  0
 14 15  1  0
 14 16  1  0
 16 17  1  0
 17 18  2  0
 18 19  1  0
 19 20  1  0
 20 21  2  0
 21 22  1  0
 16 23  2  0
 23 24  1  0
  4 25  1  0
 25 26  1  0
 27 26  1  1
 27 28  1  0
 28 29  1  0
 28 30  1  0
 28 31  1  0
 31 32  1  6
 31 33  1  0
 33 34  1  0
 33 35  1  0
 33 36  1  0
 36 37  1  6
 36 38  1  0
 38 39  1  0
 38 40  1  0
 38 41  1  0
 41 42  1  1
 41 43  1  0
 43 44  1  0
 43 45  1  0
 41 46  1  0
 46 47  1  0
 46 48  1  0
 36 49  1  0
 49 50  1  0
 49 51  1  0
 26  2  2  0
 46 27  1  0
 23  9  1  0
 49 27  1  0
 21 17  1  0
 43 31  1  0
M  CHG  4   8  -1  19  -1  21   1  25  -1
M  END
>  <UniqueID>  (51) 
48

>  <SMILES>  (51) 
O=C(/N=c1\[n-]c(C23CC4CC(CC(C4)C2)C3)cs1)[N-]c1cccc(-c2n[n-]n[nH+]2)c1

>  <Energy>  (51) 
131.58705216215293

>  <Genealogy>  (51) 
O=C(N=c1[n-]c(C23CC4CC(CC(C4)C2)C3)cs1)[N-]c1cccc(-c2n[n-]n[nH+]2)c1 (protonated)
O=C(/N=c1\[n-]c(C23CC4CC(CC(C4)C2)C3)cs1)[N-]c1cccc(-c2n[n-]n[nH+]2)c1 (cis-trans isomerization)
O=C(/N=c1\[n-]c(C23CC4CC(CC(C4)C2)C3)cs1)[N-]c1cccc(-c2n[n-]n[nH+]2)c1 (3D coordinates assigned)
O=C(/N=c1\[n-]c(C23CC4CC(CC(C4)C2)C3)cs1)[N-]c1cccc(-c2n[n-]n[nH+]2)c1 (nonaromatic ring conformer: 131.58705216215293 kcal/mol)

>  <smiles>  (51) 
O=C(N=c1[nH]c(C23CC4CC(CC(C4)C2)C3)cs1)Nc1cccc(-c2nn[nH]n2)c1

>  <score_type>  (51) 
oracle

>  <origin>  (51) 
adg

>  <m_score__min__energy>  (51) 
-13.01

>  <m_primary>  (51) 
energy

$$$$
51:0
     RDKit          3D

 73 72  0  0  0  0  0  0  0  0999 V2000
   61.5571   34.7771   45.7117 H   0  0  0  0  0  0  0  0  0  0  0  0
   60.8390   34.2440   46.3520 C   0  0  0  0  0  0  0  0  0  0  0  0
   61.1610   32.9980   46.7490 C   0  0  0  0  0  0  0  0  0  0  0  0
   60.6160   32.1594   46.2912 H   0  0  0  0  0  0  0  0  0  0  0  0
   62.2160   32.6700   47.7770 C   0  0  0  0  0  0  0  0  0  0  0  0
   62.1497   31.5992   48.0198 H   0  0  0  0  0  0  0  0  0  0  0  0
   63.1934   32.9296   47.3441 H   0  0  0  0  0  0  0  0  0  0  0  0
   62.0530   33.4810   49.0770 C   0  0  0  0  0  0  0  0  0  0  0  0
   62.7259   33.0568   49.8368 H   0  0  0  0  0  0  0  0  0  0  0  0
   62.2961   34.5260   48.8345 H   0  0  0  0  0  0  0  0  0  0  0  0
   60.6200   33.4740   49.6400 C   0  0  0  0  0  0  0  0  0  0  0  0
   60.1037   34.3824   49.2961 H   0  0  0  0  0  0  0  0  0  0  0  0
   60.1279   32.5598   49.2766 H   0  0  0  0  0  0  0  0  0  0  0  0
   60.5790   33.4390   51.1760 C   0  0  0  0  0  0  0  0  0  0  0  0
   60.8745   32.4340   51.5118 H   0  0  0  0  0  0  0  0  0  0  0  0
   61.2695   34.2134   51.5415 H   0  0  0  0  0  0  0  0  0  0  0  0
   59.1870   33.7570   51.7470 C   0  0  0  0  0  0  0  0  0  0  0  0
   59.2705   33.8357   52.8410 H   0  0  0  0  0  0  0  0  0  0  0  0
   58.8567   34.6973   51.2814 H   0  0  0  0  0  0  0  0  0  0  0  0
   58.1210   32.6930   51.4160 C   0  0  0  0  0  0  0  0  0  0  0  0
   57.1246   33.1278   51.5841 H   0  0  0  0  0  0  0  0  0  0  0  0
   58.2607   32.3954   50.3663 H   0  0  0  0  0  0  0  0  0  0  0  0
   58.2600   31.4330   52.2800 C   0  0  0  0  0  0  0  0  0  0  0  0
   59.3233   31.2633   52.5050 H   0  0  0  0  0  0  0  0  0  0  0  0
   57.6944   31.5756   53.2126 H   0  0  0  0  0  0  0  0  0  0  0  0
   57.7130   30.2430   51.5580 C   0  0  0  0  0  0  0  0  0  0  0  0
   56.7240   29.6210   52.0310 O   0  0  0  0  0  0  0  0  0  0  0  0
   58.2820   29.8620   50.3400 O   0  0  0  0  0  0  0  0  0  0  0  0
   59.6730   29.9860   50.0650 C   0  0  0  0  0  0  0  0  0  0  0  0
   59.8952   31.0258   49.7831 H   0  0  0  0  0  0  0  0  0  0  0  0
   60.2403   29.7084   50.9656 H   0  0  0  0  0  0  0  0  0  0  0  0
   60.0800   29.0480   48.9090 C   0  0  0  0  0  0  0  0  0  0  0  0
   61.1786   28.9966   48.8879 H   0  0  0  0  0  0  0  0  0  0  0  0
   59.5889   28.0866   49.1198 H   0  0  0  0  0  0  0  0  0  0  0  0
   59.6130   29.4500   47.5420 N   0  0  0  0  0  0  0  0  0  0  0  0
   58.6290   28.4350   47.0800 C   0  0  0  0  0  0  0  0  0  0  0  0
   58.1622   27.9535   47.9519 H   0  0  0  0  0  0  0  0  0  0  0  0
   57.8537   28.9256   46.4732 H   0  0  0  0  0  0  0  0  0  0  0  0
   59.1434   27.6753   46.4732 H   0  0  0  0  0  0  0  0  0  0  0  0
   58.9010   30.7520   47.6040 C   0  0  0  0  0  0  0  0  0  0  0  0
   58.7460   31.0354   48.6555 H   0  0  0  0  0  0  0  0  0  0  0  0
   59.5029   31.5233   47.1012 H   0  0  0  0  0  0  0  0  0  0  0  0
   57.9268   30.6615   47.1012 H   0  0  0  0  0  0  0  0  0  0  0  0
   60.7200   29.5710   46.5400 C   0  0  0  0  0  0  0  0  0  0  0  0
   60.9332   30.6406   46.3966 H   0  0  0  0  0  0  0  0  0  0  0  0
   61.5675   29.0043   46.9530 H   0  0  0  0  0  0  0  0  0  0  0  0
   60.4280   28.9550   45.1600 C   0  0  0  0  0  0  0  0  0  0  0  0
   59.9602   27.9680   45.2906 H   0  0  0  0  0  0  0  0  0  0  0  0
   59.7460   29.6131   44.6016 H   0  0  0  0  0  0  0  0  0  0  0  0
   61.3692   28.8437   44.6016 H   0  0  0  0  0  0  0  0  0  0  0  0
   59.5650   34.9610   46.7220 C   0  0  0  0  0  0  0  0  0  0  0  0
   59.2056   35.5260   45.8493 H   0  0  0  0  0  0  0  0  0  0  0  0
   59.7793   35.6372   47.5627 H   0  0  0  0  0  0  0  0  0  0  0  0
   58.4980   33.9940   47.1520 C   0  0  0  0  0  0  0  0  0  0  0  0
   58.5392   33.5655   48.1643 H   0  0  0  0  0  0  0  0  0  0  0  0
   57.4960   33.6400   46.3320 C   0  0  0  0  0  0  0  0  0  0  0  0
   56.6696   33.0301   46.7257 H   0  0  0  0  0  0  0  0  0  0  0  0
   57.4770   34.0580   44.8870 C   0  0  0  0  0  0  0  0  0  0  0  0
   58.0386   34.9975   44.7776 H   0  0  0  0  0  0  0  0  0  0  0  0
   56.4304   34.1942   44.5770 H   0  0  0  0  0  0  0  0  0  0  0  0
   58.1150   32.9850   43.9910 C   0  0  0  0  0  0  0  0  0  0  0  0
   59.2060   33.1255   43.9924 H   0  0  0  0  0  0  0  0  0  0  0  0
   57.6975   33.0983   42.9796 H   0  0  0  0  0  0  0  0  0  0  0  0
   57.7980   31.5560   44.4760 C   0  0  0  0  0  0  0  0  0  0  0  0
   57.2012   31.6258   45.3974 H   0  0  0  0  0  0  0  0  0  0  0  0
   58.7608   31.0495   44.6386 H   0  0  0  0  0  0  0  0  0  0  0  0
   57.0150   30.7180   43.4520 C   0  0  0  0  0  0  0  0  0  0  0  0
   57.7290   30.1049   42.8825 H   0  0  0  0  0  0  0  0  0  0  0  0
   56.4664   31.4192   42.8060 H   0  0  0  0  0  0  0  0  0  0  0  0
   55.9850   29.7920   44.0960 C   0  0  0  0  0  0  0  0  0  0  0  0
   56.0629   29.8620   45.1910 H   0  0  0  0  0  0  0  0  0  0  0  0
   54.9747   30.0915   43.7804 H   0  0  0  0  0  0  0  0  0  0  0  0
   56.1756   28.7556   43.7804 H   0  0  0  0  0  0  0  0  0  0  0  0
  1  2  1  0
  2  3  2  3
  3  4  1  0
  3  5  1  0
  5  6  1  0
  5  7  1  0
  5  8  1  0
  8  9  1  0
  8 10  1  0
  8 11  1  0
 11 12  1  0
 11 13  1  0
 11 14  1  0
 14 15  1  0
 14 16  1  0
 14 17  1  0
 17 18  1  0
 17 19  1  0
 17 20  1  0
 20 21  1  0
 20 22  1  0
 20 23  1  0
 23 24  1  0
 23 25  1  0
 23 26  1  0
 26 27  2  0
 26 28  1  0
 28 29  1  0
 29 30  1  0
 29 31  1  0
 29 32  1  0
 32 33  1  0
 32 34  1  0
 32 35  1  0
 35 36  1  0
 36 37  1  0
 36 38  1  0
 36 39  1  0
 35 40  1  0
 40 41  1  0
 40 42  1  0
 40 43  1  0
 35 44  1  0
 44 45  1  0
 44 46  1  0
 44 47  1  0
 47 48  1  0
 47 49  1  0
 47 50  1  0
  2 51  1  0
 51 52  1  0
 51 53  1  0
 51 54  1  0
 54 55  1  0
 54 56  2  0
 56 57  1  0
 56 58  1  0
 58 59  1  0
 58 60  1  0
 58 61  1  0
 61 62  1  0
 61 63  1  0
 61 64  1  0
 64 65  1  0
 64 66  1  0
 64 67  1  0
 67 68  1  0
 67 69  1  0
 67 70  1  0
 70 71  1  0
 70 72  1  0
 70 73  1  0
M  CHG  1  35   1
M  END
>  <UniqueID>  (52) 
49

>  <SMILES>  (52) 
CCCCC/C=C/CC=CCCCCCCCC(=O)OCC[N+](C)(C)CC

>  <Energy>  (52) 
53.93074860933191

>  <Genealogy>  (52) 
CCCCC/C=C/CC=CCCCCCCCC(=O)OCC[N+](C)(C)CC (cis-trans isomerization)
CCCCC/C=C/CC=CCCCCCCCC(=O)OCC[N+](C)(C)CC (3D coordinates assigned)
CCCCC/C=C/CC=CCCCCCCCC(=O)OCC[N+](C)(C)CC (optimized conformer: 53.93074860933191 kcal/mol)

>  <smiles>  (52) 
CCCCCC=CCC=CCCCCCCCC(=O)OCC[N+](C)(C)CC

>  <score_type>  (52) 
oracle

>  <origin>  (52) 
adg

>  <m_score__min__energy>  (52) 
-4.8600000000000003

>  <m_primary>  (52) 
energy

$$$$
52:0
     RDKit          3D

 41 44  0  0  0  0  0  0  0  0999 V2000
   55.7386   29.0604   43.3604 H   0  0  0  0  0  0  0  0  0  0  0  0
   56.7060   29.5840   43.3640 C   0  0  0  0  0  0  0  0  0  0  0  0
   57.6232   29.0431   43.6401 H   0  0  0  0  0  0  0  0  0  0  0  0
   56.7670   30.8770   43.0330 C   0  0  0  0  0  0  0  0  0  0  0  0
   55.8399   31.4020   42.7596 H   0  0  0  0  0  0  0  0  0  0  0  0
   58.0650   31.6360   43.0230 C   0  0  0  0  0  0  0  0  0  0  0  0
   58.9018   30.9245   43.0832 H   0  0  0  0  0  0  0  0  0  0  0  0
   58.1316   32.2185   42.0922 H   0  0  0  0  0  0  0  0  0  0  0  0
   58.7910   31.0280   49.4330 N   0  0  0  0  0  0  0  0  0  0  0  0
   58.0950   31.4300   50.4560 C   0  0  0  0  0  0  0  0  0  0  0  0
   58.4280   32.5970   51.0670 N   0  0  0  0  0  0  0  0  0  0  0  0
   58.4460   30.4570   47.0320 C   0  0  0  0  0  0  0  0  0  0  0  0
   58.4526   29.3831   47.2702 H   0  0  0  0  0  0  0  0  0  0  0  0
   58.5970   31.4060   48.0600 C   0  0  0  0  0  0  0  0  0  0  0  0
   58.1270   32.5510   44.1620 N   0  0  0  0  0  0  0  0  0  0  0  0
   58.2890   32.1840   45.3990 C   0  0  0  0  0  0  0  0  0  0  0  0
   57.0180   30.7250   50.9000 N   0  0  0  0  0  0  0  0  0  0  0  0
   56.2670   31.1540   51.9490 C   0  0  0  0  0  0  0  0  0  0  0  0
   55.1380   30.3240   52.4080 C   0  0  0  0  0  0  0  0  0  0  0  0
   55.2500   29.0800   53.0070 C   0  0  0  0  0  0  0  0  0  0  0  0
   56.1979   28.5594   53.2082 H   0  0  0  0  0  0  0  0  0  0  0  0
   54.0220   28.6000   53.3080 N   0  0  0  0  0  0  0  0  0  0  0  0
   53.1890   29.5640   52.8690 C   0  0  0  0  0  0  0  0  0  0  0  0
   51.7970   29.5180   52.9260 C   0  0  0  0  0  0  0  0  0  0  0  0
   51.2754   28.6681   53.3902 H   0  0  0  0  0  0  0  0  0  0  0  0
   51.0830   30.5910   52.3720 C   0  0  0  0  0  0  0  0  0  0  0  0
   49.9837   30.5956   52.4104 H   0  0  0  0  0  0  0  0  0  0  0  0
   51.7680   31.6620   51.7670 C   0  0  0  0  0  0  0  0  0  0  0  0
   51.0590   32.7110   51.1970 O   0  0  0  0  0  0  0  0  0  0  0  0
   53.1700   31.6560   51.7350 C   0  0  0  0  0  0  0  0  0  0  0  0
   53.7261   32.4741   51.2538 H   0  0  0  0  0  0  0  0  0  0  0  0
   53.8260   30.6130   52.3140 N   0  0  0  0  0  0  0  0  0  0  0  0
   56.6250   32.3380   52.6050 C   0  0  0  0  0  0  0  0  0  0  0  0
   56.0547   32.6919   53.4765 H   0  0  0  0  0  0  0  0  0  0  0  0
   57.7200   33.0590   52.1300 C   0  0  0  0  0  0  0  0  0  0  0  0
   58.0104   34.0020   52.6163 H   0  0  0  0  0  0  0  0  0  0  0  0
   58.2920   30.8660   45.7450 N   0  0  0  0  0  0  0  0  0  0  0  0
   58.6370   32.7610   47.7170 C   0  0  0  0  0  0  0  0  0  0  0  0
   58.7992   33.5190   48.4975 H   0  0  0  0  0  0  0  0  0  0  0  0
   58.4720   33.1560   46.3880 C   0  0  0  0  0  0  0  0  0  0  0  0
   58.4858   34.2230   46.1209 H   0  0  0  0  0  0  0  0  0  0  0  0
  1  2  1  0
  2  3  1  0
  2  4  2  0
  4  5  1  0
  4  6  1  0
  6  7  1  0
  6  8  1  0
  6  9  1  0
  9 10  2  0
 10 11  1  0
 11 12  1  0
 12 13  1  0
 12 14  2  0
 14 15  1  0
 15 16  2  0
 16 17  1  0
 17 18  2  0
 18 19  1  0
 19 20  2  0
 20 21  1  0
 20 22  1  0
 22 23  2  0
 23 24  1  0
 24 25  1  0
 24 26  2  0
 26 27  1  0
 26 28  1  0
 28 29  1  0
 28 30  2  0
 30 31  1  0
 30 32  1  0
 18 33  1  0
 33 34  1  0
 33 35  2  0
 35 36  1  0
 35 37  1  0
 14 38  1  0
 38 39  1  0
 38 40  2  0
 40 41  1  0
 40 10  1  0
 37 16  1  0
 32 19  1  0
 32 23  1  0
M  CHG  3  11  -1  29  -1  37  -1
M  END
>  <UniqueID>  (53) 
50

>  <SMILES>  (53) 
C=CC/N=c1/ccc(/N=c2\nc(-c3cnc4ccc([O-])cn34)cc[n-]2)c[n-]1

>  <Energy>  (53) 
90.37464984273467

>  <Genealogy>  (53) 
C=CCN=c1ccc(N=c2nc(-c3cnc4ccc([O-])cn34)cc[n-]2)c[n-]1 (protonated)
C=CC/N=c1/ccc(/N=c2\nc(-c3cnc4ccc([O-])cn34)cc[n-]2)c[n-]1 (cis-trans isomerization)
C=CC/N=c1/ccc(/N=c2\nc(-c3cnc4ccc([O-])cn34)cc[n-]2)c[n-]1 (3D coordinates assigned)
C=CC/N=c1/ccc(/N=c2\nc(-c3cnc4ccc([O-])cn34)cc[n-]2)c[n-]1 (optimized conformer: 90.37464984273467 kcal/mol)

>  <smiles>  (53) 
C=CCN=c1ccc(N=c2nc(-c3cnc4ccc(O)cn34)cc[nH]2)c[nH]1

>  <score_type>  (53) 
oracle

>  <origin>  (53) 
adg

>  <m_score__min__energy>  (53) 
-13.380000000000001

>  <m_primary>  (53) 
energy

$$$$
53:0
     RDKit          3D

 48 51  0  0  0  0  0  0  0  0999 V2000
   56.9820   33.6560   45.2280 C   0  0  0  0  0  0  0  0  0  0  0  0
   58.1180   32.8430   45.7720 C   0  0  0  0  0  0  0  0  0  0  0  0
   58.2000   31.4620   45.7800 C   0  0  0  0  0  0  0  0  0  0  0  0
   57.1660   30.5460   45.4040 N   0  0  0  0  0  0  0  0  0  0  0  0
   57.3340   29.1350   45.2220 C   0  0  0  0  0  0  0  0  0  0  0  0
   57.5520   28.6920   44.0630 O   0  0  0  0  0  0  0  0  0  0  0  0
   57.4170   28.1910   46.3890 C   0  0  0  0  0  0  0  0  0  0  0  0
   57.2560   26.8150   45.9220 N   0  0  0  0  0  0  0  0  0  0  0  0
   58.2400   25.9230   45.6630 C   0  0  0  0  0  0  0  0  0  0  0  0
   59.5980   26.2110   45.7460 O   0  0  0  0  0  0  0  0  0  0  0  0
   57.7010   24.6980   45.3220 C   0  0  0  0  0  0  0  0  0  0  0  0
   56.3360   24.8370   45.3930 C   0  0  0  0  0  0  0  0  0  0  0  0
   56.0920   26.1420   45.7740 C   0  0  0  0  0  0  0  0  0  0  0  0
   54.8350   26.6950   45.9990 O   0  0  0  0  0  0  0  0  0  0  0  0
   55.3680   23.7210   45.1670 C   0  0  0  0  0  0  0  0  0  0  0  0
   56.0680   22.4660   44.6790 C   0  0  0  0  0  0  0  0  0  0  0  0
   57.4110   22.3290   44.6080 C   0  0  0  0  0  0  0  0  0  0  0  0
   58.3960   23.4140   45.0000 C   0  0  0  0  0  0  0  0  0  0  0  0
   59.4150   31.1790   46.3660 C   0  0  0  0  0  0  0  0  0  0  0  0
   59.8480   30.0310   46.6590 O   0  0  0  0  0  0  0  0  0  0  0  0
   60.0530   32.3320   46.6490 N   0  0  0  0  0  0  0  0  0  0  0  0
   61.3440   32.4450   47.2750 C   0  0  0  0  0  0  0  0  0  0  0  0
   61.6150   31.7480   48.4630 C   0  0  0  0  0  0  0  0  0  0  0  0
   62.8640   31.8640   49.0790 C   0  0  0  0  0  0  0  0  0  0  0  0
   63.8490   32.6800   48.5160 C   0  0  0  0  0  0  0  0  0  0  0  0
   63.5840   33.3860   47.3390 C   0  0  0  0  0  0  0  0  0  0  0  0
   62.3360   33.2710   46.7210 C   0  0  0  0  0  0  0  0  0  0  0  0
   59.2750   33.3450   46.2710 N   0  0  0  0  0  0  0  0  0  0  0  0
   59.6180   34.7650   46.3860 C   0  0  0  0  0  0  0  0  0  0  0  0
   56.3981   34.0739   46.0613 H   0  0  0  0  0  0  0  0  0  0  0  0
   57.3799   34.4757   44.6117 H   0  0  0  0  0  0  0  0  0  0  0  0
   56.3345   33.0150   44.6117 H   0  0  0  0  0  0  0  0  0  0  0  0
   58.3965   28.2990   46.8778 H   0  0  0  0  0  0  0  0  0  0  0  0
   56.6179   28.4280   47.1068 H   0  0  0  0  0  0  0  0  0  0  0  0
   54.8530   23.4978   46.1130 H   0  0  0  0  0  0  0  0  0  0  0  0
   54.6510   24.0378   44.3953 H   0  0  0  0  0  0  0  0  0  0  0  0
   55.4447   21.6162   44.3639 H   0  0  0  0  0  0  0  0  0  0  0  0
   57.8141   21.3725   44.2438 H   0  0  0  0  0  0  0  0  0  0  0  0
   58.9598   23.0818   45.8841 H   0  0  0  0  0  0  0  0  0  0  0  0
   59.0694   23.5914   44.1485 H   0  0  0  0  0  0  0  0  0  0  0  0
   60.8408   31.1077   48.9110 H   0  0  0  0  0  0  0  0  0  0  0  0
   63.0720   31.3126   50.0078 H   0  0  0  0  0  0  0  0  0  0  0  0
   64.8333   32.7668   48.9993 H   0  0  0  0  0  0  0  0  0  0  0  0
   64.3580   34.0322   46.8992 H   0  0  0  0  0  0  0  0  0  0  0  0
   62.1294   33.8299   45.7964 H   0  0  0  0  0  0  0  0  0  0  0  0
   59.6847   35.0412   47.4487 H   0  0  0  0  0  0  0  0  0  0  0  0
   60.5864   34.9490   45.8978 H   0  0  0  0  0  0  0  0  0  0  0  0
   58.8403   35.3708   45.8978 H   0  0  0  0  0  0  0  0  0  0  0  0
  1  2  1  0
  2  3  2  0
  3  4  1  0
  4  5  1  0
  5  6  2  0
  5  7  1  0
  7  8  1  0
  8  9  1  0
  9 10  1  0
  9 11  2  0
 11 12  1  0
 12 13  2  0
 13 14  1  0
 12 15  1  0
 15 16  1  0
 16 17  2  0
 17 18  1  0
  3 19  1  0
 19 20  2  0
 19 21  1  0
 21 22  1  0
 22 23  2  0
 23 24  1  0
 24 25  2  0
 25 26  1  0
 26 27  2  0
 21 28  1  0
 28 29  1  0
 28  2  1  0
 13  8  1  0
 27 22  1  0
 18 11  1  0
  1 30  1  0
  1 31  1  0
  1 32  1  0
  7 33  1  0
  7 34  1  0
 15 35  1  0
 15 36  1  0
 16 37  1  0
 17 38  1  0
 18 39  1  0
 18 40  1  0
 23 41  1  0
 24 42  1  0
 25 43  1  0
 26 44  1  0
 27 45  1  0
 29 46  1  0
 29 47  1  0
 29 48  1  0
M  CHG  3   4  -1  10  -1  14  -1
M  END
>  <UniqueID>  (54) 
51

>  <SMILES>  (54) 
Cc1c([N-]C(=O)Cn2c([O-])c3c(c2[O-])CC=CC3)c(=O)n(-c2ccccc2)n1C

>  <Energy>  (54) 
128.0982318293105

>  <Genealogy>  (54) 
Cc1c([N-]C(=O)Cn2c([O-])c3c(c2[O-])CC=CC3)c(=O)n(-c2ccccc2)n1C (protonated)
Cc1c([N-]C(=O)Cn2c([O-])c3c(c2[O-])CC=CC3)c(=O)n(-c2ccccc2)n1C (3D coordinates assigned)
Cc1c([N-]C(=O)Cn2c([O-])c3c(c2[O-])CC=CC3)c(=O)n(-c2ccccc2)n1C (nonaromatic ring conformer: 128.0982318293105 kcal/mol)

>  <smiles>  (54) 
Cc1c(NC(=O)Cn2c(O)c3c(c2O)CC=CC3)c(=O)n(-c2ccccc2)n1C

>  <score_type>  (54) 
oracle

>  <origin>  (54) 
adg

>  <m_score__min__energy>  (54) 
-14.6

>  <m_primary>  (54) 
energy

$$$$
54:0
     RDKit          3D

 54 56  0  0  0  0  0  0  0  0999 V2000
   61.8260   34.1260   48.8170 C   0  0  0  0  0  0  0  0  0  0  0  0
   62.4560   33.3360   47.7460 N   0  0  0  0  0  0  0  0  0  0  0  0
   62.1340   33.8560   46.3960 C   0  0  0  0  0  0  0  0  0  0  0  0
   60.7800   34.5700   46.4210 C   0  0  0  0  0  0  0  0  0  0  0  0
   59.6540   33.6140   46.1260 C   0  0  0  0  0  0  0  0  0  0  0  0
   59.3750   32.5510   46.9980 C   0  0  0  0  0  0  0  0  0  0  0  0
   58.3710   31.6290   46.6880 C   0  0  0  0  0  0  0  0  0  0  0  0
   57.6440   31.7430   45.4970 C   0  0  0  0  0  0  0  0  0  0  0  0
   56.6450   30.7570   45.2070 N   0  0  0  0  0  0  0  0  0  0  0  0
   56.5200   29.8740   43.7200 S   0  0  0  0  0  0  0  0  0  0  0  0
   56.8820   30.7690   42.5670 O   0  0  0  0  0  0  0  0  0  0  0  0
   55.1170   29.3620   43.5490 O   0  0  0  0  0  0  0  0  0  0  0  0
   57.6420   28.4890   43.7630 C   0  0  0  0  0  0  0  0  0  0  0  0
   58.7230   28.7260   44.7660 C   0  0  0  0  0  0  0  0  0  0  0  0
   58.7200   28.3390   46.0920 C   0  0  0  0  0  0  0  0  0  0  0  0
   59.9050   28.7240   46.5930 N   0  0  0  0  0  0  0  0  0  0  0  0
   60.3530   28.6010   47.9780 C   0  0  0  0  0  0  0  0  0  0  0  0
   60.7800   29.9660   48.5170 C   0  0  0  0  0  0  0  0  0  0  0  0
   61.7270   30.5500   47.6650 O   0  0  0  0  0  0  0  0  0  0  0  0
   60.5840   29.3220   45.6270 N   0  0  0  0  0  0  0  0  0  0  0  0
   59.8980   29.3320   44.4950 N   0  0  0  0  0  0  0  0  0  0  0  0
   57.9240   32.8070   44.6210 C   0  0  0  0  0  0  0  0  0  0  0  0
   58.9210   33.7350   44.9350 C   0  0  0  0  0  0  0  0  0  0  0  0
   63.9040   33.1310   47.9680 C   0  0  0  0  0  0  0  0  0  0  0  0
   64.2100   32.3750   49.2360 C   0  0  0  0  0  0  0  0  0  0  0  0
   65.3520   32.5080   50.0000 C   0  0  0  0  0  0  0  0  0  0  0  0
   65.2040   31.6230   51.0460 C   0  0  0  0  0  0  0  0  0  0  0  0
   63.9840   31.0070   50.8550 C   0  0  0  0  0  0  0  0  0  0  0  0
   63.4150   31.4750   49.7680 O   0  0  0  0  0  0  0  0  0  0  0  0
   62.1394   33.7329   49.7954 H   0  0  0  0  0  0  0  0  0  0  0  0
   62.1362   35.1776   48.7279 H   0  0  0  0  0  0  0  0  0  0  0  0
   60.7318   34.0576   48.7279 H   0  0  0  0  0  0  0  0  0  0  0  0
   62.9144   34.5651   46.0828 H   0  0  0  0  0  0  0  0  0  0  0  0
   62.0873   33.0166   45.6866 H   0  0  0  0  0  0  0  0  0  0  0  0
   60.6250   35.0104   47.4170 H   0  0  0  0  0  0  0  0  0  0  0  0
   60.7845   35.3520   45.6474 H   0  0  0  0  0  0  0  0  0  0  0  0
   59.9490   32.4425   47.9301 H   0  0  0  0  0  0  0  0  0  0  0  0
   58.1504   30.8074   47.3854 H   0  0  0  0  0  0  0  0  0  0  0  0
   57.0859   27.5804   44.0372 H   0  0  0  0  0  0  0  0  0  0  0  0
   58.0976   28.3677   42.7691 H   0  0  0  0  0  0  0  0  0  0  0  0
   57.9114   27.8209   46.6284 H   0  0  0  0  0  0  0  0  0  0  0  0
   59.5296   28.2088   48.5929 H   0  0  0  0  0  0  0  0  0  0  0  0
   61.2114   27.9143   48.0183 H   0  0  0  0  0  0  0  0  0  0  0  0
   59.8992   30.6214   48.5843 H   0  0  0  0  0  0  0  0  0  0  0  0
   61.2277   29.8337   49.5130 H   0  0  0  0  0  0  0  0  0  0  0  0
   62.1740   31.2660   48.1850 H   0  0  0  0  0  0  0  0  0  0  0  0
   61.5370   29.7390   45.7390 H   0  0  0  0  0  0  0  0  0  0  0  0
   57.3559   32.9094   43.6846 H   0  0  0  0  0  0  0  0  0  0  0  0
   59.1324   34.5650   44.2448 H   0  0  0  0  0  0  0  0  0  0  0  0
   64.3114   32.5655   47.1170 H   0  0  0  0  0  0  0  0  0  0  0  0
   64.3641   34.1258   48.0618 H   0  0  0  0  0  0  0  0  0  0  0  0
   66.2025   33.1800   49.8130 H   0  0  0  0  0  0  0  0  0  0  0  0
   65.9143   31.4440   51.8667 H   0  0  0  0  0  0  0  0  0  0  0  0
   63.5529   30.2392   51.5143 H   0  0  0  0  0  0  0  0  0  0  0  0
  1  2  1  0
  2  3  1  0
  3  4  1  0
  4  5  1  0
  5  6  2  0
  6  7  1  0
  7  8  2  0
  8  9  1  0
  9 10  1  0
 10 11  2  0
 10 12  2  0
 10 13  1  0
 13 14  1  0
 14 15  2  0
 15 16  1  0
 16 17  1  0
 17 18  1  0
 18 19  1  0
 16 20  1  0
 20 21  2  0
  8 22  1  0
 22 23  2  0
  2 24  1  0
 24 25  1  0
 25 26  2  0
 26 27  1  0
 27 28  2  0
 28 29  1  0
 23  5  1  0
 29 25  1  0
 21 14  1  0
  1 30  1  0
  1 31  1  0
  1 32  1  0
  3 33  1  0
  3 34  1  0
  4 35  1  0
  4 36  1  0
  6 37  1  0
  7 38  1  0
 13 39  1  0
 13 40  1  0
 15 41  1  0
 17 42  1  0
 17 43  1  0
 18 44  1  0
 18 45  1  0
 19 46  1  0
 20 47  1  0
 22 48  1  0
 23 49  1  0
 24 50  1  0
 24 51  1  0
 26 52  1  0
 27 53  1  0
 28 54  1  0
M  CHG  2   9  -1  20   1
M  END
>  <UniqueID>  (55) 
52

>  <SMILES>  (55) 
CN(CCc1ccc([N-]S(=O)(=O)Cc2cn(CCO)[nH+]n2)cc1)Cc1ccco1

>  <Energy>  (55) 
111.34091130495676

>  <Genealogy>  (55) 
CN(CCc1ccc([N-]S(=O)(=O)Cc2cn(CCO)[nH+]n2)cc1)Cc1ccco1 (protonated)
CN(CCc1ccc([N-]S(=O)(=O)Cc2cn(CCO)[nH+]n2)cc1)Cc1ccco1 (3D coordinates assigned)
CN(CCc1ccc([N-]S(=O)(=O)Cc2cn(CCO)[nH+]n2)cc1)Cc1ccco1 (optimized conformer: 111.34091130495676 kcal/mol)

>  <smiles>  (55) 
CN(CCc1ccc(NS(=O)(=O)Cc2cn(CCO)nn2)cc1)Cc1ccco1

>  <score_type>  (55) 
oracle

>  <origin>  (55) 
adg

>  <m_score__min__energy>  (55) 
-9.0600000000000005

>  <m_primary>  (55) 
energy

$$$$
55:0
     RDKit          3D

 38 40  0  0  0  0  0  0  0  0999 V2000
   55.1470   25.3040   46.8750 H   0  0  0  0  0  0  0  0  0  0  0  0
   55.1130   24.3160   46.6520 O   0  0  0  0  0  0  0  0  0  0  0  0
   55.8810   23.7660   45.6270 C   0  0  0  0  0  0  0  0  0  0  0  0
   55.5890   22.4700   45.1790 C   0  0  0  0  0  0  0  0  0  0  0  0
   54.8122   21.8784   45.6855 H   0  0  0  0  0  0  0  0  0  0  0  0
   56.2770   21.9270   44.0960 C   0  0  0  0  0  0  0  0  0  0  0  0
   56.0506   20.9088   43.7466 H   0  0  0  0  0  0  0  0  0  0  0  0
   57.2550   22.6890   43.4610 C   0  0  0  0  0  0  0  0  0  0  0  0
   57.7927   22.2805   42.5927 H   0  0  0  0  0  0  0  0  0  0  0  0
   57.5450   23.9370   43.9140 N   0  0  0  0  0  0  0  0  0  0  0  0
   56.9180   24.4950   44.9860 C   0  0  0  0  0  0  0  0  0  0  0  0
   57.2870   25.6960   45.3400 N   0  0  0  0  0  0  0  0  0  0  0  0
   56.4750   26.8390   45.6500 C   0  0  0  0  0  0  0  0  0  0  0  0
   55.2740   26.6710   45.9960 O   0  0  0  0  0  0  0  0  0  0  0  0
   57.0680   28.2040   45.6680 C   0  0  0  0  0  0  0  0  0  0  0  0
   56.3730   29.3120   45.1470 C   0  0  0  0  0  0  0  0  0  0  0  0
   55.1210   29.1620   44.5600 O   0  0  0  0  0  0  0  0  0  0  0  0
   56.9050   30.5260   45.1920 O   0  0  0  0  0  0  0  0  0  0  0  0
   58.1010   30.7860   45.7080 C   0  0  0  0  0  0  0  0  0  0  0  0
   58.5440   32.1950   45.7170 C   0  0  0  0  0  0  0  0  0  0  0  0
   58.5140   32.9390   44.5270 C   0  0  0  0  0  0  0  0  0  0  0  0
   58.1839   32.4634   43.5917 H   0  0  0  0  0  0  0  0  0  0  0  0
   58.9020   34.2820   44.5260 C   0  0  0  0  0  0  0  0  0  0  0  0
   58.8886   34.8567   43.5882 H   0  0  0  0  0  0  0  0  0  0  0  0
   59.3070   34.8960   45.7150 C   0  0  0  0  0  0  0  0  0  0  0  0
   59.6185   35.9510   45.7109 H   0  0  0  0  0  0  0  0  0  0  0  0
   59.3160   34.1690   46.9090 C   0  0  0  0  0  0  0  0  0  0  0  0
   59.6283   34.6539   47.8457 H   0  0  0  0  0  0  0  0  0  0  0  0
   58.9280   32.8250   46.9130 C   0  0  0  0  0  0  0  0  0  0  0  0
   58.9235   32.2590   47.8562 H   0  0  0  0  0  0  0  0  0  0  0  0
   58.8960   29.7300   46.2120 C   0  0  0  0  0  0  0  0  0  0  0  0
   60.2940   29.9550   46.7440 C   0  0  0  0  0  0  0  0  0  0  0  0
   61.0067   29.3430   46.1718 H   0  0  0  0  0  0  0  0  0  0  0  0
   60.5579   31.0180   46.6419 H   0  0  0  0  0  0  0  0  0  0  0  0
   60.3450   29.5900   48.0940 O   0  0  0  0  0  0  0  0  0  0  0  0
   60.0200   28.6520   48.1380 H   0  0  0  0  0  0  0  0  0  0  0  0
   58.3490   28.4330   46.2100 C   0  0  0  0  0  0  0  0  0  0  0  0
   59.0080   27.4780   46.7060 O   0  0  0  0  0  0  0  0  0  0  0  0
  1  2  1  0
  2  3  1  0
  3  4  2  0
  4  5  1  0
  4  6  1  0
  6  7  1  0
  6  8  2  0
  8  9  1  0
  8 10  1  0
 10 11  1  0
 11 12  2  0
 12 13  1  0
 13 14  2  0
 13 15  1  0
 15 16  2  0
 16 17  1  0
 16 18  1  0
 18 19  1  0
 19 20  1  0
 20 21  2  0
 21 22  1  0
 21 23  1  0
 23 24  1  0
 23 25  2  0
 25 26  1  0
 25 27  1  0
 27 28  1  0
 27 29  2  0
 29 30  1  0
 19 31  2  0
 31 32  1  0
 32 33  1  0
 32 34  1  0
 32 35  1  0
 35 36  1  0
 31 37  1  0
 37 38  2  0
 11  3  1  0
 37 15  1  0
 29 20  1  0
M  CHG  2  10  -1  17  -1
M  END
>  <UniqueID>  (56) 
53

>  <SMILES>  (56) 
O=C(/N=c1/[n-]cccc1O)c1c([O-])oc(-c2ccccc2)c(CO)c1=O

>  <Energy>  (56) 
67.6596852053613

>  <Genealogy>  (56) 
O=C(N=c1[n-]cccc1O)c1c([O-])oc(-c2ccccc2)c(CO)c1=O (protonated)
O=C(/N=c1/[n-]cccc1O)c1c([O-])oc(-c2ccccc2)c(CO)c1=O (cis-trans isomerization)
O=C(/N=c1/[n-]cccc1O)c1c([O-])oc(-c2ccccc2)c(CO)c1=O (3D coordinates assigned)
O=C(/N=c1/[n-]cccc1O)c1c([O-])oc(-c2ccccc2)c(CO)c1=O (optimized conformer: 67.6596852053613 kcal/mol)

>  <smiles>  (56) 
O=C(N=c1[nH]cccc1O)c1c(O)oc(-c2ccccc2)c(CO)c1=O

>  <score_type>  (56) 
oracle

>  <origin>  (56) 
adg

>  <m_score__min__energy>  (56) 
-12.199999999999999

>  <m_primary>  (56) 
energy

$$$$
56:0
     RDKit          3D

 41 43  0  0  0  0  0  0  0  0999 V2000
   63.1000   32.6080   47.1240 C   0  0  0  0  0  0  0  0  0  0  0  0
   62.2590   33.8770   47.1760 C   0  0  0  0  0  0  0  0  0  0  0  0
   60.8390   33.5440   47.3450 N   0  0  0  0  0  0  0  0  0  0  0  0
   59.9140   33.6660   46.3560 C   0  0  0  0  0  0  0  0  0  0  0  0
   60.1860   34.0730   45.1940 O   0  0  0  0  0  0  0  0  0  0  0  0
   58.3640   33.2170   46.8480 S   0  0  0  0  0  0  0  0  0  0  0  0
   58.8920   32.8610   48.4030 C   0  0  0  0  0  0  0  0  0  0  0  0
   58.1380   32.3890   49.4710 C   0  0  0  0  0  0  0  0  0  0  0  0
   58.7860   32.1600   50.6980 C   0  0  0  0  0  0  0  0  0  0  0  0
   57.8770   31.5690   52.0870 S   0  0  0  0  0  0  0  0  0  0  0  0
   58.7850   30.8350   53.0340 O   0  0  0  0  0  0  0  0  0  0  0  0
   57.2710   32.7380   52.8130 O   0  0  0  0  0  0  0  0  0  0  0  0
   56.6100   30.5100   51.5500 N   0  0  0  0  0  0  0  0  0  0  0  0
   55.7960   30.0600   52.6810 C   0  0  0  0  0  0  0  0  0  0  0  0
   54.5340   29.3680   52.1690 C   0  0  0  0  0  0  0  0  0  0  0  0
   53.3710   30.3250   52.1310 C   0  0  0  0  0  0  0  0  0  0  0  0
   52.9850   30.9250   50.9200 C   0  0  0  0  0  0  0  0  0  0  0  0
   51.8820   31.7830   50.8800 C   0  0  0  0  0  0  0  0  0  0  0  0
   51.1520   32.0420   52.0420 C   0  0  0  0  0  0  0  0  0  0  0  0
   50.0640   32.9050   51.9980 O   0  0  0  0  0  0  0  0  0  0  0  0
   51.5180   31.4340   53.2470 C   0  0  0  0  0  0  0  0  0  0  0  0
   52.6190   30.5740   53.2930 C   0  0  0  0  0  0  0  0  0  0  0  0
   60.1640   32.4320   50.8260 C   0  0  0  0  0  0  0  0  0  0  0  0
   60.9070   32.9030   49.7310 C   0  0  0  0  0  0  0  0  0  0  0  0
   60.2560   33.1060   48.5040 C   0  0  0  0  0  0  0  0  0  0  0  0
   63.3220   32.2730   48.1480 H   0  0  0  0  0  0  0  0  0  0  0  0
   62.5440   31.8211   46.5932 H   0  0  0  0  0  0  0  0  0  0  0  0
   64.0413   32.8135   46.5932 H   0  0  0  0  0  0  0  0  0  0  0  0
   62.5893   34.4961   48.0231 H   0  0  0  0  0  0  0  0  0  0  0  0
   62.3862   34.4280   46.2325 H   0  0  0  0  0  0  0  0  0  0  0  0
   57.0603   32.1991   49.3592 H   0  0  0  0  0  0  0  0  0  0  0  0
   56.3778   29.3533   53.2910 H   0  0  0  0  0  0  0  0  0  0  0  0
   55.5106   30.9296   53.2911 H   0  0  0  0  0  0  0  0  0  0  0  0
   54.7194   28.9868   51.1540 H   0  0  0  0  0  0  0  0  0  0  0  0
   54.2859   28.5419   52.8516 H   0  0  0  0  0  0  0  0  0  0  0  0
   53.5527   30.7188   50.0007 H   0  0  0  0  0  0  0  0  0  0  0  0
   51.5884   32.2553   49.9309 H   0  0  0  0  0  0  0  0  0  0  0  0
   50.9383   31.6329   54.1605 H   0  0  0  0  0  0  0  0  0  0  0  0
   52.8980   30.0906   54.2409 H   0  0  0  0  0  0  0  0  0  0  0  0
   60.6622   32.2736   51.7938 H   0  0  0  0  0  0  0  0  0  0  0  0
   61.9826   33.1096   49.8334 H   0  0  0  0  0  0  0  0  0  0  0  0
  1  2  1  0
  2  3  1  0
  3  4  1  0
  4  5  2  0
  4  6  1  0
  6  7  1  0
  7  8  2  0
  8  9  1  0
  9 10  1  0
 10 11  2  0
 10 12  2  0
 10 13  1  0
 13 14  1  0
 14 15  1  0
 15 16  1  0
 16 17  2  0
 17 18  1  0
 18 19  2  0
 19 20  1  0
 19 21  1  0
 21 22  2  0
  9 23  2  0
 23 24  1  0
 24 25  2  0
 25  3  1  0
 25  7  1  0
 22 16  1  0
  1 26  1  0
  1 27  1  0
  1 28  1  0
  2 29  1  0
  2 30  1  0
  8 31  1  0
 14 32  1  0
 14 33  1  0
 15 34  1  0
 15 35  1  0
 17 36  1  0
 18 37  1  0
 21 38  1  0
 22 39  1  0
 23 40  1  0
 24 41  1  0
M  CHG  2  13  -1  20  -1
M  END
>  <UniqueID>  (57) 
54

>  <SMILES>  (57) 
CCn1c(=O)sc2cc(S(=O)(=O)[N-]CCc3ccc([O-])cc3)ccc21

>  <Energy>  (57) 
69.17540019177618

>  <Genealogy>  (57) 
CCn1c(=O)sc2cc(S(=O)(=O)[N-]CCc3ccc([O-])cc3)ccc21 (protonated)
CCn1c(=O)sc2cc(S(=O)(=O)[N-]CCc3ccc([O-])cc3)ccc21 (3D coordinates assigned)
CCn1c(=O)sc2cc(S(=O)(=O)[N-]CCc3ccc([O-])cc3)ccc21 (optimized conformer: 69.17540019177618 kcal/mol)

>  <smiles>  (57) 
CCn1c(=O)sc2cc(S(=O)(=O)NCCc3ccc(O)cc3)ccc21

>  <score_type>  (57) 
oracle

>  <origin>  (57) 
adg

>  <m_score__min__energy>  (57) 
-12.789999999999999

>  <m_primary>  (57) 
energy

$$$$
57:0
     RDKit          3D

 35 37  0  0  0  0  0  0  0  0999 V2000
   60.3800   27.1920   48.4720 C   0  0  0  0  0  0  0  0  0  0  0  0
   60.3630   26.9640   46.9630 C   0  0  0  0  0  0  0  0  0  0  0  0
   59.1320   27.5810   46.3430 C   0  0  0  0  0  0  0  0  0  0  0  0
   59.1810   28.9090   45.8840 C   0  0  0  0  0  0  0  0  0  0  0  0
   58.0460   29.5250   45.3240 C   0  0  0  0  0  0  0  0  0  0  0  0
   58.1050   30.9240   44.8330 C   0  0  0  0  0  0  0  0  0  0  0  0
   58.1920   31.9520   45.6070 N   0  0  0  0  0  0  0  0  0  0  0  0
   58.2200   33.1840   44.8270 C   0  0  2  0  0  0  0  0  0  0  0  0
   57.0430   34.0820   45.2120 C   0  0  0  0  0  0  0  0  0  0  0  0
   58.1410   32.7130   43.3590 C   0  0  0  0  0  0  0  0  0  0  0  0
   58.0560   31.2690   43.4600 N   0  0  0  0  0  0  0  0  0  0  0  0
   56.8490   28.7980   45.2300 C   0  0  0  0  0  0  0  0  0  0  0  0
   56.7820   27.4830   45.6970 C   0  0  0  0  0  0  0  0  0  0  0  0
   55.6160   26.7860   45.6210 N   0  0  0  0  0  0  0  0  0  0  0  0
   55.5260   25.5100   46.0780 C   0  0  0  0  0  0  0  0  0  0  0  0
   54.4320   24.8910   45.9930 O   0  0  0  0  0  0  0  0  0  0  0  0
   56.6540   24.8980   46.6390 C   0  0  0  0  0  0  0  0  0  0  0  0
   56.5980   23.7170   47.0720 O   0  0  0  0  0  0  0  0  0  0  0  0
   57.8200   25.5910   46.7160 N   0  0  0  0  0  0  0  0  0  0  0  0
   57.9200   26.8700   46.2610 C   0  0  0  0  0  0  0  0  0  0  0  0
   60.3078   26.2242   48.9899 H   0  0  0  0  0  0  0  0  0  0  0  0
   61.3179   27.6913   48.7569 H   0  0  0  0  0  0  0  0  0  0  0  0
   59.5266   27.8248   48.7569 H   0  0  0  0  0  0  0  0  0  0  0  0
   61.2591   27.4219   46.5187 H   0  0  0  0  0  0  0  0  0  0  0  0
   60.3512   25.8812   46.7694 H   0  0  0  0  0  0  0  0  0  0  0  0
   60.1207   29.4753   45.9637 H   0  0  0  0  0  0  0  0  0  0  0  0
   58.2170   31.9220   46.6510 H   0  0  0  0  0  0  0  0  0  0  0  0
   59.1219   33.7884   45.0036 H   0  0  0  0  0  0  0  0  0  0  0  0
   56.9684   34.1389   46.3080 H   0  0  0  0  0  0  0  0  0  0  0  0
   57.2019   35.0905   44.8024 H   0  0  0  0  0  0  0  0  0  0  0  0
   56.1123   33.6624   44.8024 H   0  0  0  0  0  0  0  0  0  0  0  0
   57.2489   33.1238   42.8637 H   0  0  0  0  0  0  0  0  0  0  0  0
   59.0011   33.0464   42.7597 H   0  0  0  0  0  0  0  0  0  0  0  0
   58.0520   30.6070   42.6520 H   0  0  0  0  0  0  0  0  0  0  0  0
   55.9583   29.2665   44.7860 H   0  0  0  0  0  0  0  0  0  0  0  0
  1  2  1  0
  2  3  1  0
  3  4  2  0
  4  5  1  0
  5  6  1  0
  6  7  2  0
  7  8  1  0
  8  9  1  0
  8 10  1  0
 10 11  1  0
  5 12  2  0
 12 13  1  0
 13 14  1  0
 14 15  1  0
 15 16  2  0
 15 17  1  0
 17 18  2  0
 17 19  1  0
 19 20  1  0
 20  3  1  0
 11  6  1  0
 20 13  2  0
  1 21  1  0
  1 22  1  0
  1 23  1  0
  2 24  1  0
  2 25  1  0
  4 26  1  0
  7 27  1  0
  8 28  1  6
  9 29  1  0
  9 30  1  0
  9 31  1  0
 10 32  1  0
 10 33  1  0
 11 34  1  0
 12 35  1  0
M  CHG  3   7   1  14  -1  19  -1
M  END
>  <UniqueID>  (58) 
55

>  <SMILES>  (58) 
CCc1cc(C2=[NH+][C@H](C)CN2)cc2[n-]c(=O)c(=O)[n-]c12

>  <Energy>  (58) 
50.23517347623705

>  <Genealogy>  (58) 
CCc1cc(C2=[NH+]C(C)CN2)cc2[n-]c(=O)c(=O)[n-]c12 (protonated)
CCc1cc(C2=[NH+][C@H](C)CN2)cc2[n-]c(=O)c(=O)[n-]c12 (chirality)
CCc1cc(C2=[NH+][C@H](C)CN2)cc2[n-]c(=O)c(=O)[n-]c12 (3D coordinates assigned)
CCc1cc(C2=[NH+][C@H](C)CN2)cc2[n-]c(=O)c(=O)[n-]c12 (nonaromatic ring conformer: 50.23517347623705 kcal/mol)

>  <smiles>  (58) 
CCc1cc(C2=NC(C)CN2)cc2[nH]c(=O)c(=O)[nH]c12

>  <score_type>  (58) 
oracle

>  <origin>  (58) 
adg

>  <m_score__min__energy>  (58) 
-9.0099999999999998

>  <m_primary>  (58) 
energy

$$$$
58:0
     RDKit          3D

 43 45  0  0  0  0  0  0  0  0999 V2000
   59.0560   30.7590   47.5010 H   0  0  0  0  0  0  0  0  0  0  0  0
   59.4200   31.6880   47.6630 O   0  0  0  0  0  0  0  0  0  0  0  0
   59.2880   32.7410   46.7520 C   0  0  0  0  0  0  0  0  0  0  0  0
   58.5190   32.5450   45.5850 C   0  0  0  0  0  0  0  0  0  0  0  0
   57.8970   31.2870   45.2860 N   0  0  0  0  0  0  0  0  0  0  0  0
   58.3890   29.9980   45.6730 C   0  0  0  0  0  0  0  0  0  0  0  0
   59.6280   29.7720   45.6760 O   0  0  0  0  0  0  0  0  0  0  0  0
   57.4610   28.8870   45.9670 C   0  0  0  0  0  0  0  0  0  0  0  0
   56.7769   29.0128   46.8191 H   0  0  0  0  0  0  0  0  0  0  0  0
   57.3840   27.7370   45.2800 C   0  0  0  0  0  0  0  0  0  0  0  0
   57.4716   27.7904   44.1848 H   0  0  0  0  0  0  0  0  0  0  0  0
   57.1900   26.4030   45.8880 C   0  0  0  0  0  0  0  0  0  0  0  0
   55.9120   25.9330   46.2360 C   0  0  0  0  0  0  0  0  0  0  0  0
   54.7830   26.7150   46.0150 O   0  0  0  0  0  0  0  0  0  0  0  0
   55.7720   24.7080   46.8050 N   0  0  0  0  0  0  0  0  0  0  0  0
   56.8520   23.9270   47.0630 C   0  0  0  0  0  0  0  0  0  0  0  0
   56.6970   22.7940   47.5860 O   0  0  0  0  0  0  0  0  0  0  0  0
   58.0980   24.3710   46.7630 N   0  0  0  0  0  0  0  0  0  0  0  0
   58.2920   25.5880   46.1910 C   0  0  0  0  0  0  0  0  0  0  0  0
   59.4640   25.9680   45.9280 O   0  0  0  0  0  0  0  0  0  0  0  0
   58.2860   33.6190   44.7190 C   0  0  0  0  0  0  0  0  0  0  0  0
   57.6446   33.4792   43.8363 H   0  0  0  0  0  0  0  0  0  0  0  0
   58.8600   34.8640   44.9660 C   0  0  0  0  0  0  0  0  0  0  0  0
   58.6805   35.6984   44.2720 H   0  0  0  0  0  0  0  0  0  0  0  0
   59.6610   35.0550   46.0900 C   0  0  0  0  0  0  0  0  0  0  0  0
   60.1243   36.0365   46.2691 H   0  0  0  0  0  0  0  0  0  0  0  0
   59.8820   34.0040   46.9970 C   0  0  0  0  0  0  0  0  0  0  0  0
   60.7480   34.2530   48.2110 C   0  0  0  0  0  0  0  0  0  0  0  0
   60.5148   35.2455   48.6240 H   0  0  0  0  0  0  0  0  0  0  0  0
   60.5438   33.4723   48.9585 H   0  0  0  0  0  0  0  0  0  0  0  0
   62.1830   34.2020   47.8470 N   0  0  0  0  0  0  0  0  0  0  0  0
   63.0150   33.7790   48.9850 C   0  0  0  0  0  0  0  0  0  0  0  0
   63.9952   34.2756   48.9347 H   0  0  0  0  0  0  0  0  0  0  0  0
   62.5303   34.0539   49.9334 H   0  0  0  0  0  0  0  0  0  0  0  0
   63.1970   32.2700   48.9050 C   0  0  0  0  0  0  0  0  0  0  0  0
   64.2517   32.0013   49.0648 H   0  0  0  0  0  0  0  0  0  0  0  0
   62.6119   31.7478   49.6763 H   0  0  0  0  0  0  0  0  0  0  0  0
   62.7570   31.8800   47.5060 C   0  0  0  0  0  0  0  0  0  0  0  0
   63.5684   31.3571   46.9786 H   0  0  0  0  0  0  0  0  0  0  0  0
   61.8957   31.1959   47.5226 H   0  0  0  0  0  0  0  0  0  0  0  0
   62.4270   33.1900   46.8100 C   0  0  0  0  0  0  0  0  0  0  0  0
   63.2711   33.4998   46.1764 H   0  0  0  0  0  0  0  0  0  0  0  0
   61.5386   33.0724   46.1721 H   0  0  0  0  0  0  0  0  0  0  0  0
  1  2  1  0
  2  3  1  0
  3  4  2  0
  4  5  1  0
  5  6  1  0
  6  7  2  0
  6  8  1  0
  8  9  1  0
  8 10  2  0
 10 11  1  0
 10 12  1  0
 12 13  2  0
 13 14  1  0
 13 15  1  0
 15 16  1  0
 16 17  2  0
 16 18  1  0
 18 19  1  0
 19 20  2  0
  4 21  1  0
 21 22  1  0
 21 23  2  0
 23 24  1  0
 23 25  1  0
 25 26  1  0
 25 27  2  0
 27 28  1  0
 28 29  1  0
 28 30  1  0
 28 31  1  0
 31 32  1  0
 32 33  1  0
 32 34  1  0
 32 35  1  0
 35 36  1  0
 35 37  1  0
 35 38  1  0
 38 39  1  0
 38 40  1  0
 38 41  1  0
 41 42  1  0
 41 43  1  0
 27  3  1  0
 41 31  1  0
 19 12  1  0
M  CHG  4   5  -1  14  -1  15  -1  18  -1
M  END
>  <UniqueID>  (59) 
56

>  <SMILES>  (59) 
O=C(/C=C\c1c([O-])[n-]c(=O)[n-]c1=O)[N-]c1cccc(CN2CCCC2)c1O

>  <Energy>  (59) 
63.557109319755696

>  <Genealogy>  (59) 
O=C(C=Cc1c([O-])[n-]c(=O)[n-]c1=O)[N-]c1cccc(CN2CCCC2)c1O (protonated)
O=C(/C=C\c1c([O-])[n-]c(=O)[n-]c1=O)[N-]c1cccc(CN2CCCC2)c1O (cis-trans isomerization)
O=C(/C=C\c1c([O-])[n-]c(=O)[n-]c1=O)[N-]c1cccc(CN2CCCC2)c1O (3D coordinates assigned)
O=C(/C=C\c1c([O-])[n-]c(=O)[n-]c1=O)[N-]c1cccc(CN2CCCC2)c1O (nonaromatic ring conformer: 63.557109319755696 kcal/mol)

>  <smiles>  (59) 
O=C(C=Cc1c(O)[nH]c(=O)[nH]c1=O)Nc1cccc(CN2CCCC2)c1O

>  <score_type>  (59) 
oracle

>  <origin>  (59) 
adg

>  <m_score__min__energy>  (59) 
-16.969999999999999

>  <m_primary>  (59) 
energy

$$$$
59:0
     RDKit          3D

 37 39  0  0  0  0  0  0  0  0999 V2000
   58.8670   28.2230   47.2970 C   0  0  0  0  0  0  0  0  0  0  0  0
   58.1880   28.9580   46.4040 C   0  0  0  0  0  0  0  0  0  0  0  0
   57.5040   28.4930   45.2780 C   0  0  0  0  0  0  0  0  0  0  0  0
   57.4020   27.2130   44.8660 C   0  0  0  0  0  0  0  0  0  0  0  0
   57.1500   26.0720   45.7640 C   0  0  0  0  0  0  0  0  0  0  0  0
   55.8780   25.8610   46.3160 C   0  0  0  0  0  0  0  0  0  0  0  0
   54.8200   26.7040   45.9970 O   0  0  0  0  0  0  0  0  0  0  0  0
   55.6740   24.8220   47.1670 N   0  0  0  0  0  0  0  0  0  0  0  0
   56.6880   23.9850   47.5050 C   0  0  0  0  0  0  0  0  0  0  0  0
   56.4110   22.7430   48.5270 S   0  0  0  0  0  0  0  0  0  0  0  0
   57.9320   24.1830   47.0000 N   0  0  0  0  0  0  0  0  0  0  0  0
   58.1870   25.2070   46.1440 C   0  0  0  0  0  0  0  0  0  0  0  0
   59.3540   25.3670   45.6980 O   0  0  0  0  0  0  0  0  0  0  0  0
   56.9710   29.6520   44.7040 C   0  0  0  0  0  0  0  0  0  0  0  0
   56.1350   29.7810   43.4680 C   0  0  0  0  0  0  0  0  0  0  0  0
   57.3150   30.7230   45.4460 N   0  0  0  0  0  0  0  0  0  0  0  0
   58.0510   30.3060   46.4630 N   0  0  0  0  0  0  0  0  0  0  0  0
   58.5510   31.2180   47.4950 C   0  0  0  0  0  0  0  0  0  0  0  0
   58.9360   32.5390   46.8840 C   0  0  0  0  0  0  0  0  0  0  0  0
   60.2740   32.9700   46.8900 C   0  0  0  0  0  0  0  0  0  0  0  0
   60.6190   34.2030   46.3280 C   0  0  0  0  0  0  0  0  0  0  0  0
   59.6340   35.0120   45.7550 C   0  0  0  0  0  0  0  0  0  0  0  0
   58.3030   34.5890   45.7410 C   0  0  0  0  0  0  0  0  0  0  0  0
   57.9530   33.3570   46.3010 C   0  0  0  0  0  0  0  0  0  0  0  0
   59.3659   28.7124   48.1465 H   0  0  0  0  0  0  0  0  0  0  0  0
   58.9250   27.1308   47.1799 H   0  0  0  0  0  0  0  0  0  0  0  0
   57.5140   27.0075   43.7912 H   0  0  0  0  0  0  0  0  0  0  0  0
   55.0845   29.9431   43.7511 H   0  0  0  0  0  0  0  0  0  0  0  0
   56.4902   30.6350   42.8725 H   0  0  0  0  0  0  0  0  0  0  0  0
   56.2163   28.8597   42.8725 H   0  0  0  0  0  0  0  0  0  0  0  0
   57.7646   31.3814   48.2466 H   0  0  0  0  0  0  0  0  0  0  0  0
   59.4378   30.7709   47.9680 H   0  0  0  0  0  0  0  0  0  0  0  0
   61.0523   32.3351   47.3384 H   0  0  0  0  0  0  0  0  0  0  0  0
   61.6671   34.5367   46.3369 H   0  0  0  0  0  0  0  0  0  0  0  0
   59.9071   35.9824   45.3148 H   0  0  0  0  0  0  0  0  0  0  0  0
   57.5290   35.2263   45.2886 H   0  0  0  0  0  0  0  0  0  0  0  0
   56.9040   33.0264   46.2853 H   0  0  0  0  0  0  0  0  0  0  0  0
  1  2  2  0
  2  3  1  0
  3  4  2  3
  4  5  1  0
  5  6  2  0
  6  7  1  0
  6  8  1  0
  8  9  1  0
  9 10  2  0
  9 11  1  0
 11 12  1  0
 12 13  2  0
  3 14  1  0
 14 15  1  0
 14 16  2  0
 16 17  1  0
 17 18  1  0
 18 19  1  0
 19 20  2  0
 20 21  1  0
 21 22  2  0
 22 23  1  0
 23 24  2  0
 17  2  1  0
 24 19  1  0
 12  5  1  0
  1 25  1  0
  1 26  1  0
  4 27  1  0
 15 28  1  0
 15 29  1  0
 15 30  1  0
 18 31  1  0
 18 32  1  0
 20 33  1  0
 21 34  1  0
 22 35  1  0
 23 36  1  0
 24 37  1  0
M  CHG  3   7  -1   8  -1  11  -1
M  END
>  <UniqueID>  (60) 
57

>  <SMILES>  (60) 
C=c1c(=Cc2c([O-])[n-]c(=S)[n-]c2=O)c(C)nn1Cc1ccccc1

>  <Energy>  (60) 
83.27598704127206

>  <Genealogy>  (60) 
C=c1c(=Cc2c([O-])[n-]c(=S)[n-]c2=O)c(C)nn1Cc1ccccc1 (protonated)
C=c1c(=Cc2c([O-])[n-]c(=S)[n-]c2=O)c(C)nn1Cc1ccccc1 (3D coordinates assigned)
C=c1c(=Cc2c([O-])[n-]c(=S)[n-]c2=O)c(C)nn1Cc1ccccc1 (optimized conformer: 83.27598704127206 kcal/mol)

>  <smiles>  (60) 
C=c1c(=Cc2c(O)[nH]c(=S)[nH]c2=O)c(C)nn1Cc1ccccc1

>  <score_type>  (60) 
oracle

>  <origin>  (60) 
adg

>  <m_score__min__energy>  (60) 
-15.66

>  <m_primary>  (60) 
energy

$$$$
60:0
     RDKit          3D

 45 47  0  0  0  0  0  0  0  0999 V2000
   58.7659   23.4753   46.4495 H   0  0  0  0  0  0  0  0  0  0  0  0
   57.8440   24.0660   46.3440 C   0  0  0  0  0  0  0  0  0  0  0  0
   57.9170   25.3920   46.0570 N   0  0  0  0  0  0  0  0  0  0  0  0
   56.8000   26.1650   45.9160 C   0  0  0  0  0  0  0  0  0  0  0  0
   56.8870   27.4350   45.6360 N   0  0  0  0  0  0  0  0  0  0  0  0
   57.8870   28.0780   44.8260 C   0  0  0  0  0  0  0  0  0  0  0  0
   58.8530   27.4200   44.3530 O   0  0  0  0  0  0  0  0  0  0  0  0
   57.8010   29.5390   44.5950 C   0  0  0  0  0  0  0  0  0  0  0  0
   57.1550   29.9870   43.4270 C   0  0  0  0  0  0  0  0  0  0  0  0
   56.7616   29.2534   42.7080 H   0  0  0  0  0  0  0  0  0  0  0  0
   57.0080   31.3500   43.1710 C   0  0  0  0  0  0  0  0  0  0  0  0
   56.4978   31.6848   42.2558 H   0  0  0  0  0  0  0  0  0  0  0  0
   57.5060   32.2880   44.0720 C   0  0  0  0  0  0  0  0  0  0  0  0
   57.3793   33.3624   43.8728 H   0  0  0  0  0  0  0  0  0  0  0  0
   58.1660   31.8660   45.2280 C   0  0  0  0  0  0  0  0  0  0  0  0
   58.5572   32.6130   45.9343 H   0  0  0  0  0  0  0  0  0  0  0  0
   58.3360   30.4980   45.4990 C   0  0  0  0  0  0  0  0  0  0  0  0
   59.2680   30.0370   46.9330 S   0  0  0  0  0  0  0  0  0  0  0  0
   60.4670   29.2350   46.5060 O   0  0  0  0  0  0  0  0  0  0  0  0
   58.3880   29.2310   47.8470 O   0  0  0  0  0  0  0  0  0  0  0  0
   59.8140   31.4620   47.7620 N   0  0  0  0  0  0  0  0  0  0  0  0
   61.0940   32.1130   47.6860 C   0  0  0  0  0  0  0  0  0  0  0  0
   62.2080   31.2900   47.4680 C   0  0  0  0  0  0  0  0  0  0  0  0
   62.0675   30.2042   47.3616 H   0  0  0  0  0  0  0  0  0  0  0  0
   63.4930   31.8290   47.3840 C   0  0  0  0  0  0  0  0  0  0  0  0
   64.3560   31.1700   47.2081 H   0  0  0  0  0  0  0  0  0  0  0  0
   63.6810   33.2010   47.5230 C   0  0  0  0  0  0  0  0  0  0  0  0
   64.6939   33.6253   47.4600 H   0  0  0  0  0  0  0  0  0  0  0  0
   62.5880   34.0390   47.7420 C   0  0  0  0  0  0  0  0  0  0  0  0
   62.7463   35.1221   47.8505 H   0  0  0  0  0  0  0  0  0  0  0  0
   61.2810   33.5130   47.8260 C   0  0  0  0  0  0  0  0  0  0  0  0
   60.1720   34.3470   48.0350 O   0  0  0  0  0  0  0  0  0  0  0  0
   59.0790   34.5430   47.1380 C   0  0  0  0  0  0  0  0  0  0  0  0
   58.4257   35.3352   47.5326 H   0  0  0  0  0  0  0  0  0  0  0  0
   58.5222   33.5987   47.0476 H   0  0  0  0  0  0  0  0  0  0  0  0
   59.5810   34.9500   45.7570 C   0  0  0  0  0  0  0  0  0  0  0  0
   60.4314   35.6394   45.8645 H   0  0  0  0  0  0  0  0  0  0  0  0
   59.9025   34.0544   45.2051 H   0  0  0  0  0  0  0  0  0  0  0  0
   58.7713   35.4498   45.2051 H   0  0  0  0  0  0  0  0  0  0  0  0
   55.5350   25.5800   46.0740 C   0  0  0  0  0  0  0  0  0  0  0  0
   54.3780   26.3390   45.9390 O   0  0  0  0  0  0  0  0  0  0  0  0
   55.4410   24.2160   46.3700 C   0  0  0  0  0  0  0  0  0  0  0  0
   54.4545   23.7459   46.4961 H   0  0  0  0  0  0  0  0  0  0  0  0
   56.6020   23.4530   46.5050 C   0  0  0  0  0  0  0  0  0  0  0  0
   56.5378   22.3794   46.7360 H   0  0  0  0  0  0  0  0  0  0  0  0
  1  2  1  0
  2  3  1  0
  3  4  1  0
  4  5  2  0
  5  6  1  0
  6  7  2  0
  6  8  1  0
  8  9  2  0
  9 10  1  0
  9 11  1  0
 11 12  1  0
 11 13  2  0
 13 14  1  0
 13 15  1  0
 15 16  1  0
 15 17  2  0
 17 18  1  0
 18 19  2  0
 18 20  2  0
 18 21  1  0
 21 22  1  0
 22 23  2  0
 23 24  1  0
 23 25  1  0
 25 26  1  0
 25 27  2  0
 27 28  1  0
 27 29  1  0
 29 30  1  0
 29 31  2  0
 31 32  1  0
 32 33  1  0
 33 34  1  0
 33 35  1  0
 33 36  1  0
 36 37  1  0
 36 38  1  0
 36 39  1  0
  4 40  1  0
 40 41  1  0
 40 42  2  0
 42 43  1  0
 42 44  1  0
 44 45  1  0
 44  2  2  0
 17  8  1  0
 31 22  1  0
M  CHG  3   3  -1  21  -1  41  -1
M  END
>  <UniqueID>  (61) 
58

>  <SMILES>  (61) 
CCOc1ccccc1[N-]S(=O)(=O)c1ccccc1C(=O)/N=c1\[n-]cccc1[O-]

>  <Energy>  (61) 
63.25935190012354

>  <Genealogy>  (61) 
CCOc1ccccc1[N-]S(=O)(=O)c1ccccc1C(=O)N=c1[n-]cccc1[O-] (protonated)
CCOc1ccccc1[N-]S(=O)(=O)c1ccccc1C(=O)/N=c1\[n-]cccc1[O-] (cis-trans isomerization)
CCOc1ccccc1[N-]S(=O)(=O)c1ccccc1C(=O)/N=c1\[n-]cccc1[O-] (3D coordinates assigned)
CCOc1ccccc1[N-]S(=O)(=O)c1ccccc1C(=O)/N=c1\[n-]cccc1[O-] (optimized conformer: 63.25935190012354 kcal/mol)

>  <smiles>  (61) 
CCOc1ccccc1NS(=O)(=O)c1ccccc1C(=O)N=c1[nH]cccc1O

>  <score_type>  (61) 
oracle

>  <origin>  (61) 
adg

>  <m_score__min__energy>  (61) 
-14.34

>  <m_primary>  (61) 
energy

$$$$
61:0
     RDKit          3D

 44 46  0  0  0  0  0  0  0  0999 V2000
   58.6944   34.0238   43.1740 H   0  0  0  0  0  0  0  0  0  0  0  0
   58.2760   33.0990   43.5980 C   0  0  0  0  0  0  0  0  0  0  0  0
   57.7460   32.1190   42.7520 C   0  0  0  0  0  0  0  0  0  0  0  0
   57.7750   32.3520   41.0130 Cl  0  0  0  0  0  0  0  0  0  0  0  0
   57.2040   30.9470   43.2920 C   0  0  0  0  0  0  0  0  0  0  0  0
   56.8059   30.1685   42.6245 H   0  0  0  0  0  0  0  0  0  0  0  0
   57.1670   30.7620   44.6850 C   0  0  0  0  0  0  0  0  0  0  0  0
   56.6590   29.5520   45.2650 N   0  0  0  0  0  0  0  0  0  0  0  0
   57.3590   28.5070   45.5980 C   0  0  0  0  0  0  0  0  0  0  0  0
   58.2220   28.4380   46.6710 C   0  0  0  0  0  0  0  0  0  0  0  0
   58.6140   29.3700   47.6260 C   0  0  0  0  0  0  0  0  0  0  0  0
   58.2212   30.3974   47.6127 H   0  0  0  0  0  0  0  0  0  0  0  0
   59.5350   28.9520   48.6150 C   0  0  0  0  0  0  0  0  0  0  0  0
   59.9760   29.8710   49.6270 N   0  0  0  0  0  0  0  0  0  0  0  0
   61.3970   29.9580   49.9850 C   0  0  0  0  0  0  0  0  0  0  0  0
   61.6375   30.9953   50.2609 H   0  0  0  0  0  0  0  0  0  0  0  0
   62.0005   29.6447   49.1204 H   0  0  0  0  0  0  0  0  0  0  0  0
   61.7110   29.0400   51.1630 C   0  0  0  0  0  0  0  0  0  0  0  0
   61.5274   29.5769   52.1054 H   0  0  0  0  0  0  0  0  0  0  0  0
   61.0662   28.1500   51.1164 H   0  0  0  0  0  0  0  0  0  0  0  0
   62.7658   28.7314   51.1164 H   0  0  0  0  0  0  0  0  0  0  0  0
   58.8200   30.9160   50.4030 S   0  0  0  0  0  0  0  0  0  0  0  0
   57.7090   30.0910   50.9880 O   0  0  0  0  0  0  0  0  0  0  0  0
   58.2500   31.8830   49.4040 O   0  0  0  0  0  0  0  0  0  0  0  0
   59.6080   31.8600   51.6910 C   0  0  0  0  0  0  0  0  0  0  0  0
   59.2896   31.4785   52.6724 H   0  0  0  0  0  0  0  0  0  0  0  0
   60.7001   31.7668   51.5981 H   0  0  0  0  0  0  0  0  0  0  0  0
   59.3211   32.9179   51.5981 H   0  0  0  0  0  0  0  0  0  0  0  0
   60.0130   27.6150   48.6110 C   0  0  0  0  0  0  0  0  0  0  0  0
   60.7256   27.2915   49.3841 H   0  0  0  0  0  0  0  0  0  0  0  0
   59.5880   26.6980   47.6320 C   0  0  0  0  0  0  0  0  0  0  0  0
   59.9523   25.6601   47.6281 H   0  0  0  0  0  0  0  0  0  0  0  0
   58.6900   27.1500   46.6680 C   0  0  0  0  0  0  0  0  0  0  0  0
   58.1300   26.4720   45.6450 N   0  0  0  0  0  0  0  0  0  0  0  0
   58.3020   25.0560   45.3310 C   0  0  0  0  0  0  0  0  0  0  0  0
   58.3721   24.4792   46.2650 H   0  0  0  0  0  0  0  0  0  0  0  0
   57.4401   24.7029   44.7458 H   0  0  0  0  0  0  0  0  0  0  0  0
   59.2233   24.9195   44.7458 H   0  0  0  0  0  0  0  0  0  0  0  0
   57.3080   27.2920   44.9970 N   0  0  0  0  0  0  0  0  0  0  0  0
   56.6980   27.0020   44.2010 H   0  0  0  0  0  0  0  0  0  0  0  0
   57.7320   31.7320   45.5230 C   0  0  0  0  0  0  0  0  0  0  0  0
   57.7495   31.5720   46.6112 H   0  0  0  0  0  0  0  0  0  0  0  0
   58.2740   32.9030   44.9830 C   0  0  0  0  0  0  0  0  0  0  0  0
   58.9580   34.1230   46.0420 Cl  0  0  0  0  0  0  0  0  0  0  0  0
  1  2  1  0
  2  3  2  0
  3  4  1  0
  3  5  1  0
  5  6  1  0
  5  7  2  0
  7  8  1  0
  8  9  2  0
  9 10  1  0
 10 11  2  0
 11 12  1  0
 11 13  1  0
 13 14  1  0
 14 15  1  0
 15 16  1  0
 15 17  1  0
 15 18  1  0
 18 19  1  0
 18 20  1  0
 18 21  1  0
 14 22  1  0
 22 23  2  0
 22 24  2  0
 22 25  1  0
 25 26  1  0
 25 27  1  0
 25 28  1  0
 13 29  2  0
 29 30  1  0
 29 31  1  0
 31 32  1  0
 31 33  2  0
 33 34  1  0
 34 35  1  0
 35 36  1  0
 35 37  1  0
 35 38  1  0
 34 39  1  0
 39 40  1  0
  7 41  1  0
 41 42  1  0
 41 43  2  0
 43 44  1  0
 43  2  1  0
 39  9  1  0
 33 10  1  0
M  END
>  <UniqueID>  (62) 
59

>  <SMILES>  (62) 
CCN(c1ccc2c(c1)/c(=N/c1cc(Cl)cc(Cl)c1)[nH]n2C)S(C)(=O)=O

>  <Energy>  (62) 
90.61540764239473

>  <Genealogy>  (62) 
CCN(c1ccc2c(c1)/c(=N/c1cc(Cl)cc(Cl)c1)[nH]n2C)S(C)(=O)=O (cis-trans isomerization)
CCN(c1ccc2c(c1)/c(=N/c1cc(Cl)cc(Cl)c1)[nH]n2C)S(C)(=O)=O (3D coordinates assigned)
CCN(c1ccc2c(c1)/c(=N/c1cc(Cl)cc(Cl)c1)[nH]n2C)S(C)(=O)=O (optimized conformer: 90.61540764239473 kcal/mol)

>  <smiles>  (62) 
CCN(c1ccc2c(c1)c(=Nc1cc(Cl)cc(Cl)c1)[nH]n2C)S(C)(=O)=O

>  <score_type>  (62) 
oracle

>  <origin>  (62) 
adg

>  <m_score__min__energy>  (62) 
-8.8800000000000008

>  <m_primary>  (62) 
energy

$$$$
62:0
     RDKit          3D

 32 34  0  0  0  0  0  0  0  0999 V2000
   58.6786   26.4683   44.3251 H   0  0  0  0  0  0  0  0  0  0  0  0
   57.7900   25.8850   44.6080 C   0  0  0  0  0  0  0  0  0  0  0  0
   57.3630   24.8400   43.9260 C   0  0  0  0  0  0  0  0  0  0  0  0
   57.8743   24.4875   43.0181 H   0  0  0  0  0  0  0  0  0  0  0  0
   56.1430   24.1640   44.4610 C   0  0  0  0  0  0  0  0  0  0  0  0
   55.3458   24.1811   43.7032 H   0  0  0  0  0  0  0  0  0  0  0  0
   56.3690   23.1171   44.7117 H   0  0  0  0  0  0  0  0  0  0  0  0
   55.5950   25.0660   45.9560 S   0  0  0  0  0  0  0  0  0  0  0  0
   56.9740   26.1900   45.7670 C   0  0  0  0  0  0  0  0  0  0  0  0
   57.2950   27.1540   46.6390 C   0  0  0  0  0  0  0  0  0  0  0  0
   57.3910   26.8868   47.7017 H   0  0  0  0  0  0  0  0  0  0  0  0
   57.5270   28.5610   46.2440 C   0  0  0  0  0  0  0  0  0  0  0  0
   56.6430   29.2330   45.3890 C   0  0  0  0  0  0  0  0  0  0  0  0
   55.5210   28.5870   44.8790 O   0  0  0  0  0  0  0  0  0  0  0  0
   56.8900   30.5200   45.0360 N   0  0  0  0  0  0  0  0  0  0  0  0
   56.2180   31.0100   44.4030 H   0  0  0  0  0  0  0  0  0  0  0  0
   58.0000   31.1720   45.4730 C   0  0  0  0  0  0  0  0  0  0  0  0
   58.1980   32.3640   45.1050 O   0  0  0  0  0  0  0  0  0  0  0  0
   58.9000   30.5360   46.2870 N   0  0  0  0  0  0  0  0  0  0  0  0
   60.0800   31.2320   46.7400 C   0  0  0  0  0  0  0  0  0  0  0  0
   61.3300   30.5900   46.7260 C   0  0  0  0  0  0  0  0  0  0  0  0
   61.4099   29.5529   46.3680 H   0  0  0  0  0  0  0  0  0  0  0  0
   62.4730   31.2660   47.1660 C   0  0  0  0  0  0  0  0  0  0  0  0
   63.4494   30.7596   47.1539 H   0  0  0  0  0  0  0  0  0  0  0  0
   62.3760   32.5840   47.6210 C   0  0  0  0  0  0  0  0  0  0  0  0
   63.2760   33.1147   47.9650 H   0  0  0  0  0  0  0  0  0  0  0  0
   61.1350   33.2280   47.6390 C   0  0  0  0  0  0  0  0  0  0  0  0
   61.0589   34.2644   47.9997 H   0  0  0  0  0  0  0  0  0  0  0  0
   59.9910   32.5560   47.1990 C   0  0  0  0  0  0  0  0  0  0  0  0
   59.0168   33.0666   47.2124 H   0  0  0  0  0  0  0  0  0  0  0  0
   58.6790   29.2390   46.6710 C   0  0  0  0  0  0  0  0  0  0  0  0
   59.4990   28.6510   47.4320 O   0  0  0  0  0  0  0  0  0  0  0  0
  1  2  1  0
  2  3  2  0
  3  4  1  0
  3  5  1  0
  5  6  1  0
  5  7  1  0
  5  8  1  0
  8  9  1  0
  9 10  2  0
 10 11  1  0
 10 12  1  0
 12 13  2  0
 13 14  1  0
 13 15  1  0
 15 16  1  0
 15 17  1  0
 17 18  2  0
 17 19  1  0
 19 20  1  0
 20 21  2  0
 21 22  1  0
 21 23  1  0
 23 24  1  0
 23 25  2  0
 25 26  1  0
 25 27  1  0
 27 28  1  0
 27 29  2  0
 29 30  1  0
 19 31  1  0
 31 32  2  0
  9  2  1  0
 31 12  1  0
 29 20  1  0
M  CHG  1  14  -1
M  END
>  <UniqueID>  (63) 
60

>  <SMILES>  (63) 
O=c1[nH]c([O-])c(/C=C2/C=CCS2)c(=O)n1-c1ccccc1

>  <Energy>  (63) 
58.817547706750105

>  <Genealogy>  (63) 
O=c1[nH]c([O-])c(C=C2C=CCS2)c(=O)n1-c1ccccc1 (protonated)
O=c1[nH]c([O-])c(/C=C2/C=CCS2)c(=O)n1-c1ccccc1 (cis-trans isomerization)
O=c1[nH]c([O-])c(/C=C2/C=CCS2)c(=O)n1-c1ccccc1 (3D coordinates assigned)
O=c1[nH]c([O-])c(/C=C2/C=CCS2)c(=O)n1-c1ccccc1 (nonaromatic ring conformer: 58.817547706750105 kcal/mol)

>  <smiles>  (63) 
O=c1[nH]c(O)c(C=C2C=CCS2)c(=O)n1-c1ccccc1

>  <score_type>  (63) 
oracle

>  <origin>  (63) 
adg

>  <m_score__min__energy>  (63) 
-9.0399999999999991

>  <m_primary>  (63) 
energy

$$$$
63:0
     RDKit          3D

 39 41  0  0  0  0  0  0  0  0999 V2000
   59.2710   33.4050   48.8600 C   0  0  0  0  0  0  0  0  0  0  0  0
   58.9950   33.5960   47.3980 C   0  0  0  0  0  0  0  0  0  0  0  0
   59.4530   34.7380   46.7250 C   0  0  0  0  0  0  0  0  0  0  0  0
   59.1980   34.8980   45.3610 C   0  0  0  0  0  0  0  0  0  0  0  0
   58.4900   33.9200   44.6590 C   0  0  0  0  0  0  0  0  0  0  0  0
   58.0220   32.7710   45.3170 C   0  0  0  0  0  0  0  0  0  0  0  0
   57.2680   31.7380   44.5650 C   0  0  0  0  0  0  0  0  0  0  0  0
   57.0870   31.8850   43.3270 O   0  0  0  0  0  0  0  0  0  0  0  0
   56.7720   30.5470   45.1950 N   0  0  0  0  0  0  0  0  0  0  0  0
   57.2390   29.2120   44.9520 C   0  0  0  0  0  0  0  0  0  0  0  0
   57.8600   28.9200   43.7330 C   0  0  0  0  0  0  0  0  0  0  0  0
   58.3560   27.6370   43.4830 C   0  0  0  0  0  0  0  0  0  0  0  0
   58.2250   26.6350   44.4470 C   0  0  0  0  0  0  0  0  0  0  0  0
   57.5760   26.9030   45.6630 C   0  0  0  0  0  0  0  0  0  0  0  0
   57.4430   25.8340   46.7150 C   0  0  0  0  0  0  0  0  0  0  0  0
   56.3310   24.8720   46.3600 C   0  0  0  0  0  0  0  0  0  0  0  0
   55.0570   25.3460   46.0040 C   0  0  0  0  0  0  0  0  0  0  0  0
   54.7870   26.7100   45.9860 O   0  0  0  0  0  0  0  0  0  0  0  0
   54.0720   24.4700   45.6740 N   0  0  0  0  0  0  0  0  0  0  0  0
   54.2950   23.1330   45.6760 C   0  0  0  0  0  0  0  0  0  0  0  0
   53.3670   22.3410   45.3670 O   0  0  0  0  0  0  0  0  0  0  0  0
   55.5180   22.6470   46.0050 N   0  0  0  0  0  0  0  0  0  0  0  0
   56.5380   23.4780   46.3390 C   0  0  0  0  0  0  0  0  0  0  0  0
   57.6610   22.9870   46.6290 O   0  0  0  0  0  0  0  0  0  0  0  0
   57.0690   28.1910   45.9020 C   0  0  0  0  0  0  0  0  0  0  0  0
   58.2980   32.6080   46.6870 C   0  0  0  0  0  0  0  0  0  0  0  0
   58.5073   33.9335   49.4494 H   0  0  0  0  0  0  0  0  0  0  0  0
   59.2430   32.3322   49.1013 H   0  0  0  0  0  0  0  0  0  0  0  0
   60.2651   33.8093   49.1013 H   0  0  0  0  0  0  0  0  0  0  0  0
   60.0143   35.5095   47.2725 H   0  0  0  0  0  0  0  0  0  0  0  0
   59.5560   35.7971   44.8381 H   0  0  0  0  0  0  0  0  0  0  0  0
   58.2977   34.0505   43.5838 H   0  0  0  0  0  0  0  0  0  0  0  0
   57.9586   29.7037   42.9674 H   0  0  0  0  0  0  0  0  0  0  0  0
   58.8503   27.4164   42.5254 H   0  0  0  0  0  0  0  0  0  0  0  0
   58.6319   25.6316   44.2529 H   0  0  0  0  0  0  0  0  0  0  0  0
   58.3904   25.2799   46.7889 H   0  0  0  0  0  0  0  0  0  0  0  0
   57.2049   26.3113   47.6770 H   0  0  0  0  0  0  0  0  0  0  0  0
   56.5348   28.4019   46.8402 H   0  0  0  0  0  0  0  0  0  0  0  0
   57.9640   31.6971   47.2054 H   0  0  0  0  0  0  0  0  0  0  0  0
  1  2  1  0
  2  3  2  0
  3  4  1  0
  4  5  2  0
  5  6  1  0
  6  7  1  0
  7  8  2  0
  7  9  1  0
  9 10  1  0
 10 11  2  0
 11 12  1  0
 12 13  2  0
 13 14  1  0
 14 15  1  0
 15 16  1  0
 16 17  2  0
 17 18  1  0
 17 19  1  0
 19 20  1  0
 20 21  2  0
 20 22  1  0
 22 23  1  0
 23 24  2  0
 14 25  2  0
  6 26  2  0
 26  2  1  0
 25 10  1  0
 23 16  1  0
  1 27  1  0
  1 28  1  0
  1 29  1  0
  3 30  1  0
  4 31  1  0
  5 32  1  0
 11 33  1  0
 12 34  1  0
 13 35  1  0
 15 36  1  0
 15 37  1  0
 25 38  1  0
 26 39  1  0
M  CHG  4   9  -1  18  -1  19  -1  22  -1
M  END
>  <UniqueID>  (64) 
61

>  <SMILES>  (64) 
Cc1cccc(C(=O)[N-]c2cccc(Cc3c([O-])[n-]c(=O)[n-]c3=O)c2)c1

>  <Energy>  (64) 
45.28495841346775

>  <Genealogy>  (64) 
Cc1cccc(C(=O)[N-]c2cccc(Cc3c([O-])[n-]c(=O)[n-]c3=O)c2)c1 (protonated)
Cc1cccc(C(=O)[N-]c2cccc(Cc3c([O-])[n-]c(=O)[n-]c3=O)c2)c1 (3D coordinates assigned)
Cc1cccc(C(=O)[N-]c2cccc(Cc3c([O-])[n-]c(=O)[n-]c3=O)c2)c1 (optimized conformer: 45.28495841346775 kcal/mol)

>  <smiles>  (64) 
Cc1cccc(C(=O)Nc2cccc(Cc3c(O)[nH]c(=O)[nH]c3=O)c2)c1

>  <score_type>  (64) 
oracle

>  <origin>  (64) 
adg

>  <m_score__min__energy>  (64) 
-17.52

>  <m_primary>  (64) 
energy

$$$$
64:0
     RDKit          3D

 59 62  0  0  0  0  0  0  0  0999 V2000
   54.7750   26.3440   46.3050 O   0  0  0  0  0  0  0  0  0  0  0  0
   56.0110   26.1050   46.3700 C   0  0  0  0  0  0  0  0  0  0  0  0
   56.5300   25.0660   47.3130 C   0  0  0  0  0  0  0  0  0  0  0  0
   56.1230   23.7650   46.8930 O   0  0  0  0  0  0  0  0  0  0  0  0
   56.6200   23.1020   45.7610 C   0  0  0  0  0  0  0  0  0  0  0  0
   57.9090   22.5360   45.7300 C   0  0  0  0  0  0  0  0  0  0  0  0
   58.3660   21.8860   44.5790 C   0  0  0  0  0  0  0  0  0  0  0  0
   57.5450   21.7940   43.4540 C   0  0  0  0  0  0  0  0  0  0  0  0
   56.2640   22.3480   43.4770 C   0  0  0  0  0  0  0  0  0  0  0  0
   55.8000   23.0010   44.6240 C   0  0  0  0  0  0  0  0  0  0  0  0
   54.1850   23.6920   44.6260 Cl  0  0  0  0  0  0  0  0  0  0  0  0
   56.9260   26.7620   45.4870 N   0  0  0  0  0  0  0  0  0  0  0  0
   57.3490   28.1280   45.5990 C   0  0  0  0  0  0  0  0  0  0  0  0
   58.5450   28.4050   46.2740 C   0  0  0  0  0  0  0  0  0  0  0  0
   58.9940   29.7280   46.4270 C   0  0  0  0  0  0  0  0  0  0  0  0
   60.2430   30.0000   47.0900 N   0  0  0  0  0  0  0  0  0  0  0  0
   60.6910   29.1990   48.2320 C   0  0  0  0  0  0  0  0  0  0  0  0
   60.9520   30.1030   49.4540 C   0  0  0  0  0  0  0  0  0  0  0  0
   61.2890   31.5080   49.1000 N   0  0  0  0  0  0  0  0  0  0  0  0
   60.1240   32.4230   49.1930 C   0  0  0  0  0  0  0  0  0  0  0  0
   60.4100   33.7380   48.4610 C   0  0  0  0  0  0  0  0  0  0  0  0
   59.5030   33.9400   47.2760 C   0  0  0  0  0  0  0  0  0  0  0  0
   60.0240   34.4110   46.0600 C   0  0  0  0  0  0  0  0  0  0  0  0
   59.1920   34.5610   44.9470 C   0  0  0  0  0  0  0  0  0  0  0  0
   57.8360   34.2370   45.0390 C   0  0  0  0  0  0  0  0  0  0  0  0
   57.3110   33.7600   46.2430 C   0  0  0  0  0  0  0  0  0  0  0  0
   58.1410   33.6090   47.3580 C   0  0  0  0  0  0  0  0  0  0  0  0
   61.9830   31.6050   47.7970 C   0  0  0  0  0  0  0  0  0  0  0  0
   61.0900   31.1130   46.6450 C   0  0  0  0  0  0  0  0  0  0  0  0
   58.2260   30.7770   45.8970 C   0  0  0  0  0  0  0  0  0  0  0  0
   57.0180   30.5090   45.2490 C   0  0  0  0  0  0  0  0  0  0  0  0
   56.5660   29.1940   45.1120 C   0  0  0  0  0  0  0  0  0  0  0  0
   55.3300   28.9620   44.5200 O   0  0  0  0  0  0  0  0  0  0  0  0
   57.6288   25.1126   47.3345 H   0  0  0  0  0  0  0  0  0  0  0  0
   56.1235   25.2602   48.3165 H   0  0  0  0  0  0  0  0  0  0  0  0
   58.5591   22.6053   46.6146 H   0  0  0  0  0  0  0  0  0  0  0  0
   59.3742   21.4465   44.5603 H   0  0  0  0  0  0  0  0  0  0  0  0
   57.9076   21.2847   42.5489 H   0  0  0  0  0  0  0  0  0  0  0  0
   55.6173   22.2709   42.5905 H   0  0  0  0  0  0  0  0  0  0  0  0
   59.1394   27.5776   46.6889 H   0  0  0  0  0  0  0  0  0  0  0  0
   59.9140   28.4627   48.4853 H   0  0  0  0  0  0  0  0  0  0  0  0
   61.6255   28.6851   47.9625 H   0  0  0  0  0  0  0  0  0  0  0  0
   60.0472   30.1104   50.0796 H   0  0  0  0  0  0  0  0  0  0  0  0
   61.8239   29.6870   49.9800 H   0  0  0  0  0  0  0  0  0  0  0  0
   59.2473   31.9392   48.7375 H   0  0  0  0  0  0  0  0  0  0  0  0
   59.9300   32.6428   50.2532 H   0  0  0  0  0  0  0  0  0  0  0  0
   60.2662   34.5725   49.1631 H   0  0  0  0  0  0  0  0  0  0  0  0
   61.4450   33.6993   48.0905 H   0  0  0  0  0  0  0  0  0  0  0  0
   61.0920   34.6631   45.9831 H   0  0  0  0  0  0  0  0  0  0  0  0
   59.6049   34.9343   43.9982 H   0  0  0  0  0  0  0  0  0  0  0  0
   57.1814   34.3575   44.1632 H   0  0  0  0  0  0  0  0  0  0  0  0
   56.2438   33.5031   46.3136 H   0  0  0  0  0  0  0  0  0  0  0  0
   57.7253   33.2294   48.3031 H   0  0  0  0  0  0  0  0  0  0  0  0
   62.2558   32.6549   47.6145 H   0  0  0  0  0  0  0  0  0  0  0  0
   62.8794   30.9686   47.8350 H   0  0  0  0  0  0  0  0  0  0  0  0
   60.4506   31.9405   46.3039 H   0  0  0  0  0  0  0  0  0  0  0  0
   61.7312   30.7649   45.8218 H   0  0  0  0  0  0  0  0  0  0  0  0
   58.5773   31.8150   45.9925 H   0  0  0  0  0  0  0  0  0  0  0  0
   56.4190   31.3380   44.8442 H   0  0  0  0  0  0  0  0  0  0  0  0
  1  2  2  0
  2  3  1  0
  3  4  1  0
  4  5  1  0
  5  6  2  0
  6  7  1  0
  7  8  2  0
  8  9  1  0
  9 10  2  0
 10 11  1  0
  2 12  1  0
 12 13  1  0
 13 14  2  0
 14 15  1  0
 15 16  1  0
 16 17  1  0
 17 18  1  0
 18 19  1  0
 19 20  1  0
 20 21  1  0
 21 22  1  0
 22 23  2  0
 23 24  1  0
 24 25  2  0
 25 26  1  0
 26 27  2  0
 19 28  1  0
 28 29  1  0
 15 30  2  0
 30 31  1  0
 31 32  2  0
 32 33  1  0
 10  5  1  0
 32 13  1  0
 29 16  1  0
 27 22  1  0
  3 34  1  0
  3 35  1  0
  6 36  1  0
  7 37  1  0
  8 38  1  0
  9 39  1  0
 14 40  1  0
 17 41  1  0
 17 42  1  0
 18 43  1  0
 18 44  1  0
 20 45  1  0
 20 46  1  0
 21 47  1  0
 21 48  1  0
 23 49  1  0
 24 50  1  0
 25 51  1  0
 26 52  1  0
 27 53  1  0
 28 54  1  0
 28 55  1  0
 29 56  1  0
 29 57  1  0
 30 58  1  0
 31 59  1  0
M  CHG  2  12  -1  33  -1
M  END
>  <UniqueID>  (65) 
62

>  <SMILES>  (65) 
O=C(COc1ccccc1Cl)[N-]c1cc(N2CCN(CCc3ccccc3)CC2)ccc1[O-]

>  <Energy>  (65) 
77.72180225339575

>  <Genealogy>  (65) 
O=C(COc1ccccc1Cl)[N-]c1cc(N2CCN(CCc3ccccc3)CC2)ccc1[O-] (protonated)
O=C(COc1ccccc1Cl)[N-]c1cc(N2CCN(CCc3ccccc3)CC2)ccc1[O-] (3D coordinates assigned)
O=C(COc1ccccc1Cl)[N-]c1cc(N2CCN(CCc3ccccc3)CC2)ccc1[O-] (nonaromatic ring conformer: 77.72180225339575 kcal/mol)

>  <smiles>  (65) 
O=C(COc1ccccc1Cl)Nc1cc(N2CCN(CCc3ccccc3)CC2)ccc1O

>  <score_type>  (65) 
oracle

>  <origin>  (65) 
adg

>  <m_score__min__energy>  (65) 
-14.49

>  <m_primary>  (65) 
energy

$$$$
65:0
     RDKit          3D

 58 60  0  0  0  0  0  0  0  0999 V2000
   54.5468   29.9472   43.4973 H   0  0  0  0  0  0  0  0  0  0  0  0
   55.4740   29.9580   44.0890 C   0  0  0  0  0  0  0  0  0  0  0  0
   55.8130   28.8760   44.8380 N   0  0  0  0  0  0  0  0  0  0  0  0
   56.9580   28.8410   45.5800 C   0  0  0  0  0  0  0  0  0  0  0  0
   57.2610   27.8100   46.3140 N   0  0  0  0  0  0  0  0  0  0  0  0
   58.4310   27.6440   47.1300 C   0  0  0  0  0  0  0  0  0  0  0  0
   59.3560   26.6090   46.9040 C   0  0  0  0  0  0  0  0  0  0  0  0
   59.1631   25.8619   46.1201 H   0  0  0  0  0  0  0  0  0  0  0  0
   60.5190   26.5280   47.6730 C   0  0  0  0  0  0  0  0  0  0  0  0
   61.2354   25.7117   47.4987 H   0  0  0  0  0  0  0  0  0  0  0  0
   60.7760   27.4800   48.6630 C   0  0  0  0  0  0  0  0  0  0  0  0
   61.6971   27.4131   49.2606 H   0  0  0  0  0  0  0  0  0  0  0  0
   59.8640   28.5220   48.8990 C   0  0  0  0  0  0  0  0  0  0  0  0
   60.1490   29.5740   49.9570 C   0  0  0  0  0  0  0  0  0  0  0  0
   60.6442   29.0822   50.8072 H   0  0  0  0  0  0  0  0  0  0  0  0
   59.1804   30.0204   50.2263 H   0  0  0  0  0  0  0  0  0  0  0  0
   61.0200   30.6920   49.4920 N   0  0  0  0  0  0  0  0  0  0  0  0
   60.5230   31.5750   49.7620 H   0  0  0  0  0  0  0  0  0  0  0  0
   61.2040   30.7080   48.0160 C   0  0  0  0  0  0  0  0  0  0  0  0
   60.2415   30.9570   47.5452 H   0  0  0  0  0  0  0  0  0  0  0  0
   61.5606   29.7112   47.7174 H   0  0  0  0  0  0  0  0  0  0  0  0
   62.2530   31.7290   47.5550 C   0  0  0  0  0  0  0  0  0  0  0  0
   62.7269   32.1902   48.4341 H   0  0  0  0  0  0  0  0  0  0  0  0
   63.0184   31.2207   46.9503 H   0  0  0  0  0  0  0  0  0  0  0  0
   61.7656   32.5079   46.9503 H   0  0  0  0  0  0  0  0  0  0  0  0
   62.3310   30.6800   50.1990 C   0  0  0  0  0  0  0  0  0  0  0  0
   63.1243   30.4740   49.4653 H   0  0  0  0  0  0  0  0  0  0  0  0
   62.4606   31.6636   50.6740 H   0  0  0  0  0  0  0  0  0  0  0  0
   62.3990   29.6190   51.3060 C   0  0  0  0  0  0  0  0  0  0  0  0
   62.3674   30.1120   52.2888 H   0  0  0  0  0  0  0  0  0  0  0  0
   61.5429   28.9349   51.2113 H   0  0  0  0  0  0  0  0  0  0  0  0
   63.3355   29.0497   51.2113 H   0  0  0  0  0  0  0  0  0  0  0  0
   58.7040   28.6070   48.1100 C   0  0  0  0  0  0  0  0  0  0  0  0
   58.0020   29.4398   48.2639 H   0  0  0  0  0  0  0  0  0  0  0  0
   57.8060   29.9560   45.5920 C   0  0  0  0  0  0  0  0  0  0  0  0
   58.7316   29.9407   46.1861 H   0  0  0  0  0  0  0  0  0  0  0  0
   57.4670   31.0950   44.8400 C   0  0  0  0  0  0  0  0  0  0  0  0
   58.2880   32.2340   44.8050 O   0  0  0  0  0  0  0  0  0  0  0  0
   58.7140   32.9530   45.9320 C   0  0  0  0  0  0  0  0  0  0  0  0
   59.3700   34.1740   45.7460 C   0  0  0  0  0  0  0  0  0  0  0  0
   59.5292   34.5612   44.7288 H   0  0  0  0  0  0  0  0  0  0  0  0
   59.8240   34.9040   46.8480 C   0  0  0  0  0  0  0  0  0  0  0  0
   60.3487   35.8585   46.6944 H   0  0  0  0  0  0  0  0  0  0  0  0
   59.6140   34.4260   48.1440 C   0  0  0  0  0  0  0  0  0  0  0  0
   59.9840   34.9988   49.0071 H   0  0  0  0  0  0  0  0  0  0  0  0
   58.9300   33.2130   48.3470 C   0  0  0  0  0  0  0  0  0  0  0  0
   58.6830   32.6820   49.6570 N   0  0  0  0  0  0  0  0  0  0  0  0
   59.6290   32.9970   51.0760 S   0  0  0  0  0  0  0  0  0  0  0  0
   60.9660   33.5360   50.6540 O   0  0  0  0  0  0  0  0  0  0  0  0
   59.8400   31.7250   51.8490 O   0  0  0  0  0  0  0  0  0  0  0  0
   58.8200   34.2170   52.0910 C   0  0  0  0  0  0  0  0  0  0  0  0
   58.9801   33.9756   53.1522 H   0  0  0  0  0  0  0  0  0  0  0  0
   59.2387   35.2107   51.8738 H   0  0  0  0  0  0  0  0  0  0  0  0
   57.7417   34.2180   51.8738 H   0  0  0  0  0  0  0  0  0  0  0  0
   58.4700   32.4920   47.2390 C   0  0  0  0  0  0  0  0  0  0  0  0
   57.9124   31.5561   47.3913 H   0  0  0  0  0  0  0  0  0  0  0  0
   56.3000   31.0830   44.0690 C   0  0  0  0  0  0  0  0  0  0  0  0
   56.0351   31.9538   43.4514 H   0  0  0  0  0  0  0  0  0  0  0  0
  1  2  1  0
  2  3  1  0
  3  4  1  0
  4  5  2  0
  5  6  1  0
  6  7  2  0
  7  8  1  0
  7  9  1  0
  9 10  1  0
  9 11  2  0
 11 12  1  0
 11 13  1  0
 13 14  1  0
 14 15  1  0
 14 16  1  0
 14 17  1  0
 17 18  1  0
 17 19  1  0
 19 20  1  0
 19 21  1  0
 19 22  1  0
 22 23  1  0
 22 24  1  0
 22 25  1  0
 17 26  1  0
 26 27  1  0
 26 28  1  0
 26 29  1  0
 29 30  1  0
 29 31  1  0
 29 32  1  0
 13 33  2  0
 33 34  1  0
  4 35  1  0
 35 36  1  0
 35 37  2  0
 37 38  1  0
 38 39  1  0
 39 40  2  0
 40 41  1  0
 40 42  1  0
 42 43  1  0
 42 44  2  0
 44 45  1  0
 44 46  1  0
 46 47  1  0
 47 48  1  0
 48 49  2  0
 48 50  2  0
 48 51  1  0
 51 52  1  0
 51 53  1  0
 51 54  1  0
 46 55  2  0
 55 56  1  0
 37 57  1  0
 57 58  1  0
 57  2  2  0
 33  6  1  0
 55 39  1  0
M  CHG  3   3  -1  17   1  47  -1
M  END
>  <UniqueID>  (66) 
63

>  <SMILES>  (66) 
CC[NH+](CC)Cc1cccc(/N=c2/cc(Oc3cccc([N-]S(C)(=O)=O)c3)cc[n-]2)c1

>  <Energy>  (66) 
75.35773961752912

>  <Genealogy>  (66) 
CC[NH+](CC)Cc1cccc(N=c2cc(Oc3cccc([N-]S(C)(=O)=O)c3)cc[n-]2)c1 (protonated)
CC[NH+](CC)Cc1cccc(/N=c2/cc(Oc3cccc([N-]S(C)(=O)=O)c3)cc[n-]2)c1 (cis-trans isomerization)
CC[NH+](CC)Cc1cccc(/N=c2/cc(Oc3cccc([N-]S(C)(=O)=O)c3)cc[n-]2)c1 (3D coordinates assigned)
CC[NH+](CC)Cc1cccc(/N=c2/cc(Oc3cccc([N-]S(C)(=O)=O)c3)cc[n-]2)c1 (optimized conformer: 75.35773961752912 kcal/mol)

>  <smiles>  (66) 
CCN(CC)Cc1cccc(N=c2cc(Oc3cccc(NS(C)(=O)=O)c3)cc[nH]2)c1

>  <score_type>  (66) 
oracle

>  <origin>  (66) 
adg

>  <m_score__min__energy>  (66) 
-11.039999999999999

>  <m_primary>  (66) 
energy

$$$$
66:0
     RDKit          3D

 45 47  0  0  0  0  0  0  0  0999 V2000
   62.5040   33.9910   49.8400 O   0  0  0  0  0  0  0  0  0  0  0  0
   61.3540   33.4960   49.0090 S   0  0  0  0  0  0  0  0  0  0  0  0
   60.0720   33.8880   49.6870 O   0  0  0  0  0  0  0  0  0  0  0  0
   61.4130   34.2370   47.4080 C   0  0  0  0  0  0  0  0  0  0  0  0
   60.3900   34.9130   46.8730 C   0  0  0  0  0  0  0  0  0  0  0  0
   59.2500   34.2600   46.2120 C   0  0  0  0  0  0  0  0  0  0  0  0
   59.2760   34.0320   44.8290 C   0  0  0  0  0  0  0  0  0  0  0  0
   58.1970   33.4000   44.2000 C   0  0  0  0  0  0  0  0  0  0  0  0
   57.0910   32.9940   44.9520 C   0  0  0  0  0  0  0  0  0  0  0  0
   57.0700   33.2020   46.3350 C   0  0  0  0  0  0  0  0  0  0  0  0
   58.1510   33.8230   46.9670 C   0  0  0  0  0  0  0  0  0  0  0  0
   61.4340   31.7660   48.8810 N   0  0  0  0  0  0  0  0  0  0  0  0
   60.4930   30.9760   48.1320 C   0  0  0  0  0  0  0  0  0  0  0  0
   60.3930   31.1630   46.7440 C   0  0  0  0  0  0  0  0  0  0  0  0
   59.5090   30.3930   45.9830 C   0  0  0  0  0  0  0  0  0  0  0  0
   58.7090   29.4240   46.6010 C   0  0  0  0  0  0  0  0  0  0  0  0
   57.5950   28.4460   45.6480 S   0  0  0  0  0  0  0  0  0  0  0  0
   58.2610   27.9980   44.3780 O   0  0  0  0  0  0  0  0  0  0  0  0
   56.3930   29.2720   45.2870 O   0  0  0  0  0  0  0  0  0  0  0  0
   57.0720   27.0820   46.5800 N   0  0  0  0  0  0  0  0  0  0  0  0
   56.7470   25.8190   45.9910 C   0  0  0  0  0  0  0  0  0  0  0  0
   57.7760   24.9030   45.7390 C   0  0  0  0  0  0  0  0  0  0  0  0
   57.4910   23.6640   45.1570 C   0  0  0  0  0  0  0  0  0  0  0  0
   56.1720   23.3270   44.8380 C   0  0  0  0  0  0  0  0  0  0  0  0
   55.1360   24.2250   45.1090 C   0  0  0  0  0  0  0  0  0  0  0  0
   55.4160   25.4670   45.6930 C   0  0  0  0  0  0  0  0  0  0  0  0
   54.3670   26.3270   45.9930 O   0  0  0  0  0  0  0  0  0  0  0  0
   58.7880   29.2470   47.9870 C   0  0  0  0  0  0  0  0  0  0  0  0
   59.6700   30.0160   48.7500 C   0  0  0  0  0  0  0  0  0  0  0  0
   62.3377   34.1379   46.8205 H   0  0  0  0  0  0  0  0  0  0  0  0
   60.4021   36.0114   46.9303 H   0  0  0  0  0  0  0  0  0  0  0  0
   60.1465   34.3505   44.2367 H   0  0  0  0  0  0  0  0  0  0  0  0
   58.2195   33.2230   43.1146 H   0  0  0  0  0  0  0  0  0  0  0  0
   56.2365   32.5106   44.4559 H   0  0  0  0  0  0  0  0  0  0  0  0
   56.2014   32.8764   46.9262 H   0  0  0  0  0  0  0  0  0  0  0  0
   58.1402   33.9693   48.0572 H   0  0  0  0  0  0  0  0  0  0  0  0
   62.1250   31.2820   49.4990 H   0  0  0  0  0  0  0  0  0  0  0  0
   61.0166   31.9231   46.2506 H   0  0  0  0  0  0  0  0  0  0  0  0
   59.4415   30.5485   44.8961 H   0  0  0  0  0  0  0  0  0  0  0  0
   58.8133   25.1595   46.0002 H   0  0  0  0  0  0  0  0  0  0  0  0
   58.3051   22.9538   44.9499 H   0  0  0  0  0  0  0  0  0  0  0  0
   55.9497   22.3549   44.3737 H   0  0  0  0  0  0  0  0  0  0  0  0
   54.0982   23.9558   44.8631 H   0  0  0  0  0  0  0  0  0  0  0  0
   58.1511   28.4971   48.4790 H   0  0  0  0  0  0  0  0  0  0  0  0
   59.7215   29.8705   49.8391 H   0  0  0  0  0  0  0  0  0  0  0  0
  1  2  2  0
  2  3  2  0
  2  4  1  0
  4  5  2  3
  5  6  1  0
  6  7  2  0
  7  8  1  0
  8  9  2  0
  9 10  1  0
 10 11  2  0
  2 12  1  0
 12 13  1  0
 13 14  2  0
 14 15  1  0
 15 16  2  0
 16 17  1  0
 17 18  2  0
 17 19  2  0
 17 20  1  0
 20 21  1  0
 21 22  2  0
 22 23  1  0
 23 24  2  0
 24 25  1  0
 25 26  2  0
 26 27  1  0
 16 28  1  0
 28 29  2  0
 11  6  1  0
 29 13  1  0
 26 21  1  0
  4 30  1  0
  5 31  1  0
  7 32  1  0
  8 33  1  0
  9 34  1  0
 10 35  1  0
 11 36  1  0
 12 37  1  0
 14 38  1  0
 15 39  1  0
 22 40  1  0
 23 41  1  0
 24 42  1  0
 25 43  1  0
 28 44  1  0
 29 45  1  0
M  CHG  2  20  -1  27  -1
M  END
>  <UniqueID>  (67) 
64

>  <SMILES>  (67) 
O=S(=O)(C=Cc1ccccc1)Nc1ccc(S(=O)(=O)[N-]c2ccccc2[O-])cc1

>  <Energy>  (67) 
65.76939091195702

>  <Genealogy>  (67) 
O=S(=O)(C=Cc1ccccc1)Nc1ccc(S(=O)(=O)[N-]c2ccccc2[O-])cc1 (protonated)
O=S(=O)(C=Cc1ccccc1)Nc1ccc(S(=O)(=O)[N-]c2ccccc2[O-])cc1 (3D coordinates assigned)
O=S(=O)(C=Cc1ccccc1)Nc1ccc(S(=O)(=O)[N-]c2ccccc2[O-])cc1 (optimized conformer: 65.76939091195702 kcal/mol)

>  <smiles>  (67) 
O=S(=O)(C=Cc1ccccc1)Nc1ccc(S(=O)(=O)Nc2ccccc2O)cc1

>  <score_type>  (67) 
oracle

>  <origin>  (67) 
adg

>  <m_score__min__energy>  (67) 
-15.52

>  <m_primary>  (67) 
energy

$$$$
67:0
     RDKit          3D

 30 31  0  0  0  0  0  0  0  0999 V2000
   55.1650   28.9750   44.5470 O   0  0  0  0  0  0  0  0  0  0  0  0
   56.2780   28.9640   45.1340 C   0  0  0  0  0  0  0  0  0  0  0  0
   56.9190   30.2110   45.4280 N   0  0  0  0  0  0  0  0  0  0  0  0
   58.3340   30.4910   45.1950 C   0  0  0  0  0  0  0  0  0  0  0  0
   58.4910   31.6880   44.2540 C   0  0  0  0  0  0  0  0  0  0  0  0
   57.5940   32.8760   44.6380 C   0  0  0  0  0  0  0  0  0  0  0  0
   58.2840   33.7910   45.5470 N   0  0  0  0  0  0  0  0  0  0  0  0
   59.2070   34.7100   45.2210 C   0  0  0  0  0  0  0  0  0  0  0  0
   59.6420   35.3000   46.3870 C   0  0  0  0  0  0  0  0  0  0  0  0
   59.0000   34.7510   47.4400 N   0  0  0  0  0  0  0  0  0  0  0  0
   58.1800   33.8310   46.8890 C   0  0  0  0  0  0  0  0  0  0  0  0
   56.9140   27.6710   45.4430 C   0  0  0  0  0  0  0  0  0  0  0  0
   58.2870   27.5010   45.2150 C   0  0  0  0  0  0  0  0  0  0  0  0
   58.9030   26.2870   45.5230 C   0  0  0  0  0  0  0  0  0  0  0  0
   58.1340   25.2440   46.0460 C   0  0  0  0  0  0  0  0  0  0  0  0
   58.6720   24.1430   46.3320 O   0  0  0  0  0  0  0  0  0  0  0  0
   56.7990   25.4170   46.2450 N   0  0  0  0  0  0  0  0  0  0  0  0
   56.1750   26.5900   45.9540 C   0  0  0  0  0  0  0  0  0  0  0  0
   54.8030   26.6970   46.1490 O   0  0  0  0  0  0  0  0  0  0  0  0
   58.8219   30.7174   46.1546 H   0  0  0  0  0  0  0  0  0  0  0  0
   58.8018   29.6091   44.7331 H   0  0  0  0  0  0  0  0  0  0  0  0
   59.5399   32.0183   44.2791 H   0  0  0  0  0  0  0  0  0  0  0  0
   58.1881   31.3584   43.2492 H   0  0  0  0  0  0  0  0  0  0  0  0
   57.3124   33.4220   43.7255 H   0  0  0  0  0  0  0  0  0  0  0  0
   56.7015   32.4861   45.1493 H   0  0  0  0  0  0  0  0  0  0  0  0
   59.5536   34.9489   44.2047 H   0  0  0  0  0  0  0  0  0  0  0  0
   60.3974   36.0971   46.4505 H   0  0  0  0  0  0  0  0  0  0  0  0
   57.5036   33.1871   47.4703 H   0  0  0  0  0  0  0  0  0  0  0  0
   58.8797   28.3258   44.7927 H   0  0  0  0  0  0  0  0  0  0  0  0
   59.9819   26.1527   45.3559 H   0  0  0  0  0  0  0  0  0  0  0  0
  1  2  2  0
  2  3  1  0
  3  4  1  0
  4  5  1  0
  5  6  1  0
  6  7  1  0
  7  8  1  0
  8  9  2  0
  9 10  1  0
 10 11  2  0
  2 12  1  0
 12 13  1  0
 13 14  2  0
 14 15  1  0
 15 16  2  0
 15 17  1  0
 17 18  1  0
 18 19  1  0
 11  7  1  0
 18 12  2  0
  4 20  1  0
  4 21  1  0
  5 22  1  0
  5 23  1  0
  6 24  1  0
  6 25  1  0
  8 26  1  0
  9 27  1  0
 11 28  1  0
 13 29  1  0
 14 30  1  0
M  CHG  3   3  -1  17  -1  19  -1
M  END
>  <UniqueID>  (68) 
65

>  <SMILES>  (68) 
O=C([N-]CCCn1ccnc1)c1ccc(=O)[n-]c1[O-]

>  <Energy>  (68) 
60.14499771935863

>  <Genealogy>  (68) 
O=C([N-]CCCn1ccnc1)c1ccc(=O)[n-]c1[O-] (protonated)
O=C([N-]CCCn1ccnc1)c1ccc(=O)[n-]c1[O-] (3D coordinates assigned)
O=C([N-]CCCn1ccnc1)c1ccc(=O)[n-]c1[O-] (optimized conformer: 60.14499771935863 kcal/mol)

>  <smiles>  (68) 
O=C(NCCCn1ccnc1)c1ccc(=O)[nH]c1O

>  <score_type>  (68) 
oracle

>  <origin>  (68) 
adg

>  <m_score__min__energy>  (68) 
-13.539999999999999

>  <m_primary>  (68) 
energy

$$$$
68:0
     RDKit          3D

 63 66  0  0  0  0  0  0  0  0999 V2000
   55.5360   28.9410   44.9250 O   0  0  0  0  0  0  0  0  0  0  0  0
   56.5600   29.6730   44.8800 C   0  0  0  0  0  0  0  0  0  0  0  0
   57.8970   29.0940   45.2210 C   0  0  0  0  0  0  0  0  0  0  0  0
   58.1970   29.3050   46.6360 N   0  0  0  0  0  0  0  0  0  0  0  0
   59.5270   29.6100   47.0850 C   0  0  0  0  0  0  0  0  0  0  0  0
   60.4330   29.8450   46.2400 O   0  0  0  0  0  0  0  0  0  0  0  0
   59.8380   29.6870   48.5320 C   0  0  0  0  0  0  0  0  0  0  0  0
   61.1110   29.3160   49.0010 C   0  0  0  0  0  0  0  0  0  0  0  0
   61.4240   29.4280   50.3590 C   0  0  0  0  0  0  0  0  0  0  0  0
   60.4730   29.9110   51.2590 C   0  0  0  0  0  0  0  0  0  0  0  0
   59.1940   30.2750   50.8120 C   0  0  0  0  0  0  0  0  0  0  0  0
   57.9910   30.9010   51.9450 S   0  0  0  0  0  0  0  0  0  0  0  0
   58.5600   30.8570   53.3350 O   0  0  0  0  0  0  0  0  0  0  0  0
   57.6950   32.3340   51.6080 O   0  0  0  0  0  0  0  0  0  0  0  0
   56.5010   29.9910   51.9110 N   0  0  0  0  0  0  0  0  0  0  0  0
   55.3280   30.8600   51.9650 C   0  0  0  0  0  0  0  0  0  0  0  0
   54.2070   30.0270   52.5530 C   0  0  0  0  0  0  0  0  0  0  0  0
   54.8990   28.9530   53.3720 C   0  0  0  0  0  0  0  0  0  0  0  0
   56.3850   29.0870   53.0550 C   0  0  0  0  0  0  0  0  0  0  0  0
   58.8740   30.1400   49.4550 C   0  0  0  0  0  0  0  0  0  0  0  0
   56.4580   31.0490   44.5030 N   0  0  0  0  0  0  0  0  0  0  0  0
   57.4010   32.0730   44.8430 C   0  0  0  0  0  0  0  0  0  0  0  0
   57.9500   32.8560   43.8230 C   0  0  0  0  0  0  0  0  0  0  0  0
   58.8880   33.8500   44.1240 C   0  0  0  0  0  0  0  0  0  0  0  0
   59.3010   34.0470   45.4430 C   0  0  0  0  0  0  0  0  0  0  0  0
   58.7880   33.2450   46.4710 C   0  0  0  0  0  0  0  0  0  0  0  0
   59.3490   33.4580   48.1330 S   0  0  0  0  0  0  0  0  0  0  0  0
   59.3980   34.9270   48.4530 O   0  0  0  0  0  0  0  0  0  0  0  0
   58.3710   32.8110   49.0720 O   0  0  0  0  0  0  0  0  0  0  0  0
   60.9320   32.7560   48.3780 N   0  0  0  0  0  0  0  0  0  0  0  0
   61.7400   33.5950   49.2810 C   0  0  0  0  0  0  0  0  0  0  0  0
   63.2360   33.2960   49.1020 C   0  0  0  0  0  0  0  0  0  0  0  0
   63.7210   33.5550   47.7920 O   0  0  0  0  0  0  0  0  0  0  0  0
   62.7210   33.4870   46.7850 C   0  0  0  0  0  0  0  0  0  0  0  0
   61.6120   32.4690   47.0970 C   0  0  0  0  0  0  0  0  0  0  0  0
   57.8340   32.2630   46.1680 C   0  0  0  0  0  0  0  0  0  0  0  0
   57.8894   28.0147   45.0090 H   0  0  0  0  0  0  0  0  0  0  0  0
   58.6673   29.5926   44.6144 H   0  0  0  0  0  0  0  0  0  0  0  0
   57.4150   29.2980   47.3290 H   0  0  0  0  0  0  0  0  0  0  0  0
   61.8644   28.9357   48.2955 H   0  0  0  0  0  0  0  0  0  0  0  0
   62.4214   29.1350   50.7186 H   0  0  0  0  0  0  0  0  0  0  0  0
   60.7277   30.0068   52.3248 H   0  0  0  0  0  0  0  0  0  0  0  0
   55.5296   31.7324   52.6040 H   0  0  0  0  0  0  0  0  0  0  0  0
   55.0638   31.2368   50.9659 H   0  0  0  0  0  0  0  0  0  0  0  0
   53.5618   30.6456   53.1941 H   0  0  0  0  0  0  0  0  0  0  0  0
   53.5604   29.5978   51.7735 H   0  0  0  0  0  0  0  0  0  0  0  0
   54.7196   29.1137   54.4453 H   0  0  0  0  0  0  0  0  0  0  0  0
   54.5204   27.9493   53.1287 H   0  0  0  0  0  0  0  0  0  0  0  0
   56.9195   29.5041   53.9212 H   0  0  0  0  0  0  0  0  0  0  0  0
   56.8262   28.1060   52.8250 H   0  0  0  0  0  0  0  0  0  0  0  0
   57.8610   30.3898   49.1065 H   0  0  0  0  0  0  0  0  0  0  0  0
   57.6434   32.6900   42.7797 H   0  0  0  0  0  0  0  0  0  0  0  0
   59.3006   34.4772   43.3200 H   0  0  0  0  0  0  0  0  0  0  0  0
   60.0321   34.8351   45.6761 H   0  0  0  0  0  0  0  0  0  0  0  0
   61.5533   34.6549   49.0534 H   0  0  0  0  0  0  0  0  0  0  0  0
   61.4558   33.3734   50.3203 H   0  0  0  0  0  0  0  0  0  0  0  0
   63.8012   33.9195   49.8104 H   0  0  0  0  0  0  0  0  0  0  0  0
   63.3713   32.2200   49.2862 H   0  0  0  0  0  0  0  0  0  0  0  0
   62.2627   34.4815   46.6804 H   0  0  0  0  0  0  0  0  0  0  0  0
   63.2138   33.1581   45.8582 H   0  0  0  0  0  0  0  0  0  0  0  0
   60.8679   32.4970   46.2873 H   0  0  0  0  0  0  0  0  0  0  0  0
   62.0792   31.4765   47.1786 H   0  0  0  0  0  0  0  0  0  0  0  0
   57.4211   31.6365   46.9724 H   0  0  0  0  0  0  0  0  0  0  0  0
  1  2  2  0
  2  3  1  0
  3  4  1  0
  4  5  1  0
  5  6  2  0
  5  7  1  0
  7  8  2  0
  8  9  1  0
  9 10  2  0
 10 11  1  0
 11 12  1  0
 12 13  2  0
 12 14  2  0
 12 15  1  0
 15 16  1  0
 16 17  1  0
 17 18  1  0
 18 19  1  0
 11 20  2  0
  2 21  1  0
 21 22  1  0
 22 23  2  0
 23 24  1  0
 24 25  2  0
 25 26  1  0
 26 27  1  0
 27 28  2  0
 27 29  2  0
 27 30  1  0
 30 31  1  0
 31 32  1  0
 32 33  1  0
 33 34  1  0
 34 35  1  0
 26 36  2  0
 20  7  1  0
 36 22  1  0
 19 15  1  0
 35 30  1  0
  3 37  1  0
  3 38  1  0
  4 39  1  0
  8 40  1  0
  9 41  1  0
 10 42  1  0
 16 43  1  0
 16 44  1  0
 17 45  1  0
 17 46  1  0
 18 47  1  0
 18 48  1  0
 19 49  1  0
 19 50  1  0
 20 51  1  0
 23 52  1  0
 24 53  1  0
 25 54  1  0
 31 55  1  0
 31 56  1  0
 32 57  1  0
 32 58  1  0
 34 59  1  0
 34 60  1  0
 35 61  1  0
 35 62  1  0
 36 63  1  0
M  CHG  1  21  -1
M  END
>  <UniqueID>  (69) 
66

>  <SMILES>  (69) 
O=C(CNC(=O)c1cccc(S(=O)(=O)N2CCCC2)c1)[N-]c1cccc(S(=O)(=O)N2CCOCC2)c1

>  <Energy>  (69) 
78.96562918303988

>  <Genealogy>  (69) 
O=C(CNC(=O)c1cccc(S(=O)(=O)N2CCCC2)c1)[N-]c1cccc(S(=O)(=O)N2CCOCC2)c1 (protonated)
O=C(CNC(=O)c1cccc(S(=O)(=O)N2CCCC2)c1)[N-]c1cccc(S(=O)(=O)N2CCOCC2)c1 (3D coordinates assigned)
O=C(CNC(=O)c1cccc(S(=O)(=O)N2CCCC2)c1)[N-]c1cccc(S(=O)(=O)N2CCOCC2)c1 (nonaromatic ring conformer: 78.96562918303988 kcal/mol)

>  <smiles>  (69) 
O=C(CNC(=O)c1cccc(S(=O)(=O)N2CCCC2)c1)Nc1cccc(S(=O)(=O)N2CCOCC2)c1

>  <score_type>  (69) 
oracle

>  <origin>  (69) 
adg

>  <m_score__min__energy>  (69) 
-13.42

>  <m_primary>  (69) 
energy

$$$$
69:0
     RDKit          3D

 64 67  0  0  0  0  0  0  0  0999 V2000
   59.9900   31.5060   51.8440 H   0  0  0  0  0  0  0  0  0  0  0  0
   60.5490   31.8590   51.0800 O   0  0  0  0  0  0  0  0  0  0  0  0
   60.5750   31.3110   49.7900 C   0  0  0  0  0  0  0  0  0  0  0  0
   60.2250   29.9670   49.6460 C   0  0  0  0  0  0  0  0  0  0  0  0
   59.8760   29.1600   50.8330 C   0  0  0  0  0  0  0  0  0  0  0  0
   59.0906   28.3956   50.7394 H   0  0  0  0  0  0  0  0  0  0  0  0
   60.4600   29.3170   51.9840 N   0  0  0  0  0  0  0  0  0  0  0  0
   59.9760   28.7800   53.2560 C   0  0  0  0  0  0  0  0  0  0  0  0
   59.5528   27.7781   53.0912 H   0  0  0  0  0  0  0  0  0  0  0  0
   60.8148   28.7180   53.9649 H   0  0  0  0  0  0  0  0  0  0  0  0
   58.8950   29.6990   53.8340 C   0  0  0  0  0  0  0  0  0  0  0  0
   57.9301   29.1710   53.8201 H   0  0  0  0  0  0  0  0  0  0  0  0
   59.1770   29.9641   54.8637 H   0  0  0  0  0  0  0  0  0  0  0  0
   58.7750   30.9440   53.0460 N   0  0  0  0  0  0  0  0  0  0  0  0
   57.5310   30.9700   52.2480 C   0  0  0  0  0  0  0  0  0  0  0  0
   57.5643   30.1640   51.5002 H   0  0  0  0  0  0  0  0  0  0  0  0
   56.6739   30.8280   52.9227 H   0  0  0  0  0  0  0  0  0  0  0  0
   57.3770   32.3240   51.5270 C   0  0  0  0  0  0  0  0  0  0  0  0
   57.2423   32.1428   50.4504 H   0  0  0  0  0  0  0  0  0  0  0  0
   56.5032   32.8428   51.9481 H   0  0  0  0  0  0  0  0  0  0  0  0
   58.5150   33.1430   51.7170 O   0  0  0  0  0  0  0  0  0  0  0  0
   58.6730   33.4210   53.0960 C   0  0  0  0  0  0  0  0  0  0  0  0
   59.5712   34.0407   53.2343 H   0  0  0  0  0  0  0  0  0  0  0  0
   57.7731   33.9485   53.4452 H   0  0  0  0  0  0  0  0  0  0  0  0
   58.8250   32.1280   53.9240 C   0  0  0  0  0  0  0  0  0  0  0  0
   59.7901   32.1472   54.4514 H   0  0  0  0  0  0  0  0  0  0  0  0
   57.9987   32.0696   54.6477 H   0  0  0  0  0  0  0  0  0  0  0  0
   60.2200   29.4010   48.3700 C   0  0  0  0  0  0  0  0  0  0  0  0
   59.9530   28.1740   48.2380 O   0  0  0  0  0  0  0  0  0  0  0  0
   60.5100   30.1680   47.2730 N   0  0  0  0  0  0  0  0  0  0  0  0
   60.4100   29.5830   45.9190 C   0  0  0  0  0  0  0  0  0  0  0  0
   60.9963   30.1933   45.2163 H   0  0  0  0  0  0  0  0  0  0  0  0
   60.8013   28.5553   45.9444 H   0  0  0  0  0  0  0  0  0  0  0  0
   58.9730   29.5480   45.4670 C   0  0  0  0  0  0  0  0  0  0  0  0
   58.1650   28.4340   45.7530 C   0  0  0  0  0  0  0  0  0  0  0  0
   58.5714   27.5993   46.3430 H   0  0  0  0  0  0  0  0  0  0  0  0
   56.8460   28.3830   45.2900 C   0  0  0  0  0  0  0  0  0  0  0  0
   56.2167   27.5107   45.5206 H   0  0  0  0  0  0  0  0  0  0  0  0
   56.3260   29.4380   44.5350 C   0  0  0  0  0  0  0  0  0  0  0  0
   55.0490   29.3860   44.0830 F   0  0  0  0  0  0  0  0  0  0  0  0
   57.1260   30.5450   44.2410 C   0  0  0  0  0  0  0  0  0  0  0  0
   56.7181   31.3732   43.6429 H   0  0  0  0  0  0  0  0  0  0  0  0
   58.4440   30.6030   44.7050 C   0  0  0  0  0  0  0  0  0  0  0  0
   59.0688   31.4780   44.4724 H   0  0  0  0  0  0  0  0  0  0  0  0
   60.8390   31.4920   47.4320 C   0  0  0  0  0  0  0  0  0  0  0  0
   61.0770   32.2000   46.4130 O   0  0  0  0  0  0  0  0  0  0  0  0
   60.9130   32.0560   48.6850 N   0  0  0  0  0  0  0  0  0  0  0  0
   61.3160   33.4710   48.8180 C   0  0  0  0  0  0  0  0  0  0  0  0
   61.8862   33.5994   49.7498 H   0  0  0  0  0  0  0  0  0  0  0  0
   61.9373   33.7479   47.9535 H   0  0  0  0  0  0  0  0  0  0  0  0
   60.0810   34.3770   48.8530 C   0  0  0  0  0  0  0  0  0  0  0  0
   59.4380   34.0773   49.6937 H   0  0  0  0  0  0  0  0  0  0  0  0
   60.4122   35.4188   48.9756 H   0  0  0  0  0  0  0  0  0  0  0  0
   59.3000   34.2680   47.5720 C   0  0  0  0  0  0  0  0  0  0  0  0
   58.1590   33.4510   47.5040 C   0  0  0  0  0  0  0  0  0  0  0  0
   57.8259   32.8992   48.3954 H   0  0  0  0  0  0  0  0  0  0  0  0
   57.4450   33.3370   46.3060 C   0  0  0  0  0  0  0  0  0  0  0  0
   56.5469   32.7036   46.2596 H   0  0  0  0  0  0  0  0  0  0  0  0
   57.8720   34.0270   45.1690 C   0  0  0  0  0  0  0  0  0  0  0  0
   57.3060   33.9426   44.2296 H   0  0  0  0  0  0  0  0  0  0  0  0
   59.0190   34.8250   45.2250 C   0  0  0  0  0  0  0  0  0  0  0  0
   59.3593   35.3604   44.3264 H   0  0  0  0  0  0  0  0  0  0  0  0
   59.7340   34.9440   46.4200 C   0  0  0  0  0  0  0  0  0  0  0  0
   60.6387   35.5685   46.4583 H   0  0  0  0  0  0  0  0  0  0  0  0
  1  2  1  0
  2  3  1  0
  3  4  2  0
  4  5  1  0
  5  6  1  0
  5  7  2  0
  7  8  1  0
  8  9  1  0
  8 10  1  0
  8 11  1  0
 11 12  1  0
 11 13  1  0
 11 14  1  0
 14 15  1  0
 15 16  1  0
 15 17  1  0
 15 18  1  0
 18 19  1  0
 18 20  1  0
 18 21  1  0
 21 22  1  0
 22 23  1  0
 22 24  1  0
 22 25  1  0
 25 26  1  0
 25 27  1  0
  4 28  1  0
 28 29  2  0
 28 30  1  0
 30 31  1  0
 31 32  1  0
 31 33  1  0
 31 34  1  0
 34 35  2  0
 35 36  1  0
 35 37  1  0
 37 38  1  0
 37 39  2  0
 39 40  1  0
 39 41  1  0
 41 42  1  0
 41 43  2  0
 43 44  1  0
 30 45  1  0
 45 46  2  0
 45 47  1  0
 47 48  1  0
 48 49  1  0
 48 50  1  0
 48 51  1  0
 51 52  1  0
 51 53  1  0
 51 54  1  0
 54 55  2  0
 55 56  1  0
 55 57  1  0
 57 58  1  0
 57 59  2  0
 59 60  1  0
 59 61  1  0
 61 62  1  0
 61 63  2  0
 63 64  1  0
 47  3  1  0
 63 54  1  0
 25 14  1  0
 43 34  1  0
M  END
>  <UniqueID>  (70) 
67

>  <SMILES>  (70) 
O=c1c(/C=N\CCN2CCOCC2)c(O)n(CCc2ccccc2)c(=O)n1Cc1ccc(F)cc1

>  <Energy>  (70) 
88.0498769524215

>  <Genealogy>  (70) 
O=c1c(/C=N\CCN2CCOCC2)c(O)n(CCc2ccccc2)c(=O)n1Cc1ccc(F)cc1 (cis-trans isomerization)
O=c1c(/C=N\CCN2CCOCC2)c(O)n(CCc2ccccc2)c(=O)n1Cc1ccc(F)cc1 (3D coordinates assigned)
O=c1c(/C=N\CCN2CCOCC2)c(O)n(CCc2ccccc2)c(=O)n1Cc1ccc(F)cc1 (nonaromatic ring conformer: 88.0498769524215 kcal/mol)

>  <smiles>  (70) 
O=c1c(C=NCCN2CCOCC2)c(O)n(CCc2ccccc2)c(=O)n1Cc1ccc(F)cc1

>  <score_type>  (70) 
oracle

>  <origin>  (70) 
adg

>  <m_score__min__energy>  (70) 
-7.9000000000000004

>  <m_primary>  (70) 
energy

$$$$
70:0
     RDKit          3D

 59 61  0  0  0  0  0  0  0  0999 V2000
   60.4080   26.8790   47.9880 C   0  0  0  0  0  0  0  0  0  0  0  0
   60.0810   26.6290   46.5180 C   0  0  0  0  0  0  0  0  0  0  0  0
   58.9720   27.4950   46.0850 N   0  0  0  0  0  0  0  0  0  0  0  0
   59.1880   28.7920   45.6660 C   0  0  0  0  0  0  0  0  0  0  0  0
   60.3570   29.2660   45.6940 O   0  0  0  0  0  0  0  0  0  0  0  0
   58.1370   29.5780   45.2170 N   0  0  0  0  0  0  0  0  0  0  0  0
   58.3850   30.9600   44.7620 C   0  0  0  0  0  0  0  0  0  0  0  0
   58.4400   31.9190   45.9600 C   0  0  0  0  0  0  0  0  0  0  0  0
   57.8900   33.3140   45.6200 C   0  0  0  0  0  0  0  0  0  0  0  0
   58.3050   34.3770   46.6510 C   0  0  0  0  0  0  0  0  0  0  0  0
   59.6230   35.0350   46.3230 C   0  0  0  0  0  0  0  0  0  0  0  0
   59.6530   36.0670   45.6000 O   0  0  0  0  0  0  0  0  0  0  0  0
   60.8510   34.5560   46.8840 N   0  0  0  0  0  0  0  0  0  0  0  0
   61.3790   33.2020   46.7180 C   0  0  0  0  0  0  0  0  0  0  0  0
   61.7980   32.6100   48.0680 C   0  0  0  0  0  0  0  0  0  0  0  0
   60.6250   31.9810   48.7740 C   0  0  0  0  0  0  0  0  0  0  0  0
   60.2540   30.6580   48.4960 C   0  0  0  0  0  0  0  0  0  0  0  0
   59.1920   30.0620   49.1820 C   0  0  0  0  0  0  0  0  0  0  0  0
   58.4890   30.7800   50.1680 C   0  0  0  0  0  0  0  0  0  0  0  0
   57.4190   30.2130   50.8790 O   0  0  0  0  0  0  0  0  0  0  0  0
   57.4000   30.0210   52.2920 C   0  0  0  0  0  0  0  0  0  0  0  0
   58.8610   32.1030   50.4590 C   0  0  0  0  0  0  0  0  0  0  0  0
   58.1480   32.7940   51.4530 O   0  0  0  0  0  0  0  0  0  0  0  0
   58.6700   33.8760   52.2150 C   0  0  0  0  0  0  0  0  0  0  0  0
   59.9280   32.6970   49.7590 C   0  0  0  0  0  0  0  0  0  0  0  0
   56.8540   29.0780   45.2150 C   0  0  0  0  0  0  0  0  0  0  0  0
   55.8710   29.7790   44.8520 O   0  0  0  0  0  0  0  0  0  0  0  0
   56.6590   27.7730   45.6230 C   0  0  0  0  0  0  0  0  0  0  0  0
   55.5180   27.0710   45.6690 N   0  0  0  0  0  0  0  0  0  0  0  0
   55.9520   25.8670   46.1250 C   0  0  0  0  0  0  0  0  0  0  0  0
   55.1720   24.8960   46.3150 O   0  0  0  0  0  0  0  0  0  0  0  0
   57.2850   25.7820   46.3640 N   0  0  0  0  0  0  0  0  0  0  0  0
   57.6990   27.0170   46.0340 C   0  0  0  0  0  0  0  0  0  0  0  0
   59.6932   26.3325   48.6207 H   0  0  0  0  0  0  0  0  0  0  0  0
   61.4287   26.5288   48.2013 H   0  0  0  0  0  0  0  0  0  0  0  0
   60.3377   27.9558   48.2013 H   0  0  0  0  0  0  0  0  0  0  0  0
   60.9698   26.8453   45.9070 H   0  0  0  0  0  0  0  0  0  0  0  0
   59.7830   25.5776   46.3923 H   0  0  0  0  0  0  0  0  0  0  0  0
   59.3438   30.9974   44.2241 H   0  0  0  0  0  0  0  0  0  0  0  0
   57.5647   31.2682   44.0970 H   0  0  0  0  0  0  0  0  0  0  0  0
   57.8428   31.4941   46.7803 H   0  0  0  0  0  0  0  0  0  0  0  0
   59.4952   32.0356   46.2480 H   0  0  0  0  0  0  0  0  0  0  0  0
   58.2712   33.6126   44.6323 H   0  0  0  0  0  0  0  0  0  0  0  0
   56.7918   33.2516   45.6272 H   0  0  0  0  0  0  0  0  0  0  0  0
   57.5258   35.1525   46.6877 H   0  0  0  0  0  0  0  0  0  0  0  0
   58.4238   33.8675   47.6186 H   0  0  0  0  0  0  0  0  0  0  0  0
   60.6021   32.5646   46.2706 H   0  0  0  0  0  0  0  0  0  0  0  0
   62.2624   33.2466   46.0640 H   0  0  0  0  0  0  0  0  0  0  0  0
   62.5689   31.8435   47.9001 H   0  0  0  0  0  0  0  0  0  0  0  0
   62.1897   33.4220   48.6983 H   0  0  0  0  0  0  0  0  0  0  0  0
   60.8021   30.0854   47.7333 H   0  0  0  0  0  0  0  0  0  0  0  0
   58.9039   29.0260   48.9501 H   0  0  0  0  0  0  0  0  0  0  0  0
   57.4963   30.9942   52.7956 H   0  0  0  0  0  0  0  0  0  0  0  0
   56.4507   29.5488   52.5851 H   0  0  0  0  0  0  0  0  0  0  0  0
   58.2383   29.3719   52.5851 H   0  0  0  0  0  0  0  0  0  0  0  0
   58.5632   33.6546   53.2872 H   0  0  0  0  0  0  0  0  0  0  0  0
   59.7342   34.0148   51.9735 H   0  0  0  0  0  0  0  0  0  0  0  0
   58.1163   34.7953   51.9735 H   0  0  0  0  0  0  0  0  0  0  0  0
   60.2184   33.7333   49.9865 H   0  0  0  0  0  0  0  0  0  0  0  0
  1  2  1  0
  2  3  1  0
  3  4  1  0
  4  5  2  0
  4  6  1  0
  6  7  1  0
  7  8  1  0
  8  9  1  0
  9 10  1  0
 10 11  1  0
 11 12  2  0
 11 13  1  0
 13 14  1  0
 14 15  1  0
 15 16  1  0
 16 17  2  0
 17 18  1  0
 18 19  2  0
 19 20  1  0
 20 21  1  0
 19 22  1  0
 22 23  1  0
 23 24  1  0
 22 25  2  0
  6 26  1  0
 26 27  2  0
 26 28  1  0
 28 29  1  0
 29 30  1  0
 30 31  2  0
 30 32  1  0
 32 33  1  0
 33  3  1  0
 25 16  1  0
 33 28  2  0
  1 34  1  0
  1 35  1  0
  1 36  1  0
  2 37  1  0
  2 38  1  0
  7 39  1  0
  7 40  1  0
  8 41  1  0
  8 42  1  0
  9 43  1  0
  9 44  1  0
 10 45  1  0
 10 46  1  0
 14 47  1  0
 14 48  1  0
 15 49  1  0
 15 50  1  0
 17 51  1  0
 18 52  1  0
 21 53  1  0
 21 54  1  0
 21 55  1  0
 24 56  1  0
 24 57  1  0
 24 58  1  0
 25 59  1  0
M  CHG  3  13  -1  29  -1  32  -1
M  END
>  <UniqueID>  (71) 
68

>  <SMILES>  (71) 
CCn1c(=O)n(CCCCC(=O)[N-]CCc2ccc(OC)c(OC)c2)c(=O)c2[n-]c(=O)[n-]c21

>  <Energy>  (71) 
91.5558328195633

>  <Genealogy>  (71) 
CCn1c(=O)n(CCCCC(=O)[N-]CCc2ccc(OC)c(OC)c2)c(=O)c2[n-]c(=O)[n-]c21 (protonated)
CCn1c(=O)n(CCCCC(=O)[N-]CCc2ccc(OC)c(OC)c2)c(=O)c2[n-]c(=O)[n-]c21 (3D coordinates assigned)
CCn1c(=O)n(CCCCC(=O)[N-]CCc2ccc(OC)c(OC)c2)c(=O)c2[n-]c(=O)[n-]c21 (optimized conformer: 91.5558328195633 kcal/mol)

>  <smiles>  (71) 
CCn1c(=O)n(CCCCC(=O)NCCc2ccc(OC)c(OC)c2)c(=O)c2[nH]c(=O)[nH]c21

>  <score_type>  (71) 
oracle

>  <origin>  (71) 
adg

>  <m_score__min__energy>  (71) 
-14.24

>  <m_primary>  (71) 
energy

$$$$
71:0
     RDKit          3D

 47 51  0  0  0  0  0  0  0  0999 V2000
   55.1370   27.9710   44.8870 H   0  0  0  0  0  0  0  0  0  0  0  0
   55.2720   28.9670   44.7760 O   0  0  0  0  0  0  0  0  0  0  0  0
   56.5380   29.5470   44.8240 C   0  0  0  0  0  0  0  0  0  0  0  0
   56.6870   30.8900   44.9710 N   0  0  0  0  0  0  0  0  0  0  0  0
   57.9880   31.2490   44.9990 C   0  0  0  0  0  0  0  0  0  0  0  0
   58.3570   32.4940   45.0890 N   0  0  0  0  0  0  0  0  0  0  0  0
   58.8380   33.1600   46.2660 C   0  0  0  0  0  0  0  0  0  0  0  0
   58.5100   32.7080   47.5580 C   0  0  0  0  0  0  0  0  0  0  0  0
   57.8968   31.8034   47.6833 H   0  0  0  0  0  0  0  0  0  0  0  0
   58.9610   33.4050   48.6820 C   0  0  0  0  0  0  0  0  0  0  0  0
   58.7177   33.0377   49.6899 H   0  0  0  0  0  0  0  0  0  0  0  0
   59.7200   34.5670   48.5280 C   0  0  0  0  0  0  0  0  0  0  0  0
   60.0802   35.1101   49.4142 H   0  0  0  0  0  0  0  0  0  0  0  0
   60.0220   35.0400   47.2480 C   0  0  0  0  0  0  0  0  0  0  0  0
   60.6139   35.9593   47.1270 H   0  0  0  0  0  0  0  0  0  0  0  0
   59.5720   34.3450   46.1210 C   0  0  0  0  0  0  0  0  0  0  0  0
   59.7954   34.7305   45.1153 H   0  0  0  0  0  0  0  0  0  0  0  0
   59.0090   29.9150   44.8210 S   0  0  0  0  0  0  0  0  0  0  0  0
   57.7300   28.8250   44.7230 C   0  0  0  0  0  0  0  0  0  0  0  0
   57.8840   27.3420   44.5550 C   0  0  0  0  0  0  0  0  0  0  0  0
   58.9289   27.1216   44.2912 H   0  0  0  0  0  0  0  0  0  0  0  0
   57.1949   27.0178   43.7613 H   0  0  0  0  0  0  0  0  0  0  0  0
   57.5310   26.5890   45.8120 C   0  0  0  0  0  0  0  0  0  0  0  0
   56.2660   26.2280   46.2390 C   0  0  0  0  0  0  0  0  0  0  0  0
   55.0720   26.5450   45.6050 O   0  0  0  0  0  0  0  0  0  0  0  0
   56.3330   25.5020   47.3720 N   0  0  0  0  0  0  0  0  0  0  0  0
   57.6590   25.4190   47.6030 C   0  0  0  0  0  0  0  0  0  0  0  0
   58.1390   24.8080   48.5950 O   0  0  0  0  0  0  0  0  0  0  0  0
   58.4160   26.0420   46.6740 N   0  0  0  0  0  0  0  0  0  0  0  0
   59.8790   26.1230   46.6430 C   0  0  0  0  0  0  0  0  0  0  0  0
   60.2127   26.2752   45.6060 H   0  0  0  0  0  0  0  0  0  0  0  0
   60.2991   25.1866   47.0387 H   0  0  0  0  0  0  0  0  0  0  0  0
   60.3500   27.2640   47.4860 C   0  0  0  0  0  0  0  0  0  0  0  0
   60.4060   27.1310   48.8380 N   0  0  0  0  0  0  0  0  0  0  0  0
   60.7940   28.1590   49.6360 C   0  0  0  0  0  0  0  0  0  0  0  0
   60.8320   27.9920   50.8840 O   0  0  0  0  0  0  0  0  0  0  0  0
   61.1420   29.3930   49.0610 C   0  0  0  0  0  0  0  0  0  0  0  0
   61.5450   30.4990   49.8300 C   0  0  0  0  0  0  0  0  0  0  0  0
   61.6007   30.4163   50.9255 H   0  0  0  0  0  0  0  0  0  0  0  0
   61.8750   31.7040   49.2020 C   0  0  0  0  0  0  0  0  0  0  0  0
   62.1885   32.5686   49.8055 H   0  0  0  0  0  0  0  0  0  0  0  0
   61.8080   31.8140   47.8100 C   0  0  0  0  0  0  0  0  0  0  0  0
   62.0691   32.7644   47.3216 H   0  0  0  0  0  0  0  0  0  0  0  0
   61.4100   30.7190   47.0370 C   0  0  0  0  0  0  0  0  0  0  0  0
   61.3579   30.8092   45.9419 H   0  0  0  0  0  0  0  0  0  0  0  0
   61.0780   29.5090   47.6550 C   0  0  0  0  0  0  0  0  0  0  0  0
   60.6850   28.4460   46.9060 N   0  0  0  0  0  0  0  0  0  0  0  0
  1  2  1  0
  2  3  1  0
  3  4  1  0
  4  5  1  0
  5  6  2  0
  6  7  1  0
  7  8  2  0
  8  9  1  0
  8 10  1  0
 10 11  1  0
 10 12  2  0
 12 13  1  0
 12 14  1  0
 14 15  1  0
 14 16  2  0
 16 17  1  0
  5 18  1  0
 18 19  1  0
 19 20  1  0
 20 21  1  0
 20 22  1  0
 20 23  1  0
 23 24  2  0
 24 25  1  0
 24 26  1  0
 26 27  1  0
 27 28  2  0
 27 29  1  0
 29 30  1  0
 30 31  1  0
 30 32  1  0
 30 33  1  0
 33 34  2  0
 34 35  1  0
 35 36  2  0
 35 37  1  0
 37 38  2  0
 38 39  1  0
 38 40  1  0
 40 41  1  0
 40 42  2  0
 42 43  1  0
 42 44  1  0
 44 45  1  0
 44 46  2  0
 46 47  1  0
 19  3  2  0
 29 23  1  0
 47 33  1  0
 16  7  1  0
 46 37  1  0
M  CHG  4   4  -1  25  -1  26  -1  47  -1
M  END
>  <UniqueID>  (72) 
69

>  <SMILES>  (72) 
O=c1nc(Cn2c(Cc3s/c(=N\c4ccccc4)[n-]c3O)c([O-])[n-]c2=O)[n-]c2ccccc12

>  <Energy>  (72) 
124.26508115384497

>  <Genealogy>  (72) 
O=c1nc(Cn2c(Cc3sc(=Nc4ccccc4)[n-]c3O)c([O-])[n-]c2=O)[n-]c2ccccc12 (protonated)
O=c1nc(Cn2c(Cc3s/c(=N\c4ccccc4)[n-]c3O)c([O-])[n-]c2=O)[n-]c2ccccc12 (cis-trans isomerization)
O=c1nc(Cn2c(Cc3s/c(=N\c4ccccc4)[n-]c3O)c([O-])[n-]c2=O)[n-]c2ccccc12 (3D coordinates assigned)
O=c1nc(Cn2c(Cc3s/c(=N\c4ccccc4)[n-]c3O)c([O-])[n-]c2=O)[n-]c2ccccc12 (optimized conformer: 124.26508115384497 kcal/mol)

>  <smiles>  (72) 
O=c1nc(Cn2c(Cc3sc(=Nc4ccccc4)[nH]c3O)c(O)[nH]c2=O)[nH]c2ccccc12

>  <score_type>  (72) 
oracle

>  <origin>  (72) 
adg

>  <m_score__min__energy>  (72) 
-17.140000000000001

>  <m_primary>  (72) 
energy

$$$$
72:0
     RDKit          3D

 42 44  0  0  1  0  0  0  0  0999 V2000
   59.8960   29.4080   45.7770 C   0  0  0  0  0  0  0  0  0  0  0  0
   59.1860   29.0250   44.4940 C   0  0  0  0  0  0  0  0  0  0  0  0
   57.7690   29.3650   44.6380 N   0  0  0  0  0  0  0  0  0  0  0  0
   57.1950   30.4920   44.1520 C   0  0  0  0  0  0  0  0  0  0  0  0
   58.0710   31.7650   43.2470 S   0  0  0  0  0  0  0  0  0  0  0  0
   57.8480   33.3220   44.1350 C   0  0  0  0  0  0  0  0  0  0  0  0
   58.2320   33.1990   45.5750 C   0  0  0  0  0  0  0  0  0  0  0  0
   58.0200   32.1180   46.4350 C   0  0  0  0  0  0  0  0  0  0  0  0
   58.4730   32.2790   47.6890 C   0  0  0  0  0  0  0  0  0  0  0  0
   59.0770   33.4290   48.0230 C   0  0  0  0  0  0  0  0  0  0  0  0
   59.6440   33.8080   49.3400 C   0  0  0  0  0  0  0  0  0  0  0  0
   59.0290   33.4230   50.3440 O   0  0  0  0  0  0  0  0  0  0  0  0
   60.8410   34.5770   49.3610 N   0  0  0  0  0  0  0  0  0  0  0  0
   61.8740   34.1220   48.7410 C   0  0  0  0  0  0  0  0  0  0  0  0
   62.8770   33.5440   49.5030 C   0  0  0  0  0  0  0  0  0  0  0  0
   64.0320   33.0230   48.9210 C   0  0  0  0  0  0  0  0  0  0  0  0
   65.0800   32.4150   49.7810 C   0  0  0  0  0  0  0  0  0  0  0  0
   64.1390   33.1050   47.5450 C   0  0  0  0  0  0  0  0  0  0  0  0
   63.1270   33.6880   46.7840 C   0  0  0  0  0  0  0  0  0  0  0  0
   62.0340   34.1740   47.4110 N   0  0  0  0  0  0  0  0  0  0  0  0
   59.0650   34.4140   46.5670 S   0  0  0  0  0  0  0  0  0  0  0  0
   55.8960   30.4390   44.4850 N   0  0  0  0  0  0  0  0  0  0  0  0
   55.6900   29.3110   45.1540 N   0  0  0  0  0  0  0  0  0  0  0  0
   56.8440   28.6210   45.2640 C   0  0  0  0  0  0  0  0  0  0  0  0
   57.0690   27.5170   45.8190 O   0  0  0  0  0  0  0  0  0  0  0  0
   59.2951   29.0838   46.6394 H   0  0  0  0  0  0  0  0  0  0  0  0
   60.8805   28.9186   45.8114 H   0  0  0  0  0  0  0  0  0  0  0  0
   60.0277   30.4995   45.8114 H   0  0  0  0  0  0  0  0  0  0  0  0
   59.6185   29.5804   43.6487 H   0  0  0  0  0  0  0  0  0  0  0  0
   59.3014   27.9480   44.3020 H   0  0  0  0  0  0  0  0  0  0  0  0
   58.4746   34.0937   43.6639 H   0  0  0  0  0  0  0  0  0  0  0  0
   56.7833   33.5941   44.0867 H   0  0  0  0  0  0  0  0  0  0  0  0
   57.5159   31.1970   46.1068 H   0  0  0  0  0  0  0  0  0  0  0  0
   58.3502   31.4779   48.4327 H   0  0  0  0  0  0  0  0  0  0  0  0
   62.7588   33.4950   50.5955 H   0  0  0  0  0  0  0  0  0  0  0  0
   64.8194   32.5662   50.8389 H   0  0  0  0  0  0  0  0  0  0  0  0
   65.1475   31.3375   49.5704 H   0  0  0  0  0  0  0  0  0  0  0  0
   66.0489   32.8912   49.5704 H   0  0  0  0  0  0  0  0  0  0  0  0
   65.0335   32.7054   47.0447 H   0  0  0  0  0  0  0  0  0  0  0  0
   63.2173   33.7512   45.6895 H   0  0  0  0  0  0  0  0  0  0  0  0
   61.2850   34.6060   46.8260 H   0  0  0  0  0  0  0  0  0  0  0  0
   54.7810   28.9550   45.5610 H   0  0  0  0  0  0  0  0  0  0  0  0
  1  2  1  0
  2  3  1  0
  3  4  1  0
  4  5  1  0
  5  6  1  0
  6  7  1  0
  7  8  2  0
  8  9  1  0
  9 10  2  0
 10 11  1  0
 11 12  2  0
 11 13  1  0
 13 14  2  0
 14 15  1  0
 15 16  2  0
 16 17  1  0
 16 18  1  0
 18 19  2  0
 19 20  1  0
 10 21  1  0
  4 22  2  0
 22 23  1  0
 23 24  1  0
 24 25  2  0
 24  3  1  0
 21  7  1  0
 20 14  1  0
  1 26  1  0
  1 27  1  0
  1 28  1  0
  2 29  1  0
  2 30  1  0
  6 31  1  0
  6 32  1  0
  8 33  1  0
  9 34  1  0
 15 35  1  0
 17 36  1  0
 17 37  1  0
 17 38  1  0
 18 39  1  0
 19 40  1  0
 20 41  1  0
 23 42  1  0
M  END
>  <smiles>  (73) 
CCn1c(SCc2ccc(C(=O)N=c3cc(C)cc[nH]3)s2)n[nH]c1=O

>  <score_type>  (73) 
oracle

>  <origin>  (73) 
adg

>  <m_score__min__energy>  (73) 
-8.9299999999999997

>  <m_primary>  (73) 
energy

$$$$
73:0
     RDKit          3D

 43 44  0  0  0  0  0  0  0  0999 V2000
   58.4670   34.4620   52.4660 N   0  0  0  0  0  0  0  0  0  0  0  0
   58.5250   33.4310   51.6820 C   0  0  0  0  0  0  0  0  0  0  0  0
   57.8880   32.2870   52.0390 N   0  0  0  0  0  0  0  0  0  0  0  0
   57.9040   31.1910   51.2410 C   0  0  0  0  0  0  0  0  0  0  0  0
   57.2880   30.1550   51.6120 O   0  0  0  0  0  0  0  0  0  0  0  0
   58.5960   31.2240   50.0130 C   0  0  0  0  0  0  0  0  0  0  0  0
   58.5450   30.1320   49.0810 N   0  0  0  0  0  0  0  0  0  0  0  0
   59.5590   29.6880   48.5020 O   0  0  0  0  0  0  0  0  0  0  0  0
   59.2920   32.4050   49.6820 C   0  0  0  0  0  0  0  0  0  0  0  0
   60.0120   32.5310   48.4420 N   0  0  0  0  0  0  0  0  0  0  0  0
   60.3530   33.8160   47.8260 C   0  0  0  0  0  0  0  0  0  0  0  0
   59.1530   34.3910   47.0520 C   0  0  0  0  0  0  0  0  0  0  0  0
   58.3760   33.3140   46.2820 C   0  0  0  0  0  0  0  0  0  0  0  0
   59.2180   32.2240   45.9030 O   0  0  0  0  0  0  0  0  0  0  0  0
   58.7830   30.9250   45.5960 C   0  0  0  0  0  0  0  0  0  0  0  0
   57.4500   30.6280   45.2490 C   0  0  0  0  0  0  0  0  0  0  0  0
   57.0760   29.3130   44.9560 C   0  0  0  0  0  0  0  0  0  0  0  0
   58.0190   28.2760   45.0110 C   0  0  0  0  0  0  0  0  0  0  0  0
   57.6200   26.8620   44.6710 C   0  0  0  0  0  0  0  0  0  0  0  0
   57.4320   26.0040   45.9290 C   0  0  0  0  0  0  0  0  0  0  0  0
   55.9810   25.8210   46.2620 C   0  0  0  0  0  0  0  0  0  0  0  0
   55.1480   26.7240   45.9800 O   0  0  0  0  0  0  0  0  0  0  0  0
   55.5430   24.6370   46.8420 O   0  0  0  0  0  0  0  0  0  0  0  0
   59.3470   28.5740   45.3500 C   0  0  0  0  0  0  0  0  0  0  0  0
   59.7220   29.8880   45.6450 C   0  0  0  0  0  0  0  0  0  0  0  0
   59.2170   33.4850   50.5100 N   0  0  0  0  0  0  0  0  0  0  0  0
   58.1930   35.4080   52.1170 H   0  0  0  0  0  0  0  0  0  0  0  0
   60.0560   31.6880   47.8260 H   0  0  0  0  0  0  0  0  0  0  0  0
   60.6471   34.5258   48.6132 H   0  0  0  0  0  0  0  0  0  0  0  0
   61.1824   33.6581   47.1209 H   0  0  0  0  0  0  0  0  0  0  0  0
   58.4709   34.8737   47.7674 H   0  0  0  0  0  0  0  0  0  0  0  0
   59.5443   35.1093   46.3165 H   0  0  0  0  0  0  0  0  0  0  0  0
   57.5661   32.9331   46.9215 H   0  0  0  0  0  0  0  0  0  0  0  0
   57.9735   33.7708   45.3659 H   0  0  0  0  0  0  0  0  0  0  0  0
   56.7015   31.4330   45.2085 H   0  0  0  0  0  0  0  0  0  0  0  0
   56.0347   29.0900   44.6804 H   0  0  0  0  0  0  0  0  0  0  0  0
   56.6737   26.8842   44.1106 H   0  0  0  0  0  0  0  0  0  0  0  0
   58.4255   26.4150   44.0699 H   0  0  0  0  0  0  0  0  0  0  0  0
   57.8862   25.0168   45.7587 H   0  0  0  0  0  0  0  0  0  0  0  0
   57.9156   26.5194   46.7719 H   0  0  0  0  0  0  0  0  0  0  0  0
   60.0969   27.7700   45.3839 H   0  0  0  0  0  0  0  0  0  0  0  0
   60.7644   30.1091   45.9181 H   0  0  0  0  0  0  0  0  0  0  0  0
   59.7170   34.3660   50.2440 H   0  0  0  0  0  0  0  0  0  0  0  0
  1  2  2  3
  2  3  1  0
  3  4  1  0
  4  5  2  0
  4  6  1  0
  6  7  1  0
  7  8  2  0
  6  9  2  0
  9 10  1  0
 10 11  1  0
 11 12  1  0
 12 13  1  0
 13 14  1  0
 14 15  1  0
 15 16  2  0
 16 17  1  0
 17 18  2  0
 18 19  1  0
 19 20  1  0
 20 21  1  0
 21 22  2  0
 21 23  1  0
 18 24  1  0
 24 25  2  0
  9 26  1  0
 26  2  1  0
 25 15  1  0
  1 27  1  0
 10 28  1  0
 11 29  1  0
 11 30  1  0
 12 31  1  0
 12 32  1  0
 13 33  1  0
 13 34  1  0
 16 35  1  0
 17 36  1  0
 19 37  1  0
 19 38  1  0
 20 39  1  0
 20 40  1  0
 24 41  1  0
 25 42  1  0
 26 43  1  0
M  CHG  2   3  -1  23  -1
M  END
>  <UniqueID>  (74) 
70

>  <SMILES>  (74) 
N=c1[n-]c(=O)c(N=O)c(NCCCOc2ccc(CCC(=O)[O-])cc2)[nH]1

>  <Energy>  (74) 
42.22557524535181

>  <Genealogy>  (74) 
N=c1[n-]c(=O)c(N=O)c(NCCCOc2ccc(CCC(=O)[O-])cc2)[nH]1 (protonated)
N=c1[n-]c(=O)c(N=O)c(NCCCOc2ccc(CCC(=O)[O-])cc2)[nH]1 (3D coordinates assigned)
N=c1[n-]c(=O)c(N=O)c(NCCCOc2ccc(CCC(=O)[O-])cc2)[nH]1 (optimized conformer: 42.22557524535181 kcal/mol)

>  <smiles>  (74) 
N=c1[nH]c(NCCCOc2ccc(CCC(=O)O)cc2)c(N=O)c(=O)[nH]1

>  <score_type>  (74) 
oracle

>  <origin>  (74) 
adg

>  <m_score__min__energy>  (74) 
-11.85

>  <m_primary>  (74) 
energy

$$$$
74:0
     RDKit          3D

 44 47  0  0  0  0  0  0  0  0999 V2000
   62.8130   32.5130   47.7500 C   0  0  0  0  0  0  0  0  0  0  0  0
   61.5540   32.7290   46.9750 C   0  0  0  0  0  0  0  0  0  0  0  0
   61.1310   33.9520   46.4660 C   0  0  0  0  0  0  0  0  0  0  0  0
   59.8930   33.6980   45.9190 C   0  0  0  0  0  0  0  0  0  0  0  0
   58.9900   34.5620   45.3070 C   0  0  0  0  0  0  0  0  0  0  0  0
   57.7600   34.0310   44.8810 C   0  0  0  0  0  0  0  0  0  0  0  0
   57.4650   32.6650   45.0730 C   0  0  0  0  0  0  0  0  0  0  0  0
   58.3990   31.8010   45.6900 C   0  0  0  0  0  0  0  0  0  0  0  0
   58.0890   30.3660   45.8690 C   0  0  0  0  0  0  0  0  0  0  0  0
   58.5340   29.6840   47.0130 C   0  0  0  0  0  0  0  0  0  0  0  0
   58.2320   28.3310   47.1930 C   0  0  0  0  0  0  0  0  0  0  0  0
   57.4620   27.6420   46.2450 C   0  0  0  0  0  0  0  0  0  0  0  0
   57.1860   26.2440   46.4430 N   0  0  0  0  0  0  0  0  0  0  0  0
   55.9030   25.6380   46.2390 C   0  0  0  0  0  0  0  0  0  0  0  0
   54.8830   26.3480   46.0260 O   0  0  0  0  0  0  0  0  0  0  0  0
   55.7920   24.2110   46.2740 N   0  0  0  0  0  0  0  0  0  0  0  0
   56.4010   23.3050   45.3430 C   0  0  0  0  0  0  0  0  0  0  0  0
   56.0930   23.4350   43.9820 C   0  0  0  0  0  0  0  0  0  0  0  0
   56.6700   22.5770   43.0410 C   0  0  0  0  0  0  0  0  0  0  0  0
   57.5730   21.5950   43.4510 C   0  0  0  0  0  0  0  0  0  0  0  0
   57.9140   21.4790   44.8010 C   0  0  0  0  0  0  0  0  0  0  0  0
   57.3450   22.3370   45.7490 C   0  0  0  0  0  0  0  0  0  0  0  0
   57.7510   22.2440   47.0740 O   0  0  0  0  0  0  0  0  0  0  0  0
   57.0260   28.3200   45.0930 C   0  0  0  0  0  0  0  0  0  0  0  0
   57.3290   29.6730   44.9130 C   0  0  0  0  0  0  0  0  0  0  0  0
   59.6160   32.3660   46.1100 C   0  0  0  0  0  0  0  0  0  0  0  0
   60.6250   31.7680   46.7720 N   0  0  0  0  0  0  0  0  0  0  0  0
   62.5918   32.5510   48.8269 H   0  0  0  0  0  0  0  0  0  0  0  0
   63.2352   31.5293   47.4969 H   0  0  0  0  0  0  0  0  0  0  0  0
   63.5389   33.2997   47.4969 H   0  0  0  0  0  0  0  0  0  0  0  0
   61.6676   34.9118   46.4941 H   0  0  0  0  0  0  0  0  0  0  0  0
   59.2307   35.6254   45.1614 H   0  0  0  0  0  0  0  0  0  0  0  0
   57.0221   34.6856   44.3943 H   0  0  0  0  0  0  0  0  0  0  0  0
   56.4958   32.2667   44.7384 H   0  0  0  0  0  0  0  0  0  0  0  0
   59.1241   30.2179   47.7725 H   0  0  0  0  0  0  0  0  0  0  0  0
   58.6010   27.8031   48.0847 H   0  0  0  0  0  0  0  0  0  0  0  0
   57.9400   25.6470   46.8520 H   0  0  0  0  0  0  0  0  0  0  0  0
   55.3930   24.2168   43.6521 H   0  0  0  0  0  0  0  0  0  0  0  0
   56.4120   22.6760   41.9763 H   0  0  0  0  0  0  0  0  0  0  0  0
   58.0163   20.9122   42.7112 H   0  0  0  0  0  0  0  0  0  0  0  0
   58.6328   20.7099   45.1201 H   0  0  0  0  0  0  0  0  0  0  0  0
   56.4436   27.7833   44.3296 H   0  0  0  0  0  0  0  0  0  0  0  0
   56.9694   30.1984   44.0160 H   0  0  0  0  0  0  0  0  0  0  0  0
   60.6740   30.7780   47.1000 H   0  0  0  0  0  0  0  0  0  0  0  0
  1  2  1  0
  2  3  2  0
  3  4  1  0
  4  5  2  0
  5  6  1  0
  6  7  2  0
  7  8  1  0
  8  9  1  0
  9 10  2  0
 10 11  1  0
 11 12  2  0
 12 13  1  0
 13 14  1  0
 14 15  2  0
 14 16  1  0
 16 17  1  0
 17 18  2  0
 18 19  1  0
 19 20  2  0
 20 21  1  0
 21 22  2  0
 22 23  1  0
 12 24  1  0
 24 25  2  0
  8 26  2  0
 26 27  1  0
 27  2  1  0
 26  4  1  0
 25  9  1  0
 22 17  1  0
  1 28  1  0
  1 29  1  0
  1 30  1  0
  3 31  1  0
  5 32  1  0
  6 33  1  0
  7 34  1  0
 10 35  1  0
 11 36  1  0
 13 37  1  0
 18 38  1  0
 19 39  1  0
 20 40  1  0
 21 41  1  0
 24 42  1  0
 25 43  1  0
 27 44  1  0
M  CHG  2  16  -1  23  -1
M  END
>  <UniqueID>  (75) 
71

>  <SMILES>  (75) 
Cc1cc2cccc(-c3ccc(NC(=O)[N-]c4ccccc4[O-])cc3)c2[nH]1

>  <Energy>  (75) 
94.65674532761466

>  <Genealogy>  (75) 
Cc1cc2cccc(-c3ccc(NC(=O)[N-]c4ccccc4[O-])cc3)c2[nH]1 (protonated)
Cc1cc2cccc(-c3ccc(NC(=O)[N-]c4ccccc4[O-])cc3)c2[nH]1 (3D coordinates assigned)
Cc1cc2cccc(-c3ccc(NC(=O)[N-]c4ccccc4[O-])cc3)c2[nH]1 (optimized conformer: 94.65674532761466 kcal/mol)

>  <smiles>  (75) 
Cc1cc2cccc(-c3ccc(NC(=O)Nc4ccccc4O)cc3)c2[nH]1

>  <score_type>  (75) 
oracle

>  <origin>  (75) 
adg

>  <m_score__min__energy>  (75) 
-13.380000000000001

>  <m_primary>  (75) 
energy

$$$$
75:0
     RDKit          3D

 68 71  0  0  0  0  0  0  0  0999 V2000
   59.5093   28.9038   44.8063 H   0  0  0  0  0  0  0  0  0  0  0  0
   59.4110   28.8400   45.9000 C   0  0  0  0  0  0  0  0  0  0  0  0
   60.4420   29.2300   46.6960 N   0  0  0  0  0  0  0  0  0  0  0  0
   60.3780   29.1400   48.0540 C   0  0  0  0  0  0  0  0  0  0  0  0
   61.3580   29.5610   48.7970 N   0  0  0  0  0  0  0  0  0  0  0  0
   61.2540   29.7910   50.2350 C   0  0  0  0  0  0  0  0  0  0  0  0
   60.6268   29.0079   50.6860 H   0  0  0  0  0  0  0  0  0  0  0  0
   60.8003   30.7769   50.4140 H   0  0  0  0  0  0  0  0  0  0  0  0
   62.6380   29.7530   50.8620 C   0  0  0  0  0  0  0  0  0  0  0  0
   62.5442   29.7556   51.9580 H   0  0  0  0  0  0  0  0  0  0  0  0
   63.1611   28.8402   50.5409 H   0  0  0  0  0  0  0  0  0  0  0  0
   63.2104   30.6358   50.5409 H   0  0  0  0  0  0  0  0  0  0  0  0
   59.2360   28.6020   48.6570 C   0  0  0  0  0  0  0  0  0  0  0  0
   59.1877   28.4887   49.7501 H   0  0  0  0  0  0  0  0  0  0  0  0
   58.1580   28.2100   47.8610 C   0  0  0  0  0  0  0  0  0  0  0  0
   57.2570   27.7855   48.3279 H   0  0  0  0  0  0  0  0  0  0  0  0
   58.2210   28.3560   46.4680 C   0  0  0  0  0  0  0  0  0  0  0  0
   57.0350   28.0590   45.6300 C   0  0  0  0  0  0  0  0  0  0  0  0
   56.5960   26.8790   45.5860 O   0  0  0  0  0  0  0  0  0  0  0  0
   56.3740   29.0690   44.8490 N   0  0  0  0  0  0  0  0  0  0  0  0
   56.9240   30.3380   44.4600 C   0  0  0  0  0  0  0  0  0  0  0  0
   57.6330   31.1400   45.3700 C   0  0  0  0  0  0  0  0  0  0  0  0
   57.6566   30.8657   46.4350 H   0  0  0  0  0  0  0  0  0  0  0  0
   58.3120   32.2890   44.9320 C   0  0  0  0  0  0  0  0  0  0  0  0
   59.2270   32.9890   45.8570 C   0  0  0  0  0  0  0  0  0  0  0  0
   58.9240   34.1440   46.2660 O   0  0  0  0  0  0  0  0  0  0  0  0
   60.3840   32.3160   46.3840 N   0  0  0  0  0  0  0  0  0  0  0  0
   60.5230   31.3130   46.1290 H   0  0  0  0  0  0  0  0  0  0  0  0
   61.1280   32.8150   47.5070 C   0  0  0  0  0  0  0  0  0  0  0  0
   62.3950   33.3820   47.3410 C   0  0  0  0  0  0  0  0  0  0  0  0
   62.8454   33.4334   46.3387 H   0  0  0  0  0  0  0  0  0  0  0  0
   63.0890   33.8820   48.4400 C   0  0  0  0  0  0  0  0  0  0  0  0
   64.0903   34.3143   48.2969 H   0  0  0  0  0  0  0  0  0  0  0  0
   62.5300   33.8430   49.7300 C   0  0  0  0  0  0  0  0  0  0  0  0
   63.3210   34.4690   50.8680 C   0  0  0  0  0  0  0  0  0  0  0  0
   64.0726   35.1405   50.4275 H   0  0  0  0  0  0  0  0  0  0  0  0
   62.5810   34.9807   51.5009 H   0  0  0  0  0  0  0  0  0  0  0  0
   64.0320   33.5120   51.7670 N   0  0  0  0  0  0  0  0  0  0  0  0
   65.0010   34.0340   52.7640 C   0  0  0  0  0  0  0  0  0  0  0  0
   64.8264   35.1125   52.8915 H   0  0  0  0  0  0  0  0  0  0  0  0
   64.8414   33.4793   53.7004 H   0  0  0  0  0  0  0  0  0  0  0  0
   66.4680   33.8200   52.3450 C   0  0  0  0  0  0  0  0  0  0  0  0
   67.0791   34.6547   52.7189 H   0  0  0  0  0  0  0  0  0  0  0  0
   66.8304   32.8725   52.7703 H   0  0  0  0  0  0  0  0  0  0  0  0
   66.5690   33.7610   50.8790 N   0  0  0  0  0  0  0  0  0  0  0  0
   67.9750   33.7620   50.4540 C   0  0  0  0  0  0  0  0  0  0  0  0
   68.6261   33.7625   51.3406 H   0  0  0  0  0  0  0  0  0  0  0  0
   68.1766   32.8640   49.8515 H   0  0  0  0  0  0  0  0  0  0  0  0
   68.1753   34.6603   49.8515 H   0  0  0  0  0  0  0  0  0  0  0  0
   65.8630   32.5780   50.3420 C   0  0  0  0  0  0  0  0  0  0  0  0
   65.6494   32.7468   49.2762 H   0  0  0  0  0  0  0  0  0  0  0  0
   66.5133   31.7027   50.4869 H   0  0  0  0  0  0  0  0  0  0  0  0
   64.5340   32.3070   51.0780 C   0  0  0  0  0  0  0  0  0  0  0  0
   63.7826   31.9768   50.3456 H   0  0  0  0  0  0  0  0  0  0  0  0
   64.7157   31.5310   51.8362 H   0  0  0  0  0  0  0  0  0  0  0  0
   61.2630   33.2160   49.9200 C   0  0  0  0  0  0  0  0  0  0  0  0
   60.6580   33.0210   51.3010 C   0  0  0  0  0  0  0  0  0  0  0  0
   61.6070   32.4650   52.1400 F   0  0  0  0  0  0  0  0  0  0  0  0
   59.5630   32.1740   51.2660 F   0  0  0  0  0  0  0  0  0  0  0  0
   60.2340   34.2250   51.8310 F   0  0  0  0  0  0  0  0  0  0  0  0
   60.5890   32.7010   48.7950 C   0  0  0  0  0  0  0  0  0  0  0  0
   59.6196   32.1991   48.9308 H   0  0  0  0  0  0  0  0  0  0  0  0
   58.1700   32.6990   43.5970 C   0  0  0  0  0  0  0  0  0  0  0  0
   58.6798   33.6084   43.2462 H   0  0  0  0  0  0  0  0  0  0  0  0
   57.3830   31.9560   42.7110 C   0  0  0  0  0  0  0  0  0  0  0  0
   57.2460   32.3023   41.6760 H   0  0  0  0  0  0  0  0  0  0  0  0
   56.7700   30.7740   43.1380 C   0  0  0  0  0  0  0  0  0  0  0  0
   56.0580   30.0320   42.2530 F   0  0  0  0  0  0  0  0  0  0  0  0
  1  2  1  0
  2  3  1  0
  3  4  1  0
  4  5  2  0
  5  6  1  0
  6  7  1  0
  6  8  1  0
  6  9  1  0
  9 10  1  0
  9 11  1  0
  9 12  1  0
  4 13  1  0
 13 14  1  0
 13 15  2  0
 15 16  1  0
 15 17  1  0
 17 18  1  0
 18 19  2  0
 18 20  1  0
 20 21  1  0
 21 22  2  0
 22 23  1  0
 22 24  1  0
 24 25  1  0
 25 26  2  0
 25 27  1  0
 27 28  1  0
 27 29  1  0
 29 30  2  0
 30 31  1  0
 30 32  1  0
 32 33  1  0
 32 34  2  0
 34 35  1  0
 35 36  1  0
 35 37  1  0
 35 38  1  0
 38 39  1  0
 39 40  1  0
 39 41  1  0
 39 42  1  0
 42 43  1  0
 42 44  1  0
 42 45  1  0
 45 46  1  0
 46 47  1  0
 46 48  1  0
 46 49  1  0
 45 50  1  0
 50 51  1  0
 50 52  1  0
 50 53  1  0
 53 54  1  0
 53 55  1  0
 34 56  1  0
 56 57  1  0
 57 58  1  0
 57 59  1  0
 57 60  1  0
 56 61  2  0
 61 62  1  0
 24 63  2  0
 63 64  1  0
 63 65  1  0
 65 66  1  0
 65 67  2  0
 67 68  1  0
 17  2  2  0
 67 21  1  0
 61 29  1  0
 53 38  1  0
M  CHG  2   3  -1  20  -1
M  END
>  <UniqueID>  (76) 
72

>  <SMILES>  (76) 
CC/N=c1/ccc(C(=O)[N-]c2cc(C(=O)Nc3ccc(CN4CCN(C)CC4)c(C(F)(F)F)c3)ccc2F)c[n-]1

>  <Energy>  (76) 
103.49425607966502

>  <Genealogy>  (76) 
CCN=c1ccc(C(=O)[N-]c2cc(C(=O)Nc3ccc(CN4CCN(C)CC4)c(C(F)(F)F)c3)ccc2F)c[n-]1 (protonated)
CC/N=c1/ccc(C(=O)[N-]c2cc(C(=O)Nc3ccc(CN4CCN(C)CC4)c(C(F)(F)F)c3)ccc2F)c[n-]1 (cis-trans isomerization)
CC/N=c1/ccc(C(=O)[N-]c2cc(C(=O)Nc3ccc(CN4CCN(C)CC4)c(C(F)(F)F)c3)ccc2F)c[n-]1 (3D coordinates assigned)
CC/N=c1/ccc(C(=O)[N-]c2cc(C(=O)Nc3ccc(CN4CCN(C)CC4)c(C(F)(F)F)c3)ccc2F)c[n-]1 (nonaromatic ring conformer: 103.49425607966502 kcal/mol)

>  <smiles>  (76) 
CCN=c1ccc(C(=O)Nc2cc(C(=O)Nc3ccc(CN4CCN(C)CC4)c(C(F)(F)F)c3)ccc2F)c[nH]1

>  <score_type>  (76) 
oracle

>  <origin>  (76) 
adg

>  <m_score__min__energy>  (76) 
-11.550000000000001

>  <m_primary>  (76) 
energy

$$$$
76:0
     RDKit          3D

 60 63  0  0  0  0  0  0  0  0999 V2000
   59.1690   35.4040   44.8780 O   0  0  0  0  0  0  0  0  0  0  0  0
   59.2510   34.4130   45.6520 C   0  0  0  0  0  0  0  0  0  0  0  0
   59.9740   34.5670   46.8800 N   0  0  0  0  0  0  0  0  0  0  0  0
   61.1710   33.8660   47.2630 C   0  0  0  0  0  0  0  0  0  0  0  0
   62.2930   33.8340   46.4130 C   0  0  0  0  0  0  0  0  0  0  0  0
   63.4400   33.1240   46.7790 C   0  0  0  0  0  0  0  0  0  0  0  0
   63.4750   32.4280   47.9880 C   0  0  0  0  0  0  0  0  0  0  0  0
   62.3570   32.4260   48.8260 C   0  0  0  0  0  0  0  0  0  0  0  0
   61.1940   33.1280   48.4660 C   0  0  0  0  0  0  0  0  0  0  0  0
   60.0210   33.1080   49.3700 C   0  0  0  0  0  0  0  0  0  0  0  0
   58.8980   32.7910   48.8940 O   0  0  0  0  0  0  0  0  0  0  0  0
   60.1390   33.4360   50.7720 N   0  0  0  0  0  0  0  0  0  0  0  0
   61.4450   33.4400   51.4470 C   0  0  0  0  0  0  0  0  0  0  0  0
   61.2790   33.0430   52.9170 C   0  0  0  0  0  0  0  0  0  0  0  0
   60.2910   33.8380   53.5390 O   0  0  0  0  0  0  0  0  0  0  0  0
   59.0290   33.5670   52.9620 C   0  0  0  0  0  0  0  0  0  0  0  0
   58.9940   34.0030   51.4940 C   0  0  0  0  0  0  0  0  0  0  0  0
   58.6510   33.1200   45.2430 C   0  0  0  0  0  0  0  0  0  0  0  0
   58.3520   32.1470   46.2140 C   0  0  0  0  0  0  0  0  0  0  0  0
   57.7620   30.9350   45.8450 C   0  0  0  0  0  0  0  0  0  0  0  0
   57.4460   30.6780   44.5020 C   0  0  0  0  0  0  0  0  0  0  0  0
   56.8030   29.3740   44.1190 C   0  0  0  0  0  0  0  0  0  0  0  0
   56.0830   28.8330   45.2710 N   0  0  0  0  0  0  0  0  0  0  0  0
   56.6320   27.2160   45.5950 S   0  0  0  0  0  0  0  0  0  0  0  0
   55.4490   26.3250   45.8690 O   0  0  0  0  0  0  0  0  0  0  0  0
   57.3960   26.6860   44.4130 O   0  0  0  0  0  0  0  0  0  0  0  0
   57.7010   27.2440   47.0240 C   0  0  0  0  0  0  0  0  0  0  0  0
   58.8530   28.1880   46.8010 C   0  0  0  0  0  0  0  0  0  0  0  0
   59.2890   29.0310   47.8380 C   0  0  0  0  0  0  0  0  0  0  0  0
   60.3840   29.8810   47.6410 C   0  0  0  0  0  0  0  0  0  0  0  0
   61.0550   29.8880   46.4140 C   0  0  0  0  0  0  0  0  0  0  0  0
   60.6310   29.0480   45.3800 C   0  0  0  0  0  0  0  0  0  0  0  0
   59.5360   28.1980   45.5710 C   0  0  0  0  0  0  0  0  0  0  0  0
   57.7460   31.6440   43.5290 C   0  0  0  0  0  0  0  0  0  0  0  0
   58.3310   32.8610   43.8980 C   0  0  0  0  0  0  0  0  0  0  0  0
   62.2667   34.3718   45.4538 H   0  0  0  0  0  0  0  0  0  0  0  0
   64.3158   33.1139   46.1135 H   0  0  0  0  0  0  0  0  0  0  0  0
   64.3830   31.8808   48.2813 H   0  0  0  0  0  0  0  0  0  0  0  0
   62.3874   31.8706   49.7750 H   0  0  0  0  0  0  0  0  0  0  0  0
   62.1138   32.7222   50.9496 H   0  0  0  0  0  0  0  0  0  0  0  0
   61.8748   34.4511   51.3935 H   0  0  0  0  0  0  0  0  0  0  0  0
   60.9809   31.9857   52.9743 H   0  0  0  0  0  0  0  0  0  0  0  0
   62.2365   33.1975   53.4360 H   0  0  0  0  0  0  0  0  0  0  0  0
   58.8302   32.4868   53.0217 H   0  0  0  0  0  0  0  0  0  0  0  0
   58.2620   34.1299   53.5141 H   0  0  0  0  0  0  0  0  0  0  0  0
   58.0608   33.6491   51.0315 H   0  0  0  0  0  0  0  0  0  0  0  0
   59.0441   35.1007   51.4432 H   0  0  0  0  0  0  0  0  0  0  0  0
   58.5843   32.3415   47.2715 H   0  0  0  0  0  0  0  0  0  0  0  0
   57.5439   30.1775   46.6122 H   0  0  0  0  0  0  0  0  0  0  0  0
   56.0985   29.5410   43.2908 H   0  0  0  0  0  0  0  0  0  0  0  0
   57.5777   28.6608   43.8007 H   0  0  0  0  0  0  0  0  0  0  0  0
   57.1253   27.5758   47.9006 H   0  0  0  0  0  0  0  0  0  0  0  0
   58.0973   26.2318   47.1923 H   0  0  0  0  0  0  0  0  0  0  0  0
   58.7684   29.0228   48.8070 H   0  0  0  0  0  0  0  0  0  0  0  0
   60.7171   30.5444   48.4527 H   0  0  0  0  0  0  0  0  0  0  0  0
   61.9167   30.5547   46.2624 H   0  0  0  0  0  0  0  0  0  0  0  0
   61.1589   29.0553   44.4150 H   0  0  0  0  0  0  0  0  0  0  0  0
   59.2080   27.5353   44.7566 H   0  0  0  0  0  0  0  0  0  0  0  0
   57.5203   31.4438   42.4712 H   0  0  0  0  0  0  0  0  0  0  0  0
   58.5420   33.6203   43.1306 H   0  0  0  0  0  0  0  0  0  0  0  0
  1  2  2  0
  2  3  1  0
  3  4  1  0
  4  5  2  0
  5  6  1  0
  6  7  2  0
  7  8  1  0
  8  9  2  0
  9 10  1  0
 10 11  2  0
 10 12  1  0
 12 13  1  0
 13 14  1  0
 14 15  1  0
 15 16  1  0
 16 17  1  0
  2 18  1  0
 18 19  2  0
 19 20  1  0
 20 21  2  0
 21 22  1  0
 22 23  1  0
 23 24  1  0
 24 25  2  0
 24 26  2  0
 24 27  1  0
 27 28  1  0
 28 29  2  0
 29 30  1  0
 30 31  2  0
 31 32  1  0
 32 33  2  0
 21 34  1  0
 34 35  2  0
  9  4  1  0
 17 12  1  0
 35 18  1  0
 33 28  1  0
  5 36  1  0
  6 37  1  0
  7 38  1  0
  8 39  1  0
 13 40  1  0
 13 41  1  0
 14 42  1  0
 14 43  1  0
 16 44  1  0
 16 45  1  0
 17 46  1  0
 17 47  1  0
 19 48  1  0
 20 49  1  0
 22 50  1  0
 22 51  1  0
 27 52  1  0
 27 53  1  0
 29 54  1  0
 30 55  1  0
 31 56  1  0
 32 57  1  0
 33 58  1  0
 34 59  1  0
 35 60  1  0
M  CHG  2   3  -1  23  -1
M  END
>  <UniqueID>  (77) 
73

>  <SMILES>  (77) 
O=C([N-]c1ccccc1C(=O)N1CCOCC1)c1ccc(C[N-]S(=O)(=O)Cc2ccccc2)cc1

>  <Energy>  (77) 
71.36398181104427

>  <Genealogy>  (77) 
O=C([N-]c1ccccc1C(=O)N1CCOCC1)c1ccc(C[N-]S(=O)(=O)Cc2ccccc2)cc1 (protonated)
O=C([N-]c1ccccc1C(=O)N1CCOCC1)c1ccc(C[N-]S(=O)(=O)Cc2ccccc2)cc1 (3D coordinates assigned)
O=C([N-]c1ccccc1C(=O)N1CCOCC1)c1ccc(C[N-]S(=O)(=O)Cc2ccccc2)cc1 (nonaromatic ring conformer: 71.36398181104427 kcal/mol)

>  <smiles>  (77) 
O=C(Nc1ccccc1C(=O)N1CCOCC1)c1ccc(CNS(=O)(=O)Cc2ccccc2)cc1

>  <score_type>  (77) 
oracle

>  <origin>  (77) 
adg

>  <m_score__min__energy>  (77) 
-13.1

>  <m_primary>  (77) 
energy

$$$$
77:0
     RDKit          3D

 52 55  0  0  0  0  0  0  0  0999 V2000
   58.5010   32.8760   46.1220 N   0  0  0  0  0  0  0  0  0  0  0  0
   58.4080   32.8820   44.6670 C   0  0  0  0  0  0  0  0  0  0  0  0
   57.6420   31.6770   44.1960 C   0  0  0  0  0  0  0  0  0  0  0  0
   57.3190   31.5310   42.8380 C   0  0  0  0  0  0  0  0  0  0  0  0
   56.6220   30.4030   42.3980 C   0  0  0  0  0  0  0  0  0  0  0  0
   56.2650   29.4010   43.3040 C   0  0  0  0  0  0  0  0  0  0  0  0
   56.6260   29.5120   44.6570 C   0  0  0  0  0  0  0  0  0  0  0  0
   56.2440   28.5150   45.6120 N   0  0  0  0  0  0  0  0  0  0  0  0
   56.6990   27.1560   45.6430 C   0  0  0  0  0  0  0  0  0  0  0  0
   55.8420   26.2330   45.6350 O   0  0  0  0  0  0  0  0  0  0  0  0
   58.1530   26.8170   45.8670 C   0  0  0  0  0  0  0  0  0  0  0  0
   58.9430   28.0290   46.1500 N   0  0  0  0  0  0  0  0  0  0  0  0
   59.7040   28.5720   45.1510 C   0  0  0  0  0  0  0  0  0  0  0  0
   60.4520   29.7290   45.3720 C   0  0  0  0  0  0  0  0  0  0  0  0
   60.4330   30.3390   46.6270 C   0  0  0  0  0  0  0  0  0  0  0  0
   61.1950   31.5400   46.8220 N   0  0  0  0  0  0  0  0  0  0  0  0
   61.0700   32.4640   47.9120 C   0  0  0  0  0  0  0  0  0  0  0  0
   59.9510   32.9660   48.2000 O   0  0  0  0  0  0  0  0  0  0  0  0
   62.2170   32.7770   48.7120 N   0  0  0  0  0  0  0  0  0  0  0  0
   63.5520   32.2280   48.4680 C   0  0  0  0  0  0  0  0  0  0  0  0
   64.3670   32.8550   49.5380 C   0  0  0  0  0  0  0  0  0  0  0  0
   65.7290   32.6860   49.7870 C   0  0  0  0  0  0  0  0  0  0  0  0
   66.3050   33.3810   50.8640 C   0  0  0  0  0  0  0  0  0  0  0  0
   65.5150   34.2260   51.6670 C   0  0  0  0  0  0  0  0  0  0  0  0
   64.1450   34.3810   51.3980 C   0  0  0  0  0  0  0  0  0  0  0  0
   63.5940   33.6800   50.3240 C   0  0  0  0  0  0  0  0  0  0  0  0
   62.1870   33.6890   49.8570 C   0  0  0  0  0  0  0  0  0  0  0  0
   59.6210   29.7980   47.6320 C   0  0  0  0  0  0  0  0  0  0  0  0
   58.8810   28.6380   47.3790 C   0  0  0  0  0  0  0  0  0  0  0  0
   58.1510   28.1670   48.2930 O   0  0  0  0  0  0  0  0  0  0  0  0
   57.2940   30.6600   45.1000 C   0  0  0  0  0  0  0  0  0  0  0  0
   58.9720   33.7600   46.4230 H   0  0  0  0  0  0  0  0  0  0  0  0
   59.1360   32.0920   46.3990 H   0  0  0  0  0  0  0  0  0  0  0  0
   57.8891   33.7947   44.3389 H   0  0  0  0  0  0  0  0  0  0  0  0
   59.4215   32.8553   44.2402 H   0  0  0  0  0  0  0  0  0  0  0  0
   57.6157   32.3075   42.1175 H   0  0  0  0  0  0  0  0  0  0  0  0
   56.3537   30.3035   41.3359 H   0  0  0  0  0  0  0  0  0  0  0  0
   55.7000   28.5233   42.9570 H   0  0  0  0  0  0  0  0  0  0  0  0
   58.2339   26.1280   46.7207 H   0  0  0  0  0  0  0  0  0  0  0  0
   58.5473   26.3484   44.9532 H   0  0  0  0  0  0  0  0  0  0  0  0
   59.7264   28.0908   44.1621 H   0  0  0  0  0  0  0  0  0  0  0  0
   61.0552   30.1592   44.5590 H   0  0  0  0  0  0  0  0  0  0  0  0
   63.5525   31.1319   48.5606 H   0  0  0  0  0  0  0  0  0  0  0  0
   63.9293   32.4352   47.4557 H   0  0  0  0  0  0  0  0  0  0  0  0
   66.3384   32.0237   49.1546 H   0  0  0  0  0  0  0  0  0  0  0  0
   67.3771   33.2645   51.0806 H   0  0  0  0  0  0  0  0  0  0  0  0
   65.9726   34.7670   52.5084 H   0  0  0  0  0  0  0  0  0  0  0  0
   63.5207   35.0397   52.0195 H   0  0  0  0  0  0  0  0  0  0  0  0
   61.5078   33.3197   50.6395 H   0  0  0  0  0  0  0  0  0  0  0  0
   61.8201   34.6942   49.6024 H   0  0  0  0  0  0  0  0  0  0  0  0
   59.5653   30.2838   48.6173 H   0  0  0  0  0  0  0  0  0  0  0  0
   57.5484   30.7663   46.1649 H   0  0  0  0  0  0  0  0  0  0  0  0
  1  2  1  0
  2  3  1  0
  3  4  2  0
  4  5  1  0
  5  6  2  0
  6  7  1  0
  7  8  1  0
  8  9  1  0
  9 10  2  0
  9 11  1  0
 11 12  1  0
 12 13  1  0
 13 14  2  0
 14 15  1  0
 15 16  1  0
 16 17  1  0
 17 18  2  0
 17 19  1  0
 19 20  1  0
 20 21  1  0
 21 22  2  0
 22 23  1  0
 23 24  2  0
 24 25  1  0
 25 26  2  0
 26 27  1  0
 15 28  2  0
 28 29  1  0
 29 30  2  0
  7 31  2  0
 31  3  1  0
 29 12  1  0
 27 19  1  0
 26 21  1  0
  1 32  1  0
  1 33  1  0
  2 34  1  0
  2 35  1  0
  4 36  1  0
  5 37  1  0
  6 38  1  0
 11 39  1  0
 11 40  1  0
 13 41  1  0
 14 42  1  0
 20 43  1  0
 20 44  1  0
 22 45  1  0
 23 46  1  0
 24 47  1  0
 25 48  1  0
 27 49  1  0
 27 50  1  0
 28 51  1  0
 31 52  1  0
M  CHG  2   8  -1  16  -1
M  END
>  <UniqueID>  (78) 
74

>  <SMILES>  (78) 
NCc1cccc([N-]C(=O)Cn2ccc([N-]C(=O)N3Cc4ccccc4C3)cc2=O)c1

>  <Energy>  (78) 
74.54188220217556

>  <Genealogy>  (78) 
NCc1cccc([N-]C(=O)Cn2ccc([N-]C(=O)N3Cc4ccccc4C3)cc2=O)c1 (protonated)
NCc1cccc([N-]C(=O)Cn2ccc([N-]C(=O)N3Cc4ccccc4C3)cc2=O)c1 (3D coordinates assigned)
NCc1cccc([N-]C(=O)Cn2ccc([N-]C(=O)N3Cc4ccccc4C3)cc2=O)c1 (nonaromatic ring conformer: 74.54188220217556 kcal/mol)

>  <smiles>  (78) 
NCc1cccc(NC(=O)Cn2ccc(NC(=O)N3Cc4ccccc4C3)cc2=O)c1

>  <score_type>  (78) 
oracle

>  <origin>  (78) 
adg

>  <m_score__min__energy>  (78) 
-12.17

>  <m_primary>  (78) 
energy

$$$$
78:0
     RDKit          3D

 38 39  0  0  0  0  0  0  0  0999 V2000
   57.4860   25.4300   44.3850 C   0  0  0  0  0  0  0  0  0  0  0  0
   58.1390   26.2580   45.4570 C   0  0  0  0  0  0  0  0  0  0  0  0
   59.3650   25.8480   46.0060 C   0  0  0  0  0  0  0  0  0  0  0  0
   59.9720   26.5950   47.0180 C   0  0  0  0  0  0  0  0  0  0  0  0
   59.3630   27.7600   47.4880 C   0  0  0  0  0  0  0  0  0  0  0  0
   58.1380   28.1730   46.9590 C   0  0  0  0  0  0  0  0  0  0  0  0
   57.5000   27.4100   45.9650 C   0  0  0  0  0  0  0  0  0  0  0  0
   56.2490   27.8390   45.4050 N   0  0  0  0  0  0  0  0  0  0  0  0
   56.0510   28.9880   44.5720 C   0  0  0  0  0  0  0  0  0  0  0  0
   55.1470   29.8110   44.8750 O   0  0  0  0  0  0  0  0  0  0  0  0
   56.9920   29.3210   43.4470 C   0  0  0  0  0  0  0  0  0  0  0  0
   58.2600   29.8010   43.9900 N   0  0  0  0  0  0  0  0  0  0  0  0
   58.3270   30.7650   45.0510 C   0  0  0  0  0  0  0  0  0  0  0  0
   57.2810   31.3410   45.4530 O   0  0  0  0  0  0  0  0  0  0  0  0
   59.6390   31.0840   45.7040 C   0  0  0  0  0  0  0  0  0  0  0  0
   59.5760   32.4390   46.3680 C   0  0  0  0  0  0  0  0  0  0  0  0
   59.3480   33.5900   45.5850 C   0  0  0  0  0  0  0  0  0  0  0  0
   59.2140   33.4970   44.2370 F   0  0  0  0  0  0  0  0  0  0  0  0
   59.2500   34.8460   46.1880 C   0  0  0  0  0  0  0  0  0  0  0  0
   59.3640   34.9710   47.5740 C   0  0  0  0  0  0  0  0  0  0  0  0
   59.5740   33.8390   48.3630 C   0  0  0  0  0  0  0  0  0  0  0  0
   59.6760   32.5740   47.7720 C   0  0  0  0  0  0  0  0  0  0  0  0
   59.9240   31.1850   48.8270 Cl  0  0  0  0  0  0  0  0  0  0  0  0
   56.8689   24.6476   44.8509 H   0  0  0  0  0  0  0  0  0  0  0  0
   56.8505   26.0745   43.7600 H   0  0  0  0  0  0  0  0  0  0  0  0
   58.2609   24.9622   43.7600 H   0  0  0  0  0  0  0  0  0  0  0  0
   59.8503   24.9326   45.6365 H   0  0  0  0  0  0  0  0  0  0  0  0
   60.9306   26.2652   47.4450 H   0  0  0  0  0  0  0  0  0  0  0  0
   59.8487   28.3538   48.2763 H   0  0  0  0  0  0  0  0  0  0  0  0
   57.6699   29.1000   47.3219 H   0  0  0  0  0  0  0  0  0  0  0  0
   57.1713   28.4201   42.8418 H   0  0  0  0  0  0  0  0  0  0  0  0
   56.5449   30.1057   42.8190 H   0  0  0  0  0  0  0  0  0  0  0  0
   59.1440   29.3950   43.6100 H   0  0  0  0  0  0  0  0  0  0  0  0
   59.8634   30.3185   46.4613 H   0  0  0  0  0  0  0  0  0  0  0  0
   60.4276   31.0967   44.9372 H   0  0  0  0  0  0  0  0  0  0  0  0
   59.0825   35.7397   45.5689 H   0  0  0  0  0  0  0  0  0  0  0  0
   59.2882   35.9624   48.0445 H   0  0  0  0  0  0  0  0  0  0  0  0
   59.6598   33.9413   49.4549 H   0  0  0  0  0  0  0  0  0  0  0  0
  1  2  1  0
  2  3  2  0
  3  4  1  0
  4  5  2  0
  5  6  1  0
  6  7  2  0
  7  8  1  0
  8  9  1  0
  9 10  2  0
  9 11  1  0
 11 12  1  0
 12 13  1  0
 13 14  2  0
 13 15  1  0
 15 16  1  0
 16 17  2  0
 17 18  1  0
 17 19  1  0
 19 20  2  0
 20 21  1  0
 21 22  2  0
 22 23  1  0
  7  2  1  0
 22 16  1  0
  1 24  1  0
  1 25  1  0
  1 26  1  0
  3 27  1  0
  4 28  1  0
  5 29  1  0
  6 30  1  0
 11 31  1  0
 11 32  1  0
 12 33  1  0
 15 34  1  0
 15 35  1  0
 19 36  1  0
 20 37  1  0
 21 38  1  0
M  CHG  1   8  -1
M  END
>  <UniqueID>  (79) 
75

>  <SMILES>  (79) 
Cc1ccccc1[N-]C(=O)CNC(=O)Cc1c(F)cccc1Cl

>  <Energy>  (79) 
40.58341569926723

>  <Genealogy>  (79) 
Cc1ccccc1[N-]C(=O)CNC(=O)Cc1c(F)cccc1Cl (protonated)
Cc1ccccc1[N-]C(=O)CNC(=O)Cc1c(F)cccc1Cl (3D coordinates assigned)
Cc1ccccc1[N-]C(=O)CNC(=O)Cc1c(F)cccc1Cl (optimized conformer: 40.58341569926723 kcal/mol)

>  <smiles>  (79) 
Cc1ccccc1NC(=O)CNC(=O)Cc1c(F)cccc1Cl

>  <score_type>  (79) 
oracle

>  <origin>  (79) 
adg

>  <m_score__min__energy>  (79) 
-8.9499999999999993

>  <m_primary>  (79) 
energy

$$$$
79:0
     RDKit          3D

 49 52  0  0  0  0  0  0  0  0999 V2000
   51.3360   24.1460   44.3100 C   0  0  0  0  0  0  0  0  0  0  0  0
   52.6170   23.8270   44.5120 C   0  0  0  0  0  0  0  0  0  0  0  0
   53.1150   23.3610   45.8490 C   0  0  0  0  0  0  0  0  0  0  0  0
   54.5560   23.5710   45.9520 N   0  0  0  0  0  0  0  0  0  0  0  0
   55.1500   24.8770   45.9830 C   0  0  0  0  0  0  0  0  0  0  0  0
   54.4220   25.9070   45.9560 O   0  0  0  0  0  0  0  0  0  0  0  0
   56.6110   25.0340   46.0530 C   0  0  0  0  0  0  0  0  0  0  0  0
   57.4670   23.9930   45.9390 N   0  0  0  0  0  0  0  0  0  0  0  0
   58.6720   24.5750   46.0500 C   0  0  0  0  0  0  0  0  0  0  0  0
   59.8730   23.8840   45.9920 O   0  0  0  0  0  0  0  0  0  0  0  0
   58.5300   25.9300   46.2200 C   0  0  0  0  0  0  0  0  0  0  0  0
   59.6250   26.9410   46.3700 C   0  0  0  0  0  0  0  0  0  0  0  0
   59.0880   28.3240   46.1750 C   0  0  0  0  0  0  0  0  0  0  0  0
   58.1800   28.5710   45.1980 N   0  0  0  0  0  0  0  0  0  0  0  0
   57.6540   29.8070   45.0110 C   0  0  0  0  0  0  0  0  0  0  0  0
   56.6880   29.9630   43.9510 C   0  0  0  0  0  0  0  0  0  0  0  0
   55.9100   30.0900   43.1030 N   0  0  0  0  0  0  0  0  0  0  0  0
   58.0540   30.8730   45.8560 C   0  0  0  0  0  0  0  0  0  0  0  0
   57.5810   32.1950   45.7480 C   0  0  0  0  0  0  0  0  0  0  0  0
   56.7510   32.5310   44.8610 O   0  0  0  0  0  0  0  0  0  0  0  0
   58.0230   33.1370   46.6130 N   0  0  0  0  0  0  0  0  0  0  0  0
   58.9150   32.8530   47.5930 C   0  0  0  0  0  0  0  0  0  0  0  0
   59.2810   33.7800   48.3650 O   0  0  0  0  0  0  0  0  0  0  0  0
   59.4050   31.5800   47.7400 N   0  0  0  0  0  0  0  0  0  0  0  0
   60.3960   31.2890   48.7990 C   0  0  0  0  0  0  0  0  0  0  0  0
   61.6770   32.0430   48.5500 C   0  0  0  0  0  0  0  0  0  0  0  0
   62.0790   33.0700   49.4220 C   0  0  0  0  0  0  0  0  0  0  0  0
   63.2550   33.7860   49.1760 C   0  0  0  0  0  0  0  0  0  0  0  0
   64.0370   33.4870   48.0570 C   0  0  0  0  0  0  0  0  0  0  0  0
   63.6440   32.4690   47.1830 C   0  0  0  0  0  0  0  0  0  0  0  0
   62.4690   31.7490   47.4260 C   0  0  0  0  0  0  0  0  0  0  0  0
   58.9910   30.5910   46.8790 C   0  0  0  0  0  0  0  0  0  0  0  0
   59.4730   29.3260   47.0050 N   0  0  0  0  0  0  0  0  0  0  0  0
   57.2190   26.2320   46.2210 N   0  0  0  0  0  0  0  0  0  0  0  0
   51.0033   24.4843   43.3176 H   0  0  0  0  0  0  0  0  0  0  0  0
   50.6135   24.0705   45.1360 H   0  0  0  0  0  0  0  0  0  0  0  0
   53.3267   23.9080   43.6755 H   0  0  0  0  0  0  0  0  0  0  0  0
   52.6076   23.9280   46.6434 H   0  0  0  0  0  0  0  0  0  0  0  0
   52.9003   22.2876   45.9575 H   0  0  0  0  0  0  0  0  0  0  0  0
   55.1740   22.7280   45.9370 H   0  0  0  0  0  0  0  0  0  0  0  0
   60.0584   26.8592   47.3777 H   0  0  0  0  0  0  0  0  0  0  0  0
   60.3963   26.7472   45.6101 H   0  0  0  0  0  0  0  0  0  0  0  0
   59.9829   31.5902   49.7730 H   0  0  0  0  0  0  0  0  0  0  0  0
   60.6131   30.2107   48.7942 H   0  0  0  0  0  0  0  0  0  0  0  0
   61.4654   33.3117   50.3024 H   0  0  0  0  0  0  0  0  0  0  0  0
   63.5650   34.5859   49.8645 H   0  0  0  0  0  0  0  0  0  0  0  0
   64.9608   34.0521   47.8641 H   0  0  0  0  0  0  0  0  0  0  0  0
   64.2598   32.2335   46.3024 H   0  0  0  0  0  0  0  0  0  0  0  0
   62.1636   30.9496   46.7348 H   0  0  0  0  0  0  0  0  0  0  0  0
  1  2  2  0
  2  3  1  0
  3  4  1  0
  4  5  1  0
  5  6  2  0
  5  7  1  0
  7  8  2  0
  8  9  1  0
  9 10  1  0
  9 11  2  0
 11 12  1  0
 12 13  1  0
 13 14  2  0
 14 15  1  0
 15 16  1  0
 16 17  3  0
 15 18  2  0
 18 19  1  0
 19 20  2  0
 19 21  1  0
 21 22  1  0
 22 23  2  0
 22 24  1  0
 24 25  1  0
 25 26  1  0
 26 27  2  0
 27 28  1  0
 28 29  2  0
 29 30  1  0
 30 31  2  0
 24 32  1  0
 32 33  2  0
 11 34  1  0
 34  7  1  0
 33 13  1  0
 32 18  1  0
 31 26  1  0
  1 35  1  0
  1 36  1  0
  2 37  1  0
  3 38  1  0
  3 39  1  0
  4 40  1  0
 12 41  1  0
 12 42  1  0
 25 43  1  0
 25 44  1  0
 27 45  1  0
 28 46  1  0
 29 47  1  0
 30 48  1  0
 31 49  1  0
M  CHG  3  10  -1  21  -1  34  -1
M  END
>  <UniqueID>  (80) 
76

>  <SMILES>  (80) 
C=CCNC(=O)c1nc([O-])c(Cc2nc(C#N)c3c(=O)[n-]c(=O)n(Cc4ccccc4)c3n2)[n-]1

>  <Energy>  (80) 
85.36506647976464

>  <Genealogy>  (80) 
C=CCNC(=O)c1nc([O-])c(Cc2nc(C#N)c3c(=O)[n-]c(=O)n(Cc4ccccc4)c3n2)[n-]1 (protonated)
C=CCNC(=O)c1nc([O-])c(Cc2nc(C#N)c3c(=O)[n-]c(=O)n(Cc4ccccc4)c3n2)[n-]1 (3D coordinates assigned)
C=CCNC(=O)c1nc([O-])c(Cc2nc(C#N)c3c(=O)[n-]c(=O)n(Cc4ccccc4)c3n2)[n-]1 (optimized conformer: 85.36506647976464 kcal/mol)

>  <smiles>  (80) 
C=CCNC(=O)c1nc(O)c(Cc2nc(C#N)c3c(=O)[nH]c(=O)n(Cc4ccccc4)c3n2)[nH]1

>  <score_type>  (80) 
oracle

>  <origin>  (80) 
adg

>  <m_score__min__energy>  (80) 
-14.01

>  <m_primary>  (80) 
energy

$$$$
80:0
     RDKit          3D

 37 38  0  0  0  0  0  0  0  0999 V2000
   55.3120   29.4900   44.1110 C   0  0  0  0  0  0  0  0  0  0  0  0
   56.3550   30.5450   43.9480 C   0  0  0  0  0  0  0  0  0  0  0  0
   56.6470   31.0260   42.7120 N   0  0  0  0  0  0  0  0  0  0  0  0
   57.6040   31.9740   42.5390 C   0  0  0  0  0  0  0  0  0  0  0  0
   57.8490   32.4140   41.3850 O   0  0  0  0  0  0  0  0  0  0  0  0
   58.3100   32.4590   43.6410 C   0  0  0  0  0  0  0  0  0  0  0  0
   58.0170   31.9360   44.9050 C   0  0  0  0  0  0  0  0  0  0  0  0
   58.6910   32.4680   46.1360 C   0  0  0  0  0  0  0  0  0  0  0  0
   59.6750   31.5000   46.6080 N   0  0  0  0  0  0  0  0  0  0  0  0
   59.3540   30.5510   47.6310 C   0  0  0  0  0  0  0  0  0  0  0  0
   58.5230   30.8440   48.5320 O   0  0  0  0  0  0  0  0  0  0  0  0
   59.9350   29.1720   47.5760 C   0  0  0  0  0  0  0  0  0  0  0  0
   59.2680   28.3970   46.4730 C   0  0  0  0  0  0  0  0  0  0  0  0
   59.5760   28.6640   45.1290 C   0  0  0  0  0  0  0  0  0  0  0  0
   58.9090   27.9860   44.1060 C   0  0  0  0  0  0  0  0  0  0  0  0
   57.9190   27.0480   44.4140 C   0  0  0  0  0  0  0  0  0  0  0  0
   57.5860   26.7900   45.7500 C   0  0  0  0  0  0  0  0  0  0  0  0
   56.3340   25.6170   46.1420 S   0  0  0  0  0  0  0  0  0  0  0  0
   54.7690   26.3370   45.9890 N   0  0  0  0  0  0  0  0  0  0  0  0
   56.4370   24.4470   45.2040 O   0  0  0  0  0  0  0  0  0  0  0  0
   56.5100   25.1410   47.5570 O   0  0  0  0  0  0  0  0  0  0  0  0
   58.2640   27.4620   46.7770 C   0  0  0  0  0  0  0  0  0  0  0  0
   57.0420   30.9960   45.0310 N   0  0  0  0  0  0  0  0  0  0  0  0
   55.1354   29.3114   45.1819 H   0  0  0  0  0  0  0  0  0  0  0  0
   54.3772   29.8220   43.6356 H   0  0  0  0  0  0  0  0  0  0  0  0
   55.6546   28.5591   43.6356 H   0  0  0  0  0  0  0  0  0  0  0  0
   59.0797   33.2352   43.5183 H   0  0  0  0  0  0  0  0  0  0  0  0
   59.1947   33.4164   45.8975 H   0  0  0  0  0  0  0  0  0  0  0  0
   57.9394   32.6394   46.9207 H   0  0  0  0  0  0  0  0  0  0  0  0
   60.5330   31.3470   46.0300 H   0  0  0  0  0  0  0  0  0  0  0  0
   61.0154   29.2357   47.3794 H   0  0  0  0  0  0  0  0  0  0  0  0
   59.7695   28.6631   48.5371 H   0  0  0  0  0  0  0  0  0  0  0  0
   60.3455   29.4099   44.8810 H   0  0  0  0  0  0  0  0  0  0  0  0
   59.1632   28.1905   43.0555 H   0  0  0  0  0  0  0  0  0  0  0  0
   57.4006   26.5116   43.6056 H   0  0  0  0  0  0  0  0  0  0  0  0
   54.6890   27.0600   46.7370 H   0  0  0  0  0  0  0  0  0  0  0  0
   58.0085   27.2561   47.8269 H   0  0  0  0  0  0  0  0  0  0  0  0
  1  2  1  0
  2  3  2  0
  3  4  1  0
  4  5  2  0
  4  6  1  0
  6  7  2  0
  7  8  1  0
  8  9  1  0
  9 10  1  0
 10 11  2  0
 10 12  1  0
 12 13  1  0
 13 14  2  0
 14 15  1  0
 15 16  2  0
 16 17  1  0
 17 18  1  0
 18 19  1  0
 18 20  2  0
 18 21  2  0
 17 22  2  0
  7 23  1  0
 23  2  1  0
 22 13  1  0
  1 24  1  0
  1 25  1  0
  1 26  1  0
  6 27  1  0
  8 28  1  0
  8 29  1  0
  9 30  1  0
 12 31  1  0
 12 32  1  0
 14 33  1  0
 15 34  1  0
 16 35  1  0
 19 36  1  0
 22 37  1  0
M  CHG  2  19  -1  23  -1
M  END
>  <UniqueID>  (81) 
77

>  <SMILES>  (81) 
Cc1nc(=O)cc(CNC(=O)Cc2cccc(S([NH-])(=O)=O)c2)[n-]1

>  <Energy>  (81) 
27.4816163991045

>  <Genealogy>  (81) 
Cc1nc(=O)cc(CNC(=O)Cc2cccc(S([NH-])(=O)=O)c2)[n-]1 (protonated)
Cc1nc(=O)cc(CNC(=O)Cc2cccc(S([NH-])(=O)=O)c2)[n-]1 (3D coordinates assigned)
Cc1nc(=O)cc(CNC(=O)Cc2cccc(S([NH-])(=O)=O)c2)[n-]1 (optimized conformer: 27.4816163991045 kcal/mol)

>  <smiles>  (81) 
Cc1nc(=O)cc(CNC(=O)Cc2cccc(S(N)(=O)=O)c2)[nH]1

>  <score_type>  (81) 
oracle

>  <origin>  (81) 
adg

>  <m_score__min__energy>  (81) 
-11.609999999999999

>  <m_primary>  (81) 
energy

$$$$
81:0
     RDKit          3D

 20 21  0  0  0  0  0  0  0  0999 V2000
   56.8630   24.7820   47.0080 O   0  0  0  0  0  0  0  0  0  0  0  0
   55.8440   25.1610   46.3740 C   0  0  0  0  0  0  0  0  0  0  0  0
   55.7250   26.5480   46.0220 N   0  0  0  0  0  0  0  0  0  0  0  0
   56.7090   27.3690   45.7890 C   0  0  0  0  0  0  0  0  0  0  0  0
   57.9960   27.0220   46.0760 N   0  0  0  0  0  0  0  0  0  0  0  0
   59.0420   27.8530   45.8220 C   0  0  0  0  0  0  0  0  0  0  0  0
   58.8140   29.1030   45.2420 C   0  0  0  0  0  0  0  0  0  0  0  0
   57.5090   29.4810   44.9270 C   0  0  0  0  0  0  0  0  0  0  0  0
   56.4470   28.6120   45.1950 C   0  0  0  0  0  0  0  0  0  0  0  0
   55.1470   28.9890   44.8740 O   0  0  0  0  0  0  0  0  0  0  0  0
   54.8490   24.1590   45.9450 C   0  0  0  0  0  0  0  0  0  0  0  0
   55.0850   22.8140   45.7580 C   0  0  0  0  0  0  0  0  0  0  0  0
   53.9550   22.2250   45.3260 N   0  0  0  0  0  0  0  0  0  0  0  0
   53.0750   23.2440   45.2600 C   0  0  0  0  0  0  0  0  0  0  0  0
   51.8840   23.0890   44.8880 O   0  0  0  0  0  0  0  0  0  0  0  0
   53.5740   24.4430   45.6210 N   0  0  0  0  0  0  0  0  0  0  0  0
   60.0666   27.5411   46.0730 H   0  0  0  0  0  0  0  0  0  0  0  0
   59.6546   29.7819   45.0359 H   0  0  0  0  0  0  0  0  0  0  0  0
   57.3155   30.4618   44.4682 H   0  0  0  0  0  0  0  0  0  0  0  0
   56.0436   22.3038   45.9338 H   0  0  0  0  0  0  0  0  0  0  0  0
  1  2  2  0
  2  3  1  0
  3  4  2  3
  4  5  1  0
  5  6  1  0
  6  7  2  0
  7  8  1  0
  8  9  2  0
  9 10  1  0
  2 11  1  0
 11 12  2  0
 12 13  1  0
 13 14  1  0
 14 15  2  0
 14 16  1  0
  9  4  1  0
 16 11  1  0
  6 17  1  0
  7 18  1  0
  8 19  1  0
 12 20  1  0
M  CHG  4   5  -1  10  -1  13  -1  16  -1
M  END
>  <UniqueID>  (82) 
78

>  <SMILES>  (82) 
O=C(N=c1[n-]cccc1[O-])c1c[n-]c(=O)[n-]1

>  <Energy>  (82) 
56.05278190996476

>  <Genealogy>  (82) 
O=C(N=c1[n-]cccc1[O-])c1c[n-]c(=O)[n-]1 (protonated)
O=C(N=c1[n-]cccc1[O-])c1c[n-]c(=O)[n-]1 (3D coordinates assigned)
O=C(N=c1[n-]cccc1[O-])c1c[n-]c(=O)[n-]1 (optimized conformer: 56.05278190996476 kcal/mol)

>  <smiles>  (82) 
O=C(N=c1[nH]cccc1O)c1c[nH]c(=O)[nH]1

>  <score_type>  (82) 
oracle

>  <origin>  (82) 
adg

>  <m_score__min__energy>  (82) 
-13.800000000000001

>  <m_primary>  (82) 
energy

$$$$
82:0
     RDKit          3D

 30 33  0  0  0  0  0  0  0  0999 V2000
   57.7600   28.1070   43.6230 C   0  0  0  0  0  0  0  0  0  0  0  0
   57.9260   29.1710   44.4040 C   0  0  0  0  0  0  0  0  0  0  0  0
   59.1400   29.5890   45.0660 C   0  0  0  0  0  0  0  0  0  0  0  0
   58.8770   30.7140   45.7380 C   0  0  0  0  0  0  0  0  0  0  0  0
   59.9130   31.4750   46.4580 C   0  0  0  0  0  0  0  0  0  0  0  0
   61.1410   30.9500   46.7260 N   0  0  0  0  0  0  0  0  0  0  0  0
   61.7570   31.9350   47.4050 C   0  0  0  0  0  0  0  0  0  0  0  0
   63.0470   31.9270   47.9330 C   0  0  0  0  0  0  0  0  0  0  0  0
   63.4790   33.0790   48.6170 C   0  0  0  0  0  0  0  0  0  0  0  0
   62.6220   34.1950   48.7570 C   0  0  0  0  0  0  0  0  0  0  0  0
   61.3250   34.1690   48.2110 C   0  0  0  0  0  0  0  0  0  0  0  0
   60.9310   33.0110   47.5410 C   0  0  0  0  0  0  0  0  0  0  0  0
   59.7670   32.7440   46.9350 N   0  0  0  0  0  0  0  0  0  0  0  0
   58.6640   33.6230   46.8990 N   0  0  0  0  0  0  0  0  0  0  0  0
   57.6260   33.5480   46.1180 C   0  0  0  0  0  0  0  0  0  0  0  0
   57.4420   32.5030   45.0610 C   0  0  0  0  0  0  0  0  0  0  0  0
   57.5070   31.1570   45.6500 N   0  0  1  0  0  0  0  0  0  0  0  0
   56.9480   30.1660   44.7760 C   0  0  0  0  0  0  0  0  0  0  0  0
   55.7340   30.1430   44.4340 O   0  0  0  0  0  0  0  0  0  0  0  0
   56.7760   27.9003   43.1770 H   0  0  0  0  0  0  0  0  0  0  0  0
   58.6068   27.4339   43.4232 H   0  0  0  0  0  0  0  0  0  0  0  0
   60.1102   29.0723   45.0244 H   0  0  0  0  0  0  0  0  0  0  0  0
   63.7038   31.0520   47.8193 H   0  0  0  0  0  0  0  0  0  0  0  0
   64.4914   33.1113   49.0460 H   0  0  0  0  0  0  0  0  0  0  0  0
   62.9709   35.0884   49.2956 H   0  0  0  0  0  0  0  0  0  0  0  0
   60.6474   35.0299   48.3091 H   0  0  0  0  0  0  0  0  0  0  0  0
   56.8330   34.3001   46.2420 H   0  0  0  0  0  0  0  0  0  0  0  0
   56.4615   32.6415   44.5820 H   0  0  0  0  0  0  0  0  0  0  0  0
   58.2456   32.6046   44.3168 H   0  0  0  0  0  0  0  0  0  0  0  0
   57.0400   31.1000   46.5860 H   0  0  0  0  0  0  0  0  0  0  0  0
  1  2  2  0
  2  3  1  0
  3  4  2  0
  4  5  1  0
  5  6  2  0
  6  7  1  0
  7  8  2  0
  8  9  1  0
  9 10  2  0
 10 11  1  0
 11 12  2  0
 12 13  1  0
 13 14  1  0
 14 15  2  0
 15 16  1  0
 16 17  1  0
 17 18  1  0
 18 19  2  0
 18  2  1  0
 17  4  1  0
 13  5  1  0
 12  7  1  0
  1 20  1  0
  1 21  1  0
  3 22  1  0
  8 23  1  0
  9 24  1  0
 10 25  1  0
 11 26  1  0
 15 27  1  0
 16 28  1  0
 16 29  1  0
 17 30  1  1
M  CHG  1  17   1
M  END
>  <UniqueID>  (83) 
79

>  <SMILES>  (83) 
C=C1C=C2c3nc4ccccc4n3N=CC[N@H+]2C1=O

>  <Energy>  (83) 
97.99748517650539

>  <Genealogy>  (83) 
C=C1C=C2c3nc4ccccc4n3N=CC[NH+]2C1=O (protonated)
C=C1C=C2c3nc4ccccc4n3N=CC[N@H+]2C1=O (chirality)
C=C1C=C2c3nc4ccccc4n3N=CC[N@H+]2C1=O (3D coordinates assigned)
C=C1C=C2c3nc4ccccc4n3N=CC[N@H+]2C1=O (nonaromatic ring conformer: 97.99748517650539 kcal/mol)

>  <smiles>  (83) 
C=C1C=C2c3nc4ccccc4n3N=CCN2C1=O

>  <score_type>  (83) 
oracle

>  <origin>  (83) 
adg

>  <m_score__min__energy>  (83) 
-4.7699999999999996

>  <m_primary>  (83) 
energy

$$$$
83:0
     RDKit          3D

 30 31  0  0  0  0  0  0  0  0999 V2000
   60.0090   31.7800   46.6690 C   0  0  0  0  0  0  0  0  0  0  0  0
   58.7360   32.4160   46.3190 N   0  0  0  0  0  0  0  0  0  0  0  0
   58.2700   33.5780   47.0820 C   0  0  0  0  0  0  0  0  0  0  0  0
   57.9130   31.9130   45.2430 C   0  0  0  0  0  0  0  0  0  0  0  0
   56.7950   32.4510   45.0160 O   0  0  0  0  0  0  0  0  0  0  0  0
   58.3340   30.7530   44.3680 C   0  0  0  0  0  0  0  0  0  0  0  0
   57.8040   29.4590   44.8720 N   0  0  0  0  0  0  0  0  0  0  0  0
   56.4360   29.2870   44.8650 C   0  0  0  0  0  0  0  0  0  0  0  0
   55.6710   30.2130   44.4810 O   0  0  0  0  0  0  0  0  0  0  0  0
   55.8860   28.1500   45.2630 O   0  0  0  0  0  0  0  0  0  0  0  0
   56.5940   27.1280   45.7050 C   0  0  0  0  0  0  0  0  0  0  0  0
   55.9950   26.0750   46.0550 O   0  0  0  0  0  0  0  0  0  0  0  0
   57.9850   27.2260   45.7900 C   0  0  0  0  0  0  0  0  0  0  0  0
   58.7620   26.1590   46.2800 C   0  0  0  0  0  0  0  0  0  0  0  0
   60.1440   26.2830   46.3770 C   0  0  0  0  0  0  0  0  0  0  0  0
   60.7640   27.4660   45.9950 C   0  0  0  0  0  0  0  0  0  0  0  0
   60.0110   28.5350   45.5030 C   0  0  0  0  0  0  0  0  0  0  0  0
   58.5980   28.4390   45.3750 C   0  0  0  0  0  0  0  0  0  0  0  0
   60.1059   31.7316   47.7636 H   0  0  0  0  0  0  0  0  0  0  0  0
   60.0369   30.7621   46.2530 H   0  0  0  0  0  0  0  0  0  0  0  0
   60.8397   32.3690   46.2530 H   0  0  0  0  0  0  0  0  0  0  0  0
   58.3544   33.3677   48.1584 H   0  0  0  0  0  0  0  0  0  0  0  0
   58.8866   34.4534   46.8300 H   0  0  0  0  0  0  0  0  0  0  0  0
   57.2194   33.7848   46.8300 H   0  0  0  0  0  0  0  0  0  0  0  0
   57.9550   30.9201   43.3490 H   0  0  0  0  0  0  0  0  0  0  0  0
   59.4326   30.6990   44.3780 H   0  0  0  0  0  0  0  0  0  0  0  0
   58.2737   25.2226   46.5877 H   0  0  0  0  0  0  0  0  0  0  0  0
   60.7461   25.4442   46.7563 H   0  0  0  0  0  0  0  0  0  0  0  0
   61.8565   27.5618   46.0806 H   0  0  0  0  0  0  0  0  0  0  0  0
   60.5191   29.4656   45.2100 H   0  0  0  0  0  0  0  0  0  0  0  0
  1  2  1  0
  2  3  1  0
  2  4  1  0
  4  5  2  0
  4  6  1  0
  6  7  1  0
  7  8  1  0
  8  9  2  0
  8 10  1  0
 10 11  1  0
 11 12  2  0
 11 13  1  0
 13 14  2  0
 14 15  1  0
 15 16  2  0
 16 17  1  0
 17 18  2  0
 18  7  1  0
 18 13  1  0
  1 19  1  0
  1 20  1  0
  1 21  1  0
  3 22  1  0
  3 23  1  0
  3 24  1  0
  6 25  1  0
  6 26  1  0
 14 27  1  0
 15 28  1  0
 16 29  1  0
 17 30  1  0
M  END
>  <UniqueID>  (84) 
80

>  <SMILES>  (84) 
CN(C)C(=O)Cn1c(=O)oc(=O)c2ccccc21

>  <Energy>  (84) 
43.218119232985465

>  <Genealogy>  (84) 
CN(C)C(=O)Cn1c(=O)oc(=O)c2ccccc21 (3D coordinates assigned)
CN(C)C(=O)Cn1c(=O)oc(=O)c2ccccc21 (optimized conformer: 43.218119232985465 kcal/mol)

>  <smiles>  (84) 
CN(C)C(=O)Cn1c(=O)oc(=O)c2ccccc21

>  <score_type>  (84) 
oracle

>  <origin>  (84) 
adg

>  <m_score__min__energy>  (84) 
-6.4800000000000004

>  <m_primary>  (84) 
energy

$$$$
84:0
     RDKit          3D

 59 62  0  0  0  0  0  0  0  0999 V2000
   50.5742   22.5436   45.4390 H   0  0  0  0  0  0  0  0  0  0  0  0
   51.6360   22.7200   45.6660 C   0  0  0  0  0  0  0  0  0  0  0  0
   52.4910   23.0800   44.6760 N   0  0  0  0  0  0  0  0  0  0  0  0
   53.8150   23.3170   44.8950 C   0  0  0  0  0  0  0  0  0  0  0  0
   54.5380   23.6820   43.8720 N   0  0  0  0  0  0  0  0  0  0  0  0
   55.8110   23.1730   43.4550 C   0  0  0  0  0  0  0  0  0  0  0  0
   55.8960   21.9830   43.0510 O   0  0  0  0  0  0  0  0  0  0  0  0
   56.9910   24.0830   43.3130 C   0  0  0  0  0  0  0  0  0  0  0  0
   57.3580   24.3660   44.3106 H   0  0  0  0  0  0  0  0  0  0  0  0
   57.7896   23.5646   42.7620 H   0  0  0  0  0  0  0  0  0  0  0  0
   56.6926   24.9871   42.7620 H   0  0  0  0  0  0  0  0  0  0  0  0
   54.3390   23.1390   46.2040 C   0  0  0  0  0  0  0  0  0  0  0  0
   55.7160   23.2260   46.4510 O   0  0  0  0  0  0  0  0  0  0  0  0
   56.4580   24.4160   46.5060 C   0  0  0  0  0  0  0  0  0  0  0  0
   57.7260   24.4720   47.1110 C   0  0  0  0  0  0  0  0  0  0  0  0
   58.1665   23.5623   47.5451 H   0  0  0  0  0  0  0  0  0  0  0  0
   58.4290   25.6790   47.1630 C   0  0  0  0  0  0  0  0  0  0  0  0
   59.4169   25.7163   47.6453 H   0  0  0  0  0  0  0  0  0  0  0  0
   57.8820   26.8420   46.6040 C   0  0  0  0  0  0  0  0  0  0  0  0
   58.6210   28.0720   46.6670 N   0  0  0  0  0  0  0  0  0  0  0  0
   59.3710   28.1590   47.3910 H   0  0  0  0  0  0  0  0  0  0  0  0
   58.5420   29.0810   45.6480 C   0  0  0  0  0  0  0  0  0  0  0  0
   58.0120   28.8140   44.5370 O   0  0  0  0  0  0  0  0  0  0  0  0
   59.0860   30.4310   45.8890 C   0  0  0  0  0  0  0  0  0  0  0  0
   58.6790   31.6410   45.3340 C   0  0  0  0  0  0  0  0  0  0  0  0
   57.6220   31.8230   44.2800 C   0  0  0  0  0  0  0  0  0  0  0  0
   56.6479   31.9907   44.7627 H   0  0  0  0  0  0  0  0  0  0  0  0
   57.8749   32.6908   43.6531 H   0  0  0  0  0  0  0  0  0  0  0  0
   57.5700   30.9206   43.6531 H   0  0  0  0  0  0  0  0  0  0  0  0
   59.3880   32.6490   45.9060 N   0  0  0  0  0  0  0  0  0  0  0  0
   59.3350   34.0690   45.5310 C   0  0  0  0  0  0  0  0  0  0  0  0
   58.6172   34.2000   44.7078 H   0  0  0  0  0  0  0  0  0  0  0  0
   60.3373   34.3920   45.2132 H   0  0  0  0  0  0  0  0  0  0  0  0
   58.8960   34.9160   46.7200 C   0  0  0  0  0  0  0  0  0  0  0  0
   59.1626   34.4016   47.6550 H   0  0  0  0  0  0  0  0  0  0  0  0
   59.4017   35.8921   46.6815 H   0  0  0  0  0  0  0  0  0  0  0  0
   57.8069   35.0655   46.6815 H   0  0  0  0  0  0  0  0  0  0  0  0
   60.2480   32.1200   46.7730 N   0  0  0  0  0  0  0  0  0  0  0  0
   61.1920   32.8470   47.5740 C   0  0  0  0  0  0  0  0  0  0  0  0
   60.8120   33.3450   48.8300 C   0  0  0  0  0  0  0  0  0  0  0  0
   59.7926   33.1697   49.2044 H   0  0  0  0  0  0  0  0  0  0  0  0
   61.7270   34.0640   49.6070 C   0  0  0  0  0  0  0  0  0  0  0  0
   61.4287   34.4450   50.5949 H   0  0  0  0  0  0  0  0  0  0  0  0
   63.0210   34.2990   49.1290 C   0  0  0  0  0  0  0  0  0  0  0  0
   63.7403   34.8615   49.7423 H   0  0  0  0  0  0  0  0  0  0  0  0
   63.4000   33.8180   47.8700 C   0  0  0  0  0  0  0  0  0  0  0  0
   64.4157   34.0068   47.4922 H   0  0  0  0  0  0  0  0  0  0  0  0
   62.4870   33.0970   47.0920 C   0  0  0  0  0  0  0  0  0  0  0  0
   62.7846   32.7252   46.1004 H   0  0  0  0  0  0  0  0  0  0  0  0
   60.0820   30.7850   46.7780 C   0  0  0  0  0  0  0  0  0  0  0  0
   60.7230   29.9960   47.5220 O   0  0  0  0  0  0  0  0  0  0  0  0
   56.5960   26.7940   46.0340 C   0  0  0  0  0  0  0  0  0  0  0  0
   56.0040   27.9200   45.5620 F   0  0  0  0  0  0  0  0  0  0  0  0
   55.8930   25.5860   45.9900 C   0  0  0  0  0  0  0  0  0  0  0  0
   54.8872   25.5561   45.5457 H   0  0  0  0  0  0  0  0  0  0  0  0
   53.4570   22.7740   47.2350 C   0  0  0  0  0  0  0  0  0  0  0  0
   53.8373   22.6451   48.2591 H   0  0  0  0  0  0  0  0  0  0  0  0
   52.1030   22.5740   46.9690 C   0  0  0  0  0  0  0  0  0  0  0  0
   51.4112   22.3037   47.7804 H   0  0  0  0  0  0  0  0  0  0  0  0
  1  2  1  0
  2  3  1  0
  3  4  1  0
  4  5  2  0
  5  6  1  0
  6  7  2  0
  6  8  1  0
  8  9  1  0
  8 10  1  0
  8 11  1  0
  4 12  1  0
 12 13  1  0
 13 14  1  0
 14 15  2  0
 15 16  1  0
 15 17  1  0
 17 18  1  0
 17 19  2  0
 19 20  1  0
 20 21  1  0
 20 22  1  0
 22 23  2  0
 22 24  1  0
 24 25  2  0
 25 26  1  0
 26 27  1  0
 26 28  1  0
 26 29  1  0
 25 30  1  0
 30 31  1  0
 31 32  1  0
 31 33  1  0
 31 34  1  0
 34 35  1  0
 34 36  1  0
 34 37  1  0
 30 38  1  0
 38 39  1  0
 39 40  2  0
 40 41  1  0
 40 42  1  0
 42 43  1  0
 42 44  2  0
 44 45  1  0
 44 46  1  0
 46 47  1  0
 46 48  2  0
 48 49  1  0
 38 50  1  0
 50 51  2  0
 19 52  1  0
 52 53  1  0
 52 54  2  0
 54 55  1  0
 12 56  2  0
 56 57  1  0
 56 58  1  0
 58 59  1  0
 58  2  2  0
 54 14  1  0
 50 24  1  0
 48 39  1  0
M  CHG  1   3  -1
M  END
>  <UniqueID>  (85) 
81

>  <SMILES>  (85) 
CCn1c(C)c(C(=O)Nc2ccc(Oc3ccc[n-]/c3=N/C(C)=O)cc2F)c(=O)n1-c1ccccc1

>  <Energy>  (85) 
125.38268485433959

>  <Genealogy>  (85) 
CCn1c(C)c(C(=O)Nc2ccc(Oc3ccc[n-]c3=NC(C)=O)cc2F)c(=O)n1-c1ccccc1 (protonated)
CCn1c(C)c(C(=O)Nc2ccc(Oc3ccc[n-]/c3=N/C(C)=O)cc2F)c(=O)n1-c1ccccc1 (cis-trans isomerization)
CCn1c(C)c(C(=O)Nc2ccc(Oc3ccc[n-]/c3=N/C(C)=O)cc2F)c(=O)n1-c1ccccc1 (3D coordinates assigned)
CCn1c(C)c(C(=O)Nc2ccc(Oc3ccc[n-]/c3=N/C(C)=O)cc2F)c(=O)n1-c1ccccc1 (optimized conformer: 125.38268485433959 kcal/mol)

>  <smiles>  (85) 
CCn1c(C)c(C(=O)Nc2ccc(Oc3ccc[nH]c3=NC(C)=O)cc2F)c(=O)n1-c1ccccc1

>  <score_type>  (85) 
oracle

>  <origin>  (85) 
adg

>  <m_score__min__energy>  (85) 
-10.44

>  <m_primary>  (85) 
energy

$$$$
85:0
     RDKit          3D

 45 46  0  0  0  0  0  0  0  0999 V2000
   63.3970   33.7880   46.7630 C   0  0  0  0  0  0  0  0  0  0  0  0
   62.7030   32.4810   47.1380 C   0  0  0  0  0  0  0  0  0  0  0  0
   62.2150   32.4590   48.5930 C   0  0  0  0  0  0  0  0  0  0  0  0
   61.3410   33.9440   49.0920 S   0  0  0  0  0  0  0  0  0  0  0  0
   60.4670   33.6940   50.2880 O   0  0  0  0  0  0  0  0  0  0  0  0
   62.3760   34.9580   49.4900 O   0  0  0  0  0  0  0  0  0  0  0  0
   60.4240   34.6130   47.7720 N   0  0  0  0  0  0  0  0  0  0  0  0
   59.4600   33.9030   46.9730 C   0  0  0  0  0  0  0  0  0  0  0  0
   59.2830   34.1480   45.6020 C   0  0  0  0  0  0  0  0  0  0  0  0
   58.3300   33.4330   44.8740 C   0  0  0  0  0  0  0  0  0  0  0  0
   57.5480   32.4560   45.5210 C   0  0  0  0  0  0  0  0  0  0  0  0
   56.6460   31.7430   44.9060 N   0  0  0  0  0  0  0  0  0  0  0  0
   56.7810   30.9410   43.7220 C   0  0  0  0  0  0  0  0  0  0  0  0
   57.5230   31.3050   42.7690 O   0  0  0  0  0  0  0  0  0  0  0  0
   55.9580   29.7050   43.5750 C   0  0  0  0  0  0  0  0  0  0  0  0
   55.7110   29.1300   44.8940 N   0  0  0  0  0  0  0  0  0  0  0  0
   56.9340   27.9550   45.2660 S   0  0  0  0  0  0  0  0  0  0  0  0
   57.4120   27.2990   44.0000 O   0  0  0  0  0  0  0  0  0  0  0  0
   56.3450   26.8970   46.1550 O   0  0  0  0  0  0  0  0  0  0  0  0
   58.2860   28.7190   46.1000 C   0  0  0  0  0  0  0  0  0  0  0  0
   59.2500   29.4420   45.3810 C   0  0  0  0  0  0  0  0  0  0  0  0
   60.3100   30.0580   46.0530 C   0  0  0  0  0  0  0  0  0  0  0  0
   60.4110   29.9570   47.4440 C   0  0  0  0  0  0  0  0  0  0  0  0
   59.4500   29.2420   48.1640 C   0  0  0  0  0  0  0  0  0  0  0  0
   58.3880   28.6260   47.4950 C   0  0  0  0  0  0  0  0  0  0  0  0
   57.7650   32.2140   46.8420 N   0  0  0  0  0  0  0  0  0  0  0  0
   58.6840   32.9010   47.5690 C   0  0  0  0  0  0  0  0  0  0  0  0
   63.6832   34.3269   47.6782 H   0  0  0  0  0  0  0  0  0  0  0  0
   64.2972   33.5682   46.1703 H   0  0  0  0  0  0  0  0  0  0  0  0
   62.7107   34.4106   46.1703 H   0  0  0  0  0  0  0  0  0  0  0  0
   61.8363   32.3412   46.4751 H   0  0  0  0  0  0  0  0  0  0  0  0
   63.4399   31.6722   47.0251 H   0  0  0  0  0  0  0  0  0  0  0  0
   61.5382   31.6009   48.7179 H   0  0  0  0  0  0  0  0  0  0  0  0
   63.1104   32.3882   49.2280 H   0  0  0  0  0  0  0  0  0  0  0  0
   60.7130   35.5680   47.4590 H   0  0  0  0  0  0  0  0  0  0  0  0
   59.8988   34.9077   45.0984 H   0  0  0  0  0  0  0  0  0  0  0  0
   58.1905   33.6315   43.8011 H   0  0  0  0  0  0  0  0  0  0  0  0
   54.9991   29.9566   43.0984 H   0  0  0  0  0  0  0  0  0  0  0  0
   56.4956   28.9765   42.9503 H   0  0  0  0  0  0  0  0  0  0  0  0
   59.1716   29.5242   44.2869 H   0  0  0  0  0  0  0  0  0  0  0  0
   61.0654   30.6227   45.4869 H   0  0  0  0  0  0  0  0  0  0  0  0
   61.2467   30.4402   47.9714 H   0  0  0  0  0  0  0  0  0  0  0  0
   59.5292   29.1638   49.2584 H   0  0  0  0  0  0  0  0  0  0  0  0
   57.6308   28.0672   48.0646 H   0  0  0  0  0  0  0  0  0  0  0  0
   58.8199   32.6682   48.6355 H   0  0  0  0  0  0  0  0  0  0  0  0
  1  2  1  0
  2  3  1  0
  3  4  1  0
  4  5  2  0
  4  6  2  0
  4  7  1  0
  7  8  1  0
  8  9  1  0
  9 10  2  0
 10 11  1  0
 11 12  2  3
 12 13  1  0
 13 14  2  0
 13 15  1  0
 15 16  1  0
 16 17  1  0
 17 18  2  0
 17 19  2  0
 17 20  1  0
 20 21  2  0
 21 22  1  0
 22 23  2  0
 23 24  1  0
 24 25  2  0
 11 26  1  0
 26 27  1  0
 27  8  2  0
 25 20  1  0
  1 28  1  0
  1 29  1  0
  1 30  1  0
  2 31  1  0
  2 32  1  0
  3 33  1  0
  3 34  1  0
  7 35  1  0
  9 36  1  0
 10 37  1  0
 15 38  1  0
 15 39  1  0
 21 40  1  0
 22 41  1  0
 23 42  1  0
 24 43  1  0
 25 44  1  0
 27 45  1  0
M  CHG  2  16  -1  26  -1
M  END
>  <UniqueID>  (86) 
82

>  <SMILES>  (86) 
CCCS(=O)(=O)Nc1ccc(=NC(=O)C[N-]S(=O)(=O)c2ccccc2)[n-]c1

>  <Energy>  (86) 
47.7284726308959

>  <Genealogy>  (86) 
CCCS(=O)(=O)Nc1ccc(=NC(=O)C[N-]S(=O)(=O)c2ccccc2)[n-]c1 (protonated)
CCCS(=O)(=O)Nc1ccc(=NC(=O)C[N-]S(=O)(=O)c2ccccc2)[n-]c1 (3D coordinates assigned)
CCCS(=O)(=O)Nc1ccc(=NC(=O)C[N-]S(=O)(=O)c2ccccc2)[n-]c1 (optimized conformer: 47.7284726308959 kcal/mol)

>  <smiles>  (86) 
CCCS(=O)(=O)Nc1ccc(=NC(=O)CNS(=O)(=O)c2ccccc2)[nH]c1

>  <score_type>  (86) 
oracle

>  <origin>  (86) 
adg

>  <m_score__min__energy>  (86) 
-11.789999999999999

>  <m_primary>  (86) 
energy

$$$$
86:0
     RDKit          3D

 54 57  0  0  0  0  0  0  0  0999 V2000
   56.6170   30.5650   42.8900 C   0  0  0  0  0  0  0  0  0  0  0  0
   57.4010   31.4450   43.8250 C   0  0  0  0  0  0  0  0  0  0  0  0
   57.8140   32.7190   43.4060 C   0  0  0  0  0  0  0  0  0  0  0  0
   58.5350   33.5480   44.2680 C   0  0  0  0  0  0  0  0  0  0  0  0
   58.8410   33.1210   45.5640 C   0  0  0  0  0  0  0  0  0  0  0  0
   59.7230   34.1860   46.6630 S   0  0  0  0  0  0  0  0  0  0  0  0
   60.0380   35.4760   45.9560 O   0  0  0  0  0  0  0  0  0  0  0  0
   58.8500   34.5040   47.8450 O   0  0  0  0  0  0  0  0  0  0  0  0
   61.2070   33.4560   47.2260 N   0  0  0  0  0  0  0  0  0  0  0  0
   61.4520   33.8090   48.6340 C   0  0  0  0  0  0  0  0  0  0  0  0
   62.8590   33.3530   49.0710 C   0  0  0  0  0  0  0  0  0  0  0  0
   63.4480   32.5050   48.1040 O   0  0  0  0  0  0  0  0  0  0  0  0
   63.6400   33.2170   46.8940 C   0  0  0  0  0  0  0  0  0  0  0  0
   62.3400   33.8810   46.3920 C   0  0  0  0  0  0  0  0  0  0  0  0
   58.4330   31.8500   45.9900 C   0  0  0  0  0  0  0  0  0  0  0  0
   57.7270   30.9970   45.1210 C   0  0  0  0  0  0  0  0  0  0  0  0
   57.2810   29.7000   45.5470 N   0  0  0  0  0  0  0  0  0  0  0  0
   58.0750   28.6760   46.1600 C   0  0  0  0  0  0  0  0  0  0  0  0
   59.3160   28.6030   45.9480 O   0  0  0  0  0  0  0  0  0  0  0  0
   57.4050   27.6180   46.9770 C   0  0  0  0  0  0  0  0  0  0  0  0
   57.1940   26.4190   46.1650 N   0  0  0  0  0  0  0  0  0  0  0  0
   56.0030   25.9290   45.7550 C   0  0  0  0  0  0  0  0  0  0  0  0
   54.7780   26.5410   45.9990 O   0  0  0  0  0  0  0  0  0  0  0  0
   56.1770   24.7390   45.0790 C   0  0  0  0  0  0  0  0  0  0  0  0
   57.5240   24.4780   45.0860 C   0  0  0  0  0  0  0  0  0  0  0  0
   58.1250   25.5200   45.7670 C   0  0  0  0  0  0  0  0  0  0  0  0
   59.4930   25.6180   46.0170 O   0  0  0  0  0  0  0  0  0  0  0  0
   58.1420   23.2480   44.5080 C   0  0  0  0  0  0  0  0  0  0  0  0
   57.1140   22.3770   43.8120 C   0  0  0  0  0  0  0  0  0  0  0  0
   55.7870   22.6380   43.7990 C   0  0  0  0  0  0  0  0  0  0  0  0
   55.1500   23.8320   44.4810 C   0  0  0  0  0  0  0  0  0  0  0  0
   55.9972   29.8693   43.4746 H   0  0  0  0  0  0  0  0  0  0  0  0
   55.9697   31.1886   42.2559 H   0  0  0  0  0  0  0  0  0  0  0  0
   57.3109   29.9937   42.2559 H   0  0  0  0  0  0  0  0  0  0  0  0
   57.5682   33.0670   42.3918 H   0  0  0  0  0  0  0  0  0  0  0  0
   58.8635   34.5406   43.9263 H   0  0  0  0  0  0  0  0  0  0  0  0
   61.3725   34.8997   48.7524 H   0  0  0  0  0  0  0  0  0  0  0  0
   60.7041   33.3026   49.2619 H   0  0  0  0  0  0  0  0  0  0  0  0
   63.4967   34.2389   49.2067 H   0  0  0  0  0  0  0  0  0  0  0  0
   62.7654   32.7928   50.0130 H   0  0  0  0  0  0  0  0  0  0  0  0
   64.3954   33.9992   47.0599 H   0  0  0  0  0  0  0  0  0  0  0  0
   63.9675   32.4978   46.1288 H   0  0  0  0  0  0  0  0  0  0  0  0
   62.4440   34.9747   46.4478 H   0  0  0  0  0  0  0  0  0  0  0  0
   62.1571   33.5776   45.3506 H   0  0  0  0  0  0  0  0  0  0  0  0
   58.6663   31.5161   47.0118 H   0  0  0  0  0  0  0  0  0  0  0  0
   58.0398   27.3670   47.8396 H   0  0  0  0  0  0  0  0  0  0  0  0
   56.4321   27.9934   47.3272 H   0  0  0  0  0  0  0  0  0  0  0  0
   59.9680   26.5110   46.0410 H   0  0  0  0  0  0  0  0  0  0  0  0
   58.9104   23.5442   43.7788 H   0  0  0  0  0  0  0  0  0  0  0  0
   58.5826   22.6666   45.3313 H   0  0  0  0  0  0  0  0  0  0  0  0
   57.4691   21.4786   43.2859 H   0  0  0  0  0  0  0  0  0  0  0  0
   55.1293   21.9403   43.2599 H   0  0  0  0  0  0  0  0  0  0  0  0
   54.5646   24.3957   43.7397 H   0  0  0  0  0  0  0  0  0  0  0  0
   54.5059   23.4609   45.2918 H   0  0  0  0  0  0  0  0  0  0  0  0
  1  2  1  0
  2  3  2  0
  3  4  1  0
  4  5  2  0
  5  6  1  0
  6  7  2  0
  6  8  2  0
  6  9  1  0
  9 10  1  0
 10 11  1  0
 11 12  1  0
 12 13  1  0
 13 14  1  0
  5 15  1  0
 15 16  2  0
 16 17  1  0
 17 18  1  0
 18 19  2  0
 18 20  1  0
 20 21  1  0
 21 22  1  0
 22 23  1  0
 22 24  2  0
 24 25  1  0
 25 26  2  0
 26 27  1  0
 25 28  1  0
 28 29  1  0
 29 30  2  0
 30 31  1  0
 16  2  1  0
 26 21  1  0
 14  9  1  0
 31 24  1  0
  1 32  1  0
  1 33  1  0
  1 34  1  0
  3 35  1  0
  4 36  1  0
 10 37  1  0
 10 38  1  0
 11 39  1  0
 11 40  1  0
 13 41  1  0
 13 42  1  0
 14 43  1  0
 14 44  1  0
 15 45  1  0
 20 46  1  0
 20 47  1  0
 27 48  1  0
 28 49  1  0
 28 50  1  0
 29 51  1  0
 30 52  1  0
 31 53  1  0
 31 54  1  0
M  CHG  2  17  -1  23  -1
M  END
>  <UniqueID>  (87) 
83

>  <SMILES>  (87) 
Cc1ccc(S(=O)(=O)N2CCOCC2)cc1[N-]C(=O)Cn1c([O-])c2c(c1O)CC=CC2

>  <Energy>  (87) 
96.66643528280214

>  <Genealogy>  (87) 
Cc1ccc(S(=O)(=O)N2CCOCC2)cc1[N-]C(=O)Cn1c([O-])c2c(c1O)CC=CC2 (protonated)
Cc1ccc(S(=O)(=O)N2CCOCC2)cc1[N-]C(=O)Cn1c([O-])c2c(c1O)CC=CC2 (3D coordinates assigned)
Cc1ccc(S(=O)(=O)N2CCOCC2)cc1[N-]C(=O)Cn1c([O-])c2c(c1O)CC=CC2 (nonaromatic ring conformer: 96.66643528280214 kcal/mol)

>  <smiles>  (87) 
Cc1ccc(S(=O)(=O)N2CCOCC2)cc1NC(=O)Cn1c(O)c2c(c1O)CC=CC2

>  <score_type>  (87) 
oracle

>  <origin>  (87) 
adg

>  <m_score__min__energy>  (87) 
-14.18

>  <m_primary>  (87) 
energy

$$$$
87:0
     RDKit          3D

 59 62  0  0  1  0  0  0  0  0999 V2000
   58.8860   33.0840   50.2860 C   0  0  0  0  0  0  0  0  0  0  0  0
   59.3580   32.9230   48.9590 O   0  0  0  0  0  0  0  0  0  0  0  0
   60.6710   33.0810   48.5970 C   0  0  0  0  0  0  0  0  0  0  0  0
   61.6800   32.8170   49.4950 C   0  0  0  0  0  0  0  0  0  0  0  0
   63.0240   32.9570   49.1880 C   0  0  0  0  0  0  0  0  0  0  0  0
   64.0720   32.7010   50.0850 N   0  0  0  0  0  0  0  0  0  0  0  0
   65.4460   33.0920   49.7230 C   0  0  0  0  0  0  0  0  0  0  0  0
   66.3360   32.1890   50.5830 C   0  0  0  0  0  0  0  0  0  0  0  0
   65.8630   30.8850   50.5810 O   0  0  0  0  0  0  0  0  0  0  0  0
   64.6720   30.7400   51.2870 C   0  0  0  0  0  0  0  0  0  0  0  0
   63.9310   32.0700   51.3780 C   0  0  0  0  0  0  0  0  0  0  0  0
   63.3050   33.3850   47.9000 C   0  0  0  0  0  0  0  0  0  0  0  0
   62.2880   33.6550   46.9800 C   0  0  0  0  0  0  0  0  0  0  0  0
   60.9600   33.5040   47.3230 C   0  0  0  0  0  0  0  0  0  0  0  0
   57.7750   29.8020   46.6720 N   0  0  0  0  0  0  0  0  0  0  0  0
   58.0880   30.8550   45.9770 C   0  0  0  0  0  0  0  0  0  0  0  0
   58.7640   33.0800   44.5480 N   0  0  0  0  0  0  0  0  0  0  0  0
   57.9780   32.1350   43.9960 C   0  0  0  0  0  0  0  0  0  0  0  0
   57.6150   30.9940   44.6910 C   0  0  0  0  0  0  0  0  0  0  0  0
   56.7540   29.9510   44.0940 C   0  0  0  0  0  0  0  0  0  0  0  0
   57.5410   29.0080   43.4860 F   0  0  0  0  0  0  0  0  0  0  0  0
   55.9020   30.5180   43.1720 F   0  0  0  0  0  0  0  0  0  0  0  0
   55.9610   29.4240   45.0930 F   0  0  0  0  0  0  0  0  0  0  0  0
   59.2110   32.9040   45.8240 C   0  0  0  0  0  0  0  0  0  0  0  0
   59.9550   33.7890   46.3580 N   0  0  0  0  0  0  0  0  0  0  0  0
   58.4820   28.5770   46.4580 C   0  0  0  0  0  0  0  0  0  0  0  0
   58.0100   27.6100   45.5980 C   0  0  0  0  0  0  0  0  0  0  0  0
   58.6820   26.4120   45.3760 C   0  0  0  0  0  0  0  0  0  0  0  0
   59.8740   26.2150   46.0640 C   0  0  0  0  0  0  0  0  0  0  0  0
   60.3620   27.1780   46.9320 C   0  0  0  0  0  0  0  0  0  0  0  0
   59.6660   28.3660   47.1330 C   0  0  0  0  0  0  0  0  0  0  0  0
   60.2630   29.6010   48.2260 S   0  0  0  0  0  0  0  0  0  0  0  0
   58.9620   30.3590   49.0500 N   0  0  0  0  0  0  0  0  0  0  0  0
   61.1360   28.9180   49.2270 O   0  0  0  0  0  0  0  0  0  0  0  0
   61.1100   30.6030   47.5140 O   0  0  0  0  0  0  0  0  0  0  0  0
   58.8830   31.8100   46.5380 N   0  0  0  0  0  0  0  0  0  0  0  0
   59.6827   32.8122   50.9941 H   0  0  0  0  0  0  0  0  0  0  0  0
   58.5945   34.1324   50.4468 H   0  0  0  0  0  0  0  0  0  0  0  0
   58.0146   32.4323   50.4468 H   0  0  0  0  0  0  0  0  0  0  0  0
   61.4063   32.4785   50.5052 H   0  0  0  0  0  0  0  0  0  0  0  0
   65.6318   32.9170   48.6530 H   0  0  0  0  0  0  0  0  0  0  0  0
   65.6385   34.1608   49.8977 H   0  0  0  0  0  0  0  0  0  0  0  0
   67.3594   32.2020   50.1799 H   0  0  0  0  0  0  0  0  0  0  0  0
   66.3266   32.5658   51.6164 H   0  0  0  0  0  0  0  0  0  0  0  0
   64.0344   30.0064   50.7718 H   0  0  0  0  0  0  0  0  0  0  0  0
   64.9054   30.3960   52.3054 H   0  0  0  0  0  0  0  0  0  0  0  0
   62.8683   31.8994   51.6049 H   0  0  0  0  0  0  0  0  0  0  0  0
   64.3410   32.7027   52.1790 H   0  0  0  0  0  0  0  0  0  0  0  0
   64.3537   33.5153   47.5945 H   0  0  0  0  0  0  0  0  0  0  0  0
   62.5504   33.9931   45.9667 H   0  0  0  0  0  0  0  0  0  0  0  0
   59.0400   33.9370   44.0320 H   0  0  0  0  0  0  0  0  0  0  0  0
   57.6155   32.2736   42.9668 H   0  0  0  0  0  0  0  0  0  0  0  0
   57.0647   27.7920   45.0658 H   0  0  0  0  0  0  0  0  0  0  0  0
   58.2868   25.6527   44.6852 H   0  0  0  0  0  0  0  0  0  0  0  0
   60.4373   25.2817   45.9171 H   0  0  0  0  0  0  0  0  0  0  0  0
   61.3072   27.0022   47.4666 H   0  0  0  0  0  0  0  0  0  0  0  0
   59.3250   30.9000   49.8590 H   0  0  0  0  0  0  0  0  0  0  0  0
   58.4720   30.9560   48.3550 H   0  0  0  0  0  0  0  0  0  0  0  0
   59.2320   31.6720   47.5340 H   0  0  0  0  0  0  0  0  0  0  0  0
  1  2  1  0
  2  3  1  0
  3  4  2  0
  4  5  1  0
  5  6  1  0
  6  7  1  0
  7  8  1  0
  8  9  1  0
  9 10  1  0
 10 11  1  0
  5 12  2  0
 12 13  1  0
 13 14  2  0
 14 15  1  0
 15 16  2  0
 16 17  1  0
 17 18  1  0
 18 19  2  0
 19 20  1  0
 20 21  1  0
 20 22  1  0
 20 23  1  0
 19 24  1  0
 24 25  2  0
 25 26  1  0
 26 27  2  0
 27 28  1  0
 28 29  2  0
 29 30  1  0
 30 31  2  0
 31 32  1  0
 32 33  1  0
 32 34  2  0
 32 35  2  0
 24 36  1  0
 14  3  1  0
 36 16  1  0
 11  6  1  0
 31 26  1  0
  1 37  1  0
  1 38  1  0
  1 39  1  0
  4 40  1  0
  7 41  1  0
  7 42  1  0
  8 43  1  0
  8 44  1  0
 10 45  1  0
 10 46  1  0
 11 47  1  0
 11 48  1  0
 12 49  1  0
 13 50  1  0
 17 51  1  0
 18 52  1  0
 27 53  1  0
 28 54  1  0
 29 55  1  0
 30 56  1  0
 33 57  1  0
 33 58  1  0
 36 59  1  0
M  END
>  <smiles>  (88) 
COc1cc(N2CCOCC2)ccc1N=c1[nH]cc(C(F)(F)F)c(=Nc2ccccc2S(N)(=O)=O)[nH]1

>  <score_type>  (88) 
oracle

>  <origin>  (88) 
adg

>  <m_score__min__energy>  (88) 
-9.3499999999999996

>  <m_primary>  (88) 
energy

$$$$
88:0
     RDKit          3D

 53 56  0  0  0  0  0  0  0  0999 V2000
   63.2880   33.4100   47.5550 C   0  0  0  0  0  0  0  0  0  0  0  0
   63.0710   32.7220   48.8220 N   0  0  0  0  0  0  0  0  0  0  0  0
   63.5900   33.1270   49.9700 N   0  0  0  0  0  0  0  0  0  0  0  0
   63.2440   32.2300   50.9150 C   0  0  0  0  0  0  0  0  0  0  0  0
   62.4890   31.2220   50.3470 C   0  0  0  0  0  0  0  0  0  0  0  0
   62.4000   31.5660   49.0140 C   0  0  0  0  0  0  0  0  0  0  0  0
   61.7000   30.7950   47.9700 C   0  0  0  0  0  0  0  0  0  0  0  0
   62.1360   30.8180   46.7890 O   0  0  0  0  0  0  0  0  0  0  0  0
   60.5080   30.0390   48.2710 N   0  0  0  0  0  0  0  0  0  0  0  0
   60.2980   28.6970   47.6910 C   0  0  0  0  0  0  0  0  0  0  0  0
   59.0280   28.6380   46.8660 C   0  0  0  0  0  0  0  0  0  0  0  0
   58.1340   27.5670   47.0440 C   0  0  0  0  0  0  0  0  0  0  0  0
   57.0070   27.4220   46.2170 C   0  0  0  0  0  0  0  0  0  0  0  0
   56.0920   26.2710   46.3850 C   0  0  0  0  0  0  0  0  0  0  0  0
   56.4950   25.2060   46.9240 O   0  0  0  0  0  0  0  0  0  0  0  0
   54.7750   26.3480   45.9470 O   0  0  0  0  0  0  0  0  0  0  0  0
   56.7670   28.3770   45.2170 C   0  0  0  0  0  0  0  0  0  0  0  0
   57.6350   29.4550   45.0470 C   0  0  0  0  0  0  0  0  0  0  0  0
   58.7690   29.5920   45.8590 C   0  0  0  0  0  0  0  0  0  0  0  0
   59.6290   30.7240   45.6850 N   0  0  0  0  0  0  0  0  0  0  0  0
   59.2310   32.0800   45.9550 C   0  0  0  0  0  0  0  0  0  0  0  0
   60.2050   33.0200   46.3280 C   0  0  0  0  0  0  0  0  0  0  0  0
   59.8520   34.3530   46.5650 C   0  0  0  0  0  0  0  0  0  0  0  0
   58.5230   34.7600   46.4270 C   0  0  0  0  0  0  0  0  0  0  0  0
   57.5460   33.8360   46.0510 C   0  0  0  0  0  0  0  0  0  0  0  0
   57.8950   32.5030   45.8130 C   0  0  0  0  0  0  0  0  0  0  0  0
   59.6180   30.5360   49.2940 C   0  0  0  0  0  0  0  0  0  0  0  0
   59.2300   29.7020   50.3590 C   0  0  0  0  0  0  0  0  0  0  0  0
   58.3800   30.1800   51.3610 C   0  0  0  0  0  0  0  0  0  0  0  0
   57.9110   31.4940   51.3130 C   0  0  0  0  0  0  0  0  0  0  0  0
   58.2900   32.3320   50.2610 C   0  0  0  0  0  0  0  0  0  0  0  0
   59.1380   31.8570   49.2560 C   0  0  0  0  0  0  0  0  0  0  0  0
   63.6137   34.4425   47.7495 H   0  0  0  0  0  0  0  0  0  0  0  0
   64.0636   32.8831   46.9798 H   0  0  0  0  0  0  0  0  0  0  0  0
   62.3505   33.4234   46.9798 H   0  0  0  0  0  0  0  0  0  0  0  0
   63.5210   32.2914   51.9778 H   0  0  0  0  0  0  0  0  0  0  0  0
   62.0559   30.3424   50.8458 H   0  0  0  0  0  0  0  0  0  0  0  0
   61.1542   28.4487   47.0465 H   0  0  0  0  0  0  0  0  0  0  0  0
   60.2056   27.9761   48.5167 H   0  0  0  0  0  0  0  0  0  0  0  0
   58.3195   26.8326   47.8416 H   0  0  0  0  0  0  0  0  0  0  0  0
   55.8884   28.2745   44.5631 H   0  0  0  0  0  0  0  0  0  0  0  0
   57.4279   30.2043   44.2688 H   0  0  0  0  0  0  0  0  0  0  0  0
   60.5850   30.5430   45.3040 H   0  0  0  0  0  0  0  0  0  0  0  0
   61.2538   32.7060   46.4347 H   0  0  0  0  0  0  0  0  0  0  0  0
   60.6218   35.0811   46.8603 H   0  0  0  0  0  0  0  0  0  0  0  0
   58.2462   35.8080   46.6144 H   0  0  0  0  0  0  0  0  0  0  0  0
   56.4997   34.1573   45.9418 H   0  0  0  0  0  0  0  0  0  0  0  0
   57.1217   31.7805   45.5131 H   0  0  0  0  0  0  0  0  0  0  0  0
   59.5981   28.6664   50.4035 H   0  0  0  0  0  0  0  0  0  0  0  0
   58.0804   29.5198   52.1883 H   0  0  0  0  0  0  0  0  0  0  0  0
   57.2436   31.8694   52.1027 H   0  0  0  0  0  0  0  0  0  0  0  0
   57.9205   33.3674   50.2235 H   0  0  0  0  0  0  0  0  0  0  0  0
   59.4317   32.5213   48.4299 H   0  0  0  0  0  0  0  0  0  0  0  0
  1  2  1  0
  2  3  1  0
  3  4  2  0
  4  5  1  0
  5  6  2  0
  6  7  1  0
  7  8  2  0
  7  9  1  0
  9 10  1  0
 10 11  1  0
 11 12  2  0
 12 13  1  0
 13 14  1  0
 14 15  2  0
 14 16  1  0
 13 17  2  0
 17 18  1  0
 18 19  2  0
 19 20  1  0
 20 21  1  0
 21 22  2  0
 22 23  1  0
 23 24  2  0
 24 25  1  0
 25 26  2  0
  9 27  1  0
 27 28  2  0
 28 29  1  0
 29 30  2  0
 30 31  1  0
 31 32  2  0
  6  2  1  0
 19 11  1  0
 26 21  1  0
 32 27  1  0
  1 33  1  0
  1 34  1  0
  1 35  1  0
  4 36  1  0
  5 37  1  0
 10 38  1  0
 10 39  1  0
 12 40  1  0
 17 41  1  0
 18 42  1  0
 20 43  1  0
 22 44  1  0
 23 45  1  0
 24 46  1  0
 25 47  1  0
 26 48  1  0
 28 49  1  0
 29 50  1  0
 30 51  1  0
 31 52  1  0
 32 53  1  0
M  CHG  1  16  -1
M  END
>  <UniqueID>  (89) 
84

>  <SMILES>  (89) 
Cn1nccc1C(=O)N(Cc1cc(C(=O)[O-])ccc1Nc1ccccc1)c1ccccc1

>  <Energy>  (89) 
100.30136262923483

>  <Genealogy>  (89) 
Cn1nccc1C(=O)N(Cc1cc(C(=O)[O-])ccc1Nc1ccccc1)c1ccccc1 (protonated)
Cn1nccc1C(=O)N(Cc1cc(C(=O)[O-])ccc1Nc1ccccc1)c1ccccc1 (3D coordinates assigned)
Cn1nccc1C(=O)N(Cc1cc(C(=O)[O-])ccc1Nc1ccccc1)c1ccccc1 (optimized conformer: 100.30136262923483 kcal/mol)

>  <smiles>  (89) 
Cn1nccc1C(=O)N(Cc1cc(C(=O)O)ccc1Nc1ccccc1)c1ccccc1

>  <score_type>  (89) 
oracle

>  <origin>  (89) 
adg

>  <m_score__min__energy>  (89) 
-11.050000000000001

>  <m_primary>  (89) 
energy

$$$$
89:0
     RDKit          3D

 71 75  0  0  0  0  0  0  0  0999 V2000
   59.1429   34.8727   45.9634 H   0  0  0  0  0  0  0  0  0  0  0  0
   58.7620   33.9050   45.6050 C   0  0  0  0  0  0  0  0  0  0  0  0
   58.4250   33.7570   44.2900 N   0  0  0  0  0  0  0  0  0  0  0  0
   57.9570   32.5600   43.8580 C   0  0  0  0  0  0  0  0  0  0  0  0
   57.7850   31.4940   44.6980 C   0  0  0  0  0  0  0  0  0  0  0  0
   58.1190   31.5900   46.0480 C   0  0  0  0  0  0  0  0  0  0  0  0
   57.9920   30.7340   46.7271 H   0  0  0  0  0  0  0  0  0  0  0  0
   58.6260   32.8230   46.5150 C   0  0  0  0  0  0  0  0  0  0  0  0
   59.0140   32.9860   47.9350 C   0  0  0  0  0  0  0  0  0  0  0  0
   59.7960   34.0840   48.3330 C   0  0  0  0  0  0  0  0  0  0  0  0
   60.1545   34.8029   47.5815 H   0  0  0  0  0  0  0  0  0  0  0  0
   60.1190   34.2650   49.6780 C   0  0  0  0  0  0  0  0  0  0  0  0
   60.7403   35.1198   49.9833 H   0  0  0  0  0  0  0  0  0  0  0  0
   59.6550   33.3630   50.6370 C   0  0  0  0  0  0  0  0  0  0  0  0
   59.9061   33.5174   51.6968 H   0  0  0  0  0  0  0  0  0  0  0  0
   58.8740   32.2650   50.2630 C   0  0  0  0  0  0  0  0  0  0  0  0
   58.4340   31.3600   51.2880 N   0  0  0  0  0  0  0  0  0  0  0  0
   57.1380   31.2780   51.8990 C   0  0  0  0  0  0  0  0  0  0  0  0
   56.7140   32.2690   52.5450 O   0  0  0  0  0  0  0  0  0  0  0  0
   56.3110   30.1080   51.8090 N   0  0  0  0  0  0  0  0  0  0  0  0
   55.0280   30.0460   52.0190 C   0  0  0  0  0  0  0  0  0  0  0  0
   54.1600   30.8270   51.3170 N   0  0  0  0  0  0  0  0  0  0  0  0
   52.8160   30.7680   51.5150 C   0  0  0  0  0  0  0  0  0  0  0  0
   52.1445   31.4113   50.9274 H   0  0  0  0  0  0  0  0  0  0  0  0
   52.2890   29.8910   52.4640 C   0  0  0  0  0  0  0  0  0  0  0  0
   51.2025   29.8357   52.6269 H   0  0  0  0  0  0  0  0  0  0  0  0
   53.1560   29.0840   53.2050 C   0  0  0  0  0  0  0  0  0  0  0  0
   52.7548   28.3862   53.9547 H   0  0  0  0  0  0  0  0  0  0  0  0
   54.5330   29.1660   52.9910 C   0  0  0  0  0  0  0  0  0  0  0  0
   55.2238   28.5451   53.5803 H   0  0  0  0  0  0  0  0  0  0  0  0
   58.5810   32.0620   48.9020 C   0  0  0  0  0  0  0  0  0  0  0  0
   58.0094   31.1746   48.5925 H   0  0  0  0  0  0  0  0  0  0  0  0
   57.1990   30.4890   43.9420 C   0  0  0  0  0  0  0  0  0  0  0  0
   56.6280   29.2120   44.3990 C   0  0  0  0  0  0  0  0  0  0  0  0
   55.4700   29.1950   44.8930 O   0  0  0  0  0  0  0  0  0  0  0  0
   57.4040   28.0110   44.3490 N   0  0  0  0  0  0  0  0  0  0  0  0
   57.1300   26.8440   45.1780 C   0  0  0  0  0  0  0  0  0  0  0  0
   57.9040   26.0845   44.9933 H   0  0  0  0  0  0  0  0  0  0  0  0
   56.1337   26.4594   44.9145 H   0  0  0  0  0  0  0  0  0  0  0  0
   57.1290   27.2050   46.6800 C   0  0  0  0  0  0  0  0  0  0  0  0
   56.6908   26.3637   47.2369 H   0  0  0  0  0  0  0  0  0  0  0  0
   56.5466   28.1326   46.7822 H   0  0  0  0  0  0  0  0  0  0  0  0
   58.4730   27.4820   47.2380 N   0  0  0  0  0  0  0  0  0  0  0  0
   59.3690   26.3050   47.2370 C   0  0  0  0  0  0  0  0  0  0  0  0
   59.3321   25.8293   46.2459 H   0  0  0  0  0  0  0  0  0  0  0  0
   59.0263   25.6115   48.0190 H   0  0  0  0  0  0  0  0  0  0  0  0
   60.8300   26.7010   47.5490 C   0  0  0  0  0  0  0  0  0  0  0  0
   61.3808   26.8015   46.6021 H   0  0  0  0  0  0  0  0  0  0  0  0
   61.2676   25.9150   48.1820 H   0  0  0  0  0  0  0  0  0  0  0  0
   60.9110   27.9770   48.2850 N   0  0  0  0  0  0  0  0  0  0  0  0
   60.3810   27.8680   49.6660 C   0  0  0  0  0  0  0  0  0  0  0  0
   60.9558   27.1115   50.2204 H   0  0  0  0  0  0  0  0  0  0  0  0
   59.3224   27.5712   49.6294 H   0  0  0  0  0  0  0  0  0  0  0  0
   60.5060   29.2160   50.3680 C   0  0  0  0  0  0  0  0  0  0  0  0
   60.0785   29.1423   51.3788 H   0  0  0  0  0  0  0  0  0  0  0  0
   59.9625   29.9780   49.7902 H   0  0  0  0  0  0  0  0  0  0  0  0
   61.8650   29.5830   50.4600 O   0  0  0  0  0  0  0  0  0  0  0  0
   62.0540   30.8330   49.8370 C   0  0  0  0  0  0  0  0  0  0  0  0
   62.1717   31.6115   50.6052 H   0  0  0  0  0  0  0  0  0  0  0  0
   62.9570   30.7973   49.2098 H   0  0  0  0  0  0  0  0  0  0  0  0
   61.1809   31.0658   49.2098 H   0  0  0  0  0  0  0  0  0  0  0  0
   60.3120   29.0980   47.5170 C   0  0  0  0  0  0  0  0  0  0  0  0
   61.0867   29.5305   46.8668 H   0  0  0  0  0  0  0  0  0  0  0  0
   59.9314   29.8288   48.2457 H   0  0  0  0  0  0  0  0  0  0  0  0
   59.1220   28.6610   46.6390 C   0  0  0  0  0  0  0  0  0  0  0  0
   59.4839   28.4075   45.6316 H   0  0  0  0  0  0  0  0  0  0  0  0
   58.3952   29.4840   46.5727 H   0  0  0  0  0  0  0  0  0  0  0  0
   57.0670   31.0200   42.6590 C   0  0  0  0  0  0  0  0  0  0  0  0
   56.6402   30.4811   41.8003 H   0  0  0  0  0  0  0  0  0  0  0  0
   57.5350   32.2870   42.6150 N   0  0  0  0  0  0  0  0  0  0  0  0
   57.5190   32.9320   41.7950 H   0  0  0  0  0  0  0  0  0  0  0  0
  1  2  1  0
  2  3  2  0
  3  4  1  0
  4  5  2  0
  5  6  1  0
  6  7  1  0
  6  8  2  0
  8  9  1  0
  9 10  2  0
 10 11  1  0
 10 12  1  0
 12 13  1  0
 12 14  2  0
 14 15  1  0
 14 16  1  0
 16 17  1  0
 17 18  1  0
 18 19  2  0
 18 20  1  0
 20 21  2  0
 21 22  1  0
 22 23  1  0
 23 24  1  0
 23 25  2  0
 25 26  1  0
 25 27  1  0
 27 28  1  0
 27 29  2  0
 29 30  1  0
 16 31  2  0
 31 32  1  0
  5 33  1  0
 33 34  1  0
 34 35  2  0
 34 36  1  0
 36 37  1  0
 37 38  1  0
 37 39  1  0
 37 40  1  0
 40 41  1  0
 40 42  1  0
 40 43  1  0
 43 44  1  0
 44 45  1  0
 44 46  1  0
 44 47  1  0
 47 48  1  0
 47 49  1  0
 47 50  1  0
 50 51  1  0
 51 52  1  0
 51 53  1  0
 51 54  1  0
 54 55  1  0
 54 56  1  0
 54 57  1  0
 57 58  1  0
 58 59  1  0
 58 60  1  0
 58 61  1  0
 50 62  1  0
 62 63  1  0
 62 64  1  0
 62 65  1  0
 65 66  1  0
 65 67  1  0
 33 68  2  0
 68 69  1  0
 68 70  1  0
 70 71  1  0
  8  2  1  0
 31  9  1  0
 65 43  1  0
 70  4  1  0
 29 21  1  0
M  CHG  3  17  -1  22  -1  36  -1
M  END
>  <UniqueID>  (90) 
85

>  <SMILES>  (90) 
COCCN1CCN(CC[N-]C(=O)c2c[nH]c3ncc(-c4cccc([N-]C(=O)/N=c5/cccc[n-]5)c4)cc23)CC1

>  <Energy>  (90) 
139.58223855840768

>  <Genealogy>  (90) 
COCCN1CCN(CC[N-]C(=O)c2c[nH]c3ncc(-c4cccc([N-]C(=O)N=c5cccc[n-]5)c4)cc23)CC1 (protonated)
COCCN1CCN(CC[N-]C(=O)c2c[nH]c3ncc(-c4cccc([N-]C(=O)/N=c5/cccc[n-]5)c4)cc23)CC1 (cis-trans isomerization)
COCCN1CCN(CC[N-]C(=O)c2c[nH]c3ncc(-c4cccc([N-]C(=O)/N=c5/cccc[n-]5)c4)cc23)CC1 (3D coordinates assigned)
COCCN1CCN(CC[N-]C(=O)c2c[nH]c3ncc(-c4cccc([N-]C(=O)/N=c5/cccc[n-]5)c4)cc23)CC1 (nonaromatic ring conformer: 139.58223855840768 kcal/mol)

>  <smiles>  (90) 
COCCN1CCN(CCNC(=O)c2c[nH]c3ncc(-c4cccc(NC(=O)N=c5cccc[nH]5)c4)cc23)CC1

>  <score_type>  (90) 
oracle

>  <origin>  (90) 
adg

>  <m_score__min__energy>  (90) 
-12.56

>  <m_primary>  (90) 
energy

$$$$
90:0
     RDKit          3D

 42 44  0  0  0  0  0  0  0  0999 V2000
   59.6890   30.8480   48.6660 H   0  0  0  0  0  0  0  0  0  0  0  0
   59.3190   30.3160   49.4430 O   0  0  0  0  0  0  0  0  0  0  0  0
   58.6280   30.8930   50.5090 C   0  0  0  0  0  0  0  0  0  0  0  0
   57.8130   30.0590   51.2840 C   0  0  0  0  0  0  0  0  0  0  0  0
   57.7852   28.9794   51.0749 H   0  0  0  0  0  0  0  0  0  0  0  0
   57.0330   30.5830   52.3220 C   0  0  0  0  0  0  0  0  0  0  0  0
   55.9720   29.5410   53.2690 S   0  0  0  0  0  0  0  0  0  0  0  0
   56.8070   28.7850   54.2640 O   0  0  0  0  0  0  0  0  0  0  0  0
   55.2850   28.5460   52.3750 O   0  0  0  0  0  0  0  0  0  0  0  0
   54.7760   30.4710   54.1260 N   0  0  0  0  0  0  0  0  0  0  0  0
   53.4370   29.8930   53.9820 C   0  0  0  0  0  0  0  0  0  0  0  0
   53.5287   28.8044   53.8538 H   0  0  0  0  0  0  0  0  0  0  0  0
   52.8573   30.1314   54.8860 H   0  0  0  0  0  0  0  0  0  0  0  0
   52.7170   30.4680   52.7910 C   0  0  0  0  0  0  0  0  0  0  0  0
   52.9440   29.9430   51.5090 C   0  0  0  0  0  0  0  0  0  0  0  0
   53.6410   29.1024   51.3767 H   0  0  0  0  0  0  0  0  0  0  0  0
   52.2870   30.4850   50.3990 C   0  0  0  0  0  0  0  0  0  0  0  0
   52.4698   30.0714   49.3962 H   0  0  0  0  0  0  0  0  0  0  0  0
   51.3990   31.5510   50.5630 C   0  0  0  0  0  0  0  0  0  0  0  0
   50.8848   31.9771   49.6889 H   0  0  0  0  0  0  0  0  0  0  0  0
   51.1630   32.0770   51.8370 C   0  0  0  0  0  0  0  0  0  0  0  0
   50.2790   33.1370   51.9990 O   0  0  0  0  0  0  0  0  0  0  0  0
   51.8180   31.5360   52.9500 C   0  0  0  0  0  0  0  0  0  0  0  0
   51.6282   31.9484   53.9520 H   0  0  0  0  0  0  0  0  0  0  0  0
   57.0700   31.9540   52.5870 C   0  0  0  0  0  0  0  0  0  0  0  0
   56.4467   32.3730   53.3907 H   0  0  0  0  0  0  0  0  0  0  0  0
   57.8940   32.7950   51.8370 C   0  0  0  0  0  0  0  0  0  0  0  0
   57.9153   33.8729   52.0555 H   0  0  0  0  0  0  0  0  0  0  0  0
   58.6970   32.2780   50.8050 C   0  0  0  0  0  0  0  0  0  0  0  0
   59.6050   33.2000   50.0870 C   0  0  0  0  0  0  0  0  0  0  0  0
   59.9700   34.2760   50.6330 O   0  0  0  0  0  0  0  0  0  0  0  0
   60.0140   32.8810   48.7450 N   0  0  0  0  0  0  0  0  0  0  0  0
   59.2830   32.9280   47.6690 C   0  0  0  0  0  0  0  0  0  0  0  0
   58.8220   31.7920   47.0730 N   0  0  0  0  0  0  0  0  0  0  0  0
   58.0560   31.8290   45.9490 C   0  0  0  0  0  0  0  0  0  0  0  0
   57.7004   30.8921   45.4953 H   0  0  0  0  0  0  0  0  0  0  0  0
   57.7210   33.0550   45.3710 C   0  0  0  0  0  0  0  0  0  0  0  0
   57.1034   33.0915   44.4614 H   0  0  0  0  0  0  0  0  0  0  0  0
   58.1790   34.2330   45.9610 C   0  0  0  0  0  0  0  0  0  0  0  0
   57.9229   35.2066   45.5177 H   0  0  0  0  0  0  0  0  0  0  0  0
   58.9630   34.1750   47.1150 C   0  0  0  0  0  0  0  0  0  0  0  0
   59.3265   35.1005   47.5855 H   0  0  0  0  0  0  0  0  0  0  0  0
  1  2  1  0
  2  3  1  0
  3  4  2  0
  4  5  1  0
  4  6  1  0
  6  7  1  0
  7  8  2  0
  7  9  2  0
  7 10  1  0
 10 11  1  0
 11 12  1  0
 11 13  1  0
 11 14  1  0
 14 15  2  0
 15 16  1  0
 15 17  1  0
 17 18  1  0
 17 19  2  0
 19 20  1  0
 19 21  1  0
 21 22  1  0
 21 23  2  0
 23 24  1  0
  6 25  2  0
 25 26  1  0
 25 27  1  0
 27 28  1  0
 27 29  2  0
 29 30  1  0
 30 31  2  0
 30 32  1  0
 32 33  2  0
 33 34  1  0
 34 35  1  0
 35 36  1  0
 35 37  2  0
 37 38  1  0
 37 39  1  0
 39 40  1  0
 39 41  2  0
 41 42  1  0
 29  3  1  0
 41 33  1  0
 23 14  1  0
M  CHG  3  10  -1  22  -1  34  -1
M  END
>  <UniqueID>  (91) 
86

>  <SMILES>  (91) 
O=C(/N=c1/cccc[n-]1)c1ccc(S(=O)(=O)[N-]Cc2cccc([O-])c2)cc1O

>  <Energy>  (91) 
52.18998104509168

>  <Genealogy>  (91) 
O=C(N=c1cccc[n-]1)c1ccc(S(=O)(=O)[N-]Cc2cccc([O-])c2)cc1O (protonated)
O=C(/N=c1/cccc[n-]1)c1ccc(S(=O)(=O)[N-]Cc2cccc([O-])c2)cc1O (cis-trans isomerization)
O=C(/N=c1/cccc[n-]1)c1ccc(S(=O)(=O)[N-]Cc2cccc([O-])c2)cc1O (3D coordinates assigned)
O=C(/N=c1/cccc[n-]1)c1ccc(S(=O)(=O)[N-]Cc2cccc([O-])c2)cc1O (optimized conformer: 52.18998104509168 kcal/mol)

>  <smiles>  (91) 
O=C(N=c1cccc[nH]1)c1ccc(S(=O)(=O)NCc2cccc(O)c2)cc1O

>  <score_type>  (91) 
oracle

>  <origin>  (91) 
adg

>  <m_score__min__energy>  (91) 
-15.380000000000001

>  <m_primary>  (91) 
energy

$$$$
91:0
     RDKit          3D

 36 38  0  0  0  0  0  0  0  0999 V2000
   59.7671   35.8601   45.3082 H   0  0  0  0  0  0  0  0  0  0  0  0
   59.2810   34.8990   45.5320 C   0  0  0  0  0  0  0  0  0  0  0  0
   59.0110   34.5450   46.8570 C   0  0  0  0  0  0  0  0  0  0  0  0
   59.2818   35.2292   47.6747 H   0  0  0  0  0  0  0  0  0  0  0  0
   58.3970   33.3220   47.1440 C   0  0  0  0  0  0  0  0  0  0  0  0
   58.1420   32.9760   48.4300 F   0  0  0  0  0  0  0  0  0  0  0  0
   58.0480   32.4530   46.1040 C   0  0  0  0  0  0  0  0  0  0  0  0
   57.5714   31.4883   46.3327 H   0  0  0  0  0  0  0  0  0  0  0  0
   58.3040   32.8080   44.7690 C   0  0  0  0  0  0  0  0  0  0  0  0
   57.9620   31.8580   43.6540 C   0  0  0  0  0  0  0  0  0  0  0  0
   58.8545   31.6883   43.0337 H   0  0  0  0  0  0  0  0  0  0  0  0
   57.1590   32.2946   43.0420 H   0  0  0  0  0  0  0  0  0  0  0  0
   57.4950   30.5530   44.2170 C   0  0  0  0  0  0  0  0  0  0  0  0
   58.4960   29.3070   44.7500 S   0  0  0  0  0  0  0  0  0  0  0  0
   57.2050   28.3650   45.2700 C   0  0  0  0  0  0  0  0  0  0  0  0
   57.3600   27.1810   45.7880 N   0  0  0  0  0  0  0  0  0  0  0  0
   56.3590   26.1830   46.0430 C   0  0  0  0  0  0  0  0  0  0  0  0
   55.1380   26.4840   46.0710 O   0  0  0  0  0  0  0  0  0  0  0  0
   56.7440   24.8490   46.3920 N   0  0  0  0  0  0  0  0  0  0  0  0
   56.6910   23.6990   45.5360 C   0  0  0  0  0  0  0  0  0  0  0  0
   56.3650   22.4210   46.0290 C   0  0  0  0  0  0  0  0  0  0  0  0
   56.1275   22.2892   47.0949 H   0  0  0  0  0  0  0  0  0  0  0  0
   56.3420   21.3190   45.1690 C   0  0  0  0  0  0  0  0  0  0  0  0
   56.0731   20.3255   45.5571 H   0  0  0  0  0  0  0  0  0  0  0  0
   56.6600   21.4770   43.8170 C   0  0  0  0  0  0  0  0  0  0  0  0
   56.6400   20.4070   42.9860 F   0  0  0  0  0  0  0  0  0  0  0  0
   57.0110   22.7380   43.3260 C   0  0  0  0  0  0  0  0  0  0  0  0
   57.2695   22.8614   42.2639 H   0  0  0  0  0  0  0  0  0  0  0  0
   57.0340   23.8440   44.1840 C   0  0  0  0  0  0  0  0  0  0  0  0
   57.3800   25.0610   43.6960 F   0  0  0  0  0  0  0  0  0  0  0  0
   56.0160   28.9800   45.0450 N   0  0  0  0  0  0  0  0  0  0  0  0
   55.0720   28.5870   45.2490 H   0  0  0  0  0  0  0  0  0  0  0  0
   56.1730   30.2010   44.4710 C   0  0  0  0  0  0  0  0  0  0  0  0
   55.3248   30.8575   44.2270 H   0  0  0  0  0  0  0  0  0  0  0  0
   58.9340   34.0330   44.4910 C   0  0  0  0  0  0  0  0  0  0  0  0
   59.1550   34.3115   43.4500 H   0  0  0  0  0  0  0  0  0  0  0  0
  1  2  1  0
  2  3  2  0
  3  4  1  0
  3  5  1  0
  5  6  1  0
  5  7  2  0
  7  8  1  0
  7  9  1  0
  9 10  1  0
 10 11  1  0
 10 12  1  0
 10 13  1  0
 13 14  1  0
 14 15  1  0
 15 16  2  0
 16 17  1  0
 17 18  2  0
 17 19  1  0
 19 20  1  0
 20 21  2  0
 21 22  1  0
 21 23  1  0
 23 24  1  0
 23 25  2  0
 25 26  1  0
 25 27  1  0
 27 28  1  0
 27 29  2  0
 29 30  1  0
 15 31  1  0
 31 32  1  0
 31 33  1  0
 33 34  1  0
  9 35  2  0
 35 36  1  0
 35  2  1  0
 33 13  2  0
 29 20  1  0
M  CHG  1  19  -1
M  END
>  <UniqueID>  (92) 
87

>  <SMILES>  (92) 
O=C(/N=c1\[nH]cc(Cc2cccc(F)c2)s1)[N-]c1ccc(F)cc1F

>  <Energy>  (92) 
74.98313575564525

>  <Genealogy>  (92) 
O=C(N=c1[nH]cc(Cc2cccc(F)c2)s1)[N-]c1ccc(F)cc1F (protonated)
O=C(/N=c1\[nH]cc(Cc2cccc(F)c2)s1)[N-]c1ccc(F)cc1F (cis-trans isomerization)
O=C(/N=c1\[nH]cc(Cc2cccc(F)c2)s1)[N-]c1ccc(F)cc1F (3D coordinates assigned)
O=C(/N=c1\[nH]cc(Cc2cccc(F)c2)s1)[N-]c1ccc(F)cc1F (optimized conformer: 74.98313575564525 kcal/mol)

>  <smiles>  (92) 
O=C(N=c1[nH]cc(Cc2cccc(F)c2)s1)Nc1ccc(F)cc1F

>  <score_type>  (92) 
oracle

>  <origin>  (92) 
adg

>  <m_score__min__energy>  (92) 
-10.24

>  <m_primary>  (92) 
energy

$$$$
92:0
     RDKit          3D

 53 55  0  0  0  0  0  0  0  0999 V2000
   57.6790   32.6970   40.7470 C   0  0  0  0  0  0  0  0  0  0  0  0
   58.2080   32.9900   42.0380 O   0  0  0  0  0  0  0  0  0  0  0  0
   57.9270   32.2520   43.2000 C   0  0  0  0  0  0  0  0  0  0  0  0
   57.0600   31.1420   43.1890 C   0  0  0  0  0  0  0  0  0  0  0  0
   56.7640   30.4600   44.3800 C   0  0  0  0  0  0  0  0  0  0  0  0
   55.7840   29.3590   44.4040 C   0  0  0  0  0  0  0  0  0  0  0  0
   54.8170   29.3900   43.5990 O   0  0  0  0  0  0  0  0  0  0  0  0
   55.9420   28.2070   45.2480 N   0  0  0  0  0  0  0  0  0  0  0  0
   57.0410   27.2460   45.2370 C   0  0  0  0  0  0  0  0  0  0  0  0
   58.3160   27.8020   44.5730 C   0  0  0  0  0  0  0  0  0  0  0  0
   59.5200   27.7940   45.4310 N   0  0  0  0  0  0  0  0  0  0  0  0
   60.5980   28.7380   45.0790 C   0  0  0  0  0  0  0  0  0  0  0  0
   60.6630   29.9150   46.0530 C   0  0  0  0  0  0  0  0  0  0  0  0
   60.7460   29.4480   47.3810 O   0  0  0  0  0  0  0  0  0  0  0  0
   59.5380   28.8050   47.7240 C   0  0  0  0  0  0  0  0  0  0  0  0
   59.3200   27.5460   46.8730 C   0  0  0  0  0  0  0  0  0  0  0  0
   57.3980   30.8410   45.5710 C   0  0  0  0  0  0  0  0  0  0  0  0
   58.2680   31.9300   45.5850 C   0  0  0  0  0  0  0  0  0  0  0  0
   58.5120   32.6560   44.4120 C   0  0  0  0  0  0  0  0  0  0  0  0
   59.3350   33.8260   44.4570 N   0  0  0  0  0  0  0  0  0  0  0  0
   59.5360   34.7100   45.9340 S   0  0  0  0  0  0  0  0  0  0  0  0
   58.2570   34.6560   46.7210 O   0  0  0  0  0  0  0  0  0  0  0  0
   59.8470   36.1440   45.6130 O   0  0  0  0  0  0  0  0  0  0  0  0
   60.8360   34.0270   46.9110 C   0  0  0  0  0  0  0  0  0  0  0  0
   60.6300   33.7360   48.2670 C   0  0  0  0  0  0  0  0  0  0  0  0
   61.6840   33.2510   49.0510 C   0  0  0  0  0  0  0  0  0  0  0  0
   62.9470   33.0550   48.4820 C   0  0  0  0  0  0  0  0  0  0  0  0
   64.3880   32.4050   49.5540 Br  0  0  0  0  0  0  0  0  0  0  0  0
   63.1550   33.3410   47.1290 C   0  0  0  0  0  0  0  0  0  0  0  0
   62.1040   33.8270   46.3460 C   0  0  0  0  0  0  0  0  0  0  0  0
   56.7214   32.1666   40.8549 H   0  0  0  0  0  0  0  0  0  0  0  0
   57.5185   33.6348   40.1950 H   0  0  0  0  0  0  0  0  0  0  0  0
   58.3889   32.0635   40.1950 H   0  0  0  0  0  0  0  0  0  0  0  0
   56.6121   30.8075   42.2416 H   0  0  0  0  0  0  0  0  0  0  0  0
   57.2773   26.9708   46.2755 H   0  0  0  0  0  0  0  0  0  0  0  0
   56.7139   26.3765   44.6480 H   0  0  0  0  0  0  0  0  0  0  0  0
   58.5286   27.1952   43.6805 H   0  0  0  0  0  0  0  0  0  0  0  0
   58.1085   28.8575   44.3433 H   0  0  0  0  0  0  0  0  0  0  0  0
   61.5597   28.2044   45.1007 H   0  0  0  0  0  0  0  0  0  0  0  0
   60.3893   29.1362   44.0751 H   0  0  0  0  0  0  0  0  0  0  0  0
   61.5502   30.5246   45.8267 H   0  0  0  0  0  0  0  0  0  0  0  0
   59.7513   30.5207   45.9433 H   0  0  0  0  0  0  0  0  0  0  0  0
   59.5721   28.5193   48.7857 H   0  0  0  0  0  0  0  0  0  0  0  0
   58.7069   29.5009   47.5369 H   0  0  0  0  0  0  0  0  0  0  0  0
   60.0308   26.7726   47.1994 H   0  0  0  0  0  0  0  0  0  0  0  0
   58.2776   27.2244   47.0145 H   0  0  0  0  0  0  0  0  0  0  0  0
   57.2083   30.2788   46.4973 H   0  0  0  0  0  0  0  0  0  0  0  0
   58.7655   32.2208   46.5219 H   0  0  0  0  0  0  0  0  0  0  0  0
   59.5250   34.3380   43.5640 H   0  0  0  0  0  0  0  0  0  0  0  0
   59.6377   33.8891   48.7162 H   0  0  0  0  0  0  0  0  0  0  0  0
   61.5189   33.0240   50.1146 H   0  0  0  0  0  0  0  0  0  0  0  0
   64.1469   33.1833   46.6804 H   0  0  0  0  0  0  0  0  0  0  0  0
   62.2720   34.0534   45.2828 H   0  0  0  0  0  0  0  0  0  0  0  0
  1  2  1  0
  2  3  1  0
  3  4  2  0
  4  5  1  0
  5  6  1  0
  6  7  2  0
  6  8  1  0
  8  9  1  0
  9 10  1  0
 10 11  1  0
 11 12  1  0
 12 13  1  0
 13 14  1  0
 14 15  1  0
 15 16  1  0
  5 17  2  0
 17 18  1  0
 18 19  2  0
 19 20  1  0
 20 21  1  0
 21 22  2  0
 21 23  2  0
 21 24  1  0
 24 25  2  0
 25 26  1  0
 26 27  2  0
 27 28  1  0
 27 29  1  0
 29 30  2  0
 19  3  1  0
 30 24  1  0
 16 11  1  0
  1 31  1  0
  1 32  1  0
  1 33  1  0
  4 34  1  0
  9 35  1  0
  9 36  1  0
 10 37  1  0
 10 38  1  0
 12 39  1  0
 12 40  1  0
 13 41  1  0
 13 42  1  0
 15 43  1  0
 15 44  1  0
 16 45  1  0
 16 46  1  0
 17 47  1  0
 18 48  1  0
 20 49  1  0
 25 50  1  0
 26 51  1  0
 29 52  1  0
 30 53  1  0
M  CHG  1   8  -1
M  END
>  <UniqueID>  (93) 
88

>  <SMILES>  (93) 
COc1cc(C(=O)[N-]CCN2CCOCC2)ccc1NS(=O)(=O)c1ccc(Br)cc1

>  <Energy>  (93) 
72.1969857883321

>  <Genealogy>  (93) 
COc1cc(C(=O)[N-]CCN2CCOCC2)ccc1NS(=O)(=O)c1ccc(Br)cc1 (protonated)
COc1cc(C(=O)[N-]CCN2CCOCC2)ccc1NS(=O)(=O)c1ccc(Br)cc1 (3D coordinates assigned)
COc1cc(C(=O)[N-]CCN2CCOCC2)ccc1NS(=O)(=O)c1ccc(Br)cc1 (nonaromatic ring conformer: 72.1969857883321 kcal/mol)

>  <smiles>  (93) 
COc1cc(C(=O)NCCN2CCOCC2)ccc1NS(=O)(=O)c1ccc(Br)cc1

>  <score_type>  (93) 
oracle

>  <origin>  (93) 
adg

>  <m_score__min__energy>  (93) 
-10.98

>  <m_primary>  (93) 
energy

$$$$
93:0
     RDKit          3D

 40 42  0  0  0  0  0  0  0  0999 V2000
   67.6280   33.0780   50.5160 C   0  0  0  0  0  0  0  0  0  0  0  0
   66.3230   32.4520   50.1610 C   0  0  0  0  0  0  0  0  0  0  0  0
   66.1080   31.2490   50.4710 O   0  0  0  0  0  0  0  0  0  0  0  0
   65.3170   33.2410   49.5870 O   0  0  0  0  0  0  0  0  0  0  0  0
   64.1520   32.7550   48.9760 C   0  0  0  0  0  0  0  0  0  0  0  0
   63.7560   33.1520   47.6860 C   0  0  0  0  0  0  0  0  0  0  0  0
   62.5800   32.6500   47.1220 C   0  0  0  0  0  0  0  0  0  0  0  0
   61.7650   31.7570   47.8440 C   0  0  0  0  0  0  0  0  0  0  0  0
   60.5150   31.1990   47.2670 C   0  0  0  0  0  0  0  0  0  0  0  0
   59.4730   32.0220   46.8190 C   0  0  0  0  0  0  0  0  0  0  0  0
   58.3190   31.4470   46.2860 C   0  0  0  0  0  0  0  0  0  0  0  0
   57.3770   32.2100   45.9500 O   0  0  0  0  0  0  0  0  0  0  0  0
   58.2240   30.0390   46.1700 C   0  0  0  0  0  0  0  0  0  0  0  0
   57.1120   29.3430   45.6110 C   0  0  0  0  0  0  0  0  0  0  0  0
   56.0250   29.9720   44.9940 O   0  0  0  0  0  0  0  0  0  0  0  0
   57.0820   27.9430   45.6500 C   0  0  0  0  0  0  0  0  0  0  0  0
   58.1580   27.2070   46.1670 C   0  0  0  0  0  0  0  0  0  0  0  0
   58.1540   25.8050   46.2140 O   0  0  0  0  0  0  0  0  0  0  0  0
   57.0520   24.9870   45.9310 C   0  0  0  0  0  0  0  0  0  0  0  0
   57.2160   23.8420   44.9920 C   0  0  0  0  0  0  0  0  0  0  0  0
   55.9050   25.2640   46.3770 O   0  0  0  0  0  0  0  0  0  0  0  0
   59.2590   27.8840   46.6850 C   0  0  0  0  0  0  0  0  0  0  0  0
   59.3060   29.2800   46.6890 C   0  0  0  0  0  0  0  0  0  0  0  0
   60.3780   29.8790   47.1960 O   0  0  0  0  0  0  0  0  0  0  0  0
   62.1640   31.3700   49.1350 C   0  0  0  0  0  0  0  0  0  0  0  0
   63.3400   31.8740   49.6960 C   0  0  0  0  0  0  0  0  0  0  0  0
   67.7263   33.1252   51.6106 H   0  0  0  0  0  0  0  0  0  0  0  0
   68.4489   32.4756   50.0997 H   0  0  0  0  0  0  0  0  0  0  0  0
   67.6720   34.0952   50.0997 H   0  0  0  0  0  0  0  0  0  0  0  0
   64.3755   33.8616   47.1179 H   0  0  0  0  0  0  0  0  0  0  0  0
   62.2887   32.9549   46.1060 H   0  0  0  0  0  0  0  0  0  0  0  0
   59.5645   33.1161   46.8873 H   0  0  0  0  0  0  0  0  0  0  0  0
   55.6670   30.8820   45.2420 H   0  0  0  0  0  0  0  0  0  0  0  0
   56.1981   27.4111   45.2680 H   0  0  0  0  0  0  0  0  0  0  0  0
   57.3490   22.9132   45.5661 H   0  0  0  0  0  0  0  0  0  0  0  0
   56.3210   23.7564   44.3583 H   0  0  0  0  0  0  0  0  0  0  0  0
   58.0991   24.0111   44.3583 H   0  0  0  0  0  0  0  0  0  0  0  0
   60.1033   27.3116   47.0967 H   0  0  0  0  0  0  0  0  0  0  0  0
   61.5450   30.6643   49.7085 H   0  0  0  0  0  0  0  0  0  0  0  0
   63.6297   31.5747   50.7141 H   0  0  0  0  0  0  0  0  0  0  0  0
  1  2  1  0
  2  3  2  0
  2  4  1  0
  4  5  1  0
  5  6  2  0
  6  7  1  0
  7  8  2  0
  8  9  1  0
  9 10  2  0
 10 11  1  0
 11 12  2  0
 11 13  1  0
 13 14  2  0
 14 15  1  0
 14 16  1  0
 16 17  2  0
 17 18  1  0
 18 19  1  0
 19 20  1  0
 19 21  2  0
 17 22  1  0
 22 23  2  0
 23 24  1  0
  8 25  1  0
 25 26  2  0
 26  5  1  0
 24  9  1  0
 23 13  1  0
  1 27  1  0
  1 28  1  0
  1 29  1  0
  6 30  1  0
  7 31  1  0
 10 32  1  0
 15 33  1  0
 16 34  1  0
 20 35  1  0
 20 36  1  0
 20 37  1  0
 22 38  1  0
 25 39  1  0
 26 40  1  0
M  END
>  <UniqueID>  (94) 
89

>  <SMILES>  (94) 
CC(=O)Oc1ccc(-c2cc(=O)c3c(O)cc(OC(C)=O)cc3o2)cc1

>  <Energy>  (94) 
62.957601076673804

>  <Genealogy>  (94) 
CC(=O)Oc1ccc(-c2cc(=O)c3c(O)cc(OC(C)=O)cc3o2)cc1 (3D coordinates assigned)
CC(=O)Oc1ccc(-c2cc(=O)c3c(O)cc(OC(C)=O)cc3o2)cc1 (optimized conformer: 62.957601076673804 kcal/mol)

>  <smiles>  (94) 
CC(=O)Oc1ccc(-c2cc(=O)c3c(O)cc(OC(C)=O)cc3o2)cc1

>  <score_type>  (94) 
oracle

>  <origin>  (94) 
adg

>  <m_score__min__energy>  (94) 
-7.0899999999999999

>  <m_primary>  (94) 
energy

$$$$
94:0
     RDKit          3D

 41 43  0  0  0  0  0  0  0  0999 V2000
   59.0100   34.2840   46.5440 C   0  0  0  0  0  0  0  0  0  0  0  0
   58.4330   34.2560   44.8190 S   0  0  0  0  0  0  0  0  0  0  0  0
   58.1010   32.4930   44.8340 C   0  0  0  0  0  0  0  0  0  0  0  0
   57.4200   31.9010   43.7640 C   0  0  0  0  0  0  0  0  0  0  0  0
   57.1590   30.5280   43.7680 C   0  0  0  0  0  0  0  0  0  0  0  0
   57.5840   29.7320   44.8440 C   0  0  0  0  0  0  0  0  0  0  0  0
   57.3270   28.3530   44.8570 C   0  0  0  0  0  0  0  0  0  0  0  0
   57.7670   27.5580   45.9260 C   0  0  0  0  0  0  0  0  0  0  0  0
   57.4690   26.1510   45.9240 N   0  0  0  0  0  0  0  0  0  0  0  0
   56.1390   25.6110   45.8290 C   0  0  0  0  0  0  0  0  0  0  0  0
   55.1420   26.3660   45.9960 O   0  0  0  0  0  0  0  0  0  0  0  0
   55.9400   24.1210   45.5980 C   0  0  2  0  0  0  0  0  0  0  0  0
   56.0220   23.3590   46.9340 C   0  0  0  0  0  0  0  0  0  0  0  0
   56.9850   23.5810   44.5830 C   0  0  0  0  0  0  0  0  0  0  0  0
   56.1200   23.0630   43.5000 C   0  0  0  0  0  0  0  0  0  0  0  0
   56.5520   22.5210   42.4490 O   0  0  0  0  0  0  0  0  0  0  0  0
   54.7430   23.2330   43.7600 N   0  0  0  0  0  0  0  0  0  0  0  0
   54.6210   23.8140   44.9040 C   0  0  0  0  0  0  0  0  0  0  0  0
   53.2660   24.0960   45.4810 C   0  0  0  0  0  0  0  0  0  0  0  0
   58.4340   28.1620   47.0060 C   0  0  0  0  0  0  0  0  0  0  0  0
   58.6930   29.5350   47.0010 C   0  0  0  0  0  0  0  0  0  0  0  0
   58.2760   30.3280   45.9240 C   0  0  0  0  0  0  0  0  0  0  0  0
   58.5310   31.7090   45.9090 C   0  0  0  0  0  0  0  0  0  0  0  0
   58.1440   34.2420   47.2210 H   0  0  0  0  0  0  0  0  0  0  0  0
   59.6610   33.4164   46.7270 H   0  0  0  0  0  0  0  0  0  0  0  0
   59.5739   35.2106   46.7270 H   0  0  0  0  0  0  0  0  0  0  0  0
   57.0888   32.5190   42.9164 H   0  0  0  0  0  0  0  0  0  0  0  0
   56.6193   30.0697   42.9262 H   0  0  0  0  0  0  0  0  0  0  0  0
   56.7768   27.8919   44.0235 H   0  0  0  0  0  0  0  0  0  0  0  0
   58.2620   25.4860   46.0670 H   0  0  0  0  0  0  0  0  0  0  0  0
   55.9453   24.0720   47.7681 H   0  0  0  0  0  0  0  0  0  0  0  0
   55.1967   22.6343   46.9940 H   0  0  0  0  0  0  0  0  0  0  0  0
   56.9826   22.8265   46.9940 H   0  0  0  0  0  0  0  0  0  0  0  0
   57.6424   24.3847   44.2200 H   0  0  0  0  0  0  0  0  0  0  0  0
   57.6668   22.8282   45.0054 H   0  0  0  0  0  0  0  0  0  0  0  0
   53.3254   24.0836   46.5793 H   0  0  0  0  0  0  0  0  0  0  0  0
   52.9223   25.0849   45.1435 H   0  0  0  0  0  0  0  0  0  0  0  0
   52.5563   23.3263   45.1435 H   0  0  0  0  0  0  0  0  0  0  0  0
   58.7544   27.5491   47.8614 H   0  0  0  0  0  0  0  0  0  0  0  0
   59.2264   29.9950   47.8459 H   0  0  0  0  0  0  0  0  0  0  0  0
   59.0710   32.1756   46.7461 H   0  0  0  0  0  0  0  0  0  0  0  0
  1  2  1  0
  2  3  1  0
  3  4  2  0
  4  5  1  0
  5  6  2  0
  6  7  1  0
  7  8  2  0
  8  9  1  0
  9 10  1  0
 10 11  2  0
 10 12  1  0
 12 13  1  1
 12 14  1  0
 14 15  1  0
 15 16  2  0
 15 17  1  0
 17 18  2  0
 18 19  1  0
  8 20  1  0
 20 21  2  0
 21 22  1  0
 22 23  2  0
 23  3  1  0
 22  6  1  0
 18 12  1  0
  1 24  1  0
  1 25  1  0
  1 26  1  0
  4 27  1  0
  5 28  1  0
  7 29  1  0
  9 30  1  0
 13 31  1  0
 13 32  1  0
 13 33  1  0
 14 34  1  0
 14 35  1  0
 19 36  1  0
 19 37  1  0
 19 38  1  0
 20 39  1  0
 21 40  1  0
 23 41  1  0
M  END
>  <UniqueID>  (95) 
90

>  <SMILES>  (95) 
CSc1ccc2cc(NC(=O)[C@]3(C)CC(=O)N=C3C)ccc2c1

>  <Energy>  (95) 
52.881520560024924

>  <Genealogy>  (95) 
CSc1ccc2cc(NC(=O)[C@]3(C)CC(=O)N=C3C)ccc2c1 (chirality)
CSc1ccc2cc(NC(=O)[C@]3(C)CC(=O)N=C3C)ccc2c1 (3D coordinates assigned)
CSc1ccc2cc(NC(=O)[C@]3(C)CC(=O)N=C3C)ccc2c1 (nonaromatic ring conformer: 52.881520560024924 kcal/mol)

>  <smiles>  (95) 
CSc1ccc2cc(NC(=O)C3(C)CC(=O)N=C3C)ccc2c1

>  <score_type>  (95) 
oracle

>  <origin>  (95) 
adg

>  <m_score__min__energy>  (95) 
-8.5999999999999996

>  <m_primary>  (95) 
energy

$$$$
95:0
     RDKit          3D

 47 49  0  0  0  0  0  0  0  0999 V2000
   59.6920   30.1120   51.4420 O   0  0  0  0  0  0  0  0  0  0  0  0
   59.4350   31.2120   50.8790 C   0  0  0  0  0  0  0  0  0  0  0  0
   58.2070   31.9810   51.2620 C   0  0  0  0  0  0  0  0  0  0  0  0
   57.0160   31.2630   50.9340 O   0  0  0  0  0  0  0  0  0  0  0  0
   56.1040   30.7370   51.8640 C   0  0  0  0  0  0  0  0  0  0  0  0
   56.5540   29.7480   52.7470 C   0  0  0  0  0  0  0  0  0  0  0  0
   55.6880   29.1910   53.6900 C   0  0  0  0  0  0  0  0  0  0  0  0
   54.3560   29.6040   53.7490 C   0  0  0  0  0  0  0  0  0  0  0  0
   53.8780   30.5810   52.8590 C   0  0  0  0  0  0  0  0  0  0  0  0
   52.4230   30.9710   52.8740 C   0  0  0  0  0  0  0  0  0  0  0  0
   51.8990   31.1740   51.4810 C   0  0  0  0  0  0  0  0  0  0  0  0
   51.9580   30.2370   50.5130 N   0  0  0  0  0  0  0  0  0  0  0  0
   51.3590   30.8350   49.4610 C   0  0  0  0  0  0  0  0  0  0  0  0
   51.2290   30.2680   48.3430 O   0  0  0  0  0  0  0  0  0  0  0  0
   50.9160   32.0920   49.6980 N   0  0  0  0  0  0  0  0  0  0  0  0
   51.2630   32.2910   50.9800 C   0  0  0  0  0  0  0  0  0  0  0  0
   51.0190   33.4750   51.6690 O   0  0  0  0  0  0  0  0  0  0  0  0
   54.7620   31.1600   51.9340 C   0  0  0  0  0  0  0  0  0  0  0  0
   60.3390   31.7670   49.9190 N   0  0  0  0  0  0  0  0  0  0  0  0
   60.7420   33.4510   49.8680 S   0  0  0  0  0  0  0  0  0  0  0  0
   59.4720   34.2550   49.9200 O   0  0  0  0  0  0  0  0  0  0  0  0
   61.5840   33.8030   51.0640 O   0  0  0  0  0  0  0  0  0  0  0  0
   61.6380   33.8520   48.3680 C   0  0  0  0  0  0  0  0  0  0  0  0
   61.2190   32.9820   47.1740 C   0  0  0  0  0  0  0  0  0  0  0  0
   59.8710   33.3650   46.6170 C   0  0  0  0  0  0  0  0  0  0  0  0
   58.6940   32.8640   47.1990 C   0  0  0  0  0  0  0  0  0  0  0  0
   57.4440   33.2070   46.6730 C   0  0  0  0  0  0  0  0  0  0  0  0
   57.3600   34.0490   45.5600 C   0  0  0  0  0  0  0  0  0  0  0  0
   58.5240   34.5600   44.9790 C   0  0  0  0  0  0  0  0  0  0  0  0
   59.7760   34.2230   45.5070 C   0  0  0  0  0  0  0  0  0  0  0  0
   58.2252   32.1668   52.3460 H   0  0  0  0  0  0  0  0  0  0  0  0
   58.2043   32.9280   50.7024 H   0  0  0  0  0  0  0  0  0  0  0  0
   57.5986   29.4069   52.6974 H   0  0  0  0  0  0  0  0  0  0  0  0
   56.0563   28.4249   54.3881 H   0  0  0  0  0  0  0  0  0  0  0  0
   53.6780   29.1632   54.4947 H   0  0  0  0  0  0  0  0  0  0  0  0
   51.8432   30.1740   53.3625 H   0  0  0  0  0  0  0  0  0  0  0  0
   52.3226   31.9180   53.4246 H   0  0  0  0  0  0  0  0  0  0  0  0
   54.4035   31.9506   51.2583 H   0  0  0  0  0  0  0  0  0  0  0  0
   61.4501   34.9065   48.1176 H   0  0  0  0  0  0  0  0  0  0  0  0
   62.7045   33.6616   48.5584 H   0  0  0  0  0  0  0  0  0  0  0  0
   61.9715   33.0902   46.3790 H   0  0  0  0  0  0  0  0  0  0  0  0
   61.1478   31.9435   47.5295 H   0  0  0  0  0  0  0  0  0  0  0  0
   58.7560   32.1986   48.0728 H   0  0  0  0  0  0  0  0  0  0  0  0
   56.5265   32.8140   47.1354 H   0  0  0  0  0  0  0  0  0  0  0  0
   56.3768   34.3096   45.1411 H   0  0  0  0  0  0  0  0  0  0  0  0
   58.4563   35.2270   44.1069 H   0  0  0  0  0  0  0  0  0  0  0  0
   60.6900   34.6314   45.0513 H   0  0  0  0  0  0  0  0  0  0  0  0
  1  2  2  0
  2  3  1  0
  3  4  1  0
  4  5  1  0
  5  6  2  0
  6  7  1  0
  7  8  2  0
  8  9  1  0
  9 10  1  0
 10 11  1  0
 11 12  1  0
 12 13  1  0
 13 14  2  0
 13 15  1  0
 15 16  1  0
 16 17  1  0
  9 18  2  0
  2 19  1  0
 19 20  1  0
 20 21  2  0
 20 22  2  0
 20 23  1  0
 23 24  1  0
 24 25  1  0
 25 26  2  0
 26 27  1  0
 27 28  2  0
 28 29  1  0
 29 30  2  0
 18  5  1  0
 30 25  1  0
 16 11  2  0
  3 31  1  0
  3 32  1  0
  6 33  1  0
  7 34  1  0
  8 35  1  0
 10 36  1  0
 10 37  1  0
 18 38  1  0
 23 39  1  0
 23 40  1  0
 24 41  1  0
 24 42  1  0
 26 43  1  0
 27 44  1  0
 28 45  1  0
 29 46  1  0
 30 47  1  0
M  CHG  4  12  -1  15  -1  17  -1  19  -1
M  END
>  <UniqueID>  (96) 
91

>  <SMILES>  (96) 
O=C(COc1cccc(Cc2[n-]c(=O)[n-]c2[O-])c1)[N-]S(=O)(=O)CCc1ccccc1

>  <Energy>  (96) 
69.17718156559408

>  <Genealogy>  (96) 
O=C(COc1cccc(Cc2[n-]c(=O)[n-]c2[O-])c1)[N-]S(=O)(=O)CCc1ccccc1 (protonated)
O=C(COc1cccc(Cc2[n-]c(=O)[n-]c2[O-])c1)[N-]S(=O)(=O)CCc1ccccc1 (3D coordinates assigned)
O=C(COc1cccc(Cc2[n-]c(=O)[n-]c2[O-])c1)[N-]S(=O)(=O)CCc1ccccc1 (optimized conformer: 69.17718156559408 kcal/mol)

>  <smiles>  (96) 
O=C(COc1cccc(Cc2[nH]c(=O)[nH]c2O)c1)NS(=O)(=O)CCc1ccccc1

>  <score_type>  (96) 
oracle

>  <origin>  (96) 
adg

>  <m_score__min__energy>  (96) 
-18.420000000000002

>  <m_primary>  (96) 
energy

$$$$
96:0
     RDKit          3D

 27 28  0  0  0  0  0  0  0  0999 V2000
   54.8280   21.6300   46.5220 C   0  0  0  0  0  0  0  0  0  0  0  0
   53.7790   22.3790   45.7660 C   0  0  0  0  0  0  0  0  0  0  0  0
   52.5010   21.9710   45.6550 N   0  0  0  0  0  0  0  0  0  0  0  0
   51.9390   22.9240   44.8830 C   0  0  0  0  0  0  0  0  0  0  0  0
   50.7270   22.8960   44.5460 O   0  0  0  0  0  0  0  0  0  0  0  0
   52.7790   23.9060   44.4960 N   0  0  0  0  0  0  0  0  0  0  0  0
   53.9460   23.5590   45.0690 C   0  0  0  0  0  0  0  0  0  0  0  0
   55.2220   24.3190   44.8780 C   0  0  0  0  0  0  0  0  0  0  0  0
   55.5140   25.1440   46.0900 C   0  0  0  0  0  0  0  0  0  0  0  0
   55.8230   24.5750   47.1720 O   0  0  0  0  0  0  0  0  0  0  0  0
   55.5340   26.5730   45.9790 N   0  0  0  0  0  0  0  0  0  0  0  0
   56.6630   27.3880   45.6290 C   0  0  0  0  0  0  0  0  0  0  0  0
   57.9850   26.9660   45.8600 C   0  0  0  0  0  0  0  0  0  0  0  0
   59.0590   27.7970   45.5260 C   0  0  0  0  0  0  0  0  0  0  0  0
   58.8240   29.0580   44.9730 C   0  0  0  0  0  0  0  0  0  0  0  0
   57.5140   29.4950   44.7620 C   0  0  0  0  0  0  0  0  0  0  0  0
   56.4350   28.6670   45.0940 C   0  0  0  0  0  0  0  0  0  0  0  0
   55.1370   29.1160   44.8840 O   0  0  0  0  0  0  0  0  0  0  0  0
   54.6584   21.7511   47.6021 H   0  0  0  0  0  0  0  0  0  0  0  0
   54.7770   20.5628   46.2602 H   0  0  0  0  0  0  0  0  0  0  0  0
   55.8208   22.0247   46.2602 H   0  0  0  0  0  0  0  0  0  0  0  0
   56.0467   23.6100   44.7130 H   0  0  0  0  0  0  0  0  0  0  0  0
   55.1193   24.9825   44.0066 H   0  0  0  0  0  0  0  0  0  0  0  0
   58.1747   25.9782   46.3052 H   0  0  0  0  0  0  0  0  0  0  0  0
   60.0907   27.4570   45.6991 H   0  0  0  0  0  0  0  0  0  0  0  0
   59.6704   29.7069   44.7037 H   0  0  0  0  0  0  0  0  0  0  0  0
   57.3299   30.4915   44.3342 H   0  0  0  0  0  0  0  0  0  0  0  0
  1  2  1  0
  2  3  1  0
  3  4  1  0
  4  5  2  0
  4  6  1  0
  6  7  1  0
  7  8  1  0
  8  9  1  0
  9 10  2  0
  9 11  1  0
 11 12  1  0
 12 13  2  0
 13 14  1  0
 14 15  2  0
 15 16  1  0
 16 17  2  0
 17 18  1  0
  7  2  2  0
 17 12  1  0
  1 19  1  0
  1 20  1  0
  1 21  1  0
  8 22  1  0
  8 23  1  0
 13 24  1  0
 14 25  1  0
 15 26  1  0
 16 27  1  0
M  CHG  4   3  -1   6  -1  11  -1  18  -1
M  END
>  <UniqueID>  (97) 
92

>  <SMILES>  (97) 
Cc1[n-]c(=O)[n-]c1CC(=O)[N-]c1ccccc1[O-]

>  <Energy>  (97) 
55.728898094827734

>  <Genealogy>  (97) 
Cc1[n-]c(=O)[n-]c1CC(=O)[N-]c1ccccc1[O-] (protonated)
Cc1[n-]c(=O)[n-]c1CC(=O)[N-]c1ccccc1[O-] (3D coordinates assigned)
Cc1[n-]c(=O)[n-]c1CC(=O)[N-]c1ccccc1[O-] (optimized conformer: 55.728898094827734 kcal/mol)

>  <smiles>  (97) 
Cc1[nH]c(=O)[nH]c1CC(=O)Nc1ccccc1O

>  <score_type>  (97) 
oracle

>  <origin>  (97) 
adg

>  <m_score__min__energy>  (97) 
-14.82

>  <m_primary>  (97) 
energy

$$$$
