0:0
     RDKit          3D

 52 55  0  0  0  0  0  0  0  0999 V2000
   54.1260   29.7370   44.1300 H   0  0  0  0  0  0  0  0  0  0  0  0
   55.0920   29.3410   44.1330 N   0  0  0  0  0  0  0  0  0  0  0  0
   56.1190   29.9400   44.6530 C   0  0  0  0  0  0  0  0  0  0  0  0
   56.2540   31.2800   44.4700 N   0  0  0  0  0  0  0  0  0  0  0  0
   57.2960   31.9830   44.9830 C   0  0  0  0  0  0  0  0  0  0  0  0
   57.3654   33.0665   44.8063 H   0  0  0  0  0  0  0  0  0  0  0  0
   58.2840   31.3340   45.7370 C   0  0  0  0  0  0  0  0  0  0  0  0
   59.4210   32.0920   46.3120 C   0  0  0  0  0  0  0  0  0  0  0  0
   60.5020   31.4450   46.9550 C   0  0  0  0  0  0  0  0  0  0  0  0
   60.5990   30.0130   46.9890 N   0  0  0  0  0  0  0  0  0  0  0  0
   60.6550   29.3290   48.2820 C   0  0  0  0  0  0  0  0  0  0  0  0
   61.6912   29.3262   48.6511 H   0  0  0  0  0  0  0  0  0  0  0  0
   60.0111   29.8535   49.0033 H   0  0  0  0  0  0  0  0  0  0  0  0
   60.1680   27.8870   48.1160 C   0  0  0  0  0  0  0  0  0  0  0  0
   60.3289   27.3419   49.0578 H   0  0  0  0  0  0  0  0  0  0  0  0
   59.0983   27.9046   47.8602 H   0  0  0  0  0  0  0  0  0  0  0  0
   60.8710   27.2330   47.0760 O   0  0  0  0  0  0  0  0  0  0  0  0
   60.5860   27.8560   45.8370 C   0  0  0  0  0  0  0  0  0  0  0  0
   61.0674   27.2868   45.0281 H   0  0  0  0  0  0  0  0  0  0  0  0
   59.4953   27.8757   45.6953 H   0  0  0  0  0  0  0  0  0  0  0  0
   61.1090   29.2950   45.8180 C   0  0  0  0  0  0  0  0  0  0  0  0
   62.2087   29.2863   45.8429 H   0  0  0  0  0  0  0  0  0  0  0  0
   60.7682   29.7980   44.9010 H   0  0  0  0  0  0  0  0  0  0  0  0
   61.4840   32.1910   47.5340 N   0  0  0  0  0  0  0  0  0  0  0  0
   61.4770   33.5490   47.4990 C   0  0  0  0  0  0  0  0  0  0  0  0
   62.2860   34.1154   47.9835 H   0  0  0  0  0  0  0  0  0  0  0  0
   60.4460   34.2250   46.8500 C   0  0  0  0  0  0  0  0  0  0  0  0
   60.4437   35.3241   46.8066 H   0  0  0  0  0  0  0  0  0  0  0  0
   59.4170   33.4950   46.2560 C   0  0  0  0  0  0  0  0  0  0  0  0
   58.5989   34.0204   45.7415 H   0  0  0  0  0  0  0  0  0  0  0  0
   58.1780   29.9500   45.9310 C   0  0  0  0  0  0  0  0  0  0  0  0
   58.9498   29.4176   46.5063 H   0  0  0  0  0  0  0  0  0  0  0  0
   57.0960   29.2420   45.3970 C   0  0  0  0  0  0  0  0  0  0  0  0
   57.0140   27.8190   45.6270 C   0  0  0  0  0  0  0  0  0  0  0  0
   56.9500   26.6320   45.8260 C   0  0  0  0  0  0  0  0  0  0  0  0
   56.8590   25.1860   46.0710 C   0  0  1  0  0  0  0  0  0  0  0  0
   57.1404   24.9811   47.1145 H   0  0  0  0  0  0  0  0  0  0  0  0
   55.4490   24.7180   45.8560 C   0  0  0  0  0  0  0  0  0  0  0  0
   54.4040   25.5150   45.8120 O   0  0  0  0  0  0  0  0  0  0  0  0
   53.3060   24.8430   45.6210 N   0  0  0  0  0  0  0  0  0  0  0  0
   53.6630   23.5460   45.5400 C   0  0  0  0  0  0  0  0  0  0  0  0
   52.7750   22.4890   45.3360 O   0  0  0  0  0  0  0  0  0  0  0  0
   51.3800   22.6140   45.5780 C   0  0  0  0  0  0  0  0  0  0  0  0
   51.1960   22.6305   46.6624 H   0  0  0  0  0  0  0  0  0  0  0  0
   51.0123   23.5487   45.1295 H   0  0  0  0  0  0  0  0  0  0  0  0
   50.8520   21.7596   45.1295 H   0  0  0  0  0  0  0  0  0  0  0  0
   55.0250   23.4130   45.6860 C   0  0  0  0  0  0  0  0  0  0  0  0
   55.6286   22.4935   45.6711 H   0  0  0  0  0  0  0  0  0  0  0  0
   57.8270   24.4300   45.1610 C   0  0  0  0  0  0  0  0  0  0  0  0
   58.5458   23.8686   45.7760 H   0  0  0  0  0  0  0  0  0  0  0  0
   57.2631   23.7308   44.5261 H   0  0  0  0  0  0  0  0  0  0  0  0
   58.3687   25.1465   44.5261 H   0  0  0  0  0  0  0  0  0  0  0  0
  1  2  1  0
  2  3  2  0
  3  4  1  0
  4  5  1  0
  5  6  1  0
  5  7  2  0
  7  8  1  0
  8  9  1  0
  9 10  1  0
 10 11  1  0
 11 12  1  0
 11 13  1  0
 11 14  1  0
 14 15  1  0
 14 16  1  0
 14 17  1  0
 17 18  1  0
 18 19  1  0
 18 20  1  0
 18 21  1  0
 21 22  1  0
 21 23  1  0
  9 24  2  0
 24 25  1  0
 25 26  1  0
 25 27  2  0
 27 28  1  0
 27 29  1  0
 29 30  1  0
  7 31  1  0
 31 32  1  0
 31 33  2  0
 33 34  1  0
 34 35  3  0
 35 36  1  0
 36 37  1  1
 36 38  1  0
 38 39  1  0
 39 40  1  0
 40 41  2  0
 41 42  1  0
 42 43  1  0
 43 44  1  0
 43 45  1  0
 43 46  1  0
 41 47  1  0
 47 48  1  0
 36 49  1  0
 49 50  1  0
 49 51  1  0
 49 52  1  0
 33  3  1  0
 47 38  2  0
 29  8  2  0
 21 10  1  0
M  CHG  1   4  -1
M  END
>  <UniqueID>  (1) 
1

>  <SMILES>  (1) 
[H]/N=c1/[n-]cc(-c2cccnc2N2CCOCC2)cc1C#C[C@H](C)c1cc(OC)no1

>  <Energy>  (1) 
89.73128362704965

>  <Genealogy>  (1) 
COc1cc(C(C)C#Cc2cc(-c3cccnc3N3CCOCC3)c[n-]c2=N)on1 (protonated)
COc1cc([C@@H](C)C#Cc2cc(-c3cccnc3N3CCOCC3)c[n-]c2=N)on1 (chirality)
[H]/N=c1/[n-]cc(-c2cccnc2N2CCOCC2)cc1C#C[C@H](C)c1cc(OC)no1 (cis-trans isomerization)
[H]/N=c1/[n-]cc(-c2cccnc2N2CCOCC2)cc1C#C[C@H](C)c1cc(OC)no1 (3D coordinates assigned)
[H]/N=c1/[n-]cc(-c2cccnc2N2CCOCC2)cc1C#C[C@H](C)c1cc(OC)no1 (nonaromatic ring conformer: 89.73128362704965 kcal/mol)

>  <smiles>  (1) 
COc1cc(C(C)C#Cc2cc(-c3cccnc3N3CCOCC3)c[nH]c2=N)on1

>  <score_type>  (1) 
oracle

>  <origin>  (1) 
adg

>  <m_score__min__energy>  (1) 
-10.609999999999999

>  <m_primary>  (1) 
energy

$$$$
1:0
     RDKit          3D

 47 49  0  0  0  0  0  0  0  0999 V2000
   61.4490   33.8560   50.0040 C   0  0  0  0  0  0  0  0  0  0  0  0
   62.7020   34.2550   49.2350 C   0  0  0  0  0  0  0  0  0  0  0  0
   62.6810   33.6050   47.5710 S   0  0  0  0  0  0  0  0  0  0  0  0
   63.3750   32.2730   47.5220 O   0  0  0  0  0  0  0  0  0  0  0  0
   63.4230   34.5560   46.6750 O   0  0  0  0  0  0  0  0  0  0  0  0
   61.0480   33.4550   47.0020 N   0  0  0  0  0  0  0  0  0  0  0  0
   60.1360   34.5860   46.8630 C   0  0  0  0  0  0  0  0  0  0  0  0
   58.7830   33.9860   46.4120 C   0  0  0  0  0  0  0  0  0  0  0  0
   59.0530   32.5220   46.3600 C   0  0  0  0  0  0  0  0  0  0  0  0
   58.1620   31.4990   46.0360 C   0  0  0  0  0  0  0  0  0  0  0  0
   58.6170   30.1610   46.0640 C   0  0  0  0  0  0  0  0  0  0  0  0
   57.7020   29.0420   45.7360 C   0  0  0  0  0  0  0  0  0  0  0  0
   56.5750   29.2910   45.2230 O   0  0  0  0  0  0  0  0  0  0  0  0
   58.0610   27.6830   46.0380 N   0  0  0  0  0  0  0  0  0  0  0  0
   57.4580   26.5390   45.4090 C   0  0  0  0  0  0  0  0  0  0  0  0
   57.9540   26.0890   44.1770 C   0  0  0  0  0  0  0  0  0  0  0  0
   57.3730   24.9910   43.5350 C   0  0  0  0  0  0  0  0  0  0  0  0
   56.2720   24.3310   44.1090 C   0  0  0  0  0  0  0  0  0  0  0  0
   55.6520   23.1690   43.4330 C   0  0  0  0  0  0  0  0  0  0  0  0
   54.7050   23.3410   42.6170 O   0  0  0  0  0  0  0  0  0  0  0  0
   56.1180   21.8770   43.7030 O   0  0  0  0  0  0  0  0  0  0  0  0
   57.4360   21.4520   43.3750 C   0  0  0  0  0  0  0  0  0  0  0  0
   55.7620   24.7960   45.3320 C   0  0  0  0  0  0  0  0  0  0  0  0
   56.3440   25.8930   45.9740 C   0  0  0  0  0  0  0  0  0  0  0  0
   59.9580   29.8990   46.4350 C   0  0  0  0  0  0  0  0  0  0  0  0
   60.8330   30.9480   46.7550 C   0  0  0  0  0  0  0  0  0  0  0  0
   60.3490   32.2580   46.7050 C   0  0  0  0  0  0  0  0  0  0  0  0
   61.6463   33.9188   51.0843 H   0  0  0  0  0  0  0  0  0  0  0  0
   60.6255   34.5363   49.7415 H   0  0  0  0  0  0  0  0  0  0  0  0
   61.1705   32.8247   49.7415 H   0  0  0  0  0  0  0  0  0  0  0  0
   62.7597   35.3526   49.1897 H   0  0  0  0  0  0  0  0  0  0  0  0
   63.5759   33.8392   49.7579 H   0  0  0  0  0  0  0  0  0  0  0  0
   60.0221   35.1063   47.8254 H   0  0  0  0  0  0  0  0  0  0  0  0
   60.5131   35.3225   46.1382 H   0  0  0  0  0  0  0  0  0  0  0  0
   57.9897   34.2141   47.1391 H   0  0  0  0  0  0  0  0  0  0  0  0
   58.4328   34.3919   45.4514 H   0  0  0  0  0  0  0  0  0  0  0  0
   57.1217   31.7298   45.7630 H   0  0  0  0  0  0  0  0  0  0  0  0
   58.7130   27.5140   46.8370 H   0  0  0  0  0  0  0  0  0  0  0  0
   58.8073   26.6041   43.7117 H   0  0  0  0  0  0  0  0  0  0  0  0
   57.7799   24.6413   42.5747 H   0  0  0  0  0  0  0  0  0  0  0  0
   58.0031   21.2691   44.2997 H   0  0  0  0  0  0  0  0  0  0  0  0
   57.3862   20.5244   42.7859 H   0  0  0  0  0  0  0  0  0  0  0  0
   57.9375   22.2340   42.7859 H   0  0  0  0  0  0  0  0  0  0  0  0
   54.8971   24.2927   45.7888 H   0  0  0  0  0  0  0  0  0  0  0  0
   55.9282   26.2530   46.9266 H   0  0  0  0  0  0  0  0  0  0  0  0
   60.3182   28.8603   46.4728 H   0  0  0  0  0  0  0  0  0  0  0  0
   61.8760   30.7440   47.0387 H   0  0  0  0  0  0  0  0  0  0  0  0
  1  2  1  0
  2  3  1  0
  3  4  2  0
  3  5  2  0
  3  6  1  0
  6  7  1  0
  7  8  1  0
  8  9  1  0
  9 10  2  0
 10 11  1  0
 11 12  1  0
 12 13  2  0
 12 14  1  0
 14 15  1  0
 15 16  2  0
 16 17  1  0
 17 18  2  0
 18 19  1  0
 19 20  2  0
 19 21  1  0
 21 22  1  0
 18 23  1  0
 23 24  2  0
 11 25  2  0
 25 26  1  0
 26 27  2  0
 27  6  1  0
 27  9  1  0
 24 15  1  0
  1 28  1  0
  1 29  1  0
  1 30  1  0
  2 31  1  0
  2 32  1  0
  7 33  1  0
  7 34  1  0
  8 35  1  0
  8 36  1  0
 10 37  1  0
 14 38  1  0
 16 39  1  0
 17 40  1  0
 22 41  1  0
 22 42  1  0
 22 43  1  0
 23 44  1  0
 24 45  1  0
 25 46  1  0
 26 47  1  0
M  END
>  <UniqueID>  (2) 
2

>  <SMILES>  (2) 
CCS(=O)(=O)N1CCc2cc(C(=O)Nc3ccc(C(=O)OC)cc3)ccc21

>  <Energy>  (2) 
61.01670298072639

>  <Genealogy>  (2) 
CCS(=O)(=O)N1CCc2cc(C(=O)Nc3ccc(C(=O)OC)cc3)ccc21 (3D coordinates assigned)
CCS(=O)(=O)N1CCc2cc(C(=O)Nc3ccc(C(=O)OC)cc3)ccc21 (nonaromatic ring conformer: 61.01670298072639 kcal/mol)

>  <smiles>  (2) 
CCS(=O)(=O)N1CCc2cc(C(=O)Nc3ccc(C(=O)OC)cc3)ccc21

>  <score_type>  (2) 
oracle

>  <origin>  (2) 
adg

>  <m_score__min__energy>  (2) 
-8.5099999999999998

>  <m_primary>  (2) 
energy

$$$$
2:0
     RDKit          3D

 34 36  0  0  0  0  0  0  0  0999 V2000
   58.1052   34.4633   43.8455 H   0  0  0  0  0  0  0  0  0  0  0  0
   58.1130   33.5770   44.4970 C   0  0  0  0  0  0  0  0  0  0  0  0
   57.4930   32.3970   44.0750 C   0  0  0  0  0  0  0  0  0  0  0  0
   56.9961   32.3597   43.0943 H   0  0  0  0  0  0  0  0  0  0  0  0
   57.5020   31.2620   44.8960 C   0  0  0  0  0  0  0  0  0  0  0  0
   56.7360   29.7720   44.3580 S   0  0  0  0  0  0  0  0  0  0  0  0
   55.3230   29.7220   44.8680 O   0  0  0  0  0  0  0  0  0  0  0  0
   56.7220   29.7320   42.8550 O   0  0  0  0  0  0  0  0  0  0  0  0
   57.6360   28.4260   44.9760 N   0  0  0  0  0  0  0  0  0  0  0  0
   57.1110   27.2850   45.3070 C   0  0  0  0  0  0  0  0  0  0  0  0
   57.7530   26.0730   45.2120 C   0  0  0  0  0  0  0  0  0  0  0  0
   58.7739   25.8685   44.8571 H   0  0  0  0  0  0  0  0  0  0  0  0
   56.8070   25.1710   45.6700 C   0  0  0  0  0  0  0  0  0  0  0  0
   56.9780   23.7150   45.7790 C   0  0  0  0  0  0  0  0  0  0  0  0
   56.1360   22.8430   46.4430 C   0  0  0  0  0  0  0  0  0  0  0  0
   55.2155   23.0986   46.9883 H   0  0  0  0  0  0  0  0  0  0  0  0
   56.6850   21.5850   46.2830 C   0  0  0  0  0  0  0  0  0  0  0  0
   56.2602   20.6558   46.6906 H   0  0  0  0  0  0  0  0  0  0  0  0
   57.8150   21.6620   45.5560 N   0  0  0  0  0  0  0  0  0  0  0  0
   58.4320   20.8650   45.2850 H   0  0  0  0  0  0  0  0  0  0  0  0
   58.0020   22.9580   45.2440 C   0  0  0  0  0  0  0  0  0  0  0  0
   58.8416   23.3536   44.6535 H   0  0  0  0  0  0  0  0  0  0  0  0
   55.6750   25.8210   46.0150 N   0  0  0  0  0  0  0  0  0  0  0  0
   55.8650   27.1110   45.7900 N   0  0  0  0  0  0  0  0  0  0  0  0
   55.1440   27.8430   45.9710 H   0  0  0  0  0  0  0  0  0  0  0  0
   58.1560   31.3110   46.1360 C   0  0  0  0  0  0  0  0  0  0  0  0
   58.1802   30.4185   46.7785 H   0  0  0  0  0  0  0  0  0  0  0  0
   58.7770   32.4900   46.5580 C   0  0  0  0  0  0  0  0  0  0  0  0
   59.2929   32.5202   47.5291 H   0  0  0  0  0  0  0  0  0  0  0  0
   58.7450   33.6350   45.7480 C   0  0  0  0  0  0  0  0  0  0  0  0
   59.4460   34.8880   46.1830 C   0  0  0  0  0  0  0  0  0  0  0  0
   59.4705   34.9318   47.2819 H   0  0  0  0  0  0  0  0  0  0  0  0
   60.4746   34.8870   45.7930 H   0  0  0  0  0  0  0  0  0  0  0  0
   58.9069   35.7640   45.7930 H   0  0  0  0  0  0  0  0  0  0  0  0
  1  2  1  0
  2  3  2  0
  3  4  1  0
  3  5  1  0
  5  6  1  0
  6  7  2  0
  6  8  2  0
  6  9  1  0
  9 10  2  0
 10 11  1  0
 11 12  1  0
 11 13  2  0
 13 14  1  0
 14 15  1  0
 15 16  1  0
 15 17  2  0
 17 18  1  0
 17 19  1  0
 19 20  1  0
 19 21  1  0
 21 22  1  0
 13 23  1  0
 23 24  1  0
 24 25  1  0
  5 26  2  0
 26 27  1  0
 26 28  1  0
 28 29  1  0
 28 30  2  0
 30 31  1  0
 31 32  1  0
 31 33  1  0
 31 34  1  0
 30  2  1  0
 24 10  1  0
 21 14  2  0
M  CHG  1  23  -1
M  END
>  <UniqueID>  (3) 
3

>  <SMILES>  (3) 
Cc1ccc(S(=O)(=O)/N=c2/cc(-c3cc[nH]c3)[n-][nH]2)cc1

>  <Energy>  (3) 
95.27511042221165

>  <Genealogy>  (3) 
Cc1ccc(S(=O)(=O)N=c2cc(-c3cc[nH]c3)[n-][nH]2)cc1 (protonated)
Cc1ccc(S(=O)(=O)/N=c2/cc(-c3cc[nH]c3)[n-][nH]2)cc1 (cis-trans isomerization)
Cc1ccc(S(=O)(=O)/N=c2/cc(-c3cc[nH]c3)[n-][nH]2)cc1 (3D coordinates assigned)
Cc1ccc(S(=O)(=O)/N=c2/cc(-c3cc[nH]c3)[n-][nH]2)cc1 (optimized conformer: 95.27511042221165 kcal/mol)

>  <smiles>  (3) 
Cc1ccc(S(=O)(=O)N=c2cc(-c3cc[nH]c3)[nH][nH]2)cc1

>  <score_type>  (3) 
oracle

>  <origin>  (3) 
adg

>  <m_score__min__energy>  (3) 
-10.869999999999999

>  <m_primary>  (3) 
energy

$$$$
3:0
     RDKit          3D

 25 27  0  0  0  0  0  0  0  0999 V2000
   59.2302   27.1141   47.4198 H   0  0  0  0  0  0  0  0  0  0  0  0
   58.7000   27.8120   46.7550 C   0  0  0  0  0  0  0  0  0  0  0  0
   57.4470   27.6060   46.2820 N   0  0  0  0  0  0  0  0  0  0  0  0
   57.0500   28.6330   45.4880 C   0  0  0  0  0  0  0  0  0  0  0  0
   57.9690   29.6520   45.3230 C   0  0  0  0  0  0  0  0  0  0  0  0
   59.3510   29.2720   46.2000 S   0  0  0  0  0  0  0  0  0  0  0  0
   57.6970   30.7640   44.5270 C   0  0  0  0  0  0  0  0  0  0  0  0
   58.5890   31.7080   44.4100 N   0  0  0  0  0  0  0  0  0  0  0  0
   58.8240   32.8020   45.3090 C   0  0  0  0  0  0  0  0  0  0  0  0
   58.9570   34.1200   44.8350 C   0  0  0  0  0  0  0  0  0  0  0  0
   58.8370   34.3319   43.7623 H   0  0  0  0  0  0  0  0  0  0  0  0
   59.2410   35.1600   45.7230 C   0  0  0  0  0  0  0  0  0  0  0  0
   59.3256   36.1916   45.3507 H   0  0  0  0  0  0  0  0  0  0  0  0
   59.4180   34.8930   47.0840 C   0  0  0  0  0  0  0  0  0  0  0  0
   59.6325   35.7148   47.7830 H   0  0  0  0  0  0  0  0  0  0  0  0
   59.3220   33.5790   47.5560 C   0  0  0  0  0  0  0  0  0  0  0  0
   59.5870   33.2100   49.4110 Br  0  0  0  0  0  0  0  0  0  0  0  0
   59.0380   32.5360   46.6680 C   0  0  0  0  0  0  0  0  0  0  0  0
   58.9824   31.5018   47.0385 H   0  0  0  0  0  0  0  0  0  0  0  0
   56.4200   30.8180   43.9170 C   0  0  0  0  0  0  0  0  0  0  0  0
   56.1416   31.6828   43.2969 H   0  0  0  0  0  0  0  0  0  0  0  0
   55.5070   29.7620   44.1060 C   0  0  0  0  0  0  0  0  0  0  0  0
   54.5197   29.8035   43.6228 H   0  0  0  0  0  0  0  0  0  0  0  0
   55.8340   28.6880   44.8820 N   0  0  0  0  0  0  0  0  0  0  0  0
   55.1460   27.9130   45.0150 H   0  0  0  0  0  0  0  0  0  0  0  0
  1  2  1  0
  2  3  2  0
  3  4  1  0
  4  5  2  0
  5  6  1  0
  5  7  1  0
  7  8  2  0
  8  9  1  0
  9 10  2  0
 10 11  1  0
 10 12  1  0
 12 13  1  0
 12 14  2  0
 14 15  1  0
 14 16  1  0
 16 17  1  0
 16 18  2  0
 18 19  1  0
  7 20  1  0
 20 21  1  0
 20 22  2  0
 22 23  1  0
 22 24  1  0
 24 25  1  0
  6  2  1  0
 18  9  1  0
 24  4  1  0
M  END
>  <UniqueID>  (4) 
4

>  <SMILES>  (4) 
Brc1cccc(/N=c2\cc[nH]c3ncsc23)c1

>  <Energy>  (4) 
72.12916689646092

>  <Genealogy>  (4) 
Brc1cccc(/N=c2\cc[nH]c3ncsc23)c1 (cis-trans isomerization)
Brc1cccc(/N=c2\cc[nH]c3ncsc23)c1 (3D coordinates assigned)
Brc1cccc(/N=c2\cc[nH]c3ncsc23)c1 (optimized conformer: 72.12916689646092 kcal/mol)

>  <smiles>  (4) 
Brc1cccc(N=c2cc[nH]c3ncsc23)c1

>  <score_type>  (4) 
oracle

>  <origin>  (4) 
adg

>  <m_score__min__energy>  (4) 
-7.0599999999999996

>  <m_primary>  (4) 
energy

$$$$
4:0
     RDKit          3D

 43 45  0  0  0  0  0  0  0  0999 V2000
   57.4860   25.7480   44.4520 C   0  0  0  0  0  0  0  0  0  0  0  0
   56.5930   26.3310   45.8740 S   0  0  0  0  0  0  0  0  0  0  0  0
   57.5410   26.4590   47.0330 O   0  0  0  0  0  0  0  0  0  0  0  0
   55.5100   25.3470   46.2150 O   0  0  0  0  0  0  0  0  0  0  0  0
   55.8950   27.8780   45.5050 N   0  0  0  0  0  0  0  0  0  0  0  0
   56.8440   28.6740   44.7340 C   0  0  0  0  0  0  0  0  0  0  0  0
   57.7360   29.4260   45.6740 C   0  0  0  0  0  0  0  0  0  0  0  0
   58.0780   28.9840   46.8970 N   0  0  0  0  0  0  0  0  0  0  0  0
   58.8220   29.9110   47.4790 N   0  0  0  0  0  0  0  0  0  0  0  0
   58.9230   30.9200   46.5900 C   0  0  0  0  0  0  0  0  0  0  0  0
   58.2620   30.6480   45.4410 N   0  0  0  0  0  0  0  0  0  0  0  0
   58.0570   31.4980   44.2580 C   0  0  0  0  0  0  0  0  0  0  0  0
   58.5250   32.9570   44.4450 C   0  0  0  0  0  0  0  0  0  0  0  0
   57.9530   33.6190   45.7170 C   0  0  0  0  0  0  0  0  0  0  0  0
   58.7700   33.3750   46.9380 N   0  0  0  0  0  0  0  0  0  0  0  0
   59.5260   34.5870   47.3230 C   0  0  0  0  0  0  0  0  0  0  0  0
   60.9870   34.2760   47.4960 C   0  0  0  0  0  0  0  0  0  0  0  0
   61.5340   34.0710   48.7730 C   0  0  0  0  0  0  0  0  0  0  0  0
   62.8890   33.7570   48.8920 C   0  0  0  0  0  0  0  0  0  0  0  0
   63.6820   33.6470   47.7490 C   0  0  0  0  0  0  0  0  0  0  0  0
   63.1020   33.8510   46.4950 C   0  0  0  0  0  0  0  0  0  0  0  0
   61.7800   34.1550   46.3960 N   0  0  0  0  0  0  0  0  0  0  0  0
   59.6650   32.1940   46.8630 C   0  0  0  0  0  0  0  0  0  0  0  0
   58.3649   25.1742   44.7809 H   0  0  0  0  0  0  0  0  0  0  0  0
   56.8319   25.1025   43.8475 H   0  0  0  0  0  0  0  0  0  0  0  0
   57.8138   26.6066   43.8475 H   0  0  0  0  0  0  0  0  0  0  0  0
   57.4522   28.0104   44.1017 H   0  0  0  0  0  0  0  0  0  0  0  0
   56.2975   29.3842   44.0961 H   0  0  0  0  0  0  0  0  0  0  0  0
   57.8050   28.0780   47.3410 H   0  0  0  0  0  0  0  0  0  0  0  0
   58.6151   31.0608   43.4169 H   0  0  0  0  0  0  0  0  0  0  0  0
   56.9729   31.5324   44.0746 H   0  0  0  0  0  0  0  0  0  0  0  0
   59.6231   32.9668   44.5090 H   0  0  0  0  0  0  0  0  0  0  0  0
   58.1571   33.5322   43.5825 H   0  0  0  0  0  0  0  0  0  0  0  0
   57.8965   34.7045   45.5481 H   0  0  0  0  0  0  0  0  0  0  0  0
   56.9649   33.1702   45.8964 H   0  0  0  0  0  0  0  0  0  0  0  0
   59.4104   35.3482   46.5374 H   0  0  0  0  0  0  0  0  0  0  0  0
   59.1303   34.9588   48.2796 H   0  0  0  0  0  0  0  0  0  0  0  0
   60.9020   34.1569   49.6692 H   0  0  0  0  0  0  0  0  0  0  0  0
   63.3314   33.5964   49.8862 H   0  0  0  0  0  0  0  0  0  0  0  0
   64.7511   33.4025   47.8347 H   0  0  0  0  0  0  0  0  0  0  0  0
   63.7154   33.7657   45.5859 H   0  0  0  0  0  0  0  0  0  0  0  0
   60.3942   32.3561   46.0555 H   0  0  0  0  0  0  0  0  0  0  0  0
   60.1568   32.0881   47.8412 H   0  0  0  0  0  0  0  0  0  0  0  0
  1  2  1  0
  2  3  2  0
  2  4  2  0
  2  5  1  0
  5  6  1  0
  6  7  1  0
  7  8  2  0
  8  9  1  0
  9 10  2  0
 10 11  1  0
 11 12  1  0
 12 13  1  0
 13 14  1  0
 14 15  1  0
 15 16  1  0
 16 17  1  0
 17 18  2  0
 18 19  1  0
 19 20  2  0
 20 21  1  0
 21 22  2  0
 15 23  1  0
 11  7  1  0
 22 17  1  0
 23 10  1  0
  1 24  1  0
  1 25  1  0
  1 26  1  0
  6 27  1  0
  6 28  1  0
  8 29  1  0
 12 30  1  0
 12 31  1  0
 13 32  1  0
 13 33  1  0
 14 34  1  0
 14 35  1  0
 16 36  1  0
 16 37  1  0
 18 38  1  0
 19 39  1  0
 20 40  1  0
 21 41  1  0
 23 42  1  0
 23 43  1  0
M  CHG  2   5  -1   8   1
M  END
>  <UniqueID>  (5) 
5

>  <SMILES>  (5) 
CS(=O)(=O)[N-]Cc1[nH+]nc2n1CCCN(Cc1ccccn1)C2

>  <Energy>  (5) 
83.71191707575052

>  <Genealogy>  (5) 
CS(=O)(=O)[N-]Cc1[nH+]nc2n1CCCN(Cc1ccccn1)C2 (protonated)
CS(=O)(=O)[N-]Cc1[nH+]nc2n1CCCN(Cc1ccccn1)C2 (3D coordinates assigned)
CS(=O)(=O)[N-]Cc1[nH+]nc2n1CCCN(Cc1ccccn1)C2 (nonaromatic ring conformer: 83.71191707575052 kcal/mol)

>  <smiles>  (5) 
CS(=O)(=O)NCc1nnc2n1CCCN(Cc1ccccn1)C2

>  <score_type>  (5) 
oracle

>  <origin>  (5) 
adg

>  <m_score__min__energy>  (5) 
-6.2000000000000002

>  <m_primary>  (5) 
energy

$$$$
5:0
     RDKit          3D

 37 39  0  0  0  0  0  0  0  0999 V2000
   55.4130   29.1720   44.9020 N   0  0  0  0  0  0  0  0  0  0  0  0
   56.2120   30.2500   44.4220 C   0  0  0  0  0  0  0  0  0  0  0  0
   55.8950   30.8240   43.3470 O   0  0  0  0  0  0  0  0  0  0  0  0
   57.4070   30.6830   45.1740 C   0  0  0  0  0  0  0  0  0  0  0  0
   58.4510   29.8830   45.6360 C   0  0  0  0  0  0  0  0  0  0  0  0
   58.5240   28.4060   45.6160 C   0  0  0  0  0  0  0  0  0  0  0  0
   58.1190   27.6800   44.4820 C   0  0  0  0  0  0  0  0  0  0  0  0
   58.1690   26.2830   44.4850 C   0  0  0  0  0  0  0  0  0  0  0  0
   58.6100   25.5990   45.6230 C   0  0  0  0  0  0  0  0  0  0  0  0
   58.6760   23.6910   45.6250 Br  0  0  0  0  0  0  0  0  0  0  0  0
   58.9960   26.3130   46.7600 C   0  0  0  0  0  0  0  0  0  0  0  0
   58.9480   27.7110   46.7600 C   0  0  0  0  0  0  0  0  0  0  0  0
   59.4160   30.6510   46.1860 N   0  0  0  0  0  0  0  0  0  0  0  0
   59.0150   31.9330   46.0930 C   0  0  0  0  0  0  0  0  0  0  0  0
   59.7960   33.0730   46.6220 C   0  0  0  0  0  0  0  0  0  0  0  0
   59.2950   34.2290   46.5840 O   0  0  0  0  0  0  0  0  0  0  0  0
   61.1350   32.8850   47.2320 C   0  0  0  0  0  0  0  0  0  0  0  0
   62.2670   33.4740   46.6400 C   0  0  0  0  0  0  0  0  0  0  0  0
   63.5340   33.2950   47.2030 C   0  0  0  0  0  0  0  0  0  0  0  0
   63.6860   32.5210   48.3560 C   0  0  0  0  0  0  0  0  0  0  0  0
   62.5720   31.9180   48.9450 C   0  0  0  0  0  0  0  0  0  0  0  0
   62.7830   30.8480   50.5120 Br  0  0  0  0  0  0  0  0  0  0  0  0
   61.3030   32.0930   48.3840 C   0  0  0  0  0  0  0  0  0  0  0  0
   57.7740   31.9890   45.4790 C   0  0  0  0  0  0  0  0  0  0  0  0
   57.0750   33.1790   45.0950 N   0  0  0  0  0  0  0  0  0  0  0  0
   54.4550   29.3400   45.2820 H   0  0  0  0  0  0  0  0  0  0  0  0
   57.7614   28.2135   43.5889 H   0  0  0  0  0  0  0  0  0  0  0  0
   57.8611   25.7206   43.5912 H   0  0  0  0  0  0  0  0  0  0  0  0
   59.3381   25.7751   47.6565 H   0  0  0  0  0  0  0  0  0  0  0  0
   59.2439   28.2687   47.6608 H   0  0  0  0  0  0  0  0  0  0  0  0
   60.2890   30.3060   46.6430 H   0  0  0  0  0  0  0  0  0  0  0  0
   62.1545   34.0792   45.7284 H   0  0  0  0  0  0  0  0  0  0  0  0
   64.4130   33.7645   46.7372 H   0  0  0  0  0  0  0  0  0  0  0  0
   64.6832   32.3863   48.8003 H   0  0  0  0  0  0  0  0  0  0  0  0
   60.4301   31.6086   48.8459 H   0  0  0  0  0  0  0  0  0  0  0  0
   57.4000   34.1180   45.4070 H   0  0  0  0  0  0  0  0  0  0  0  0
   56.2670   33.1460   44.4380 H   0  0  0  0  0  0  0  0  0  0  0  0
  1  2  1  0
  2  3  2  0
  2  4  1  0
  4  5  2  0
  5  6  1  0
  6  7  2  0
  7  8  1  0
  8  9  2  0
  9 10  1  0
  9 11  1  0
 11 12  2  0
  5 13  1  0
 13 14  1  0
 14 15  1  0
 15 16  2  0
 15 17  1  0
 17 18  2  0
 18 19  1  0
 19 20  2  0
 20 21  1  0
 21 22  1  0
 21 23  2  0
 14 24  2  0
 24 25  1  0
 24  4  1  0
 12  6  1  0
 23 17  1  0
  1 26  1  0
  7 27  1  0
  8 28  1  0
 11 29  1  0
 12 30  1  0
 13 31  1  0
 18 32  1  0
 19 33  1  0
 20 34  1  0
 23 35  1  0
 25 36  1  0
 25 37  1  0
M  CHG  1   1  -1
M  END
>  <UniqueID>  (6) 
6

>  <SMILES>  (6) 
[NH-]C(=O)c1c(-c2ccc(Br)cc2)[nH]c(C(=O)c2cccc(Br)c2)c1N

>  <Energy>  (6) 
78.03107025681228

>  <Genealogy>  (6) 
[NH-]C(=O)c1c(-c2ccc(Br)cc2)[nH]c(C(=O)c2cccc(Br)c2)c1N (protonated)
[NH-]C(=O)c1c(-c2ccc(Br)cc2)[nH]c(C(=O)c2cccc(Br)c2)c1N (3D coordinates assigned)
[NH-]C(=O)c1c(-c2ccc(Br)cc2)[nH]c(C(=O)c2cccc(Br)c2)c1N (optimized conformer: 78.03107025681228 kcal/mol)

>  <smiles>  (6) 
NC(=O)c1c(-c2ccc(Br)cc2)[nH]c(C(=O)c2cccc(Br)c2)c1N

>  <score_type>  (6) 
oracle

>  <origin>  (6) 
adg

>  <m_score__min__energy>  (6) 
-10.85

>  <m_primary>  (6) 
energy

$$$$
6:0
     RDKit          3D

 41 42  0  0  0  0  0  0  0  0999 V2000
   63.7520   33.1130   46.7770 C   0  0  0  0  0  0  0  0  0  0  0  0
   62.4140   33.8490   46.7670 C   0  0  0  0  0  0  0  0  0  0  0  0
   61.2570   33.0030   47.2420 C   0  0  0  0  0  0  0  0  0  0  0  0
   61.3250   31.7240   47.7720 C   0  0  0  0  0  0  0  0  0  0  0  0
   60.0160   31.4130   48.0810 C   0  0  0  0  0  0  0  0  0  0  0  0
   59.5380   30.1380   48.6930 C   0  0  0  0  0  0  0  0  0  0  0  0
   58.5190   29.6100   47.9230 F   0  0  0  0  0  0  0  0  0  0  0  0
   59.0690   30.3850   49.9690 F   0  0  0  0  0  0  0  0  0  0  0  0
   59.2070   32.4390   47.7560 N   0  0  0  0  0  0  0  0  0  0  0  0
   59.9660   33.4110   47.2730 N   0  0  0  0  0  0  0  0  0  0  0  0
   59.4300   34.6860   46.7850 C   0  0  0  0  0  0  0  0  0  0  0  0
   58.8050   34.5500   45.3850 C   0  0  0  0  0  0  0  0  0  0  0  0
   57.6660   33.5220   45.3270 C   0  0  0  0  0  0  0  0  0  0  0  0
   58.1950   32.1580   45.2720 N   0  0  0  0  0  0  0  0  0  0  0  0
   57.3920   31.0230   44.9030 C   0  0  0  0  0  0  0  0  0  0  0  0
   56.2150   31.1950   44.4830 O   0  0  0  0  0  0  0  0  0  0  0  0
   57.9020   29.6430   45.0720 C   0  0  0  0  0  0  0  0  0  0  0  0
   59.2920   29.4270   45.1210 C   0  0  0  0  0  0  0  0  0  0  0  0
   59.8060   28.1320   45.2220 C   0  0  0  0  0  0  0  0  0  0  0  0
   58.9400   27.0400   45.2930 C   0  0  0  0  0  0  0  0  0  0  0  0
   57.5590   27.2420   45.2780 C   0  0  0  0  0  0  0  0  0  0  0  0
   57.0350   28.5350   45.1740 C   0  0  0  0  0  0  0  0  0  0  0  0
   55.6900   28.6980   45.2260 F   0  0  0  0  0  0  0  0  0  0  0  0
   64.0673   32.9396   47.8165 H   0  0  0  0  0  0  0  0  0  0  0  0
   63.6434   32.1477   46.2609 H   0  0  0  0  0  0  0  0  0  0  0  0
   64.5091   33.7216   46.2609 H   0  0  0  0  0  0  0  0  0  0  0  0
   62.4952   34.7278   47.4236 H   0  0  0  0  0  0  0  0  0  0  0  0
   62.2050   34.1257   45.7231 H   0  0  0  0  0  0  0  0  0  0  0  0
   62.2189   31.0989   47.9141 H   0  0  0  0  0  0  0  0  0  0  0  0
   60.3711   29.4213   48.7410 H   0  0  0  0  0  0  0  0  0  0  0  0
   58.6588   35.0386   47.4856 H   0  0  0  0  0  0  0  0  0  0  0  0
   60.2628   35.4014   46.7175 H   0  0  0  0  0  0  0  0  0  0  0  0
   58.4068   35.5300   45.0835 H   0  0  0  0  0  0  0  0  0  0  0  0
   59.5967   34.1985   44.7069 H   0  0  0  0  0  0  0  0  0  0  0  0
   57.0385   33.6289   46.2241 H   0  0  0  0  0  0  0  0  0  0  0  0
   57.0730   33.7056   44.4189 H   0  0  0  0  0  0  0  0  0  0  0  0
   59.1750   32.0140   45.5990 H   0  0  0  0  0  0  0  0  0  0  0  0
   59.9792   30.2849   45.0794 H   0  0  0  0  0  0  0  0  0  0  0  0
   60.8942   27.9729   45.2456 H   0  0  0  0  0  0  0  0  0  0  0  0
   59.3458   26.0198   45.3608 H   0  0  0  0  0  0  0  0  0  0  0  0
   56.8791   26.3801   45.3483 H   0  0  0  0  0  0  0  0  0  0  0  0
  1  2  1  0
  2  3  1  0
  3  4  2  0
  4  5  1  0
  5  6  1  0
  6  7  1  0
  6  8  1  0
  5  9  2  0
  9 10  1  0
 10 11  1  0
 11 12  1  0
 12 13  1  0
 13 14  1  0
 14 15  1  0
 15 16  2  0
 15 17  1  0
 17 18  2  0
 18 19  1  0
 19 20  2  0
 20 21  1  0
 21 22  2  0
 22 23  1  0
 10  3  1  0
 22 17  1  0
  1 24  1  0
  1 25  1  0
  1 26  1  0
  2 27  1  0
  2 28  1  0
  4 29  1  0
  6 30  1  0
 11 31  1  0
 11 32  1  0
 12 33  1  0
 12 34  1  0
 13 35  1  0
 13 36  1  0
 14 37  1  0
 18 38  1  0
 19 39  1  0
 20 40  1  0
 21 41  1  0
M  END
>  <UniqueID>  (7) 
7

>  <SMILES>  (7) 
CCc1cc(C(F)F)nn1CCCNC(=O)c1ccccc1F

>  <Energy>  (7) 
62.53841238386658

>  <Genealogy>  (7) 
CCc1cc(C(F)F)nn1CCCNC(=O)c1ccccc1F (3D coordinates assigned)
CCc1cc(C(F)F)nn1CCCNC(=O)c1ccccc1F (optimized conformer: 62.53841238386658 kcal/mol)

>  <smiles>  (7) 
CCc1cc(C(F)F)nn1CCCNC(=O)c1ccccc1F

>  <score_type>  (7) 
oracle

>  <origin>  (7) 
adg

>  <m_score__min__energy>  (7) 
-7.0499999999999998

>  <m_primary>  (7) 
energy

$$$$
7:0
     RDKit          3D

 35 37  0  0  0  0  0  0  0  0999 V2000
   63.5980   33.5540   48.1160 C   0  0  0  0  0  0  0  0  0  0  0  0
   63.3090   33.4690   46.7570 C   0  0  0  0  0  0  0  0  0  0  0  0
   62.0370   33.6570   46.3220 N   0  0  0  0  0  0  0  0  0  0  0  0
   61.0280   33.9400   47.1910 C   0  0  0  0  0  0  0  0  0  0  0  0
   59.6860   34.1010   46.6930 N   0  0  0  0  0  0  0  0  0  0  0  0
   58.5290   33.5320   47.3820 C   0  0  0  0  0  0  0  0  0  0  0  0
   57.7790   32.6060   46.4210 C   0  0  0  0  0  0  0  0  0  0  0  0
   57.6100   33.1870   45.0650 N   0  0  0  0  0  0  0  0  0  0  0  0
   57.9380   32.2670   43.9540 C   0  0  0  0  0  0  0  0  0  0  0  0
   57.7880   30.8150   44.3170 C   0  0  0  0  0  0  0  0  0  0  0  0
   58.8300   29.9440   44.6150 C   0  0  0  0  0  0  0  0  0  0  0  0
   58.3960   28.6500   44.9290 C   0  0  0  0  0  0  0  0  0  0  0  0
   57.0170   28.4950   44.8710 C   0  0  0  0  0  0  0  0  0  0  0  0
   56.3400   29.9680   44.4290 S   0  0  0  0  0  0  0  0  0  0  0  0
   58.0600   34.5870   44.8770 C   0  0  0  0  0  0  0  0  0  0  0  0
   59.4650   34.8490   45.4520 C   0  0  0  0  0  0  0  0  0  0  0  0
   61.2920   34.0100   48.5290 N   0  0  0  0  0  0  0  0  0  0  0  0
   62.5550   33.8270   49.0000 C   0  0  0  0  0  0  0  0  0  0  0  0
   64.6246   33.4093   48.4836 H   0  0  0  0  0  0  0  0  0  0  0  0
   64.1106   33.2497   46.0363 H   0  0  0  0  0  0  0  0  0  0  0  0
   58.8671   32.9584   48.2576 H   0  0  0  0  0  0  0  0  0  0  0  0
   57.8612   34.3404   47.7144 H   0  0  0  0  0  0  0  0  0  0  0  0
   58.3415   31.6650   46.3310 H   0  0  0  0  0  0  0  0  0  0  0  0
   56.7733   32.4465   46.8371 H   0  0  0  0  0  0  0  0  0  0  0  0
   57.2676   32.4865   43.1100 H   0  0  0  0  0  0  0  0  0  0  0  0
   58.9953   32.4304   43.6984 H   0  0  0  0  0  0  0  0  0  0  0  0
   59.8890   30.2414   44.6051 H   0  0  0  0  0  0  0  0  0  0  0  0
   59.0826   27.8333   45.1964 H   0  0  0  0  0  0  0  0  0  0  0  0
   56.4633   27.5675   45.0787 H   0  0  0  0  0  0  0  0  0  0  0  0
   58.0750   34.8089   43.7997 H   0  0  0  0  0  0  0  0  0  0  0  0
   57.3559   35.2350   45.4195 H   0  0  0  0  0  0  0  0  0  0  0  0
   60.2175   34.5418   44.7108 H   0  0  0  0  0  0  0  0  0  0  0  0
   59.5513   35.9224   45.6762 H   0  0  0  0  0  0  0  0  0  0  0  0
   60.5250   34.1690   49.2180 H   0  0  0  0  0  0  0  0  0  0  0  0
   62.7537   33.8945   50.0798 H   0  0  0  0  0  0  0  0  0  0  0  0
  1  2  2  0
  2  3  1  0
  3  4  2  0
  4  5  1  0
  5  6  1  0
  6  7  1  0
  7  8  1  0
  8  9  1  0
  9 10  1  0
 10 11  2  0
 11 12  1  0
 12 13  2  0
 13 14  1  0
  8 15  1  0
 15 16  1  0
  4 17  1  0
 17 18  2  0
 18  1  1  0
 16  5  1  0
 14 10  1  0
  1 19  1  0
  2 20  1  0
  6 21  1  0
  6 22  1  0
  7 23  1  0
  7 24  1  0
  9 25  1  0
  9 26  1  0
 11 27  1  0
 12 28  1  0
 13 29  1  0
 15 30  1  0
 15 31  1  0
 16 32  1  0
 16 33  1  0
 17 34  1  0
 18 35  1  0
M  CHG  1  17   1
M  END
>  <UniqueID>  (8) 
8

>  <SMILES>  (8) 
c1cnc(N2CCN(Cc3cccs3)CC2)[nH+]c1

>  <Energy>  (8) 
74.29350955905694

>  <Genealogy>  (8) 
c1cnc(N2CCN(Cc3cccs3)CC2)[nH+]c1 (protonated)
c1cnc(N2CCN(Cc3cccs3)CC2)[nH+]c1 (3D coordinates assigned)
c1cnc(N2CCN(Cc3cccs3)CC2)[nH+]c1 (nonaromatic ring conformer: 74.29350955905694 kcal/mol)

>  <smiles>  (8) 
c1cnc(N2CCN(Cc3cccs3)CC2)nc1

>  <score_type>  (8) 
oracle

>  <origin>  (8) 
adg

>  <m_score__min__energy>  (8) 
-5.5

>  <m_primary>  (8) 
energy

$$$$
8:0
     RDKit          3D

 43 45  0  0  0  0  0  0  0  0999 V2000
   56.1410   30.8960   52.0860 C   0  0  0  0  0  0  0  0  0  0  0  0
   57.1780   30.4940   51.1960 O   0  0  0  0  0  0  0  0  0  0  0  0
   58.2780   31.2930   50.8490 C   0  0  0  0  0  0  0  0  0  0  0  0
   58.3510   32.5870   51.3760 C   0  0  0  0  0  0  0  0  0  0  0  0
   59.4180   33.4280   51.0470 C   0  0  0  0  0  0  0  0  0  0  0  0
   60.4250   32.9790   50.1910 C   0  0  0  0  0  0  0  0  0  0  0  0
   60.3780   31.6790   49.6650 C   0  0  0  0  0  0  0  0  0  0  0  0
   61.4150   31.2230   48.6760 C   0  0  0  0  0  0  0  0  0  0  0  0
   61.6890   32.2930   47.7120 N   0  0  0  0  0  0  0  0  0  0  0  0
   63.0620   32.7310   47.4740 C   0  0  0  0  0  0  0  0  0  0  0  0
   60.5960   33.0270   47.1370 C   0  0  0  0  0  0  0  0  0  0  0  0
   60.5610   34.4200   47.2650 C   0  0  0  0  0  0  0  0  0  0  0  0
   59.4890   35.1380   46.7340 C   0  0  0  0  0  0  0  0  0  0  0  0
   58.4790   34.4890   46.0990 N   0  0  0  0  0  0  0  0  0  0  0  0
   58.4730   33.1350   45.9570 C   0  0  0  0  0  0  0  0  0  0  0  0
   57.4040   32.5100   45.3060 C   0  0  0  0  0  0  0  0  0  0  0  0
   57.3780   31.1100   45.1660 C   0  0  0  0  0  0  0  0  0  0  0  0
   56.3270   30.4370   44.5240 O   0  0  0  0  0  0  0  0  0  0  0  0
   56.3910   29.9250   43.1970 C   0  0  0  0  0  0  0  0  0  0  0  0
   58.4350   30.3500   45.6800 C   0  0  0  0  0  0  0  0  0  0  0  0
   59.5090   30.9670   46.3270 C   0  0  0  0  0  0  0  0  0  0  0  0
   59.5400   32.3650   46.4740 C   0  0  0  0  0  0  0  0  0  0  0  0
   59.2980   30.8410   49.9890 C   0  0  0  0  0  0  0  0  0  0  0  0
   56.4782   30.7653   53.1248 H   0  0  0  0  0  0  0  0  0  0  0  0
   55.8966   31.9540   51.9102 H   0  0  0  0  0  0  0  0  0  0  0  0
   55.2473   30.2792   51.9102 H   0  0  0  0  0  0  0  0  0  0  0  0
   57.5627   32.9453   52.0544 H   0  0  0  0  0  0  0  0  0  0  0  0
   59.4641   34.4451   51.4633 H   0  0  0  0  0  0  0  0  0  0  0  0
   61.2585   33.6468   49.9278 H   0  0  0  0  0  0  0  0  0  0  0  0
   62.3417   30.9676   49.2107 H   0  0  0  0  0  0  0  0  0  0  0  0
   61.0400   30.3391   48.1393 H   0  0  0  0  0  0  0  0  0  0  0  0
   63.5676   32.8923   48.4375 H   0  0  0  0  0  0  0  0  0  0  0  0
   63.5991   31.9596   46.9026 H   0  0  0  0  0  0  0  0  0  0  0  0
   63.0532   33.6709   46.9026 H   0  0  0  0  0  0  0  0  0  0  0  0
   61.3760   34.9472   47.7826 H   0  0  0  0  0  0  0  0  0  0  0  0
   59.4618   36.2335   46.8300 H   0  0  0  0  0  0  0  0  0  0  0  0
   56.5798   33.1159   44.9016 H   0  0  0  0  0  0  0  0  0  0  0  0
   56.5274   28.8340   43.2311 H   0  0  0  0  0  0  0  0  0  0  0  0
   55.4563   30.1613   42.6673 H   0  0  0  0  0  0  0  0  0  0  0  0
   57.2387   30.3841   42.6673 H   0  0  0  0  0  0  0  0  0  0  0  0
   58.4201   29.2553   45.5735 H   0  0  0  0  0  0  0  0  0  0  0  0
   60.3338   30.3563   46.7230 H   0  0  0  0  0  0  0  0  0  0  0  0
   59.2486   29.8257   49.5686 H   0  0  0  0  0  0  0  0  0  0  0  0
  1  2  1  0
  2  3  1  0
  3  4  2  0
  4  5  1  0
  5  6  2  0
  6  7  1  0
  7  8  1  0
  8  9  1  0
  9 10  1  0
  9 11  1  0
 11 12  2  0
 12 13  1  0
 13 14  2  0
 14 15  1  0
 15 16  2  0
 16 17  1  0
 17 18  1  0
 18 19  1  0
 17 20  2  0
 20 21  1  0
 21 22  2  0
  7 23  2  0
 23  3  1  0
 22 11  1  0
 22 15  1  0
  1 24  1  0
  1 25  1  0
  1 26  1  0
  4 27  1  0
  5 28  1  0
  6 29  1  0
  8 30  1  0
  8 31  1  0
 10 32  1  0
 10 33  1  0
 10 34  1  0
 12 35  1  0
 13 36  1  0
 16 37  1  0
 19 38  1  0
 19 39  1  0
 19 40  1  0
 20 41  1  0
 21 42  1  0
 23 43  1  0
M  END
>  <UniqueID>  (9) 
9

>  <SMILES>  (9) 
COc1cccc(CN(C)c2ccnc3cc(OC)ccc23)c1

>  <Energy>  (9) 
49.22622256278274

>  <Genealogy>  (9) 
COc1cccc(CN(C)c2ccnc3cc(OC)ccc23)c1 (3D coordinates assigned)
COc1cccc(CN(C)c2ccnc3cc(OC)ccc23)c1 (optimized conformer: 49.22622256278274 kcal/mol)

>  <smiles>  (9) 
COc1cccc(CN(C)c2ccnc3cc(OC)ccc23)c1

>  <score_type>  (9) 
oracle

>  <origin>  (9) 
adg

>  <m_score__min__energy>  (9) 
-7.2999999999999998

>  <m_primary>  (9) 
energy

$$$$
9:0
     RDKit          3D

 61 61  0  0  0  0  0  0  0  0999 V2000
   64.2390   32.2070   49.4060 C   0  0  0  0  0  0  0  0  0  0  0  0
   63.4150   32.3880   48.3620 C   0  0  0  0  0  0  0  0  0  0  0  0
   62.5340   31.2270   47.9250 C   0  0  0  0  0  0  0  0  0  0  0  0
   61.2900   31.0850   48.8110 C   0  0  0  0  0  0  0  0  0  0  0  0
   61.0090   29.6360   49.1380 C   0  0  0  0  0  0  0  0  0  0  0  0
   60.0650   28.8760   48.5390 C   0  0  0  0  0  0  0  0  0  0  0  0
   60.2710   27.4050   48.2620 C   0  0  0  0  0  0  0  0  0  0  0  0
   58.7630   29.5280   48.1470 C   0  0  0  0  0  0  0  0  0  0  0  0
   63.4310   33.7430   47.6700 C   0  0  0  0  0  0  0  0  0  0  0  0
   62.5290   33.8670   46.4330 C   0  0  0  0  0  0  0  0  0  0  0  0
   61.0690   33.8920   46.8440 C   0  0  0  0  0  0  0  0  0  0  0  0
   60.7060   34.5030   48.1730 C   0  0  0  0  0  0  0  0  0  0  0  0
   60.0840   33.3240   46.1100 C   0  0  0  0  0  0  0  0  0  0  0  0
   58.8140   32.7370   46.6740 C   0  0  0  0  0  0  0  0  0  0  0  0
   57.6170   32.8970   45.7160 C   0  0  0  0  0  0  0  0  0  0  0  0
   57.5260   31.8370   44.5870 C   0  0  1  0  0  0  0  0  0  0  0  0
   57.7650   32.5070   43.2130 C   0  0  0  0  0  0  0  0  0  0  0  0
   57.3190   31.6480   42.0250 C   0  0  0  0  0  0  0  0  0  0  0  0
   58.5080   30.7050   44.8110 C   0  0  0  0  0  0  0  0  0  0  0  0
   57.8610   29.5530   44.9480 C   0  0  0  0  0  0  0  0  0  0  0  0
   58.4980   28.2040   45.0860 C   0  0  0  0  0  0  0  0  0  0  0  0
   60.0110   28.3090   44.9530 C   0  0  0  0  0  0  0  0  0  0  0  0
   56.4510   29.8320   44.8030 C   0  0  0  0  0  0  0  0  0  0  0  0
   55.5230   28.9830   44.8460 O   0  0  0  0  0  0  0  0  0  0  0  0
   56.2550   31.1860   44.6040 O   0  0  0  0  0  0  0  0  0  0  0  0
   64.8873   33.0289   49.7439 H   0  0  0  0  0  0  0  0  0  0  0  0
   64.2659   31.2368   49.9237 H   0  0  0  0  0  0  0  0  0  0  0  0
   62.2131   31.3959   46.8865 H   0  0  0  0  0  0  0  0  0  0  0  0
   63.1221   30.3017   48.0140 H   0  0  0  0  0  0  0  0  0  0  0  0
   61.4525   31.6384   49.7477 H   0  0  0  0  0  0  0  0  0  0  0  0
   60.4264   31.4904   48.2633 H   0  0  0  0  0  0  0  0  0  0  0  0
   61.6188   29.1644   49.9227 H   0  0  0  0  0  0  0  0  0  0  0  0
   60.3474   26.8597   49.2143 H   0  0  0  0  0  0  0  0  0  0  0  0
   59.4183   27.0176   47.6850 H   0  0  0  0  0  0  0  0  0  0  0  0
   61.1973   27.2667   47.6850 H   0  0  0  0  0  0  0  0  0  0  0  0
   58.2054   29.8072   49.0531 H   0  0  0  0  0  0  0  0  0  0  0  0
   58.9691   30.4293   47.5510 H   0  0  0  0  0  0  0  0  0  0  0  0
   58.1648   28.8231   47.5510 H   0  0  0  0  0  0  0  0  0  0  0  0
   63.1095   34.4999   48.4005 H   0  0  0  0  0  0  0  0  0  0  0  0
   64.4600   33.8837   47.3075 H   0  0  0  0  0  0  0  0  0  0  0  0
   62.7714   34.7979   45.8994 H   0  0  0  0  0  0  0  0  0  0  0  0
   62.7006   33.0003   45.7777 H   0  0  0  0  0  0  0  0  0  0  0  0
   61.0848   33.8654   48.9854 H   0  0  0  0  0  0  0  0  0  0  0  0
   61.1563   35.5035   48.2518 H   0  0  0  0  0  0  0  0  0  0  0  0
   59.6120   34.5860   48.2518 H   0  0  0  0  0  0  0  0  0  0  0  0
   60.2198   33.2876   45.0190 H   0  0  0  0  0  0  0  0  0  0  0  0
   58.9739   31.6653   46.8637 H   0  0  0  0  0  0  0  0  0  0  0  0
   58.5766   33.2793   47.6011 H   0  0  0  0  0  0  0  0  0  0  0  0
   56.6944   32.8388   46.3121 H   0  0  0  0  0  0  0  0  0  0  0  0
   57.7564   33.8656   45.2137 H   0  0  0  0  0  0  0  0  0  0  0  0
   57.2063   33.4542   43.1862 H   0  0  0  0  0  0  0  0  0  0  0  0
   58.8500   32.6578   43.1123 H   0  0  0  0  0  0  0  0  0  0  0  0
   56.8418   30.7289   42.3958 H   0  0  0  0  0  0  0  0  0  0  0  0
   56.6004   32.2131   41.4132 H   0  0  0  0  0  0  0  0  0  0  0  0
   58.1946   31.3854   41.4132 H   0  0  0  0  0  0  0  0  0  0  0  0
   59.6010   30.8207   44.8540 H   0  0  0  0  0  0  0  0  0  0  0  0
   58.2501   27.7865   46.0731 H   0  0  0  0  0  0  0  0  0  0  0  0
   58.1168   27.5489   44.2888 H   0  0  0  0  0  0  0  0  0  0  0  0
   60.4658   28.3406   45.9541 H   0  0  0  0  0  0  0  0  0  0  0  0
   60.3924   27.4352   44.4044 H   0  0  0  0  0  0  0  0  0  0  0  0
   60.2680   29.2271   44.4044 H   0  0  0  0  0  0  0  0  0  0  0  0
  1  2  2  0
  2  3  1  0
  3  4  1  0
  4  5  1  0
  5  6  2  3
  6  7  1  0
  6  8  1  0
  2  9  1  0
  9 10  1  0
 10 11  1  0
 11 12  1  0
 11 13  2  3
 13 14  1  0
 14 15  1  0
 16 15  1  1
 16 17  1  0
 17 18  1  0
 16 19  1  0
 19 20  2  0
 20 21  1  0
 21 22  1  0
 20 23  1  0
 23 24  2  0
 23 25  1  0
 25 16  1  0
  1 26  1  0
  1 27  1  0
  3 28  1  0
  3 29  1  0
  4 30  1  0
  4 31  1  0
  5 32  1  0
  7 33  1  0
  7 34  1  0
  7 35  1  0
  8 36  1  0
  8 37  1  0
  8 38  1  0
  9 39  1  0
  9 40  1  0
 10 41  1  0
 10 42  1  0
 12 43  1  0
 12 44  1  0
 12 45  1  0
 13 46  1  0
 14 47  1  0
 14 48  1  0
 15 49  1  0
 15 50  1  0
 17 51  1  0
 17 52  1  0
 18 53  1  0
 18 54  1  0
 18 55  1  0
 19 56  1  0
 21 57  1  0
 21 58  1  0
 22 59  1  0
 22 60  1  0
 22 61  1  0
M  END
>  <UniqueID>  (10) 
10

>  <SMILES>  (10) 
C=C(CCC=C(C)C)CCC(C)=CCC[C@@]1(CC)C=C(CC)C(=O)O1

>  <Energy>  (10) 
53.84562981604758

>  <Genealogy>  (10) 
C=C(CCC=C(C)C)CCC(C)=CCC[C@@]1(CC)C=C(CC)C(=O)O1 (chirality)
C=C(CCC=C(C)C)CCC(C)=CCC[C@@]1(CC)C=C(CC)C(=O)O1 (3D coordinates assigned)
C=C(CCC=C(C)C)CCC(C)=CCC[C@@]1(CC)C=C(CC)C(=O)O1 (nonaromatic ring conformer: 53.84562981604758 kcal/mol)

>  <smiles>  (10) 
C=C(CCC=C(C)C)CCC(C)=CCCC1(CC)C=C(CC)C(=O)O1

>  <score_type>  (10) 
oracle

>  <origin>  (10) 
adg

>  <m_score__min__energy>  (10) 
-8.6199999999999992

>  <m_primary>  (10) 
energy

$$$$
10:0
     RDKit          3D

 26 27  0  0  0  0  0  0  0  0999 V2000
   63.5030   32.5950   47.5420 C   0  0  0  0  0  0  0  0  0  0  0  0
   62.0600   32.6500   47.1330 C   0  0  0  0  0  0  0  0  0  0  0  0
   61.4970   33.8560   46.6900 C   0  0  0  0  0  0  0  0  0  0  0  0
   60.1630   33.9000   46.2750 C   0  0  0  0  0  0  0  0  0  0  0  0
   59.3810   32.7310   46.2700 C   0  0  0  0  0  0  0  0  0  0  0  0
   57.9990   32.7550   45.8710 N   0  0  0  0  0  0  0  0  0  0  0  0
   57.4450   31.9220   44.8390 C   0  0  0  0  0  0  0  0  0  0  0  0
   57.6780   32.2270   43.4940 C   0  0  0  0  0  0  0  0  0  0  0  0
   57.1030   31.4170   42.5140 C   0  0  0  0  0  0  0  0  0  0  0  0
   57.3030   31.6660   41.2950 O   0  0  0  0  0  0  0  0  0  0  0  0
   56.3270   30.3590   42.8750 N   0  0  0  0  0  0  0  0  0  0  0  0
   56.0990   30.0830   44.1880 C   0  0  0  0  0  0  0  0  0  0  0  0
   55.3750   29.1050   44.5130 O   0  0  0  0  0  0  0  0  0  0  0  0
   56.6510   30.8620   45.1540 N   0  0  0  0  0  0  0  0  0  0  0  0
   59.9460   31.5290   46.7200 C   0  0  0  0  0  0  0  0  0  0  0  0
   61.2800   31.4840   47.1360 C   0  0  0  0  0  0  0  0  0  0  0  0
   63.5731   32.5923   48.6398 H   0  0  0  0  0  0  0  0  0  0  0  0
   63.9625   31.6787   47.1430 H   0  0  0  0  0  0  0  0  0  0  0  0
   64.0309   33.4737   47.1430 H   0  0  0  0  0  0  0  0  0  0  0  0
   62.1077   34.7707   46.6691 H   0  0  0  0  0  0  0  0  0  0  0  0
   59.7223   34.8542   45.9505 H   0  0  0  0  0  0  0  0  0  0  0  0
   57.3440   33.3570   46.4200 H   0  0  0  0  0  0  0  0  0  0  0  0
   58.3022   33.0884   43.2143 H   0  0  0  0  0  0  0  0  0  0  0  0
   55.8980   29.7550   42.1380 H   0  0  0  0  0  0  0  0  0  0  0  0
   59.3350   30.6147   46.7459 H   0  0  0  0  0  0  0  0  0  0  0  0
   61.7193   30.5313   47.4667 H   0  0  0  0  0  0  0  0  0  0  0  0
  1  2  1  0
  2  3  2  0
  3  4  1  0
  4  5  2  0
  5  6  1  0
  6  7  1  0
  7  8  2  0
  8  9  1  0
  9 10  2  0
  9 11  1  0
 11 12  1  0
 12 13  2  0
 12 14  1  0
  5 15  1  0
 15 16  2  0
 16  2  1  0
 14  7  1  0
  1 17  1  0
  1 18  1  0
  1 19  1  0
  3 20  1  0
  4 21  1  0
  6 22  1  0
  8 23  1  0
 11 24  1  0
 15 25  1  0
 16 26  1  0
M  CHG  1  14  -1
M  END
>  <UniqueID>  (11) 
11

>  <SMILES>  (11) 
Cc1ccc(Nc2cc(=O)[nH]c(=O)[n-]2)cc1

>  <Energy>  (11) 
30.59307173002606

>  <Genealogy>  (11) 
Cc1ccc(Nc2cc(=O)[nH]c(=O)[n-]2)cc1 (protonated)
Cc1ccc(Nc2cc(=O)[nH]c(=O)[n-]2)cc1 (3D coordinates assigned)
Cc1ccc(Nc2cc(=O)[nH]c(=O)[n-]2)cc1 (optimized conformer: 30.59307173002606 kcal/mol)

>  <smiles>  (11) 
Cc1ccc(Nc2cc(=O)[nH]c(=O)[nH]2)cc1

>  <score_type>  (11) 
oracle

>  <origin>  (11) 
adg

>  <m_score__min__energy>  (11) 
-8.3499999999999996

>  <m_primary>  (11) 
energy

$$$$
11:0
     RDKit          3D

 29 30  0  0  0  0  0  0  0  0999 V2000
   60.4380   28.4970   45.0690 C   0  0  0  0  0  0  0  0  0  0  0  0
   59.0860   28.9150   44.6570 N   0  0  0  0  0  0  0  0  0  0  0  0
   58.3770   28.1700   43.7560 C   0  0  0  0  0  0  0  0  0  0  0  0
   58.8580   27.1040   43.2820 O   0  0  0  0  0  0  0  0  0  0  0  0
   57.1470   28.5730   43.3620 N   0  0  0  0  0  0  0  0  0  0  0  0
   56.6070   29.7240   43.8350 C   0  0  0  0  0  0  0  0  0  0  0  0
   55.4570   30.0580   43.4450 O   0  0  0  0  0  0  0  0  0  0  0  0
   57.3160   30.5010   44.7160 N   0  0  0  0  0  0  0  0  0  0  0  0
   56.8550   31.7060   45.2440 O   0  0  0  0  0  0  0  0  0  0  0  0
   57.1960   33.0080   44.7760 C   0  0  0  0  0  0  0  0  0  0  0  0
   58.1870   33.6220   45.7210 C   0  0  0  0  0  0  0  0  0  0  0  0
   59.1020   34.5830   45.2630 C   0  0  0  0  0  0  0  0  0  0  0  0
   59.9980   35.1820   46.1530 C   0  0  0  0  0  0  0  0  0  0  0  0
   59.9780   34.8360   47.5070 C   0  0  0  0  0  0  0  0  0  0  0  0
   59.0580   33.8930   47.9740 C   0  0  0  0  0  0  0  0  0  0  0  0
   58.1610   33.2910   47.0870 C   0  0  0  0  0  0  0  0  0  0  0  0
   58.5570   30.0930   45.1120 C   0  0  0  0  0  0  0  0  0  0  0  0
   59.2180   30.8180   45.9080 O   0  0  0  0  0  0  0  0  0  0  0  0
   60.4974   28.4786   46.1672 H   0  0  0  0  0  0  0  0  0  0  0  0
   60.6475   27.4921   44.6736 H   0  0  0  0  0  0  0  0  0  0  0  0
   61.1781   29.2083   44.6736 H   0  0  0  0  0  0  0  0  0  0  0  0
   56.6070   27.9910   42.6800 H   0  0  0  0  0  0  0  0  0  0  0  0
   57.6399   32.9347   43.7722 H   0  0  0  0  0  0  0  0  0  0  0  0
   56.2927   33.6337   44.7260 H   0  0  0  0  0  0  0  0  0  0  0  0
   59.1139   34.8656   44.2000 H   0  0  0  0  0  0  0  0  0  0  0  0
   60.7200   35.9269   45.7872 H   0  0  0  0  0  0  0  0  0  0  0  0
   60.6863   35.3058   48.2052 H   0  0  0  0  0  0  0  0  0  0  0  0
   59.0399   33.6244   49.0405 H   0  0  0  0  0  0  0  0  0  0  0  0
   57.4323   32.5558   47.4591 H   0  0  0  0  0  0  0  0  0  0  0  0
  1  2  1  0
  2  3  1  0
  3  4  2  0
  3  5  1  0
  5  6  1  0
  6  7  2  0
  6  8  1  0
  8  9  1  0
  9 10  1  0
 10 11  1  0
 11 12  2  0
 12 13  1  0
 13 14  2  0
 14 15  1  0
 15 16  2  0
  8 17  1  0
 17 18  2  0
 17  2  1  0
 16 11  1  0
  1 19  1  0
  1 20  1  0
  1 21  1  0
  5 22  1  0
 10 23  1  0
 10 24  1  0
 12 25  1  0
 13 26  1  0
 14 27  1  0
 15 28  1  0
 16 29  1  0
M  END
>  <UniqueID>  (12) 
12

>  <SMILES>  (12) 
Cn1c(=O)[nH]c(=O)n(OCc2ccccc2)c1=O

>  <Energy>  (12) 
37.13250938555755

>  <Genealogy>  (12) 
Cn1c(=O)[nH]c(=O)n(OCc2ccccc2)c1=O (3D coordinates assigned)
Cn1c(=O)[nH]c(=O)n(OCc2ccccc2)c1=O (optimized conformer: 37.13250938555755 kcal/mol)

>  <smiles>  (12) 
Cn1c(=O)[nH]c(=O)n(OCc2ccccc2)c1=O

>  <score_type>  (12) 
oracle

>  <origin>  (12) 
adg

>  <m_score__min__energy>  (12) 
-6.6900000000000004

>  <m_primary>  (12) 
energy

$$$$
12:0
     RDKit          3D

 43 45  0  0  0  0  0  0  0  0999 V2000
   58.9400   34.3310   45.4150 C   0  0  0  0  0  0  0  0  0  0  0  0
   58.4490   32.9850   44.9490 C   0  0  0  0  0  0  0  0  0  0  0  0
   57.8200   32.8850   43.6950 C   0  0  0  0  0  0  0  0  0  0  0  0
   57.3760   31.6510   43.2190 C   0  0  0  0  0  0  0  0  0  0  0  0
   57.5660   30.4980   43.9800 C   0  0  0  0  0  0  0  0  0  0  0  0
   58.2020   30.5760   45.2200 C   0  0  0  0  0  0  0  0  0  0  0  0
   58.6540   31.8100   45.7180 C   0  0  0  0  0  0  0  0  0  0  0  0
   59.3030   31.8630   47.0810 C   0  0  0  0  0  0  0  0  0  0  0  0
   58.7020   30.9000   47.9490 O   0  0  0  0  0  0  0  0  0  0  0  0
   59.3840   29.9180   48.6880 C   0  0  0  0  0  0  0  0  0  0  0  0
   60.1000   30.2300   49.8620 C   0  0  0  0  0  0  0  0  0  0  0  0
   60.7550   29.2290   50.5800 C   0  0  0  0  0  0  0  0  0  0  0  0
   60.6900   27.9030   50.1520 C   0  0  0  0  0  0  0  0  0  0  0  0
   61.4990   26.6450   51.0670 Cl  0  0  0  0  0  0  0  0  0  0  0  0
   59.9750   27.5780   48.9980 C   0  0  0  0  0  0  0  0  0  0  0  0
   59.3360   28.5790   48.2450 C   0  0  0  0  0  0  0  0  0  0  0  0
   58.6420   28.2530   47.0250 N   0  0  0  0  0  0  0  0  0  0  0  0
   59.2830   27.1680   45.8310 S   0  0  0  0  0  0  0  0  0  0  0  0
   59.1940   27.8250   44.4820 O   0  0  0  0  0  0  0  0  0  0  0  0
   60.7260   26.8800   46.1330 O   0  0  0  0  0  0  0  0  0  0  0  0
   58.3850   25.6480   45.8270 C   0  0  0  0  0  0  0  0  0  0  0  0
   59.0390   24.4060   45.7930 C   0  0  0  0  0  0  0  0  0  0  0  0
   58.1830   23.3200   45.7030 C   0  0  0  0  0  0  0  0  0  0  0  0
   56.6080   23.8990   45.6640 S   0  0  0  0  0  0  0  0  0  0  0  0
   56.9900   25.5350   45.7680 C   0  0  0  0  0  0  0  0  0  0  0  0
   55.9810   26.6090   45.7930 C   0  0  0  0  0  0  0  0  0  0  0  0
   54.7760   26.3290   46.0220 O   0  0  0  0  0  0  0  0  0  0  0  0
   56.3410   27.9340   45.5980 O   0  0  0  0  0  0  0  0  0  0  0  0
   58.9496   34.3572   46.5146 H   0  0  0  0  0  0  0  0  0  0  0  0
   59.9582   34.5015   45.0353 H   0  0  0  0  0  0  0  0  0  0  0  0
   58.2707   35.1170   45.0353 H   0  0  0  0  0  0  0  0  0  0  0  0
   57.6768   33.7883   43.0838 H   0  0  0  0  0  0  0  0  0  0  0  0
   56.8752   31.5875   42.2417 H   0  0  0  0  0  0  0  0  0  0  0  0
   57.2144   29.5264   43.6028 H   0  0  0  0  0  0  0  0  0  0  0  0
   58.3510   29.6620   45.8137 H   0  0  0  0  0  0  0  0  0  0  0  0
   60.3763   31.6435   46.9817 H   0  0  0  0  0  0  0  0  0  0  0  0
   59.1642   32.8677   47.5069 H   0  0  0  0  0  0  0  0  0  0  0  0
   60.1425   31.2711   50.2146 H   0  0  0  0  0  0  0  0  0  0  0  0
   61.3240   29.4861   51.4857 H   0  0  0  0  0  0  0  0  0  0  0  0
   59.9108   26.5286   48.6745 H   0  0  0  0  0  0  0  0  0  0  0  0
   57.7860   28.7890   46.7600 H   0  0  0  0  0  0  0  0  0  0  0  0
   60.1335   24.3041   45.8341 H   0  0  0  0  0  0  0  0  0  0  0  0
   58.4834   22.2625   45.6639 H   0  0  0  0  0  0  0  0  0  0  0  0
  1  2  1  0
  2  3  2  0
  3  4  1  0
  4  5  2  0
  5  6  1  0
  6  7  2  0
  7  8  1  0
  8  9  1  0
  9 10  1  0
 10 11  2  0
 11 12  1  0
 12 13  2  0
 13 14  1  0
 13 15  1  0
 15 16  2  0
 16 17  1  0
 17 18  1  0
 18 19  2  0
 18 20  2  0
 18 21  1  0
 21 22  1  0
 22 23  2  0
 23 24  1  0
 24 25  1  0
 25 26  1  0
 26 27  2  0
 26 28  1  0
  7  2  1  0
 16 10  1  0
 25 21  2  0
  1 29  1  0
  1 30  1  0
  1 31  1  0
  3 32  1  0
  4 33  1  0
  5 34  1  0
  6 35  1  0
  8 36  1  0
  8 37  1  0
 11 38  1  0
 12 39  1  0
 15 40  1  0
 17 41  1  0
 22 42  1  0
 23 43  1  0
M  CHG  1  28  -1
M  END
>  <UniqueID>  (13) 
13

>  <SMILES>  (13) 
Cc1ccccc1COc1ccc(Cl)cc1NS(=O)(=O)c1ccsc1C(=O)[O-]

>  <Energy>  (13) 
74.8588486781143

>  <Genealogy>  (13) 
Cc1ccccc1COc1ccc(Cl)cc1NS(=O)(=O)c1ccsc1C(=O)[O-] (protonated)
Cc1ccccc1COc1ccc(Cl)cc1NS(=O)(=O)c1ccsc1C(=O)[O-] (3D coordinates assigned)
Cc1ccccc1COc1ccc(Cl)cc1NS(=O)(=O)c1ccsc1C(=O)[O-] (optimized conformer: 74.8588486781143 kcal/mol)

>  <smiles>  (13) 
Cc1ccccc1COc1ccc(Cl)cc1NS(=O)(=O)c1ccsc1C(=O)O

>  <score_type>  (13) 
oracle

>  <origin>  (13) 
adg

>  <m_score__min__energy>  (13) 
-11.31

>  <m_primary>  (13) 
energy

$$$$
13:0
     RDKit          3D

 47 49  0  0  1  0  0  0  0  0999 V2000
   61.0790   33.7840   49.3780 C   0  0  0  0  0  0  0  0  0  0  0  0
   60.5020   32.4950   48.9030 C   0  0  0  0  0  0  0  0  0  0  0  0
   59.4670   31.8860   49.6110 C   0  0  0  0  0  0  0  0  0  0  0  0
   58.9040   30.6920   49.2080 C   0  0  0  0  0  0  0  0  0  0  0  0
   59.3810   30.0790   48.0640 C   0  0  0  0  0  0  0  0  0  0  0  0
   58.8450   28.8470   47.5930 N   0  0  0  0  0  0  0  0  0  0  0  0
   59.6340   27.6790   47.7870 C   0  0  0  0  0  0  0  0  0  0  0  0
   60.7700   27.7100   48.3540 O   0  0  0  0  0  0  0  0  0  0  0  0
   59.1820   26.3220   47.3380 C   0  0  0  0  0  0  0  0  0  0  0  0
   58.7730   26.3640   45.5740 S   0  0  0  0  0  0  0  0  0  0  0  0
   58.3230   28.0120   45.0400 C   0  0  0  0  0  0  0  0  0  0  0  0
   57.0620   28.4760   45.1160 N   0  0  0  0  0  0  0  0  0  0  0  0
   56.7290   29.7210   44.7110 C   0  0  0  0  0  0  0  0  0  0  0  0
   55.5490   30.0640   44.8160 O   0  0  0  0  0  0  0  0  0  0  0  0
   57.6760   30.5730   44.2020 C   0  0  0  0  0  0  0  0  0  0  0  0
   57.3990   31.9540   43.7390 C   0  0  2  0  0  0  0  0  0  0  0  0
   57.9980   32.2660   42.3850 C   0  0  0  0  0  0  0  0  0  0  0  0
   57.9430   32.9170   44.7160 C   0  0  0  0  0  0  0  0  0  0  0  0
   58.8960   33.8670   44.4280 C   0  0  0  0  0  0  0  0  0  0  0  0
   59.3850   34.7520   45.3760 C   0  0  0  0  0  0  0  0  0  0  0  0
   58.9210   34.7070   46.6700 C   0  0  0  0  0  0  0  0  0  0  0  0
   57.9600   33.7590   46.9850 C   0  0  0  0  0  0  0  0  0  0  0  0
   57.4770   32.8740   46.0190 C   0  0  0  0  0  0  0  0  0  0  0  0
   58.9460   30.0880   44.1340 N   0  0  0  0  0  0  0  0  0  0  0  0
   59.2460   28.8630   44.5360 N   0  0  0  0  0  0  0  0  0  0  0  0
   60.4130   30.6680   47.3440 C   0  0  0  0  0  0  0  0  0  0  0  0
   60.8950   30.0720   46.2100 F   0  0  0  0  0  0  0  0  0  0  0  0
   60.9780   31.8670   47.7490 C   0  0  0  0  0  0  0  0  0  0  0  0
   61.0859   33.7994   50.4779 H   0  0  0  0  0  0  0  0  0  0  0  0
   62.1083   33.8851   49.0034 H   0  0  0  0  0  0  0  0  0  0  0  0
   60.4688   34.6190   49.0034 H   0  0  0  0  0  0  0  0  0  0  0  0
   59.0864   32.3731   50.5209 H   0  0  0  0  0  0  0  0  0  0  0  0
   58.0885   30.2352   49.7879 H   0  0  0  0  0  0  0  0  0  0  0  0
   57.9120   28.7740   47.1190 H   0  0  0  0  0  0  0  0  0  0  0  0
   59.9884   25.5935   47.5086 H   0  0  0  0  0  0  0  0  0  0  0  0
   58.2899   26.0284   47.9107 H   0  0  0  0  0  0  0  0  0  0  0  0
   56.3060   32.0375   43.6477 H   0  0  0  0  0  0  0  0  0  0  0  0
   58.9662   32.7703   42.5198 H   0  0  0  0  0  0  0  0  0  0  0  0
   58.1465   31.3307   41.8254 H   0  0  0  0  0  0  0  0  0  0  0  0
   57.3167   32.9238   41.8254 H   0  0  0  0  0  0  0  0  0  0  0  0
   59.2865   33.9266   43.4014 H   0  0  0  0  0  0  0  0  0  0  0  0
   60.1469   35.4930   45.0925 H   0  0  0  0  0  0  0  0  0  0  0  0
   59.3013   35.4028   47.4324 H   0  0  0  0  0  0  0  0  0  0  0  0
   57.5716   33.7030   48.0126 H   0  0  0  0  0  0  0  0  0  0  0  0
   56.7147   32.1314   46.2975 H   0  0  0  0  0  0  0  0  0  0  0  0
   60.2370   28.5340   44.4640 H   0  0  0  0  0  0  0  0  0  0  0  0
   61.7940   32.3203   47.1671 H   0  0  0  0  0  0  0  0  0  0  0  0
  1  2  1  0
  2  3  2  0
  3  4  1  0
  4  5  2  0
  5  6  1  0
  6  7  1  0
  7  8  2  0
  7  9  1  0
  9 10  1  0
 10 11  1  0
 11 12  2  0
 12 13  1  0
 13 14  2  0
 13 15  1  0
 15 16  1  0
 16 17  1  0
 16 18  1  0
 18 19  2  0
 19 20  1  0
 20 21  2  0
 21 22  1  0
 22 23  2  0
 15 24  2  0
 24 25  1  0
  5 26  1  0
 26 27  1  0
 26 28  2  0
 28  2  1  0
 25 11  1  0
 23 18  1  0
  1 29  1  0
  1 30  1  0
  1 31  1  0
  3 32  1  0
  4 33  1  0
  6 34  1  0
  9 35  1  0
  9 36  1  0
 16 37  1  6
 17 38  1  0
 17 39  1  0
 17 40  1  0
 19 41  1  0
 20 42  1  0
 21 43  1  0
 22 44  1  0
 23 45  1  0
 25 46  1  0
 28 47  1  0
M  END
>  <smiles>  (14) 
Cc1ccc(NC(=O)CSc2nc(=O)c(C(C)c3ccccc3)n[nH]2)c(F)c1

>  <score_type>  (14) 
oracle

>  <origin>  (14) 
adg

>  <m_score__min__energy>  (14) 
-8.6899999999999995

>  <m_primary>  (14) 
energy

$$$$
14:0
     RDKit          3D

 39 41  0  0  1  0  0  0  0  0999 V2000
   55.2060   24.9510   45.6880 C   0  0  0  0  0  0  0  0  0  0  0  0
   55.7350   26.0730   46.3710 O   0  0  0  0  0  0  0  0  0  0  0  0
   57.1180   26.1900   46.4240 C   0  0  0  0  0  0  0  0  0  0  0  0
   57.9520   25.2530   45.8630 C   0  0  0  0  0  0  0  0  0  0  0  0
   59.3060   25.4670   45.9740 C   0  0  0  0  0  0  0  0  0  0  0  0
   59.8330   26.5790   46.6220 C   0  0  0  0  0  0  0  0  0  0  0  0
   58.9940   27.5450   47.2010 C   0  0  0  0  0  0  0  0  0  0  0  0
   59.5400   28.7370   47.9030 C   0  0  0  0  0  0  0  0  0  0  0  0
   59.6250   29.9100   47.1730 N   0  0  0  0  0  0  0  0  0  0  0  0
   58.8360   30.5610   46.4780 C   0  0  0  0  0  0  0  0  0  0  0  0
   57.9770   29.9220   45.6650 N   0  0  0  0  0  0  0  0  0  0  0  0
   57.1090   30.5450   44.8490 C   0  0  0  0  0  0  0  0  0  0  0  0
   56.1970   29.8110   43.9840 C   0  0  0  0  0  0  0  0  0  0  0  0
   56.5100   29.5910   42.6270 N   0  0  0  0  0  0  0  0  0  0  0  0
   55.0920   29.3420   44.4100 O   0  0  0  0  0  0  0  0  0  0  0  0
   57.1170   31.8890   44.8610 N   0  0  0  0  0  0  0  0  0  0  0  0
   57.9620   32.5590   45.6630 C   0  0  0  0  0  0  0  0  0  0  0  0
   57.9210   33.9210   45.6360 C   0  0  0  0  0  0  0  0  0  0  0  0
   58.7910   34.5870   46.4700 C   0  0  0  0  0  0  0  0  0  0  0  0
   59.6750   33.9860   47.3070 C   0  0  0  0  0  0  0  0  0  0  0  0
   59.7210   32.5720   47.3380 C   0  0  0  0  0  0  0  0  0  0  0  0
   58.8610   31.9330   46.5100 C   0  0  0  0  0  0  0  0  0  0  0  0
   57.6450   27.2850   47.0620 C   0  0  0  0  0  0  0  0  0  0  0  0
   54.8557   24.2080   46.4196 H   0  0  0  0  0  0  0  0  0  0  0  0
   54.3633   25.2697   45.0569 H   0  0  0  0  0  0  0  0  0  0  0  0
   55.9881   24.5037   45.0569 H   0  0  0  0  0  0  0  0  0  0  0  0
   57.5529   24.3678   45.3462 H   0  0  0  0  0  0  0  0  0  0  0  0
   59.9968   24.7324   45.5345 H   0  0  0  0  0  0  0  0  0  0  0  0
   60.9242   26.7039   46.6820 H   0  0  0  0  0  0  0  0  0  0  0  0
   58.8969   28.9334   48.7735 H   0  0  0  0  0  0  0  0  0  0  0  0
   60.5803   28.4748   48.1460 H   0  0  0  0  0  0  0  0  0  0  0  0
   57.9560   28.8770   45.6390 H   0  0  0  0  0  0  0  0  0  0  0  0
   57.4970   29.4200   42.3440 H   0  0  0  0  0  0  0  0  0  0  0  0
   55.7870   29.5910   41.8870 H   0  0  0  0  0  0  0  0  0  0  0  0
   57.2253   34.4630   44.9786 H   0  0  0  0  0  0  0  0  0  0  0  0
   58.7681   35.6867   46.4572 H   0  0  0  0  0  0  0  0  0  0  0  0
   60.3404   34.5846   47.9465 H   0  0  0  0  0  0  0  0  0  0  0  0
   60.4134   32.0251   47.9949 H   0  0  0  0  0  0  0  0  0  0  0  0
   56.9399   28.0098   47.4950 H   0  0  0  0  0  0  0  0  0  0  0  0
  1  2  1  0
  2  3  1  0
  3  4  2  0
  4  5  1  0
  5  6  2  0
  6  7  1  0
  7  8  1  0
  8  9  1  0
  9 10  2  0
 10 11  1  0
 11 12  1  0
 12 13  1  0
 13 14  1  0
 13 15  2  0
 12 16  2  0
 16 17  1  0
 17 18  2  0
 18 19  1  0
 19 20  2  0
 20 21  1  0
 21 22  2  0
  7 23  2  0
 23  3  1  0
 22 10  1  0
 22 17  1  0
  1 24  1  0
  1 25  1  0
  1 26  1  0
  4 27  1  0
  5 28  1  0
  6 29  1  0
  8 30  1  0
  8 31  1  0
 11 32  1  0
 14 33  1  0
 14 34  1  0
 18 35  1  0
 19 36  1  0
 20 37  1  0
 21 38  1  0
 23 39  1  0
M  END
>  <smiles>  (15) 
COc1cccc(CN=c2[nH]c(C(N)=O)nc3ccccc23)c1

>  <score_type>  (15) 
oracle

>  <origin>  (15) 
adg

>  <m_score__min__energy>  (15) 
-8.5899999999999999

>  <m_primary>  (15) 
energy

$$$$
15:0
     RDKit          3D

 52 55  0  0  0  0  0  0  0  0999 V2000
   59.4490   33.8130   50.7290 C   0  0  0  0  0  0  0  0  0  0  0  0
   60.7200   33.0150   50.4110 C   0  0  0  0  0  0  0  0  0  0  0  0
   61.6470   33.0020   51.6320 C   0  0  0  0  0  0  0  0  0  0  0  0
   61.4350   33.6720   49.2420 C   0  0  0  0  0  0  0  0  0  0  0  0
   61.3350   33.1970   47.9970 C   0  0  0  0  0  0  0  0  0  0  0  0
   60.6230   31.9390   47.7300 C   0  0  0  0  0  0  0  0  0  0  0  0
   60.4490   31.4650   46.4230 C   0  0  0  0  0  0  0  0  0  0  0  0
   59.8020   30.2390   46.1970 C   0  0  0  0  0  0  0  0  0  0  0  0
   59.6620   29.7060   44.7980 C   0  0  0  0  0  0  0  0  0  0  0  0
   58.2650   29.3420   44.5390 N   0  0  0  0  0  0  0  0  0  0  0  0
   57.8150   27.9990   44.7860 C   0  0  0  0  0  0  0  0  0  0  0  0
   58.1520   26.9640   43.8990 C   0  0  0  0  0  0  0  0  0  0  0  0
   57.7350   25.6540   44.1530 C   0  0  0  0  0  0  0  0  0  0  0  0
   56.9790   25.3680   45.2940 C   0  0  0  0  0  0  0  0  0  0  0  0
   56.6380   26.3930   46.1800 C   0  0  0  0  0  0  0  0  0  0  0  0
   57.0530   27.7040   45.9290 C   0  0  0  0  0  0  0  0  0  0  0  0
   57.1030   30.5920   44.2040 S   0  0  0  0  0  0  0  0  0  0  0  0
   55.7840   30.2290   44.8280 O   0  0  0  0  0  0  0  0  0  0  0  0
   56.9140   30.7280   42.7190 O   0  0  0  0  0  0  0  0  0  0  0  0
   57.6790   32.1330   44.8320 C   0  0  0  0  0  0  0  0  0  0  0  0
   58.4470   32.9710   44.0120 C   0  0  0  0  0  0  0  0  0  0  0  0
   58.9320   34.1860   44.5080 C   0  0  0  0  0  0  0  0  0  0  0  0
   58.6550   34.5650   45.8240 C   0  0  0  0  0  0  0  0  0  0  0  0
   57.8930   33.7300   46.6470 C   0  0  0  0  0  0  0  0  0  0  0  0
   57.4060   32.5150   46.1540 C   0  0  0  0  0  0  0  0  0  0  0  0
   59.3530   29.4830   47.2930 C   0  0  0  0  0  0  0  0  0  0  0  0
   59.5300   29.9560   48.5960 C   0  0  0  0  0  0  0  0  0  0  0  0
   60.1570   31.1860   48.8140 C   0  0  0  0  0  0  0  0  0  0  0  0
   60.3470   31.6590   50.1160 O   0  0  0  0  0  0  0  0  0  0  0  0
   59.3273   33.8894   51.8196 H   0  0  0  0  0  0  0  0  0  0  0  0
   59.5318   34.8215   50.2977 H   0  0  0  0  0  0  0  0  0  0  0  0
   58.5766   33.3002   50.2977 H   0  0  0  0  0  0  0  0  0  0  0  0
   61.0428   33.0105   52.5512 H   0  0  0  0  0  0  0  0  0  0  0  0
   62.2691   32.0950   51.6105 H   0  0  0  0  0  0  0  0  0  0  0  0
   62.2943   33.8912   51.6105 H   0  0  0  0  0  0  0  0  0  0  0  0
   62.0523   34.5637   49.4259 H   0  0  0  0  0  0  0  0  0  0  0  0
   61.7899   33.7528   47.1638 H   0  0  0  0  0  0  0  0  0  0  0  0
   60.8201   32.0546   45.5717 H   0  0  0  0  0  0  0  0  0  0  0  0
   59.9766   30.4782   44.0805 H   0  0  0  0  0  0  0  0  0  0  0  0
   60.2951   28.8135   44.6859 H   0  0  0  0  0  0  0  0  0  0  0  0
   58.7467   27.1849   43.0004 H   0  0  0  0  0  0  0  0  0  0  0  0
   58.0019   24.8473   43.4544 H   0  0  0  0  0  0  0  0  0  0  0  0
   56.6530   24.3366   45.4939 H   0  0  0  0  0  0  0  0  0  0  0  0
   56.0419   26.1680   47.0767 H   0  0  0  0  0  0  0  0  0  0  0  0
   56.7819   28.5079   46.6291 H   0  0  0  0  0  0  0  0  0  0  0  0
   58.6688   32.6729   42.9767 H   0  0  0  0  0  0  0  0  0  0  0  0
   59.5318   34.8434   43.8614 H   0  0  0  0  0  0  0  0  0  0  0  0
   59.0365   35.5207   46.2128 H   0  0  0  0  0  0  0  0  0  0  0  0
   57.6763   34.0289   47.6832 H   0  0  0  0  0  0  0  0  0  0  0  0
   56.8084   31.8584   46.8034 H   0  0  0  0  0  0  0  0  0  0  0  0
   58.8599   28.5143   47.1246 H   0  0  0  0  0  0  0  0  0  0  0  0
   59.1758   29.3602   49.4502 H   0  0  0  0  0  0  0  0  0  0  0  0
  1  2  1  0
  2  3  1  0
  2  4  1  0
  4  5  2  0
  5  6  1  0
  6  7  2  0
  7  8  1  0
  8  9  1  0
  9 10  1  0
 10 11  1  0
 11 12  2  0
 12 13  1  0
 13 14  2  0
 14 15  1  0
 15 16  2  0
 10 17  1  0
 17 18  2  0
 17 19  2  0
 17 20  1  0
 20 21  2  0
 21 22  1  0
 22 23  2  0
 23 24  1  0
 24 25  2  0
  8 26  2  0
 26 27  1  0
 27 28  2  0
 28 29  1  0
 29  2  1  0
 28  6  1  0
 16 11  1  0
 25 20  1  0
  1 30  1  0
  1 31  1  0
  1 32  1  0
  3 33  1  0
  3 34  1  0
  3 35  1  0
  4 36  1  0
  5 37  1  0
  7 38  1  0
  9 39  1  0
  9 40  1  0
 12 41  1  0
 13 42  1  0
 14 43  1  0
 15 44  1  0
 16 45  1  0
 21 46  1  0
 22 47  1  0
 23 48  1  0
 24 49  1  0
 25 50  1  0
 26 51  1  0
 27 52  1  0
M  END
>  <UniqueID>  (16) 
14

>  <SMILES>  (16) 
CC1(C)C=Cc2cc(CN(c3ccccc3)S(=O)(=O)c3ccccc3)ccc2O1

>  <Energy>  (16) 
57.65133393039885

>  <Genealogy>  (16) 
CC1(C)C=Cc2cc(CN(c3ccccc3)S(=O)(=O)c3ccccc3)ccc2O1 (3D coordinates assigned)
CC1(C)C=Cc2cc(CN(c3ccccc3)S(=O)(=O)c3ccccc3)ccc2O1 (nonaromatic ring conformer: 57.65133393039885 kcal/mol)

>  <smiles>  (16) 
CC1(C)C=Cc2cc(CN(c3ccccc3)S(=O)(=O)c3ccccc3)ccc2O1

>  <score_type>  (16) 
oracle

>  <origin>  (16) 
adg

>  <m_score__min__energy>  (16) 
-9.8499999999999996

>  <m_primary>  (16) 
energy

$$$$
16:0
     RDKit          3D

 42 43  0  0  0  0  0  0  0  0999 V2000
   66.7800   33.0010   50.8550 C   0  0  0  0  0  0  0  0  0  0  0  0
   65.4340   33.4180   50.3580 C   0  0  0  0  0  0  0  0  0  0  0  0
   64.6860   34.1060   51.1040 O   0  0  0  0  0  0  0  0  0  0  0  0
   65.0460   33.1160   49.0090 N   0  0  0  0  0  0  0  0  0  0  0  0
   63.7200   33.3060   48.4880 C   0  0  0  0  0  0  0  0  0  0  0  0
   63.4980   33.6020   47.1300 C   0  0  0  0  0  0  0  0  0  0  0  0
   62.2000   33.8040   46.6550 C   0  0  0  0  0  0  0  0  0  0  0  0
   61.1030   33.7400   47.5320 C   0  0  0  0  0  0  0  0  0  0  0  0
   59.7840   33.9190   47.0890 O   0  0  0  0  0  0  0  0  0  0  0  0
   59.0710   33.0240   46.2770 C   0  0  0  0  0  0  0  0  0  0  0  0
   59.3160   31.6570   46.4090 C   0  0  0  0  0  0  0  0  0  0  0  0
   58.6180   30.7320   45.6290 C   0  0  0  0  0  0  0  0  0  0  0  0
   57.6410   31.1510   44.6980 C   0  0  0  0  0  0  0  0  0  0  0  0
   56.8910   30.0980   43.8550 C   0  0  0  0  0  0  0  0  0  0  0  0
   57.7160   28.7940   43.8060 C   0  0  0  0  0  0  0  0  0  0  0  0
   56.6450   30.5530   42.3950 C   0  0  0  0  0  0  0  0  0  0  0  0
   55.5160   29.8110   44.4940 C   0  0  0  0  0  0  0  0  0  0  0  0
   57.3870   32.5390   44.5920 C   0  0  0  0  0  0  0  0  0  0  0  0
   58.0890   33.4600   45.3750 C   0  0  0  0  0  0  0  0  0  0  0  0
   61.3240   33.4460   48.8820 C   0  0  0  0  0  0  0  0  0  0  0  0
   62.6220   33.2460   49.3600 C   0  0  0  0  0  0  0  0  0  0  0  0
   66.7808   33.0008   51.9550 H   0  0  0  0  0  0  0  0  0  0  0  0
   67.0093   31.9897   50.4879 H   0  0  0  0  0  0  0  0  0  0  0  0
   67.5408   33.7055   50.4879 H   0  0  0  0  0  0  0  0  0  0  0  0
   65.7960   32.8160   48.3450 H   0  0  0  0  0  0  0  0  0  0  0  0
   64.3510   33.6746   46.4392 H   0  0  0  0  0  0  0  0  0  0  0  0
   62.0351   34.0145   45.5880 H   0  0  0  0  0  0  0  0  0  0  0  0
   60.0651   31.3046   47.1333 H   0  0  0  0  0  0  0  0  0  0  0  0
   58.8325   29.6590   45.7414 H   0  0  0  0  0  0  0  0  0  0  0  0
   57.9295   28.4565   44.8309 H   0  0  0  0  0  0  0  0  0  0  0  0
   57.1441   28.0180   43.2761 H   0  0  0  0  0  0  0  0  0  0  0  0
   58.6621   28.9784   43.2761 H   0  0  0  0  0  0  0  0  0  0  0  0
   56.1218   31.5206   42.3957 H   0  0  0  0  0  0  0  0  0  0  0  0
   57.6093   30.6579   41.8762 H   0  0  0  0  0  0  0  0  0  0  0  0
   56.0292   29.8036   41.8762 H   0  0  0  0  0  0  0  0  0  0  0  0
   55.6097   29.8306   45.5898 H   0  0  0  0  0  0  0  0  0  0  0  0
   54.7956   30.5781   44.1738 H   0  0  0  0  0  0  0  0  0  0  0  0
   55.1626   28.8197   44.1738 H   0  0  0  0  0  0  0  0  0  0  0  0
   56.6263   32.8984   43.8834 H   0  0  0  0  0  0  0  0  0  0  0  0
   57.8699   34.5340   45.2832 H   0  0  0  0  0  0  0  0  0  0  0  0
   60.4704   33.3718   49.5718 H   0  0  0  0  0  0  0  0  0  0  0  0
   62.7843   33.0399   50.4283 H   0  0  0  0  0  0  0  0  0  0  0  0
  1  2  1  0
  2  3  2  0
  2  4  1  0
  4  5  1  0
  5  6  2  0
  6  7  1  0
  7  8  2  0
  8  9  1  0
  9 10  1  0
 10 11  2  0
 11 12  1  0
 12 13  2  0
 13 14  1  0
 14 15  1  0
 14 16  1  0
 14 17  1  0
 13 18  1  0
 18 19  2  0
  8 20  1  0
 20 21  2  0
 21  5  1  0
 19 10  1  0
  1 22  1  0
  1 23  1  0
  1 24  1  0
  4 25  1  0
  6 26  1  0
  7 27  1  0
 11 28  1  0
 12 29  1  0
 15 30  1  0
 15 31  1  0
 15 32  1  0
 16 33  1  0
 16 34  1  0
 16 35  1  0
 17 36  1  0
 17 37  1  0
 17 38  1  0
 18 39  1  0
 19 40  1  0
 20 41  1  0
 21 42  1  0
M  END
>  <UniqueID>  (17) 
15

>  <SMILES>  (17) 
CC(=O)Nc1ccc(Oc2ccc(C(C)(C)C)cc2)cc1

>  <Energy>  (17) 
51.16636419090017

>  <Genealogy>  (17) 
CC(=O)Nc1ccc(Oc2ccc(C(C)(C)C)cc2)cc1 (3D coordinates assigned)
CC(=O)Nc1ccc(Oc2ccc(C(C)(C)C)cc2)cc1 (optimized conformer: 51.16636419090017 kcal/mol)

>  <smiles>  (17) 
CC(=O)Nc1ccc(Oc2ccc(C(C)(C)C)cc2)cc1

>  <score_type>  (17) 
oracle

>  <origin>  (17) 
adg

>  <m_score__min__energy>  (17) 
-7.3399999999999999

>  <m_primary>  (17) 
energy

$$$$
17:0
     RDKit          3D

 54 58  0  0  0  0  0  0  0  0999 V2000
   57.9230   19.2130   47.1170 C   0  0  0  0  0  0  0  0  0  0  0  0
   57.6130   20.3600   47.9020 O   0  0  0  0  0  0  0  0  0  0  0  0
   56.8120   21.4270   47.4680 C   0  0  0  0  0  0  0  0  0  0  0  0
   56.3950   22.4600   48.3280 C   0  0  0  0  0  0  0  0  0  0  0  0
   55.5930   23.5000   47.8450 C   0  0  0  0  0  0  0  0  0  0  0  0
   55.1950   23.5200   46.4990 C   0  0  0  0  0  0  0  0  0  0  0  0
   54.3610   24.6520   45.9610 C   0  0  0  0  0  0  0  0  0  0  0  0
   55.1360   25.8860   45.9620 N   0  0  0  0  0  0  0  0  0  0  0  0
   56.5150   25.9590   45.5800 C   0  0  0  0  0  0  0  0  0  0  0  0
   56.9870   25.1100   44.7750 O   0  0  0  0  0  0  0  0  0  0  0  0
   57.3880   27.0170   46.1400 C   0  0  0  0  0  0  0  0  0  0  0  0
   58.3370   26.7060   47.1340 C   0  0  0  0  0  0  0  0  0  0  0  0
   59.1640   27.7020   47.6630 C   0  0  0  0  0  0  0  0  0  0  0  0
   59.0590   29.0220   47.2030 C   0  0  0  0  0  0  0  0  0  0  0  0
   59.8630   30.0050   47.6960 N   0  0  0  0  0  0  0  0  0  0  0  0
   59.7860   31.2890   47.2370 C   0  0  0  0  0  0  0  0  0  0  0  0
   60.7680   32.2790   47.7400 C   0  0  0  0  0  0  0  0  0  0  0  0
   60.3820   33.2560   48.6730 C   0  0  0  0  0  0  0  0  0  0  0  0
   61.3070   34.2030   49.1230 C   0  0  0  0  0  0  0  0  0  0  0  0
   62.6160   34.1900   48.6340 C   0  0  0  0  0  0  0  0  0  0  0  0
   63.0020   33.2310   47.6920 C   0  0  0  0  0  0  0  0  0  0  0  0
   62.0810   32.2800   47.2430 C   0  0  0  0  0  0  0  0  0  0  0  0
   58.8200   31.6090   46.2500 C   0  0  0  0  0  0  0  0  0  0  0  0
   58.6030   32.9790   45.7350 C   0  0  0  0  0  0  0  0  0  0  0  0
   59.5930   33.8560   45.3420 C   0  0  0  0  0  0  0  0  0  0  0  0
   58.9380   34.9800   44.8830 C   0  0  0  0  0  0  0  0  0  0  0  0
   57.6390   34.8010   44.9690 O   0  0  0  0  0  0  0  0  0  0  0  0
   57.4020   33.6100   45.4660 C   0  0  0  0  0  0  0  0  0  0  0  0
   58.0280   30.6160   45.7610 N   0  0  0  0  0  0  0  0  0  0  0  0
   58.1200   29.3380   46.2050 C   0  0  0  0  0  0  0  0  0  0  0  0
   57.2890   28.3440   45.6800 C   0  0  0  0  0  0  0  0  0  0  0  0
   55.6220   22.4960   45.6390 C   0  0  0  0  0  0  0  0  0  0  0  0
   56.4200   21.4570   46.1230 C   0  0  0  0  0  0  0  0  0  0  0  0
   58.1520   18.3658   47.7802 H   0  0  0  0  0  0  0  0  0  0  0  0
   57.0612   18.9593   46.4822 H   0  0  0  0  0  0  0  0  0  0  0  0
   58.7953   19.4279   46.4822 H   0  0  0  0  0  0  0  0  0  0  0  0
   56.7009   22.4498   49.3846 H   0  0  0  0  0  0  0  0  0  0  0  0
   55.2731   24.3051   48.5228 H   0  0  0  0  0  0  0  0  0  0  0  0
   54.0497   24.4182   44.9322 H   0  0  0  0  0  0  0  0  0  0  0  0
   53.4741   24.7820   46.5986 H   0  0  0  0  0  0  0  0  0  0  0  0
   58.4281   25.6716   47.4968 H   0  0  0  0  0  0  0  0  0  0  0  0
   59.8985   27.4490   48.4418 H   0  0  0  0  0  0  0  0  0  0  0  0
   60.5800   29.7630   48.4190 H   0  0  0  0  0  0  0  0  0  0  0  0
   59.3490   33.2759   49.0505 H   0  0  0  0  0  0  0  0  0  0  0  0
   61.0041   34.9589   49.8625 H   0  0  0  0  0  0  0  0  0  0  0  0
   63.3432   34.9345   48.9902 H   0  0  0  0  0  0  0  0  0  0  0  0
   64.0313   33.2250   47.3040 H   0  0  0  0  0  0  0  0  0  0  0  0
   62.3860   31.5303   46.4981 H   0  0  0  0  0  0  0  0  0  0  0  0
   60.6799   33.6927   45.3857 H   0  0  0  0  0  0  0  0  0  0  0  0
   59.4286   35.8882   44.5028 H   0  0  0  0  0  0  0  0  0  0  0  0
   56.4045   33.1807   45.6412 H   0  0  0  0  0  0  0  0  0  0  0  0
   56.5536   28.6001   44.9031 H   0  0  0  0  0  0  0  0  0  0  0  0
   55.3269   22.5120   44.5795 H   0  0  0  0  0  0  0  0  0  0  0  0
   56.7435   20.6555   45.4426 H   0  0  0  0  0  0  0  0  0  0  0  0
  1  2  1  0
  2  3  1  0
  3  4  2  0
  4  5  1  0
  5  6  2  0
  6  7  1  0
  7  8  1  0
  8  9  1  0
  9 10  2  0
  9 11  1  0
 11 12  2  0
 12 13  1  0
 13 14  2  0
 14 15  1  0
 15 16  2  0
 16 17  1  0
 17 18  2  0
 18 19  1  0
 19 20  2  0
 20 21  1  0
 21 22  2  0
 16 23  1  0
 23 24  1  0
 24 25  1  0
 25 26  2  0
 26 27  1  0
 27 28  1  0
 23 29  2  0
 29 30  1  0
 30 31  2  0
  6 32  1  0
 32 33  2  0
 33  3  1  0
 31 11  1  0
 30 14  1  0
 22 17  1  0
 28 24  2  0
  1 34  1  0
  1 35  1  0
  1 36  1  0
  4 37  1  0
  5 38  1  0
  7 39  1  0
  7 40  1  0
 12 41  1  0
 13 42  1  0
 15 43  1  0
 18 44  1  0
 19 45  1  0
 20 46  1  0
 21 47  1  0
 22 48  1  0
 25 49  1  0
 26 50  1  0
 28 51  1  0
 31 52  1  0
 32 53  1  0
 33 54  1  0
M  CHG  2   8  -1  15   1
M  END
>  <UniqueID>  (18) 
16

>  <SMILES>  (18) 
COc1ccc(C[N-]C(=O)c2ccc3[nH+]c(-c4ccccc4)c(-c4ccoc4)nc3c2)cc1

>  <Energy>  (18) 
99.13636041133732

>  <Genealogy>  (18) 
COc1ccc(C[N-]C(=O)c2ccc3[nH+]c(-c4ccccc4)c(-c4ccoc4)nc3c2)cc1 (protonated)
COc1ccc(C[N-]C(=O)c2ccc3[nH+]c(-c4ccccc4)c(-c4ccoc4)nc3c2)cc1 (3D coordinates assigned)
COc1ccc(C[N-]C(=O)c2ccc3[nH+]c(-c4ccccc4)c(-c4ccoc4)nc3c2)cc1 (optimized conformer: 99.13636041133732 kcal/mol)

>  <smiles>  (18) 
COc1ccc(CNC(=O)c2ccc3nc(-c4ccccc4)c(-c4ccoc4)nc3c2)cc1

>  <score_type>  (18) 
oracle

>  <origin>  (18) 
adg

>  <m_score__min__energy>  (18) 
-8.5099999999999998

>  <m_primary>  (18) 
energy

$$$$
18:0
     RDKit          3D

 42 44  0  0  0  0  0  0  0  0999 V2000
   57.3739   33.9498   44.0891 H   0  0  0  0  0  0  0  0  0  0  0  0
   57.9150   33.7420   45.0240 C   0  0  0  0  0  0  0  0  0  0  0  0
   59.0310   34.6540   45.3850 C   0  0  0  0  0  0  0  0  0  0  0  0
   59.2470   35.6840   44.6900 O   0  0  0  0  0  0  0  0  0  0  0  0
   59.9200   34.3780   46.5410 C   0  0  0  0  0  0  0  0  0  0  0  0
   59.4210   34.5420   47.8460 C   0  0  0  0  0  0  0  0  0  0  0  0
   58.3820   34.8719   47.9931 H   0  0  0  0  0  0  0  0  0  0  0  0
   60.2290   34.2910   48.9570 C   0  0  0  0  0  0  0  0  0  0  0  0
   59.8210   34.4173   49.9707 H   0  0  0  0  0  0  0  0  0  0  0  0
   61.5570   33.8790   48.7860 C   0  0  0  0  0  0  0  0  0  0  0  0
   62.3770   33.6260   49.8970 C   0  0  0  0  0  0  0  0  0  0  0  0
   61.9756   33.7453   50.9142 H   0  0  0  0  0  0  0  0  0  0  0  0
   63.7020   33.2230   49.7130 C   0  0  0  0  0  0  0  0  0  0  0  0
   64.3406   33.0238   50.5862 H   0  0  0  0  0  0  0  0  0  0  0  0
   64.2190   33.0720   48.4230 C   0  0  0  0  0  0  0  0  0  0  0  0
   65.2636   32.7564   48.2841 H   0  0  0  0  0  0  0  0  0  0  0  0
   63.4120   33.3210   47.3090 C   0  0  0  0  0  0  0  0  0  0  0  0
   63.8234   33.2016   46.2958 H   0  0  0  0  0  0  0  0  0  0  0  0
   62.0780   33.7230   47.4800 C   0  0  0  0  0  0  0  0  0  0  0  0
   61.2590   33.9770   46.3680 C   0  0  0  0  0  0  0  0  0  0  0  0
   61.6668   33.8618   45.3529 H   0  0  0  0  0  0  0  0  0  0  0  0
   57.5140   32.6840   45.7480 C   0  0  0  0  0  0  0  0  0  0  0  0
   56.6281   32.8152   46.3867 H   0  0  0  0  0  0  0  0  0  0  0  0
   58.1670   31.3570   45.7560 C   0  0  0  0  0  0  0  0  0  0  0  0
   59.4450   31.2000   46.3170 C   0  0  0  0  0  0  0  0  0  0  0  0
   59.9460   32.0604   46.7846 H   0  0  0  0  0  0  0  0  0  0  0  0
   60.0830   29.9600   46.2850 C   0  0  0  0  0  0  0  0  0  0  0  0
   61.0769   29.8464   46.7425 H   0  0  0  0  0  0  0  0  0  0  0  0
   59.4710   28.8610   45.6770 C   0  0  0  0  0  0  0  0  0  0  0  0
   60.1560   27.6370   45.6740 O   0  0  0  0  0  0  0  0  0  0  0  0
   60.4080   26.8520   46.8350 C   0  0  0  0  0  0  0  0  0  0  0  0
   60.2144   27.4550   47.7344 H   0  0  0  0  0  0  0  0  0  0  0  0
   59.7470   25.9728   46.8337 H   0  0  0  0  0  0  0  0  0  0  0  0
   61.4573   26.5218   46.8337 H   0  0  0  0  0  0  0  0  0  0  0  0
   58.2020   29.0190   45.0880 C   0  0  0  0  0  0  0  0  0  0  0  0
   57.7166   28.1605   44.6008 H   0  0  0  0  0  0  0  0  0  0  0  0
   57.5480   30.2670   45.1170 C   0  0  0  0  0  0  0  0  0  0  0  0
   56.2840   30.4560   44.5300 O   0  0  0  0  0  0  0  0  0  0  0  0
   55.8370   29.8070   43.3440 C   0  0  0  0  0  0  0  0  0  0  0  0
   55.2319   28.9285   43.6126 H   0  0  0  0  0  0  0  0  0  0  0  0
   55.2272   30.5050   42.7516 H   0  0  0  0  0  0  0  0  0  0  0  0
   56.7066   29.4861   42.7516 H   0  0  0  0  0  0  0  0  0  0  0  0
  1  2  1  0
  2  3  1  0
  3  4  2  0
  3  5  1  0
  5  6  2  0
  6  7  1  0
  6  8  1  0
  8  9  1  0
  8 10  2  0
 10 11  1  0
 11 12  1  0
 11 13  2  0
 13 14  1  0
 13 15  1  0
 15 16  1  0
 15 17  2  0
 17 18  1  0
 17 19  1  0
 19 20  2  0
 20 21  1  0
  2 22  2  0
 22 23  1  0
 22 24  1  0
 24 25  2  0
 25 26  1  0
 25 27  1  0
 27 28  1  0
 27 29  2  0
 29 30  1  0
 30 31  1  0
 31 32  1  0
 31 33  1  0
 31 34  1  0
 29 35  1  0
 35 36  1  0
 35 37  2  0
 37 38  1  0
 38 39  1  0
 39 40  1  0
 39 41  1  0
 39 42  1  0
 20  5  1  0
 37 24  1  0
 19 10  1  0
M  END
>  <UniqueID>  (19) 
17

>  <SMILES>  (19) 
COc1ccc(/C=C\C(=O)c2ccc3ccccc3c2)c(OC)c1

>  <Energy>  (19) 
58.67884489491199

>  <Genealogy>  (19) 
COc1ccc(/C=C\C(=O)c2ccc3ccccc3c2)c(OC)c1 (cis-trans isomerization)
COc1ccc(/C=C\C(=O)c2ccc3ccccc3c2)c(OC)c1 (3D coordinates assigned)
COc1ccc(/C=C\C(=O)c2ccc3ccccc3c2)c(OC)c1 (optimized conformer: 58.67884489491199 kcal/mol)

>  <smiles>  (19) 
COc1ccc(C=CC(=O)c2ccc3ccccc3c2)c(OC)c1

>  <score_type>  (19) 
oracle

>  <origin>  (19) 
adg

>  <m_score__min__energy>  (19) 
-8.8300000000000001

>  <m_primary>  (19) 
energy

$$$$
19:0
     RDKit          3D

 27 29  0  0  0  0  0  0  0  0999 V2000
   58.1651   33.3605   45.1187 H   0  0  0  0  0  0  0  0  0  0  0  0
   58.0350   32.2800   45.2790 C   0  0  0  0  0  0  0  0  0  0  0  0
   56.9960   31.5470   44.8440 N   0  0  0  0  0  0  0  0  0  0  0  0
   57.2720   30.2990   45.2740 C   0  0  0  0  0  0  0  0  0  0  0  0
   56.3950   29.1510   45.0220 C   0  0  0  0  0  0  0  0  0  0  0  0
   55.1610   29.3430   44.8570 O   0  0  0  0  0  0  0  0  0  0  0  0
   56.9620   27.8320   44.9680 N   0  0  0  0  0  0  0  0  0  0  0  0
   56.7030   26.8080   45.7300 C   0  0  0  0  0  0  0  0  0  0  0  0
   55.4490   26.3720   45.9430 N   0  0  0  0  0  0  0  0  0  0  0  0
   55.5410   25.3480   46.7400 O   0  0  0  0  0  0  0  0  0  0  0  0
   56.7910   25.0950   47.0550 C   0  0  0  0  0  0  0  0  0  0  0  0
   57.1342   24.2824   47.7122 H   0  0  0  0  0  0  0  0  0  0  0  0
   57.6020   26.0160   46.4260 C   0  0  0  0  0  0  0  0  0  0  0  0
   58.6979   26.1013   46.4669 H   0  0  0  0  0  0  0  0  0  0  0  0
   58.4310   30.2030   45.9570 N   0  0  0  0  0  0  0  0  0  0  0  0
   58.9140   31.4590   45.9600 C   0  0  0  0  0  0  0  0  0  0  0  0
   60.1920   31.8490   46.6060 C   0  0  0  0  0  0  0  0  0  0  0  0
   61.0780   30.8850   47.1220 C   0  0  0  0  0  0  0  0  0  0  0  0
   60.8257   29.8169   47.0478 H   0  0  0  0  0  0  0  0  0  0  0  0
   62.2760   31.2740   47.7280 C   0  0  0  0  0  0  0  0  0  0  0  0
   62.9610   30.5120   48.1281 H   0  0  0  0  0  0  0  0  0  0  0  0
   62.6060   32.6290   47.8270 C   0  0  0  0  0  0  0  0  0  0  0  0
   64.1110   33.1140   48.5870 Cl  0  0  0  0  0  0  0  0  0  0  0  0
   61.7340   33.5950   47.3190 C   0  0  0  0  0  0  0  0  0  0  0  0
   61.9918   34.6616   47.3962 H   0  0  0  0  0  0  0  0  0  0  0  0
   60.5350   33.2100   46.7130 C   0  0  0  0  0  0  0  0  0  0  0  0
   59.8536   33.9770   46.3163 H   0  0  0  0  0  0  0  0  0  0  0  0
  1  2  1  0
  2  3  1  0
  3  4  1  0
  4  5  1  0
  5  6  2  0
  5  7  1  0
  7  8  2  0
  8  9  1  0
  9 10  1  0
 10 11  1  0
 11 12  1  0
 11 13  2  0
 13 14  1  0
  4 15  2  0
 15 16  1  0
 16 17  1  0
 17 18  2  0
 18 19  1  0
 18 20  1  0
 20 21  1  0
 20 22  2  0
 22 23  1  0
 22 24  1  0
 24 25  1  0
 24 26  2  0
 26 27  1  0
 16  2  2  0
 26 17  1  0
 13  8  1  0
M  CHG  2   3  -1   9  -1
M  END
>  <UniqueID>  (20) 
18

>  <SMILES>  (20) 
O=C(/N=c1\cco[n-]1)c1nc(-c2ccc(Cl)cc2)c[n-]1

>  <Energy>  (20) 
92.35351158968143

>  <Genealogy>  (20) 
O=C(N=c1cco[n-]1)c1nc(-c2ccc(Cl)cc2)c[n-]1 (protonated)
O=C(/N=c1\cco[n-]1)c1nc(-c2ccc(Cl)cc2)c[n-]1 (cis-trans isomerization)
O=C(/N=c1\cco[n-]1)c1nc(-c2ccc(Cl)cc2)c[n-]1 (3D coordinates assigned)
O=C(/N=c1\cco[n-]1)c1nc(-c2ccc(Cl)cc2)c[n-]1 (optimized conformer: 92.35351158968143 kcal/mol)

>  <smiles>  (20) 
O=C(N=c1cco[nH]1)c1nc(-c2ccc(Cl)cc2)c[nH]1

>  <score_type>  (20) 
oracle

>  <origin>  (20) 
adg

>  <m_score__min__energy>  (20) 
-10.960000000000001

>  <m_primary>  (20) 
energy

$$$$
20:0
     RDKit          3D

 31 32  0  0  0  0  0  0  0  0999 V2000
   57.5690   32.2710   41.3760 C   0  0  0  0  0  0  0  0  0  0  0  0
   57.4480   31.4020   42.5810 C   0  0  0  0  0  0  0  0  0  0  0  0
   58.0360   31.6830   43.7640 N   0  0  0  0  0  0  0  0  0  0  0  0
   57.7130   30.7670   44.7180 C   0  0  0  0  0  0  0  0  0  0  0  0
   58.2830   30.8370   46.1090 C   0  0  0  0  0  0  0  0  0  0  0  0
   59.0330   32.0970   46.3360 N   0  0  1  0  0  0  0  0  0  0  0  0
   58.2020   33.0950   47.0730 C   0  0  0  0  0  0  0  0  0  0  0  0
   58.5890   34.5660   46.8120 C   0  0  0  0  0  0  0  0  0  0  0  0
   60.0880   34.8500   47.0630 C   0  0  0  0  0  0  0  0  0  0  0  0
   60.9130   34.1270   46.1690 O   0  0  0  0  0  0  0  0  0  0  0  0
   61.4100   32.9410   46.7660 C   0  0  0  0  0  0  0  0  0  0  0  0
   60.3630   31.8120   46.9380 C   0  0  0  0  0  0  0  0  0  0  0  0
   56.8590   29.7500   44.2980 C   0  0  0  0  0  0  0  0  0  0  0  0
   56.4900   30.0250   42.6800 S   0  0  0  0  0  0  0  0  0  0  0  0
   57.7144   33.3151   41.6900 H   0  0  0  0  0  0  0  0  0  0  0  0
   58.4305   31.9457   40.7744 H   0  0  0  0  0  0  0  0  0  0  0  0
   56.6514   32.1934   40.7744 H   0  0  0  0  0  0  0  0  0  0  0  0
   57.4585   30.7781   46.8347 H   0  0  0  0  0  0  0  0  0  0  0  0
   58.9817   29.9967   46.2342 H   0  0  0  0  0  0  0  0  0  0  0  0
   59.2380   32.5090   45.3920 H   0  0  0  0  0  0  0  0  0  0  0  0
   57.1527   32.9572   46.7730 H   0  0  0  0  0  0  0  0  0  0  0  0
   58.3700   32.9123   48.1446 H   0  0  0  0  0  0  0  0  0  0  0  0
   58.3568   34.8090   45.7646 H   0  0  0  0  0  0  0  0  0  0  0  0
   58.0143   35.1871   47.5148 H   0  0  0  0  0  0  0  0  0  0  0  0
   60.2745   35.9259   46.9298 H   0  0  0  0  0  0  0  0  0  0  0  0
   60.3310   34.5326   48.0878 H   0  0  0  0  0  0  0  0  0  0  0  0
   62.2266   32.5574   46.1367 H   0  0  0  0  0  0  0  0  0  0  0  0
   61.7362   33.2177   47.7794 H   0  0  0  0  0  0  0  0  0  0  0  0
   60.7625   30.9006   46.4692 H   0  0  0  0  0  0  0  0  0  0  0  0
   60.1966   31.7066   48.0202 H   0  0  0  0  0  0  0  0  0  0  0  0
   56.4916   28.9161   44.9141 H   0  0  0  0  0  0  0  0  0  0  0  0
  1  2  1  0
  2  3  2  0
  3  4  1  0
  4  5  1  0
  5  6  1  0
  6  7  1  0
  7  8  1  0
  8  9  1  0
  9 10  1  0
 10 11  1  0
 11 12  1  0
  4 13  2  0
 13 14  1  0
 14  2  1  0
 12  6  1  0
  1 15  1  0
  1 16  1  0
  1 17  1  0
  5 18  1  0
  5 19  1  0
  6 20  1  6
  7 21  1  0
  7 22  1  0
  8 23  1  0
  8 24  1  0
  9 25  1  0
  9 26  1  0
 11 27  1  0
 11 28  1  0
 12 29  1  0
 12 30  1  0
 13 31  1  0
M  CHG  1   6   1
M  END
>  <UniqueID>  (21) 
19

>  <SMILES>  (21) 
Cc1nc(C[N@H+]2CCCOCC2)cs1

>  <Energy>  (21) 
74.92300042431802

>  <Genealogy>  (21) 
Cc1nc(C[NH+]2CCCOCC2)cs1 (protonated)
Cc1nc(C[N@H+]2CCCOCC2)cs1 (chirality)
Cc1nc(C[N@H+]2CCCOCC2)cs1 (3D coordinates assigned)
Cc1nc(C[N@H+]2CCCOCC2)cs1 (nonaromatic ring conformer: 74.92300042431802 kcal/mol)

>  <smiles>  (21) 
Cc1nc(CN2CCCOCC2)cs1

>  <score_type>  (21) 
oracle

>  <origin>  (21) 
adg

>  <m_score__min__energy>  (21) 
-1.6799999999999999

>  <m_primary>  (21) 
energy

$$$$
21:0
     RDKit          3D

 44 45  0  0  0  0  0  0  0  0999 V2000
   57.5780   32.3440   41.1580 C   0  0  0  0  0  0  0  0  0  0  0  0
   57.7880   31.7410   42.5480 C   0  0  1  0  0  0  0  0  0  0  0  0
   58.1460   32.8140   43.6120 C   0  0  0  0  0  0  0  0  0  0  0  0
   57.5850   32.5820   44.9740 N   0  0  0  0  0  0  0  0  0  0  0  0
   57.2370   33.8350   45.6870 C   0  0  0  0  0  0  0  0  0  0  0  0
   58.4870   34.5900   46.1690 C   0  0  0  0  0  0  0  0  0  0  0  0
   59.4240   33.7360   46.9420 N   0  0  0  0  0  0  0  0  0  0  0  0
   60.7960   33.8070   46.4140 C   0  0  0  0  0  0  0  0  0  0  0  0
   58.9700   32.3390   47.1040 C   0  0  0  0  0  0  0  0  0  0  0  0
   58.5090   31.7160   45.7710 C   0  0  0  0  0  0  0  0  0  0  0  0
   56.5790   31.0860   42.9330 O   0  0  0  0  0  0  0  0  0  0  0  0
   56.5240   30.0470   43.8710 C   0  0  0  0  0  0  0  0  0  0  0  0
   55.7170   30.1040   44.8400 O   0  0  0  0  0  0  0  0  0  0  0  0
   57.3960   28.8720   43.6910 C   0  0  0  0  0  0  0  0  0  0  0  0
   57.3390   28.2430   42.6000 O   0  0  0  0  0  0  0  0  0  0  0  0
   58.3150   28.3910   44.7510 C   0  0  0  0  0  0  0  0  0  0  0  0
   59.6940   28.6480   44.6500 C   0  0  0  0  0  0  0  0  0  0  0  0
   60.5730   28.2130   45.6470 C   0  0  0  0  0  0  0  0  0  0  0  0
   60.0830   27.5290   46.7620 C   0  0  0  0  0  0  0  0  0  0  0  0
   58.7130   27.2830   46.8830 C   0  0  0  0  0  0  0  0  0  0  0  0
   57.8310   27.7140   45.8880 C   0  0  0  0  0  0  0  0  0  0  0  0
   57.2177   33.3785   41.2577 H   0  0  0  0  0  0  0  0  0  0  0  0
   58.5308   32.3389   40.6083 H   0  0  0  0  0  0  0  0  0  0  0  0
   56.8345   31.7482   40.6083 H   0  0  0  0  0  0  0  0  0  0  0  0
   58.6329   31.0385   42.4963 H   0  0  0  0  0  0  0  0  0  0  0  0
   59.2419   32.8519   43.6992 H   0  0  0  0  0  0  0  0  0  0  0  0
   57.6958   33.7526   43.2566 H   0  0  0  0  0  0  0  0  0  0  0  0
   56.6960   32.0420   44.8600 H   0  0  0  0  0  0  0  0  0  0  0  0
   56.6700   34.4858   45.0051 H   0  0  0  0  0  0  0  0  0  0  0  0
   56.6395   33.5680   46.5711 H   0  0  0  0  0  0  0  0  0  0  0  0
   59.0177   34.9847   45.2900 H   0  0  0  0  0  0  0  0  0  0  0  0
   58.1461   35.3920   46.8402 H   0  0  0  0  0  0  0  0  0  0  0  0
   61.5094   33.8439   47.2505 H   0  0  0  0  0  0  0  0  0  0  0  0
   60.9984   32.9181   45.7984 H   0  0  0  0  0  0  0  0  0  0  0  0
   60.9056   34.7120   45.7984 H   0  0  0  0  0  0  0  0  0  0  0  0
   59.8015   31.7410   47.5053 H   0  0  0  0  0  0  0  0  0  0  0  0
   58.1100   32.3417   47.7898 H   0  0  0  0  0  0  0  0  0  0  0  0
   59.4005   31.5099   45.1604 H   0  0  0  0  0  0  0  0  0  0  0  0
   57.9463   30.8060   46.0263 H   0  0  0  0  0  0  0  0  0  0  0  0
   60.0845   29.1957   43.7796 H   0  0  0  0  0  0  0  0  0  0  0  0
   61.6512   28.4097   45.5530 H   0  0  0  0  0  0  0  0  0  0  0  0
   60.7753   27.1843   47.5443 H   0  0  0  0  0  0  0  0  0  0  0  0
   58.3274   26.7486   47.7638 H   0  0  0  0  0  0  0  0  0  0  0  0
   56.7527   27.5236   45.9932 H   0  0  0  0  0  0  0  0  0  0  0  0
  1  2  1  0
  2  3  1  0
  3  4  1  0
  4  5  1  0
  5  6  1  0
  6  7  1  0
  7  8  1  0
  7  9  1  0
  9 10  1  0
  2 11  1  0
 11 12  1  0
 12 13  2  0
 12 14  1  0
 14 15  2  0
 14 16  1  0
 16 17  2  0
 17 18  1  0
 18 19  2  0
 19 20  1  0
 20 21  2  0
 10  4  1  0
 21 16  1  0
  1 22  1  0
  1 23  1  0
  1 24  1  0
  2 25  1  6
  3 26  1  0
  3 27  1  0
  4 28  1  0
  5 29  1  0
  5 30  1  0
  6 31  1  0
  6 32  1  0
  8 33  1  0
  8 34  1  0
  8 35  1  0
  9 36  1  0
  9 37  1  0
 10 38  1  0
 10 39  1  0
 17 40  1  0
 18 41  1  0
 19 42  1  0
 20 43  1  0
 21 44  1  0
M  CHG  1   4   1
M  END
>  <UniqueID>  (22) 
20

>  <SMILES>  (22) 
C[C@@H](C[NH+]1CCN(C)CC1)OC(=O)C(=O)c1ccccc1

>  <Energy>  (22) 
60.45243226161581

>  <Genealogy>  (22) 
CC(C[NH+]1CCN(C)CC1)OC(=O)C(=O)c1ccccc1 (protonated)
C[C@@H](C[NH+]1CCN(C)CC1)OC(=O)C(=O)c1ccccc1 (chirality)
C[C@@H](C[NH+]1CCN(C)CC1)OC(=O)C(=O)c1ccccc1 (3D coordinates assigned)
C[C@@H](C[NH+]1CCN(C)CC1)OC(=O)C(=O)c1ccccc1 (nonaromatic ring conformer: 60.45243226161581 kcal/mol)

>  <smiles>  (22) 
CC(CN1CCN(C)CC1)OC(=O)C(=O)c1ccccc1

>  <score_type>  (22) 
oracle

>  <origin>  (22) 
adg

>  <m_score__min__energy>  (22) 
-5.25

>  <m_primary>  (22) 
energy

$$$$
22:0
     RDKit          3D

 48 50  0  0  0  0  0  0  0  0999 V2000
   61.0400   33.4500   51.0890 C   0  0  0  0  0  0  0  0  0  0  0  0
   61.0810   33.6730   49.6060 C   0  0  0  0  0  0  0  0  0  0  0  0
   62.2710   33.4660   48.8910 C   0  0  0  0  0  0  0  0  0  0  0  0
   62.3000   33.6270   47.5000 C   0  0  0  0  0  0  0  0  0  0  0  0
   63.5850   33.4540   46.7430 C   0  0  0  0  0  0  0  0  0  0  0  0
   61.1350   34.0170   46.8230 C   0  0  0  0  0  0  0  0  0  0  0  0
   59.9270   34.1940   47.5210 C   0  0  0  0  0  0  0  0  0  0  0  0
   58.7090   34.5550   46.8450 N   0  0  0  0  0  0  0  0  0  0  0  0
   58.2770   33.9590   45.2740 S   0  0  0  0  0  0  0  0  0  0  0  0
   56.9410   34.5220   44.8760 O   0  0  0  0  0  0  0  0  0  0  0  0
   59.3080   34.4020   44.2740 O   0  0  0  0  0  0  0  0  0  0  0  0
   58.1570   32.2020   45.3240 C   0  0  0  0  0  0  0  0  0  0  0  0
   59.2420   31.4500   45.7850 C   0  0  0  0  0  0  0  0  0  0  0  0
   59.1760   30.0550   45.7960 C   0  0  0  0  0  0  0  0  0  0  0  0
   58.0290   29.3960   45.3390 C   0  0  0  0  0  0  0  0  0  0  0  0
   57.9910   27.9640   45.3820 N   0  0  0  0  0  0  0  0  0  0  0  0
   58.5110   27.1820   44.2590 C   0  0  0  0  0  0  0  0  0  0  0  0
   57.7420   25.8600   44.1530 C   0  0  0  0  0  0  0  0  0  0  0  0
   57.7050   25.1930   45.4020 O   0  0  0  0  0  0  0  0  0  0  0  0
   56.9670   25.9600   46.3360 C   0  0  0  0  0  0  0  0  0  0  0  0
   57.6810   27.2810   46.6380 C   0  0  0  0  0  0  0  0  0  0  0  0
   56.9330   30.1480   44.8610 C   0  0  0  0  0  0  0  0  0  0  0  0
   55.7600   29.5060   44.3470 N   0  0  0  0  0  0  0  0  0  0  0  0
   57.0040   31.5500   44.8670 C   0  0  0  0  0  0  0  0  0  0  0  0
   59.9120   34.0230   48.9140 C   0  0  0  0  0  0  0  0  0  0  0  0
   61.2154   34.4038   51.6082 H   0  0  0  0  0  0  0  0  0  0  0  0
   60.0540   33.0538   51.3731 H   0  0  0  0  0  0  0  0  0  0  0  0
   61.8206   32.7289   51.3731 H   0  0  0  0  0  0  0  0  0  0  0  0
   63.1868   33.1754   49.4266 H   0  0  0  0  0  0  0  0  0  0  0  0
   64.4170   33.3420   47.4538 H   0  0  0  0  0  0  0  0  0  0  0  0
   63.5199   32.5565   46.1103 H   0  0  0  0  0  0  0  0  0  0  0  0
   63.7595   34.3367   46.1103 H   0  0  0  0  0  0  0  0  0  0  0  0
   61.1666   34.1859   45.7365 H   0  0  0  0  0  0  0  0  0  0  0  0
   57.9800   35.0930   47.3650 H   0  0  0  0  0  0  0  0  0  0  0  0
   60.1503   31.9587   46.1401 H   0  0  0  0  0  0  0  0  0  0  0  0
   60.0311   29.4704   46.1663 H   0  0  0  0  0  0  0  0  0  0  0  0
   58.3876   27.7531   43.3270 H   0  0  0  0  0  0  0  0  0  0  0  0
   59.5781   26.9717   44.4234 H   0  0  0  0  0  0  0  0  0  0  0  0
   56.7127   26.0678   43.8255 H   0  0  0  0  0  0  0  0  0  0  0  0
   58.2547   25.2136   43.4254 H   0  0  0  0  0  0  0  0  0  0  0  0
   55.9715   26.1747   45.9202 H   0  0  0  0  0  0  0  0  0  0  0  0
   56.8755   25.3864   47.2701 H   0  0  0  0  0  0  0  0  0  0  0  0
   57.0280   27.9193   47.2514 H   0  0  0  0  0  0  0  0  0  0  0  0
   58.6131   27.0780   47.1856 H   0  0  0  0  0  0  0  0  0  0  0  0
   54.8080   29.9090   44.4860 H   0  0  0  0  0  0  0  0  0  0  0  0
   55.8290   28.5890   43.8530 H   0  0  0  0  0  0  0  0  0  0  0  0
   56.1478   32.1413   44.5102 H   0  0  0  0  0  0  0  0  0  0  0  0
   58.9731   34.1650   49.4693 H   0  0  0  0  0  0  0  0  0  0  0  0
  1  2  1  0
  2  3  2  0
  3  4  1  0
  4  5  1  0
  4  6  2  0
  6  7  1  0
  7  8  1  0
  8  9  1  0
  9 10  2  0
  9 11  2  0
  9 12  1  0
 12 13  2  0
 13 14  1  0
 14 15  2  0
 15 16  1  0
 16 17  1  0
 17 18  1  0
 18 19  1  0
 19 20  1  0
 20 21  1  0
 15 22  1  0
 22 23  1  0
 22 24  2  0
  7 25  2  0
 25  2  1  0
 24 12  1  0
 21 16  1  0
  1 26  1  0
  1 27  1  0
  1 28  1  0
  3 29  1  0
  5 30  1  0
  5 31  1  0
  5 32  1  0
  6 33  1  0
  8 34  1  0
 13 35  1  0
 14 36  1  0
 17 37  1  0
 17 38  1  0
 18 39  1  0
 18 40  1  0
 20 41  1  0
 20 42  1  0
 21 43  1  0
 21 44  1  0
 23 45  1  0
 23 46  1  0
 24 47  1  0
 25 48  1  0
M  END
>  <UniqueID>  (23) 
21

>  <SMILES>  (23) 
Cc1cc(C)cc(NS(=O)(=O)c2ccc(N3CCOCC3)c(N)c2)c1

>  <Energy>  (23) 
56.574235357368565

>  <Genealogy>  (23) 
Cc1cc(C)cc(NS(=O)(=O)c2ccc(N3CCOCC3)c(N)c2)c1 (3D coordinates assigned)
Cc1cc(C)cc(NS(=O)(=O)c2ccc(N3CCOCC3)c(N)c2)c1 (nonaromatic ring conformer: 56.574235357368565 kcal/mol)

>  <smiles>  (23) 
Cc1cc(C)cc(NS(=O)(=O)c2ccc(N3CCOCC3)c(N)c2)c1

>  <score_type>  (23) 
oracle

>  <origin>  (23) 
adg

>  <m_score__min__energy>  (23) 
-8.2799999999999994

>  <m_primary>  (23) 
energy

$$$$
23:0
     RDKit          3D

 40 42  0  0  0  0  0  0  0  0999 V2000
   63.3900   33.8430   46.3790 C   0  0  0  0  0  0  0  0  0  0  0  0
   63.5770   33.4220   47.8310 C   0  0  0  0  0  0  0  0  0  0  0  0
   62.1610   33.9540   48.8570 S   0  0  0  0  0  0  0  0  0  0  0  0
   60.9360   33.0360   47.9240 C   0  0  0  0  0  0  0  0  0  0  0  0
   61.0370   31.6490   47.8020 C   0  0  0  0  0  0  0  0  0  0  0  0
   60.0630   30.9660   47.0600 C   0  0  0  0  0  0  0  0  0  0  0  0
   60.1240   29.5380   46.8890 N   0  0  0  0  0  0  0  0  0  0  0  0
   60.3750   28.9620   45.5630 C   0  0  0  0  0  0  0  0  0  0  0  0
   59.8290   27.5310   45.5080 C   0  0  0  0  0  0  0  0  0  0  0  0
   60.3320   26.7610   46.5830 O   0  0  0  0  0  0  0  0  0  0  0  0
   59.8500   27.2790   47.8080 C   0  0  0  0  0  0  0  0  0  0  0  0
   60.3950   28.6900   48.0540 C   0  0  0  0  0  0  0  0  0  0  0  0
   59.0660   31.6760   46.4640 N   0  0  0  0  0  0  0  0  0  0  0  0
   58.9890   33.0260   46.5880 C   0  0  0  0  0  0  0  0  0  0  0  0
   57.6730   33.9230   45.7770 S   0  0  0  0  0  0  0  0  0  0  0  0
   57.4030   32.6080   44.5930 C   0  0  0  0  0  0  0  0  0  0  0  0
   57.9550   32.6870   43.3100 C   0  0  0  0  0  0  0  0  0  0  0  0
   57.7390   31.6440   42.4080 C   0  0  0  0  0  0  0  0  0  0  0  0
   56.9750   30.5390   42.7950 C   0  0  0  0  0  0  0  0  0  0  0  0
   56.4380   30.4970   44.0830 C   0  0  0  0  0  0  0  0  0  0  0  0
   56.6610   31.5230   44.9480 N   0  0  0  0  0  0  0  0  0  0  0  0
   59.9190   33.6970   47.3140 N   0  0  0  0  0  0  0  0  0  0  0  0
   62.9437   34.8478   46.3431 H   0  0  0  0  0  0  0  0  0  0  0  0
   64.3664   33.8572   45.8727 H   0  0  0  0  0  0  0  0  0  0  0  0
   62.7248   33.1280   45.8727 H   0  0  0  0  0  0  0  0  0  0  0  0
   63.6642   32.3265   47.8792 H   0  0  0  0  0  0  0  0  0  0  0  0
   64.4889   33.8995   48.2189 H   0  0  0  0  0  0  0  0  0  0  0  0
   61.8644   31.1028   48.2786 H   0  0  0  0  0  0  0  0  0  0  0  0
   59.8743   29.5738   44.7981 H   0  0  0  0  0  0  0  0  0  0  0  0
   61.4583   28.9454   45.3728 H   0  0  0  0  0  0  0  0  0  0  0  0
   58.7311   27.5611   45.5684 H   0  0  0  0  0  0  0  0  0  0  0  0
   60.1473   27.0677   44.5625 H   0  0  0  0  0  0  0  0  0  0  0  0
   58.7511   27.3173   47.7759 H   0  0  0  0  0  0  0  0  0  0  0  0
   60.1865   26.6236   48.6248 H   0  0  0  0  0  0  0  0  0  0  0  0
   59.9065   29.1206   48.9405 H   0  0  0  0  0  0  0  0  0  0  0  0
   61.4813   28.6358   48.2186 H   0  0  0  0  0  0  0  0  0  0  0  0
   58.5530   33.5619   43.0151 H   0  0  0  0  0  0  0  0  0  0  0  0
   58.1683   31.6913   41.3963 H   0  0  0  0  0  0  0  0  0  0  0  0
   56.7988   29.7114   42.0921 H   0  0  0  0  0  0  0  0  0  0  0  0
   55.8340   29.6335   44.3987 H   0  0  0  0  0  0  0  0  0  0  0  0
  1  2  1  0
  2  3  1  0
  3  4  1  0
  4  5  2  0
  5  6  1  0
  6  7  1  0
  7  8  1  0
  8  9  1  0
  9 10  1  0
 10 11  1  0
 11 12  1  0
  6 13  2  0
 13 14  1  0
 14 15  1  0
 15 16  1  0
 16 17  2  0
 17 18  1  0
 18 19  2  0
 19 20  1  0
 20 21  2  0
 14 22  2  0
 22  4  1  0
 12  7  1  0
 21 16  1  0
  1 23  1  0
  1 24  1  0
  1 25  1  0
  2 26  1  0
  2 27  1  0
  5 28  1  0
  8 29  1  0
  8 30  1  0
  9 31  1  0
  9 32  1  0
 11 33  1  0
 11 34  1  0
 12 35  1  0
 12 36  1  0
 17 37  1  0
 18 38  1  0
 19 39  1  0
 20 40  1  0
M  END
>  <UniqueID>  (24) 
22

>  <SMILES>  (24) 
CCSc1cc(N2CCOCC2)nc(Sc2ccccn2)n1

>  <Energy>  (24) 
36.12449639822618

>  <Genealogy>  (24) 
CCSc1cc(N2CCOCC2)nc(Sc2ccccn2)n1 (3D coordinates assigned)
CCSc1cc(N2CCOCC2)nc(Sc2ccccn2)n1 (nonaromatic ring conformer: 36.12449639822618 kcal/mol)

>  <smiles>  (24) 
CCSc1cc(N2CCOCC2)nc(Sc2ccccn2)n1

>  <score_type>  (24) 
oracle

>  <origin>  (24) 
adg

>  <m_score__min__energy>  (24) 
-7.2999999999999998

>  <m_primary>  (24) 
energy

$$$$
24:0
     RDKit          3D

 32 34  0  0  0  0  0  0  0  0999 V2000
   57.2060   27.9630   55.6540 C   0  0  0  0  0  0  0  0  0  0  0  0
   57.5110   28.8670   54.4720 C   0  0  0  0  0  0  0  0  0  0  0  0
   56.5160   29.3690   53.6750 C   0  0  0  0  0  0  0  0  0  0  0  0
   55.1860   29.4170   54.1790 C   0  0  0  0  0  0  0  0  0  0  0  0
   54.1680   30.1140   53.5180 C   0  0  0  0  0  0  0  0  0  0  0  0
   52.8770   30.1800   54.0620 C   0  0  0  0  0  0  0  0  0  0  0  0
   51.8710   30.8990   53.4120 C   0  0  0  0  0  0  0  0  0  0  0  0
   52.1400   31.5670   52.2040 C   0  0  0  0  0  0  0  0  0  0  0  0
   51.0770   32.3290   51.5110 C   0  0  0  0  0  0  0  0  0  0  0  0
   50.2130   32.9650   52.1710 O   0  0  0  0  0  0  0  0  0  0  0  0
   51.0180   32.3550   50.1230 O   0  0  0  0  0  0  0  0  0  0  0  0
   53.4340   31.4970   51.6580 C   0  0  0  0  0  0  0  0  0  0  0  0
   54.4470   30.7760   52.3120 C   0  0  0  0  0  0  0  0  0  0  0  0
   55.7220   30.6800   51.7560 C   0  0  0  0  0  0  0  0  0  0  0  0
   56.7420   29.9360   52.3690 C   0  0  0  0  0  0  0  0  0  0  0  0
   57.7940   29.7270   51.6180 N   0  0  0  0  0  0  0  0  0  0  0  0
   59.1060   29.2190   51.8850 C   0  0  0  0  0  0  0  0  0  0  0  0
   59.9920   29.3480   51.0000 O   0  0  0  0  0  0  0  0  0  0  0  0
   59.4670   28.5450   53.1610 C   0  0  0  0  0  0  0  0  0  0  0  0
   58.8860   29.2610   54.2900 N   0  0  0  0  0  0  0  0  0  0  0  0
   57.3904   28.5094   56.5907 H   0  0  0  0  0  0  0  0  0  0  0  0
   56.1524   27.6496   55.6136 H   0  0  0  0  0  0  0  0  0  0  0  0
   57.8544   27.0753   55.6136 H   0  0  0  0  0  0  0  0  0  0  0  0
   54.9510   28.8907   55.1159 H   0  0  0  0  0  0  0  0  0  0  0  0
   52.6551   29.6622   55.0068 H   0  0  0  0  0  0  0  0  0  0  0  0
   50.8620   30.9430   53.8478 H   0  0  0  0  0  0  0  0  0  0  0  0
   53.6549   32.0111   50.7109 H   0  0  0  0  0  0  0  0  0  0  0  0
   55.9342   31.2016   50.8111 H   0  0  0  0  0  0  0  0  0  0  0  0
   59.0838   27.5140   53.1485 H   0  0  0  0  0  0  0  0  0  0  0  0
   60.5620   28.5373   53.2658 H   0  0  0  0  0  0  0  0  0  0  0  0
   58.9510   30.3010   54.1680 H   0  0  0  0  0  0  0  0  0  0  0  0
   59.4500   29.0360   55.1420 H   0  0  0  0  0  0  0  0  0  0  0  0
  1  2  1  0
  2  3  2  0
  3  4  1  0
  4  5  2  0
  5  6  1  0
  6  7  2  0
  7  8  1  0
  8  9  1  0
  9 10  2  0
  9 11  1  0
  8 12  2  0
 12 13  1  0
 13 14  2  0
 14 15  1  0
 15 16  2  0
 16 17  1  0
 17 18  2  0
 17 19  1  0
 19 20  1  0
 20  2  1  0
 15  3  1  0
 13  5  1  0
  1 21  1  0
  1 22  1  0
  1 23  1  0
  4 24  1  0
  6 25  1  0
  7 26  1  0
 12 27  1  0
 14 28  1  0
 19 29  1  0
 19 30  1  0
 20 31  1  0
 20 32  1  0
M  CHG  2  11  -1  20   1
M  END
>  <UniqueID>  (25) 
23

>  <SMILES>  (25) 
CC1=c2cc3ccc(C(=O)[O-])cc3cc2=NC(=O)C[NH2+]1

>  <Energy>  (25) 
62.51806909573565

>  <Genealogy>  (25) 
CC1=c2cc3ccc(C(=O)[O-])cc3cc2=NC(=O)C[NH2+]1 (protonated)
CC1=c2cc3ccc(C(=O)[O-])cc3cc2=NC(=O)C[NH2+]1 (3D coordinates assigned)
CC1=c2cc3ccc(C(=O)[O-])cc3cc2=NC(=O)C[NH2+]1 (nonaromatic ring conformer: 62.51806909573565 kcal/mol)

>  <smiles>  (25) 
CC1=c2cc3ccc(C(=O)O)cc3cc2=NC(=O)CN1

>  <score_type>  (25) 
oracle

>  <origin>  (25) 
adg

>  <m_score__min__energy>  (25) 
-7.3600000000000003

>  <m_primary>  (25) 
energy

$$$$
25:0
     RDKit          3D

 41 43  0  0  0  0  0  0  0  0999 V2000
   59.6690   34.5660   49.2200 N   0  0  0  0  0  0  0  0  0  0  0  0
   59.7750   33.5290   48.2410 C   0  0  0  0  0  0  0  0  0  0  0  0
   60.4890   32.5230   48.4970 O   0  0  0  0  0  0  0  0  0  0  0  0
   59.0770   33.6190   46.9350 C   0  0  0  0  0  0  0  0  0  0  0  0
   59.2070   34.7480   46.1090 C   0  0  0  0  0  0  0  0  0  0  0  0
   58.5490   34.8080   44.9210 N   0  0  0  0  0  0  0  0  0  0  0  0
   57.7520   33.7970   44.4870 C   0  0  0  0  0  0  0  0  0  0  0  0
   57.5800   32.6470   45.2770 C   0  0  0  0  0  0  0  0  0  0  0  0
   56.7710   31.5690   44.8860 O   0  0  0  0  0  0  0  0  0  0  0  0
   57.1770   30.5020   44.0270 C   0  0  0  0  0  0  0  0  0  0  0  0
   57.6040   29.3000   44.8280 C   0  0  0  0  0  0  0  0  0  0  0  0
   58.9600   29.0820   45.1150 C   0  0  0  0  0  0  0  0  0  0  0  0
   59.3510   27.9630   45.8550 C   0  0  0  0  0  0  0  0  0  0  0  0
   58.3960   27.0450   46.2960 C   0  0  0  0  0  0  0  0  0  0  0  0
   57.0430   27.2260   45.9860 C   0  0  0  0  0  0  0  0  0  0  0  0
   56.0870   26.2670   46.4610 N   0  0  0  0  0  0  0  0  0  0  0  0
   55.2960   25.3860   45.6510 C   0  0  0  0  0  0  0  0  0  0  0  0
   54.0470   25.5440   45.6340 O   0  0  0  0  0  0  0  0  0  0  0  0
   55.8980   24.2720   44.8810 C   0  0  0  0  0  0  0  0  0  0  0  0
   55.1810   23.6240   43.8600 C   0  0  0  0  0  0  0  0  0  0  0  0
   55.7520   22.6050   43.1630 N   0  0  0  0  0  0  0  0  0  0  0  0
   57.0190   22.1840   43.4180 C   0  0  0  0  0  0  0  0  0  0  0  0
   57.7750   22.8080   44.4120 C   0  0  0  0  0  0  0  0  0  0  0  0
   59.5580   22.2270   44.7740 Br  0  0  0  0  0  0  0  0  0  0  0  0
   57.2130   23.8590   45.1410 C   0  0  0  0  0  0  0  0  0  0  0  0
   56.6480   28.3670   45.2640 C   0  0  0  0  0  0  0  0  0  0  0  0
   58.2430   32.5740   46.5050 C   0  0  0  0  0  0  0  0  0  0  0  0
   60.1220   34.4490   50.1520 H   0  0  0  0  0  0  0  0  0  0  0  0
   59.2230   35.4840   49.0030 H   0  0  0  0  0  0  0  0  0  0  0  0
   59.8441   35.5872   46.4250 H   0  0  0  0  0  0  0  0  0  0  0  0
   57.2407   33.8784   43.5164 H   0  0  0  0  0  0  0  0  0  0  0  0
   56.3342   30.2215   43.3781 H   0  0  0  0  0  0  0  0  0  0  0  0
   58.0305   30.8428   43.4225 H   0  0  0  0  0  0  0  0  0  0  0  0
   59.7177   29.7942   44.7563 H   0  0  0  0  0  0  0  0  0  0  0  0
   60.4138   27.8050   46.0906 H   0  0  0  0  0  0  0  0  0  0  0  0
   58.7087   26.1741   46.8908 H   0  0  0  0  0  0  0  0  0  0  0  0
   54.1548   23.9421   43.6240 H   0  0  0  0  0  0  0  0  0  0  0  0
   57.4486   21.3517   42.8412 H   0  0  0  0  0  0  0  0  0  0  0  0
   57.8029   24.3636   45.9204 H   0  0  0  0  0  0  0  0  0  0  0  0
   55.5836   28.5299   45.0393 H   0  0  0  0  0  0  0  0  0  0  0  0
   58.1101   31.6875   47.1425 H   0  0  0  0  0  0  0  0  0  0  0  0
  1  2  1  0
  2  3  2  0
  2  4  1  0
  4  5  2  0
  5  6  1  0
  6  7  2  0
  7  8  1  0
  8  9  1  0
  9 10  1  0
 10 11  1  0
 11 12  2  0
 12 13  1  0
 13 14  2  0
 14 15  1  0
 15 16  1  0
 16 17  1  0
 17 18  2  0
 17 19  1  0
 19 20  2  0
 20 21  1  0
 21 22  2  0
 22 23  1  0
 23 24  1  0
 23 25  2  0
 15 26  2  0
  8 27  2  0
 27  4  1  0
 26 11  1  0
 25 19  1  0
  1 28  1  0
  1 29  1  0
  5 30  1  0
  7 31  1  0
 10 32  1  0
 10 33  1  0
 12 34  1  0
 13 35  1  0
 14 36  1  0
 20 37  1  0
 22 38  1  0
 25 39  1  0
 26 40  1  0
 27 41  1  0
M  CHG  1  16  -1
M  END
>  <UniqueID>  (26) 
24

>  <SMILES>  (26) 
NC(=O)c1cncc(OCc2cccc([N-]C(=O)c3cncc(Br)c3)c2)c1

>  <Energy>  (26) 
52.89678460708396

>  <Genealogy>  (26) 
NC(=O)c1cncc(OCc2cccc([N-]C(=O)c3cncc(Br)c3)c2)c1 (protonated)
NC(=O)c1cncc(OCc2cccc([N-]C(=O)c3cncc(Br)c3)c2)c1 (3D coordinates assigned)
NC(=O)c1cncc(OCc2cccc([N-]C(=O)c3cncc(Br)c3)c2)c1 (optimized conformer: 52.89678460708396 kcal/mol)

>  <smiles>  (26) 
NC(=O)c1cncc(OCc2cccc(NC(=O)c3cncc(Br)c3)c2)c1

>  <score_type>  (26) 
oracle

>  <origin>  (26) 
adg

>  <m_score__min__energy>  (26) 
-11.02

>  <m_primary>  (26) 
energy

$$$$
26:0
     RDKit          3D

 29 31  0  0  0  0  0  0  0  0999 V2000
   56.5509   20.6646   47.8683 H   0  0  0  0  0  0  0  0  0  0  0  0
   56.7750   21.4410   47.1220 C   0  0  0  0  0  0  0  0  0  0  0  0
   57.3430   22.6130   47.5110 N   0  0  0  0  0  0  0  0  0  0  0  0
   57.6350   23.6090   46.6310 C   0  0  0  0  0  0  0  0  0  0  0  0
   58.1900   24.6970   47.0910 N   0  0  0  0  0  0  0  0  0  0  0  0
   58.1250   26.0170   46.5280 C   0  0  0  0  0  0  0  0  0  0  0  0
   59.3070   26.7340   46.2020 C   0  0  0  0  0  0  0  0  0  0  0  0
   60.2897   26.2909   46.4210 H   0  0  0  0  0  0  0  0  0  0  0  0
   59.2350   28.0050   45.6020 C   0  0  0  0  0  0  0  0  0  0  0  0
   60.1446   28.5766   45.3657 H   0  0  0  0  0  0  0  0  0  0  0  0
   57.9670   28.5130   45.3180 C   0  0  0  0  0  0  0  0  0  0  0  0
   56.8290   27.8140   45.6070 C   0  0  0  0  0  0  0  0  0  0  0  0
   55.7840   28.5210   45.2460 O   0  0  0  0  0  0  0  0  0  0  0  0
   56.2710   29.6410   44.7400 C   0  0  0  0  0  0  0  0  0  0  0  0
   55.5460   30.5730   44.3010 O   0  0  0  0  0  0  0  0  0  0  0  0
   57.6270   29.6820   44.7490 N   0  0  0  0  0  0  0  0  0  0  0  0
   58.5020   30.7770   44.3390 C   0  0  0  0  0  0  0  0  0  0  0  0
   58.9034   31.2794   45.2314 H   0  0  0  0  0  0  0  0  0  0  0  0
   59.3325   30.3775   43.7384 H   0  0  0  0  0  0  0  0  0  0  0  0
   57.9292   31.4989   43.7384 H   0  0  0  0  0  0  0  0  0  0  0  0
   56.8640   26.5570   46.2010 C   0  0  0  0  0  0  0  0  0  0  0  0
   55.9376   26.0017   46.4091 H   0  0  0  0  0  0  0  0  0  0  0  0
   57.3640   23.4130   45.2600 C   0  0  0  0  0  0  0  0  0  0  0  0
   57.6116   24.1958   44.5279 H   0  0  0  0  0  0  0  0  0  0  0  0
   56.7770   22.2130   44.8400 C   0  0  0  0  0  0  0  0  0  0  0  0
   56.4940   21.9970   43.4450 C   0  0  0  0  0  0  0  0  0  0  0  0
   56.2670   21.8230   42.3240 N   0  0  0  0  0  0  0  0  0  0  0  0
   56.4760   21.2220   45.7770 C   0  0  0  0  0  0  0  0  0  0  0  0
   56.0082   20.2789   45.4579 H   0  0  0  0  0  0  0  0  0  0  0  0
  1  2  1  0
  2  3  1  0
  3  4  1  0
  4  5  2  0
  5  6  1  0
  6  7  2  0
  7  8  1  0
  7  9  1  0
  9 10  1  0
  9 11  2  0
 11 12  1  0
 12 13  1  0
 13 14  1  0
 14 15  2  0
 14 16  1  0
 16 17  1  0
 17 18  1  0
 17 19  1  0
 17 20  1  0
 12 21  2  0
 21 22  1  0
  4 23  1  0
 23 24  1  0
 23 25  2  0
 25 26  1  0
 26 27  3  0
 25 28  1  0
 28 29  1  0
 28  2  2  0
 21  6  1  0
 16 11  1  0
M  CHG  1   3  -1
M  END
>  <UniqueID>  (27) 
25

>  <SMILES>  (27) 
Cn1c(=O)oc2cc(/N=c3\cc(C#N)cc[n-]3)ccc21

>  <Energy>  (27) 
82.20518081855023

>  <Genealogy>  (27) 
Cn1c(=O)oc2cc(N=c3cc(C#N)cc[n-]3)ccc21 (protonated)
Cn1c(=O)oc2cc(/N=c3\cc(C#N)cc[n-]3)ccc21 (cis-trans isomerization)
Cn1c(=O)oc2cc(/N=c3\cc(C#N)cc[n-]3)ccc21 (3D coordinates assigned)
Cn1c(=O)oc2cc(/N=c3\cc(C#N)cc[n-]3)ccc21 (optimized conformer: 82.20518081855023 kcal/mol)

>  <smiles>  (27) 
Cn1c(=O)oc2cc(N=c3cc(C#N)cc[nH]3)ccc21

>  <score_type>  (27) 
oracle

>  <origin>  (27) 
adg

>  <m_score__min__energy>  (27) 
-8.3200000000000003

>  <m_primary>  (27) 
energy

$$$$
28:0
     RDKit          3D

 44 47  0  0  0  0  0  0  0  0999 V2000
   60.9630   31.1880   48.8430 C   0  0  0  0  0  0  0  0  0  0  0  0
   61.0870   30.6110   47.4370 C   0  0  0  0  0  0  0  0  0  0  0  0
   59.8080   29.9450   47.0200 C   0  0  0  0  0  0  0  0  0  0  0  0
   59.5220   28.5950   47.1780 C   0  0  0  0  0  0  0  0  0  0  0  0
   58.3530   28.3370   46.5720 N   0  0  0  0  0  0  0  0  0  0  0  0
   57.7230   27.1680   46.4900 N   0  0  0  0  0  0  0  0  0  0  0  0
   56.5330   27.1030   45.8240 C   0  0  0  0  0  0  0  0  0  0  0  0
   55.8160   25.8210   45.7220 C   0  0  0  0  0  0  0  0  0  0  0  0
   54.5590   25.8230   45.6250 O   0  0  0  0  0  0  0  0  0  0  0  0
   56.5330   24.5760   45.7290 N   0  0  0  0  0  0  0  0  0  0  0  0
   55.8580   23.2870   45.5890 C   0  0  0  0  0  0  0  0  0  0  0  0
   56.5560   22.4480   44.5670 C   0  0  0  0  0  0  0  0  0  0  0  0
   57.9210   22.2780   44.4590 C   0  0  0  0  0  0  0  0  0  0  0  0
   58.1050   21.4510   43.3720 C   0  0  0  0  0  0  0  0  0  0  0  0
   56.8440   21.1700   42.8850 C   0  0  0  0  0  0  0  0  0  0  0  0
   55.9410   21.7810   43.6180 O   0  0  0  0  0  0  0  0  0  0  0  0
   56.0140   28.2370   45.2630 N   0  0  0  0  0  0  0  0  0  0  0  0
   56.6650   29.4310   45.3470 C   0  0  0  0  0  0  0  0  0  0  0  0
   56.1600   30.4650   44.8360 O   0  0  0  0  0  0  0  0  0  0  0  0
   57.8850   29.4650   46.0220 C   0  0  0  0  0  0  0  0  0  0  0  0
   58.7670   30.5070   46.2700 C   0  0  0  0  0  0  0  0  0  0  0  0
   58.6810   31.8950   45.7820 C   0  0  0  0  0  0  0  0  0  0  0  0
   58.4820   32.1520   44.4150 C   0  0  0  0  0  0  0  0  0  0  0  0
   58.4150   33.4690   43.9490 C   0  0  0  0  0  0  0  0  0  0  0  0
   58.5480   34.5350   44.8440 C   0  0  0  0  0  0  0  0  0  0  0  0
   58.7480   34.2860   46.2050 C   0  0  0  0  0  0  0  0  0  0  0  0
   58.8150   32.9700   46.6730 C   0  0  0  0  0  0  0  0  0  0  0  0
   61.1341   30.3918   49.5825 H   0  0  0  0  0  0  0  0  0  0  0  0
   61.7108   31.9829   48.9804 H   0  0  0  0  0  0  0  0  0  0  0  0
   59.9546   31.6055   48.9804 H   0  0  0  0  0  0  0  0  0  0  0  0
   61.3168   31.4239   46.7324 H   0  0  0  0  0  0  0  0  0  0  0  0
   61.8925   29.8619   47.4328 H   0  0  0  0  0  0  0  0  0  0  0  0
   60.1472   27.8623   47.7093 H   0  0  0  0  0  0  0  0  0  0  0  0
   57.5700   24.5760   45.8500 H   0  0  0  0  0  0  0  0  0  0  0  0
   55.8681   22.7643   46.5568 H   0  0  0  0  0  0  0  0  0  0  0  0
   54.8205   23.4579   45.2658 H   0  0  0  0  0  0  0  0  0  0  0  0
   58.6989   22.7115   45.1048 H   0  0  0  0  0  0  0  0  0  0  0  0
   59.0635   21.0879   42.9728 H   0  0  0  0  0  0  0  0  0  0  0  0
   56.6282   20.5317   42.0155 H   0  0  0  0  0  0  0  0  0  0  0  0
   58.3786   31.3147   43.7091 H   0  0  0  0  0  0  0  0  0  0  0  0
   58.2577   33.6662   42.8783 H   0  0  0  0  0  0  0  0  0  0  0  0
   58.4952   35.5706   44.4768 H   0  0  0  0  0  0  0  0  0  0  0  0
   58.8527   35.1256   46.9080 H   0  0  0  0  0  0  0  0  0  0  0  0
   58.9734   32.7770   47.7443 H   0  0  0  0  0  0  0  0  0  0  0  0
  1  2  1  0
  2  3  1  0
  3  4  2  0
  4  5  1  0
  5  6  1  0
  6  7  1  0
  7  8  1  0
  8  9  2  0
  8 10  1  0
 10 11  1  0
 11 12  1  0
 12 13  2  0
 13 14  1  0
 14 15  2  0
 15 16  1  0
  7 17  2  0
 17 18  1  0
 18 19  2  0
 18 20  1  0
 20 21  2  0
 21 22  1  0
 22 23  2  0
 23 24  1  0
 24 25  2  0
 25 26  1  0
 26 27  2  0
 21  3  1  0
 27 22  1  0
 20  5  1  0
 16 12  1  0
  1 28  1  0
  1 29  1  0
  1 30  1  0
  2 31  1  0
  2 32  1  0
  4 33  1  0
 10 34  1  0
 11 35  1  0
 11 36  1  0
 13 37  1  0
 14 38  1  0
 15 39  1  0
 23 40  1  0
 24 41  1  0
 25 42  1  0
 26 43  1  0
 27 44  1  0
M  CHG  1   6  -1
M  END
>  <UniqueID>  (28) 
26

>  <SMILES>  (28) 
CCc1cn2[n-]c(C(=O)NCc3ccco3)nc(=O)c2c1-c1ccccc1

>  <Energy>  (28) 
107.68505817495864

>  <Genealogy>  (28) 
CCc1cn2[n-]c(C(=O)NCc3ccco3)nc(=O)c2c1-c1ccccc1 (protonated)
CCc1cn2[n-]c(C(=O)NCc3ccco3)nc(=O)c2c1-c1ccccc1 (3D coordinates assigned)
CCc1cn2[n-]c(C(=O)NCc3ccco3)nc(=O)c2c1-c1ccccc1 (optimized conformer: 107.68505817495864 kcal/mol)

>  <smiles>  (28) 
CCc1cn2[nH]c(C(=O)NCc3ccco3)nc(=O)c2c1-c1ccccc1

>  <score_type>  (28) 
oracle

>  <origin>  (28) 
adg

>  <m_score__min__energy>  (28) 
-10.56

>  <m_primary>  (28) 
energy

$$$$
29:0
     RDKit          3D

 66 68  0  0  0  0  0  0  0  0999 V2000
   58.5663   27.0321   43.5856 H   0  0  0  0  0  0  0  0  0  0  0  0
   57.8510   26.6790   44.3430 C   0  0  0  0  0  0  0  0  0  0  0  0
   57.2970   27.5320   45.1480 N   0  0  0  0  0  0  0  0  0  0  0  0
   57.8400   28.8240   45.4490 C   0  0  0  0  0  0  0  0  0  0  0  0
   57.0800   29.8180   45.6050 O   0  0  0  0  0  0  0  0  0  0  0  0
   59.3270   28.9770   45.6200 C   0  0  0  0  0  0  0  0  0  0  0  0
   59.7005   29.6956   44.8756 H   0  0  0  0  0  0  0  0  0  0  0  0
   59.7941   27.9909   45.4805 H   0  0  0  0  0  0  0  0  0  0  0  0
   59.6710   29.4690   46.9830 N   0  0  0  0  0  0  0  0  0  0  0  0
   59.6830   28.5600   48.0250 C   0  0  0  0  0  0  0  0  0  0  0  0
   59.8000   27.0710   47.7620 C   0  0  0  0  0  0  0  0  0  0  0  0
   59.8424   26.5317   48.7198 H   0  0  0  0  0  0  0  0  0  0  0  0
   58.9259   26.7303   47.1877 H   0  0  0  0  0  0  0  0  0  0  0  0
   60.7166   26.8710   47.1877 H   0  0  0  0  0  0  0  0  0  0  0  0
   59.2970   28.8730   49.3310 C   0  0  0  0  0  0  0  0  0  0  0  0
   58.9147   28.0371   49.9352 H   0  0  0  0  0  0  0  0  0  0  0  0
   59.3370   30.1010   49.9540 C   0  0  0  0  0  0  0  0  0  0  0  0
   58.7530   30.2137   50.8794 H   0  0  0  0  0  0  0  0  0  0  0  0
   60.0450   31.2010   49.5190 C   0  0  0  0  0  0  0  0  0  0  0  0
   60.2685   31.9664   50.2768 H   0  0  0  0  0  0  0  0  0  0  0  0
   60.5130   31.4570   48.2230 C   0  0  0  0  0  0  0  0  0  0  0  0
   61.3410   32.4500   48.0060 N   0  0  0  0  0  0  0  0  0  0  0  0
   61.3950   33.7820   48.6230 C   0  0  0  0  0  0  0  0  0  0  0  0
   62.1466   34.3898   48.0980 H   0  0  0  0  0  0  0  0  0  0  0  0
   61.6623   33.6626   49.6833 H   0  0  0  0  0  0  0  0  0  0  0  0
   60.0330   34.4910   48.5430 C   0  0  0  0  0  0  0  0  0  0  0  0
   60.1951   35.5763   48.6201 H   0  0  0  0  0  0  0  0  0  0  0  0
   59.4114   34.1155   49.3692 H   0  0  0  0  0  0  0  0  0  0  0  0
   59.3070   34.2010   47.2550 C   0  0  0  0  0  0  0  0  0  0  0  0
   58.1060   33.4760   47.2660 C   0  0  0  0  0  0  0  0  0  0  0  0
   57.6528   33.1837   48.2247 H   0  0  0  0  0  0  0  0  0  0  0  0
   57.4820   33.1230   46.0670 C   0  0  0  0  0  0  0  0  0  0  0  0
   56.5393   32.5566   46.0882 H   0  0  0  0  0  0  0  0  0  0  0  0
   58.0480   33.4850   44.8380 C   0  0  0  0  0  0  0  0  0  0  0  0
   57.3890   33.0820   43.6640 O   0  0  0  0  0  0  0  0  0  0  0  0
   57.8460   32.0750   42.7610 C   0  0  0  0  0  0  0  0  0  0  0  0
   58.8710   31.7835   43.0337 H   0  0  0  0  0  0  0  0  0  0  0  0
   57.8240   32.4801   41.7385 H   0  0  0  0  0  0  0  0  0  0  0  0
   56.9430   30.8470   42.8220 C   0  0  0  0  0  0  0  0  0  0  0  0
   56.7505   30.5852   43.8729 H   0  0  0  0  0  0  0  0  0  0  0  0
   55.9901   31.0672   42.3185 H   0  0  0  0  0  0  0  0  0  0  0  0
   57.4372   30.0031   42.3185 H   0  0  0  0  0  0  0  0  0  0  0  0
   59.2410   34.2330   44.8260 C   0  0  0  0  0  0  0  0  0  0  0  0
   59.6839   34.5417   43.8676 H   0  0  0  0  0  0  0  0  0  0  0  0
   59.8650   34.5850   46.0260 C   0  0  0  0  0  0  0  0  0  0  0  0
   60.7987   35.1663   46.0070 H   0  0  0  0  0  0  0  0  0  0  0  0
   60.0260   30.8030   47.0750 C   0  0  0  0  0  0  0  0  0  0  0  0
   60.0050   31.5050   46.0220 O   0  0  0  0  0  0  0  0  0  0  0  0
   57.5330   25.2390   44.4310 C   0  0  0  0  0  0  0  0  0  0  0  0
   57.6980   24.5230   45.6300 C   0  0  0  0  0  0  0  0  0  0  0  0
   58.0840   25.0354   46.5236 H   0  0  0  0  0  0  0  0  0  0  0  0
   57.3750   23.1650   45.6940 C   0  0  0  0  0  0  0  0  0  0  0  0
   57.5084   22.6165   46.6381 H   0  0  0  0  0  0  0  0  0  0  0  0
   56.8810   22.4940   44.5620 C   0  0  0  0  0  0  0  0  0  0  0  0
   56.5210   21.0220   44.6500 C   0  0  0  0  0  0  0  0  0  0  0  0
   55.5586   20.9436   45.1769 H   0  0  0  0  0  0  0  0  0  0  0  0
   56.3760   20.4530   43.3090 N   0  0  0  0  0  0  0  0  0  0  0  0
   57.1310   20.8240   42.6860 H   0  0  0  0  0  0  0  0  0  0  0  0
   56.5190   19.4190   43.3750 H   0  0  0  0  0  0  0  0  0  0  0  0
   57.5100   20.2670   45.4260 N   0  0  0  0  0  0  0  0  0  0  0  0
   58.4650   20.6220   45.1870 H   0  0  0  0  0  0  0  0  0  0  0  0
   57.4770   19.2550   45.1650 H   0  0  0  0  0  0  0  0  0  0  0  0
   56.7090   23.2140   43.3660 C   0  0  0  0  0  0  0  0  0  0  0  0
   56.3118   22.7055   42.4751 H   0  0  0  0  0  0  0  0  0  0  0  0
   57.0390   24.5710   43.3010 C   0  0  0  0  0  0  0  0  0  0  0  0
   56.9102   25.1192   42.3561 H   0  0  0  0  0  0  0  0  0  0  0  0
  1  2  1  0
  2  3  2  0
  3  4  1  0
  4  5  2  0
  4  6  1  0
  6  7  1  0
  6  8  1  0
  6  9  1  0
  9 10  1  0
 10 11  1  0
 11 12  1  0
 11 13  1  0
 11 14  1  0
 10 15  2  0
 15 16  1  0
 15 17  1  0
 17 18  1  0
 17 19  2  0
 19 20  1  0
 19 21  1  0
 21 22  2  3
 22 23  1  0
 23 24  1  0
 23 25  1  0
 23 26  1  0
 26 27  1  0
 26 28  1  0
 26 29  1  0
 29 30  2  0
 30 31  1  0
 30 32  1  0
 32 33  1  0
 32 34  2  0
 34 35  1  0
 35 36  1  0
 36 37  1  0
 36 38  1  0
 36 39  1  0
 39 40  1  0
 39 41  1  0
 39 42  1  0
 34 43  1  0
 43 44  1  0
 43 45  2  0
 45 46  1  0
 21 47  1  0
 47 48  2  0
  2 49  1  0
 49 50  2  0
 50 51  1  0
 50 52  1  0
 52 53  1  0
 52 54  2  0
 54 55  1  0
 55 56  1  0
 55 57  1  0
 57 58  1  0
 57 59  1  0
 55 60  1  0
 60 61  1  0
 60 62  1  0
 54 63  1  0
 63 64  1  0
 63 65  2  0
 65 66  1  0
 47  9  1  0
 65 49  1  0
 45 29  1  0
M  END
>  <UniqueID>  (29) 
27

>  <SMILES>  (29) 
CCOc1ccc(CCN=c2cccc(C)n(CC(=O)/N=C/c3ccc(C(N)N)cc3)c2=O)cc1

>  <Energy>  (29) 
105.06160170314065

>  <Genealogy>  (29) 
CCOc1ccc(CCN=c2cccc(C)n(CC(=O)/N=C/c3ccc(C(N)N)cc3)c2=O)cc1 (cis-trans isomerization)
CCOc1ccc(CCN=c2cccc(C)n(CC(=O)/N=C/c3ccc(C(N)N)cc3)c2=O)cc1 (3D coordinates assigned)
CCOc1ccc(CCN=c2cccc(C)n(CC(=O)/N=C/c3ccc(C(N)N)cc3)c2=O)cc1 (optimized conformer: 105.06160170314065 kcal/mol)

>  <smiles>  (29) 
CCOc1ccc(CCN=c2cccc(C)n(CC(=O)N=Cc3ccc(C(N)N)cc3)c2=O)cc1

>  <score_type>  (29) 
oracle

>  <origin>  (29) 
adg

>  <m_score__min__energy>  (29) 
-10

>  <m_primary>  (29) 
energy

$$$$
30:0
     RDKit          3D

 39 41  0  0  0  0  0  0  0  0999 V2000
   50.4676   22.1589   45.8960 H   0  0  0  0  0  0  0  0  0  0  0  0
   51.4700   22.6050   45.8170 C   0  0  0  0  0  0  0  0  0  0  0  0
   52.4560   22.2770   46.7510 C   0  0  0  0  0  0  0  0  0  0  0  0
   52.2282   21.5768   47.5682 H   0  0  0  0  0  0  0  0  0  0  0  0
   53.7330   22.8390   46.6470 C   0  0  0  0  0  0  0  0  0  0  0  0
   54.5032   22.5883   47.3912 H   0  0  0  0  0  0  0  0  0  0  0  0
   54.0370   23.7220   45.5970 C   0  0  0  0  0  0  0  0  0  0  0  0
   55.3680   24.3530   45.4950 C   0  0  0  0  0  0  0  0  0  0  0  0
   55.5280   25.6130   45.9800 N   0  0  0  0  0  0  0  0  0  0  0  0
   56.7230   26.2620   45.9440 C   0  0  0  0  0  0  0  0  0  0  0  0
   56.8410   27.4780   46.3980 N   0  0  0  0  0  0  0  0  0  0  0  0
   57.1190   28.6630   45.6320 C   0  0  0  0  0  0  0  0  0  0  0  0
   56.3520   29.0240   44.5100 C   0  0  0  0  0  0  0  0  0  0  0  0
   55.5246   28.3778   44.1817 H   0  0  0  0  0  0  0  0  0  0  0  0
   56.6360   30.2000   43.8100 C   0  0  0  0  0  0  0  0  0  0  0  0
   56.0389   30.4640   42.9247 H   0  0  0  0  0  0  0  0  0  0  0  0
   57.6780   31.0500   44.2260 C   0  0  0  0  0  0  0  0  0  0  0  0
   57.9690   32.2970   43.4670 C   0  0  0  0  0  0  0  0  0  0  0  0
   57.8110   32.3200   42.2160 O   0  0  0  0  0  0  0  0  0  0  0  0
   58.4500   33.5440   44.1470 C   0  0  0  0  0  0  0  0  0  0  0  0
   58.3984   33.4101   45.2376 H   0  0  0  0  0  0  0  0  0  0  0  0
   59.4902   33.7451   43.8511 H   0  0  0  0  0  0  0  0  0  0  0  0
   57.8143   34.3915   43.8511 H   0  0  0  0  0  0  0  0  0  0  0  0
   58.4190   30.6980   45.3710 C   0  0  0  0  0  0  0  0  0  0  0  0
   59.2304   31.3544   45.7186 H   0  0  0  0  0  0  0  0  0  0  0  0
   58.1320   29.5220   46.0690 C   0  0  0  0  0  0  0  0  0  0  0  0
   58.7086   29.2696   46.9711 H   0  0  0  0  0  0  0  0  0  0  0  0
   57.8270   25.6140   45.3620 C   0  0  0  0  0  0  0  0  0  0  0  0
   59.1690   26.2760   45.2690 C   0  0  0  0  0  0  0  0  0  0  0  0
   59.5549   26.4664   46.2814 H   0  0  0  0  0  0  0  0  0  0  0  0
   59.8657   25.6182   44.7287 H   0  0  0  0  0  0  0  0  0  0  0  0
   59.0710   27.2291   44.7287 H   0  0  0  0  0  0  0  0  0  0  0  0
   57.6640   24.3640   44.8530 N   0  0  0  0  0  0  0  0  0  0  0  0
   56.4730   23.7130   44.9010 C   0  0  0  0  0  0  0  0  0  0  0  0
   56.3530   21.9960   44.0600 Br  0  0  0  0  0  0  0  0  0  0  0  0
   53.0310   24.0630   44.6760 C   0  0  0  0  0  0  0  0  0  0  0  0
   53.2482   24.7768   43.8678 H   0  0  0  0  0  0  0  0  0  0  0  0
   51.7570   23.5000   44.7820 C   0  0  0  0  0  0  0  0  0  0  0  0
   50.9785   23.7612   44.0501 H   0  0  0  0  0  0  0  0  0  0  0  0
  1  2  1  0
  2  3  2  0
  3  4  1  0
  3  5  1  0
  5  6  1  0
  5  7  2  0
  7  8  1  0
  8  9  1  0
  9 10  1  0
 10 11  2  0
 11 12  1  0
 12 13  2  0
 13 14  1  0
 13 15  1  0
 15 16  1  0
 15 17  2  0
 17 18  1  0
 18 19  2  0
 18 20  1  0
 20 21  1  0
 20 22  1  0
 20 23  1  0
 17 24  1  0
 24 25  1  0
 24 26  2  0
 26 27  1  0
 10 28  1  0
 28 29  1  0
 29 30  1  0
 29 31  1  0
 29 32  1  0
 28 33  2  0
 33 34  1  0
 34 35  1  0
  7 36  1  0
 36 37  1  0
 36 38  2  0
 38 39  1  0
 38  2  1  0
 34  8  2  0
 26 12  1  0
M  CHG  1   9  -1
M  END
>  <UniqueID>  (30) 
28

>  <SMILES>  (30) 
CC(=O)c1ccc(/N=c2\[n-]c(-c3ccccc3)c(Br)nc2C)cc1

>  <Energy>  (30) 
56.23346596990239

>  <Genealogy>  (30) 
CC(=O)c1ccc(N=c2[n-]c(-c3ccccc3)c(Br)nc2C)cc1 (protonated)
CC(=O)c1ccc(/N=c2\[n-]c(-c3ccccc3)c(Br)nc2C)cc1 (cis-trans isomerization)
CC(=O)c1ccc(/N=c2\[n-]c(-c3ccccc3)c(Br)nc2C)cc1 (3D coordinates assigned)
CC(=O)c1ccc(/N=c2\[n-]c(-c3ccccc3)c(Br)nc2C)cc1 (optimized conformer: 56.23346596990239 kcal/mol)

>  <smiles>  (30) 
CC(=O)c1ccc(N=c2[nH]c(-c3ccccc3)c(Br)nc2C)cc1

>  <score_type>  (30) 
oracle

>  <origin>  (30) 
adg

>  <m_score__min__energy>  (30) 
-9.5899999999999999

>  <m_primary>  (30) 
energy

$$$$
31:0
     RDKit          3D

 49 52  0  0  0  0  0  0  0  0999 V2000
   56.7570   29.3380   43.4010 C   0  0  0  0  0  0  0  0  0  0  0  0
   56.9020   30.4830   42.6160 C   0  0  0  0  0  0  0  0  0  0  0  0
   57.3510   31.6760   43.1900 C   0  0  0  0  0  0  0  0  0  0  0  0
   57.6670   31.7360   44.5620 C   0  0  0  0  0  0  0  0  0  0  0  0
   58.1040   32.9760   45.1610 N   0  0  0  0  0  0  0  0  0  0  0  0
   57.4640   33.4670   46.3890 C   0  0  0  0  0  0  0  0  0  0  0  0
   58.2940   34.5820   47.0480 C   0  0  0  0  0  0  0  0  0  0  0  0
   59.7470   34.3270   46.9630 N   0  0  0  0  0  0  0  0  0  0  0  0
   60.3290   33.5390   48.0730 C   0  0  0  0  0  0  0  0  0  0  0  0
   61.6310   32.8500   47.7250 C   0  0  0  0  0  0  0  0  0  0  0  0
   62.7910   33.4690   47.2960 C   0  0  0  0  0  0  0  0  0  0  0  0
   63.7420   32.5340   47.1290 N   0  0  0  0  0  0  0  0  0  0  0  0
   63.1740   31.3660   47.4790 C   0  0  0  0  0  0  0  0  0  0  0  0
   61.8900   31.5260   47.8600 N   0  0  0  0  0  0  0  0  0  0  0  0
   61.0240   30.4650   48.3830 C   0  0  0  0  0  0  0  0  0  0  0  0
   60.6080   29.5150   47.2920 C   0  0  0  0  0  0  0  0  0  0  0  0
   59.9910   28.2950   47.6090 C   0  0  0  0  0  0  0  0  0  0  0  0
   59.6070   27.4310   46.5820 C   0  0  0  0  0  0  0  0  0  0  0  0
   59.8140   27.7800   45.2830 N   0  0  0  0  0  0  0  0  0  0  0  0
   60.3900   28.9640   44.9480 C   0  0  0  0  0  0  0  0  0  0  0  0
   60.7920   29.8560   45.9440 C   0  0  0  0  0  0  0  0  0  0  0  0
   60.2800   34.0280   45.6110 C   0  0  0  0  0  0  0  0  0  0  0  0
   59.1800   33.7780   44.5690 C   0  0  0  0  0  0  0  0  0  0  0  0
   57.5100   30.5730   45.3430 C   0  0  0  0  0  0  0  0  0  0  0  0
   57.0590   29.3840   44.7640 C   0  0  0  0  0  0  0  0  0  0  0  0
   56.4051   28.4001   42.9466 H   0  0  0  0  0  0  0  0  0  0  0  0
   56.6624   30.4465   41.5430 H   0  0  0  0  0  0  0  0  0  0  0  0
   57.4585   32.5752   42.5656 H   0  0  0  0  0  0  0  0  0  0  0  0
   56.4680   33.8619   46.1401 H   0  0  0  0  0  0  0  0  0  0  0  0
   57.3861   32.6290   47.0974 H   0  0  0  0  0  0  0  0  0  0  0  0
   58.0721   35.5335   46.5426 H   0  0  0  0  0  0  0  0  0  0  0  0
   58.0214   34.6185   48.1131 H   0  0  0  0  0  0  0  0  0  0  0  0
   60.5125   34.2174   48.9192 H   0  0  0  0  0  0  0  0  0  0  0  0
   59.6049   32.7465   48.3133 H   0  0  0  0  0  0  0  0  0  0  0  0
   62.9148   34.5478   47.1205 H   0  0  0  0  0  0  0  0  0  0  0  0
   64.7260   32.6870   46.8180 H   0  0  0  0  0  0  0  0  0  0  0  0
   63.6940   30.3969   47.4571 H   0  0  0  0  0  0  0  0  0  0  0  0
   61.5695   29.9056   49.1573 H   0  0  0  0  0  0  0  0  0  0  0  0
   60.1200   30.9291   48.8043 H   0  0  0  0  0  0  0  0  0  0  0  0
   59.8113   28.0215   48.6592 H   0  0  0  0  0  0  0  0  0  0  0  0
   59.1363   26.4665   46.8231 H   0  0  0  0  0  0  0  0  0  0  0  0
   60.5401   29.2206   43.8889 H   0  0  0  0  0  0  0  0  0  0  0  0
   61.2496   30.8190   45.6735 H   0  0  0  0  0  0  0  0  0  0  0  0
   60.8890   34.8816   45.2786 H   0  0  0  0  0  0  0  0  0  0  0  0
   60.8718   33.1041   45.6898 H   0  0  0  0  0  0  0  0  0  0  0  0
   58.7724   34.7420   44.2306 H   0  0  0  0  0  0  0  0  0  0  0  0
   59.6082   33.2344   43.7139 H   0  0  0  0  0  0  0  0  0  0  0  0
   57.7445   30.6018   46.4173 H   0  0  0  0  0  0  0  0  0  0  0  0
   56.9415   28.4822   45.3829 H   0  0  0  0  0  0  0  0  0  0  0  0
  1  2  2  0
  2  3  1  0
  3  4  2  0
  4  5  1  0
  5  6  1  0
  6  7  1  0
  7  8  1  0
  8  9  1  0
  9 10  1  0
 10 11  2  0
 11 12  1  0
 12 13  2  0
 13 14  1  0
 14 15  1  0
 15 16  1  0
 16 17  2  0
 17 18  1  0
 18 19  2  0
 19 20  1  0
 20 21  2  0
  8 22  1  0
 22 23  1  0
  4 24  1  0
 24 25  2  0
 25  1  1  0
 23  5  1  0
 14 10  1  0
 21 16  1  0
  1 26  1  0
  2 27  1  0
  3 28  1  0
  6 29  1  0
  6 30  1  0
  7 31  1  0
  7 32  1  0
  9 33  1  0
  9 34  1  0
 11 35  1  0
 12 36  1  0
 13 37  1  0
 15 38  1  0
 15 39  1  0
 17 40  1  0
 18 41  1  0
 20 42  1  0
 21 43  1  0
 22 44  1  0
 22 45  1  0
 23 46  1  0
 23 47  1  0
 24 48  1  0
 25 49  1  0
M  CHG  1  12   1
M  END
>  <UniqueID>  (31) 
29

>  <SMILES>  (31) 
c1ccc(N2CCN(Cc3c[nH+]cn3Cc3ccncc3)CC2)cc1

>  <Energy>  (31) 
95.49147678632332

>  <Genealogy>  (31) 
c1ccc(N2CCN(Cc3c[nH+]cn3Cc3ccncc3)CC2)cc1 (protonated)
c1ccc(N2CCN(Cc3c[nH+]cn3Cc3ccncc3)CC2)cc1 (3D coordinates assigned)
c1ccc(N2CCN(Cc3c[nH+]cn3Cc3ccncc3)CC2)cc1 (nonaromatic ring conformer: 95.49147678632332 kcal/mol)

>  <smiles>  (31) 
c1ccc(N2CCN(Cc3cncn3Cc3ccncc3)CC2)cc1

>  <score_type>  (31) 
oracle

>  <origin>  (31) 
adg

>  <m_score__min__energy>  (31) 
-6.4699999999999998

>  <m_primary>  (31) 
energy

$$$$
32:0
     RDKit          3D

 36 38  0  0  0  0  0  0  0  0999 V2000
   57.9100   32.3390   42.5400 C   0  0  0  0  0  0  0  0  0  0  0  0
   57.4030   32.3980   43.9160 N   0  0  0  0  0  0  0  0  0  0  0  0
   57.3790   33.6840   44.6240 C   0  0  0  0  0  0  0  0  0  0  0  0
   58.3640   33.6800   45.7530 C   0  0  0  0  0  0  0  0  0  0  0  0
   59.7500   33.6700   45.6090 C   0  0  0  0  0  0  0  0  0  0  0  0
   60.2410   33.7230   46.8950 C   0  0  0  0  0  0  0  0  0  0  0  0
   61.5520   33.7440   47.3640 C   0  0  0  0  0  0  0  0  0  0  0  0
   61.7500   33.8080   48.7580 C   0  0  0  0  0  0  0  0  0  0  0  0
   63.3790   33.8350   49.4060 Cl  0  0  0  0  0  0  0  0  0  0  0  0
   60.6410   33.8520   49.6340 C   0  0  0  0  0  0  0  0  0  0  0  0
   59.3300   33.8320   49.1280 C   0  0  0  0  0  0  0  0  0  0  0  0
   59.1670   33.7660   47.7450 C   0  0  0  0  0  0  0  0  0  0  0  0
   58.0120   33.7430   47.0600 N   0  0  0  0  0  0  0  0  0  0  0  0
   57.1450   31.1760   44.6390 C   0  0  0  0  0  0  0  0  0  0  0  0
   55.9670   30.7330   44.7140 O   0  0  0  0  0  0  0  0  0  0  0  0
   58.2320   30.4260   45.3040 C   0  0  0  0  0  0  0  0  0  0  0  0
   59.1020   29.6270   44.5430 C   0  0  0  0  0  0  0  0  0  0  0  0
   60.1440   28.9300   45.1640 C   0  0  0  0  0  0  0  0  0  0  0  0
   60.3320   29.0350   46.5450 C   0  0  0  0  0  0  0  0  0  0  0  0
   59.4830   29.8450   47.3050 C   0  0  0  0  0  0  0  0  0  0  0  0
   58.4400   30.5420   46.6880 C   0  0  0  0  0  0  0  0  0  0  0  0
   59.0025   32.2119   42.5569 H   0  0  0  0  0  0  0  0  0  0  0  0
   57.4499   31.4883   42.0159 H   0  0  0  0  0  0  0  0  0  0  0  0
   57.6576   33.2726   42.0159 H   0  0  0  0  0  0  0  0  0  0  0  0
   57.6377   34.4893   43.9207 H   0  0  0  0  0  0  0  0  0  0  0  0
   56.3706   33.8465   45.0323 H   0  0  0  0  0  0  0  0  0  0  0  0
   60.3262   33.6288   44.6729 H   0  0  0  0  0  0  0  0  0  0  0  0
   62.4046   33.7117   46.6697 H   0  0  0  0  0  0  0  0  0  0  0  0
   60.8057   33.9023   50.7204 H   0  0  0  0  0  0  0  0  0  0  0  0
   58.4608   33.8673   49.8012 H   0  0  0  0  0  0  0  0  0  0  0  0
   57.0460   33.7700   47.4540 H   0  0  0  0  0  0  0  0  0  0  0  0
   58.9632   29.5492   43.4546 H   0  0  0  0  0  0  0  0  0  0  0  0
   60.8162   28.2985   44.5646 H   0  0  0  0  0  0  0  0  0  0  0  0
   61.1471   28.4809   47.0334 H   0  0  0  0  0  0  0  0  0  0  0  0
   59.6360   29.9341   48.3907 H   0  0  0  0  0  0  0  0  0  0  0  0
   57.7794   31.1840   47.2892 H   0  0  0  0  0  0  0  0  0  0  0  0
  1  2  1  0
  2  3  1  0
  3  4  1  0
  4  5  2  0
  5  6  1  0
  6  7  2  0
  7  8  1  0
  8  9  1  0
  8 10  2  0
 10 11  1  0
 11 12  2  0
 12 13  1  0
  2 14  1  0
 14 15  2  0
 14 16  1  0
 16 17  2  0
 17 18  1  0
 18 19  2  0
 19 20  1  0
 20 21  2  0
 13  4  1  0
 21 16  1  0
 12  6  1  0
  1 22  1  0
  1 23  1  0
  1 24  1  0
  3 25  1  0
  3 26  1  0
  5 27  1  0
  7 28  1  0
 10 29  1  0
 11 30  1  0
 13 31  1  0
 17 32  1  0
 18 33  1  0
 19 34  1  0
 20 35  1  0
 21 36  1  0
M  END
>  <UniqueID>  (32) 
30

>  <SMILES>  (32) 
CN(Cc1cc2cc(Cl)ccc2[nH]1)C(=O)c1ccccc1

>  <Energy>  (32) 
73.14041380611815

>  <Genealogy>  (32) 
CN(Cc1cc2cc(Cl)ccc2[nH]1)C(=O)c1ccccc1 (3D coordinates assigned)
CN(Cc1cc2cc(Cl)ccc2[nH]1)C(=O)c1ccccc1 (optimized conformer: 73.14041380611815 kcal/mol)

>  <smiles>  (32) 
CN(Cc1cc2cc(Cl)ccc2[nH]1)C(=O)c1ccccc1

>  <score_type>  (32) 
oracle

>  <origin>  (32) 
adg

>  <m_score__min__energy>  (32) 
-7.6399999999999997

>  <m_primary>  (32) 
energy

$$$$
33:0
     RDKit          3D

 28 29  0  0  0  0  0  0  0  0999 V2000
   57.9150   32.8060   43.7910 C   0  0  0  0  0  0  0  0  0  0  0  0
   58.6370   33.3750   44.9730 C   0  0  0  0  0  0  0  0  0  0  0  0
   59.2490   34.6190   44.9290 C   0  0  0  0  0  0  0  0  0  0  0  0
   59.8890   35.0520   46.0710 C   0  0  0  0  0  0  0  0  0  0  0  0
   59.9440   34.3160   47.2370 C   0  0  0  0  0  0  0  0  0  0  0  0
   59.3130   33.0690   47.2330 C   0  0  0  0  0  0  0  0  0  0  0  0
   58.6650   32.5900   46.1250 C   0  0  0  0  0  0  0  0  0  0  0  0
   58.0480   31.3390   46.1680 N   0  0  0  0  0  0  0  0  0  0  0  0
   58.7210   30.0880   46.1120 C   0  0  0  0  0  0  0  0  0  0  0  0
   59.9920   30.1500   46.0160 O   0  0  0  0  0  0  0  0  0  0  0  0
   58.0190   28.8230   46.1610 C   0  0  0  0  0  0  0  0  0  0  0  0
   58.6480   27.7490   46.7610 C   0  0  0  0  0  0  0  0  0  0  0  0
   57.9520   26.5540   46.7930 C   0  0  0  0  0  0  0  0  0  0  0  0
   56.6900   26.4840   46.2370 C   0  0  0  0  0  0  0  0  0  0  0  0
   56.0110   25.4010   46.2440 O   0  0  0  0  0  0  0  0  0  0  0  0
   56.0990   27.5440   45.6580 N   0  0  0  0  0  0  0  0  0  0  0  0
   56.7870   28.6910   45.6370 N   0  0  0  0  0  0  0  0  0  0  0  0
   57.0952   32.1599   44.1382 H   0  0  0  0  0  0  0  0  0  0  0  0
   57.5038   33.6254   43.1832 H   0  0  0  0  0  0  0  0  0  0  0  0
   58.6156   32.2146   43.1832 H   0  0  0  0  0  0  0  0  0  0  0  0
   59.2247   35.2360   44.0186 H   0  0  0  0  0  0  0  0  0  0  0  0
   60.3814   36.0354   46.0516 H   0  0  0  0  0  0  0  0  0  0  0  0
   60.4619   34.6943   48.1307 H   0  0  0  0  0  0  0  0  0  0  0  0
   59.3373   32.4548   48.1452 H   0  0  0  0  0  0  0  0  0  0  0  0
   56.9950   31.2820   46.2470 H   0  0  0  0  0  0  0  0  0  0  0  0
   59.6554   27.8400   47.1932 H   0  0  0  0  0  0  0  0  0  0  0  0
   58.4013   25.6645   47.2587 H   0  0  0  0  0  0  0  0  0  0  0  0
   55.1440   27.4690   45.2440 H   0  0  0  0  0  0  0  0  0  0  0  0
  1  2  1  0
  2  3  2  0
  3  4  1  0
  4  5  2  0
  5  6  1  0
  6  7  2  0
  7  8  1  0
  8  9  1  0
  9 10  2  0
  9 11  1  0
 11 12  1  0
 12 13  2  0
 13 14  1  0
 14 15  2  0
 14 16  1  0
 16 17  1  0
  7  2  1  0
 17 11  2  0
  1 18  1  0
  1 19  1  0
  1 20  1  0
  3 21  1  0
  4 22  1  0
  5 23  1  0
  6 24  1  0
  8 25  1  0
 12 26  1  0
 13 27  1  0
 16 28  1  0
M  END
>  <smiles>  (33) 
Cc1ccccc1NC(=O)c1ccc(=O)[nH]n1

>  <score_type>  (33) 
oracle

>  <origin>  (33) 
adg

>  <m_score__min__energy>  (33) 
-6.7699999999999996

>  <m_primary>  (33) 
energy

$$$$
34:0
     RDKit          3D

 68 73  0  0  0  0  0  0  0  0999 V2000
   62.8960   31.6800   47.3510 C   0  0  0  0  0  0  0  0  0  0  0  0
   61.4560   31.4710   47.8490 C   0  0  0  0  0  0  0  0  0  0  0  0
   60.8400   32.8050   48.3020 C   0  0  0  0  0  0  0  0  0  0  0  0
   60.5760   30.7840   46.7510 C   0  0  0  0  0  0  0  0  0  0  0  0
   60.1050   29.5270   47.3350 N   0  0  0  0  0  0  0  0  0  0  0  0
   59.1350   28.6610   46.7160 C   0  0  0  0  0  0  0  0  0  0  0  0
   59.3480   27.2750   46.6470 C   0  0  0  0  0  0  0  0  0  0  0  0
   58.4160   26.4480   46.0150 C   0  0  0  0  0  0  0  0  0  0  0  0
   58.6410   25.1130   45.9340 F   0  0  0  0  0  0  0  0  0  0  0  0
   57.2510   26.9950   45.4700 C   0  0  0  0  0  0  0  0  0  0  0  0
   56.9980   28.3670   45.5700 C   0  0  0  0  0  0  0  0  0  0  0  0
   55.7970   28.8660   45.0440 O   0  0  0  0  0  0  0  0  0  0  0  0
   55.7140   29.7190   43.9050 C   0  0  0  0  0  0  0  0  0  0  0  0
   56.6680   30.8680   44.0310 C   0  0  0  0  0  0  0  0  0  0  0  0
   57.3620   31.3610   42.9130 C   0  0  0  0  0  0  0  0  0  0  0  0
   58.1920   32.4760   43.0530 C   0  0  0  0  0  0  0  0  0  0  0  0
   58.3070   33.1080   44.2970 C   0  0  0  0  0  0  0  0  0  0  0  0
   59.1210   34.2380   44.4680 C   0  0  0  0  0  0  0  0  0  0  0  0
   59.2000   34.8560   45.7210 C   0  0  0  0  0  0  0  0  0  0  0  0
   58.4740   34.3510   46.8060 C   0  0  0  0  0  0  0  0  0  0  0  0
   57.6620   33.2230   46.6440 C   0  0  0  0  0  0  0  0  0  0  0  0
   57.5770   32.5970   45.3940 C   0  0  0  0  0  0  0  0  0  0  0  0
   56.7820   31.5050   45.2300 N   0  0  0  0  0  0  0  0  0  0  0  0
   57.9460   29.1980   46.1960 C   0  0  0  0  0  0  0  0  0  0  0  0
   60.6550   29.3920   48.6380 C   0  0  0  0  0  0  0  0  0  0  0  0
   60.5130   28.3040   49.5060 C   0  0  0  0  0  0  0  0  0  0  0  0
   61.1290   28.3590   50.7730 C   0  0  0  0  0  0  0  0  0  0  0  0
   60.9290   27.2950   51.7220 N   0  0  0  0  0  0  0  0  0  0  0  0
   60.0500   27.5030   52.8800 C   0  0  0  0  0  0  0  0  0  0  0  0
   60.3320   26.4590   53.9700 C   0  0  0  0  0  0  0  0  0  0  0  0
   61.7710   26.1710   54.0350 N   0  0  0  0  0  0  0  0  0  0  0  0
   62.2730   25.5170   52.8060 C   0  0  0  0  0  0  0  0  0  0  0  0
   61.5420   25.9760   51.5260 C   0  0  0  0  0  0  0  0  0  0  0  0
   61.9040   29.4900   51.1200 C   0  0  0  0  0  0  0  0  0  0  0  0
   62.0620   30.5500   50.2140 C   0  0  0  0  0  0  0  0  0  0  0  0
   61.4260   30.4730   48.9700 C   0  0  0  0  0  0  0  0  0  0  0  0
   63.5716   31.7781   48.2135 H   0  0  0  0  0  0  0  0  0  0  0  0
   63.2022   30.8169   46.7417 H   0  0  0  0  0  0  0  0  0  0  0  0
   62.9441   32.5945   46.7417 H   0  0  0  0  0  0  0  0  0  0  0  0
   60.8212   32.8457   49.4011 H   0  0  0  0  0  0  0  0  0  0  0  0
   61.4445   33.6383   47.9145 H   0  0  0  0  0  0  0  0  0  0  0  0
   59.8137   32.8853   47.9145 H   0  0  0  0  0  0  0  0  0  0  0  0
   59.7225   31.4265   46.4888 H   0  0  0  0  0  0  0  0  0  0  0  0
   61.1493   30.6084   45.8288 H   0  0  0  0  0  0  0  0  0  0  0  0
   60.2536   26.8378   47.0929 H   0  0  0  0  0  0  0  0  0  0  0  0
   56.5282   26.3421   44.9589 H   0  0  0  0  0  0  0  0  0  0  0  0
   55.9624   29.1411   43.0026 H   0  0  0  0  0  0  0  0  0  0  0  0
   54.6905   30.1160   43.8352 H   0  0  0  0  0  0  0  0  0  0  0  0
   57.2524   30.8721   41.9337 H   0  0  0  0  0  0  0  0  0  0  0  0
   58.7541   32.8567   42.1875 H   0  0  0  0  0  0  0  0  0  0  0  0
   59.6956   34.6371   43.6192 H   0  0  0  0  0  0  0  0  0  0  0  0
   59.8361   35.7435   45.8540 H   0  0  0  0  0  0  0  0  0  0  0  0
   58.5419   34.8419   47.7880 H   0  0  0  0  0  0  0  0  0  0  0  0
   57.0911   32.8284   47.4974 H   0  0  0  0  0  0  0  0  0  0  0  0
   57.7539   30.2779   46.2787 H   0  0  0  0  0  0  0  0  0  0  0  0
   59.9306   27.4207   49.2051 H   0  0  0  0  0  0  0  0  0  0  0  0
   60.2244   28.5089   53.2897 H   0  0  0  0  0  0  0  0  0  0  0  0
   59.0046   27.3998   52.5535 H   0  0  0  0  0  0  0  0  0  0  0  0
   59.9949   26.8481   54.9421 H   0  0  0  0  0  0  0  0  0  0  0  0
   59.7906   25.5324   53.7288 H   0  0  0  0  0  0  0  0  0  0  0  0
   62.2970   27.0630   54.1940 H   0  0  0  0  0  0  0  0  0  0  0  0
   61.9560   25.5440   54.8520 H   0  0  0  0  0  0  0  0  0  0  0  0
   63.3428   25.7495   52.6992 H   0  0  0  0  0  0  0  0  0  0  0  0
   62.0915   24.4375   52.9147 H   0  0  0  0  0  0  0  0  0  0  0  0
   62.2646   26.0332   50.6986 H   0  0  0  0  0  0  0  0  0  0  0  0
   60.7498   25.2496   51.2920 H   0  0  0  0  0  0  0  0  0  0  0  0
   62.3865   29.5392   52.1073 H   0  0  0  0  0  0  0  0  0  0  0  0
   62.6744   31.4251   50.4769 H   0  0  0  0  0  0  0  0  0  0  0  0
  1  2  1  0
  2  3  1  0
  2  4  1  0
  4  5  1  0
  5  6  1  0
  6  7  2  0
  7  8  1  0
  8  9  1  0
  8 10  2  0
 10 11  1  0
 11 12  1  0
 12 13  1  0
 13 14  1  0
 14 15  2  0
 15 16  1  0
 16 17  2  0
 17 18  1  0
 18 19  2  0
 19 20  1  0
 20 21  2  0
 21 22  1  0
 22 23  2  0
 11 24  2  0
  5 25  1  0
 25 26  2  0
 26 27  1  0
 27 28  1  0
 28 29  1  0
 29 30  1  0
 30 31  1  0
 31 32  1  0
 32 33  1  0
 27 34  2  0
 34 35  1  0
 35 36  2  0
 36  2  1  0
 24  6  1  0
 36 25  1  0
 23 14  1  0
 33 28  1  0
 22 17  1  0
  1 37  1  0
  1 38  1  0
  1 39  1  0
  3 40  1  0
  3 41  1  0
  3 42  1  0
  4 43  1  0
  4 44  1  0
  7 45  1  0
 10 46  1  0
 13 47  1  0
 13 48  1  0
 15 49  1  0
 16 50  1  0
 18 51  1  0
 19 52  1  0
 20 53  1  0
 21 54  1  0
 24 55  1  0
 26 56  1  0
 29 57  1  0
 29 58  1  0
 30 59  1  0
 30 60  1  0
 31 61  1  0
 31 62  1  0
 32 63  1  0
 32 64  1  0
 33 65  1  0
 33 66  1  0
 34 67  1  0
 35 68  1  0
M  CHG  1  31   1
M  END
>  <UniqueID>  (34) 
31

>  <SMILES>  (34) 
CC1(C)CN(c2cc(F)cc(OCc3ccc4ccccc4n3)c2)c2cc(N3CC[NH2+]CC3)ccc21

>  <Energy>  (34) 
102.48249829530656

>  <Genealogy>  (34) 
CC1(C)CN(c2cc(F)cc(OCc3ccc4ccccc4n3)c2)c2cc(N3CC[NH2+]CC3)ccc21 (protonated)
CC1(C)CN(c2cc(F)cc(OCc3ccc4ccccc4n3)c2)c2cc(N3CC[NH2+]CC3)ccc21 (3D coordinates assigned)
CC1(C)CN(c2cc(F)cc(OCc3ccc4ccccc4n3)c2)c2cc(N3CC[NH2+]CC3)ccc21 (nonaromatic ring conformer: 102.48249829530656 kcal/mol)

>  <smiles>  (34) 
CC1(C)CN(c2cc(F)cc(OCc3ccc4ccccc4n3)c2)c2cc(N3CCNCC3)ccc21

>  <score_type>  (34) 
oracle

>  <origin>  (34) 
adg

>  <m_score__min__energy>  (34) 
-10.07

>  <m_primary>  (34) 
energy

$$$$
35:0
     RDKit          3D

 56 58  0  0  0  0  0  0  0  0999 V2000
   54.3080   25.0180   45.6400 C   0  0  0  0  0  0  0  0  0  0  0  0
   54.8700   26.2900   45.9430 O   0  0  0  0  0  0  0  0  0  0  0  0
   56.2450   26.5410   46.0740 C   0  0  0  0  0  0  0  0  0  0  0  0
   57.1380   25.5720   46.5780 C   0  0  0  0  0  0  0  0  0  0  0  0
   58.5020   25.8550   46.6790 C   0  0  0  0  0  0  0  0  0  0  0  0
   58.9940   27.0930   46.2650 C   0  0  0  0  0  0  0  0  0  0  0  0
   58.1200   28.0590   45.7630 C   0  0  0  0  0  0  0  0  0  0  0  0
   56.7390   27.8000   45.6910 C   0  0  0  0  0  0  0  0  0  0  0  0
   55.8350   28.7700   45.1430 N   0  0  0  0  0  0  0  0  0  0  0  0
   56.1480   29.7330   44.1290 C   0  0  0  0  0  0  0  0  0  0  0  0
   56.2310   29.3490   42.9330 O   0  0  0  0  0  0  0  0  0  0  0  0
   56.2850   31.1960   44.4410 C   0  0  0  0  0  0  0  0  0  0  0  0
   58.0160   31.7410   44.2330 S   0  0  0  0  0  0  0  0  0  0  0  0
   58.2560   32.1840   45.9570 C   0  0  0  0  0  0  0  0  0  0  0  0
   57.5770   33.1760   46.5650 N   0  0  0  0  0  0  0  0  0  0  0  0
   58.0390   33.2550   47.8040 N   0  0  0  0  0  0  0  0  0  0  0  0
   58.9950   32.3130   47.9310 C   0  0  0  0  0  0  0  0  0  0  0  0
   59.8180   32.1330   49.1710 C   0  0  0  0  0  0  0  0  0  0  0  0
   61.0330   31.3450   48.8980 N   0  0  0  0  0  0  0  0  0  0  0  0
   62.2210   31.8310   49.6400 C   0  0  0  0  0  0  0  0  0  0  0  0
   63.5060   31.6840   48.7770 C   0  0  0  0  0  0  0  0  0  0  0  0
   63.3260   31.9530   47.2730 C   0  0  0  0  0  0  0  0  0  0  0  0
   63.0230   33.4110   46.8970 C   0  0  0  0  0  0  0  0  0  0  0  0
   61.8500   34.0350   47.6750 C   0  0  0  0  0  0  0  0  0  0  0  0
   62.1370   34.4130   49.1500 C   0  0  0  0  0  0  0  0  0  0  0  0
   61.9650   33.2750   50.1750 C   0  0  0  0  0  0  0  0  0  0  0  0
   59.1490   31.6110   46.7880 N   0  0  0  0  0  0  0  0  0  0  0  0
   60.1820   30.6270   46.4680 C   0  0  0  0  0  0  0  0  0  0  0  0
   54.0740   24.4883   46.5753 H   0  0  0  0  0  0  0  0  0  0  0  0
   53.3863   25.1542   45.0553 H   0  0  0  0  0  0  0  0  0  0  0  0
   55.0294   24.4283   45.0553 H   0  0  0  0  0  0  0  0  0  0  0  0
   56.7582   24.5889   46.8929 H   0  0  0  0  0  0  0  0  0  0  0  0
   59.1902   25.0996   47.0861 H   0  0  0  0  0  0  0  0  0  0  0  0
   60.0706   27.3080   46.3341 H   0  0  0  0  0  0  0  0  0  0  0  0
   58.5133   29.0280   45.4219 H   0  0  0  0  0  0  0  0  0  0  0  0
   55.6408   31.7722   43.7606 H   0  0  0  0  0  0  0  0  0  0  0  0
   55.9842   31.3646   45.4855 H   0  0  0  0  0  0  0  0  0  0  0  0
   60.1108   33.1220   49.5533 H   0  0  0  0  0  0  0  0  0  0  0  0
   59.2130   31.5920   49.9135 H   0  0  0  0  0  0  0  0  0  0  0  0
   60.8120   30.3630   49.1940 H   0  0  0  0  0  0  0  0  0  0  0  0
   62.3939   31.2049   50.5278 H   0  0  0  0  0  0  0  0  0  0  0  0
   64.2553   32.3919   49.1609 H   0  0  0  0  0  0  0  0  0  0  0  0
   63.8088   30.6299   48.8619 H   0  0  0  0  0  0  0  0  0  0  0  0
   64.2536   31.6562   46.7616 H   0  0  0  0  0  0  0  0  0  0  0  0
   62.4455   31.3706   46.9638 H   0  0  0  0  0  0  0  0  0  0  0  0
   63.9239   34.0114   47.0918 H   0  0  0  0  0  0  0  0  0  0  0  0
   62.7319   33.4089   45.8362 H   0  0  0  0  0  0  0  0  0  0  0  0
   61.5447   34.9501   47.1465 H   0  0  0  0  0  0  0  0  0  0  0  0
   61.0733   33.2570   47.7143 H   0  0  0  0  0  0  0  0  0  0  0  0
   63.1756   34.7700   49.2119 H   0  0  0  0  0  0  0  0  0  0  0  0
   61.3884   35.1736   49.4167 H   0  0  0  0  0  0  0  0  0  0  0  0
   62.6670   33.4574   51.0020 H   0  0  0  0  0  0  0  0  0  0  0  0
   60.9060   33.2991   50.4716 H   0  0  0  0  0  0  0  0  0  0  0  0
   60.6054   30.2237   47.3997 H   0  0  0  0  0  0  0  0  0  0  0  0
   59.7394   29.8082   45.8818 H   0  0  0  0  0  0  0  0  0  0  0  0
   60.9784   31.1088   45.8818 H   0  0  0  0  0  0  0  0  0  0  0  0
  1  2  1  0
  2  3  1  0
  3  4  2  0
  4  5  1  0
  5  6  2  0
  6  7  1  0
  7  8  2  0
  8  9  1  0
  9 10  1  0
 10 11  2  0
 10 12  1  0
 12 13  1  0
 13 14  1  0
 14 15  2  0
 15 16  1  0
 16 17  2  0
 17 18  1  0
 18 19  1  0
 19 20  1  0
 20 21  1  0
 21 22  1  0
 22 23  1  0
 23 24  1  0
 24 25  1  0
 25 26  1  0
 17 27  1  0
 27 28  1  0
  8  3  1  0
 27 14  1  0
 26 20  1  0
  1 29  1  0
  1 30  1  0
  1 31  1  0
  4 32  1  0
  5 33  1  0
  6 34  1  0
  7 35  1  0
 12 36  1  0
 12 37  1  0
 18 38  1  0
 18 39  1  0
 19 40  1  0
 20 41  1  0
 21 42  1  0
 21 43  1  0
 22 44  1  0
 22 45  1  0
 23 46  1  0
 23 47  1  0
 24 48  1  0
 24 49  1  0
 25 50  1  0
 25 51  1  0
 26 52  1  0
 26 53  1  0
 28 54  1  0
 28 55  1  0
 28 56  1  0
M  CHG  1   9  -1
M  END
>  <UniqueID>  (35) 
32

>  <SMILES>  (35) 
COc1ccccc1[N-]C(=O)CSc1nnc(CNC2CCCCCC2)n1C

>  <Energy>  (35) 
100.71262304063934

>  <Genealogy>  (35) 
COc1ccccc1[N-]C(=O)CSc1nnc(CNC2CCCCCC2)n1C (protonated)
COc1ccccc1[N-]C(=O)CSc1nnc(CNC2CCCCCC2)n1C (3D coordinates assigned)
COc1ccccc1[N-]C(=O)CSc1nnc(CNC2CCCCCC2)n1C (nonaromatic ring conformer: 100.71262304063934 kcal/mol)

>  <smiles>  (35) 
COc1ccccc1NC(=O)CSc1nnc(CNC2CCCCCC2)n1C

>  <score_type>  (35) 
oracle

>  <origin>  (35) 
adg

>  <m_score__min__energy>  (35) 
-9.3499999999999996

>  <m_primary>  (35) 
energy

$$$$
36:0
     RDKit          3D

 54 57  0  0  0  0  0  0  0  0999 V2000
   60.7980   26.6220   49.3400 C   0  0  0  0  0  0  0  0  0  0  0  0
   60.4120   26.2040   48.0340 O   0  0  0  0  0  0  0  0  0  0  0  0
   59.2900   26.6870   47.3430 C   0  0  0  0  0  0  0  0  0  0  0  0
   58.3500   25.8210   46.7530 C   0  0  0  0  0  0  0  0  0  0  0  0
   57.2390   26.3340   46.0800 C   0  0  0  0  0  0  0  0  0  0  0  0
   57.0480   27.7140   45.9720 C   0  0  0  0  0  0  0  0  0  0  0  0
   55.8950   28.1910   45.2650 N   0  0  0  0  0  0  0  0  0  0  0  0
   55.8760   29.4840   44.1090 S   0  0  0  0  0  0  0  0  0  0  0  0
   57.0380   29.1550   42.7990 C   0  0  0  0  0  0  0  0  0  0  0  0
   54.4910   29.6550   43.5500 O   0  0  0  0  0  0  0  0  0  0  0  0
   56.2790   30.7540   44.8000 O   0  0  0  0  0  0  0  0  0  0  0  0
   57.9890   28.5830   46.5480 C   0  0  0  0  0  0  0  0  0  0  0  0
   59.0990   28.0790   47.2480 C   0  0  0  0  0  0  0  0  0  0  0  0
   60.0650   28.9730   47.8290 N   0  0  0  0  0  0  0  0  0  0  0  0
   59.7110   30.0760   48.6800 C   0  0  0  0  0  0  0  0  0  0  0  0
   58.5370   30.1750   49.1240 O   0  0  0  0  0  0  0  0  0  0  0  0
   60.7280   31.0870   49.0460 C   0  0  0  0  0  0  0  0  0  0  0  0
   62.0480   30.7730   49.3580 C   0  0  0  0  0  0  0  0  0  0  0  0
   62.6470   31.9720   49.6620 C   0  0  0  0  0  0  0  0  0  0  0  0
   63.9540   32.2430   50.0590 C   0  0  0  0  0  0  0  0  0  0  0  0
   64.2940   33.5780   50.3360 C   0  0  0  0  0  0  0  0  0  0  0  0
   63.3280   34.5990   50.2150 C   0  0  0  0  0  0  0  0  0  0  0  0
   62.0140   34.2960   49.8120 C   0  0  0  0  0  0  0  0  0  0  0  0
   61.7010   32.9580   49.5330 C   0  0  0  0  0  0  0  0  0  0  0  0
   60.5150   32.4320   49.1460 N   0  0  0  0  0  0  0  0  0  0  0  0
   59.2380   33.1460   49.0100 C   0  0  0  0  0  0  0  0  0  0  0  0
   58.9940   33.5250   47.5730 C   0  0  0  0  0  0  0  0  0  0  0  0
   57.9980   32.8790   46.8190 C   0  0  0  0  0  0  0  0  0  0  0  0
   57.7700   33.2460   45.4890 C   0  0  0  0  0  0  0  0  0  0  0  0
   58.5360   34.2540   44.9000 C   0  0  0  0  0  0  0  0  0  0  0  0
   59.5360   34.8950   45.6370 C   0  0  0  0  0  0  0  0  0  0  0  0
   59.7670   34.5300   46.9680 C   0  0  0  0  0  0  0  0  0  0  0  0
   60.2523   26.0311   50.0904 H   0  0  0  0  0  0  0  0  0  0  0  0
   61.8797   26.4695   49.4690 H   0  0  0  0  0  0  0  0  0  0  0  0
   60.5600   27.6882   49.4690 H   0  0  0  0  0  0  0  0  0  0  0  0
   58.4916   24.7324   46.8226 H   0  0  0  0  0  0  0  0  0  0  0  0
   56.5079   25.6457   45.6310 H   0  0  0  0  0  0  0  0  0  0  0  0
   58.0108   28.8796   43.2324 H   0  0  0  0  0  0  0  0  0  0  0  0
   56.6656   28.3270   42.1779 H   0  0  0  0  0  0  0  0  0  0  0  0
   57.1550   30.0553   42.1779 H   0  0  0  0  0  0  0  0  0  0  0  0
   57.8559   29.6705   46.4503 H   0  0  0  0  0  0  0  0  0  0  0  0
   61.0780   28.7430   47.7210 H   0  0  0  0  0  0  0  0  0  0  0  0
   62.5131   29.7762   49.3606 H   0  0  0  0  0  0  0  0  0  0  0  0
   64.6970   31.4373   50.1528 H   0  0  0  0  0  0  0  0  0  0  0  0
   65.3185   33.8282   50.6487 H   0  0  0  0  0  0  0  0  0  0  0  0
   63.6040   35.6403   50.4374 H   0  0  0  0  0  0  0  0  0  0  0  0
   61.2544   35.0861   49.7186 H   0  0  0  0  0  0  0  0  0  0  0  0
   58.4213   32.4955   49.3561 H   0  0  0  0  0  0  0  0  0  0  0  0
   59.2773   34.0625   49.6171 H   0  0  0  0  0  0  0  0  0  0  0  0
   57.3954   32.0812   47.2777 H   0  0  0  0  0  0  0  0  0  0  0  0
   56.9863   32.7400   44.9061 H   0  0  0  0  0  0  0  0  0  0  0  0
   58.3523   34.5440   43.8549 H   0  0  0  0  0  0  0  0  0  0  0  0
   60.1413   35.6863   45.1707 H   0  0  0  0  0  0  0  0  0  0  0  0
   60.5581   35.0327   47.5437 H   0  0  0  0  0  0  0  0  0  0  0  0
  1  2  1  0
  2  3  1  0
  3  4  2  0
  4  5  1  0
  5  6  2  0
  6  7  1  0
  7  8  1  0
  8  9  1  0
  8 10  2  0
  8 11  2  0
  6 12  1  0
 12 13  2  0
 13 14  1  0
 14 15  1  0
 15 16  2  0
 15 17  1  0
 17 18  2  0
 18 19  1  0
 19 20  2  0
 20 21  1  0
 21 22  2  0
 22 23  1  0
 23 24  2  0
 24 25  1  0
 25 26  1  0
 26 27  1  0
 27 28  2  0
 28 29  1  0
 29 30  2  0
 30 31  1  0
 31 32  2  0
 13  3  1  0
 25 17  1  0
 32 27  1  0
 24 19  1  0
  1 33  1  0
  1 34  1  0
  1 35  1  0
  4 36  1  0
  5 37  1  0
  9 38  1  0
  9 39  1  0
  9 40  1  0
 12 41  1  0
 14 42  1  0
 18 43  1  0
 20 44  1  0
 21 45  1  0
 22 46  1  0
 23 47  1  0
 26 48  1  0
 26 49  1  0
 28 50  1  0
 29 51  1  0
 30 52  1  0
 31 53  1  0
 32 54  1  0
M  CHG  1   7  -1
M  END
>  <UniqueID>  (36) 
33

>  <SMILES>  (36) 
COc1ccc([N-]S(C)(=O)=O)cc1NC(=O)c1cc2ccccc2n1Cc1ccccc1

>  <Energy>  (36) 
95.33492787268149

>  <Genealogy>  (36) 
COc1ccc([N-]S(C)(=O)=O)cc1NC(=O)c1cc2ccccc2n1Cc1ccccc1 (protonated)
COc1ccc([N-]S(C)(=O)=O)cc1NC(=O)c1cc2ccccc2n1Cc1ccccc1 (3D coordinates assigned)
COc1ccc([N-]S(C)(=O)=O)cc1NC(=O)c1cc2ccccc2n1Cc1ccccc1 (optimized conformer: 95.33492787268149 kcal/mol)

>  <smiles>  (36) 
COc1ccc(NS(C)(=O)=O)cc1NC(=O)c1cc2ccccc2n1Cc1ccccc1

>  <score_type>  (36) 
oracle

>  <origin>  (36) 
adg

>  <m_score__min__energy>  (36) 
-11.619999999999999

>  <m_primary>  (36) 
energy

$$$$
37:0
     RDKit          3D

 32 34  0  0  0  0  0  0  0  0999 V2000
   60.4717   28.4963   47.6793 H   0  0  0  0  0  0  0  0  0  0  0  0
   59.7600   28.2070   46.8920 C   0  0  0  0  0  0  0  0  0  0  0  0
   60.1090   28.0060   45.6030 N   0  0  0  0  0  0  0  0  0  0  0  0
   58.9480   27.6740   45.0070 C   0  0  0  0  0  0  0  0  0  0  0  0
   58.8203   27.4305   43.9419 H   0  0  0  0  0  0  0  0  0  0  0  0
   57.9490   27.6900   45.9510 C   0  0  0  0  0  0  0  0  0  0  0  0
   56.5060   27.3580   45.7350 C   0  0  0  0  0  0  0  0  0  0  0  0
   56.0608   27.0432   46.6904 H   0  0  0  0  0  0  0  0  0  0  0  0
   56.4363   26.5461   44.9961 H   0  0  0  0  0  0  0  0  0  0  0  0
   55.7800   28.5200   45.2270 N   0  0  0  0  0  0  0  0  0  0  0  0
   56.2930   29.4350   44.4570 C   0  0  0  0  0  0  0  0  0  0  0  0
   57.0220   30.4600   44.9800 N   0  0  0  0  0  0  0  0  0  0  0  0
   57.5650   31.4450   44.2120 C   0  0  0  0  0  0  0  0  0  0  0  0
   58.3240   32.5200   44.8910 C   0  0  0  0  0  0  0  0  0  0  0  0
   58.1400   33.8560   44.4970 C   0  0  0  0  0  0  0  0  0  0  0  0
   57.4169   34.0981   43.7042 H   0  0  0  0  0  0  0  0  0  0  0  0
   58.8720   34.8800   45.1080 C   0  0  0  0  0  0  0  0  0  0  0  0
   58.7126   35.9254   44.8053 H   0  0  0  0  0  0  0  0  0  0  0  0
   59.8050   34.5760   46.1020 C   0  0  0  0  0  0  0  0  0  0  0  0
   60.3773   35.3826   46.5836 H   0  0  0  0  0  0  0  0  0  0  0  0
   60.0120   33.2490   46.4850 C   0  0  0  0  0  0  0  0  0  0  0  0
   60.9300   32.9540   47.4390 F   0  0  0  0  0  0  0  0  0  0  0  0
   59.2810   32.2220   45.8780 C   0  0  0  0  0  0  0  0  0  0  0  0
   59.4554   31.1770   46.1739 H   0  0  0  0  0  0  0  0  0  0  0  0
   57.3950   31.3940   42.8090 C   0  0  0  0  0  0  0  0  0  0  0  0
   58.0200   32.3470   41.9240 C   0  0  0  0  0  0  0  0  0  0  0  0
   58.5220   33.1110   41.2140 N   0  0  0  0  0  0  0  0  0  0  0  0
   56.6480   30.3490   42.2540 C   0  0  0  0  0  0  0  0  0  0  0  0
   56.5009   30.2992   41.1650 H   0  0  0  0  0  0  0  0  0  0  0  0
   56.0890   29.3700   43.0760 C   0  0  0  0  0  0  0  0  0  0  0  0
   55.4930   28.5542   42.6409 H   0  0  0  0  0  0  0  0  0  0  0  0
   58.4770   28.0190   47.1020 O   0  0  0  0  0  0  0  0  0  0  0  0
  1  2  1  0
  2  3  2  0
  3  4  1  0
  4  5  1  0
  4  6  2  0
  6  7  1  0
  7  8  1  0
  7  9  1  0
  7 10  1  0
 10 11  2  0
 11 12  1  0
 12 13  1  0
 13 14  1  0
 14 15  2  0
 15 16  1  0
 15 17  1  0
 17 18  1  0
 17 19  2  0
 19 20  1  0
 19 21  1  0
 21 22  1  0
 21 23  2  0
 23 24  1  0
 13 25  2  0
 25 26  1  0
 26 27  3  0
 25 28  1  0
 28 29  1  0
 28 30  2  0
 30 31  1  0
  6 32  1  0
 32  2  1  0
 30 11  1  0
 23 14  1  0
M  CHG  1  12  -1
M  END
>  <UniqueID>  (37) 
34

>  <SMILES>  (37) 
N#Cc1cc/c(=N/Cc2cnco2)[n-]c1-c1cccc(F)c1

>  <Energy>  (37) 
69.13766477269847

>  <Genealogy>  (37) 
N#Cc1ccc(=NCc2cnco2)[n-]c1-c1cccc(F)c1 (protonated)
N#Cc1cc/c(=N/Cc2cnco2)[n-]c1-c1cccc(F)c1 (cis-trans isomerization)
N#Cc1cc/c(=N/Cc2cnco2)[n-]c1-c1cccc(F)c1 (3D coordinates assigned)
N#Cc1cc/c(=N/Cc2cnco2)[n-]c1-c1cccc(F)c1 (optimized conformer: 69.13766477269847 kcal/mol)

>  <smiles>  (37) 
N#Cc1ccc(=NCc2cnco2)[nH]c1-c1cccc(F)c1

>  <score_type>  (37) 
oracle

>  <origin>  (37) 
adg

>  <m_score__min__energy>  (37) 
-9.4299999999999997

>  <m_primary>  (37) 
energy

$$$$
38:0
     RDKit          3D

 31 32  0  0  1  0  0  0  0  0999 V2000
   60.1520   34.3350   48.9800 C   0  0  0  0  0  0  0  0  0  0  0  0
   59.5040   34.9640   47.8710 O   0  0  0  0  0  0  0  0  0  0  0  0
   58.9980   34.2080   46.8390 C   0  0  0  0  0  0  0  0  0  0  0  0
   59.1370   34.5580   45.5020 C   0  0  0  0  0  0  0  0  0  0  0  0
   58.6080   33.7640   44.4950 C   0  0  0  0  0  0  0  0  0  0  0  0
   57.9180   32.5850   44.7840 C   0  0  0  0  0  0  0  0  0  0  0  0
   57.3720   31.7570   43.7050 C   0  0  0  0  0  0  0  0  0  0  0  0
   57.7550   32.0910   42.3490 C   0  0  0  0  0  0  0  0  0  0  0  0
   58.0620   32.3570   41.2660 N   0  0  0  0  0  0  0  0  0  0  0  0
   56.5710   30.7370   43.9000 C   0  0  0  0  0  0  0  0  0  0  0  0
   57.0050   29.3950   44.2550 C   0  0  0  0  0  0  0  0  0  0  0  0
   56.4010   28.6360   45.2160 N   0  0  0  0  0  0  0  0  0  0  0  0
   57.0380   27.4480   45.2970 C   0  0  0  0  0  0  0  0  0  0  0  0
   56.6120   26.3940   46.2610 C   0  0  0  0  0  0  0  0  0  0  0  0
   58.0510   27.4520   44.3830 C   0  0  0  0  0  0  0  0  0  0  0  0
   58.0050   28.6470   43.7650 N   0  0  0  0  0  0  0  0  0  0  0  0
   57.7930   32.2600   46.1020 C   0  0  0  0  0  0  0  0  0  0  0  0
   58.3200   33.0500   47.1270 C   0  0  0  0  0  0  0  0  0  0  0  0
   59.7411   34.7339   49.9192 H   0  0  0  0  0  0  0  0  0  0  0  0
   59.9811   33.2492   48.9369 H   0  0  0  0  0  0  0  0  0  0  0  0
   61.2322   34.5381   48.9369 H   0  0  0  0  0  0  0  0  0  0  0  0
   59.6754   35.4800   45.2374 H   0  0  0  0  0  0  0  0  0  0  0  0
   58.7349   34.0698   43.4460 H   0  0  0  0  0  0  0  0  0  0  0  0
   55.4905   30.9093   43.7866 H   0  0  0  0  0  0  0  0  0  0  0  0
   56.7585   26.7566   47.2891 H   0  0  0  0  0  0  0  0  0  0  0  0
   55.5488   26.1603   46.1026 H   0  0  0  0  0  0  0  0  0  0  0  0
   57.2142   25.4872   46.1026 H   0  0  0  0  0  0  0  0  0  0  0  0
   58.7653   26.6382   44.1891 H   0  0  0  0  0  0  0  0  0  0  0  0
   58.6660   28.9320   43.0110 H   0  0  0  0  0  0  0  0  0  0  0  0
   57.2554   31.3383   46.3695 H   0  0  0  0  0  0  0  0  0  0  0  0
   58.1902   32.7409   48.1747 H   0  0  0  0  0  0  0  0  0  0  0  0
  1  2  1  0
  2  3  1  0
  3  4  2  0
  4  5  1  0
  5  6  2  0
  6  7  1  0
  7  8  1  0
  8  9  3  0
  7 10  2  0
 10 11  1  0
 11 12  2  0
 12 13  1  0
 13 14  1  0
 13 15  2  0
 15 16  1  0
  6 17  1  0
 17 18  2  0
 18  3  1  0
 16 11  1  0
  1 19  1  0
  1 20  1  0
  1 21  1  0
  4 22  1  0
  5 23  1  0
 10 24  1  0
 14 25  1  0
 14 26  1  0
 14 27  1  0
 15 28  1  0
 16 29  1  0
 17 30  1  0
 18 31  1  0
M  END
>  <smiles>  (38) 
COc1ccc(C(C#N)=Cc2nc(C)c[nH]2)cc1

>  <score_type>  (38) 
oracle

>  <origin>  (38) 
adg

>  <m_score__min__energy>  (38) 
-6.5700000000000003

>  <m_primary>  (38) 
energy

$$$$
39:0
     RDKit          3D

 48 51  0  0  0  0  0  0  0  0999 V2000
   57.6140   33.5220   43.7860 O   0  0  0  0  0  0  0  0  0  0  0  0
   57.9410   32.7270   44.7100 C   0  0  0  0  0  0  0  0  0  0  0  0
   57.8180   31.2670   44.4900 C   0  0  0  0  0  0  0  0  0  0  0  0
   56.7920   30.7980   43.6490 C   0  0  0  0  0  0  0  0  0  0  0  0
   56.5900   29.4290   43.4710 C   0  0  0  0  0  0  0  0  0  0  0  0
   57.4030   28.5110   44.1320 C   0  0  0  0  0  0  0  0  0  0  0  0
   58.4270   28.9570   44.9690 C   0  0  0  0  0  0  0  0  0  0  0  0
   58.6490   30.3330   45.1590 C   0  0  0  0  0  0  0  0  0  0  0  0
   59.7480   30.7780   45.9730 N   0  0  0  0  0  0  0  0  0  0  0  0
   60.2110   29.9880   47.4440 S   0  0  0  0  0  0  0  0  0  0  0  0
   59.0570   30.0110   48.4060 O   0  0  0  0  0  0  0  0  0  0  0  0
   60.5580   28.5530   47.1550 O   0  0  0  0  0  0  0  0  0  0  0  0
   61.5810   30.8280   48.1630 C   0  0  0  0  0  0  0  0  0  0  0  0
   61.8430   30.6800   49.5320 C   0  0  0  0  0  0  0  0  0  0  0  0
   62.9260   31.3420   50.1170 C   0  0  0  0  0  0  0  0  0  0  0  0
   63.7530   32.1590   49.3380 C   0  0  0  0  0  0  0  0  0  0  0  0
   65.2310   33.0650   50.1370 Br  0  0  0  0  0  0  0  0  0  0  0  0
   63.4920   32.3130   47.9720 C   0  0  0  0  0  0  0  0  0  0  0  0
   62.4110   31.6470   47.3830 C   0  0  0  0  0  0  0  0  0  0  0  0
   58.4900   33.2480   45.9340 N   0  0  0  0  0  0  0  0  0  0  0  0
   59.2610   34.4930   45.9060 C   0  0  0  0  0  0  0  0  0  0  0  0
   60.4600   34.3700   46.8410 C   0  0  0  0  0  0  0  0  0  0  0  0
   60.0330   33.9150   48.2100 C   0  0  0  0  0  0  0  0  0  0  0  0
   60.8460   34.2110   49.3180 C   0  0  0  0  0  0  0  0  0  0  0  0
   60.5010   33.7480   50.5910 C   0  0  0  0  0  0  0  0  0  0  0  0
   59.3500   32.9790   50.7660 C   0  0  0  0  0  0  0  0  0  0  0  0
   58.5400   32.6660   49.6700 C   0  0  0  0  0  0  0  0  0  0  0  0
   58.8790   33.1180   48.3850 C   0  0  0  0  0  0  0  0  0  0  0  0
   57.9850   32.7480   47.2220 C   0  0  0  0  0  0  0  0  0  0  0  0
   56.1434   31.5171   43.1272 H   0  0  0  0  0  0  0  0  0  0  0  0
   55.7875   29.0740   42.8077 H   0  0  0  0  0  0  0  0  0  0  0  0
   57.2376   27.4323   43.9940 H   0  0  0  0  0  0  0  0  0  0  0  0
   59.0664   28.2256   45.4849 H   0  0  0  0  0  0  0  0  0  0  0  0
   60.2630   31.6510   45.7180 H   0  0  0  0  0  0  0  0  0  0  0  0
   61.1939   30.0405   50.1482 H   0  0  0  0  0  0  0  0  0  0  0  0
   63.1286   31.2206   51.1913 H   0  0  0  0  0  0  0  0  0  0  0  0
   64.1380   32.9591   47.3595 H   0  0  0  0  0  0  0  0  0  0  0  0
   62.2121   31.7659   46.3077 H   0  0  0  0  0  0  0  0  0  0  0  0
   59.6131   34.6832   44.8814 H   0  0  0  0  0  0  0  0  0  0  0  0
   58.6233   35.3266   46.2354 H   0  0  0  0  0  0  0  0  0  0  0  0
   61.1679   33.6387   46.4236 H   0  0  0  0  0  0  0  0  0  0  0  0
   60.9350   35.3579   46.9328 H   0  0  0  0  0  0  0  0  0  0  0  0
   61.7585   34.8101   49.1825 H   0  0  0  0  0  0  0  0  0  0  0  0
   61.1372   33.9900   51.4551 H   0  0  0  0  0  0  0  0  0  0  0  0
   59.0790   32.6179   51.7691 H   0  0  0  0  0  0  0  0  0  0  0  0
   57.6321   32.0622   49.8156 H   0  0  0  0  0  0  0  0  0  0  0  0
   57.9122   31.6517   47.1694 H   0  0  0  0  0  0  0  0  0  0  0  0
   57.0040   33.2138   47.3968 H   0  0  0  0  0  0  0  0  0  0  0  0
  1  2  2  0
  2  3  1  0
  3  4  2  0
  4  5  1  0
  5  6  2  0
  6  7  1  0
  7  8  2  0
  8  9  1  0
  9 10  1  0
 10 11  2  0
 10 12  2  0
 10 13  1  0
 13 14  2  0
 14 15  1  0
 15 16  2  0
 16 17  1  0
 16 18  1  0
 18 19  2  0
  2 20  1  0
 20 21  1  0
 21 22  1  0
 22 23  1  0
 23 24  2  0
 24 25  1  0
 25 26  2  0
 26 27  1  0
 27 28  2  0
 28 29  1  0
  8  3  1  0
 19 13  1  0
 29 20  1  0
 28 23  1  0
  4 30  1  0
  5 31  1  0
  6 32  1  0
  7 33  1  0
  9 34  1  0
 14 35  1  0
 15 36  1  0
 18 37  1  0
 19 38  1  0
 21 39  1  0
 21 40  1  0
 22 41  1  0
 22 42  1  0
 24 43  1  0
 25 44  1  0
 26 45  1  0
 27 46  1  0
 29 47  1  0
 29 48  1  0
M  END
>  <UniqueID>  (39) 
35

>  <SMILES>  (39) 
O=C(c1ccccc1NS(=O)(=O)c1ccc(Br)cc1)N1CCc2ccccc2C1

>  <Energy>  (39) 
64.98801344835714

>  <Genealogy>  (39) 
O=C(c1ccccc1NS(=O)(=O)c1ccc(Br)cc1)N1CCc2ccccc2C1 (3D coordinates assigned)
O=C(c1ccccc1NS(=O)(=O)c1ccc(Br)cc1)N1CCc2ccccc2C1 (nonaromatic ring conformer: 64.98801344835714 kcal/mol)

>  <smiles>  (39) 
O=C(c1ccccc1NS(=O)(=O)c1ccc(Br)cc1)N1CCc2ccccc2C1

>  <score_type>  (39) 
oracle

>  <origin>  (39) 
adg

>  <m_score__min__energy>  (39) 
-10.19

>  <m_primary>  (39) 
energy

$$$$
40:0
     RDKit          3D

 56 59  0  0  0  0  0  0  0  0999 V2000
   57.9020   32.5760   47.8050 O   0  0  0  0  0  0  0  0  0  0  0  0
   58.7520   32.3580   46.9010 C   0  0  0  0  0  0  0  0  0  0  0  0
   58.2970   32.0790   45.5220 C   0  0  0  0  0  0  0  0  0  0  0  0
   58.5150   33.0130   44.4940 C   0  0  0  0  0  0  0  0  0  0  0  0
   58.0750   32.7470   43.1930 C   0  0  0  0  0  0  0  0  0  0  0  0
   57.4070   31.5520   42.9090 C   0  0  0  0  0  0  0  0  0  0  0  0
   56.9840   31.2960   41.6480 F   0  0  0  0  0  0  0  0  0  0  0  0
   57.1750   30.6230   43.9280 C   0  0  0  0  0  0  0  0  0  0  0  0
   57.6120   30.8860   45.2300 C   0  0  0  0  0  0  0  0  0  0  0  0
   60.1530   32.3810   47.2310 N   0  0  0  0  0  0  0  0  0  0  0  0
   60.9310   33.5970   46.9720 C   0  0  0  0  0  0  0  0  0  0  0  0
   62.0720   33.6810   47.9460 C   0  0  0  0  0  0  0  0  0  0  0  0
   61.8730   34.2350   49.2220 C   0  0  0  0  0  0  0  0  0  0  0  0
   62.9190   34.2620   50.1490 C   0  0  0  0  0  0  0  0  0  0  0  0
   64.1650   33.7230   49.8150 C   0  0  0  0  0  0  0  0  0  0  0  0
   64.3660   33.1540   48.5530 C   0  0  0  0  0  0  0  0  0  0  0  0
   63.3220   33.1280   47.6220 C   0  0  0  0  0  0  0  0  0  0  0  0
   60.7720   31.2260   47.8930 C   0  0  0  0  0  0  0  0  0  0  0  0
   60.1060   29.9570   47.4410 C   0  0  0  0  0  0  0  0  0  0  0  0
   60.2870   29.4860   46.1320 C   0  0  0  0  0  0  0  0  0  0  0  0
   59.6170   28.3410   45.6950 C   0  0  0  0  0  0  0  0  0  0  0  0
   58.7470   27.6490   46.5570 C   0  0  0  0  0  0  0  0  0  0  0  0
   58.0250   26.4390   46.0890 C   0  0  0  0  0  0  0  0  0  0  0  0
   58.7370   25.3070   45.6560 C   0  0  0  0  0  0  0  0  0  0  0  0
   58.0550   24.1670   45.2230 C   0  0  0  0  0  0  0  0  0  0  0  0
   56.6590   24.1410   45.2180 C   0  0  0  0  0  0  0  0  0  0  0  0
   55.9280   25.2650   45.6490 C   0  0  0  0  0  0  0  0  0  0  0  0
   54.5240   25.2940   45.6690 O   0  0  0  0  0  0  0  0  0  0  0  0
   53.6720   24.2120   45.2980 C   0  0  0  0  0  0  0  0  0  0  0  0
   53.7790   23.2120   46.2450 F   0  0  0  0  0  0  0  0  0  0  0  0
   54.0540   23.7050   44.0690 F   0  0  0  0  0  0  0  0  0  0  0  0
   52.3570   24.6370   45.2440 F   0  0  0  0  0  0  0  0  0  0  0  0
   56.6180   26.4040   46.0790 C   0  0  0  0  0  0  0  0  0  0  0  0
   58.5630   28.1300   47.8660 C   0  0  0  0  0  0  0  0  0  0  0  0
   59.2310   29.2760   48.3010 C   0  0  0  0  0  0  0  0  0  0  0  0
   59.0341   33.9576   44.7138 H   0  0  0  0  0  0  0  0  0  0  0  0
   58.2549   33.4792   42.3921 H   0  0  0  0  0  0  0  0  0  0  0  0
   56.6478   29.6837   43.7050 H   0  0  0  0  0  0  0  0  0  0  0  0
   57.4190   30.1560   46.0299 H   0  0  0  0  0  0  0  0  0  0  0  0
   61.3266   33.5671   45.9460 H   0  0  0  0  0  0  0  0  0  0  0  0
   60.2831   34.4780   47.0907 H   0  0  0  0  0  0  0  0  0  0  0  0
   60.8904   34.6490   49.4924 H   0  0  0  0  0  0  0  0  0  0  0  0
   62.7616   34.7078   51.1422 H   0  0  0  0  0  0  0  0  0  0  0  0
   64.9876   33.7464   50.5449 H   0  0  0  0  0  0  0  0  0  0  0  0
   65.3456   32.7267   48.2924 H   0  0  0  0  0  0  0  0  0  0  0  0
   63.4805   32.6731   46.6331 H   0  0  0  0  0  0  0  0  0  0  0  0
   61.8408   31.1882   47.6356 H   0  0  0  0  0  0  0  0  0  0  0  0
   60.6540   31.3278   48.9819 H   0  0  0  0  0  0  0  0  0  0  0  0
   60.9601   30.0213   45.4461 H   0  0  0  0  0  0  0  0  0  0  0  0
   59.7709   27.9774   44.6683 H   0  0  0  0  0  0  0  0  0  0  0  0
   59.8369   25.3187   45.6581 H   0  0  0  0  0  0  0  0  0  0  0  0
   58.6203   23.2862   44.8846 H   0  0  0  0  0  0  0  0  0  0  0  0
   56.1286   23.2399   44.8764 H   0  0  0  0  0  0  0  0  0  0  0  0
   56.0520   27.2856   46.4144 H   0  0  0  0  0  0  0  0  0  0  0  0
   57.8873   27.5988   48.5524 H   0  0  0  0  0  0  0  0  0  0  0  0
   59.0705   29.6473   49.3239 H   0  0  0  0  0  0  0  0  0  0  0  0
  1  2  2  0
  2  3  1  0
  3  4  2  0
  4  5  1  0
  5  6  2  0
  6  7  1  0
  6  8  1  0
  8  9  2  0
  2 10  1  0
 10 11  1  0
 11 12  1  0
 12 13  2  0
 13 14  1  0
 14 15  2  0
 15 16  1  0
 16 17  2  0
 10 18  1  0
 18 19  1  0
 19 20  2  0
 20 21  1  0
 21 22  2  0
 22 23  1  0
 23 24  2  0
 24 25  1  0
 25 26  2  0
 26 27  1  0
 27 28  1  0
 28 29  1  0
 29 30  1  0
 29 31  1  0
 29 32  1  0
 27 33  2  0
 22 34  1  0
 34 35  2  0
  9  3  1  0
 17 12  1  0
 35 19  1  0
 33 23  1  0
  4 36  1  0
  5 37  1  0
  8 38  1  0
  9 39  1  0
 11 40  1  0
 11 41  1  0
 13 42  1  0
 14 43  1  0
 15 44  1  0
 16 45  1  0
 17 46  1  0
 18 47  1  0
 18 48  1  0
 20 49  1  0
 21 50  1  0
 24 51  1  0
 25 52  1  0
 26 53  1  0
 33 54  1  0
 34 55  1  0
 35 56  1  0
M  END
>  <UniqueID>  (40) 
36

>  <SMILES>  (40) 
O=C(c1ccc(F)cc1)N(Cc1ccccc1)Cc1ccc(-c2cccc(OC(F)(F)F)c2)cc1

>  <Energy>  (40) 
67.14247194745228

>  <Genealogy>  (40) 
O=C(c1ccc(F)cc1)N(Cc1ccccc1)Cc1ccc(-c2cccc(OC(F)(F)F)c2)cc1 (3D coordinates assigned)
O=C(c1ccc(F)cc1)N(Cc1ccccc1)Cc1ccc(-c2cccc(OC(F)(F)F)c2)cc1 (optimized conformer: 67.14247194745228 kcal/mol)

>  <smiles>  (40) 
O=C(c1ccc(F)cc1)N(Cc1ccccc1)Cc1ccc(-c2cccc(OC(F)(F)F)c2)cc1

>  <score_type>  (40) 
oracle

>  <origin>  (40) 
adg

>  <m_score__min__energy>  (40) 
-8.6099999999999994

>  <m_primary>  (40) 
energy

$$$$
41:0
     RDKit          3D

 51 53  0  0  0  0  0  0  0  0999 V2000
   56.8010   22.9360   43.6150 C   0  0  0  0  0  0  0  0  0  0  0  0
   55.4970   23.6990   43.8580 C   0  0  0  0  0  0  0  0  0  0  0  0
   55.3070   24.0840   45.3310 C   0  0  0  0  0  0  0  0  0  0  0  0
   55.8500   25.4530   45.6170 C   0  0  0  0  0  0  0  0  0  0  0  0
   55.0650   26.3600   46.0030 O   0  0  0  0  0  0  0  0  0  0  0  0
   57.2510   25.7210   45.4540 N   0  0  0  0  0  0  0  0  0  0  0  0
   57.9210   26.8650   46.0100 C   0  0  0  0  0  0  0  0  0  0  0  0
   58.8940   26.7290   47.0150 C   0  0  0  0  0  0  0  0  0  0  0  0
   59.5540   27.8540   47.5170 C   0  0  0  0  0  0  0  0  0  0  0  0
   59.2740   29.1280   47.0080 C   0  0  0  0  0  0  0  0  0  0  0  0
   59.9630   30.2560   47.5670 N   0  0  0  0  0  0  0  0  0  0  0  0
   59.4210   31.2430   48.4570 C   0  0  0  0  0  0  0  0  0  0  0  0
   58.6060   30.9110   49.3580 O   0  0  0  0  0  0  0  0  0  0  0  0
   59.7340   32.7060   48.2540 C   0  0  0  0  0  0  0  0  0  0  0  0
   61.2310   32.9630   48.2150 C   0  0  0  0  0  0  0  0  0  0  0  0
   61.8540   33.6400   49.2820 C   0  0  0  0  0  0  0  0  0  0  0  0
   63.2350   33.8620   49.2710 C   0  0  0  0  0  0  0  0  0  0  0  0
   64.0110   33.4070   48.2030 C   0  0  0  0  0  0  0  0  0  0  0  0
   63.4080   32.7230   47.1440 C   0  0  0  0  0  0  0  0  0  0  0  0
   62.0280   32.4970   47.1490 C   0  0  0  0  0  0  0  0  0  0  0  0
   59.0360   33.2970   47.0370 C   0  0  0  0  0  0  0  0  0  0  0  0
   59.5820   34.3760   46.3080 C   0  0  0  0  0  0  0  0  0  0  0  0
   58.8890   34.9210   45.2230 C   0  0  0  0  0  0  0  0  0  0  0  0
   57.6440   34.4080   44.8570 C   0  0  0  0  0  0  0  0  0  0  0  0
   57.0850   33.3500   45.5780 C   0  0  0  0  0  0  0  0  0  0  0  0
   57.7740   32.8010   46.6640 C   0  0  0  0  0  0  0  0  0  0  0  0
   58.2980   29.2670   46.0040 C   0  0  0  0  0  0  0  0  0  0  0  0
   57.6410   28.1410   45.5000 C   0  0  0  0  0  0  0  0  0  0  0  0
   57.2556   22.6700   44.5807 H   0  0  0  0  0  0  0  0  0  0  0  0
   56.5888   22.0196   43.0448 H   0  0  0  0  0  0  0  0  0  0  0  0
   57.4960   23.5700   43.0448 H   0  0  0  0  0  0  0  0  0  0  0  0
   55.5073   24.6170   43.2520 H   0  0  0  0  0  0  0  0  0  0  0  0
   54.6650   23.0371   43.5756 H   0  0  0  0  0  0  0  0  0  0  0  0
   54.2331   24.0688   45.5685 H   0  0  0  0  0  0  0  0  0  0  0  0
   55.8558   23.3592   45.9503 H   0  0  0  0  0  0  0  0  0  0  0  0
   57.8070   25.0730   44.8500 H   0  0  0  0  0  0  0  0  0  0  0  0
   59.1375   25.7312   47.4088 H   0  0  0  0  0  0  0  0  0  0  0  0
   60.2990   27.7377   48.3179 H   0  0  0  0  0  0  0  0  0  0  0  0
   59.3278   33.2294   49.1321 H   0  0  0  0  0  0  0  0  0  0  0  0
   61.2502   33.9965   50.1296 H   0  0  0  0  0  0  0  0  0  0  0  0
   63.7111   34.3966   50.1062 H   0  0  0  0  0  0  0  0  0  0  0  0
   65.0962   33.5868   48.1952 H   0  0  0  0  0  0  0  0  0  0  0  0
   64.0202   32.3616   46.3046 H   0  0  0  0  0  0  0  0  0  0  0  0
   61.5609   31.9519   46.3156 H   0  0  0  0  0  0  0  0  0  0  0  0
   60.5594   34.7906   46.5958 H   0  0  0  0  0  0  0  0  0  0  0  0
   59.3263   35.7563   44.6564 H   0  0  0  0  0  0  0  0  0  0  0  0
   57.1027   34.8367   44.0007 H   0  0  0  0  0  0  0  0  0  0  0  0
   56.1019   32.9484   45.2912 H   0  0  0  0  0  0  0  0  0  0  0  0
   57.3245   31.9732   47.2320 H   0  0  0  0  0  0  0  0  0  0  0  0
   58.0511   30.2656   45.6143 H   0  0  0  0  0  0  0  0  0  0  0  0
   56.8983   28.2566   44.6968 H   0  0  0  0  0  0  0  0  0  0  0  0
  1  2  1  0
  2  3  1  0
  3  4  1  0
  4  5  2  0
  4  6  1  0
  6  7  1  0
  7  8  2  0
  8  9  1  0
  9 10  2  0
 10 11  1  0
 11 12  1  0
 12 13  2  0
 12 14  1  0
 14 15  1  0
 15 16  2  0
 16 17  1  0
 17 18  2  0
 18 19  1  0
 19 20  2  0
 14 21  1  0
 21 22  2  0
 22 23  1  0
 23 24  2  0
 24 25  1  0
 25 26  2  0
 10 27  1  0
 27 28  2  0
 28  7  1  0
 20 15  1  0
 26 21  1  0
  1 29  1  0
  1 30  1  0
  1 31  1  0
  2 32  1  0
  2 33  1  0
  3 34  1  0
  3 35  1  0
  6 36  1  0
  8 37  1  0
  9 38  1  0
 14 39  1  0
 16 40  1  0
 17 41  1  0
 18 42  1  0
 19 43  1  0
 20 44  1  0
 22 45  1  0
 23 46  1  0
 24 47  1  0
 25 48  1  0
 26 49  1  0
 27 50  1  0
 28 51  1  0
M  CHG  1  11  -1
M  END
>  <UniqueID>  (41) 
37

>  <SMILES>  (41) 
CCCC(=O)Nc1ccc([N-]C(=O)C(c2ccccc2)c2ccccc2)cc1

>  <Energy>  (41) 
56.68753850040432

>  <Genealogy>  (41) 
CCCC(=O)Nc1ccc([N-]C(=O)C(c2ccccc2)c2ccccc2)cc1 (protonated)
CCCC(=O)Nc1ccc([N-]C(=O)C(c2ccccc2)c2ccccc2)cc1 (3D coordinates assigned)
CCCC(=O)Nc1ccc([N-]C(=O)C(c2ccccc2)c2ccccc2)cc1 (optimized conformer: 56.68753850040432 kcal/mol)

>  <smiles>  (41) 
CCCC(=O)Nc1ccc(NC(=O)C(c2ccccc2)c2ccccc2)cc1

>  <score_type>  (41) 
oracle

>  <origin>  (41) 
adg

>  <m_score__min__energy>  (41) 
-10.140000000000001

>  <m_primary>  (41) 
energy

$$$$
42:0
     RDKit          3D

 37 39  0  0  0  0  0  0  0  0999 V2000
   57.3068   28.1458   44.1514 H   0  0  0  0  0  0  0  0  0  0  0  0
   57.8270   29.0380   44.5300 C   0  0  0  0  0  0  0  0  0  0  0  0
   57.0590   30.2910   44.6930 C   0  0  0  0  0  0  0  0  0  0  0  0
   55.8120   30.2480   44.5140 O   0  0  0  0  0  0  0  0  0  0  0  0
   57.6900   31.5880   45.0370 C   0  0  0  0  0  0  0  0  0  0  0  0
   57.9300   32.5370   44.0310 C   0  0  0  0  0  0  0  0  0  0  0  0
   57.6369   32.3192   42.9934 H   0  0  0  0  0  0  0  0  0  0  0  0
   58.5390   33.7570   44.3390 C   0  0  0  0  0  0  0  0  0  0  0  0
   58.7139   34.4977   43.5448 H   0  0  0  0  0  0  0  0  0  0  0  0
   58.9270   34.0400   45.6530 C   0  0  0  0  0  0  0  0  0  0  0  0
   59.6890   35.5870   45.9990 Cl  0  0  0  0  0  0  0  0  0  0  0  0
   58.7110   33.0890   46.6640 C   0  0  0  0  0  0  0  0  0  0  0  0
   59.2370   33.4160   48.4770 Br  0  0  0  0  0  0  0  0  0  0  0  0
   58.1020   31.8670   46.3510 C   0  0  0  0  0  0  0  0  0  0  0  0
   57.9448   31.1185   47.1416 H   0  0  0  0  0  0  0  0  0  0  0  0
   59.1320   28.9450   44.8250 C   0  0  0  0  0  0  0  0  0  0  0  0
   59.8307   28.7011   44.0112 H   0  0  0  0  0  0  0  0  0  0  0  0
   59.6890   29.1520   46.1860 C   0  0  0  0  0  0  0  0  0  0  0  0
   59.2790   28.3890   47.2950 C   0  0  0  0  0  0  0  0  0  0  0  0
   58.5307   27.5931   47.1659 H   0  0  0  0  0  0  0  0  0  0  0  0
   59.8180   28.6380   48.5580 C   0  0  0  0  0  0  0  0  0  0  0  0
   59.4926   28.0367   49.4197 H   0  0  0  0  0  0  0  0  0  0  0  0
   60.7670   29.6450   48.7340 C   0  0  0  0  0  0  0  0  0  0  0  0
   61.1851   29.8321   49.7341 H   0  0  0  0  0  0  0  0  0  0  0  0
   61.1930   30.4220   47.6440 C   0  0  0  0  0  0  0  0  0  0  0  0
   62.1960   31.4980   47.8520 C   0  0  0  0  0  0  0  0  0  0  0  0
   63.0450   31.4230   48.9150 N   0  0  0  0  0  0  0  0  0  0  0  0
   63.9870   32.3720   49.1610 C   0  0  0  0  0  0  0  0  0  0  0  0
   64.6496   32.2752   50.0337 H   0  0  0  0  0  0  0  0  0  0  0  0
   64.1140   33.4680   48.3080 C   0  0  0  0  0  0  0  0  0  0  0  0
   64.8711   34.2416   48.5041 H   0  0  0  0  0  0  0  0  0  0  0  0
   63.2690   33.5710   47.2030 C   0  0  0  0  0  0  0  0  0  0  0  0
   63.3609   34.4269   46.5182 H   0  0  0  0  0  0  0  0  0  0  0  0
   62.3060   32.5870   46.9660 C   0  0  0  0  0  0  0  0  0  0  0  0
   61.6391   32.6623   46.0944 H   0  0  0  0  0  0  0  0  0  0  0  0
   60.6340   30.1760   46.3740 C   0  0  0  0  0  0  0  0  0  0  0  0
   60.9414   30.7940   45.5175 H   0  0  0  0  0  0  0  0  0  0  0  0
  1  2  1  0
  2  3  1  0
  3  4  2  0
  3  5  1  0
  5  6  2  0
  6  7  1  0
  6  8  1  0
  8  9  1  0
  8 10  2  0
 10 11  1  0
 10 12  1  0
 12 13  1  0
 12 14  2  0
 14 15  1  0
  2 16  2  0
 16 17  1  0
 16 18  1  0
 18 19  2  0
 19 20  1  0
 19 21  1  0
 21 22  1  0
 21 23  2  0
 23 24  1  0
 23 25  1  0
 25 26  1  0
 26 27  2  0
 27 28  1  0
 28 29  1  0
 28 30  2  0
 30 31  1  0
 30 32  1  0
 32 33  1  0
 32 34  2  0
 34 35  1  0
 25 36  2  0
 36 37  1  0
 14  5  1  0
 36 18  1  0
 34 26  1  0
M  END
>  <UniqueID>  (42) 
38

>  <SMILES>  (42) 
O=C(/C=C/c1cccc(-c2ccccn2)c1)c1ccc(Cl)c(Br)c1

>  <Energy>  (42) 
52.72823958883643

>  <Genealogy>  (42) 
O=C(/C=C/c1cccc(-c2ccccn2)c1)c1ccc(Cl)c(Br)c1 (cis-trans isomerization)
O=C(/C=C/c1cccc(-c2ccccn2)c1)c1ccc(Cl)c(Br)c1 (3D coordinates assigned)
O=C(/C=C/c1cccc(-c2ccccn2)c1)c1ccc(Cl)c(Br)c1 (optimized conformer: 52.72823958883643 kcal/mol)

>  <smiles>  (42) 
O=C(C=Cc1cccc(-c2ccccn2)c1)c1ccc(Cl)c(Br)c1

>  <score_type>  (42) 
oracle

>  <origin>  (42) 
adg

>  <m_score__min__energy>  (42) 
-8.9700000000000006

>  <m_primary>  (42) 
energy

$$$$
43:0
     RDKit          3D

 52 55  0  0  0  0  0  0  0  0999 V2000
   65.2660   33.2750   47.5550 H   0  0  0  0  0  0  0  0  0  0  0  0
   64.4120   33.4900   48.0550 O   0  0  0  0  0  0  0  0  0  0  0  0
   63.4040   32.5410   48.2170 C   0  0  0  0  0  0  0  0  0  0  0  0
   63.2210   31.8950   49.4450 C   0  0  0  0  0  0  0  0  0  0  0  0
   63.8759   32.1369   50.2951 H   0  0  0  0  0  0  0  0  0  0  0  0
   62.2080   30.9430   49.5940 C   0  0  0  0  0  0  0  0  0  0  0  0
   62.0760   30.4318   50.5590 H   0  0  0  0  0  0  0  0  0  0  0  0
   61.3570   30.6350   48.5180 C   0  0  0  0  0  0  0  0  0  0  0  0
   60.3000   29.6080   48.6790 C   0  0  0  0  0  0  0  0  0  0  0  0
   60.1530   29.0490   49.7980 O   0  0  0  0  0  0  0  0  0  0  0  0
   59.4370   29.2330   47.5960 N   0  0  0  0  0  0  0  0  0  0  0  0
   59.5230   28.0670   46.9720 N   0  0  0  0  0  0  0  0  0  0  0  0
   58.5440   28.0380   46.0490 C   0  0  0  0  0  0  0  0  0  0  0  0
   58.2990   27.0370   45.2560 N   0  0  0  0  0  0  0  0  0  0  0  0
   57.2520   26.0660   45.4010 C   0  0  0  0  0  0  0  0  0  0  0  0
   56.2700   26.0990   46.3670 C   0  0  0  0  0  0  0  0  0  0  0  0
   56.1874   26.8472   47.1691 H   0  0  0  0  0  0  0  0  0  0  0  0
   55.4270   25.0660   46.1700 N   0  0  0  0  0  0  0  0  0  0  0  0
   55.8500   24.4010   45.1030 N   0  0  0  0  0  0  0  0  0  0  0  0
   55.1950   23.2160   44.5670 C   0  0  0  0  0  0  0  0  0  0  0  0
   54.8454   22.5835   45.3963 H   0  0  0  0  0  0  0  0  0  0  0  0
   54.3363   23.5192   43.9499 H   0  0  0  0  0  0  0  0  0  0  0  0
   55.9085   22.6502   43.9499 H   0  0  0  0  0  0  0  0  0  0  0  0
   56.9570   24.9800   44.6010 C   0  0  0  0  0  0  0  0  0  0  0  0
   57.5219   24.6491   43.7171 H   0  0  0  0  0  0  0  0  0  0  0  0
   57.7930   29.1980   46.1080 C   0  0  0  0  0  0  0  0  0  0  0  0
   56.6550   29.5780   45.2470 C   0  0  0  0  0  0  0  0  0  0  0  0
   55.6960   28.7730   45.1180 O   0  0  0  0  0  0  0  0  0  0  0  0
   56.5810   30.8430   44.5790 N   0  0  0  0  0  0  0  0  0  0  0  0
   57.7230   31.6920   44.2550 C   0  0  0  0  0  0  0  0  0  0  0  0
   58.6012   31.3527   44.8240 H   0  0  0  0  0  0  0  0  0  0  0  0
   57.9261   31.6246   43.1760 H   0  0  0  0  0  0  0  0  0  0  0  0
   57.4180   33.1470   44.6160 C   0  0  0  0  0  0  0  0  0  0  0  0
   57.6184   33.7820   43.7405 H   0  0  0  0  0  0  0  0  0  0  0  0
   56.3615   33.2142   44.9150 H   0  0  0  0  0  0  0  0  0  0  0  0
   58.2670   33.6200   45.7690 C   0  0  0  0  0  0  0  0  0  0  0  0
   59.2710   34.5800   45.5610 C   0  0  0  0  0  0  0  0  0  0  0  0
   59.4245   35.0049   44.5581 H   0  0  0  0  0  0  0  0  0  0  0  0
   60.0760   34.9970   46.6260 C   0  0  0  0  0  0  0  0  0  0  0  0
   60.8592   35.7513   46.4597 H   0  0  0  0  0  0  0  0  0  0  0  0
   59.8870   34.4570   47.9010 C   0  0  0  0  0  0  0  0  0  0  0  0
   60.5160   34.7923   48.7388 H   0  0  0  0  0  0  0  0  0  0  0  0
   58.8990   33.4910   48.1120 C   0  0  0  0  0  0  0  0  0  0  0  0
   58.7555   33.0616   49.1145 H   0  0  0  0  0  0  0  0  0  0  0  0
   58.0930   33.0700   47.0500 C   0  0  0  0  0  0  0  0  0  0  0  0
   57.3200   32.3056   47.2180 H   0  0  0  0  0  0  0  0  0  0  0  0
   58.3960   29.9410   47.1060 C   0  0  0  0  0  0  0  0  0  0  0  0
   58.0814   30.9395   47.4438 H   0  0  0  0  0  0  0  0  0  0  0  0
   61.5580   31.2780   47.2840 C   0  0  0  0  0  0  0  0  0  0  0  0
   60.9134   31.0301   46.4278 H   0  0  0  0  0  0  0  0  0  0  0  0
   62.5710   32.2300   47.1370 C   0  0  0  0  0  0  0  0  0  0  0  0
   62.7134   32.7355   46.1704 H   0  0  0  0  0  0  0  0  0  0  0  0
  1  2  1  0
  2  3  1  0
  3  4  2  0
  4  5  1  0
  4  6  1  0
  6  7  1  0
  6  8  2  0
  8  9  1  0
  9 10  2  0
  9 11  1  0
 11 12  1  0
 12 13  1  0
 13 14  2  0
 14 15  1  0
 15 16  1  0
 16 17  1  0
 16 18  2  0
 18 19  1  0
 19 20  1  0
 20 21  1  0
 20 22  1  0
 20 23  1  0
 19 24  1  0
 24 25  1  0
 13 26  1  0
 26 27  1  0
 27 28  2  0
 27 29  1  0
 29 30  1  0
 30 31  1  0
 30 32  1  0
 30 33  1  0
 33 34  1  0
 33 35  1  0
 33 36  1  0
 36 37  2  0
 37 38  1  0
 37 39  1  0
 39 40  1  0
 39 41  2  0
 41 42  1  0
 41 43  1  0
 43 44  1  0
 43 45  2  0
 45 46  1  0
 26 47  2  0
 47 48  1  0
  8 49  1  0
 49 50  1  0
 49 51  2  0
 51 52  1  0
 51  3  1  0
 47 11  1  0
 24 15  2  0
 45 36  1  0
M  CHG  2  12  -1  29  -1
M  END
>  <UniqueID>  (43) 
39

>  <SMILES>  (43) 
Cn1cc(/N=c2\[n-]n(C(=O)c3ccc(O)cc3)cc2C(=O)[N-]CCc2ccccc2)cn1

>  <Energy>  (43) 
124.84574320433029

>  <Genealogy>  (43) 
Cn1cc(N=c2[n-]n(C(=O)c3ccc(O)cc3)cc2C(=O)[N-]CCc2ccccc2)cn1 (protonated)
Cn1cc(/N=c2\[n-]n(C(=O)c3ccc(O)cc3)cc2C(=O)[N-]CCc2ccccc2)cn1 (cis-trans isomerization)
Cn1cc(/N=c2\[n-]n(C(=O)c3ccc(O)cc3)cc2C(=O)[N-]CCc2ccccc2)cn1 (3D coordinates assigned)
Cn1cc(/N=c2\[n-]n(C(=O)c3ccc(O)cc3)cc2C(=O)[N-]CCc2ccccc2)cn1 (optimized conformer: 124.84574320433029 kcal/mol)

>  <smiles>  (43) 
Cn1cc(N=c2[nH]n(C(=O)c3ccc(O)cc3)cc2C(=O)NCCc2ccccc2)cn1

>  <score_type>  (43) 
oracle

>  <origin>  (43) 
adg

>  <m_score__min__energy>  (43) 
-12.06

>  <m_primary>  (43) 
energy

$$$$
44:0
     RDKit          3D

 33 35  0  0  1  0  0  0  0  0999 V2000
   55.1050   29.6790   43.4680 N   0  0  0  0  0  0  0  0  0  0  0  0
   56.2460   29.8290   44.0700 C   0  0  0  0  0  0  0  0  0  0  0  0
   56.6390   31.0590   44.5160 N   0  0  0  0  0  0  0  0  0  0  0  0
   57.8010   31.2040   45.1280 C   0  0  0  0  0  0  0  0  0  0  0  0
   58.2670   32.4940   45.6220 C   0  0  0  0  0  0  0  0  0  0  0  0
   58.7830   33.5420   44.9590 C   0  0  0  0  0  0  0  0  0  0  0  0
   59.1470   34.6440   45.6380 C   0  0  0  0  0  0  0  0  0  0  0  0
   58.9510   34.6000   47.0100 C   0  0  0  0  0  0  0  0  0  0  0  0
   58.2360   32.9570   47.3240 S   0  0  0  0  0  0  0  0  0  0  0  0
   58.6160   30.1090   45.3160 C   0  0  0  0  0  0  0  0  0  0  0  0
   58.2440   28.8380   44.8720 C   0  0  0  0  0  0  0  0  0  0  0  0
   59.1240   27.7030   45.0850 C   0  0  0  0  0  0  0  0  0  0  0  0
   58.7930   26.6070   45.7340 C   0  0  0  0  0  0  0  0  0  0  0  0
   57.6510   25.7680   45.4050 C   0  0  0  0  0  0  0  0  0  0  0  0
   56.4130   25.8930   45.9980 C   0  0  0  0  0  0  0  0  0  0  0  0
   55.3430   25.0670   45.6550 C   0  0  0  0  0  0  0  0  0  0  0  0
   55.4840   24.0930   44.7040 C   0  0  0  0  0  0  0  0  0  0  0  0
   56.7110   23.9500   44.0970 C   0  0  0  0  0  0  0  0  0  0  0  0
   57.7670   24.7710   44.4430 C   0  0  0  0  0  0  0  0  0  0  0  0
   57.0520   28.7600   44.2580 N   0  0  0  0  0  0  0  0  0  0  0  0
   55.1290   29.1800   42.5550 H   0  0  0  0  0  0  0  0  0  0  0  0
   58.9071   33.4990   43.8669 H   0  0  0  0  0  0  0  0  0  0  0  0
   59.5735   35.5252   45.1365 H   0  0  0  0  0  0  0  0  0  0  0  0
   59.1778   35.3853   47.7461 H   0  0  0  0  0  0  0  0  0  0  0  0
   59.5813   30.2387   45.8272 H   0  0  0  0  0  0  0  0  0  0  0  0
   60.1424   27.7636   44.6736 H   0  0  0  0  0  0  0  0  0  0  0  0
   59.4230   26.3046   46.5835 H   0  0  0  0  0  0  0  0  0  0  0  0
   56.2646   26.6676   46.7648 H   0  0  0  0  0  0  0  0  0  0  0  0
   54.3726   25.2001   46.1556 H   0  0  0  0  0  0  0  0  0  0  0  0
   54.6398   23.4422   44.4322 H   0  0  0  0  0  0  0  0  0  0  0  0
   56.8522   23.1749   43.3293 H   0  0  0  0  0  0  0  0  0  0  0  0
   58.7347   24.6307   43.9390 H   0  0  0  0  0  0  0  0  0  0  0  0
   56.7030   27.8550   43.9010 H   0  0  0  0  0  0  0  0  0  0  0  0
  1  2  2  3
  2  3  1  0
  3  4  2  0
  4  5  1  0
  5  6  2  0
  6  7  1  0
  7  8  2  0
  8  9  1  0
  4 10  1  0
 10 11  2  0
 11 12  1  0
 12 13  2  0
 13 14  1  0
 14 15  2  0
 15 16  1  0
 16 17  2  0
 17 18  1  0
 18 19  2  0
 11 20  1  0
 20  2  1  0
  9  5  1  0
 19 14  1  0
  1 21  1  0
  6 22  1  0
  7 23  1  0
  8 24  1  0
 10 25  1  0
 12 26  1  0
 13 27  1  0
 15 28  1  0
 16 29  1  0
 17 30  1  0
 18 31  1  0
 19 32  1  0
 20 33  1  0
M  END
>  <smiles>  (44) 
N=c1nc(-c2cccs2)cc(C=Cc2ccccc2)[nH]1

>  <score_type>  (44) 
oracle

>  <origin>  (44) 
adg

>  <m_score__min__energy>  (44) 
-8.0099999999999998

>  <m_primary>  (44) 
energy

$$$$
45:0
     RDKit          3D

 52 55  0  0  0  0  0  0  0  0999 V2000
   53.5010   28.2020   53.0890 C   0  0  0  0  0  0  0  0  0  0  0  0
   54.4950   29.2930   52.7990 C   0  0  0  0  0  0  0  0  0  0  0  0
   55.8600   29.0870   53.0570 C   0  0  0  0  0  0  0  0  0  0  0  0
   56.8020   30.0960   52.7810 C   0  0  0  0  0  0  0  0  0  0  0  0
   58.1780   29.9340   53.0110 O   0  0  0  0  0  0  0  0  0  0  0  0
   59.0630   29.1640   52.1990 C   0  0  0  0  0  0  0  0  0  0  0  0
   59.1090   29.7160   50.8080 C   0  0  0  0  0  0  0  0  0  0  0  0
   59.1430   31.0310   50.5200 N   0  0  0  0  0  0  0  0  0  0  0  0
   59.1630   31.0880   49.1760 C   0  0  0  0  0  0  0  0  0  0  0  0
   59.0920   32.3510   48.4120 C   0  0  0  0  0  0  0  0  0  0  0  0
   59.9970   33.3980   48.6640 C   0  0  0  0  0  0  0  0  0  0  0  0
   59.9270   34.5830   47.9240 C   0  0  0  0  0  0  0  0  0  0  0  0
   58.9660   34.7260   46.9180 C   0  0  0  0  0  0  0  0  0  0  0  0
   58.0780   33.6830   46.6490 C   0  0  0  0  0  0  0  0  0  0  0  0
   58.1420   32.4980   47.3880 C   0  0  0  0  0  0  0  0  0  0  0  0
   59.1580   29.7820   48.6930 C   0  0  0  0  0  0  0  0  0  0  0  0
   59.2310   29.3100   47.2950 C   0  0  0  0  0  0  0  0  0  0  0  0
   60.3750   29.5850   46.5300 C   0  0  0  0  0  0  0  0  0  0  0  0
   60.4530   29.1620   45.1990 C   0  0  0  0  0  0  0  0  0  0  0  0
   59.3840   28.4740   44.6190 C   0  0  0  0  0  0  0  0  0  0  0  0
   58.2320   28.2170   45.3670 C   0  0  0  0  0  0  0  0  0  0  0  0
   58.1500   28.6390   46.6960 C   0  0  0  0  0  0  0  0  0  0  0  0
   59.1100   28.9710   49.7260 O   0  0  0  0  0  0  0  0  0  0  0  0
   56.3600   31.3130   52.2550 C   0  0  0  0  0  0  0  0  0  0  0  0
   55.0070   31.5270   51.9940 C   0  0  0  0  0  0  0  0  0  0  0  0
   54.0620   30.5190   52.2600 C   0  0  0  0  0  0  0  0  0  0  0  0
   52.6920   30.7000   52.0040 O   0  0  0  0  0  0  0  0  0  0  0  0
   52.1130   30.7620   50.7030 C   0  0  0  0  0  0  0  0  0  0  0  0
   51.2340   31.9630   50.6120 C   0  0  0  0  0  0  0  0  0  0  0  0
   51.0320   32.6760   51.6290 O   0  0  0  0  0  0  0  0  0  0  0  0
   50.6430   32.3070   49.4010 O   0  0  0  0  0  0  0  0  0  0  0  0
   53.3934   28.0839   54.1773 H   0  0  0  0  0  0  0  0  0  0  0  0
   52.5274   28.4670   52.6509 H   0  0  0  0  0  0  0  0  0  0  0  0
   53.8553   27.2573   52.6509 H   0  0  0  0  0  0  0  0  0  0  0  0
   56.1962   28.1283   53.4787 H   0  0  0  0  0  0  0  0  0  0  0  0
   60.0727   29.1940   52.6344 H   0  0  0  0  0  0  0  0  0  0  0  0
   58.6990   28.1267   52.1592 H   0  0  0  0  0  0  0  0  0  0  0  0
   59.1160   31.8290   51.1940 H   0  0  0  0  0  0  0  0  0  0  0  0
   60.7625   33.2845   49.4458 H   0  0  0  0  0  0  0  0  0  0  0  0
   60.6289   35.4036   48.1336 H   0  0  0  0  0  0  0  0  0  0  0  0
   58.9099   35.6597   46.3391 H   0  0  0  0  0  0  0  0  0  0  0  0
   57.3262   33.7938   45.8537 H   0  0  0  0  0  0  0  0  0  0  0  0
   57.4448   31.6766   47.1664 H   0  0  0  0  0  0  0  0  0  0  0  0
   61.2144   30.1359   46.9793 H   0  0  0  0  0  0  0  0  0  0  0  0
   61.3570   29.3712   44.6082 H   0  0  0  0  0  0  0  0  0  0  0  0
   59.4492   28.1350   43.5746 H   0  0  0  0  0  0  0  0  0  0  0  0
   57.3879   27.6812   44.9082 H   0  0  0  0  0  0  0  0  0  0  0  0
   57.2359   28.4456   47.2766 H   0  0  0  0  0  0  0  0  0  0  0  0
   57.0874   32.1109   52.0446 H   0  0  0  0  0  0  0  0  0  0  0  0
   54.6764   32.4899   51.5775 H   0  0  0  0  0  0  0  0  0  0  0  0
   52.9106   30.8323   49.9487 H   0  0  0  0  0  0  0  0  0  0  0  0
   51.5180   29.8550   50.5207 H   0  0  0  0  0  0  0  0  0  0  0  0
  1  2  1  0
  2  3  2  0
  3  4  1  0
  4  5  1  0
  5  6  1  0
  6  7  1  0
  7  8  2  0
  8  9  1  0
  9 10  1  0
 10 11  2  0
 11 12  1  0
 12 13  2  0
 13 14  1  0
 14 15  2  0
  9 16  2  0
 16 17  1  0
 17 18  2  0
 18 19  1  0
 19 20  2  0
 20 21  1  0
 21 22  2  0
 16 23  1  0
  4 24  2  0
 24 25  1  0
 25 26  2  0
 26 27  1  0
 27 28  1  0
 28 29  1  0
 29 30  2  0
 29 31  1  0
 26  2  1  0
 23  7  1  0
 15 10  1  0
 22 17  1  0
  1 32  1  0
  1 33  1  0
  1 34  1  0
  3 35  1  0
  6 36  1  0
  6 37  1  0
  8 38  1  0
 11 39  1  0
 12 40  1  0
 13 41  1  0
 14 42  1  0
 15 43  1  0
 18 44  1  0
 19 45  1  0
 20 46  1  0
 21 47  1  0
 22 48  1  0
 24 49  1  0
 25 50  1  0
 28 51  1  0
 28 52  1  0
M  CHG  2   8   1  31  -1
M  END
>  <UniqueID>  (45) 
40

>  <SMILES>  (45) 
Cc1cc(OCc2[nH+]c(-c3ccccc3)c(-c3ccccc3)o2)ccc1OCC(=O)[O-]

>  <Energy>  (45) 
91.72622523129306

>  <Genealogy>  (45) 
Cc1cc(OCc2[nH+]c(-c3ccccc3)c(-c3ccccc3)o2)ccc1OCC(=O)[O-] (protonated)
Cc1cc(OCc2[nH+]c(-c3ccccc3)c(-c3ccccc3)o2)ccc1OCC(=O)[O-] (3D coordinates assigned)
Cc1cc(OCc2[nH+]c(-c3ccccc3)c(-c3ccccc3)o2)ccc1OCC(=O)[O-] (optimized conformer: 91.72622523129306 kcal/mol)

>  <smiles>  (45) 
Cc1cc(OCc2nc(-c3ccccc3)c(-c3ccccc3)o2)ccc1OCC(=O)O

>  <score_type>  (45) 
oracle

>  <origin>  (45) 
adg

>  <m_score__min__energy>  (45) 
-11.19

>  <m_primary>  (45) 
energy

$$$$
46:0
     RDKit          3D

 47 49  0  0  0  0  0  0  0  0999 V2000
   56.6520   21.8190   42.7090 C   0  0  0  0  0  0  0  0  0  0  0  0
   56.2890   20.8690   43.7640 N   0  0  0  0  0  0  0  0  0  0  0  0
   56.7770   21.3010   45.0830 C   0  0  0  0  0  0  0  0  0  0  0  0
   56.7780   22.8050   45.2260 C   0  0  0  0  0  0  0  0  0  0  0  0
   55.5730   23.5060   45.3890 C   0  0  0  0  0  0  0  0  0  0  0  0
   55.5770   24.8990   45.4990 C   0  0  0  0  0  0  0  0  0  0  0  0
   56.7830   25.6150   45.4600 C   0  0  0  0  0  0  0  0  0  0  0  0
   56.7570   27.0490   45.5530 N   0  0  0  0  0  0  0  0  0  0  0  0
   57.4860   27.9220   44.6740 C   0  0  0  0  0  0  0  0  0  0  0  0
   58.4340   27.4740   43.9750 O   0  0  0  0  0  0  0  0  0  0  0  0
   57.1690   29.3580   44.6070 C   0  0  0  0  0  0  0  0  0  0  0  0
   58.0290   30.3940   44.3060 C   0  0  0  0  0  0  0  0  0  0  0  0
   57.2960   31.5170   44.3880 N   0  0  0  0  0  0  0  0  0  0  0  0
   57.7770   32.8850   44.2310 C   0  0  0  0  0  0  0  0  0  0  0  0
   58.4130   33.3530   45.5100 C   0  0  0  0  0  0  0  0  0  0  0  0
   58.1730   32.6690   46.7110 C   0  0  0  0  0  0  0  0  0  0  0  0
   58.7950   33.0780   47.8940 C   0  0  0  0  0  0  0  0  0  0  0  0
   59.6780   34.1730   47.8890 C   0  0  0  0  0  0  0  0  0  0  0  0
   60.3260   34.6230   49.0500 O   0  0  0  0  0  0  0  0  0  0  0  0
   61.6040   34.1690   49.4840 C   0  0  0  0  0  0  0  0  0  0  0  0
   59.9280   34.8440   46.6860 C   0  0  0  0  0  0  0  0  0  0  0  0
   59.3060   34.4350   45.5030 C   0  0  0  0  0  0  0  0  0  0  0  0
   56.0630   31.1930   44.7400 N   0  0  0  0  0  0  0  0  0  0  0  0
   55.9540   29.8800   44.8750 N   0  0  0  0  0  0  0  0  0  0  0  0
   57.9870   24.9130   45.2670 C   0  0  0  0  0  0  0  0  0  0  0  0
   57.9840   23.5200   45.1570 C   0  0  0  0  0  0  0  0  0  0  0  0
   57.0093   22.7542   43.1648 H   0  0  0  0  0  0  0  0  0  0  0  0
   57.4486   21.3874   42.0851 H   0  0  0  0  0  0  0  0  0  0  0  0
   55.7706   22.0286   42.0851 H   0  0  0  0  0  0  0  0  0  0  0  0
   56.6970   19.9340   43.5280 H   0  0  0  0  0  0  0  0  0  0  0  0
   56.1268   20.8717   45.8594 H   0  0  0  0  0  0  0  0  0  0  0  0
   57.8141   20.9506   45.1910 H   0  0  0  0  0  0  0  0  0  0  0  0
   54.6211   22.9563   45.4303 H   0  0  0  0  0  0  0  0  0  0  0  0
   54.6261   25.4391   45.6172 H   0  0  0  0  0  0  0  0  0  0  0  0
   56.2540   27.4740   46.3640 H   0  0  0  0  0  0  0  0  0  0  0  0
   59.0962   30.3164   44.0511 H   0  0  0  0  0  0  0  0  0  0  0  0
   58.5196   32.9198   43.4202 H   0  0  0  0  0  0  0  0  0  0  0  0
   56.9289   33.5415   43.9866 H   0  0  0  0  0  0  0  0  0  0  0  0
   57.4913   31.8057   46.7218 H   0  0  0  0  0  0  0  0  0  0  0  0
   58.5932   32.5414   48.8328 H   0  0  0  0  0  0  0  0  0  0  0  0
   61.6352   34.1579   50.5835 H   0  0  0  0  0  0  0  0  0  0  0  0
   61.7813   33.1529   49.1019 H   0  0  0  0  0  0  0  0  0  0  0  0
   62.3827   34.8455   49.1019 H   0  0  0  0  0  0  0  0  0  0  0  0
   60.6192   35.6996   46.6717 H   0  0  0  0  0  0  0  0  0  0  0  0
   59.5177   34.9640   44.5621 H   0  0  0  0  0  0  0  0  0  0  0  0
   58.9367   25.4643   45.2023 H   0  0  0  0  0  0  0  0  0  0  0  0
   58.9322   22.9806   45.0155 H   0  0  0  0  0  0  0  0  0  0  0  0
  1  2  1  0
  2  3  1  0
  3  4  1  0
  4  5  2  0
  5  6  1  0
  6  7  2  0
  7  8  1  0
  8  9  1  0
  9 10  2  0
  9 11  1  0
 11 12  2  0
 12 13  1  0
 13 14  1  0
 14 15  1  0
 15 16  2  0
 16 17  1  0
 17 18  2  0
 18 19  1  0
 19 20  1  0
 18 21  1  0
 21 22  2  0
 13 23  1  0
 23 24  2  0
  7 25  1  0
 25 26  2  0
 26  4  1  0
 24 11  1  0
 22 15  1  0
  1 27  1  0
  1 28  1  0
  1 29  1  0
  2 30  1  0
  3 31  1  0
  3 32  1  0
  5 33  1  0
  6 34  1  0
  8 35  1  0
 12 36  1  0
 14 37  1  0
 14 38  1  0
 16 39  1  0
 17 40  1  0
 20 41  1  0
 20 42  1  0
 20 43  1  0
 21 44  1  0
 22 45  1  0
 25 46  1  0
 26 47  1  0
M  END
>  <UniqueID>  (46) 
41

>  <SMILES>  (46) 
CNCc1ccc(NC(=O)c2cn(Cc3ccc(OC)cc3)nn2)cc1

>  <Energy>  (46) 
83.58381364791188

>  <Genealogy>  (46) 
CNCc1ccc(NC(=O)c2cn(Cc3ccc(OC)cc3)nn2)cc1 (3D coordinates assigned)
CNCc1ccc(NC(=O)c2cn(Cc3ccc(OC)cc3)nn2)cc1 (optimized conformer: 83.58381364791188 kcal/mol)

>  <smiles>  (46) 
CNCc1ccc(NC(=O)c2cn(Cc3ccc(OC)cc3)nn2)cc1

>  <score_type>  (46) 
oracle

>  <origin>  (46) 
adg

>  <m_score__min__energy>  (46) 
-8.7899999999999991

>  <m_primary>  (46) 
energy

$$$$
47:0
     RDKit          3D

 31 33  0  0  0  0  0  0  0  0999 V2000
   55.7530   28.7160   45.2250 O   0  0  0  0  0  0  0  0  0  0  0  0
   57.0090   28.5920   45.1820 C   0  0  0  0  0  0  0  0  0  0  0  0
   57.8010   29.6490   44.7030 C   0  0  0  0  0  0  0  0  0  0  0  0
   57.0640   31.1630   44.1730 S   0  0  0  0  0  0  0  0  0  0  0  0
   55.5950   31.1420   44.4940 O   0  0  0  0  0  0  0  0  0  0  0  0
   57.2160   31.3330   42.6870 O   0  0  0  0  0  0  0  0  0  0  0  0
   57.8560   32.5060   44.9890 C   0  0  0  0  0  0  0  0  0  0  0  0
   57.7920   32.6040   46.3860 C   0  0  0  0  0  0  0  0  0  0  0  0
   58.4040   33.6770   47.0420 C   0  0  0  0  0  0  0  0  0  0  0  0
   59.0790   34.6560   46.3070 C   0  0  0  0  0  0  0  0  0  0  0  0
   59.6700   35.6970   46.9450 F   0  0  0  0  0  0  0  0  0  0  0  0
   59.1390   34.5650   44.9140 C   0  0  0  0  0  0  0  0  0  0  0  0
   58.5280   33.4930   44.2540 C   0  0  0  0  0  0  0  0  0  0  0  0
   59.1930   29.5000   44.6750 C   0  0  0  0  0  0  0  0  0  0  0  0
   59.7730   28.3450   45.0950 N   0  0  0  0  0  0  0  0  0  0  0  0
   59.0330   27.2990   45.5590 C   0  0  0  0  0  0  0  0  0  0  0  0
   59.6620   26.1180   45.9850 C   0  0  0  0  0  0  0  0  0  0  0  0
   58.9030   25.0480   46.4630 C   0  0  0  0  0  0  0  0  0  0  0  0
   57.5100   25.1450   46.5200 C   0  0  0  0  0  0  0  0  0  0  0  0
   56.5640   23.7950   47.1220 Cl  0  0  0  0  0  0  0  0  0  0  0  0
   56.8700   26.3140   46.0980 C   0  0  0  0  0  0  0  0  0  0  0  0
   57.6220   27.4000   45.6130 C   0  0  0  0  0  0  0  0  0  0  0  0
   57.2599   31.8362   46.9668 H   0  0  0  0  0  0  0  0  0  0  0  0
   58.3541   33.7507   48.1384 H   0  0  0  0  0  0  0  0  0  0  0  0
   59.6673   35.3371   44.3354 H   0  0  0  0  0  0  0  0  0  0  0  0
   58.5750   33.4245   43.1571 H   0  0  0  0  0  0  0  0  0  0  0  0
   59.8225   30.3249   44.3099 H   0  0  0  0  0  0  0  0  0  0  0  0
   60.8160   28.2730   45.0570 H   0  0  0  0  0  0  0  0  0  0  0  0
   60.7581   26.0354   45.9419 H   0  0  0  0  0  0  0  0  0  0  0  0
   59.4028   24.1263   46.7956 H   0  0  0  0  0  0  0  0  0  0  0  0
   55.7733   26.3853   46.1453 H   0  0  0  0  0  0  0  0  0  0  0  0
  1  2  2  0
  2  3  1  0
  3  4  1  0
  4  5  2  0
  4  6  2  0
  4  7  1  0
  7  8  2  0
  8  9  1  0
  9 10  2  0
 10 11  1  0
 10 12  1  0
 12 13  2  0
  3 14  2  0
 14 15  1  0
 15 16  1  0
 16 17  2  0
 17 18  1  0
 18 19  2  0
 19 20  1  0
 19 21  1  0
 21 22  2  0
 22  2  1  0
 13  7  1  0
 22 16  1  0
  8 23  1  0
  9 24  1  0
 12 25  1  0
 13 26  1  0
 14 27  1  0
 15 28  1  0
 17 29  1  0
 18 30  1  0
 21 31  1  0
M  END
>  <UniqueID>  (47) 
42

>  <SMILES>  (47) 
O=c1c(S(=O)(=O)c2ccc(F)cc2)c[nH]c2ccc(Cl)cc12

>  <Energy>  (47) 
41.30202083075738

>  <Genealogy>  (47) 
O=c1c(S(=O)(=O)c2ccc(F)cc2)c[nH]c2ccc(Cl)cc12 (3D coordinates assigned)
O=c1c(S(=O)(=O)c2ccc(F)cc2)c[nH]c2ccc(Cl)cc12 (optimized conformer: 41.30202083075738 kcal/mol)

>  <smiles>  (47) 
O=c1c(S(=O)(=O)c2ccc(F)cc2)c[nH]c2ccc(Cl)cc12

>  <score_type>  (47) 
oracle

>  <origin>  (47) 
adg

>  <m_score__min__energy>  (47) 
-8.4000000000000004

>  <m_primary>  (47) 
energy

$$$$
48:0
     RDKit          3D

 51 54  0  0  0  0  0  0  0  0999 V2000
   57.2350   29.0640   43.7450 C   0  0  0  0  0  0  0  0  0  0  0  0
   56.1950   29.9040   44.4200 C   0  0  0  0  0  0  0  0  0  0  0  0
   55.1780   29.3420   44.9050 O   0  0  0  0  0  0  0  0  0  0  0  0
   56.3380   31.3230   44.5670 N   0  0  0  0  0  0  0  0  0  0  0  0
   57.4070   32.0100   45.2350 C   0  0  0  0  0  0  0  0  0  0  0  0
   58.5800   31.3450   45.6270 C   0  0  0  0  0  0  0  0  0  0  0  0
   59.6140   32.0480   46.2530 C   0  0  0  0  0  0  0  0  0  0  0  0
   59.4930   33.4310   46.4850 C   0  0  0  0  0  0  0  0  0  0  0  0
   60.4940   34.1840   47.1220 O   0  0  0  0  0  0  0  0  0  0  0  0
   61.2130   33.7780   48.2870 C   0  0  0  0  0  0  0  0  0  0  0  0
   60.2770   33.2080   49.3190 C   0  0  0  0  0  0  0  0  0  0  0  0
   59.7620   34.0280   50.3430 C   0  0  0  0  0  0  0  0  0  0  0  0
   58.8930   33.4690   51.2890 C   0  0  0  0  0  0  0  0  0  0  0  0
   58.4220   34.1750   52.2200 O   0  0  0  0  0  0  0  0  0  0  0  0
   58.5700   32.1540   51.1820 N   0  0  0  0  0  0  0  0  0  0  0  0
   57.7570   31.5050   52.0120 N   0  0  0  0  0  0  0  0  0  0  0  0
   57.6190   30.2010   51.6660 C   0  0  0  0  0  0  0  0  0  0  0  0
   56.8540   29.3560   52.2910 N   0  0  0  0  0  0  0  0  0  0  0  0
   55.4290   29.4510   52.4540 C   0  0  0  0  0  0  0  0  0  0  0  0
   54.6900   28.4720   53.1460 C   0  0  0  0  0  0  0  0  0  0  0  0
   53.2960   28.5820   53.2590 C   0  0  0  0  0  0  0  0  0  0  0  0
   52.5110   27.5160   53.9630 C   0  0  0  0  0  0  0  0  0  0  0  0
   52.6340   29.6520   52.6390 C   0  0  0  0  0  0  0  0  0  0  0  0
   53.3590   30.6240   51.9360 C   0  0  0  0  0  0  0  0  0  0  0  0
   52.6410   31.7410   51.2360 C   0  0  0  0  0  0  0  0  0  0  0  0
   54.7520   30.5040   51.8290 C   0  0  0  0  0  0  0  0  0  0  0  0
   58.5020   29.8050   50.2770 S   0  0  0  0  0  0  0  0  0  0  0  0
   59.0640   31.3890   50.1860 C   0  0  0  0  0  0  0  0  0  0  0  0
   59.9070   31.8940   49.2510 N   0  0  0  0  0  0  0  0  0  0  0  0
   58.3360   34.0950   46.0610 C   0  0  0  0  0  0  0  0  0  0  0  0
   57.3040   33.3910   45.4330 C   0  0  0  0  0  0  0  0  0  0  0  0
   57.8533   28.5646   44.5055 H   0  0  0  0  0  0  0  0  0  0  0  0
   56.7435   28.3065   43.1168 H   0  0  0  0  0  0  0  0  0  0  0  0
   57.8721   29.7039   43.1168 H   0  0  0  0  0  0  0  0  0  0  0  0
   58.6860   30.2661   45.4408 H   0  0  0  0  0  0  0  0  0  0  0  0
   60.5258   31.5180   46.5655 H   0  0  0  0  0  0  0  0  0  0  0  0
   61.9512   33.0121   48.0069 H   0  0  0  0  0  0  0  0  0  0  0  0
   61.7178   34.6567   48.7148 H   0  0  0  0  0  0  0  0  0  0  0  0
   60.0383   35.0913   50.3986 H   0  0  0  0  0  0  0  0  0  0  0  0
   55.2092   27.6155   53.6008 H   0  0  0  0  0  0  0  0  0  0  0  0
   52.6078   27.6474   55.0508 H   0  0  0  0  0  0  0  0  0  0  0  0
   51.4515   27.5918   53.6773 H   0  0  0  0  0  0  0  0  0  0  0  0
   52.8979   26.5267   53.6773 H   0  0  0  0  0  0  0  0  0  0  0  0
   51.5387   29.7288   52.7049 H   0  0  0  0  0  0  0  0  0  0  0  0
   52.2041   32.4207   51.9824 H   0  0  0  0  0  0  0  0  0  0  0  0
   53.3519   32.2961   50.6063 H   0  0  0  0  0  0  0  0  0  0  0  0
   51.8408   31.3248   50.6063 H   0  0  0  0  0  0  0  0  0  0  0  0
   55.3188   31.2459   51.2473 H   0  0  0  0  0  0  0  0  0  0  0  0
   60.2680   31.2750   48.4900 H   0  0  0  0  0  0  0  0  0  0  0  0
   58.2379   35.1786   46.2230 H   0  0  0  0  0  0  0  0  0  0  0  0
   56.4055   33.9264   45.0925 H   0  0  0  0  0  0  0  0  0  0  0  0
  1  2  1  0
  2  3  2  0
  2  4  1  0
  4  5  1  0
  5  6  2  0
  6  7  1  0
  7  8  2  0
  8  9  1  0
  9 10  1  0
 10 11  1  0
 11 12  2  0
 12 13  1  0
 13 14  2  0
 13 15  1  0
 15 16  1  0
 16 17  1  0
 17 18  2  3
 18 19  1  0
 19 20  2  0
 20 21  1  0
 21 22  1  0
 21 23  2  0
 23 24  1  0
 24 25  1  0
 24 26  2  0
 17 27  1  0
 27 28  1  0
 28 29  2  0
  8 30  1  0
 30 31  2  0
 31  5  1  0
 29 11  1  0
 28 15  1  0
 26 19  1  0
  1 32  1  0
  1 33  1  0
  1 34  1  0
  6 35  1  0
  7 36  1  0
 10 37  1  0
 10 38  1  0
 12 39  1  0
 20 40  1  0
 22 41  1  0
 22 42  1  0
 22 43  1  0
 23 44  1  0
 25 45  1  0
 25 46  1  0
 25 47  1  0
 26 48  1  0
 29 49  1  0
 30 50  1  0
 31 51  1  0
M  CHG  3   4  -1  16  -1  29   1
M  END
>  <UniqueID>  (48) 
43

>  <SMILES>  (48) 
CC(=O)[N-]c1ccc(OCc2cc(=O)n3[n-]c(=Nc4cc(C)cc(C)c4)sc3[nH+]2)cc1

>  <Energy>  (48) 
99.88421307127902

>  <Genealogy>  (48) 
CC(=O)[N-]c1ccc(OCc2cc(=O)n3[n-]c(=Nc4cc(C)cc(C)c4)sc3[nH+]2)cc1 (protonated)
CC(=O)[N-]c1ccc(OCc2cc(=O)n3[n-]c(=Nc4cc(C)cc(C)c4)sc3[nH+]2)cc1 (3D coordinates assigned)
CC(=O)[N-]c1ccc(OCc2cc(=O)n3[n-]c(=Nc4cc(C)cc(C)c4)sc3[nH+]2)cc1 (optimized conformer: 99.88421307127902 kcal/mol)

>  <smiles>  (48) 
CC(=O)Nc1ccc(OCc2cc(=O)n3[nH]c(=Nc4cc(C)cc(C)c4)sc3n2)cc1

>  <score_type>  (48) 
oracle

>  <origin>  (48) 
adg

>  <m_score__min__energy>  (48) 
-11.9

>  <m_primary>  (48) 
energy

$$$$
49:0
     RDKit          3D

 31 33  0  0  0  0  0  0  0  0999 V2000
   56.9420   31.6294   42.1469 H   0  0  0  0  0  0  0  0  0  0  0  0
   57.3870   31.5870   43.1520 C   0  0  0  0  0  0  0  0  0  0  0  0
   57.5410   32.7240   43.8710 N   0  0  0  0  0  0  0  0  0  0  0  0
   58.0470   32.7150   45.1310 C   0  0  0  0  0  0  0  0  0  0  0  0
   58.1340   33.9230   45.8320 C   0  0  0  0  0  0  0  0  0  0  0  0
   57.8638   34.8658   45.3339 H   0  0  0  0  0  0  0  0  0  0  0  0
   58.5610   33.9370   47.1570 C   0  0  0  0  0  0  0  0  0  0  0  0
   58.6551   34.8919   47.6949 H   0  0  0  0  0  0  0  0  0  0  0  0
   58.8690   32.7410   47.8010 C   0  0  0  0  0  0  0  0  0  0  0  0
   59.1740   32.7521   48.8578 H   0  0  0  0  0  0  0  0  0  0  0  0
   58.7930   31.5270   47.1130 C   0  0  0  0  0  0  0  0  0  0  0  0
   59.0068   30.5876   47.6439 H   0  0  0  0  0  0  0  0  0  0  0  0
   58.4440   31.4910   45.7400 C   0  0  0  0  0  0  0  0  0  0  0  0
   58.3860   30.2980   44.9480 C   0  0  0  0  0  0  0  0  0  0  0  0
   58.8910   29.1360   45.2810 N   0  0  0  0  0  0  0  0  0  0  0  0
   58.2420   27.9350   45.7190 C   0  0  0  0  0  0  0  0  0  0  0  0
   56.8460   27.8600   45.6390 C   0  0  0  0  0  0  0  0  0  0  0  0
   56.2740   28.7148   45.2490 H   0  0  0  0  0  0  0  0  0  0  0  0
   56.1750   26.7050   46.0520 C   0  0  0  0  0  0  0  0  0  0  0  0
   54.7880   26.6490   45.9900 O   0  0  0  0  0  0  0  0  0  0  0  0
   56.8980   25.6110   46.5290 C   0  0  0  0  0  0  0  0  0  0  0  0
   56.3681   24.7089   46.8688 H   0  0  0  0  0  0  0  0  0  0  0  0
   58.2940   25.6590   46.5760 C   0  0  0  0  0  0  0  0  0  0  0  0
   58.8580   24.7928   46.9523 H   0  0  0  0  0  0  0  0  0  0  0  0
   58.9820   26.8060   46.1460 C   0  0  0  0  0  0  0  0  0  0  0  0
   60.4870   26.8140   46.1800 C   0  0  0  0  0  0  0  0  0  0  0  0
   60.8301   26.8158   47.2251 H   0  0  0  0  0  0  0  0  0  0  0  0
   60.8701   25.9179   45.6699 H   0  0  0  0  0  0  0  0  0  0  0  0
   60.8605   27.7141   45.6699 H   0  0  0  0  0  0  0  0  0  0  0  0
   57.7900   30.3660   43.6810 C   0  0  0  0  0  0  0  0  0  0  0  0
   57.6397   29.4443   43.0996 H   0  0  0  0  0  0  0  0  0  0  0  0
  1  2  1  0
  2  3  1  0
  3  4  1  0
  4  5  2  0
  5  6  1  0
  5  7  1  0
  7  8  1  0
  7  9  2  0
  9 10  1  0
  9 11  1  0
 11 12  1  0
 11 13  2  0
 13 14  1  0
 14 15  2  0
 15 16  1  0
 16 17  2  0
 17 18  1  0
 17 19  1  0
 19 20  1  0
 19 21  2  0
 21 22  1  0
 21 23  1  0
 23 24  1  0
 23 25  2  0
 25 26  1  0
 26 27  1  0
 26 28  1  0
 26 29  1  0
 14 30  1  0
 30 31  1  0
 30  2  2  0
 13  4  1  0
 25 16  1  0
M  CHG  2   3  -1  20  -1
M  END
>  <UniqueID>  (49) 
44

>  <SMILES>  (49) 
Cc1ccc([O-])cc1/N=c1/cc[n-]c2ccccc12

>  <Energy>  (49) 
57.71681998314321

>  <Genealogy>  (49) 
Cc1ccc([O-])cc1N=c1cc[n-]c2ccccc12 (protonated)
Cc1ccc([O-])cc1/N=c1/cc[n-]c2ccccc12 (cis-trans isomerization)
Cc1ccc([O-])cc1/N=c1/cc[n-]c2ccccc12 (3D coordinates assigned)
Cc1ccc([O-])cc1/N=c1/cc[n-]c2ccccc12 (optimized conformer: 57.71681998314321 kcal/mol)

>  <smiles>  (49) 
Cc1ccc(O)cc1N=c1cc[nH]c2ccccc12

>  <score_type>  (49) 
oracle

>  <origin>  (49) 
adg

>  <m_score__min__energy>  (49) 
-11.460000000000001

>  <m_primary>  (49) 
energy

$$$$
50:0
     RDKit          3D

 39 42  0  0  0  0  0  0  0  0999 V2000
   58.9140   33.0270   46.1780 C   0  0  0  0  0  0  0  0  0  0  0  0
   58.4350   32.1630   45.0480 C   0  0  0  0  0  0  0  0  0  0  0  0
   58.1230   32.7840   43.8170 C   0  0  0  0  0  0  0  0  0  0  0  0
   57.4290   32.0880   42.8110 C   0  0  0  0  0  0  0  0  0  0  0  0
   57.0080   30.7700   43.0230 C   0  0  0  0  0  0  0  0  0  0  0  0
   57.3540   30.1530   44.2230 C   0  0  0  0  0  0  0  0  0  0  0  0
   56.9760   28.9220   44.6110 N   0  0  0  0  0  0  0  0  0  0  0  0
   57.5220   28.7440   45.8340 C   0  0  0  0  0  0  0  0  0  0  0  0
   57.4040   27.6070   46.6580 C   0  0  0  0  0  0  0  0  0  0  0  0
   56.5250   26.4580   46.3320 C   0  0  0  0  0  0  0  0  0  0  0  0
   55.1550   26.6750   46.0030 N   0  0  0  0  0  0  0  0  0  0  0  0
   56.9810   25.2840   46.3090 O   0  0  0  0  0  0  0  0  0  0  0  0
   58.1500   27.5980   47.8520 C   0  0  0  0  0  0  0  0  0  0  0  0
   59.0130   28.6570   48.1750 C   0  0  0  0  0  0  0  0  0  0  0  0
   59.1370   29.7790   47.3330 C   0  0  0  0  0  0  0  0  0  0  0  0
   60.3040   30.6620   47.5300 C   0  0  0  0  0  0  0  0  0  0  0  0
   61.4810   30.4450   46.7960 C   0  0  0  0  0  0  0  0  0  0  0  0
   62.6070   31.2420   47.0210 C   0  0  0  0  0  0  0  0  0  0  0  0
   62.5730   32.2550   47.9890 C   0  0  0  0  0  0  0  0  0  0  0  0
   63.6920   33.0540   48.2100 O   0  0  0  0  0  0  0  0  0  0  0  0
   61.4060   32.4610   48.7390 C   0  0  0  0  0  0  0  0  0  0  0  0
   61.3350   33.8290   50.0750 Br  0  0  0  0  0  0  0  0  0  0  0  0
   60.2810   31.6580   48.5180 C   0  0  0  0  0  0  0  0  0  0  0  0
   58.2990   29.8410   46.1990 C   0  0  0  0  0  0  0  0  0  0  0  0
   58.1220   30.7900   45.1850 C   0  0  0  0  0  0  0  0  0  0  0  0
   58.6524   32.5552   47.1366 H   0  0  0  0  0  0  0  0  0  0  0  0
   60.0058   33.1440   46.1128 H   0  0  0  0  0  0  0  0  0  0  0  0
   58.4348   34.0150   46.1128 H   0  0  0  0  0  0  0  0  0  0  0  0
   58.4274   33.8267   43.6434 H   0  0  0  0  0  0  0  0  0  0  0  0
   57.2158   32.5824   41.8518 H   0  0  0  0  0  0  0  0  0  0  0  0
   56.4197   30.2358   42.2624 H   0  0  0  0  0  0  0  0  0  0  0  0
   56.3960   28.2590   44.0530 H   0  0  0  0  0  0  0  0  0  0  0  0
   54.4940   27.0850   46.7010 H   0  0  0  0  0  0  0  0  0  0  0  0
   58.0551   26.7474   48.5429 H   0  0  0  0  0  0  0  0  0  0  0  0
   59.6029   28.6096   49.1023 H   0  0  0  0  0  0  0  0  0  0  0  0
   61.5171   29.6453   46.0415 H   0  0  0  0  0  0  0  0  0  0  0  0
   63.5233   31.0735   46.4361 H   0  0  0  0  0  0  0  0  0  0  0  0
   64.6090   32.7900   47.8660 H   0  0  0  0  0  0  0  0  0  0  0  0
   59.3741   31.8086   49.1221 H   0  0  0  0  0  0  0  0  0  0  0  0
  1  2  1  0
  2  3  2  0
  3  4  1  0
  4  5  2  0
  5  6  1  0
  6  7  1  0
  7  8  1  0
  8  9  2  0
  9 10  1  0
 10 11  1  0
 10 12  2  0
  9 13  1  0
 13 14  2  0
 14 15  1  0
 15 16  1  0
 16 17  2  0
 17 18  1  0
 18 19  2  0
 19 20  1  0
 19 21  1  0
 21 22  1  0
 21 23  2  0
 15 24  2  0
 24 25  1  0
 25  2  1  0
 25  6  2  0
 24  8  1  0
 23 16  1  0
  1 26  1  0
  1 27  1  0
  1 28  1  0
  3 29  1  0
  4 30  1  0
  5 31  1  0
  7 32  1  0
 11 33  1  0
 13 34  1  0
 14 35  1  0
 17 36  1  0
 18 37  1  0
 20 38  1  0
 23 39  1  0
M  CHG  1  11  -1
M  END
>  <UniqueID>  (50) 
45

>  <SMILES>  (50) 
Cc1cccc2[nH]c3c(C([NH-])=O)ccc(-c4ccc(O)c(Br)c4)c3c12

>  <Energy>  (50) 
102.12605285487415

>  <Genealogy>  (50) 
Cc1cccc2[nH]c3c(C([NH-])=O)ccc(-c4ccc(O)c(Br)c4)c3c12 (protonated)
Cc1cccc2[nH]c3c(C([NH-])=O)ccc(-c4ccc(O)c(Br)c4)c3c12 (3D coordinates assigned)
Cc1cccc2[nH]c3c(C([NH-])=O)ccc(-c4ccc(O)c(Br)c4)c3c12 (optimized conformer: 102.12605285487415 kcal/mol)

>  <smiles>  (50) 
Cc1cccc2[nH]c3c(C(N)=O)ccc(-c4ccc(O)c(Br)c4)c3c12

>  <score_type>  (50) 
oracle

>  <origin>  (50) 
adg

>  <m_score__min__energy>  (50) 
-11.98

>  <m_primary>  (50) 
energy

$$$$
51:0
     RDKit          3D

 46 48  0  0  0  0  0  0  0  0999 V2000
   55.0306   27.0218   46.1591 H   0  0  0  0  0  0  0  0  0  0  0  0
   56.0620   26.6760   45.9960 C   0  0  0  0  0  0  0  0  0  0  0  0
   56.4350   25.4380   46.4060 N   0  0  0  0  0  0  0  0  0  0  0  0
   57.7040   24.9850   46.2180 C   0  0  0  0  0  0  0  0  0  0  0  0
   58.0570   23.7970   46.6100 N   0  0  0  0  0  0  0  0  0  0  0  0
   57.4550   22.5450   46.1480 C   0  0  0  0  0  0  0  0  0  0  0  0
   57.7718   21.7295   46.8148 H   0  0  0  0  0  0  0  0  0  0  0  0
   56.3615   22.6637   46.1632 H   0  0  0  0  0  0  0  0  0  0  0  0
   57.8810   22.2070   44.7100 C   0  0  0  0  0  0  0  0  0  0  0  0
   57.4204   21.2488   44.4275 H   0  0  0  0  0  0  0  0  0  0  0  0
   57.5461   23.0381   44.0719 H   0  0  0  0  0  0  0  0  0  0  0  0
   59.4050   22.0860   44.5280 C   0  0  0  0  0  0  0  0  0  0  0  0
   59.7153   21.0683   44.8074 H   0  0  0  0  0  0  0  0  0  0  0  0
   59.6371   22.3006   43.4744 H   0  0  0  0  0  0  0  0  0  0  0  0
   60.1390   23.0460   45.3540 N   0  0  0  0  0  0  0  0  0  0  0  0
   59.7560   24.0030   45.1830 H   0  0  0  0  0  0  0  0  0  0  0  0
   60.0180   22.8190   46.3670 H   0  0  0  0  0  0  0  0  0  0  0  0
   61.1550   23.0410   45.1050 H   0  0  0  0  0  0  0  0  0  0  0  0
   58.6210   25.7860   45.6150 N   0  0  0  0  0  0  0  0  0  0  0  0
   58.3020   27.0390   45.1950 C   0  0  0  0  0  0  0  0  0  0  0  0
   56.9900   27.5140   45.3650 C   0  0  0  0  0  0  0  0  0  0  0  0
   56.6280   28.8760   44.9220 C   0  0  0  0  0  0  0  0  0  0  0  0
   55.4850   29.3460   45.1700 O   0  0  0  0  0  0  0  0  0  0  0  0
   57.5980   29.6850   44.1150 C   0  0  0  0  0  0  0  0  0  0  0  0
   57.3987   30.7528   44.2883 H   0  0  0  0  0  0  0  0  0  0  0  0
   57.4611   29.4183   43.0566 H   0  0  0  0  0  0  0  0  0  0  0  0
   59.0620   29.3860   44.4920 C   0  0  1  0  0  0  0  0  0  0  0  0
   59.7009   29.7957   43.6957 H   0  0  0  0  0  0  0  0  0  0  0  0
   59.4820   30.1150   45.7640 C   0  0  0  0  0  0  0  0  0  0  0  0
   58.9740   31.4040   46.0130 C   0  0  0  0  0  0  0  0  0  0  0  0
   58.3047   31.8758   45.2785 H   0  0  0  0  0  0  0  0  0  0  0  0
   59.3100   32.0910   47.1820 C   0  0  0  0  0  0  0  0  0  0  0  0
   58.9106   33.1013   47.3546 H   0  0  0  0  0  0  0  0  0  0  0  0
   60.1490   31.5060   48.1340 C   0  0  0  0  0  0  0  0  0  0  0  0
   60.4570   32.2360   49.2920 O   0  0  0  0  0  0  0  0  0  0  0  0
   59.9610   33.5410   49.5740 C   0  0  0  0  0  0  0  0  0  0  0  0
   59.9063   33.6850   50.6632 H   0  0  0  0  0  0  0  0  0  0  0  0
   60.6364   34.2920   49.1383 H   0  0  0  0  0  0  0  0  0  0  0  0
   58.9573   33.6538   49.1383 H   0  0  0  0  0  0  0  0  0  0  0  0
   60.6490   30.2120   47.9030 C   0  0  0  0  0  0  0  0  0  0  0  0
   61.3075   29.7394   48.6466 H   0  0  0  0  0  0  0  0  0  0  0  0
   60.3140   29.5230   46.7340 C   0  0  0  0  0  0  0  0  0  0  0  0
   60.7043   28.5077   46.5699 H   0  0  0  0  0  0  0  0  0  0  0  0
   59.3600   27.8660   44.5100 C   0  0  0  0  0  0  0  0  0  0  0  0
   60.3146   27.7074   45.0330 H   0  0  0  0  0  0  0  0  0  0  0  0
   59.3901   27.5364   43.4610 H   0  0  0  0  0  0  0  0  0  0  0  0
  1  2  1  0
  2  3  1  0
  3  4  1  0
  4  5  2  0
  5  6  1  0
  6  7  1  0
  6  8  1  0
  6  9  1  0
  9 10  1  0
  9 11  1  0
  9 12  1  0
 12 13  1  0
 12 14  1  0
 12 15  1  0
 15 16  1  0
 15 17  1  0
 15 18  1  0
  4 19  1  0
 19 20  2  0
 20 21  1  0
 21 22  1  0
 22 23  2  0
 22 24  1  0
 24 25  1  0
 24 26  1  0
 24 27  1  0
 27 28  1  6
 27 29  1  0
 29 30  2  0
 30 31  1  0
 30 32  1  0
 32 33  1  0
 32 34  2  0
 34 35  1  0
 35 36  1  0
 36 37  1  0
 36 38  1  0
 36 39  1  0
 34 40  1  0
 40 41  1  0
 40 42  2  0
 42 43  1  0
 27 44  1  0
 44 45  1  0
 44 46  1  0
 21  2  2  0
 42 29  1  0
 44 20  1  0
M  CHG  2   3  -1  15   1
M  END
>  <UniqueID>  (51) 
46

>  <SMILES>  (51) 
COc1ccc([C@@H]2CC(=O)c3c[n-]/c(=N\CCC[NH3+])nc3C2)cc1

>  <Energy>  (51) 
47.641150738738695

>  <Genealogy>  (51) 
COc1ccc(C2CC(=O)c3c[n-]c(=NCCC[NH3+])nc3C2)cc1 (protonated)
COc1ccc([C@@H]2CC(=O)c3c[n-]c(=NCCC[NH3+])nc3C2)cc1 (chirality)
COc1ccc([C@@H]2CC(=O)c3c[n-]/c(=N\CCC[NH3+])nc3C2)cc1 (cis-trans isomerization)
COc1ccc([C@@H]2CC(=O)c3c[n-]/c(=N\CCC[NH3+])nc3C2)cc1 (3D coordinates assigned)
COc1ccc([C@@H]2CC(=O)c3c[n-]/c(=N\CCC[NH3+])nc3C2)cc1 (nonaromatic ring conformer: 47.641150738738695 kcal/mol)

>  <smiles>  (51) 
COc1ccc(C2CC(=O)c3c[nH]c(=NCCCN)nc3C2)cc1

>  <score_type>  (51) 
oracle

>  <origin>  (51) 
adg

>  <m_score__min__energy>  (51) 
-7.2300000000000004

>  <m_primary>  (51) 
energy

$$$$
52:0
     RDKit          3D

 46 48  0  0  0  0  0  0  0  0999 V2000
   55.7040   26.7440   45.9750 O   0  0  0  0  0  0  0  0  0  0  0  0
   56.8170   27.3150   45.8070 C   0  0  0  0  0  0  0  0  0  0  0  0
   58.0280   26.7780   46.5200 C   0  0  0  0  0  0  0  0  0  0  0  0
   58.3520   27.5860   47.6530 O   0  0  0  0  0  0  0  0  0  0  0  0
   59.1570   28.7370   47.6190 C   0  0  0  0  0  0  0  0  0  0  0  0
   58.8600   29.7800   48.5080 C   0  0  0  0  0  0  0  0  0  0  0  0
   59.6310   30.9480   48.5170 C   0  0  0  0  0  0  0  0  0  0  0  0
   60.7070   31.0840   47.6360 C   0  0  0  0  0  0  0  0  0  0  0  0
   61.0140   30.0520   46.7440 C   0  0  0  0  0  0  0  0  0  0  0  0
   60.2460   28.8820   46.7310 C   0  0  0  0  0  0  0  0  0  0  0  0
   56.9040   28.4640   44.9430 N   0  0  0  0  0  0  0  0  0  0  0  0
   55.7190   29.3180   44.7750 C   0  0  0  0  0  0  0  0  0  0  0  0
   56.0720   30.6520   44.1000 C   0  0  0  0  0  0  0  0  0  0  0  0
   57.3980   31.2010   44.6710 C   0  0  0  0  0  0  0  0  0  0  0  0
   57.7340   32.5960   44.1020 C   0  0  0  0  0  0  0  0  0  0  0  0
   58.3520   33.5010   45.1380 C   0  0  0  0  0  0  0  0  0  0  0  0
   58.1420   33.2570   46.5050 C   0  0  0  0  0  0  0  0  0  0  0  0
   58.6860   34.1150   47.4660 C   0  0  0  0  0  0  0  0  0  0  0  0
   59.4420   35.2230   47.0690 C   0  0  0  0  0  0  0  0  0  0  0  0
   59.6570   35.4720   45.7100 C   0  0  0  0  0  0  0  0  0  0  0  0
   59.1140   34.6170   44.7470 C   0  0  0  0  0  0  0  0  0  0  0  0
   58.5730   30.2140   44.4200 C   0  0  0  0  0  0  0  0  0  0  0  0
   58.1190   28.7660   44.1750 C   0  0  0  0  0  0  0  0  0  0  0  0
   57.8219   25.7513   46.8568 H   0  0  0  0  0  0  0  0  0  0  0  0
   58.8799   26.7901   45.8242 H   0  0  0  0  0  0  0  0  0  0  0  0
   58.0141   29.6793   49.2040 H   0  0  0  0  0  0  0  0  0  0  0  0
   59.3896   31.7601   49.2186 H   0  0  0  0  0  0  0  0  0  0  0  0
   61.3122   32.0025   47.6442 H   0  0  0  0  0  0  0  0  0  0  0  0
   61.8612   30.1599   46.0507 H   0  0  0  0  0  0  0  0  0  0  0  0
   60.4911   28.0729   46.0272 H   0  0  0  0  0  0  0  0  0  0  0  0
   54.9825   28.7877   44.1534 H   0  0  0  0  0  0  0  0  0  0  0  0
   55.3088   29.5359   45.7721 H   0  0  0  0  0  0  0  0  0  0  0  0
   56.1799   30.4943   43.0167 H   0  0  0  0  0  0  0  0  0  0  0  0
   55.2684   31.3776   44.2943 H   0  0  0  0  0  0  0  0  0  0  0  0
   57.2593   31.3054   45.7572 H   0  0  0  0  0  0  0  0  0  0  0  0
   58.4416   32.4773   43.2682 H   0  0  0  0  0  0  0  0  0  0  0  0
   56.7941   33.0591   43.7672 H   0  0  0  0  0  0  0  0  0  0  0  0
   57.5471   32.3874   46.8211 H   0  0  0  0  0  0  0  0  0  0  0  0
   58.5192   33.9184   48.5354 H   0  0  0  0  0  0  0  0  0  0  0  0
   59.8673   35.8984   47.8259 H   0  0  0  0  0  0  0  0  0  0  0  0
   60.2541   36.3417   45.3985 H   0  0  0  0  0  0  0  0  0  0  0  0
   59.2832   34.8176   43.6788 H   0  0  0  0  0  0  0  0  0  0  0  0
   59.1327   30.5570   43.5373 H   0  0  0  0  0  0  0  0  0  0  0  0
   59.1899   30.2088   45.3307 H   0  0  0  0  0  0  0  0  0  0  0  0
   57.9117   28.6293   43.1034 H   0  0  0  0  0  0  0  0  0  0  0  0
   58.9199   28.0854   44.4996 H   0  0  0  0  0  0  0  0  0  0  0  0
  1  2  2  0
  2  3  1  0
  3  4  1  0
  4  5  1  0
  5  6  2  0
  6  7  1  0
  7  8  2  0
  8  9  1  0
  9 10  2  0
  2 11  1  0
 11 12  1  0
 12 13  1  0
 13 14  1  0
 14 15  1  0
 15 16  1  0
 16 17  2  0
 17 18  1  0
 18 19  2  0
 19 20  1  0
 20 21  2  0
 14 22  1  0
 22 23  1  0
 10  5  1  0
 23 11  1  0
 21 16  1  0
  3 24  1  0
  3 25  1  0
  6 26  1  0
  7 27  1  0
  8 28  1  0
  9 29  1  0
 10 30  1  0
 12 31  1  0
 12 32  1  0
 13 33  1  0
 13 34  1  0
 14 35  1  0
 15 36  1  0
 15 37  1  0
 17 38  1  0
 18 39  1  0
 19 40  1  0
 20 41  1  0
 21 42  1  0
 22 43  1  0
 22 44  1  0
 23 45  1  0
 23 46  1  0
M  END
>  <UniqueID>  (52) 
47

>  <SMILES>  (52) 
O=C(COc1ccccc1)N1CCC(Cc2ccccc2)CC1

>  <Energy>  (52) 
48.43440768010817

>  <Genealogy>  (52) 
O=C(COc1ccccc1)N1CCC(Cc2ccccc2)CC1 (3D coordinates assigned)
O=C(COc1ccccc1)N1CCC(Cc2ccccc2)CC1 (nonaromatic ring conformer: 48.43440768010817 kcal/mol)

>  <smiles>  (52) 
O=C(COc1ccccc1)N1CCC(Cc2ccccc2)CC1

>  <score_type>  (52) 
oracle

>  <origin>  (52) 
adg

>  <m_score__min__energy>  (52) 
-7.7699999999999996

>  <m_primary>  (52) 
energy

$$$$
53:0
     RDKit          3D

 42 44  0  0  0  0  0  0  0  0999 V2000
   56.6420   31.5680   44.8250 O   0  0  0  0  0  0  0  0  0  0  0  0
   57.7840   31.2010   45.2210 C   0  0  0  0  0  0  0  0  0  0  0  0
   58.0980   29.7450   45.2420 C   0  0  0  0  0  0  0  0  0  0  0  0
   59.4410   29.3230   45.2330 C   0  0  0  0  0  0  0  0  0  0  0  0
   59.7590   27.9610   45.2470 C   0  0  0  0  0  0  0  0  0  0  0  0
   58.7420   27.0050   45.2640 C   0  0  0  0  0  0  0  0  0  0  0  0
   59.0520   25.6850   45.2750 F   0  0  0  0  0  0  0  0  0  0  0  0
   57.4050   27.4090   45.2620 C   0  0  0  0  0  0  0  0  0  0  0  0
   57.0810   28.7690   45.2480 C   0  0  0  0  0  0  0  0  0  0  0  0
   58.7370   32.1950   45.6780 N   0  0  0  0  0  0  0  0  0  0  0  0
   58.2340   33.5570   45.4180 C   0  0  0  0  0  0  0  0  0  0  0  0
   59.3110   34.6080   45.7610 C   0  0  0  0  0  0  0  0  0  0  0  0
   60.1320   34.2520   46.9480 N   0  0  0  0  0  0  0  0  0  0  0  0
   61.5080   33.8350   46.5970 C   0  0  0  0  0  0  0  0  0  0  0  0
   62.3370   33.6210   47.8370 C   0  0  0  0  0  0  0  0  0  0  0  0
   62.1010   34.3900   48.9910 C   0  0  0  0  0  0  0  0  0  0  0  0
   62.8820   34.2040   50.1350 C   0  0  0  0  0  0  0  0  0  0  0  0
   63.9030   33.2510   50.1370 C   0  0  0  0  0  0  0  0  0  0  0  0
   64.1480   32.4840   48.9950 C   0  0  0  0  0  0  0  0  0  0  0  0
   63.3710   32.6670   47.8460 C   0  0  0  0  0  0  0  0  0  0  0  0
   63.6260   31.9170   46.7440 F   0  0  0  0  0  0  0  0  0  0  0  0
   59.4480   33.2940   47.8410 C   0  0  0  0  0  0  0  0  0  0  0  0
   59.0380   31.9910   47.1180 C   0  0  0  0  0  0  0  0  0  0  0  0
   60.2474   30.0710   45.2148 H   0  0  0  0  0  0  0  0  0  0  0  0
   60.8120   27.6428   45.2446 H   0  0  0  0  0  0  0  0  0  0  0  0
   56.6044   26.6548   45.2715 H   0  0  0  0  0  0  0  0  0  0  0  0
   56.0257   29.0793   45.2416 H   0  0  0  0  0  0  0  0  0  0  0  0
   59.6160   32.0930   45.1200 H   0  0  0  0  0  0  0  0  0  0  0  0
   57.9667   33.6469   44.3548 H   0  0  0  0  0  0  0  0  0  0  0  0
   57.3506   33.7354   46.0486 H   0  0  0  0  0  0  0  0  0  0  0  0
   59.9803   34.7158   44.8947 H   0  0  0  0  0  0  0  0  0  0  0  0
   58.7845   35.5434   46.0013 H   0  0  0  0  0  0  0  0  0  0  0  0
   61.4652   32.8960   46.0257 H   0  0  0  0  0  0  0  0  0  0  0  0
   61.9736   34.6294   45.9953 H   0  0  0  0  0  0  0  0  0  0  0  0
   61.2977   35.1415   48.9930 H   0  0  0  0  0  0  0  0  0  0  0  0
   62.6925   34.8085   51.0343 H   0  0  0  0  0  0  0  0  0  0  0  0
   64.5152   33.1040   51.0390 H   0  0  0  0  0  0  0  0  0  0  0  0
   64.9534   31.7348   48.9994 H   0  0  0  0  0  0  0  0  0  0  0  0
   60.1263   33.0386   48.6684 H   0  0  0  0  0  0  0  0  0  0  0  0
   58.5279   33.7764   48.2026 H   0  0  0  0  0  0  0  0  0  0  0  0
   59.8625   31.2680   47.2045 H   0  0  0  0  0  0  0  0  0  0  0  0
   58.1180   31.6249   47.5972 H   0  0  0  0  0  0  0  0  0  0  0  0
  1  2  2  0
  2  3  1  0
  3  4  2  0
  4  5  1  0
  5  6  2  0
  6  7  1  0
  6  8  1  0
  8  9  2  0
  2 10  1  0
 10 11  1  0
 11 12  1  0
 12 13  1  0
 13 14  1  0
 14 15  1  0
 15 16  2  0
 16 17  1  0
 17 18  2  0
 18 19  1  0
 19 20  2  0
 20 21  1  0
 13 22  1  0
 22 23  1  0
  9  3  1  0
 23 10  1  0
 20 15  1  0
  4 24  1  0
  5 25  1  0
  8 26  1  0
  9 27  1  0
 10 28  1  0
 11 29  1  0
 11 30  1  0
 12 31  1  0
 12 32  1  0
 14 33  1  0
 14 34  1  0
 16 35  1  0
 17 36  1  0
 18 37  1  0
 19 38  1  0
 22 39  1  0
 22 40  1  0
 23 41  1  0
 23 42  1  0
M  CHG  1  10   1
M  END
>  <UniqueID>  (53) 
48

>  <SMILES>  (53) 
O=C(c1ccc(F)cc1)[NH+]1CCN(Cc2ccccc2F)CC1

>  <Energy>  (53) 
61.267201198986506

>  <Genealogy>  (53) 
O=C(c1ccc(F)cc1)[NH+]1CCN(Cc2ccccc2F)CC1 (protonated)
O=C(c1ccc(F)cc1)[NH+]1CCN(Cc2ccccc2F)CC1 (3D coordinates assigned)
O=C(c1ccc(F)cc1)[NH+]1CCN(Cc2ccccc2F)CC1 (nonaromatic ring conformer: 61.267201198986506 kcal/mol)

>  <smiles>  (53) 
O=C(c1ccc(F)cc1)N1CCN(Cc2ccccc2F)CC1

>  <score_type>  (53) 
oracle

>  <origin>  (53) 
adg

>  <m_score__min__energy>  (53) 
-6.2599999999999998

>  <m_primary>  (53) 
energy

$$$$
54:0
     RDKit          3D

 40 43  0  0  0  0  0  0  0  0999 V2000
   59.6030   35.5970   46.7040 C   0  0  0  0  0  0  0  0  0  0  0  0
   59.8490   34.6830   45.6410 O   0  0  0  0  0  0  0  0  0  0  0  0
   59.2670   33.4100   45.5360 C   0  0  0  0  0  0  0  0  0  0  0  0
   58.3030   33.1070   44.5570 C   0  0  0  0  0  0  0  0  0  0  0  0
   57.7470   31.8290   44.4820 C   0  0  0  0  0  0  0  0  0  0  0  0
   58.1420   30.8300   45.3820 C   0  0  0  0  0  0  0  0  0  0  0  0
   57.5560   29.4770   45.3070 C   0  0  0  0  0  0  0  0  0  0  0  0
   58.2770   28.3390   45.2050 N   0  0  0  0  0  0  0  0  0  0  0  0
   57.3110   27.3950   45.1700 C   0  0  0  0  0  0  0  0  0  0  0  0
   57.5910   25.9420   45.0600 C   0  0  0  0  0  0  0  0  0  0  0  0
   58.6150   25.3600   45.8580 C   0  0  0  0  0  0  0  0  0  0  0  0
   58.9030   23.9870   45.7750 C   0  0  0  0  0  0  0  0  0  0  0  0
   58.1550   23.2160   44.8920 C   0  0  0  0  0  0  0  0  0  0  0  0
   58.2670   21.8970   44.6610 N   0  0  0  0  0  0  0  0  0  0  0  0
   57.3340   21.6060   43.7270 C   0  0  0  0  0  0  0  0  0  0  0  0
   56.6260   22.7470   43.3630 C   0  0  0  0  0  0  0  0  0  0  0  0
   57.1680   23.7630   44.1200 C   0  0  0  0  0  0  0  0  0  0  0  0
   56.8540   25.1190   44.1740 C   0  0  0  0  0  0  0  0  0  0  0  0
   56.0840   27.9460   45.2470 N   0  0  0  0  0  0  0  0  0  0  0  0
   56.2680   29.2280   45.3300 O   0  0  0  0  0  0  0  0  0  0  0  0
   59.1040   31.1280   46.3600 C   0  0  0  0  0  0  0  0  0  0  0  0
   59.6700   32.4160   46.4420 C   0  0  0  0  0  0  0  0  0  0  0  0
   60.6340   32.7470   47.4060 O   0  0  0  0  0  0  0  0  0  0  0  0
   62.0100   32.9870   47.1230 C   0  0  0  0  0  0  0  0  0  0  0  0
   59.7409   35.0845   47.6675 H   0  0  0  0  0  0  0  0  0  0  0  0
   60.3063   36.4398   46.6330 H   0  0  0  0  0  0  0  0  0  0  0  0
   58.5717   35.9730   46.6330 H   0  0  0  0  0  0  0  0  0  0  0  0
   57.9851   33.8832   43.8453 H   0  0  0  0  0  0  0  0  0  0  0  0
   56.9943   31.6046   43.7119 H   0  0  0  0  0  0  0  0  0  0  0  0
   59.1894   25.9937   46.5497 H   0  0  0  0  0  0  0  0  0  0  0  0
   59.6959   23.5360   46.3897 H   0  0  0  0  0  0  0  0  0  0  0  0
   58.9360   21.2320   45.1090 H   0  0  0  0  0  0  0  0  0  0  0  0
   57.1584   20.6029   43.3111 H   0  0  0  0  0  0  0  0  0  0  0  0
   55.8098   22.8219   42.6294 H   0  0  0  0  0  0  0  0  0  0  0  0
   56.0551   25.5392   43.5454 H   0  0  0  0  0  0  0  0  0  0  0  0
   55.1520   27.4790   45.2440 H   0  0  0  0  0  0  0  0  0  0  0  0
   59.4191   30.3485   47.0693 H   0  0  0  0  0  0  0  0  0  0  0  0
   62.5669   33.0841   48.0666 H   0  0  0  0  0  0  0  0  0  0  0  0
   62.4169   32.1463   46.5420 H   0  0  0  0  0  0  0  0  0  0  0  0
   62.1083   33.9158   46.5420 H   0  0  0  0  0  0  0  0  0  0  0  0
  1  2  1  0
  2  3  1  0
  3  4  2  0
  4  5  1  0
  5  6  2  0
  6  7  1  0
  7  8  2  0
  8  9  1  0
  9 10  1  0
 10 11  2  0
 11 12  1  0
 12 13  2  0
 13 14  1  0
 14 15  1  0
 15 16  2  0
 16 17  1  0
 17 18  2  0
  9 19  2  0
 19 20  1  0
  6 21  1  0
 21 22  2  0
 22 23  1  0
 23 24  1  0
 22  3  1  0
 20  7  1  0
 18 10  1  0
 17 13  1  0
  1 25  1  0
  1 26  1  0
  1 27  1  0
  4 28  1  0
  5 29  1  0
 11 30  1  0
 12 31  1  0
 14 32  1  0
 15 33  1  0
 16 34  1  0
 18 35  1  0
 19 36  1  0
 21 37  1  0
 24 38  1  0
 24 39  1  0
 24 40  1  0
M  CHG  1  19   1
M  END
>  <UniqueID>  (54) 
49

>  <SMILES>  (54) 
COc1ccc(-c2nc(-c3ccc4[nH]ccc4c3)[nH+]o2)cc1OC

>  <Energy>  (54) 
111.4484365070028

>  <Genealogy>  (54) 
COc1ccc(-c2nc(-c3ccc4[nH]ccc4c3)[nH+]o2)cc1OC (protonated)
COc1ccc(-c2nc(-c3ccc4[nH]ccc4c3)[nH+]o2)cc1OC (3D coordinates assigned)
COc1ccc(-c2nc(-c3ccc4[nH]ccc4c3)[nH+]o2)cc1OC (optimized conformer: 111.4484365070028 kcal/mol)

>  <smiles>  (54) 
COc1ccc(-c2nc(-c3ccc4[nH]ccc4c3)no2)cc1OC

>  <score_type>  (54) 
oracle

>  <origin>  (54) 
adg

>  <m_score__min__energy>  (54) 
-5.9199999999999999

>  <m_primary>  (54) 
energy

$$$$
55:0
     RDKit          3D

 28 30  0  0  0  0  0  0  0  0999 V2000
   57.0180   33.9070   45.7910 C   0  0  0  0  0  0  0  0  0  0  0  0
   57.8910   32.7120   45.7700 N   0  0  0  0  0  0  0  0  0  0  0  0
   57.4760   31.5920   45.0910 C   0  0  0  0  0  0  0  0  0  0  0  0
   56.3600   31.5900   44.4960 O   0  0  0  0  0  0  0  0  0  0  0  0
   58.2730   30.4350   45.0460 C   0  0  0  0  0  0  0  0  0  0  0  0
   57.8280   29.2920   44.3440 C   0  0  0  0  0  0  0  0  0  0  0  0
   58.6100   28.1380   44.2900 C   0  0  0  0  0  0  0  0  0  0  0  0
   58.1440   26.9810   43.5710 C   0  0  0  0  0  0  0  0  0  0  0  0
   57.7690   26.0510   42.9940 N   0  0  0  0  0  0  0  0  0  0  0  0
   59.8420   28.1090   44.9350 C   0  0  0  0  0  0  0  0  0  0  0  0
   60.2990   29.2260   45.6340 C   0  0  0  0  0  0  0  0  0  0  0  0
   59.5260   30.4140   45.7060 C   0  0  0  0  0  0  0  0  0  0  0  0
   59.9540   31.5750   46.4060 C   0  0  0  0  0  0  0  0  0  0  0  0
   61.1950   31.6340   47.0910 C   0  0  0  0  0  0  0  0  0  0  0  0
   61.5910   32.7840   47.7700 C   0  0  0  0  0  0  0  0  0  0  0  0
   60.7700   33.9010   47.7870 C   0  0  0  0  0  0  0  0  0  0  0  0
   59.5460   33.8790   47.1270 C   0  0  0  0  0  0  0  0  0  0  0  0
   59.1080   32.7270   46.4240 C   0  0  0  0  0  0  0  0  0  0  0  0
   56.8104   34.1912   46.8332 H   0  0  0  0  0  0  0  0  0  0  0  0
   57.5226   34.7388   45.2777 H   0  0  0  0  0  0  0  0  0  0  0  0
   56.0722   33.6792   45.2777 H   0  0  0  0  0  0  0  0  0  0  0  0
   56.8535   29.3125   43.8342 H   0  0  0  0  0  0  0  0  0  0  0  0
   60.4596   27.1997   44.8935 H   0  0  0  0  0  0  0  0  0  0  0  0
   61.2757   29.1855   46.1383 H   0  0  0  0  0  0  0  0  0  0  0  0
   61.8567   30.7553   47.0858 H   0  0  0  0  0  0  0  0  0  0  0  0
   62.5578   32.8059   48.2942 H   0  0  0  0  0  0  0  0  0  0  0  0
   61.0875   34.8070   48.3239 H   0  0  0  0  0  0  0  0  0  0  0  0
   58.9048   34.7724   47.1505 H   0  0  0  0  0  0  0  0  0  0  0  0
  1  2  1  0
  2  3  1  0
  3  4  2  0
  3  5  1  0
  5  6  2  0
  6  7  1  0
  7  8  1  0
  8  9  3  0
  7 10  2  0
 10 11  1  0
 11 12  2  0
 12 13  1  0
 13 14  2  0
 14 15  1  0
 15 16  2  0
 16 17  1  0
 17 18  2  0
 18  2  1  0
 12  5  1  0
 18 13  1  0
  1 19  1  0
  1 20  1  0
  1 21  1  0
  6 22  1  0
 10 23  1  0
 11 24  1  0
 14 25  1  0
 15 26  1  0
 16 27  1  0
 17 28  1  0
M  END
>  <UniqueID>  (55) 
50

>  <SMILES>  (55) 
Cn1c(=O)c2cc(C#N)ccc2c2ccccc21

>  <Energy>  (55) 
50.73641528791681

>  <Genealogy>  (55) 
Cn1c(=O)c2cc(C#N)ccc2c2ccccc21 (3D coordinates assigned)
Cn1c(=O)c2cc(C#N)ccc2c2ccccc21 (optimized conformer: 50.73641528791681 kcal/mol)

>  <smiles>  (55) 
Cn1c(=O)c2cc(C#N)ccc2c2ccccc21

>  <score_type>  (55) 
oracle

>  <origin>  (55) 
adg

>  <m_score__min__energy>  (55) 
-6.6799999999999997

>  <m_primary>  (55) 
energy

$$$$
56:0
     RDKit          3D

 29 31  0  0  0  0  0  0  0  0999 V2000
   54.7477   23.3680   45.9379 H   0  0  0  0  0  0  0  0  0  0  0  0
   55.1480   24.3910   45.9950 C   0  0  0  0  0  0  0  0  0  0  0  0
   56.4480   24.6780   46.1940 N   0  0  0  0  0  0  0  0  0  0  0  0
   56.4460   26.0260   46.1990 C   0  0  0  0  0  0  0  0  0  0  0  0
   57.6580   26.8710   46.3460 C   0  0  0  0  0  0  0  0  0  0  0  0
   58.6530   26.4450   47.2460 C   0  0  0  0  0  0  0  0  0  0  0  0
   58.5234   25.4961   47.7872 H   0  0  0  0  0  0  0  0  0  0  0  0
   59.8000   27.2070   47.4620 C   0  0  0  0  0  0  0  0  0  0  0  0
   60.5662   26.8580   48.1699 H   0  0  0  0  0  0  0  0  0  0  0  0
   59.9770   28.4090   46.7830 C   0  0  0  0  0  0  0  0  0  0  0  0
   60.8773   29.0148   46.9635 H   0  0  0  0  0  0  0  0  0  0  0  0
   59.0140   28.8460   45.8740 C   0  0  0  0  0  0  0  0  0  0  0  0
   59.1605   29.7990   45.3445 H   0  0  0  0  0  0  0  0  0  0  0  0
   57.8570   28.0840   45.6250 C   0  0  0  0  0  0  0  0  0  0  0  0
   56.8840   28.5860   44.5760 C   0  0  0  0  0  0  0  0  0  0  0  0
   57.3784   28.5748   43.5934 H   0  0  0  0  0  0  0  0  0  0  0  0
   56.0030   27.9273   44.5746 H   0  0  0  0  0  0  0  0  0  0  0  0
   56.4420   29.9510   44.8730 N   0  0  0  0  0  0  0  0  0  0  0  0
   57.0660   31.0620   44.6000 C   0  0  0  0  0  0  0  0  0  0  0  0
   57.3220   31.9310   45.6130 N   0  0  0  0  0  0  0  0  0  0  0  0
   57.9520   33.0900   45.4090 N   0  0  0  0  0  0  0  0  0  0  0  0
   58.3720   33.4580   44.1710 C   0  0  0  0  0  0  0  0  0  0  0  0
   58.8875   34.4185   44.0233 H   0  0  0  0  0  0  0  0  0  0  0  0
   58.1450   32.6100   43.0900 C   0  0  0  0  0  0  0  0  0  0  0  0
   58.4809   32.8927   42.0814 H   0  0  0  0  0  0  0  0  0  0  0  0
   57.4880   31.4000   43.3000 C   0  0  0  0  0  0  0  0  0  0  0  0
   57.3008   30.7158   42.4593 H   0  0  0  0  0  0  0  0  0  0  0  0
   55.2120   26.5290   45.9980 N   0  0  0  0  0  0  0  0  0  0  0  0
   54.3950   25.4980   45.8740 N   0  0  0  0  0  0  0  0  0  0  0  0
  1  2  1  0
  2  3  2  0
  3  4  1  0
  4  5  1  0
  5  6  2  0
  6  7  1  0
  6  8  1  0
  8  9  1  0
  8 10  2  0
 10 11  1  0
 10 12  1  0
 12 13  1  0
 12 14  2  0
 14 15  1  0
 15 16  1  0
 15 17  1  0
 15 18  1  0
 18 19  2  0
 19 20  1  0
 20 21  1  0
 21 22  2  0
 22 23  1  0
 22 24  1  0
 24 25  1  0
 24 26  2  0
 26 27  1  0
  4 28  2  0
 28 29  1  0
 29  2  1  0
 14  5  1  0
 26 19  1  0
M  CHG  2  20  -1  29  -1
M  END
>  <UniqueID>  (56) 
51

>  <SMILES>  (56) 
c1ccc(-c2nc[n-]n2)c(C/N=c2\cccn[n-]2)c1

>  <Energy>  (56) 
71.61223880822655

>  <Genealogy>  (56) 
c1ccc(-c2nc[n-]n2)c(CN=c2cccn[n-]2)c1 (protonated)
c1ccc(-c2nc[n-]n2)c(C/N=c2\cccn[n-]2)c1 (cis-trans isomerization)
c1ccc(-c2nc[n-]n2)c(C/N=c2\cccn[n-]2)c1 (3D coordinates assigned)
c1ccc(-c2nc[n-]n2)c(C/N=c2\cccn[n-]2)c1 (optimized conformer: 71.61223880822655 kcal/mol)

>  <smiles>  (56) 
c1ccc(-c2nc[nH]n2)c(CN=c2cccn[nH]2)c1

>  <score_type>  (56) 
oracle

>  <origin>  (56) 
adg

>  <m_score__min__energy>  (56) 
-10.5

>  <m_primary>  (56) 
energy

$$$$
57:0
     RDKit          3D

 44 46  0  0  0  0  0  0  0  0999 V2000
   59.3870   26.5090   46.1880 C   0  0  0  0  0  0  0  0  0  0  0  0
   60.2240   27.7780   46.3370 C   0  0  0  0  0  0  0  0  0  0  0  0
   59.4030   28.9790   46.0810 N   0  0  0  0  0  0  0  0  0  0  0  0
   58.2270   28.7950   45.4040 C   0  0  0  0  0  0  0  0  0  0  0  0
   57.3760   29.8630   45.0940 C   0  0  0  0  0  0  0  0  0  0  0  0
   56.1170   29.5970   44.3450 C   0  0  0  0  0  0  0  0  0  0  0  0
   55.1630   28.9710   44.8770 O   0  0  0  0  0  0  0  0  0  0  0  0
   55.9740   30.0390   43.0340 O   0  0  0  0  0  0  0  0  0  0  0  0
   57.7440   31.1570   45.5040 C   0  0  0  0  0  0  0  0  0  0  0  0
   57.0040   32.1440   45.2330 O   0  0  0  0  0  0  0  0  0  0  0  0
   58.9360   31.3530   46.2240 C   0  0  0  0  0  0  0  0  0  0  0  0
   59.3100   32.6400   46.6560 C   0  0  0  0  0  0  0  0  0  0  0  0
   60.4810   32.8350   47.3840 C   0  0  0  0  0  0  0  0  0  0  0  0
   60.8230   34.0930   47.7620 F   0  0  0  0  0  0  0  0  0  0  0  0
   61.3030   31.7470   47.7020 C   0  0  0  0  0  0  0  0  0  0  0  0
   62.5060   31.9310   48.4700 N   0  0  0  0  0  0  0  0  0  0  0  0
   63.6960   32.5320   47.8660 C   0  0  0  0  0  0  0  0  0  0  0  0
   64.3810   33.4630   48.8760 C   0  0  0  0  0  0  0  0  0  0  0  0
   64.6020   32.8190   50.1920 N   0  0  0  0  0  0  0  0  0  0  0  0
   65.6830   31.8150   50.1470 C   0  0  0  0  0  0  0  0  0  0  0  0
   63.3470   32.2660   50.7520 C   0  0  0  0  0  0  0  0  0  0  0  0
   62.6390   31.3050   49.7860 C   0  0  0  0  0  0  0  0  0  0  0  0
   60.9440   30.4630   47.2730 C   0  0  0  0  0  0  0  0  0  0  0  0
   59.7660   30.2390   46.5210 C   0  0  0  0  0  0  0  0  0  0  0  0
   59.1304   26.1199   47.1844 H   0  0  0  0  0  0  0  0  0  0  0  0
   58.4642   26.7411   45.6362 H   0  0  0  0  0  0  0  0  0  0  0  0
   59.9637   25.7521   45.6362 H   0  0  0  0  0  0  0  0  0  0  0  0
   60.6263   27.8270   47.3596 H   0  0  0  0  0  0  0  0  0  0  0  0
   61.0443   27.7482   45.6048 H   0  0  0  0  0  0  0  0  0  0  0  0
   57.9425   27.7785   45.0946 H   0  0  0  0  0  0  0  0  0  0  0  0
   58.6696   33.5015   46.4156 H   0  0  0  0  0  0  0  0  0  0  0  0
   64.3960   31.7368   47.5700 H   0  0  0  0  0  0  0  0  0  0  0  0
   63.3985   33.1138   46.9811 H   0  0  0  0  0  0  0  0  0  0  0  0
   65.3549   33.7698   48.4669 H   0  0  0  0  0  0  0  0  0  0  0  0
   63.7161   34.3245   49.0363 H   0  0  0  0  0  0  0  0  0  0  0  0
   64.9230   33.5710   50.8480 H   0  0  0  0  0  0  0  0  0  0  0  0
   65.9747   31.5441   51.1724 H   0  0  0  0  0  0  0  0  0  0  0  0
   65.3287   30.9183   49.6175 H   0  0  0  0  0  0  0  0  0  0  0  0
   66.5512   32.2344   49.6175 H   0  0  0  0  0  0  0  0  0  0  0  0
   63.5847   31.7221   51.6781 H   0  0  0  0  0  0  0  0  0  0  0  0
   62.6666   33.1100   50.9387 H   0  0  0  0  0  0  0  0  0  0  0  0
   63.2289   30.3812   49.6927 H   0  0  0  0  0  0  0  0  0  0  0  0
   61.6386   31.0690   50.1779 H   0  0  0  0  0  0  0  0  0  0  0  0
   61.5914   29.6104   47.5259 H   0  0  0  0  0  0  0  0  0  0  0  0
  1  2  1  0
  2  3  1  0
  3  4  1  0
  4  5  2  0
  5  6  1  0
  6  7  2  0
  6  8  1  0
  5  9  1  0
  9 10  2  0
  9 11  1  0
 11 12  2  0
 12 13  1  0
 13 14  1  0
 13 15  2  0
 15 16  1  0
 16 17  1  0
 17 18  1  0
 18 19  1  0
 19 20  1  0
 19 21  1  0
 21 22  1  0
 15 23  1  0
 23 24  2  0
 24  3  1  0
 24 11  1  0
 22 16  1  0
  1 25  1  0
  1 26  1  0
  1 27  1  0
  2 28  1  0
  2 29  1  0
  4 30  1  0
 12 31  1  0
 17 32  1  0
 17 33  1  0
 18 34  1  0
 18 35  1  0
 19 36  1  0
 20 37  1  0
 20 38  1  0
 20 39  1  0
 21 40  1  0
 21 41  1  0
 22 42  1  0
 22 43  1  0
 23 44  1  0
M  CHG  2   8  -1  19   1
M  END
>  <UniqueID>  (57) 
52

>  <SMILES>  (57) 
CCn1cc(C(=O)[O-])c(=O)c2cc(F)c(N3CC[NH+](C)CC3)cc21

>  <Energy>  (57) 
62.02810573806172

>  <Genealogy>  (57) 
CCn1cc(C(=O)[O-])c(=O)c2cc(F)c(N3CC[NH+](C)CC3)cc21 (protonated)
CCn1cc(C(=O)[O-])c(=O)c2cc(F)c(N3CC[NH+](C)CC3)cc21 (3D coordinates assigned)
CCn1cc(C(=O)[O-])c(=O)c2cc(F)c(N3CC[NH+](C)CC3)cc21 (nonaromatic ring conformer: 62.02810573806172 kcal/mol)

>  <smiles>  (57) 
CCn1cc(C(=O)O)c(=O)c2cc(F)c(N3CCN(C)CC3)cc21

>  <score_type>  (57) 
oracle

>  <origin>  (57) 
adg

>  <m_score__min__energy>  (57) 
-8.1099999999999994

>  <m_primary>  (57) 
energy

$$$$
58:0
     RDKit          3D

 48 50  0  0  0  0  0  0  0  0999 V2000
   58.0720   32.7250   43.1340 C   0  0  0  0  0  0  0  0  0  0  0  0
   57.3890   32.7770   44.5060 C   0  0  1  0  0  0  0  0  0  0  0  0
   56.7900   31.4750   44.8280 N   0  0  0  0  0  0  0  0  0  0  0  0
   57.5700   30.3280   45.2040 C   0  0  0  0  0  0  0  0  0  0  0  0
   58.8740   30.4130   45.2090 N   0  0  0  0  0  0  0  0  0  0  0  0
   59.9360   29.1150   45.6370 S   0  0  0  0  0  0  0  0  0  0  0  0
   60.8200   28.7680   44.4730 O   0  0  0  0  0  0  0  0  0  0  0  0
   60.7590   29.4990   46.8350 O   0  0  0  0  0  0  0  0  0  0  0  0
   58.9010   27.7860   46.0220 C   0  0  0  0  0  0  0  0  0  0  0  0
   59.3400   26.2410   46.5110 S   0  0  0  0  0  0  0  0  0  0  0  0
   57.7480   25.6920   46.6390 C   0  0  0  0  0  0  0  0  0  0  0  0
   57.2850   24.0760   47.1270 Cl  0  0  0  0  0  0  0  0  0  0  0  0
   56.8690   26.7150   46.3000 C   0  0  0  0  0  0  0  0  0  0  0  0
   57.5350   27.8950   45.9530 C   0  0  0  0  0  0  0  0  0  0  0  0
   56.8770   29.1080   45.5610 N   0  0  0  0  0  0  0  0  0  0  0  0
   58.3720   33.1970   45.5830 C   0  0  0  0  0  0  0  0  0  0  0  0
   59.5980   33.8000   45.2470 C   0  0  0  0  0  0  0  0  0  0  0  0
   60.4940   34.1880   46.2460 C   0  0  0  0  0  0  0  0  0  0  0  0
   60.1820   33.9870   47.5990 C   0  0  0  0  0  0  0  0  0  0  0  0
   61.1480   34.4170   48.6800 C   0  0  0  0  0  0  0  0  0  0  0  0
   62.4380   33.5480   48.7740 C   0  0  0  0  0  0  0  0  0  0  0  0
   62.0920   32.0440   48.7780 C   0  0  0  0  0  0  0  0  0  0  0  0
   63.1580   33.8900   50.0950 C   0  0  0  0  0  0  0  0  0  0  0  0
   63.3940   33.8500   47.6000 C   0  0  0  0  0  0  0  0  0  0  0  0
   58.9630   33.3790   47.9360 C   0  0  0  0  0  0  0  0  0  0  0  0
   58.0660   32.9900   46.9380 C   0  0  0  0  0  0  0  0  0  0  0  0
   59.1605   32.6421   43.2692 H   0  0  0  0  0  0  0  0  0  0  0  0
   57.7045   31.8522   42.5743 H   0  0  0  0  0  0  0  0  0  0  0  0
   57.8409   33.6433   42.5743 H   0  0  0  0  0  0  0  0  0  0  0  0
   56.5876   33.5294   44.4659 H   0  0  0  0  0  0  0  0  0  0  0  0
   55.7510   31.3660   44.7960 H   0  0  0  0  0  0  0  0  0  0  0  0
   55.7742   26.6083   46.3043 H   0  0  0  0  0  0  0  0  0  0  0  0
   55.8330   29.1080   45.5340 H   0  0  0  0  0  0  0  0  0  0  0  0
   59.8528   33.9671   44.1900 H   0  0  0  0  0  0  0  0  0  0  0  0
   61.4511   34.6545   45.9698 H   0  0  0  0  0  0  0  0  0  0  0  0
   61.4473   35.4565   48.4802 H   0  0  0  0  0  0  0  0  0  0  0  0
   60.6199   34.2991   49.6377 H   0  0  0  0  0  0  0  0  0  0  0  0
   62.0104   31.6893   49.8160 H   0  0  0  0  0  0  0  0  0  0  0  0
   61.1342   31.8867   48.2604 H   0  0  0  0  0  0  0  0  0  0  0  0
   62.8848   31.4840   48.2604 H   0  0  0  0  0  0  0  0  0  0  0  0
   62.5270   33.5903   50.9447 H   0  0  0  0  0  0  0  0  0  0  0  0
   64.1155   33.3505   50.1410 H   0  0  0  0  0  0  0  0  0  0  0  0
   63.3448   34.9730   50.1410 H   0  0  0  0  0  0  0  0  0  0  0  0
   64.3731   34.1593   47.9947 H   0  0  0  0  0  0  0  0  0  0  0  0
   63.5156   32.9465   46.9844 H   0  0  0  0  0  0  0  0  0  0  0  0
   62.9745   34.6594   46.9844 H   0  0  0  0  0  0  0  0  0  0  0  0
   58.7120   33.2075   48.9932 H   0  0  0  0  0  0  0  0  0  0  0  0
   57.1122   32.5177   47.2158 H   0  0  0  0  0  0  0  0  0  0  0  0
  1  2  1  0
  2  3  1  0
  3  4  1  0
  4  5  2  0
  5  6  1  0
  6  7  2  0
  6  8  2  0
  6  9  1  0
  9 10  1  0
 10 11  1  0
 11 12  1  0
 11 13  2  0
 13 14  1  0
 14 15  1  0
  2 16  1  0
 16 17  2  0
 17 18  1  0
 18 19  2  0
 19 20  1  0
 20 21  1  0
 21 22  1  0
 21 23  1  0
 21 24  1  0
 19 25  1  0
 25 26  2  0
 15  4  1  0
 26 16  1  0
 14  9  2  0
  1 27  1  0
  1 28  1  0
  1 29  1  0
  2 30  1  6
  3 31  1  0
 13 32  1  0
 15 33  1  0
 17 34  1  0
 18 35  1  0
 20 36  1  0
 20 37  1  0
 22 38  1  0
 22 39  1  0
 22 40  1  0
 23 41  1  0
 23 42  1  0
 23 43  1  0
 24 44  1  0
 24 45  1  0
 24 46  1  0
 25 47  1  0
 26 48  1  0
M  END
>  <UniqueID>  (58) 
53

>  <SMILES>  (58) 
C[C@@H](NC1=NS(=O)(=O)c2sc(Cl)cc2N1)c1ccc(CC(C)(C)C)cc1

>  <Energy>  (58) 
75.15905077408325

>  <Genealogy>  (58) 
C[C@@H](NC1=NS(=O)(=O)c2sc(Cl)cc2N1)c1ccc(CC(C)(C)C)cc1 (chirality)
C[C@@H](NC1=NS(=O)(=O)c2sc(Cl)cc2N1)c1ccc(CC(C)(C)C)cc1 (3D coordinates assigned)
C[C@@H](NC1=NS(=O)(=O)c2sc(Cl)cc2N1)c1ccc(CC(C)(C)C)cc1 (nonaromatic ring conformer: 75.15905077408325 kcal/mol)

>  <smiles>  (58) 
CC(NC1=NS(=O)(=O)c2sc(Cl)cc2N1)c1ccc(CC(C)(C)C)cc1

>  <score_type>  (58) 
oracle

>  <origin>  (58) 
adg

>  <m_score__min__energy>  (58) 
-9.2300000000000004

>  <m_primary>  (58) 
energy

$$$$
59:0
     RDKit          3D

 55 58  0  0  0  0  0  0  0  0999 V2000
   56.4770   29.8580   43.2950 C   0  0  0  0  0  0  0  0  0  0  0  0
   56.2910   30.6340   44.4760 O   0  0  0  0  0  0  0  0  0  0  0  0
   57.2420   31.5050   45.0290 C   0  0  0  0  0  0  0  0  0  0  0  0
   57.0230   32.8930   45.0270 C   0  0  0  0  0  0  0  0  0  0  0  0
   57.9660   33.7650   45.5520 C   0  0  0  0  0  0  0  0  0  0  0  0
   59.1570   33.2820   46.1080 C   0  0  0  0  0  0  0  0  0  0  0  0
   60.1700   34.2510   46.6100 C   0  0  0  0  0  0  0  0  0  0  0  0
   60.3180   35.3690   46.0440 O   0  0  0  0  0  0  0  0  0  0  0  0
   61.0100   33.9460   47.7820 C   0  0  0  0  0  0  0  0  0  0  0  0
   60.4510   33.9900   49.0600 C   0  0  0  0  0  0  0  0  0  0  0  0
   61.1980   33.7340   50.1800 N   0  0  0  0  0  0  0  0  0  0  0  0
   60.4970   33.8270   51.4800 C   0  0  0  0  0  0  0  0  0  0  0  0
   59.3130   32.8900   51.5210 C   0  0  0  0  0  0  0  0  0  0  0  0
   59.3270   31.6740   50.8170 C   0  0  0  0  0  0  0  0  0  0  0  0
   58.2240   30.8130   50.8740 C   0  0  0  0  0  0  0  0  0  0  0  0
   57.0980   31.1620   51.6200 C   0  0  0  0  0  0  0  0  0  0  0  0
   57.0710   32.3710   52.3210 C   0  0  0  0  0  0  0  0  0  0  0  0
   58.1740   33.2310   52.2750 C   0  0  0  0  0  0  0  0  0  0  0  0
   62.5460   33.4410   50.0610 C   0  0  0  0  0  0  0  0  0  0  0  0
   63.3680   33.1830   51.1870 C   0  0  0  0  0  0  0  0  0  0  0  0
   64.7260   32.8950   51.0360 C   0  0  0  0  0  0  0  0  0  0  0  0
   65.2990   32.8490   49.7700 C   0  0  0  0  0  0  0  0  0  0  0  0
   64.5190   33.0920   48.6410 C   0  0  0  0  0  0  0  0  0  0  0  0
   63.1490   33.3900   48.7700 C   0  0  0  0  0  0  0  0  0  0  0  0
   62.3640   33.6430   47.6320 C   0  0  0  0  0  0  0  0  0  0  0  0
   62.8750   33.6050   46.4770 O   0  0  0  0  0  0  0  0  0  0  0  0
   59.3860   31.8870   46.1690 C   0  0  0  0  0  0  0  0  0  0  0  0
   60.5630   31.4540   46.8220 O   0  0  0  0  0  0  0  0  0  0  0  0
   60.6670   30.4820   47.8580 C   0  0  0  0  0  0  0  0  0  0  0  0
   58.4380   30.9890   45.6010 C   0  0  0  0  0  0  0  0  0  0  0  0
   58.7280   29.6110   45.6200 O   0  0  0  0  0  0  0  0  0  0  0  0
   59.7320   28.9300   44.8760 C   0  0  0  0  0  0  0  0  0  0  0  0
   56.7251   28.8227   43.5718 H   0  0  0  0  0  0  0  0  0  0  0  0
   55.5513   29.8668   42.7009 H   0  0  0  0  0  0  0  0  0  0  0  0
   57.2981   30.2855   42.7009 H   0  0  0  0  0  0  0  0  0  0  0  0
   56.0905   33.2940   44.6031 H   0  0  0  0  0  0  0  0  0  0  0  0
   57.7758   34.8482   45.5312 H   0  0  0  0  0  0  0  0  0  0  0  0
   59.3847   34.2362   49.1710 H   0  0  0  0  0  0  0  0  0  0  0  0
   61.1960   33.5599   52.2862 H   0  0  0  0  0  0  0  0  0  0  0  0
   60.1351   34.8574   51.6117 H   0  0  0  0  0  0  0  0  0  0  0  0
   60.2077   31.3973   50.2188 H   0  0  0  0  0  0  0  0  0  0  0  0
   58.2455   29.8580   50.3285 H   0  0  0  0  0  0  0  0  0  0  0  0
   56.2313   30.4857   51.6566 H   0  0  0  0  0  0  0  0  0  0  0  0
   56.1829   32.6464   52.9087 H   0  0  0  0  0  0  0  0  0  0  0  0
   58.1509   34.1795   52.8315 H   0  0  0  0  0  0  0  0  0  0  0  0
   62.9291   33.2101   52.1953 H   0  0  0  0  0  0  0  0  0  0  0  0
   65.3462   32.7034   51.9240 H   0  0  0  0  0  0  0  0  0  0  0  0
   66.3693   32.6205   49.6594 H   0  0  0  0  0  0  0  0  0  0  0  0
   64.9770   33.0507   47.6417 H   0  0  0  0  0  0  0  0  0  0  0  0
   60.6135   30.9818   48.8364 H   0  0  0  0  0  0  0  0  0  0  0  0
   59.8408   29.7612   47.7688 H   0  0  0  0  0  0  0  0  0  0  0  0
   61.6269   29.9523   47.7688 H   0  0  0  0  0  0  0  0  0  0  0  0
   60.4394   28.4502   45.5684 H   0  0  0  0  0  0  0  0  0  0  0  0
   59.2622   28.1634   44.2423 H   0  0  0  0  0  0  0  0  0  0  0  0
   60.2705   29.6500   44.2423 H   0  0  0  0  0  0  0  0  0  0  0  0
  1  2  1  0
  2  3  1  0
  3  4  2  0
  4  5  1  0
  5  6  2  0
  6  7  1  0
  7  8  2  0
  7  9  1  0
  9 10  2  0
 10 11  1  0
 11 12  1  0
 12 13  1  0
 13 14  2  0
 14 15  1  0
 15 16  2  0
 16 17  1  0
 17 18  2  0
 11 19  1  0
 19 20  2  0
 20 21  1  0
 21 22  2  0
 22 23  1  0
 23 24  2  0
 24 25  1  0
 25 26  2  0
  6 27  1  0
 27 28  1  0
 28 29  1  0
 27 30  2  0
 30 31  1  0
 31 32  1  0
 30  3  1  0
 25  9  1  0
 18 13  1  0
 24 19  1  0
  1 33  1  0
  1 34  1  0
  1 35  1  0
  4 36  1  0
  5 37  1  0
 10 38  1  0
 12 39  1  0
 12 40  1  0
 14 41  1  0
 15 42  1  0
 16 43  1  0
 17 44  1  0
 18 45  1  0
 20 46  1  0
 21 47  1  0
 22 48  1  0
 23 49  1  0
 29 50  1  0
 29 51  1  0
 29 52  1  0
 32 53  1  0
 32 54  1  0
 32 55  1  0
M  END
>  <UniqueID>  (59) 
54

>  <SMILES>  (59) 
COc1ccc(C(=O)c2cn(Cc3ccccc3)c3ccccc3c2=O)c(OC)c1OC

>  <Energy>  (59) 
87.08027105342055

>  <Genealogy>  (59) 
COc1ccc(C(=O)c2cn(Cc3ccccc3)c3ccccc3c2=O)c(OC)c1OC (3D coordinates assigned)
COc1ccc(C(=O)c2cn(Cc3ccccc3)c3ccccc3c2=O)c(OC)c1OC (optimized conformer: 87.08027105342055 kcal/mol)

>  <smiles>  (59) 
COc1ccc(C(=O)c2cn(Cc3ccccc3)c3ccccc3c2=O)c(OC)c1OC

>  <score_type>  (59) 
oracle

>  <origin>  (59) 
adg

>  <m_score__min__energy>  (59) 
-8.6999999999999993

>  <m_primary>  (59) 
energy

$$$$
60:0
     RDKit          3D

 34 36  0  0  0  0  0  0  0  0999 V2000
   59.6430   36.0900   46.5790 O   0  0  0  0  0  0  0  0  0  0  0  0
   59.2770   34.9530   46.1720 C   0  0  0  0  0  0  0  0  0  0  0  0
   58.7920   34.8130   44.8730 C   0  0  0  0  0  0  0  0  0  0  0  0
   58.3990   33.5580   44.4200 C   0  0  0  0  0  0  0  0  0  0  0  0
   58.4930   32.4570   45.2800 C   0  0  0  0  0  0  0  0  0  0  0  0
   58.1100   31.0880   44.8530 C   0  0  0  0  0  0  0  0  0  0  0  0
   56.9460   30.8520   44.0940 C   0  0  0  0  0  0  0  0  0  0  0  0
   56.6010   29.5530   43.7100 C   0  0  0  0  0  0  0  0  0  0  0  0
   57.4060   28.4740   44.0810 C   0  0  0  0  0  0  0  0  0  0  0  0
   58.5560   28.6920   44.8420 C   0  0  0  0  0  0  0  0  0  0  0  0
   58.9050   29.9890   45.2300 C   0  0  0  0  0  0  0  0  0  0  0  0
   58.9780   32.6530   46.5380 N   0  0  0  0  0  0  0  0  0  0  0  0
   59.3520   33.8560   46.9880 N   0  0  0  0  0  0  0  0  0  0  0  0
   59.8950   33.9450   48.3470 C   0  0  0  0  0  0  0  0  0  0  0  0
   61.3810   33.7120   48.3230 C   0  0  0  0  0  0  0  0  0  0  0  0
   62.0460   33.4730   47.1090 C   0  0  0  0  0  0  0  0  0  0  0  0
   63.4220   33.2220   47.0970 C   0  0  0  0  0  0  0  0  0  0  0  0
   64.1400   33.2000   48.2960 C   0  0  0  0  0  0  0  0  0  0  0  0
   63.4830   33.4250   49.5080 C   0  0  0  0  0  0  0  0  0  0  0  0
   62.1070   33.6760   49.5240 C   0  0  0  0  0  0  0  0  0  0  0  0
   58.7205   35.6885   44.2109 H   0  0  0  0  0  0  0  0  0  0  0  0
   58.0180   33.4316   43.3959 H   0  0  0  0  0  0  0  0  0  0  0  0
   56.3043   31.6963   43.8017 H   0  0  0  0  0  0  0  0  0  0  0  0
   55.6928   29.3803   43.1139 H   0  0  0  0  0  0  0  0  0  0  0  0
   57.1343   27.4533   43.7740 H   0  0  0  0  0  0  0  0  0  0  0  0
   59.1886   27.8418   45.1368 H   0  0  0  0  0  0  0  0  0  0  0  0
   59.8089   30.1523   45.8353 H   0  0  0  0  0  0  0  0  0  0  0  0
   59.6895   34.9450   48.7567 H   0  0  0  0  0  0  0  0  0  0  0  0
   59.4193   33.1790   48.9770 H   0  0  0  0  0  0  0  0  0  0  0  0
   61.4826   33.4833   46.1643 H   0  0  0  0  0  0  0  0  0  0  0  0
   63.9395   33.0418   46.1432 H   0  0  0  0  0  0  0  0  0  0  0  0
   65.2226   33.0055   48.2852 H   0  0  0  0  0  0  0  0  0  0  0  0
   64.0486   33.4048   50.4513 H   0  0  0  0  0  0  0  0  0  0  0  0
   61.5920   33.8458   50.4810 H   0  0  0  0  0  0  0  0  0  0  0  0
  1  2  2  0
  2  3  1  0
  3  4  2  0
  4  5  1  0
  5  6  1  0
  6  7  2  0
  7  8  1  0
  8  9  2  0
  9 10  1  0
 10 11  2  0
  5 12  2  0
 12 13  1  0
 13 14  1  0
 14 15  1  0
 15 16  2  0
 16 17  1  0
 17 18  2  0
 18 19  1  0
 19 20  2  0
 13  2  1  0
 20 15  1  0
 11  6  1  0
  3 21  1  0
  4 22  1  0
  7 23  1  0
  8 24  1  0
  9 25  1  0
 10 26  1  0
 11 27  1  0
 14 28  1  0
 14 29  1  0
 16 30  1  0
 17 31  1  0
 18 32  1  0
 19 33  1  0
 20 34  1  0
M  END
>  <UniqueID>  (60) 
55

>  <SMILES>  (60) 
O=c1ccc(-c2ccccc2)nn1Cc1ccccc1

>  <Energy>  (60) 
41.15287334376138

>  <Genealogy>  (60) 
O=c1ccc(-c2ccccc2)nn1Cc1ccccc1 (3D coordinates assigned)
O=c1ccc(-c2ccccc2)nn1Cc1ccccc1 (optimized conformer: 41.15287334376138 kcal/mol)

>  <smiles>  (60) 
O=c1ccc(-c2ccccc2)nn1Cc1ccccc1

>  <score_type>  (60) 
oracle

>  <origin>  (60) 
adg

>  <m_score__min__energy>  (60) 
-7.7000000000000002

>  <m_primary>  (60) 
energy

$$$$
61:0
     RDKit          3D

 41 44  0  0  0  0  0  0  0  0999 V2000
   57.6990   34.5770   44.9060 O   0  0  0  0  0  0  0  0  0  0  0  0
   58.3960   33.6450   45.3910 C   0  0  0  0  0  0  0  0  0  0  0  0
   59.4980   33.9530   46.1910 C   0  0  0  0  0  0  0  0  0  0  0  0
   60.2740   32.9090   46.7300 C   0  0  0  0  0  0  0  0  0  0  0  0
   61.4240   33.1760   47.5630 N   0  0  0  0  0  0  0  0  0  0  0  0
   62.7910   32.9440   47.0750 C   0  0  0  0  0  0  0  0  0  0  0  0
   63.7440   32.6970   48.2490 C   0  0  0  0  0  0  0  0  0  0  0  0
   63.6130   33.7090   49.2270 O   0  0  0  0  0  0  0  0  0  0  0  0
   62.3270   33.6390   49.8090 C   0  0  0  0  0  0  0  0  0  0  0  0
   61.2470   33.9810   48.7780 C   0  0  0  0  0  0  0  0  0  0  0  0
   59.9380   31.6450   46.4750 O   0  0  0  0  0  0  0  0  0  0  0  0
   58.8970   31.3060   45.7220 C   0  0  0  0  0  0  0  0  0  0  0  0
   58.6140   29.9530   45.5010 C   0  0  0  0  0  0  0  0  0  0  0  0
   57.5120   29.5740   44.7210 C   0  0  0  0  0  0  0  0  0  0  0  0
   57.2600   28.1770   44.4900 N   0  0  0  0  0  0  0  0  0  0  0  0
   57.3310   27.1600   45.5040 C   0  0  0  0  0  0  0  0  0  0  0  0
   58.5570   26.8820   46.1230 C   0  0  0  0  0  0  0  0  0  0  0  0
   58.6310   25.9160   47.1290 C   0  0  0  0  0  0  0  0  0  0  0  0
   57.4710   25.2460   47.5190 C   0  0  0  0  0  0  0  0  0  0  0  0
   56.2830   25.5410   46.9280 N   0  0  0  0  0  0  0  0  0  0  0  0
   56.1860   26.4760   45.9450 C   0  0  0  0  0  0  0  0  0  0  0  0
   56.7140   30.5670   44.1270 C   0  0  0  0  0  0  0  0  0  0  0  0
   56.9900   31.9210   44.3420 C   0  0  0  0  0  0  0  0  0  0  0  0
   58.0800   32.3000   45.1430 C   0  0  0  0  0  0  0  0  0  0  0  0
   59.7576   35.0016   46.3983 H   0  0  0  0  0  0  0  0  0  0  0  0
   62.7953   32.0648   46.4139 H   0  0  0  0  0  0  0  0  0  0  0  0
   63.1283   33.8341   46.5236 H   0  0  0  0  0  0  0  0  0  0  0  0
   63.5095   31.7236   48.7045 H   0  0  0  0  0  0  0  0  0  0  0  0
   64.7769   32.7056   47.8708 H   0  0  0  0  0  0  0  0  0  0  0  0
   62.1563   32.6199   50.1863 H   0  0  0  0  0  0  0  0  0  0  0  0
   62.2718   34.3653   50.6333 H   0  0  0  0  0  0  0  0  0  0  0  0
   60.2564   33.7735   49.2088 H   0  0  0  0  0  0  0  0  0  0  0  0
   61.3301   35.0459   48.5150 H   0  0  0  0  0  0  0  0  0  0  0  0
   59.2612   29.1810   45.9427 H   0  0  0  0  0  0  0  0  0  0  0  0
   57.0110   27.8810   43.5190 H   0  0  0  0  0  0  0  0  0  0  0  0
   59.4627   27.4255   45.8161 H   0  0  0  0  0  0  0  0  0  0  0  0
   59.5937   25.6858   47.6088 H   0  0  0  0  0  0  0  0  0  0  0  0
   57.5179   24.4783   48.3055 H   0  0  0  0  0  0  0  0  0  0  0  0
   55.2075   26.6973   45.4937 H   0  0  0  0  0  0  0  0  0  0  0  0
   55.8665   30.2771   43.4886 H   0  0  0  0  0  0  0  0  0  0  0  0
   56.3523   32.6908   43.8830 H   0  0  0  0  0  0  0  0  0  0  0  0
  1  2  2  0
  2  3  1  0
  3  4  2  0
  4  5  1  0
  5  6  1  0
  6  7  1  0
  7  8  1  0
  8  9  1  0
  9 10  1  0
  4 11  1  0
 11 12  1  0
 12 13  2  0
 13 14  1  0
 14 15  1  0
 15 16  1  0
 16 17  2  0
 17 18  1  0
 18 19  2  0
 19 20  1  0
 20 21  2  0
 14 22  2  0
 22 23  1  0
 23 24  2  0
 24  2  1  0
 10  5  1  0
 24 12  1  0
 21 16  1  0
  3 25  1  0
  6 26  1  0
  6 27  1  0
  7 28  1  0
  7 29  1  0
  9 30  1  0
  9 31  1  0
 10 32  1  0
 10 33  1  0
 13 34  1  0
 15 35  1  0
 17 36  1  0
 18 37  1  0
 19 38  1  0
 21 39  1  0
 22 40  1  0
 23 41  1  0
M  END
>  <UniqueID>  (61) 
56

>  <SMILES>  (61) 
O=c1cc(N2CCOCC2)oc2cc(Nc3cccnc3)ccc12

>  <Energy>  (61) 
59.66662927387666

>  <Genealogy>  (61) 
O=c1cc(N2CCOCC2)oc2cc(Nc3cccnc3)ccc12 (3D coordinates assigned)
O=c1cc(N2CCOCC2)oc2cc(Nc3cccnc3)ccc12 (nonaromatic ring conformer: 59.66662927387666 kcal/mol)

>  <smiles>  (61) 
O=c1cc(N2CCOCC2)oc2cc(Nc3cccnc3)ccc12

>  <score_type>  (61) 
oracle

>  <origin>  (61) 
adg

>  <m_score__min__energy>  (61) 
-7.4299999999999997

>  <m_primary>  (61) 
energy

$$$$
62:0
     RDKit          3D

 76 82  0  0  0  0  0  0  0  0999 V2000
   56.3290   26.8456   47.1468 H   0  0  0  0  0  0  0  0  0  0  0  0
   57.4040   26.6600   47.0060 C   0  0  0  0  0  0  0  0  0  0  0  0
   58.3090   27.3010   47.7920 N   0  0  0  0  0  0  0  0  0  0  0  0
   59.6470   27.1060   47.6600 C   0  0  0  0  0  0  0  0  0  0  0  0
   60.5520   27.8810   48.4580 N   0  0  0  0  0  0  0  0  0  0  0  0
   60.3210   29.0980   48.8580 C   0  0  0  0  0  0  0  0  0  0  0  0
   59.8370   30.0090   47.9740 N   0  0  0  0  0  0  0  0  0  0  0  0
   59.6340   31.3010   48.3440 C   0  0  0  0  0  0  0  0  0  0  0  0
   59.9360   31.7200   49.6540 C   0  0  0  0  0  0  0  0  0  0  0  0
   60.4140   30.7620   50.5500 C   0  0  0  0  0  0  0  0  0  0  0  0
   60.6340   31.0425   51.5906 H   0  0  0  0  0  0  0  0  0  0  0  0
   60.6070   29.4830   50.1350 N   0  0  0  0  0  0  0  0  0  0  0  0
   59.6190   33.1350   50.1160 C   0  0  0  0  0  0  0  0  0  0  0  0
   58.5980   33.1480   50.5251 H   0  0  0  0  0  0  0  0  0  0  0  0
   60.3718   33.4074   50.8704 H   0  0  0  0  0  0  0  0  0  0  0  0
   59.7070   34.1850   48.9810 C   0  0  0  0  0  0  0  0  0  0  0  0
   59.1491   35.0854   49.2779 H   0  0  0  0  0  0  0  0  0  0  0  0
   60.7650   34.4314   48.8083 H   0  0  0  0  0  0  0  0  0  0  0  0
   59.1250   33.6420   47.7110 C   0  0  0  0  0  0  0  0  0  0  0  0
   58.5900   34.3530   46.7010 N   0  0  0  0  0  0  0  0  0  0  0  0
   58.2550   33.4860   45.7530 N   0  0  0  0  0  0  0  0  0  0  0  0
   57.5990   33.8790   44.5110 C   0  0  0  0  0  0  0  0  0  0  0  0
   56.6765   34.4316   44.7425 H   0  0  0  0  0  0  0  0  0  0  0  0
   58.2744   34.5213   43.9269 H   0  0  0  0  0  0  0  0  0  0  0  0
   57.3513   32.9804   43.9269 H   0  0  0  0  0  0  0  0  0  0  0  0
   58.5740   32.2270   46.1420 C   0  0  0  0  0  0  0  0  0  0  0  0
   58.2790   30.9970   45.3830 C   0  0  0  0  0  0  0  0  0  0  0  0
   57.0150   30.8030   44.8090 C   0  0  0  0  0  0  0  0  0  0  0  0
   56.2334   31.5672   44.9321 H   0  0  0  0  0  0  0  0  0  0  0  0
   56.7450   29.6400   44.0800 C   0  0  0  0  0  0  0  0  0  0  0  0
   55.7537   29.4931   43.6263 H   0  0  0  0  0  0  0  0  0  0  0  0
   57.7340   28.6650   43.9280 C   0  0  0  0  0  0  0  0  0  0  0  0
   57.5206   27.7498   43.3562 H   0  0  0  0  0  0  0  0  0  0  0  0
   58.9940   28.8520   44.5020 C   0  0  0  0  0  0  0  0  0  0  0  0
   59.7727   28.0848   44.3797 H   0  0  0  0  0  0  0  0  0  0  0  0
   59.2660   30.0120   45.2310 C   0  0  0  0  0  0  0  0  0  0  0  0
   60.2569   30.1535   45.6871 H   0  0  0  0  0  0  0  0  0  0  0  0
   59.1500   32.3100   47.3950 C   0  0  0  0  0  0  0  0  0  0  0  0
   60.1190   26.1800   46.7250 C   0  0  0  0  0  0  0  0  0  0  0  0
   61.1977   25.9839   46.6355 H   0  0  0  0  0  0  0  0  0  0  0  0
   59.2130   25.5070   45.9070 C   0  0  0  0  0  0  0  0  0  0  0  0
   59.5787   24.7731   45.1737 H   0  0  0  0  0  0  0  0  0  0  0  0
   57.8340   25.7610   46.0140 C   0  0  0  0  0  0  0  0  0  0  0  0
   56.9120   25.1890   45.0550 N   0  0  0  0  0  0  0  0  0  0  0  0
   55.5420   24.8530   45.4910 C   0  0  0  0  0  0  0  0  0  0  0  0
   55.5429   24.6863   46.5783 H   0  0  0  0  0  0  0  0  0  0  0  0
   54.8785   25.6894   45.2258 H   0  0  0  0  0  0  0  0  0  0  0  0
   55.0280   23.5860   44.7910 C   0  0  0  0  0  0  0  0  0  0  0  0
   54.2502   23.1140   45.4093 H   0  0  0  0  0  0  0  0  0  0  0  0
   54.6026   23.8515   43.8119 H   0  0  0  0  0  0  0  0  0  0  0  0
   56.1460   22.6480   44.6060 N   0  0  0  0  0  0  0  0  0  0  0  0
   56.0800   21.3350   45.2000 C   0  0  0  0  0  0  0  0  0  0  0  0
   54.9780   20.7150   45.2230 O   0  0  0  0  0  0  0  0  0  0  0  0
   57.2960   20.6870   45.8080 C   0  0  0  0  0  0  0  0  0  0  0  0
   57.1730   19.5942   45.7837 H   0  0  0  0  0  0  0  0  0  0  0  0
   58.1822   20.9844   45.2283 H   0  0  0  0  0  0  0  0  0  0  0  0
   57.4760   21.1240   47.2090 N   0  0  0  0  0  0  0  0  0  0  0  0
   57.2360   20.0100   48.1500 C   0  0  0  0  0  0  0  0  0  0  0  0
   56.2238   19.6111   47.9879 H   0  0  0  0  0  0  0  0  0  0  0  0
   57.9862   19.2257   47.9711 H   0  0  0  0  0  0  0  0  0  0  0  0
   57.3620   20.4970   49.6080 C   0  0  0  0  0  0  0  0  0  0  0  0
   56.4126   20.3065   50.1299 H   0  0  0  0  0  0  0  0  0  0  0  0
   58.1908   19.9491   50.0801 H   0  0  0  0  0  0  0  0  0  0  0  0
   57.6540   21.8820   49.6790 O   0  0  0  0  0  0  0  0  0  0  0  0
   56.6420   22.6150   49.0150 C   0  0  0  0  0  0  0  0  0  0  0  0
   55.6741   22.4003   49.4916 H   0  0  0  0  0  0  0  0  0  0  0  0
   56.8863   23.6850   49.0888 H   0  0  0  0  0  0  0  0  0  0  0  0
   56.5590   22.2390   47.5180 C   0  0  0  0  0  0  0  0  0  0  0  0
   55.5289   21.9366   47.2781 H   0  0  0  0  0  0  0  0  0  0  0  0
   56.8496   23.1132   46.9169 H   0  0  0  0  0  0  0  0  0  0  0  0
   57.3370   23.0980   43.8610 C   0  0  0  0  0  0  0  0  0  0  0  0
   58.2415   22.7435   44.3769 H   0  0  0  0  0  0  0  0  0  0  0  0
   57.2944   22.6864   42.8418 H   0  0  0  0  0  0  0  0  0  0  0  0
   57.3730   24.6310   43.7750 C   0  0  0  0  0  0  0  0  0  0  0  0
   58.4015   24.9659   43.5748 H   0  0  0  0  0  0  0  0  0  0  0  0
   56.7186   24.9748   42.9604 H   0  0  0  0  0  0  0  0  0  0  0  0
  1  2  1  0
  2  3  2  0
  3  4  1  0
  4  5  1  0
  5  6  2  0
  6  7  1  0
  7  8  2  0
  8  9  1  0
  9 10  2  0
 10 11  1  0
 10 12  1  0
  9 13  1  0
 13 14  1  0
 13 15  1  0
 13 16  1  0
 16 17  1  0
 16 18  1  0
 16 19  1  0
 19 20  2  0
 20 21  1  0
 21 22  1  0
 22 23  1  0
 22 24  1  0
 22 25  1  0
 21 26  1  0
 26 27  1  0
 27 28  2  0
 28 29  1  0
 28 30  1  0
 30 31  1  0
 30 32  2  0
 32 33  1  0
 32 34  1  0
 34 35  1  0
 34 36  2  0
 36 37  1  0
 26 38  2  0
  4 39  2  0
 39 40  1  0
 39 41  1  0
 41 42  1  0
 41 43  2  0
 43 44  1  0
 44 45  1  0
 45 46  1  0
 45 47  1  0
 45 48  1  0
 48 49  1  0
 48 50  1  0
 48 51  1  0
 51 52  1  0
 52 53  2  0
 52 54  1  0
 54 55  1  0
 54 56  1  0
 54 57  1  0
 57 58  1  0
 58 59  1  0
 58 60  1  0
 58 61  1  0
 61 62  1  0
 61 63  1  0
 61 64  1  0
 64 65  1  0
 65 66  1  0
 65 67  1  0
 65 68  1  0
 68 69  1  0
 68 70  1  0
 51 71  1  0
 71 72  1  0
 71 73  1  0
 71 74  1  0
 74 75  1  0
 74 76  1  0
 43  2  1  0
 74 44  1  0
 12  6  1  0
 38 19  1  0
 68 57  1  0
 38  8  1  0
 36 27  1  0
M  CHG  1  12  -1
M  END
>  <UniqueID>  (62) 
57

>  <SMILES>  (62) 
Cn1nc2c(c1-c1ccccc1)-c1n/c(=N/c3ccc(N4CCN(C(=O)CN5CCOCC5)CC4)cn3)[n-]cc1CC2

>  <Energy>  (62) 
153.8557731033421

>  <Genealogy>  (62) 
Cn1nc2c(c1-c1ccccc1)-c1nc(=Nc3ccc(N4CCN(C(=O)CN5CCOCC5)CC4)cn3)[n-]cc1CC2 (protonated)
Cn1nc2c(c1-c1ccccc1)-c1n/c(=N/c3ccc(N4CCN(C(=O)CN5CCOCC5)CC4)cn3)[n-]cc1CC2 (cis-trans isomerization)
Cn1nc2c(c1-c1ccccc1)-c1n/c(=N/c3ccc(N4CCN(C(=O)CN5CCOCC5)CC4)cn3)[n-]cc1CC2 (3D coordinates assigned)
Cn1nc2c(c1-c1ccccc1)-c1n/c(=N/c3ccc(N4CCN(C(=O)CN5CCOCC5)CC4)cn3)[n-]cc1CC2 (nonaromatic ring conformer: 153.8557731033421 kcal/mol)

>  <smiles>  (62) 
Cn1nc2c(c1-c1ccccc1)-c1nc(=Nc3ccc(N4CCN(C(=O)CN5CCOCC5)CC4)cn3)[nH]cc1CC2

>  <score_type>  (62) 
oracle

>  <origin>  (62) 
adg

>  <m_score__min__energy>  (62) 
-11.039999999999999

>  <m_primary>  (62) 
energy

$$$$
63:0
     RDKit          3D

 58 62  0  0  0  0  0  0  0  0999 V2000
   60.7230   30.8650   47.5060 O   0  0  0  0  0  0  0  0  0  0  0  0
   59.6520   30.8700   46.8470 C   0  0  0  0  0  0  0  0  0  0  0  0
   58.8740   32.0760   46.8080 N   0  0  0  0  0  0  0  0  0  0  0  0
   58.0510   32.5370   45.6950 C   0  0  0  0  0  0  0  0  0  0  0  0
   57.8710   34.0630   45.7370 C   0  0  0  0  0  0  0  0  0  0  0  0
   58.8790   34.7540   46.6710 C   0  0  0  0  0  0  0  0  0  0  0  0
   60.3630   34.5870   46.2690 C   0  0  0  0  0  0  0  0  0  0  0  0
   61.1520   33.7360   47.1970 N   0  0  0  0  0  0  0  0  0  0  0  0
   62.5560   33.6780   46.7360 C   0  0  0  0  0  0  0  0  0  0  0  0
   63.3310   32.6290   47.5380 C   0  0  0  0  0  0  0  0  0  0  0  0
   63.0290   32.7410   48.9660 N   0  0  0  0  0  0  0  0  0  0  0  0
   63.6930   31.8680   49.8840 C   0  0  0  0  0  0  0  0  0  0  0  0
   62.9980   30.7860   50.4550 C   0  0  0  0  0  0  0  0  0  0  0  0
   63.6360   29.9290   51.3700 C   0  0  0  0  0  0  0  0  0  0  0  0
   64.9750   30.1430   51.7240 C   0  0  0  0  0  0  0  0  0  0  0  0
   65.6440   31.2170   51.1480 C   0  0  0  0  0  0  0  0  0  0  0  0
   67.2310   31.7020   51.3930 S   0  0  0  0  0  0  0  0  0  0  0  0
   67.1570   33.0170   50.3360 C   0  0  0  0  0  0  0  0  0  0  0  0
   65.8820   33.0870   49.7820 C   0  0  0  0  0  0  0  0  0  0  0  0
   65.0330   32.0710   50.2440 C   0  0  0  0  0  0  0  0  0  0  0  0
   62.2810   33.8920   49.4820 C   0  0  0  0  0  0  0  0  0  0  0  0
   61.0560   34.2220   48.6030 C   0  0  0  0  0  0  0  0  0  0  0  0
   59.2300   29.6320   46.1720 C   0  0  0  0  0  0  0  0  0  0  0  0
   58.8850   28.4300   46.7910 C   0  0  0  0  0  0  0  0  0  0  0  0
   58.4990   27.4530   45.8720 C   0  0  0  0  0  0  0  0  0  0  0  0
   58.0970   26.1520   46.1780 C   0  0  0  0  0  0  0  0  0  0  0  0
   57.7260   25.2970   45.1280 C   0  0  0  0  0  0  0  0  0  0  0  0
   57.7580   25.7450   43.7940 C   0  0  0  0  0  0  0  0  0  0  0  0
   58.1610   27.0550   43.4960 C   0  0  0  0  0  0  0  0  0  0  0  0
   58.5260   27.8840   44.5530 C   0  0  0  0  0  0  0  0  0  0  0  0
   59.0190   29.4850   44.4960 S   0  0  0  0  0  0  0  0  0  0  0  0
   58.5373   32.2582   44.7486 H   0  0  0  0  0  0  0  0  0  0  0  0
   57.0603   32.0653   45.7732 H   0  0  0  0  0  0  0  0  0  0  0  0
   58.0033   34.4611   44.7201 H   0  0  0  0  0  0  0  0  0  0  0  0
   56.8628   34.2681   46.1261 H   0  0  0  0  0  0  0  0  0  0  0  0
   58.6485   35.8295   46.6861 H   0  0  0  0  0  0  0  0  0  0  0  0
   58.7701   34.2702   47.6529 H   0  0  0  0  0  0  0  0  0  0  0  0
   60.4005   34.1328   45.2679 H   0  0  0  0  0  0  0  0  0  0  0  0
   60.8138   35.5899   46.2983 H   0  0  0  0  0  0  0  0  0  0  0  0
   60.7700   32.7620   47.1510 H   0  0  0  0  0  0  0  0  0  0  0  0
   62.5778   33.4095   45.6695 H   0  0  0  0  0  0  0  0  0  0  0  0
   63.0242   34.6623   46.8842 H   0  0  0  0  0  0  0  0  0  0  0  0
   63.0488   31.6254   47.1871 H   0  0  0  0  0  0  0  0  0  0  0  0
   64.4081   32.7965   47.3906 H   0  0  0  0  0  0  0  0  0  0  0  0
   61.9468   30.6088   50.1836 H   0  0  0  0  0  0  0  0  0  0  0  0
   63.0814   29.0870   51.8097 H   0  0  0  0  0  0  0  0  0  0  0  0
   65.4832   29.4788   52.4386 H   0  0  0  0  0  0  0  0  0  0  0  0
   67.9848   33.7083   50.1197 H   0  0  0  0  0  0  0  0  0  0  0  0
   65.5735   33.8567   49.0593 H   0  0  0  0  0  0  0  0  0  0  0  0
   61.9364   33.6643   50.5015 H   0  0  0  0  0  0  0  0  0  0  0  0
   62.9505   34.7647   49.4759 H   0  0  0  0  0  0  0  0  0  0  0  0
   60.1690   33.7636   49.0646 H   0  0  0  0  0  0  0  0  0  0  0  0
   60.9967   35.3191   48.5502 H   0  0  0  0  0  0  0  0  0  0  0  0
   58.9139   28.2706   47.8790 H   0  0  0  0  0  0  0  0  0  0  0  0
   58.0713   25.8034   47.2210 H   0  0  0  0  0  0  0  0  0  0  0  0
   57.4075   24.2678   45.3498 H   0  0  0  0  0  0  0  0  0  0  0  0
   57.4654   25.0642   42.9810 H   0  0  0  0  0  0  0  0  0  0  0  0
   58.1878   27.4167   42.4575 H   0  0  0  0  0  0  0  0  0  0  0  0
  1  2  2  0
  2  3  1  0
  3  4  1  0
  4  5  1  0
  5  6  1  0
  6  7  1  0
  7  8  1  0
  8  9  1  0
  9 10  1  0
 10 11  1  0
 11 12  1  0
 12 13  2  0
 13 14  1  0
 14 15  2  0
 15 16  1  0
 16 17  1  0
 17 18  1  0
 18 19  2  0
 19 20  1  0
 11 21  1  0
 21 22  1  0
  2 23  1  0
 23 24  2  0
 24 25  1  0
 25 26  2  0
 26 27  1  0
 27 28  2  0
 28 29  1  0
 29 30  2  0
 30 31  1  0
 22  8  1  0
 31 23  1  0
 20 12  1  0
 30 25  1  0
 20 16  2  0
  4 32  1  0
  4 33  1  0
  5 34  1  0
  5 35  1  0
  6 36  1  0
  6 37  1  0
  7 38  1  0
  7 39  1  0
  8 40  1  0
  9 41  1  0
  9 42  1  0
 10 43  1  0
 10 44  1  0
 13 45  1  0
 14 46  1  0
 15 47  1  0
 18 48  1  0
 19 49  1  0
 21 50  1  0
 21 51  1  0
 22 52  1  0
 22 53  1  0
 24 54  1  0
 26 55  1  0
 27 56  1  0
 28 57  1  0
 29 58  1  0
M  CHG  2   3  -1   8   1
M  END
>  <UniqueID>  (63) 
58

>  <SMILES>  (63) 
O=C([N-]CCCC[NH+]1CCN(c2cccc3sccc23)CC1)c1cc2ccccc2s1

>  <Energy>  (63) 
136.62349583057812

>  <Genealogy>  (63) 
O=C([N-]CCCC[NH+]1CCN(c2cccc3sccc23)CC1)c1cc2ccccc2s1 (protonated)
O=C([N-]CCCC[NH+]1CCN(c2cccc3sccc23)CC1)c1cc2ccccc2s1 (3D coordinates assigned)
O=C([N-]CCCC[NH+]1CCN(c2cccc3sccc23)CC1)c1cc2ccccc2s1 (nonaromatic ring conformer: 136.62349583057812 kcal/mol)

>  <smiles>  (63) 
O=C(NCCCCN1CCN(c2cccc3sccc23)CC1)c1cc2ccccc2s1

>  <score_type>  (63) 
oracle

>  <origin>  (63) 
adg

>  <m_score__min__energy>  (63) 
-9

>  <m_primary>  (63) 
energy

$$$$
64:0
     RDKit          3D

 53 56  0  0  0  0  0  0  0  0999 V2000
   67.6430   28.7020   53.4170 O   0  0  0  0  0  0  0  0  0  0  0  0
   67.6030   28.9740   52.1870 C   0  0  0  0  0  0  0  0  0  0  0  0
   68.5170   28.2120   51.2570 C   0  0  1  0  0  0  0  0  0  0  0  0
   68.7670   26.7950   51.7370 C   0  0  0  0  0  0  0  0  0  0  0  0
   69.0020   26.0530   50.4580 C   0  0  0  0  0  0  0  0  0  0  0  0
   68.2760   26.8930   49.4200 C   0  0  0  0  0  0  0  0  0  0  0  0
   67.9920   28.1700   49.9510 O   0  0  0  0  0  0  0  0  0  0  0  0
   66.6560   29.9530   51.7080 N   0  0  0  0  0  0  0  0  0  0  0  0
   65.4200   30.1870   52.4650 C   0  0  0  0  0  0  0  0  0  0  0  0
   64.2570   30.4460   51.5050 C   0  0  0  0  0  0  0  0  0  0  0  0
   64.5970   31.4730   50.5070 N   0  0  0  0  0  0  0  0  0  0  0  0
   63.5450   32.1020   49.7430 C   0  0  0  0  0  0  0  0  0  0  0  0
   62.3690   32.5370   50.3680 C   0  0  0  0  0  0  0  0  0  0  0  0
   61.3690   33.1370   49.6090 C   0  0  0  0  0  0  0  0  0  0  0  0
   61.5590   33.3080   48.2340 C   0  0  0  0  0  0  0  0  0  0  0  0
   60.5440   33.9030   47.4020 N   0  0  0  0  0  0  0  0  0  0  0  0
   59.2630   34.3610   47.9590 C   0  0  0  0  0  0  0  0  0  0  0  0
   58.0910   33.8230   47.1260 C   0  0  0  0  0  0  0  0  0  0  0  0
   58.3820   33.7870   45.6080 C   0  0  0  0  0  0  0  0  0  0  0  0
   59.6020   34.6300   45.2180 C   0  0  0  0  0  0  0  0  0  0  0  0
   60.8460   34.1570   45.9850 C   0  0  0  0  0  0  0  0  0  0  0  0
   62.7140   32.8570   47.6730 N   0  0  0  0  0  0  0  0  0  0  0  0
   63.6750   32.2780   48.3960 N   0  0  0  0  0  0  0  0  0  0  0  0
   65.9780   31.9630   50.3990 C   0  0  0  0  0  0  0  0  0  0  0  0
   66.9780   30.8100   50.5550 C   0  0  0  0  0  0  0  0  0  0  0  0
   69.4747   28.7531   51.2513 H   0  0  0  0  0  0  0  0  0  0  0  0
   69.6498   26.7475   52.3915 H   0  0  0  0  0  0  0  0  0  0  0  0
   67.9407   26.3839   52.3356 H   0  0  0  0  0  0  0  0  0  0  0  0
   70.0766   25.9910   50.2315 H   0  0  0  0  0  0  0  0  0  0  0  0
   68.6433   25.0138   50.4942 H   0  0  0  0  0  0  0  0  0  0  0  0
   68.9114   27.0013   48.5287 H   0  0  0  0  0  0  0  0  0  0  0  0
   67.3337   26.3962   49.1456 H   0  0  0  0  0  0  0  0  0  0  0  0
   65.1956   29.3017   53.0780 H   0  0  0  0  0  0  0  0  0  0  0  0
   65.5551   31.0659   53.1125 H   0  0  0  0  0  0  0  0  0  0  0  0
   64.0092   29.5097   50.9836 H   0  0  0  0  0  0  0  0  0  0  0  0
   63.3999   30.8072   52.0923 H   0  0  0  0  0  0  0  0  0  0  0  0
   62.2370   32.4050   51.4521 H   0  0  0  0  0  0  0  0  0  0  0  0
   60.4370   33.4739   50.0863 H   0  0  0  0  0  0  0  0  0  0  0  0
   59.1680   33.9991   48.9934 H   0  0  0  0  0  0  0  0  0  0  0  0
   59.2389   35.4605   47.9381 H   0  0  0  0  0  0  0  0  0  0  0  0
   57.8649   32.8003   47.4620 H   0  0  0  0  0  0  0  0  0  0  0  0
   57.2435   34.5075   47.2780 H   0  0  0  0  0  0  0  0  0  0  0  0
   58.5652   32.7442   45.3097 H   0  0  0  0  0  0  0  0  0  0  0  0
   57.5075   34.2106   45.0924 H   0  0  0  0  0  0  0  0  0  0  0  0
   59.7821   34.5291   44.1375 H   0  0  0  0  0  0  0  0  0  0  0  0
   59.4049   35.6821   45.4713 H   0  0  0  0  0  0  0  0  0  0  0  0
   61.2162   33.2280   45.5268 H   0  0  0  0  0  0  0  0  0  0  0  0
   61.6056   34.9509   45.9319 H   0  0  0  0  0  0  0  0  0  0  0  0
   64.5460   31.9790   47.9060 H   0  0  0  0  0  0  0  0  0  0  0  0
   66.1185   32.4317   49.4138 H   0  0  0  0  0  0  0  0  0  0  0  0
   66.1562   32.6956   51.1999 H   0  0  0  0  0  0  0  0  0  0  0  0
   66.9595   30.1978   49.6413 H   0  0  0  0  0  0  0  0  0  0  0  0
   67.9745   31.2447   50.7225 H   0  0  0  0  0  0  0  0  0  0  0  0
  1  2  2  0
  2  3  1  0
  3  4  1  0
  4  5  1  0
  5  6  1  0
  6  7  1  0
  2  8  1  0
  8  9  1  0
  9 10  1  0
 10 11  1  0
 11 12  1  0
 12 13  2  0
 13 14  1  0
 14 15  2  0
 15 16  1  0
 16 17  1  0
 17 18  1  0
 18 19  1  0
 19 20  1  0
 20 21  1  0
 15 22  1  0
 22 23  2  0
 11 24  1  0
 24 25  1  0
  7  3  1  0
 25  8  1  0
 23 12  1  0
 21 16  1  0
  3 26  1  6
  4 27  1  0
  4 28  1  0
  5 29  1  0
  5 30  1  0
  6 31  1  0
  6 32  1  0
  9 33  1  0
  9 34  1  0
 10 35  1  0
 10 36  1  0
 13 37  1  0
 14 38  1  0
 17 39  1  0
 17 40  1  0
 18 41  1  0
 18 42  1  0
 19 43  1  0
 19 44  1  0
 20 45  1  0
 20 46  1  0
 21 47  1  0
 21 48  1  0
 23 49  1  0
 24 50  1  0
 24 51  1  0
 25 52  1  0
 25 53  1  0
M  CHG  1  23   1
M  END
>  <UniqueID>  (64) 
59

>  <SMILES>  (64) 
O=C([C@H]1CCCO1)N1CCN(c2ccc(N3CCCCC3)n[nH+]2)CC1

>  <Energy>  (64) 
62.16802906825036

>  <Genealogy>  (64) 
O=C(C1CCCO1)N1CCN(c2ccc(N3CCCCC3)n[nH+]2)CC1 (protonated)
O=C([C@H]1CCCO1)N1CCN(c2ccc(N3CCCCC3)n[nH+]2)CC1 (chirality)
O=C([C@H]1CCCO1)N1CCN(c2ccc(N3CCCCC3)n[nH+]2)CC1 (3D coordinates assigned)
O=C([C@H]1CCCO1)N1CCN(c2ccc(N3CCCCC3)n[nH+]2)CC1 (nonaromatic ring conformer: 62.16802906825036 kcal/mol)

>  <smiles>  (64) 
O=C(C1CCCO1)N1CCN(c2ccc(N3CCCCC3)nn2)CC1

>  <score_type>  (64) 
oracle

>  <origin>  (64) 
adg

>  <m_score__min__energy>  (64) 
-6.8099999999999996

>  <m_primary>  (64) 
energy

$$$$
65:0
     RDKit          3D

 31 32  0  0  0  0  0  0  0  0999 V2000
   59.8080   28.2870   45.1670 C   0  0  0  0  0  0  0  0  0  0  0  0
   58.8300   27.1890   44.7540 C   0  0  0  0  0  0  0  0  0  0  0  0
   57.7910   27.6960   43.7470 C   0  0  0  0  0  0  0  0  0  0  0  0
   57.6470   29.1490   43.8210 N   0  0  0  0  0  0  0  0  0  0  0  0
   56.5110   29.7800   44.4350 C   0  0  0  0  0  0  0  0  0  0  0  0
   55.5590   29.0790   44.8700 O   0  0  0  0  0  0  0  0  0  0  0  0
   56.4030   31.2070   44.4950 N   0  0  0  0  0  0  0  0  0  0  0  0
   57.3400   32.0950   45.1200 C   0  0  0  0  0  0  0  0  0  0  0  0
   57.4040   33.4260   44.6890 C   0  0  0  0  0  0  0  0  0  0  0  0
   58.2890   34.3260   45.2900 C   0  0  0  0  0  0  0  0  0  0  0  0
   59.1070   33.9050   46.3430 C   0  0  0  0  0  0  0  0  0  0  0  0
   59.9700   34.7790   46.9300 N   0  0  0  0  0  0  0  0  0  0  0  0
   60.7740   34.4050   47.9620 C   0  0  0  0  0  0  0  0  0  0  0  0
   60.7260   33.0960   48.4500 C   0  0  0  0  0  0  0  0  0  0  0  0
   59.8510   32.1760   47.8690 C   0  0  0  0  0  0  0  0  0  0  0  0
   59.0310   32.5720   46.8040 C   0  0  0  0  0  0  0  0  0  0  0  0
   58.1400   31.6760   46.1980 C   0  0  0  0  0  0  0  0  0  0  0  0
   59.8563   28.3412   46.2646 H   0  0  0  0  0  0  0  0  0  0  0  0
   60.8067   28.0579   44.7669 H   0  0  0  0  0  0  0  0  0  0  0  0
   59.4654   29.2527   44.7669 H   0  0  0  0  0  0  0  0  0  0  0  0
   59.3950   26.3635   44.2965 H   0  0  0  0  0  0  0  0  0  0  0  0
   58.2953   26.8531   45.6547 H   0  0  0  0  0  0  0  0  0  0  0  0
   58.1104   27.4185   42.7316 H   0  0  0  0  0  0  0  0  0  0  0  0
   56.8205   27.2374   43.9877 H   0  0  0  0  0  0  0  0  0  0  0  0
   58.3350   29.7370   43.2980 H   0  0  0  0  0  0  0  0  0  0  0  0
   56.7524   33.7661   43.8706 H   0  0  0  0  0  0  0  0  0  0  0  0
   58.3419   35.3656   44.9344 H   0  0  0  0  0  0  0  0  0  0  0  0
   61.4631   35.1341   48.4132 H   0  0  0  0  0  0  0  0  0  0  0  0
   61.3732   32.7927   49.2861 H   0  0  0  0  0  0  0  0  0  0  0  0
   59.8055   31.1437   48.2461 H   0  0  0  0  0  0  0  0  0  0  0  0
   58.0662   30.6422   46.5665 H   0  0  0  0  0  0  0  0  0  0  0  0
  1  2  1  0
  2  3  1  0
  3  4  1  0
  4  5  1  0
  5  6  2  0
  5  7  1  0
  7  8  1  0
  8  9  2  0
  9 10  1  0
 10 11  2  0
 11 12  1  0
 12 13  2  0
 13 14  1  0
 14 15  2  0
 15 16  1  0
 16 17  2  0
 17  8  1  0
 16 11  1  0
  1 18  1  0
  1 19  1  0
  1 20  1  0
  2 21  1  0
  2 22  1  0
  3 23  1  0
  3 24  1  0
  4 25  1  0
  9 26  1  0
 10 27  1  0
 13 28  1  0
 14 29  1  0
 15 30  1  0
 17 31  1  0
M  CHG  1   7  -1
M  END
>  <UniqueID>  (65) 
60

>  <SMILES>  (65) 
CCCNC(=O)[N-]c1ccc2ncccc2c1

>  <Energy>  (65) 
31.19414368405789

>  <Genealogy>  (65) 
CCCNC(=O)[N-]c1ccc2ncccc2c1 (protonated)
CCCNC(=O)[N-]c1ccc2ncccc2c1 (3D coordinates assigned)
CCCNC(=O)[N-]c1ccc2ncccc2c1 (optimized conformer: 31.19414368405789 kcal/mol)

>  <smiles>  (65) 
CCCNC(=O)Nc1ccc2ncccc2c1

>  <score_type>  (65) 
oracle

>  <origin>  (65) 
adg

>  <m_score__min__energy>  (65) 
-8.3200000000000003

>  <m_primary>  (65) 
energy

$$$$
66:0
     RDKit          3D

 52 55  0  0  0  0  0  0  0  0999 V2000
   57.8380   34.6030   44.8710 C   0  0  0  0  0  0  0  0  0  0  0  0
   57.0230   33.8140   45.6870 C   0  0  0  0  0  0  0  0  0  0  0  0
   57.5950   32.9770   46.6490 C   0  0  0  0  0  0  0  0  0  0  0  0
   58.9930   32.9260   46.8080 C   0  0  0  0  0  0  0  0  0  0  0  0
   59.5850   32.0530   47.7900 N   0  0  0  0  0  0  0  0  0  0  0  0
   60.8530   31.3710   47.5000 C   0  0  0  0  0  0  0  0  0  0  0  0
   61.1040   30.2380   48.4980 C   0  0  0  0  0  0  0  0  0  0  0  0
   59.8390   29.5150   48.7330 N   0  0  0  0  0  0  0  0  0  0  0  0
   60.0140   28.1890   49.3650 C   0  0  0  0  0  0  0  0  0  0  0  0
   60.6970   27.1430   48.4520 C   0  0  0  0  0  0  0  0  0  0  0  0
   59.6940   26.4170   47.5430 C   0  0  0  0  0  0  0  0  0  0  0  0
   59.7370   26.9230   46.0950 C   0  0  0  0  0  0  0  0  0  0  0  0
   58.3990   27.4660   45.6900 C   0  0  0  0  0  0  0  0  0  0  0  0
   57.1600   26.8820   45.9320 C   0  0  0  0  0  0  0  0  0  0  0  0
   56.1650   27.6880   45.4950 N   0  0  0  0  0  0  0  0  0  0  0  0
   56.7660   28.7820   44.9930 C   0  0  0  0  0  0  0  0  0  0  0  0
   56.1520   29.9060   44.4440 C   0  0  0  0  0  0  0  0  0  0  0  0
   56.9790   30.9540   43.9960 C   0  0  0  0  0  0  0  0  0  0  0  0
   58.3830   30.8550   44.1100 C   0  0  0  0  0  0  0  0  0  0  0  0
   58.9750   29.7100   44.6710 C   0  0  0  0  0  0  0  0  0  0  0  0
   58.1300   28.6850   45.1000 C   0  0  0  0  0  0  0  0  0  0  0  0
   58.7960   30.3400   49.3900 C   0  0  0  0  0  0  0  0  0  0  0  0
   58.9470   31.8440   49.0970 C   0  0  0  0  0  0  0  0  0  0  0  0
   59.8040   33.7170   45.9740 C   0  0  0  0  0  0  0  0  0  0  0  0
   59.2260   34.5530   45.0140 C   0  0  0  0  0  0  0  0  0  0  0  0
   57.3862   35.2633   44.1162 H   0  0  0  0  0  0  0  0  0  0  0  0
   55.9297   33.8517   45.5720 H   0  0  0  0  0  0  0  0  0  0  0  0
   56.9492   32.3544   47.2857 H   0  0  0  0  0  0  0  0  0  0  0  0
   60.8130   30.9531   46.4832 H   0  0  0  0  0  0  0  0  0  0  0  0
   61.6718   32.1008   47.5833 H   0  0  0  0  0  0  0  0  0  0  0  0
   61.8540   29.5453   48.0885 H   0  0  0  0  0  0  0  0  0  0  0  0
   61.4759   30.6537   49.4461 H   0  0  0  0  0  0  0  0  0  0  0  0
   60.6294   28.3145   50.2681 H   0  0  0  0  0  0  0  0  0  0  0  0
   59.0070   27.8073   49.5890 H   0  0  0  0  0  0  0  0  0  0  0  0
   61.4391   27.6549   47.8217 H   0  0  0  0  0  0  0  0  0  0  0  0
   61.1698   26.3898   49.0994 H   0  0  0  0  0  0  0  0  0  0  0  0
   59.9280   25.3422   47.5478 H   0  0  0  0  0  0  0  0  0  0  0  0
   58.6854   26.6141   47.9352 H   0  0  0  0  0  0  0  0  0  0  0  0
   60.4914   27.7192   46.0117 H   0  0  0  0  0  0  0  0  0  0  0  0
   59.9969   26.0846   45.4320 H   0  0  0  0  0  0  0  0  0  0  0  0
   57.0103   25.9032   46.4110 H   0  0  0  0  0  0  0  0  0  0  0  0
   55.1390   27.5030   45.5520 H   0  0  0  0  0  0  0  0  0  0  0  0
   55.0570   29.9725   44.3632 H   0  0  0  0  0  0  0  0  0  0  0  0
   56.5286   31.8552   43.5546 H   0  0  0  0  0  0  0  0  0  0  0  0
   59.0186   31.6805   43.7570 H   0  0  0  0  0  0  0  0  0  0  0  0
   60.0673   29.6246   44.7686 H   0  0  0  0  0  0  0  0  0  0  0  0
   57.8100   30.0100   49.0309 H   0  0  0  0  0  0  0  0  0  0  0  0
   58.9036   30.2035   50.4762 H   0  0  0  0  0  0  0  0  0  0  0  0
   57.9523   32.3136   49.0933 H   0  0  0  0  0  0  0  0  0  0  0  0
   59.5775   32.2964   49.8766 H   0  0  0  0  0  0  0  0  0  0  0  0
   60.8984   33.6775   46.0777 H   0  0  0  0  0  0  0  0  0  0  0  0
   59.8665   35.1731   44.3696 H   0  0  0  0  0  0  0  0  0  0  0  0
  1  2  2  0
  2  3  1  0
  3  4  2  0
  4  5  1  0
  5  6  1  0
  6  7  1  0
  7  8  1  0
  8  9  1  0
  9 10  1  0
 10 11  1  0
 11 12  1  0
 12 13  1  0
 13 14  2  0
 14 15  1  0
 15 16  1  0
 16 17  2  0
 17 18  1  0
 18 19  2  0
 19 20  1  0
 20 21  2  0
  8 22  1  0
 22 23  1  0
  4 24  1  0
 24 25  2  0
 25  1  1  0
 23  5  1  0
 21 13  1  0
 21 16  1  0
  1 26  1  0
  2 27  1  0
  3 28  1  0
  6 29  1  0
  6 30  1  0
  7 31  1  0
  7 32  1  0
  9 33  1  0
  9 34  1  0
 10 35  1  0
 10 36  1  0
 11 37  1  0
 11 38  1  0
 12 39  1  0
 12 40  1  0
 14 41  1  0
 15 42  1  0
 17 43  1  0
 18 44  1  0
 19 45  1  0
 20 46  1  0
 22 47  1  0
 22 48  1  0
 23 49  1  0
 23 50  1  0
 24 51  1  0
 25 52  1  0
M  END
>  <UniqueID>  (66) 
61

>  <SMILES>  (66) 
c1ccc(N2CCN(CCCCc3c[nH]c4ccccc34)CC2)cc1

>  <Energy>  (66) 
95.25428030193594

>  <Genealogy>  (66) 
c1ccc(N2CCN(CCCCc3c[nH]c4ccccc34)CC2)cc1 (3D coordinates assigned)
c1ccc(N2CCN(CCCCc3c[nH]c4ccccc34)CC2)cc1 (nonaromatic ring conformer: 95.25428030193594 kcal/mol)

>  <smiles>  (66) 
c1ccc(N2CCN(CCCCc3c[nH]c4ccccc34)CC2)cc1

>  <score_type>  (66) 
oracle

>  <origin>  (66) 
adg

>  <m_score__min__energy>  (66) 
-8.8399999999999999

>  <m_primary>  (66) 
energy

$$$$
67:0
     RDKit          3D

 52 55  0  0  0  0  0  0  0  0999 V2000
   58.2160   26.4000   42.6350 O   0  0  0  0  0  0  0  0  0  0  0  0
   57.7650   26.7780   43.7520 C   0  0  0  0  0  0  0  0  0  0  0  0
   57.1460   25.8250   44.6340 N   0  0  0  0  0  0  0  0  0  0  0  0
   57.0170   24.4270   44.3200 C   0  0  0  0  0  0  0  0  0  0  0  0
   56.8080   24.0230   42.9890 C   0  0  0  0  0  0  0  0  0  0  0  0
   56.6080   22.6770   42.6790 C   0  0  0  0  0  0  0  0  0  0  0  0
   56.6050   21.7200   43.6920 C   0  0  0  0  0  0  0  0  0  0  0  0
   56.7990   22.1050   45.0200 C   0  0  0  0  0  0  0  0  0  0  0  0
   56.9980   23.4570   45.3510 C   0  0  0  0  0  0  0  0  0  0  0  0
   57.2310   23.8300   46.7670 C   0  0  0  0  0  0  0  0  0  0  0  0
   57.3660   22.9260   47.6330 O   0  0  0  0  0  0  0  0  0  0  0  0
   57.2300   25.1990   47.1980 N   0  0  0  0  0  0  0  0  0  0  0  0
   58.3650   26.0740   47.2410 C   0  0  0  0  0  0  0  0  0  0  0  0
   59.5570   25.6700   46.6240 C   0  0  0  0  0  0  0  0  0  0  0  0
   60.6760   26.5070   46.6350 C   0  0  0  0  0  0  0  0  0  0  0  0
   60.6080   27.7610   47.2480 C   0  0  0  0  0  0  0  0  0  0  0  0
   59.4160   28.1830   47.8440 C   0  0  0  0  0  0  0  0  0  0  0  0
   58.2940   27.3490   47.8340 C   0  0  0  0  0  0  0  0  0  0  0  0
   57.8910   28.2050   44.1320 C   0  0  0  0  0  0  0  0  0  0  0  0
   59.1380   28.7150   44.5310 C   0  0  0  0  0  0  0  0  0  0  0  0
   59.2730   30.0570   44.8970 C   0  0  0  0  0  0  0  0  0  0  0  0
   58.1610   30.9160   44.8770 C   0  0  0  0  0  0  0  0  0  0  0  0
   58.2930   32.2990   45.2580 N   0  0  0  0  0  0  0  0  0  0  0  0
   57.9670   32.7150   46.6270 C   0  0  0  0  0  0  0  0  0  0  0  0
   58.7860   33.9550   46.9970 C   0  0  0  0  0  0  0  0  0  0  0  0
   58.6290   34.9700   46.0220 O   0  0  0  0  0  0  0  0  0  0  0  0
   59.1730   34.5370   44.7890 C   0  0  0  0  0  0  0  0  0  0  0  0
   58.3870   33.3450   44.2350 C   0  0  0  0  0  0  0  0  0  0  0  0
   56.9120   30.4030   44.4980 C   0  0  0  0  0  0  0  0  0  0  0  0
   56.7750   29.0620   44.1310 C   0  0  0  0  0  0  0  0  0  0  0  0
   56.7840   26.1420   45.5600 H   0  0  0  0  0  0  0  0  0  0  0  0
   56.8021   24.7743   42.1856 H   0  0  0  0  0  0  0  0  0  0  0  0
   56.4526   22.3712   41.6339 H   0  0  0  0  0  0  0  0  0  0  0  0
   56.4495   20.6594   43.4449 H   0  0  0  0  0  0  0  0  0  0  0  0
   56.7961   21.3440   45.8142 H   0  0  0  0  0  0  0  0  0  0  0  0
   59.6119   24.6893   46.1287 H   0  0  0  0  0  0  0  0  0  0  0  0
   61.6122   26.1781   46.1602 H   0  0  0  0  0  0  0  0  0  0  0  0
   61.4919   28.4156   47.2615 H   0  0  0  0  0  0  0  0  0  0  0  0
   59.3608   29.1725   48.3214 H   0  0  0  0  0  0  0  0  0  0  0  0
   57.3531   27.6899   48.2907 H   0  0  0  0  0  0  0  0  0  0  0  0
   60.0156   28.0522   44.5555 H   0  0  0  0  0  0  0  0  0  0  0  0
   60.2564   30.4435   45.2028 H   0  0  0  0  0  0  0  0  0  0  0  0
   56.8948   32.9519   46.6919 H   0  0  0  0  0  0  0  0  0  0  0  0
   58.2069   31.8981   47.3235 H   0  0  0  0  0  0  0  0  0  0  0  0
   58.4451   34.3349   47.9714 H   0  0  0  0  0  0  0  0  0  0  0  0
   59.8485   33.6743   47.0462 H   0  0  0  0  0  0  0  0  0  0  0  0
   59.1300   35.3646   44.0656 H   0  0  0  0  0  0  0  0  0  0  0  0
   60.2150   34.2255   44.9540 H   0  0  0  0  0  0  0  0  0  0  0  0
   57.3756   33.6728   43.9527 H   0  0  0  0  0  0  0  0  0  0  0  0
   58.9050   32.9453   43.3507 H   0  0  0  0  0  0  0  0  0  0  0  0
   56.0319   31.0628   44.4896 H   0  0  0  0  0  0  0  0  0  0  0  0
   55.7881   28.6735   43.8393 H   0  0  0  0  0  0  0  0  0  0  0  0
  1  2  2  0
  2  3  1  0
  3  4  1  0
  4  5  2  0
  5  6  1  0
  6  7  2  0
  7  8  1  0
  8  9  2  0
  9 10  1  0
 10 11  2  0
 10 12  1  0
 12 13  1  0
 13 14  2  0
 14 15  1  0
 15 16  2  0
 16 17  1  0
 17 18  2  0
  2 19  1  0
 19 20  2  0
 20 21  1  0
 21 22  2  0
 22 23  1  0
 23 24  1  0
 24 25  1  0
 25 26  1  0
 26 27  1  0
 27 28  1  0
 22 29  1  0
 29 30  2  0
  9  4  1  0
 18 13  1  0
 30 19  1  0
 28 23  1  0
  3 31  1  0
  5 32  1  0
  6 33  1  0
  7 34  1  0
  8 35  1  0
 14 36  1  0
 15 37  1  0
 16 38  1  0
 17 39  1  0
 18 40  1  0
 20 41  1  0
 21 42  1  0
 24 43  1  0
 24 44  1  0
 25 45  1  0
 25 46  1  0
 27 47  1  0
 27 48  1  0
 28 49  1  0
 28 50  1  0
 29 51  1  0
 30 52  1  0
M  CHG  1  12  -1
M  END
>  <UniqueID>  (67) 
62

>  <SMILES>  (67) 
O=C(Nc1ccccc1C(=O)[N-]c1ccccc1)c1ccc(N2CCOCC2)cc1

>  <Energy>  (67) 
76.45169604619284

>  <Genealogy>  (67) 
O=C(Nc1ccccc1C(=O)[N-]c1ccccc1)c1ccc(N2CCOCC2)cc1 (protonated)
O=C(Nc1ccccc1C(=O)[N-]c1ccccc1)c1ccc(N2CCOCC2)cc1 (3D coordinates assigned)
O=C(Nc1ccccc1C(=O)[N-]c1ccccc1)c1ccc(N2CCOCC2)cc1 (nonaromatic ring conformer: 76.45169604619284 kcal/mol)

>  <smiles>  (67) 
O=C(Nc1ccccc1C(=O)Nc1ccccc1)c1ccc(N2CCOCC2)cc1

>  <score_type>  (67) 
oracle

>  <origin>  (67) 
adg

>  <m_score__min__energy>  (67) 
-9.6699999999999999

>  <m_primary>  (67) 
energy

$$$$
68:0
     RDKit          3D

 26 28  0  0  0  0  0  0  0  0999 V2000
   58.5030   32.3670   48.2260 C   0  0  0  0  0  0  0  0  0  0  0  0
   58.7430   33.2440   47.0250 C   0  0  0  0  0  0  0  0  0  0  0  0
   59.4020   34.4710   47.2090 C   0  0  0  0  0  0  0  0  0  0  0  0
   59.6450   35.3130   46.1260 C   0  0  0  0  0  0  0  0  0  0  0  0
   59.2260   34.9270   44.8560 C   0  0  0  0  0  0  0  0  0  0  0  0
   58.5890   33.7410   44.6840 N   0  0  0  0  0  0  0  0  0  0  0  0
   58.3300   32.8850   45.7120 C   0  0  0  0  0  0  0  0  0  0  0  0
   57.6270   31.6230   45.3800 C   0  0  0  0  0  0  0  0  0  0  0  0
   56.4920   31.5920   44.6520 N   0  0  0  0  0  0  0  0  0  0  0  0
   56.1760   30.3350   44.5690 O   0  0  0  0  0  0  0  0  0  0  0  0
   57.0640   29.6180   45.2090 C   0  0  0  0  0  0  0  0  0  0  0  0
   57.0170   28.1580   45.3180 C   0  0  0  0  0  0  0  0  0  0  0  0
   58.0780   27.2970   45.1240 C   0  0  0  0  0  0  0  0  0  0  0  0
   57.5700   26.0330   45.3300 C   0  0  0  0  0  0  0  0  0  0  0  0
   56.2340   26.2010   45.6360 C   0  0  0  0  0  0  0  0  0  0  0  0
   55.9350   27.4800   45.6210 O   0  0  0  0  0  0  0  0  0  0  0  0
   58.0250   30.3880   45.7540 N   0  0  0  0  0  0  0  0  0  0  0  0
   58.6628   32.9511   49.1443 H   0  0  0  0  0  0  0  0  0  0  0  0
   57.4692   31.9918   48.2053 H   0  0  0  0  0  0  0  0  0  0  0  0
   59.2017   31.5177   48.2053 H   0  0  0  0  0  0  0  0  0  0  0  0
   59.7287   34.7693   48.2161 H   0  0  0  0  0  0  0  0  0  0  0  0
   60.1624   36.2725   46.2730 H   0  0  0  0  0  0  0  0  0  0  0  0
   59.4110   35.5827   43.9924 H   0  0  0  0  0  0  0  0  0  0  0  0
   59.1120   27.5639   44.8603 H   0  0  0  0  0  0  0  0  0  0  0  0
   58.1182   25.0816   45.2640 H   0  0  0  0  0  0  0  0  0  0  0  0
   55.5277   25.3876   45.8585 H   0  0  0  0  0  0  0  0  0  0  0  0
  1  2  1  0
  2  3  2  0
  3  4  1  0
  4  5  2  0
  5  6  1  0
  6  7  2  0
  7  8  1  0
  8  9  2  0
  9 10  1  0
 10 11  1  0
 11 12  1  0
 12 13  2  0
 13 14  1  0
 14 15  2  0
 15 16  1  0
 11 17  2  0
  7  2  1  0
 17  8  1  0
 16 12  1  0
  1 18  1  0
  1 19  1  0
  1 20  1  0
  3 21  1  0
  4 22  1  0
  5 23  1  0
 13 24  1  0
 14 25  1  0
 15 26  1  0
M  END
>  <UniqueID>  (68) 
63

>  <SMILES>  (68) 
Cc1cccnc1-c1noc(-c2ccco2)n1

>  <Energy>  (68) 
89.73971870312788

>  <Genealogy>  (68) 
Cc1cccnc1-c1noc(-c2ccco2)n1 (3D coordinates assigned)
Cc1cccnc1-c1noc(-c2ccco2)n1 (optimized conformer: 89.73971870312788 kcal/mol)

>  <smiles>  (68) 
Cc1cccnc1-c1noc(-c2ccco2)n1

>  <score_type>  (68) 
oracle

>  <origin>  (68) 
adg

>  <m_score__min__energy>  (68) 
-7.3200000000000003

>  <m_primary>  (68) 
energy

$$$$
69:0
     RDKit          3D

 47 49  0  0  0  0  0  0  0  0999 V2000
   59.6550   35.2890   46.4310 C   0  0  0  0  0  0  0  0  0  0  0  0
   58.8470   34.3910   45.4990 C   0  0  0  0  0  0  0  0  0  0  0  0
   57.7410   33.6470   46.2630 C   0  0  0  0  0  0  0  0  0  0  0  0
   58.2460   32.3660   46.8080 N   0  0  0  0  0  0  0  0  0  0  0  0
   58.7530   32.3910   48.0930 C   0  0  0  0  0  0  0  0  0  0  0  0
   58.8950   33.4910   48.7000 O   0  0  0  0  0  0  0  0  0  0  0  0
   59.1150   31.2080   48.7580 C   0  0  0  0  0  0  0  0  0  0  0  0
   59.6820   31.2390   50.0890 N   0  0  0  0  0  0  0  0  0  0  0  0
   61.1300   30.9630   50.0640 C   0  0  0  0  0  0  0  0  0  0  0  0
   61.8690   31.9210   49.1600 C   0  0  0  0  0  0  0  0  0  0  0  0
   61.9160   33.2920   49.4650 C   0  0  0  0  0  0  0  0  0  0  0  0
   62.5520   34.1850   48.5970 C   0  0  0  0  0  0  0  0  0  0  0  0
   63.1420   33.7170   47.4190 C   0  0  0  0  0  0  0  0  0  0  0  0
   63.7570   34.5850   46.5790 F   0  0  0  0  0  0  0  0  0  0  0  0
   63.0950   32.3550   47.1070 C   0  0  0  0  0  0  0  0  0  0  0  0
   62.4570   31.4600   47.9720 C   0  0  0  0  0  0  0  0  0  0  0  0
   58.9620   29.9940   48.0970 C   0  0  0  0  0  0  0  0  0  0  0  0
   58.5190   29.9570   46.7780 C   0  0  0  0  0  0  0  0  0  0  0  0
   58.4150   28.7150   46.1390 C   0  0  0  0  0  0  0  0  0  0  0  0
   58.0150   28.6410   44.8140 C   0  0  0  0  0  0  0  0  0  0  0  0
   57.7530   29.8020   44.1000 C   0  0  0  0  0  0  0  0  0  0  0  0
   57.8670   31.0720   44.7040 C   0  0  0  0  0  0  0  0  0  0  0  0
   57.6960   32.2250   43.9200 O   0  0  0  0  0  0  0  0  0  0  0  0
   57.9890   32.3340   42.5300 C   0  0  0  0  0  0  0  0  0  0  0  0
   58.1990   31.1670   46.0980 C   0  0  0  0  0  0  0  0  0  0  0  0
   59.4254   35.0339   47.4761 H   0  0  0  0  0  0  0  0  0  0  0  0
   60.7287   35.1395   46.2444 H   0  0  0  0  0  0  0  0  0  0  0  0
   59.3934   36.3410   46.2444 H   0  0  0  0  0  0  0  0  0  0  0  0
   58.3869   35.0099   44.7146 H   0  0  0  0  0  0  0  0  0  0  0  0
   59.5263   33.6466   45.0581 H   0  0  0  0  0  0  0  0  0  0  0  0
   57.3893   34.2778   47.0927 H   0  0  0  0  0  0  0  0  0  0  0  0
   56.9162   33.4326   45.5675 H   0  0  0  0  0  0  0  0  0  0  0  0
   59.5260   32.1810   50.5160 H   0  0  0  0  0  0  0  0  0  0  0  0
   59.2030   30.5460   50.7110 H   0  0  0  0  0  0  0  0  0  0  0  0
   61.5281   31.0583   51.0850 H   0  0  0  0  0  0  0  0  0  0  0  0
   61.2769   29.9445   49.6753 H   0  0  0  0  0  0  0  0  0  0  0  0
   61.4508   33.6640   50.3898 H   0  0  0  0  0  0  0  0  0  0  0  0
   62.5882   35.2569   48.8413 H   0  0  0  0  0  0  0  0  0  0  0  0
   63.5601   31.9870   46.1806 H   0  0  0  0  0  0  0  0  0  0  0  0
   62.4159   30.3900   47.7200 H   0  0  0  0  0  0  0  0  0  0  0  0
   59.1931   29.0549   48.6211 H   0  0  0  0  0  0  0  0  0  0  0  0
   58.6519   27.7938   46.6914 H   0  0  0  0  0  0  0  0  0  0  0  0
   57.9050   27.6606   44.3275 H   0  0  0  0  0  0  0  0  0  0  0  0
   57.4512   29.7308   43.0446 H   0  0  0  0  0  0  0  0  0  0  0  0
   59.0127   32.7148   42.3998 H   0  0  0  0  0  0  0  0  0  0  0  0
   57.9034   31.3439   42.0585 H   0  0  0  0  0  0  0  0  0  0  0  0
   57.2771   33.0274   42.0585 H   0  0  0  0  0  0  0  0  0  0  0  0
  1  2  1  0
  2  3  1  0
  3  4  1  0
  4  5  1  0
  5  6  2  0
  5  7  1  0
  7  8  1  0
  8  9  1  0
  9 10  1  0
 10 11  2  0
 11 12  1  0
 12 13  2  0
 13 14  1  0
 13 15  1  0
 15 16  2  0
  7 17  2  0
 17 18  1  0
 18 19  2  0
 19 20  1  0
 20 21  2  0
 21 22  1  0
 22 23  1  0
 23 24  1  0
 22 25  2  0
 25  4  1  0
 16 10  1  0
 25 18  1  0
  1 26  1  0
  1 27  1  0
  1 28  1  0
  2 29  1  0
  2 30  1  0
  3 31  1  0
  3 32  1  0
  8 33  1  0
  8 34  1  0
  9 35  1  0
  9 36  1  0
 11 37  1  0
 12 38  1  0
 15 39  1  0
 16 40  1  0
 17 41  1  0
 19 42  1  0
 20 43  1  0
 21 44  1  0
 24 45  1  0
 24 46  1  0
 24 47  1  0
M  CHG  1   8   1
M  END
>  <UniqueID>  (69) 
64

>  <SMILES>  (69) 
CCCn1c(=O)c([NH2+]Cc2ccc(F)cc2)cc2cccc(OC)c21

>  <Energy>  (69) 
61.44577931159084

>  <Genealogy>  (69) 
CCCn1c(=O)c([NH2+]Cc2ccc(F)cc2)cc2cccc(OC)c21 (protonated)
CCCn1c(=O)c([NH2+]Cc2ccc(F)cc2)cc2cccc(OC)c21 (3D coordinates assigned)
CCCn1c(=O)c([NH2+]Cc2ccc(F)cc2)cc2cccc(OC)c21 (optimized conformer: 61.44577931159084 kcal/mol)

>  <smiles>  (69) 
CCCn1c(=O)c(NCc2ccc(F)cc2)cc2cccc(OC)c21

>  <score_type>  (69) 
oracle

>  <origin>  (69) 
adg

>  <m_score__min__energy>  (69) 
-5.4800000000000004

>  <m_primary>  (69) 
energy

$$$$
70:0
     RDKit          3D

 38 40  0  0  0  0  0  0  0  0999 V2000
   57.0240   28.1290   44.8750 O   0  0  0  0  0  0  0  0  0  0  0  0
   56.3980   29.2080   44.7060 C   0  0  0  0  0  0  0  0  0  0  0  0
   55.1230   29.3330   45.2450 O   0  0  0  0  0  0  0  0  0  0  0  0
   57.0130   30.3460   43.9750 C   0  0  0  0  0  0  0  0  0  0  0  0
   56.6300   30.5720   42.6400 C   0  0  0  0  0  0  0  0  0  0  0  0
   57.1480   31.6510   41.9200 C   0  0  0  0  0  0  0  0  0  0  0  0
   58.0590   32.5180   42.5180 C   0  0  0  0  0  0  0  0  0  0  0  0
   58.4610   32.3060   43.8370 C   0  0  0  0  0  0  0  0  0  0  0  0
   57.9510   31.2260   44.5770 C   0  0  0  0  0  0  0  0  0  0  0  0
   58.4350   31.0110   45.9180 N   0  0  0  0  0  0  0  0  0  0  0  0
   58.5210   32.1610   46.8350 C   0  0  0  0  0  0  0  0  0  0  0  0
   59.9430   32.6390   46.9630 C   0  0  0  0  0  0  0  0  0  0  0  0
   60.8840   31.8890   47.6870 C   0  0  0  0  0  0  0  0  0  0  0  0
   62.2080   32.3200   47.7690 C   0  0  0  0  0  0  0  0  0  0  0  0
   62.5840   33.5010   47.1270 C   0  0  0  0  0  0  0  0  0  0  0  0
   61.6640   34.2210   46.4340 N   0  0  0  0  0  0  0  0  0  0  0  0
   60.3680   33.8230   46.3380 C   0  0  0  0  0  0  0  0  0  0  0  0
   58.9880   29.7230   46.2790 C   0  0  0  0  0  0  0  0  0  0  0  0
   59.8880   29.0590   45.4240 C   0  0  0  0  0  0  0  0  0  0  0  0
   60.4290   27.8220   45.7860 C   0  0  0  0  0  0  0  0  0  0  0  0
   60.0830   27.2340   47.0030 C   0  0  0  0  0  0  0  0  0  0  0  0
   59.1970   27.8830   47.8650 C   0  0  0  0  0  0  0  0  0  0  0  0
   58.6530   29.1210   47.5080 C   0  0  0  0  0  0  0  0  0  0  0  0
   55.9139   29.8906   42.1575 H   0  0  0  0  0  0  0  0  0  0  0  0
   56.8356   31.8163   40.8783 H   0  0  0  0  0  0  0  0  0  0  0  0
   58.4616   33.3699   41.9504 H   0  0  0  0  0  0  0  0  0  0  0  0
   59.1846   32.9914   44.3024 H   0  0  0  0  0  0  0  0  0  0  0  0
   57.8991   32.9802   46.4450 H   0  0  0  0  0  0  0  0  0  0  0  0
   58.1642   31.8476   47.8272 H   0  0  0  0  0  0  0  0  0  0  0  0
   60.5765   30.9604   48.1901 H   0  0  0  0  0  0  0  0  0  0  0  0
   62.9486   31.7350   48.3341 H   0  0  0  0  0  0  0  0  0  0  0  0
   63.6261   33.8489   47.1823 H   0  0  0  0  0  0  0  0  0  0  0  0
   59.6491   34.4305   45.7686 H   0  0  0  0  0  0  0  0  0  0  0  0
   60.1676   29.5171   44.4638 H   0  0  0  0  0  0  0  0  0  0  0  0
   61.1296   27.3107   45.1094 H   0  0  0  0  0  0  0  0  0  0  0  0
   60.5083   26.2590   47.2834 H   0  0  0  0  0  0  0  0  0  0  0  0
   58.9266   27.4203   48.8256 H   0  0  0  0  0  0  0  0  0  0  0  0
   57.9577   29.6290   48.1925 H   0  0  0  0  0  0  0  0  0  0  0  0
  1  2  2  0
  2  3  1  0
  2  4  1  0
  4  5  2  0
  5  6  1  0
  6  7  2  0
  7  8  1  0
  8  9  2  0
  9 10  1  0
 10 11  1  0
 11 12  1  0
 12 13  2  0
 13 14  1  0
 14 15  2  0
 15 16  1  0
 16 17  2  0
 10 18  1  0
 18 19  2  0
 19 20  1  0
 20 21  2  0
 21 22  1  0
 22 23  2  0
  9  4  1  0
 17 12  1  0
 23 18  1  0
  5 24  1  0
  6 25  1  0
  7 26  1  0
  8 27  1  0
 11 28  1  0
 11 29  1  0
 13 30  1  0
 14 31  1  0
 15 32  1  0
 17 33  1  0
 19 34  1  0
 20 35  1  0
 21 36  1  0
 22 37  1  0
 23 38  1  0
M  CHG  1   3  -1
M  END
>  <UniqueID>  (70) 
65

>  <SMILES>  (70) 
O=C([O-])c1ccccc1N(Cc1cccnc1)c1ccccc1

>  <Energy>  (70) 
53.19443881902672

>  <Genealogy>  (70) 
O=C([O-])c1ccccc1N(Cc1cccnc1)c1ccccc1 (protonated)
O=C([O-])c1ccccc1N(Cc1cccnc1)c1ccccc1 (3D coordinates assigned)
O=C([O-])c1ccccc1N(Cc1cccnc1)c1ccccc1 (optimized conformer: 53.19443881902672 kcal/mol)

>  <smiles>  (70) 
O=C(O)c1ccccc1N(Cc1cccnc1)c1ccccc1

>  <score_type>  (70) 
oracle

>  <origin>  (70) 
adg

>  <m_score__min__energy>  (70) 
-9.6899999999999995

>  <m_primary>  (70) 
energy

$$$$
71:0
     RDKit          3D

 43 47  0  0  0  0  0  0  0  0999 V2000
   56.7420   31.5260   44.5730 F   0  0  0  0  0  0  0  0  0  0  0  0
   57.6900   32.2630   45.2030 C   0  0  0  0  0  0  0  0  0  0  0  0
   57.6940   33.6550   45.0740 C   0  0  0  0  0  0  0  0  0  0  0  0
   58.6700   34.4170   45.7230 C   0  0  0  0  0  0  0  0  0  0  0  0
   59.6600   33.7850   46.5030 C   0  0  0  0  0  0  0  0  0  0  0  0
   60.6560   34.5090   47.1760 O   0  0  0  0  0  0  0  0  0  0  0  0
   61.7440   33.9290   47.8380 C   0  0  0  0  0  0  0  0  0  0  0  0
   62.9690   33.8440   47.1720 C   0  0  0  0  0  0  0  0  0  0  0  0
   64.0770   33.2630   47.7950 C   0  0  0  0  0  0  0  0  0  0  0  0
   63.9770   32.7670   49.1080 C   0  0  0  0  0  0  0  0  0  0  0  0
   65.1400   32.1450   49.7900 C   0  0  0  0  0  0  0  0  0  0  0  0
   65.0630   30.9960   50.4960 N   0  0  0  0  0  0  0  0  0  0  0  0
   66.3370   30.8350   50.9110 C   0  0  0  0  0  0  0  0  0  0  0  0
   66.7930   29.7070   51.7360 C   0  0  0  0  0  0  0  0  0  0  0  0
   66.6350   29.5820   53.1130 C   0  0  0  0  0  0  0  0  0  0  0  0
   67.1720   28.4190   53.5470 N   0  0  0  0  0  0  0  0  0  0  0  0
   67.6680   27.8080   52.4570 C   0  0  0  0  0  0  0  0  0  0  0  0
   68.3190   26.5770   52.4050 C   0  0  0  0  0  0  0  0  0  0  0  0
   68.7620   26.1190   51.1510 C   0  0  0  0  0  0  0  0  0  0  0  0
   68.5470   26.8930   49.9900 C   0  0  0  0  0  0  0  0  0  0  0  0
   67.8860   28.1320   50.0710 C   0  0  0  0  0  0  0  0  0  0  0  0
   67.4560   28.5630   51.3280 C   0  0  0  0  0  0  0  0  0  0  0  0
   67.1090   31.8060   50.4860 O   0  0  0  0  0  0  0  0  0  0  0  0
   66.3970   32.6340   49.7880 N   0  0  0  0  0  0  0  0  0  0  0  0
   62.7490   32.8780   49.7820 C   0  0  0  0  0  0  0  0  0  0  0  0
   61.6390   33.4590   49.1600 C   0  0  0  0  0  0  0  0  0  0  0  0
   60.0210   33.6570   50.1680 Br  0  0  0  0  0  0  0  0  0  0  0  0
   59.6410   32.3910   46.6340 C   0  0  0  0  0  0  0  0  0  0  0  0
   58.6620   31.6320   45.9840 C   0  0  0  0  0  0  0  0  0  0  0  0
   56.9277   34.1517   44.4607 H   0  0  0  0  0  0  0  0  0  0  0  0
   58.6656   35.5126   45.6249 H   0  0  0  0  0  0  0  0  0  0  0  0
   63.0623   34.2375   46.1490 H   0  0  0  0  0  0  0  0  0  0  0  0
   65.0331   33.1930   47.2556 H   0  0  0  0  0  0  0  0  0  0  0  0
   66.1426   30.3247   53.7579 H   0  0  0  0  0  0  0  0  0  0  0  0
   67.1950   28.0700   54.5300 H   0  0  0  0  0  0  0  0  0  0  0  0
   68.4813   25.9822   53.3159 H   0  0  0  0  0  0  0  0  0  0  0  0
   69.2794   25.1513   51.0744 H   0  0  0  0  0  0  0  0  0  0  0  0
   68.8989   26.5245   49.0151 H   0  0  0  0  0  0  0  0  0  0  0  0
   67.7131   28.7424   49.1724 H   0  0  0  0  0  0  0  0  0  0  0  0
   66.7670   33.4960   49.3320 H   0  0  0  0  0  0  0  0  0  0  0  0
   62.6595   32.5031   50.8123 H   0  0  0  0  0  0  0  0  0  0  0  0
   60.4006   31.8896   47.2518 H   0  0  0  0  0  0  0  0  0  0  0  0
   58.6573   30.5369   46.0878 H   0  0  0  0  0  0  0  0  0  0  0  0
  1  2  1  0
  2  3  2  0
  3  4  1  0
  4  5  2  0
  5  6  1  0
  6  7  1  0
  7  8  2  0
  8  9  1  0
  9 10  2  0
 10 11  1  0
 11 12  1  0
 12 13  2  0
 13 14  1  0
 14 15  2  0
 15 16  1  0
 16 17  1  0
 17 18  2  0
 18 19  1  0
 19 20  2  0
 20 21  1  0
 21 22  2  0
 13 23  1  0
 23 24  1  0
 10 25  1  0
 25 26  2  0
 26 27  1  0
  5 28  1  0
 28 29  2  0
 29  2  1  0
 26  7  1  0
 24 11  2  0
 22 14  1  0
 22 17  1  0
  3 30  1  0
  4 31  1  0
  8 32  1  0
  9 33  1  0
 15 34  1  0
 16 35  1  0
 18 36  1  0
 19 37  1  0
 20 38  1  0
 21 39  1  0
 24 40  1  0
 25 41  1  0
 28 42  1  0
 29 43  1  0
M  CHG  1  24   1
M  END
>  <UniqueID>  (71) 
66

>  <SMILES>  (71) 
Fc1ccc(Oc2ccc(-c3nc(-c4c[nH]c5ccccc45)o[nH+]3)cc2Br)cc1

>  <Energy>  (71) 
127.26089770698762

>  <Genealogy>  (71) 
Fc1ccc(Oc2ccc(-c3nc(-c4c[nH]c5ccccc45)o[nH+]3)cc2Br)cc1 (protonated)
Fc1ccc(Oc2ccc(-c3nc(-c4c[nH]c5ccccc45)o[nH+]3)cc2Br)cc1 (3D coordinates assigned)
Fc1ccc(Oc2ccc(-c3nc(-c4c[nH]c5ccccc45)o[nH+]3)cc2Br)cc1 (optimized conformer: 127.26089770698762 kcal/mol)

>  <smiles>  (71) 
Fc1ccc(Oc2ccc(-c3noc(-c4c[nH]c5ccccc45)n3)cc2Br)cc1

>  <score_type>  (71) 
oracle

>  <origin>  (71) 
adg

>  <m_score__min__energy>  (71) 
-7.1200000000000001

>  <m_primary>  (71) 
energy

$$$$
72:0
     RDKit          3D

 32 34  0  0  0  0  0  0  0  0999 V2000
   56.9495   30.8163   43.0031 H   0  0  0  0  0  0  0  0  0  0  0  0
   57.5400   30.6670   43.9190 C   0  0  0  0  0  0  0  0  0  0  0  0
   57.7770   29.4000   44.3120 C   0  0  0  0  0  0  0  0  0  0  0  0
   56.7560   28.5940   45.0050 C   0  0  0  0  0  0  0  0  0  0  0  0
   55.5850   28.9880   45.2470 O   0  0  0  0  0  0  0  0  0  0  0  0
   57.2680   27.2350   45.3950 C   0  0  2  0  0  0  0  0  0  0  0  0
   56.5027   26.6295   45.9027 H   0  0  0  0  0  0  0  0  0  0  0  0
   58.5040   27.4710   46.2920 C   0  0  0  0  0  0  0  0  0  0  0  0
   58.9647   26.5040   46.5422 H   0  0  0  0  0  0  0  0  0  0  0  0
   58.1928   27.9808   47.2157 H   0  0  0  0  0  0  0  0  0  0  0  0
   59.5410   28.3600   45.5330 C   0  0  0  0  0  0  0  0  0  0  0  0
   60.4876   27.8071   45.4422 H   0  0  0  0  0  0  0  0  0  0  0  0
   59.6844   29.2888   46.1046 H   0  0  0  0  0  0  0  0  0  0  0  0
   59.0570   28.7180   44.1720 N   0  0  1  0  0  0  0  0  0  0  0  0
   59.7870   29.2960   43.7000 H   0  0  0  0  0  0  0  0  0  0  0  0
   58.8300   27.4660   43.4010 C   0  0  0  0  0  0  0  0  0  0  0  0
   59.7786   26.9141   43.3257 H   0  0  0  0  0  0  0  0  0  0  0  0
   58.4573   27.7353   42.4017 H   0  0  0  0  0  0  0  0  0  0  0  0
   57.7650   26.5570   44.0980 C   0  0  0  0  0  0  0  0  0  0  0  0
   58.2186   25.5856   44.3442 H   0  0  0  0  0  0  0  0  0  0  0  0
   56.9141   26.4062   43.4174 H   0  0  0  0  0  0  0  0  0  0  0  0
   58.0170   31.8680   44.6310 C   0  0  0  0  0  0  0  0  0  0  0  0
   58.2040   33.0610   43.9190 C   0  0  0  0  0  0  0  0  0  0  0  0
   57.9620   33.1024   42.8468 H   0  0  0  0  0  0  0  0  0  0  0  0
   58.6970   34.1990   44.5660 C   0  0  0  0  0  0  0  0  0  0  0  0
   58.8261   35.1370   44.0061 H   0  0  0  0  0  0  0  0  0  0  0  0
   59.0260   34.1450   45.9250 C   0  0  0  0  0  0  0  0  0  0  0  0
   59.6460   35.5720   46.7360 Cl  0  0  0  0  0  0  0  0  0  0  0  0
   58.8700   32.9490   46.6340 C   0  0  0  0  0  0  0  0  0  0  0  0
   59.1350   32.9043   47.7007 H   0  0  0  0  0  0  0  0  0  0  0  0
   58.3780   31.8110   45.9890 C   0  0  0  0  0  0  0  0  0  0  0  0
   58.2728   30.8678   46.5452 H   0  0  0  0  0  0  0  0  0  0  0  0
  1  2  1  0
  2  3  2  0
  3  4  1  0
  4  5  2  0
  4  6  1  0
  6  7  1  1
  6  8  1  0
  8  9  1  0
  8 10  1  0
  8 11  1  0
 11 12  1  0
 11 13  1  0
 11 14  1  0
 14 15  1  6
 14 16  1  0
 16 17  1  0
 16 18  1  0
 16 19  1  0
 19 20  1  0
 19 21  1  0
  2 22  1  0
 22 23  2  0
 23 24  1  0
 23 25  1  0
 25 26  1  0
 25 27  2  0
 27 28  1  0
 27 29  1  0
 29 30  1  0
 29 31  2  0
 31 32  1  0
 14  3  1  0
 31 22  1  0
 19  6  1  0
M  CHG  1  14   1
M  END
>  <UniqueID>  (72) 
67

>  <SMILES>  (72) 
O=C1/C(=C/c2ccc(Cl)cc2)[NH+]2CCC1CC2

>  <Energy>  (72) 
60.500956327965945

>  <Genealogy>  (72) 
O=C1C(=Cc2ccc(Cl)cc2)[NH+]2CCC1CC2 (protonated)
O=C1/C(=C/c2ccc(Cl)cc2)[NH+]2CCC1CC2 (cis-trans isomerization)
O=C1/C(=C/c2ccc(Cl)cc2)[NH+]2CCC1CC2 (3D coordinates assigned)
O=C1/C(=C/c2ccc(Cl)cc2)[NH+]2CCC1CC2 (nonaromatic ring conformer: 60.500956327965945 kcal/mol)

>  <smiles>  (72) 
O=C1C(=Cc2ccc(Cl)cc2)N2CCC1CC2

>  <score_type>  (72) 
oracle

>  <origin>  (72) 
adg

>  <m_score__min__energy>  (72) 
-5.5899999999999999

>  <m_primary>  (72) 
energy

$$$$
73:0
     RDKit          3D

 18 19  0  0  0  0  0  0  0  0999 V2000
   59.1570   34.6900   46.6470 C   0  0  0  0  0  0  0  0  0  0  0  0
   59.1610   34.7650   45.2520 C   0  0  0  0  0  0  0  0  0  0  0  0
   58.5240   33.7770   44.4950 C   0  0  0  0  0  0  0  0  0  0  0  0
   57.8760   32.7000   45.1290 C   0  0  0  0  0  0  0  0  0  0  0  0
   57.2200   31.6820   44.3520 N   0  0  0  0  0  0  0  0  0  0  0  0
   57.4360   31.4830   43.0590 N   0  0  0  0  0  0  0  0  0  0  0  0
   56.6450   30.4560   42.7000 C   0  0  0  0  0  0  0  0  0  0  0  0
   55.9520   30.0490   43.8180 C   0  0  0  0  0  0  0  0  0  0  0  0
   56.3290   30.8330   44.8440 N   0  0  0  0  0  0  0  0  0  0  0  0
   57.8790   32.6360   46.5350 C   0  0  0  0  0  0  0  0  0  0  0  0
   58.5180   33.6270   47.2880 C   0  0  0  0  0  0  0  0  0  0  0  0
   59.6576   35.4690   47.2408 H   0  0  0  0  0  0  0  0  0  0  0  0
   59.6660   35.6025   44.7484 H   0  0  0  0  0  0  0  0  0  0  0  0
   58.5292   33.8417   43.3969 H   0  0  0  0  0  0  0  0  0  0  0  0
   56.5659   30.0194   41.6934 H   0  0  0  0  0  0  0  0  0  0  0  0
   55.2204   29.2288   43.8640 H   0  0  0  0  0  0  0  0  0  0  0  0
   57.3757   31.8015   47.0451 H   0  0  0  0  0  0  0  0  0  0  0  0
   58.5169   33.5686   48.3864 H   0  0  0  0  0  0  0  0  0  0  0  0
  1  2  2  0
  2  3  1  0
  3  4  2  0
  4  5  1  0
  5  6  1  0
  6  7  2  0
  7  8  1  0
  8  9  2  0
  4 10  1  0
 10 11  2  0
 11  1  1  0
  9  5  1  0
  1 12  1  0
  2 13  1  0
  3 14  1  0
  7 15  1  0
  8 16  1  0
 10 17  1  0
 11 18  1  0
M  END
>  <UniqueID>  (73) 
68

>  <SMILES>  (73) 
c1ccc(-n2nccn2)cc1

>  <Energy>  (73) 
53.04545465709343

>  <Genealogy>  (73) 
c1ccc(-n2nccn2)cc1 (3D coordinates assigned)
c1ccc(-n2nccn2)cc1 (optimized conformer: 53.04545465709343 kcal/mol)

>  <smiles>  (73) 
c1ccc(-n2nccn2)cc1

>  <score_type>  (73) 
oracle

>  <origin>  (73) 
adg

>  <m_score__min__energy>  (73) 
-5.4400000000000004

>  <m_primary>  (73) 
energy

$$$$
74:0
     RDKit          3D

 40 42  0  0  0  0  0  0  0  0999 V2000
   60.7380   27.0640   49.4010 C   0  0  0  0  0  0  0  0  0  0  0  0
   60.3630   26.6710   48.0850 O   0  0  0  0  0  0  0  0  0  0  0  0
   59.2770   27.2080   47.3780 C   0  0  0  0  0  0  0  0  0  0  0  0
   59.2370   28.5520   46.9600 C   0  0  0  0  0  0  0  0  0  0  0  0
   58.1320   29.0390   46.2540 C   0  0  0  0  0  0  0  0  0  0  0  0
   57.0580   28.1870   45.9410 C   0  0  0  0  0  0  0  0  0  0  0  0
   55.8960   28.6530   45.2380 N   0  0  0  0  0  0  0  0  0  0  0  0
   55.8270   29.7900   44.3740 C   0  0  0  0  0  0  0  0  0  0  0  0
   55.3060   29.6950   43.2290 O   0  0  0  0  0  0  0  0  0  0  0  0
   56.2990   31.0230   44.8370 O   0  0  0  0  0  0  0  0  0  0  0  0
   57.3520   31.7470   44.2050 C   0  0  0  0  0  0  0  0  0  0  0  0
   57.9780   32.7020   45.1710 C   0  0  0  0  0  0  0  0  0  0  0  0
   57.3950   33.8510   45.6610 C   0  0  0  0  0  0  0  0  0  0  0  0
   58.3120   34.3890   46.5390 C   0  0  0  0  0  0  0  0  0  0  0  0
   59.4000   33.5270   46.5340 C   0  0  0  0  0  0  0  0  0  0  0  0
   60.6500   33.6620   47.3230 C   0  0  0  0  0  0  0  0  0  0  0  0
   61.9030   33.3600   46.7520 C   0  0  0  0  0  0  0  0  0  0  0  0
   63.0760   33.4880   47.5030 C   0  0  0  0  0  0  0  0  0  0  0  0
   64.2740   33.1900   46.9420 F   0  0  0  0  0  0  0  0  0  0  0  0
   63.0150   33.9200   48.8290 C   0  0  0  0  0  0  0  0  0  0  0  0
   61.7820   34.2230   49.4070 C   0  0  0  0  0  0  0  0  0  0  0  0
   60.6030   34.0970   48.6650 C   0  0  0  0  0  0  0  0  0  0  0  0
   59.4240   34.4080   49.2590 F   0  0  0  0  0  0  0  0  0  0  0  0
   59.1640   32.5320   45.7070 O   0  0  0  0  0  0  0  0  0  0  0  0
   57.0910   26.8580   46.3790 C   0  0  0  0  0  0  0  0  0  0  0  0
   58.1950   26.3700   47.0830 C   0  0  0  0  0  0  0  0  0  0  0  0
   60.1728   26.4717   50.1356 H   0  0  0  0  0  0  0  0  0  0  0  0
   61.8153   26.8920   49.5421 H   0  0  0  0  0  0  0  0  0  0  0  0
   60.5157   28.1320   49.5421 H   0  0  0  0  0  0  0  0  0  0  0  0
   60.0786   29.2221   47.1897 H   0  0  0  0  0  0  0  0  0  0  0  0
   58.1030   30.0935   45.9422 H   0  0  0  0  0  0  0  0  0  0  0  0
   58.1151   31.0398   43.8478 H   0  0  0  0  0  0  0  0  0  0  0  0
   56.9382   32.3143   43.3583 H   0  0  0  0  0  0  0  0  0  0  0  0
   56.4043   34.2547   45.4049 H   0  0  0  0  0  0  0  0  0  0  0  0
   58.2034   35.3138   47.1247 H   0  0  0  0  0  0  0  0  0  0  0  0
   61.9587   33.0208   45.7071 H   0  0  0  0  0  0  0  0  0  0  0  0
   63.9386   34.0214   49.4178 H   0  0  0  0  0  0  0  0  0  0  0  0
   61.7367   34.5629   50.4522 H   0  0  0  0  0  0  0  0  0  0  0  0
   56.2411   26.1925   46.1674 H   0  0  0  0  0  0  0  0  0  0  0  0
   58.2141   25.3193   47.4079 H   0  0  0  0  0  0  0  0  0  0  0  0
  1  2  1  0
  2  3  1  0
  3  4  2  0
  4  5  1  0
  5  6  2  0
  6  7  1  0
  7  8  1  0
  8  9  2  0
  8 10  1  0
 10 11  1  0
 11 12  1  0
 12 13  2  0
 13 14  1  0
 14 15  2  0
 15 16  1  0
 16 17  2  0
 17 18  1  0
 18 19  1  0
 18 20  2  0
 20 21  1  0
 21 22  2  0
 22 23  1  0
 15 24  1  0
  6 25  1  0
 25 26  2  0
 26  3  1  0
 24 12  1  0
 22 16  1  0
  1 27  1  0
  1 28  1  0
  1 29  1  0
  4 30  1  0
  5 31  1  0
 11 32  1  0
 11 33  1  0
 13 34  1  0
 14 35  1  0
 17 36  1  0
 20 37  1  0
 21 38  1  0
 25 39  1  0
 26 40  1  0
M  CHG  1   7  -1
M  END
>  <UniqueID>  (74) 
69

>  <SMILES>  (74) 
COc1ccc([N-]C(=O)OCc2ccc(-c3cc(F)ccc3F)o2)cc1

>  <Energy>  (74) 
70.77397091046129

>  <Genealogy>  (74) 
COc1ccc([N-]C(=O)OCc2ccc(-c3cc(F)ccc3F)o2)cc1 (protonated)
COc1ccc([N-]C(=O)OCc2ccc(-c3cc(F)ccc3F)o2)cc1 (3D coordinates assigned)
COc1ccc([N-]C(=O)OCc2ccc(-c3cc(F)ccc3F)o2)cc1 (optimized conformer: 70.77397091046129 kcal/mol)

>  <smiles>  (74) 
COc1ccc(NC(=O)OCc2ccc(-c3cc(F)ccc3F)o2)cc1

>  <score_type>  (74) 
oracle

>  <origin>  (74) 
adg

>  <m_score__min__energy>  (74) 
-10.49

>  <m_primary>  (74) 
energy

$$$$
75:0
     RDKit          3D

 22 22  0  0  0  0  0  0  0  0999 V2000
   58.1141   27.1319   44.8926 H   0  0  0  0  0  0  0  0  0  0  0  0
   57.9270   27.7230   43.9840 C   0  0  0  0  0  0  0  0  0  0  0  0
   57.5130   28.9890   44.1130 C   0  0  0  0  0  0  0  0  0  0  0  0
   56.2900   29.3880   44.6120 C   0  0  0  0  0  0  0  0  0  0  0  0
   55.4960   28.7152   44.9683 H   0  0  0  0  0  0  0  0  0  0  0  0
   56.2240   30.7340   44.5930 N   0  0  0  0  0  0  0  0  0  0  0  0
   57.4150   31.1200   44.0790 C   0  0  0  0  0  0  0  0  0  0  0  0
   57.7610   32.3970   43.8870 C   0  0  0  0  0  0  0  0  0  0  0  0
   58.3136   32.6705   42.9761 H   0  0  0  0  0  0  0  0  0  0  0  0
   57.4150   33.4700   44.8830 C   0  0  0  0  0  0  0  0  0  0  0  0
   56.6963   34.1654   44.4249 H   0  0  0  0  0  0  0  0  0  0  0  0
   56.9807   32.9901   45.7724 H   0  0  0  0  0  0  0  0  0  0  0  0
   58.6540   34.2490   45.3140 C   0  0  0  0  0  0  0  0  0  0  0  0
   58.7037   34.2803   46.4124 H   0  0  0  0  0  0  0  0  0  0  0  0
   59.5538   33.7538   44.9202 H   0  0  0  0  0  0  0  0  0  0  0  0
   58.5977   35.2745   44.9202 H   0  0  0  0  0  0  0  0  0  0  0  0
   58.2220   30.0820   43.7760 N   0  0  0  0  0  0  0  0  0  0  0  0
   59.1840   30.1270   43.3710 H   0  0  0  0  0  0  0  0  0  0  0  0
   58.1450   27.0810   42.6490 C   0  0  0  0  0  0  0  0  0  0  0  0
   58.4957   26.0482   42.7917 H   0  0  0  0  0  0  0  0  0  0  0  0
   57.1993   27.0728   42.0873 H   0  0  0  0  0  0  0  0  0  0  0  0
   58.9002   27.6504   42.0873 H   0  0  0  0  0  0  0  0  0  0  0  0
  1  2  1  0
  2  3  2  0
  3  4  1  0
  4  5  1  0
  4  6  2  0
  6  7  1  0
  7  8  2  0
  8  9  1  0
  8 10  1  0
 10 11  1  0
 10 12  1  0
 10 13  1  0
 13 14  1  0
 13 15  1  0
 13 16  1  0
  7 17  1  0
 17 18  1  0
  2 19  1  0
 19 20  1  0
 19 21  1  0
 19 22  1  0
 17  3  1  0
M  END
>  <UniqueID>  (75) 
70

>  <SMILES>  (75) 
C/C=c1/cn/c(=C\CC)[nH]1

>  <Energy>  (75) 
42.31838088875765

>  <Genealogy>  (75) 
C/C=c1/cn/c(=C\CC)[nH]1 (cis-trans isomerization)
C/C=c1/cn/c(=C\CC)[nH]1 (3D coordinates assigned)
C/C=c1/cn/c(=C\CC)[nH]1 (optimized conformer: 42.31838088875765 kcal/mol)

>  <smiles>  (75) 
CC=c1cnc(=CCC)[nH]1

>  <score_type>  (75) 
oracle

>  <origin>  (75) 
adg

>  <m_score__min__energy>  (75) 
-4.6399999999999997

>  <m_primary>  (75) 
energy

$$$$
76:0
     RDKit          3D

 24 25  0  0  0  0  0  0  0  0999 V2000
   57.7330   32.0130   43.9100 C   0  0  0  0  0  0  0  0  0  0  0  0
   56.9840   31.2400   44.8420 O   0  0  0  0  0  0  0  0  0  0  0  0
   57.3070   29.9290   45.2240 C   0  0  0  0  0  0  0  0  0  0  0  0
   58.6140   29.5490   45.5850 C   0  0  0  0  0  0  0  0  0  0  0  0
   58.8890   28.2300   45.9600 C   0  0  0  0  0  0  0  0  0  0  0  0
   57.8630   27.2700   45.9820 C   0  0  0  0  0  0  0  0  0  0  0  0
   58.0990   25.9330   46.3530 C   0  0  0  0  0  0  0  0  0  0  0  0
   59.2530   25.5450   46.6830 O   0  0  0  0  0  0  0  0  0  0  0  0
   57.0410   25.0190   46.3550 C   0  0  0  0  0  0  0  0  0  0  0  0
   55.7570   25.4410   45.9900 C   0  0  0  0  0  0  0  0  0  0  0  0
   54.6160   24.4740   45.9900 C   0  0  0  0  0  0  0  0  0  0  0  0
   55.5470   26.7370   45.6340 N   0  0  0  0  0  0  0  0  0  0  0  0
   56.5520   27.6530   45.6190 C   0  0  0  0  0  0  0  0  0  0  0  0
   56.2840   28.9740   45.2450 C   0  0  0  0  0  0  0  0  0  0  0  0
   58.3983   32.6996   44.4540 H   0  0  0  0  0  0  0  0  0  0  0  0
   58.3347   31.3433   43.2780 H   0  0  0  0  0  0  0  0  0  0  0  0
   57.0447   32.5933   43.2780 H   0  0  0  0  0  0  0  0  0  0  0  0
   59.4233   30.2939   45.5720 H   0  0  0  0  0  0  0  0  0  0  0  0
   59.9135   27.9426   46.2391 H   0  0  0  0  0  0  0  0  0  0  0  0
   57.2169   23.9719   46.6424 H   0  0  0  0  0  0  0  0  0  0  0  0
   54.3363   24.2369   47.0271 H   0  0  0  0  0  0  0  0  0  0  0  0
   53.7556   24.9221   45.4715 H   0  0  0  0  0  0  0  0  0  0  0  0
   54.9170   23.5518   45.4715 H   0  0  0  0  0  0  0  0  0  0  0  0
   55.2607   29.2647   44.9651 H   0  0  0  0  0  0  0  0  0  0  0  0
  1  2  1  0
  2  3  1  0
  3  4  2  0
  4  5  1  0
  5  6  2  0
  6  7  1  0
  7  8  2  0
  7  9  1  0
  9 10  2  0
 10 11  1  0
 10 12  1  0
 12 13  1  0
 13 14  2  0
 14  3  1  0
 13  6  1  0
  1 15  1  0
  1 16  1  0
  1 17  1  0
  4 18  1  0
  5 19  1  0
  9 20  1  0
 11 21  1  0
 11 22  1  0
 11 23  1  0
 14 24  1  0
M  CHG  1  12  -1
M  END
>  <UniqueID>  (76) 
71

>  <SMILES>  (76) 
COc1ccc2c(=O)cc(C)[n-]c2c1

>  <Energy>  (76) 
27.120936099670025

>  <Genealogy>  (76) 
COc1ccc2c(=O)cc(C)[n-]c2c1 (protonated)
COc1ccc2c(=O)cc(C)[n-]c2c1 (3D coordinates assigned)
COc1ccc2c(=O)cc(C)[n-]c2c1 (optimized conformer: 27.120936099670025 kcal/mol)

>  <smiles>  (76) 
COc1ccc2c(=O)cc(C)[nH]c2c1

>  <score_type>  (76) 
oracle

>  <origin>  (76) 
adg

>  <m_score__min__energy>  (76) 
-7.0899999999999999

>  <m_primary>  (76) 
energy

$$$$
77:0
     RDKit          3D

 58 61  0  0  1  0  0  0  0  0999 V2000
   58.1570   21.4590   43.4180 C   0  0  0  0  0  0  0  0  0  0  0  0
   57.0400   22.3390   43.8380 C   0  0  0  0  0  0  0  0  0  0  0  0
   55.9060   22.2470   43.2990 O   0  0  0  0  0  0  0  0  0  0  0  0
   57.1730   23.3320   44.8600 N   0  0  0  0  0  0  0  0  0  0  0  0
   55.9800   24.1110   45.1460 C   0  0  0  0  0  0  0  0  0  0  0  0
   56.3730   25.1740   46.1460 C   0  0  0  0  0  0  0  0  0  0  0  0
   57.5680   25.8380   45.6700 N   0  0  0  0  0  0  0  0  0  0  0  0
   57.6280   27.1940   45.2630 C   0  0  0  0  0  0  0  0  0  0  0  0
   58.7770   27.8300   44.8540 C   0  0  0  0  0  0  0  0  0  0  0  0
   58.8060   29.1610   44.4550 C   0  0  0  0  0  0  0  0  0  0  0  0
   57.6360   29.8980   44.4630 C   0  0  0  0  0  0  0  0  0  0  0  0
   57.6810   31.2620   44.0510 N   0  0  0  0  0  0  0  0  0  0  0  0
   58.1090   32.1940   44.8080 C   0  0  0  0  0  0  0  0  0  0  0  0
   59.2820   32.0820   45.4630 N   0  0  0  0  0  0  0  0  0  0  0  0
   59.7040   33.0890   46.2570 C   0  0  0  0  0  0  0  0  0  0  0  0
   60.9770   32.9040   46.9370 C   0  0  0  0  0  0  0  0  0  0  0  0
   60.9980   31.9370   47.9500 C   0  0  0  0  0  0  0  0  0  0  0  0
   62.1890   31.7130   48.6350 C   0  0  0  0  0  0  0  0  0  0  0  0
   63.3170   32.4250   48.3240 C   0  0  0  0  0  0  0  0  0  0  0  0
   64.5410   32.2340   48.9880 O   0  0  0  0  0  0  0  0  0  0  0  0
   64.7040   33.0590   50.1500 C   0  0  0  0  0  0  0  0  0  0  0  0
   63.7470   34.0570   50.1430 F   0  0  0  0  0  0  0  0  0  0  0  0
   64.5030   32.2500   51.2500 F   0  0  0  0  0  0  0  0  0  0  0  0
   65.9680   33.6010   50.2080 F   0  0  0  0  0  0  0  0  0  0  0  0
   63.3160   33.3860   47.3260 C   0  0  0  0  0  0  0  0  0  0  0  0
   62.1190   33.5950   46.6540 C   0  0  0  0  0  0  0  0  0  0  0  0
   58.9260   34.2190   46.3840 C   0  0  0  0  0  0  0  0  0  0  0  0
   59.3520   35.3260   47.2410 C   0  0  0  0  0  0  0  0  0  0  0  0
   57.7180   34.3450   45.7150 C   0  0  0  0  0  0  0  0  0  0  0  0
   57.3420   33.3070   44.9330 N   0  0  0  0  0  0  0  0  0  0  0  0
   56.4630   29.2900   44.8680 C   0  0  0  0  0  0  0  0  0  0  0  0
   56.4680   27.9530   45.2630 C   0  0  0  0  0  0  0  0  0  0  0  0
   58.7720   25.0240   45.6170 C   0  0  0  0  0  0  0  0  0  0  0  0
   58.4300   23.5500   45.5690 C   0  0  0  0  0  0  0  0  0  0  0  0
   58.6640   21.0596   44.3088 H   0  0  0  0  0  0  0  0  0  0  0  0
   57.7620   20.6268   42.8168 H   0  0  0  0  0  0  0  0  0  0  0  0
   58.8737   22.0378   42.8168 H   0  0  0  0  0  0  0  0  0  0  0  0
   55.6056   24.5800   44.2242 H   0  0  0  0  0  0  0  0  0  0  0  0
   55.1813   23.4707   45.5485 H   0  0  0  0  0  0  0  0  0  0  0  0
   55.5582   25.9059   46.2480 H   0  0  0  0  0  0  0  0  0  0  0  0
   56.5644   24.7143   47.1268 H   0  0  0  0  0  0  0  0  0  0  0  0
   59.7168   27.2585   44.8422 H   0  0  0  0  0  0  0  0  0  0  0  0
   59.7513   29.6241   44.1357 H   0  0  0  0  0  0  0  0  0  0  0  0
   60.0915   31.3660   48.1993 H   0  0  0  0  0  0  0  0  0  0  0  0
   62.2245   30.9572   49.4334 H   0  0  0  0  0  0  0  0  0  0  0  0
   64.2224   33.9575   47.0773 H   0  0  0  0  0  0  0  0  0  0  0  0
   62.0901   34.3525   45.8569 H   0  0  0  0  0  0  0  0  0  0  0  0
   59.2406   35.0365   48.2964 H   0  0  0  0  0  0  0  0  0  0  0  0
   60.4060   35.5642   47.0354 H   0  0  0  0  0  0  0  0  0  0  0  0
   58.7296   36.2094   47.0354 H   0  0  0  0  0  0  0  0  0  0  0  0
   57.0951   35.2460   45.8153 H   0  0  0  0  0  0  0  0  0  0  0  0
   56.4400   33.3710   44.4170 H   0  0  0  0  0  0  0  0  0  0  0  0
   55.5235   29.8621   44.8787 H   0  0  0  0  0  0  0  0  0  0  0  0
   55.5246   27.4871   45.5838 H   0  0  0  0  0  0  0  0  0  0  0  0
   59.3460   25.2894   44.7170 H   0  0  0  0  0  0  0  0  0  0  0  0
   59.3647   25.2164   46.5235 H   0  0  0  0  0  0  0  0  0  0  0  0
   59.2353   23.0098   45.0497 H   0  0  0  0  0  0  0  0  0  0  0  0
   58.3224   23.1795   46.5991 H   0  0  0  0  0  0  0  0  0  0  0  0
  1  2  1  0
  2  3  2  0
  2  4  1  0
  4  5  1  0
  5  6  1  0
  6  7  1  0
  7  8  1  0
  8  9  2  0
  9 10  1  0
 10 11  2  0
 11 12  1  0
 12 13  2  0
 13 14  1  0
 14 15  2  0
 15 16  1  0
 16 17  2  0
 17 18  1  0
 18 19  2  0
 19 20  1  0
 20 21  1  0
 21 22  1  0
 21 23  1  0
 21 24  1  0
 19 25  1  0
 25 26  2  0
 15 27  1  0
 27 28  1  0
 27 29  2  0
 29 30  1  0
 11 31  1  0
 31 32  2  0
  7 33  1  0
 33 34  1  0
 34  4  1  0
 32  8  1  0
 30 13  1  0
 26 16  1  0
  1 35  1  0
  1 36  1  0
  1 37  1  0
  5 38  1  0
  5 39  1  0
  6 40  1  0
  6 41  1  0
  9 42  1  0
 10 43  1  0
 17 44  1  0
 18 45  1  0
 25 46  1  0
 26 47  1  0
 28 48  1  0
 28 49  1  0
 28 50  1  0
 29 51  1  0
 30 52  1  0
 31 53  1  0
 32 54  1  0
 33 55  1  0
 33 56  1  0
 34 57  1  0
 34 58  1  0
M  END
>  <smiles>  (77) 
CC(=O)N1CCN(c2ccc(N=c3nc(-c4ccc(OC(F)(F)F)cc4)c(C)c[nH]3)cc2)CC1

>  <score_type>  (77) 
oracle

>  <origin>  (77) 
adg

>  <m_score__min__energy>  (77) 
-8.6099999999999994

>  <m_primary>  (77) 
energy

$$$$
78:0
     RDKit          3D

 39 40  0  0  0  0  0  0  0  0999 V2000
   54.5130   26.7230   46.7470 H   0  0  0  0  0  0  0  0  0  0  0  0
   55.2460   26.3580   46.0980 N   0  0  0  0  0  0  0  0  0  0  0  0
   56.4240   26.8890   46.0390 C   0  0  0  0  0  0  0  0  0  0  0  0
   57.4410   26.3850   46.7870 N   0  0  0  0  0  0  0  0  0  0  0  0
   58.6830   26.9300   46.7390 C   0  0  0  0  0  0  0  0  0  0  0  0
   59.4947   26.5127   47.3531 H   0  0  0  0  0  0  0  0  0  0  0  0
   58.9240   28.0240   45.9050 C   0  0  0  0  0  0  0  0  0  0  0  0
   59.9255   28.4775   45.8675 H   0  0  0  0  0  0  0  0  0  0  0  0
   57.9140   28.5310   45.1350 N   0  0  0  0  0  0  0  0  0  0  0  0
   58.1760   29.6760   44.2500 C   0  0  0  0  0  0  0  0  0  0  0  0
   59.2571   29.8784   44.2342 H   0  0  0  0  0  0  0  0  0  0  0  0
   57.8154   29.4284   43.2407 H   0  0  0  0  0  0  0  0  0  0  0  0
   57.4500   30.9090   44.7310 C   0  0  0  0  0  0  0  0  0  0  0  0
   56.1940   30.8600   44.8320 O   0  0  0  0  0  0  0  0  0  0  0  0
   58.1660   32.1530   45.1200 C   0  0  0  0  0  0  0  0  0  0  0  0
   57.7490   33.3870   44.6000 C   0  0  0  0  0  0  0  0  0  0  0  0
   56.9090   33.4254   43.8908 H   0  0  0  0  0  0  0  0  0  0  0  0
   58.3920   34.5650   44.9760 C   0  0  0  0  0  0  0  0  0  0  0  0
   58.0564   35.5268   44.5608 H   0  0  0  0  0  0  0  0  0  0  0  0
   59.4580   34.5330   45.8750 C   0  0  0  0  0  0  0  0  0  0  0  0
   59.9505   35.4722   46.1670 H   0  0  0  0  0  0  0  0  0  0  0  0
   59.9130   33.3100   46.4150 C   0  0  0  0  0  0  0  0  0  0  0  0
   61.0860   33.2250   47.4150 C   0  0  0  0  0  0  0  0  0  0  0  0
   60.8230   34.0050   48.7260 C   0  0  0  0  0  0  0  0  0  0  0  0
   61.0413   33.3575   49.5880 H   0  0  0  0  0  0  0  0  0  0  0  0
   61.4715   34.8929   48.7608 H   0  0  0  0  0  0  0  0  0  0  0  0
   59.7693   34.3189   48.7608 H   0  0  0  0  0  0  0  0  0  0  0  0
   62.3590   33.8130   46.7660 C   0  0  0  0  0  0  0  0  0  0  0  0
   63.0565   34.1352   47.5532 H   0  0  0  0  0  0  0  0  0  0  0  0
   62.8400   33.0458   46.1414 H   0  0  0  0  0  0  0  0  0  0  0  0
   62.0867   34.6766   46.1414 H   0  0  0  0  0  0  0  0  0  0  0  0
   61.3390   31.7480   47.7920 C   0  0  0  0  0  0  0  0  0  0  0  0
   61.3563   31.6469   48.8872 H   0  0  0  0  0  0  0  0  0  0  0  0
   60.5351   31.1212   47.3786 H   0  0  0  0  0  0  0  0  0  0  0  0
   62.3056   31.4245   47.3786 H   0  0  0  0  0  0  0  0  0  0  0  0
   59.2580   32.1250   46.0090 C   0  0  0  0  0  0  0  0  0  0  0  0
   59.6097   31.1576   46.3968 H   0  0  0  0  0  0  0  0  0  0  0  0
   56.6610   27.9870   45.2070 C   0  0  0  0  0  0  0  0  0  0  0  0
   55.8407   28.4132   44.6108 H   0  0  0  0  0  0  0  0  0  0  0  0
  1  2  1  0
  2  3  2  0
  3  4  1  0
  4  5  1  0
  5  6  1  0
  5  7  2  0
  7  8  1  0
  7  9  1  0
  9 10  1  0
 10 11  1  0
 10 12  1  0
 10 13  1  0
 13 14  2  0
 13 15  1  0
 15 16  2  0
 16 17  1  0
 16 18  1  0
 18 19  1  0
 18 20  2  0
 20 21  1  0
 20 22  1  0
 22 23  1  0
 23 24  1  0
 24 25  1  0
 24 26  1  0
 24 27  1  0
 23 28  1  0
 28 29  1  0
 28 30  1  0
 28 31  1  0
 23 32  1  0
 32 33  1  0
 32 34  1  0
 32 35  1  0
 22 36  2  0
 36 37  1  0
  9 38  2  0
 38 39  1  0
 38  3  1  0
 36 15  1  0
M  CHG  2   4  -1   9   1
M  END
>  <UniqueID>  (78) 
72

>  <SMILES>  (78) 
[H]/N=c1/c[n+](CC(=O)c2cccc(C(C)(C)C)c2)cc[n-]1

>  <Energy>  (78) 
42.27452324343173

>  <Genealogy>  (78) 
CC(C)(C)c1cccc(C(=O)C[n+]2cc[n-]c(=N)c2)c1 (protonated)
[H]/N=c1/c[n+](CC(=O)c2cccc(C(C)(C)C)c2)cc[n-]1 (cis-trans isomerization)
[H]/N=c1/c[n+](CC(=O)c2cccc(C(C)(C)C)c2)cc[n-]1 (3D coordinates assigned)
[H]/N=c1/c[n+](CC(=O)c2cccc(C(C)(C)C)c2)cc[n-]1 (optimized conformer: 42.27452324343173 kcal/mol)

>  <smiles>  (78) 
CC(C)(C)c1cccc(C(=O)C[n+]2cc[nH]c(=N)c2)c1

>  <score_type>  (78) 
oracle

>  <origin>  (78) 
adg

>  <m_score__min__energy>  (78) 
-8.5199999999999996

>  <m_primary>  (78) 
energy

$$$$
79:0
     RDKit          3D

 35 38  0  0  0  0  0  0  0  0999 V2000
   59.2830   34.0680   48.3570 F   0  0  0  0  0  0  0  0  0  0  0  0
   58.9000   33.6530   47.1240 C   0  0  0  0  0  0  0  0  0  0  0  0
   58.5580   34.5940   46.1480 C   0  0  0  0  0  0  0  0  0  0  0  0
   58.1640   34.1740   44.8720 C   0  0  0  0  0  0  0  0  0  0  0  0
   58.0920   32.8060   44.5680 C   0  0  0  0  0  0  0  0  0  0  0  0
   58.4510   31.8610   45.5580 C   0  0  0  0  0  0  0  0  0  0  0  0
   58.8500   32.2880   46.8310 C   0  0  0  0  0  0  0  0  0  0  0  0
   58.3490   30.4400   45.2130 C   0  0  0  0  0  0  0  0  0  0  0  0
   58.7180   29.3830   45.9620 N   0  0  0  0  0  0  0  0  0  0  0  0
   58.3820   28.3000   45.2730 N   0  0  0  0  0  0  0  0  0  0  0  0
   58.6540   26.9390   45.7200 C   0  0  0  0  0  0  0  0  0  0  0  0
   57.4390   26.0810   45.5060 C   0  0  0  0  0  0  0  0  0  0  0  0
   57.4870   24.9810   44.6370 C   0  0  0  0  0  0  0  0  0  0  0  0
   56.3650   24.1670   44.4790 C   0  0  0  0  0  0  0  0  0  0  0  0
   55.2050   24.4530   45.2020 C   0  0  0  0  0  0  0  0  0  0  0  0
   55.1780   25.5130   46.0540 N   0  0  0  0  0  0  0  0  0  0  0  0
   56.2580   26.3220   46.2250 C   0  0  0  0  0  0  0  0  0  0  0  0
   57.8090   28.6460   44.0980 C   0  0  0  0  0  0  0  0  0  0  0  0
   57.7930   30.0200   44.0380 C   0  0  0  0  0  0  0  0  0  0  0  0
   57.1380   30.9460   43.0620 C   0  0  0  0  0  0  0  0  0  0  0  0
   57.7690   32.3580   43.1460 C   0  0  0  0  0  0  0  0  0  0  0  0
   58.5987   35.6677   46.3835 H   0  0  0  0  0  0  0  0  0  0  0  0
   57.9097   34.9197   44.1043 H   0  0  0  0  0  0  0  0  0  0  0  0
   59.1236   31.5495   47.5990 H   0  0  0  0  0  0  0  0  0  0  0  0
   59.4973   26.5277   45.1459 H   0  0  0  0  0  0  0  0  0  0  0  0
   58.9059   26.9517   46.7907 H   0  0  0  0  0  0  0  0  0  0  0  0
   58.4095   24.7601   44.0800 H   0  0  0  0  0  0  0  0  0  0  0  0
   56.3938   23.3085   43.7918 H   0  0  0  0  0  0  0  0  0  0  0  0
   54.3128   23.8208   45.0825 H   0  0  0  0  0  0  0  0  0  0  0  0
   56.2057   27.1665   46.9279 H   0  0  0  0  0  0  0  0  0  0  0  0
   57.4263   27.9559   43.3316 H   0  0  0  0  0  0  0  0  0  0  0  0
   57.2695   30.5508   42.0439 H   0  0  0  0  0  0  0  0  0  0  0  0
   56.0677   31.0198   43.3050 H   0  0  0  0  0  0  0  0  0  0  0  0
   58.7018   32.3559   42.5630 H   0  0  0  0  0  0  0  0  0  0  0  0
   57.0252   33.0647   42.7493 H   0  0  0  0  0  0  0  0  0  0  0  0
  1  2  1  0
  2  3  2  0
  3  4  1  0
  4  5  2  0
  5  6  1  0
  6  7  2  0
  6  8  1  0
  8  9  2  0
  9 10  1  0
 10 11  1  0
 11 12  1  0
 12 13  2  0
 13 14  1  0
 14 15  2  0
 15 16  1  0
 16 17  2  0
 10 18  1  0
 18 19  2  0
 19 20  1  0
 20 21  1  0
  7  2  1  0
 19  8  1  0
 21  5  1  0
 17 12  1  0
  3 22  1  0
  4 23  1  0
  7 24  1  0
 11 25  1  0
 11 26  1  0
 13 27  1  0
 14 28  1  0
 15 29  1  0
 17 30  1  0
 18 31  1  0
 20 32  1  0
 20 33  1  0
 21 34  1  0
 21 35  1  0
M  END
>  <UniqueID>  (79) 
73

>  <SMILES>  (79) 
Fc1ccc2c(c1)-c1nn(Cc3cccnc3)cc1CC2

>  <Energy>  (79) 
74.35098786874585

>  <Genealogy>  (79) 
Fc1ccc2c(c1)-c1nn(Cc3cccnc3)cc1CC2 (3D coordinates assigned)
Fc1ccc2c(c1)-c1nn(Cc3cccnc3)cc1CC2 (nonaromatic ring conformer: 74.35098786874585 kcal/mol)

>  <smiles>  (79) 
Fc1ccc2c(c1)-c1nn(Cc3cccnc3)cc1CC2

>  <score_type>  (79) 
oracle

>  <origin>  (79) 
adg

>  <m_score__min__energy>  (79) 
-7.7199999999999998

>  <m_primary>  (79) 
energy

$$$$
80:0
     RDKit          3D

 52 55  0  0  0  0  0  0  0  0999 V2000
   59.7410   30.0970   48.0520 C   0  0  0  0  0  0  0  0  0  0  0  0
   60.0740   31.4610   48.3020 O   0  0  0  0  0  0  0  0  0  0  0  0
   61.3720   31.9930   48.2180 C   0  0  0  0  0  0  0  0  0  0  0  0
   62.4940   31.3230   48.7450 C   0  0  0  0  0  0  0  0  0  0  0  0
   63.7690   31.8930   48.6440 C   0  0  0  0  0  0  0  0  0  0  0  0
   63.9400   33.1330   48.0230 C   0  0  0  0  0  0  0  0  0  0  0  0
   62.8350   33.8060   47.4970 C   0  0  0  0  0  0  0  0  0  0  0  0
   61.5550   33.2400   47.5900 C   0  0  0  0  0  0  0  0  0  0  0  0
   60.4330   33.9330   47.0330 N   0  0  0  0  0  0  0  0  0  0  0  0
   59.2850   34.2660   47.8750 C   0  0  0  0  0  0  0  0  0  0  0  0
   58.0060   33.8650   47.1370 C   0  0  0  0  0  0  0  0  0  0  0  0
   57.8940   34.5240   45.8130 N   0  0  0  0  0  0  0  0  0  0  0  0
   57.0100   33.8010   44.8730 C   0  0  0  0  0  0  0  0  0  0  0  0
   57.5310   32.4370   44.5100 C   0  0  0  0  0  0  0  0  0  0  0  0
   58.1220   32.0810   43.3190 C   0  0  0  0  0  0  0  0  0  0  0  0
   58.3960   30.8030   43.3850 O   0  0  0  0  0  0  0  0  0  0  0  0
   57.9930   30.3750   44.5620 C   0  0  0  0  0  0  0  0  0  0  0  0
   58.1080   28.9720   45.0050 C   0  0  0  0  0  0  0  0  0  0  0  0
   59.3730   28.3880   45.1790 C   0  0  0  0  0  0  0  0  0  0  0  0
   59.4890   27.0590   45.6020 C   0  0  0  0  0  0  0  0  0  0  0  0
   58.3390   26.2980   45.8580 C   0  0  0  0  0  0  0  0  0  0  0  0
   58.4520   24.8680   46.3020 C   0  0  0  0  0  0  0  0  0  0  0  0
   57.0730   26.8730   45.6690 C   0  0  0  0  0  0  0  0  0  0  0  0
   56.9560   28.2000   45.2480 C   0  0  0  0  0  0  0  0  0  0  0  0
   57.4490   31.3580   45.3130 N   0  0  0  0  0  0  0  0  0  0  0  0
   59.1560   35.0200   45.2090 C   0  0  0  0  0  0  0  0  0  0  0  0
   60.3880   34.1810   45.5920 C   0  0  0  0  0  0  0  0  0  0  0  0
   59.6123   29.5697   49.0088 H   0  0  0  0  0  0  0  0  0  0  0  0
   58.8044   30.0476   47.4772 H   0  0  0  0  0  0  0  0  0  0  0  0
   60.5495   29.6216   47.4772 H   0  0  0  0  0  0  0  0  0  0  0  0
   62.3677   30.3478   49.2380 H   0  0  0  0  0  0  0  0  0  0  0  0
   64.6401   31.3621   49.0555 H   0  0  0  0  0  0  0  0  0  0  0  0
   64.9431   33.5783   47.9485 H   0  0  0  0  0  0  0  0  0  0  0  0
   62.9689   34.7825   47.0085 H   0  0  0  0  0  0  0  0  0  0  0  0
   59.3515   33.7175   48.8262 H   0  0  0  0  0  0  0  0  0  0  0  0
   59.2743   35.3455   48.0863 H   0  0  0  0  0  0  0  0  0  0  0  0
   58.0080   32.7747   46.9912 H   0  0  0  0  0  0  0  0  0  0  0  0
   57.1489   34.1853   47.7476 H   0  0  0  0  0  0  0  0  0  0  0  0
   56.0206   33.6859   45.3398 H   0  0  0  0  0  0  0  0  0  0  0  0
   56.9596   34.3921   43.9467 H   0  0  0  0  0  0  0  0  0  0  0  0
   58.3264   32.7478   42.4684 H   0  0  0  0  0  0  0  0  0  0  0  0
   60.2793   28.9793   44.9814 H   0  0  0  0  0  0  0  0  0  0  0  0
   60.4845   26.6102   45.7340 H   0  0  0  0  0  0  0  0  0  0  0  0
   58.4554   24.8245   47.4011 H   0  0  0  0  0  0  0  0  0  0  0  0
   57.5963   24.2952   45.9151 H   0  0  0  0  0  0  0  0  0  0  0  0
   59.3870   24.4367   45.9151 H   0  0  0  0  0  0  0  0  0  0  0  0
   56.1679   26.2757   45.8533 H   0  0  0  0  0  0  0  0  0  0  0  0
   55.9595   28.6436   45.1058 H   0  0  0  0  0  0  0  0  0  0  0  0
   59.0490   35.0027   44.1144 H   0  0  0  0  0  0  0  0  0  0  0  0
   59.3229   36.0366   45.5945 H   0  0  0  0  0  0  0  0  0  0  0  0
   60.3441   33.2173   45.0634 H   0  0  0  0  0  0  0  0  0  0  0  0
   61.2917   34.7395   45.3067 H   0  0  0  0  0  0  0  0  0  0  0  0
  1  2  1  0
  2  3  1  0
  3  4  2  0
  4  5  1  0
  5  6  2  0
  6  7  1  0
  7  8  2  0
  8  9  1  0
  9 10  1  0
 10 11  1  0
 11 12  1  0
 12 13  1  0
 13 14  1  0
 14 15  2  0
 15 16  1  0
 16 17  1  0
 17 18  1  0
 18 19  2  0
 19 20  1  0
 20 21  2  0
 21 22  1  0
 21 23  1  0
 23 24  2  0
 17 25  2  0
 12 26  1  0
 26 27  1  0
  8  3  1  0
 27  9  1  0
 25 14  1  0
 24 18  1  0
  1 28  1  0
  1 29  1  0
  1 30  1  0
  4 31  1  0
  5 32  1  0
  6 33  1  0
  7 34  1  0
 10 35  1  0
 10 36  1  0
 11 37  1  0
 11 38  1  0
 13 39  1  0
 13 40  1  0
 15 41  1  0
 19 42  1  0
 20 43  1  0
 22 44  1  0
 22 45  1  0
 22 46  1  0
 23 47  1  0
 24 48  1  0
 26 49  1  0
 26 50  1  0
 27 51  1  0
 27 52  1  0
M  END
>  <UniqueID>  (80) 
74

>  <SMILES>  (80) 
COc1ccccc1N1CCN(Cc2coc(-c3ccc(C)cc3)n2)CC1

>  <Energy>  (80) 
95.60073235211809

>  <Genealogy>  (80) 
COc1ccccc1N1CCN(Cc2coc(-c3ccc(C)cc3)n2)CC1 (3D coordinates assigned)
COc1ccccc1N1CCN(Cc2coc(-c3ccc(C)cc3)n2)CC1 (nonaromatic ring conformer: 95.60073235211809 kcal/mol)

>  <smiles>  (80) 
COc1ccccc1N1CCN(Cc2coc(-c3ccc(C)cc3)n2)CC1

>  <score_type>  (80) 
oracle

>  <origin>  (80) 
adg

>  <m_score__min__energy>  (80) 
-8.7400000000000002

>  <m_primary>  (80) 
energy

$$$$
81:0
     RDKit          3D

 52 53  0  0  0  0  0  0  0  0999 V2000
   56.6400   29.3530   42.9450 C   0  0  0  0  0  0  0  0  0  0  0  0
   55.7860   29.8870   44.0850 C   0  0  0  0  0  0  0  0  0  0  0  0
   55.5300   28.8430   45.0010 O   0  0  0  0  0  0  0  0  0  0  0  0
   56.7080   28.0940   45.2460 C   0  0  0  0  0  0  0  0  0  0  0  0
   56.3470   26.7350   45.8490 C   0  0  0  0  0  0  0  0  0  0  0  0
   57.4160   26.2300   46.6280 O   0  0  0  0  0  0  0  0  0  0  0  0
   58.5740   26.0150   45.8400 C   0  0  0  0  0  0  0  0  0  0  0  0
   59.8220   26.0330   46.7170 C   0  0  0  0  0  0  0  0  0  0  0  0
   60.5200   27.2610   46.5250 O   0  0  0  0  0  0  0  0  0  0  0  0
   59.8980   28.5050   46.3430 C   0  0  0  0  0  0  0  0  0  0  0  0
   59.8400   29.1440   45.0890 C   0  0  0  0  0  0  0  0  0  0  0  0
   59.2100   30.3860   44.9610 C   0  0  0  0  0  0  0  0  0  0  0  0
   58.6300   31.0020   46.0760 C   0  0  0  0  0  0  0  0  0  0  0  0
   57.8710   32.5840   45.9060 S   0  0  0  0  0  0  0  0  0  0  0  0
   56.6020   32.4340   45.1130 O   0  0  0  0  0  0  0  0  0  0  0  0
   57.5240   33.1420   47.2580 O   0  0  0  0  0  0  0  0  0  0  0  0
   58.9370   33.6780   45.0780 N   0  0  0  0  0  0  0  0  0  0  0  0
   59.2440   34.8210   45.9460 C   0  0  0  0  0  0  0  0  0  0  0  0
   60.5290   34.5720   46.7540 C   0  0  1  0  0  0  0  0  0  0  0  0
   60.2570   34.3020   48.2350 C   0  0  0  0  0  0  0  0  0  0  0  0
   60.6240   32.8590   48.4050 C   0  0  0  0  0  0  0  0  0  0  0  0
   61.5700   32.6130   47.2510 C   0  0  0  0  0  0  0  0  0  0  0  0
   61.2370   33.4840   46.1970 O   0  0  0  0  0  0  0  0  0  0  0  0
   58.6920   30.3720   47.3250 C   0  0  0  0  0  0  0  0  0  0  0  0
   59.3210   29.1290   47.4550 C   0  0  0  0  0  0  0  0  0  0  0  0
   57.5048   28.8122   43.3569 H   0  0  0  0  0  0  0  0  0  0  0  0
   56.0402   28.6688   42.3269 H   0  0  0  0  0  0  0  0  0  0  0  0
   56.9925   30.1918   42.3269 H   0  0  0  0  0  0  0  0  0  0  0  0
   56.3210   30.7015   44.5953 H   0  0  0  0  0  0  0  0  0  0  0  0
   54.8353   30.2709   43.6865 H   0  0  0  0  0  0  0  0  0  0  0  0
   57.2462   27.9411   44.2989 H   0  0  0  0  0  0  0  0  0  0  0  0
   57.3462   28.6449   45.9525 H   0  0  0  0  0  0  0  0  0  0  0  0
   55.4581   26.8483   46.4870 H   0  0  0  0  0  0  0  0  0  0  0  0
   56.1436   26.0291   45.0303 H   0  0  0  0  0  0  0  0  0  0  0  0
   58.4962   25.0385   45.3396 H   0  0  0  0  0  0  0  0  0  0  0  0
   58.6513   26.8171   45.0912 H   0  0  0  0  0  0  0  0  0  0  0  0
   59.5293   25.9388   47.7732 H   0  0  0  0  0  0  0  0  0  0  0  0
   60.4760   25.1925   46.4414 H   0  0  0  0  0  0  0  0  0  0  0  0
   60.2915   28.6647   44.2079 H   0  0  0  0  0  0  0  0  0  0  0  0
   59.1701   30.8811   43.9795 H   0  0  0  0  0  0  0  0  0  0  0  0
   59.8210   33.1490   44.9010 H   0  0  0  0  0  0  0  0  0  0  0  0
   59.3785   35.7185   45.3244 H   0  0  0  0  0  0  0  0  0  0  0  0
   58.4098   34.9600   46.6495 H   0  0  0  0  0  0  0  0  0  0  0  0
   61.1292   35.4921   46.6972 H   0  0  0  0  0  0  0  0  0  0  0  0
   60.8829   34.9439   48.8724 H   0  0  0  0  0  0  0  0  0  0  0  0
   59.2171   34.5147   48.5236 H   0  0  0  0  0  0  0  0  0  0  0  0
   61.1240   32.6888   49.3699 H   0  0  0  0  0  0  0  0  0  0  0  0
   59.7536   32.1863   48.4043 H   0  0  0  0  0  0  0  0  0  0  0  0
   62.6043   32.8024   47.5742 H   0  0  0  0  0  0  0  0  0  0  0  0
   61.4846   31.5694   46.9141 H   0  0  0  0  0  0  0  0  0  0  0  0
   58.2451   30.8555   48.2062 H   0  0  0  0  0  0  0  0  0  0  0  0
   59.3623   28.6384   48.4387 H   0  0  0  0  0  0  0  0  0  0  0  0
  1  2  1  0
  2  3  1  0
  3  4  1  0
  4  5  1  0
  5  6  1  0
  6  7  1  0
  7  8  1  0
  8  9  1  0
  9 10  1  0
 10 11  2  0
 11 12  1  0
 12 13  2  0
 13 14  1  0
 14 15  2  0
 14 16  2  0
 14 17  1  0
 17 18  1  0
 18 19  1  0
 19 20  1  0
 20 21  1  0
 21 22  1  0
 22 23  1  0
 13 24  1  0
 24 25  2  0
 25 10  1  0
 23 19  1  0
  1 26  1  0
  1 27  1  0
  1 28  1  0
  2 29  1  0
  2 30  1  0
  4 31  1  0
  4 32  1  0
  5 33  1  0
  5 34  1  0
  7 35  1  0
  7 36  1  0
  8 37  1  0
  8 38  1  0
 11 39  1  0
 12 40  1  0
 17 41  1  0
 18 42  1  0
 18 43  1  0
 19 44  1  1
 20 45  1  0
 20 46  1  0
 21 47  1  0
 21 48  1  0
 22 49  1  0
 22 50  1  0
 24 51  1  0
 25 52  1  0
M  END
>  <UniqueID>  (81) 
75

>  <SMILES>  (81) 
CCOCCOCCOc1ccc(S(=O)(=O)NC[C@H]2CCCO2)cc1

>  <Energy>  (81) 
44.528384535996096

>  <Genealogy>  (81) 
CCOCCOCCOc1ccc(S(=O)(=O)NC[C@H]2CCCO2)cc1 (chirality)
CCOCCOCCOc1ccc(S(=O)(=O)NC[C@H]2CCCO2)cc1 (3D coordinates assigned)
CCOCCOCCOc1ccc(S(=O)(=O)NC[C@H]2CCCO2)cc1 (nonaromatic ring conformer: 44.528384535996096 kcal/mol)

>  <smiles>  (81) 
CCOCCOCCOc1ccc(S(=O)(=O)NCC2CCCO2)cc1

>  <score_type>  (81) 
oracle

>  <origin>  (81) 
adg

>  <m_score__min__energy>  (81) 
-7.1100000000000003

>  <m_primary>  (81) 
energy

$$$$
82:0
     RDKit          3D

 34 35  0  0  0  0  0  0  0  0999 V2000
   56.6330   29.1042   42.4332 H   0  0  0  0  0  0  0  0  0  0  0  0
   57.1810   28.9810   43.3790 C   0  0  0  0  0  0  0  0  0  0  0  0
   57.2230   30.1440   44.2920 C   0  0  0  0  0  0  0  0  0  0  0  0
   56.1660   30.5860   44.8190 O   0  0  0  0  0  0  0  0  0  0  0  0
   58.4840   30.7770   44.5580 N   0  0  0  0  0  0  0  0  0  0  0  0
   59.3540   30.2450   44.3280 H   0  0  0  0  0  0  0  0  0  0  0  0
   58.6270   32.0350   45.2410 C   0  0  0  0  0  0  0  0  0  0  0  0
   58.4510   33.2310   44.5270 C   0  0  0  0  0  0  0  0  0  0  0  0
   58.2218   33.1965   43.4517 H   0  0  0  0  0  0  0  0  0  0  0  0
   58.5650   34.4650   45.1730 C   0  0  0  0  0  0  0  0  0  0  0  0
   58.4390   35.3973   44.6029 H   0  0  0  0  0  0  0  0  0  0  0  0
   58.8390   34.5160   46.5430 C   0  0  0  0  0  0  0  0  0  0  0  0
   58.9450   35.7140   47.1690 F   0  0  0  0  0  0  0  0  0  0  0  0
   58.9930   33.3310   47.2680 C   0  0  0  0  0  0  0  0  0  0  0  0
   59.2028   33.3712   48.3471 H   0  0  0  0  0  0  0  0  0  0  0  0
   58.8810   32.0950   46.6250 C   0  0  0  0  0  0  0  0  0  0  0  0
   58.9917   31.1653   47.2023 H   0  0  0  0  0  0  0  0  0  0  0  0
   57.7540   27.7880   43.6050 C   0  0  0  0  0  0  0  0  0  0  0  0
   57.9401   27.1428   42.7338 H   0  0  0  0  0  0  0  0  0  0  0  0
   58.1550   27.2720   44.9320 C   0  0  0  0  0  0  0  0  0  0  0  0
   57.3560   26.3230   45.5950 C   0  0  0  0  0  0  0  0  0  0  0  0
   56.4487   25.9362   45.1080 H   0  0  0  0  0  0  0  0  0  0  0  0
   57.7080   25.8690   46.8680 C   0  0  0  0  0  0  0  0  0  0  0  0
   57.0871   25.1147   47.3735 H   0  0  0  0  0  0  0  0  0  0  0  0
   58.8460   26.3710   47.4990 C   0  0  0  0  0  0  0  0  0  0  0  0
   59.1243   26.0079   48.4994 H   0  0  0  0  0  0  0  0  0  0  0  0
   59.6330   27.3340   46.8630 C   0  0  0  0  0  0  0  0  0  0  0  0
   60.5254   27.7318   47.3684 H   0  0  0  0  0  0  0  0  0  0  0  0
   59.2900   27.7990   45.5770 C   0  0  0  0  0  0  0  0  0  0  0  0
   60.0560   28.7730   44.9140 O   0  0  0  0  0  0  0  0  0  0  0  0
   61.4050   28.5940   44.4950 C   0  0  0  0  0  0  0  0  0  0  0  0
   62.0549   28.5078   45.3783 H   0  0  0  0  0  0  0  0  0  0  0  0
   61.4830   27.6776   43.8915 H   0  0  0  0  0  0  0  0  0  0  0  0
   61.7193   29.4583   43.8915 H   0  0  0  0  0  0  0  0  0  0  0  0
  1  2  1  0
  2  3  1  0
  3  4  2  0
  3  5  1  0
  5  6  1  0
  5  7  1  0
  7  8  2  0
  8  9  1  0
  8 10  1  0
 10 11  1  0
 10 12  2  0
 12 13  1  0
 12 14  1  0
 14 15  1  0
 14 16  2  0
 16 17  1  0
  2 18  2  0
 18 19  1  0
 18 20  1  0
 20 21  2  0
 21 22  1  0
 21 23  1  0
 23 24  1  0
 23 25  2  0
 25 26  1  0
 25 27  1  0
 27 28  1  0
 27 29  2  0
 29 30  1  0
 30 31  1  0
 31 32  1  0
 31 33  1  0
 31 34  1  0
 16  7  1  0
 29 20  1  0
M  END
>  <UniqueID>  (82) 
76

>  <SMILES>  (82) 
COc1ccccc1/C=C\C(=O)Nc1ccc(F)cc1

>  <Energy>  (82) 
45.4991847862981

>  <Genealogy>  (82) 
COc1ccccc1/C=C\C(=O)Nc1ccc(F)cc1 (cis-trans isomerization)
COc1ccccc1/C=C\C(=O)Nc1ccc(F)cc1 (3D coordinates assigned)
COc1ccccc1/C=C\C(=O)Nc1ccc(F)cc1 (optimized conformer: 45.4991847862981 kcal/mol)

>  <smiles>  (82) 
COc1ccccc1C=CC(=O)Nc1ccc(F)cc1

>  <score_type>  (82) 
oracle

>  <origin>  (82) 
adg

>  <m_score__min__energy>  (82) 
-7

>  <m_primary>  (82) 
energy

$$$$
83:0
     RDKit          3D

 27 28  0  0  0  0  0  0  0  0999 V2000
   59.5360   35.3170   47.1300 C   0  0  0  0  0  0  0  0  0  0  0  0
   59.0090   34.1960   46.2840 C   0  0  0  0  0  0  0  0  0  0  0  0
   58.8440   34.3700   44.9010 C   0  0  0  0  0  0  0  0  0  0  0  0
   58.3170   33.3390   44.1180 C   0  0  0  0  0  0  0  0  0  0  0  0
   57.9360   32.1310   44.7140 C   0  0  0  0  0  0  0  0  0  0  0  0
   57.2520   30.8100   43.7110 S   0  0  0  0  0  0  0  0  0  0  0  0
   58.2570   29.5560   44.5140 C   0  0  0  0  0  0  0  0  0  0  0  0
   59.6100   29.7140   44.4860 N   0  0  0  0  0  0  0  0  0  0  0  0
   60.4510   28.8530   45.1140 C   0  0  0  0  0  0  0  0  0  0  0  0
   59.9380   27.7740   45.8280 C   0  0  0  0  0  0  0  0  0  0  0  0
   58.5580   27.5800   45.8770 C   0  0  0  0  0  0  0  0  0  0  0  0
   57.6920   28.4620   45.2080 C   0  0  0  0  0  0  0  0  0  0  0  0
   56.2720   28.2330   45.2470 N   0  0  0  0  0  0  0  0  0  0  0  0
   55.4830   29.1340   44.8930 O   0  0  0  0  0  0  0  0  0  0  0  0
   55.7580   27.0960   45.8260 O   0  0  0  0  0  0  0  0  0  0  0  0
   58.0890   31.9560   46.0940 C   0  0  0  0  0  0  0  0  0  0  0  0
   58.6150   32.9860   46.8780 C   0  0  0  0  0  0  0  0  0  0  0  0
   59.4160   35.0617   48.1932 H   0  0  0  0  0  0  0  0  0  0  0  0
   60.6020   35.4736   46.9086 H   0  0  0  0  0  0  0  0  0  0  0  0
   58.9764   36.2378   46.9086 H   0  0  0  0  0  0  0  0  0  0  0  0
   59.1308   35.3223   44.4311 H   0  0  0  0  0  0  0  0  0  0  0  0
   58.2016   33.4770   43.0328 H   0  0  0  0  0  0  0  0  0  0  0  0
   61.5386   29.0082   45.0585 H   0  0  0  0  0  0  0  0  0  0  0  0
   60.6149   27.0807   46.3488 H   0  0  0  0  0  0  0  0  0  0  0  0
   58.1448   26.7318   46.4425 H   0  0  0  0  0  0  0  0  0  0  0  0
   57.7945   31.0054   46.5626 H   0  0  0  0  0  0  0  0  0  0  0  0
   58.7209   32.8486   47.9642 H   0  0  0  0  0  0  0  0  0  0  0  0
  1  2  1  0
  2  3  2  0
  3  4  1  0
  4  5  2  0
  5  6  1  0
  6  7  1  0
  7  8  2  0
  8  9  1  0
  9 10  2  0
 10 11  1  0
 11 12  2  0
 12 13  1  0
 13 14  2  0
 13 15  1  0
  5 16  1  0
 16 17  2  0
 17  2  1  0
 12  7  1  0
  1 18  1  0
  1 19  1  0
  1 20  1  0
  3 21  1  0
  4 22  1  0
  9 23  1  0
 10 24  1  0
 11 25  1  0
 16 26  1  0
 17 27  1  0
M  CHG  2  13   1  15  -1
M  END
>  <UniqueID>  (83) 
77

>  <SMILES>  (83) 
Cc1ccc(Sc2ncccc2[N+](=O)[O-])cc1

>  <Energy>  (83) 
27.868765069365338

>  <Genealogy>  (83) 
Cc1ccc(Sc2ncccc2[N+](=O)[O-])cc1 (3D coordinates assigned)
Cc1ccc(Sc2ncccc2[N+](=O)[O-])cc1 (optimized conformer: 27.868765069365338 kcal/mol)

>  <smiles>  (83) 
Cc1ccc(Sc2ncccc2[N+](=O)[O-])cc1

>  <score_type>  (83) 
oracle

>  <origin>  (83) 
adg

>  <m_score__min__energy>  (83) 
-7.3200000000000003

>  <m_primary>  (83) 
energy

$$$$
84:0
     RDKit          3D

 32 34  0  0  0  0  0  0  0  0999 V2000
   59.0740   33.3990   51.6150 C   0  0  0  0  0  0  0  0  0  0  0  0
   59.3280   34.1870   50.4590 O   0  0  0  0  0  0  0  0  0  0  0  0
   60.4090   33.9400   49.6080 C   0  0  0  0  0  0  0  0  0  0  0  0
   61.6090   33.4570   50.0400 N   0  0  0  0  0  0  0  0  0  0  0  0
   62.3230   33.4060   48.9000 C   0  0  0  0  0  0  0  0  0  0  0  0
   63.6390   33.0150   48.7090 C   0  0  0  0  0  0  0  0  0  0  0  0
   64.1430   33.0820   47.4390 N   0  0  0  0  0  0  0  0  0  0  0  0
   63.3750   33.5260   46.3900 C   0  0  0  0  0  0  0  0  0  0  0  0
   62.0790   33.9110   46.5920 N   0  0  0  0  0  0  0  0  0  0  0  0
   61.5840   33.8350   47.8510 C   0  0  0  0  0  0  0  0  0  0  0  0
   60.3580   34.1700   48.2710 N   0  0  0  0  0  0  0  0  0  0  0  0
   59.2710   34.7690   47.5000 C   0  0  0  0  0  0  0  0  0  0  0  0
   58.7430   33.7740   46.5020 C   0  0  0  0  0  0  0  0  0  0  0  0
   58.6370   32.4170   46.8430 C   0  0  0  0  0  0  0  0  0  0  0  0
   58.1050   31.4990   45.9320 C   0  0  0  0  0  0  0  0  0  0  0  0
   57.6660   31.9330   44.6750 C   0  0  0  0  0  0  0  0  0  0  0  0
   57.1170   30.9890   43.7370 C   0  0  0  0  0  0  0  0  0  0  0  0
   56.6750   30.2310   42.9830 N   0  0  0  0  0  0  0  0  0  0  0  0
   57.7570   33.2890   44.3340 C   0  0  0  0  0  0  0  0  0  0  0  0
   58.2890   34.2060   45.2450 C   0  0  0  0  0  0  0  0  0  0  0  0
   59.2672   33.9983   52.5170 H   0  0  0  0  0  0  0  0  0  0  0  0
   58.0243   33.0701   51.6112 H   0  0  0  0  0  0  0  0  0  0  0  0
   59.7340   32.5190   51.6112 H   0  0  0  0  0  0  0  0  0  0  0  0
   64.2562   32.6633   49.5488 H   0  0  0  0  0  0  0  0  0  0  0  0
   65.1320   32.7940   47.2650 H   0  0  0  0  0  0  0  0  0  0  0  0
   63.8065   33.5721   45.3792 H   0  0  0  0  0  0  0  0  0  0  0  0
   58.4609   35.0667   48.1820 H   0  0  0  0  0  0  0  0  0  0  0  0
   59.6499   35.6525   46.9653 H   0  0  0  0  0  0  0  0  0  0  0  0
   58.9741   32.0735   47.8321 H   0  0  0  0  0  0  0  0  0  0  0  0
   58.0313   30.4354   46.2029 H   0  0  0  0  0  0  0  0  0  0  0  0
   57.4094   33.6322   43.3484 H   0  0  0  0  0  0  0  0  0  0  0  0
   58.3524   35.2708   44.9763 H   0  0  0  0  0  0  0  0  0  0  0  0
  1  2  1  0
  2  3  1  0
  3  4  2  0
  4  5  1  0
  5  6  2  0
  6  7  1  0
  7  8  2  0
  8  9  1  0
  9 10  2  0
 10 11  1  0
 11 12  1  0
 12 13  1  0
 13 14  2  0
 14 15  1  0
 15 16  2  0
 16 17  1  0
 17 18  3  0
 16 19  1  0
 19 20  2  0
 11  3  1  0
 20 13  1  0
 10  5  1  0
  1 21  1  0
  1 22  1  0
  1 23  1  0
  6 24  1  0
  7 25  1  0
  8 26  1  0
 12 27  1  0
 12 28  1  0
 14 29  1  0
 15 30  1  0
 19 31  1  0
 20 32  1  0
M  CHG  1   7   1
M  END
>  <UniqueID>  (84) 
78

>  <SMILES>  (84) 
COc1nc2c[nH+]cnc2n1Cc1ccc(C#N)cc1

>  <Energy>  (84) 
69.90492778296036

>  <Genealogy>  (84) 
COc1nc2c[nH+]cnc2n1Cc1ccc(C#N)cc1 (protonated)
COc1nc2c[nH+]cnc2n1Cc1ccc(C#N)cc1 (3D coordinates assigned)
COc1nc2c[nH+]cnc2n1Cc1ccc(C#N)cc1 (optimized conformer: 69.90492778296036 kcal/mol)

>  <smiles>  (84) 
COc1nc2cncnc2n1Cc1ccc(C#N)cc1

>  <score_type>  (84) 
oracle

>  <origin>  (84) 
adg

>  <m_score__min__energy>  (84) 
-5.5300000000000002

>  <m_primary>  (84) 
energy

$$$$
85:0
     RDKit          3D

 51 53  0  0  0  0  0  0  0  0999 V2000
   58.0640   33.1440   47.2660 C   0  0  0  0  0  0  0  0  0  0  0  0
   58.3850   33.2900   45.8370 N   0  0  0  0  0  0  0  0  0  0  0  0
   58.9830   34.6170   45.6000 C   0  0  0  0  0  0  0  0  0  0  0  0
   57.1710   33.1010   45.0120 C   0  0  0  0  0  0  0  0  0  0  0  0
   57.3900   32.0100   43.9560 C   0  0  0  0  0  0  0  0  0  0  0  0
   57.2920   30.6620   44.5580 N   0  0  0  0  0  0  0  0  0  0  0  0
   56.1350   29.9450   44.4440 C   0  0  0  0  0  0  0  0  0  0  0  0
   55.1520   30.4080   43.8000 O   0  0  0  0  0  0  0  0  0  0  0  0
   56.0280   28.7230   45.0180 N   0  0  0  0  0  0  0  0  0  0  0  0
   57.0610   28.1920   45.7310 C   0  0  0  0  0  0  0  0  0  0  0  0
   56.9600   27.0090   46.2800 N   0  0  0  0  0  0  0  0  0  0  0  0
   56.7990   25.7490   45.6140 C   0  0  0  0  0  0  0  0  0  0  0  0
   57.9300   24.9610   45.3700 C   0  0  0  0  0  0  0  0  0  0  0  0
   57.8010   23.7060   44.7660 C   0  0  0  0  0  0  0  0  0  0  0  0
   58.9100   22.9610   44.5280 F   0  0  0  0  0  0  0  0  0  0  0  0
   56.5280   23.2190   44.4260 C   0  0  0  0  0  0  0  0  0  0  0  0
   56.3860   21.9230   43.8140 C   0  0  0  0  0  0  0  0  0  0  0  0
   56.2700   20.8820   43.3230 N   0  0  0  0  0  0  0  0  0  0  0  0
   55.3910   23.9870   44.7070 C   0  0  0  0  0  0  0  0  0  0  0  0
   55.5230   25.2430   45.3100 C   0  0  0  0  0  0  0  0  0  0  0  0
   54.4080   25.9530   45.6160 F   0  0  0  0  0  0  0  0  0  0  0  0
   58.2350   28.8920   45.8450 N   0  0  0  0  0  0  0  0  0  0  0  0
   59.3910   28.3030   46.5600 C   0  0  0  0  0  0  0  0  0  0  0  0
   59.7450   29.1370   47.7650 C   0  0  0  0  0  0  0  0  0  0  0  0
   58.9710   29.0640   48.9370 C   0  0  0  0  0  0  0  0  0  0  0  0
   59.3290   29.8080   50.0680 C   0  0  0  0  0  0  0  0  0  0  0  0
   60.4610   30.6320   50.0350 C   0  0  0  0  0  0  0  0  0  0  0  0
   60.9110   31.5580   51.4550 Cl  0  0  0  0  0  0  0  0  0  0  0  0
   61.2330   30.7130   48.8700 C   0  0  0  0  0  0  0  0  0  0  0  0
   60.8820   29.9670   47.7400 C   0  0  0  0  0  0  0  0  0  0  0  0
   58.3420   30.1300   45.2600 C   0  0  0  0  0  0  0  0  0  0  0  0
   59.4170   30.7860   45.3690 O   0  0  0  0  0  0  0  0  0  0  0  0
   58.9006   33.5245   47.8705 H   0  0  0  0  0  0  0  0  0  0  0  0
   57.1539   33.7167   47.4978 H   0  0  0  0  0  0  0  0  0  0  0  0
   57.8976   32.0816   47.4978 H   0  0  0  0  0  0  0  0  0  0  0  0
   59.2002   35.0989   46.5647 H   0  0  0  0  0  0  0  0  0  0  0  0
   59.9163   34.5020   45.0293 H   0  0  0  0  0  0  0  0  0  0  0  0
   58.2786   35.2400   45.0293 H   0  0  0  0  0  0  0  0  0  0  0  0
   56.3347   32.8083   45.6639 H   0  0  0  0  0  0  0  0  0  0  0  0
   56.9452   34.0469   44.4979 H   0  0  0  0  0  0  0  0  0  0  0  0
   56.6254   32.1101   43.1715 H   0  0  0  0  0  0  0  0  0  0  0  0
   58.3970   32.1313   43.5304 H   0  0  0  0  0  0  0  0  0  0  0  0
   55.1420   28.1910   44.8700 H   0  0  0  0  0  0  0  0  0  0  0  0
   58.9260   25.3309   45.6549 H   0  0  0  0  0  0  0  0  0  0  0  0
   54.3922   23.6022   44.4532 H   0  0  0  0  0  0  0  0  0  0  0  0
   59.1342   27.2846   46.8870 H   0  0  0  0  0  0  0  0  0  0  0  0
   60.2547   28.2753   45.8794 H   0  0  0  0  0  0  0  0  0  0  0  0
   58.0801   28.4194   48.9653 H   0  0  0  0  0  0  0  0  0  0  0  0
   58.7210   29.7452   50.9826 H   0  0  0  0  0  0  0  0  0  0  0  0
   62.1183   31.3653   48.8431 H   0  0  0  0  0  0  0  0  0  0  0  0
   61.4960   30.0290   46.8294 H   0  0  0  0  0  0  0  0  0  0  0  0
  1  2  1  0
  2  3  1  0
  2  4  1  0
  4  5  1  0
  5  6  1  0
  6  7  1  0
  7  8  2  0
  7  9  1  0
  9 10  1  0
 10 11  2  3
 11 12  1  0
 12 13  2  0
 13 14  1  0
 14 15  1  0
 14 16  2  0
 16 17  1  0
 17 18  3  0
 16 19  1  0
 19 20  2  0
 20 21  1  0
 10 22  1  0
 22 23  1  0
 23 24  1  0
 24 25  2  0
 25 26  1  0
 26 27  2  0
 27 28  1  0
 27 29  1  0
 29 30  2  0
 22 31  1  0
 31 32  2  0
 31  6  1  0
 20 12  1  0
 30 24  1  0
  1 33  1  0
  1 34  1  0
  1 35  1  0
  3 36  1  0
  3 37  1  0
  3 38  1  0
  4 39  1  0
  4 40  1  0
  5 41  1  0
  5 42  1  0
  9 43  1  0
 13 44  1  0
 19 45  1  0
 23 46  1  0
 23 47  1  0
 25 48  1  0
 26 49  1  0
 29 50  1  0
 30 51  1  0
M  END
>  <UniqueID>  (85) 
79

>  <SMILES>  (85) 
CN(C)CCn1c(=O)[nH]c(=Nc2cc(F)c(C#N)cc2F)n(Cc2ccc(Cl)cc2)c1=O

>  <Energy>  (85) 
67.27281125647315

>  <Genealogy>  (85) 
CN(C)CCn1c(=O)[nH]c(=Nc2cc(F)c(C#N)cc2F)n(Cc2ccc(Cl)cc2)c1=O (3D coordinates assigned)
CN(C)CCn1c(=O)[nH]c(=Nc2cc(F)c(C#N)cc2F)n(Cc2ccc(Cl)cc2)c1=O (optimized conformer: 67.27281125647315 kcal/mol)

>  <smiles>  (85) 
CN(C)CCn1c(=O)[nH]c(=Nc2cc(F)c(C#N)cc2F)n(Cc2ccc(Cl)cc2)c1=O

>  <score_type>  (85) 
oracle

>  <origin>  (85) 
adg

>  <m_score__min__energy>  (85) 
-8.1300000000000008

>  <m_primary>  (85) 
energy

$$$$
86:0
     RDKit          3D

 49 52  0  0  0  0  0  0  0  0999 V2000
   56.3740   31.2960   44.7910 O   0  0  0  0  0  0  0  0  0  0  0  0
   56.4160   30.0500   44.8260 N   0  0  0  0  0  0  0  0  0  0  0  0
   55.2010   29.3950   44.8790 O   0  0  0  0  0  0  0  0  0  0  0  0
   57.6390   29.3160   44.8130 C   0  0  0  0  0  0  0  0  0  0  0  0
   57.7190   28.2520   43.9490 C   0  0  0  0  0  0  0  0  0  0  0  0
   58.8980   27.5340   43.9270 C   0  0  0  0  0  0  0  0  0  0  0  0
   59.9700   27.8550   44.7360 C   0  0  0  0  0  0  0  0  0  0  0  0
   59.8590   28.9410   45.6040 C   0  0  0  0  0  0  0  0  0  0  0  0
   58.6990   29.6790   45.6510 C   0  0  0  0  0  0  0  0  0  0  0  0
   58.4860   30.7890   46.4890 N   0  0  0  0  0  0  0  0  0  0  0  0
   59.1320   31.0520   47.5710 C   0  0  0  0  0  0  0  0  0  0  0  0
   60.3650   31.5830   47.5960 N   0  0  0  0  0  0  0  0  0  0  0  0
   61.0120   31.8430   48.7630 C   0  0  0  0  0  0  0  0  0  0  0  0
   62.3190   32.4090   48.7480 N   0  0  0  0  0  0  0  0  0  0  0  0
   62.6060   33.3690   47.7030 C   0  0  0  0  0  0  0  0  0  0  0  0
   64.0810   33.2790   47.3920 C   0  0  0  0  0  0  0  0  0  0  0  0
   64.7700   33.4780   48.5830 O   0  0  0  0  0  0  0  0  0  0  0  0
   64.6860   32.3760   49.4270 C   0  0  0  0  0  0  0  0  0  0  0  0
   63.2710   32.0040   49.7580 C   0  0  0  0  0  0  0  0  0  0  0  0
   60.3530   31.5400   49.8950 N   0  0  0  0  0  0  0  0  0  0  0  0
   59.1170   31.0090   49.9120 C   0  0  0  0  0  0  0  0  0  0  0  0
   58.4870   30.7160   51.1560 N   0  0  0  0  0  0  0  0  0  0  0  0
   57.5290   31.6370   51.7550 C   0  0  0  0  0  0  0  0  0  0  0  0
   56.2360   30.8490   51.8760 C   0  0  0  0  0  0  0  0  0  0  0  0
   56.4240   29.5720   52.3510 O   0  0  0  0  0  0  0  0  0  0  0  0
   57.6520   29.3380   52.9170 C   0  0  0  0  0  0  0  0  0  0  0  0
   58.7600   29.4930   51.8870 C   0  0  0  0  0  0  0  0  0  0  0  0
   58.4860   30.7560   48.7310 N   0  0  0  0  0  0  0  0  0  0  0  0
   56.8746   27.9815   43.2981 H   0  0  0  0  0  0  0  0  0  0  0  0
   58.9863   26.6777   43.2422 H   0  0  0  0  0  0  0  0  0  0  0  0
   60.8967   27.2636   44.6965 H   0  0  0  0  0  0  0  0  0  0  0  0
   60.7042   29.2091   46.2550 H   0  0  0  0  0  0  0  0  0  0  0  0
   62.0181   33.1317   46.8041 H   0  0  0  0  0  0  0  0  0  0  0  0
   62.3416   34.3856   48.0295 H   0  0  0  0  0  0  0  0  0  0  0  0
   64.3188   32.2866   46.9814 H   0  0  0  0  0  0  0  0  0  0  0  0
   64.3676   34.0354   46.6465 H   0  0  0  0  0  0  0  0  0  0  0  0
   65.1689   31.5188   48.9350 H   0  0  0  0  0  0  0  0  0  0  0  0
   65.1878   32.6414   50.3692 H   0  0  0  0  0  0  0  0  0  0  0  0
   63.2153   30.9113   49.8714 H   0  0  0  0  0  0  0  0  0  0  0  0
   63.0049   32.5326   50.6852 H   0  0  0  0  0  0  0  0  0  0  0  0
   60.7990   31.7180   50.8200 H   0  0  0  0  0  0  0  0  0  0  0  0
   57.8760   31.9624   52.7468 H   0  0  0  0  0  0  0  0  0  0  0  0
   57.3999   32.5457   51.1486 H   0  0  0  0  0  0  0  0  0  0  0  0
   55.5639   31.3829   52.5640 H   0  0  0  0  0  0  0  0  0  0  0  0
   55.8088   30.7633   50.8660 H   0  0  0  0  0  0  0  0  0  0  0  0
   57.8156   30.0567   53.7335 H   0  0  0  0  0  0  0  0  0  0  0  0
   57.6715   28.3083   53.3035 H   0  0  0  0  0  0  0  0  0  0  0  0
   59.7363   29.5622   52.3890 H   0  0  0  0  0  0  0  0  0  0  0  0
   58.7915   28.6274   51.2089 H   0  0  0  0  0  0  0  0  0  0  0  0
  1  2  2  0
  2  3  1  0
  2  4  1  0
  4  5  2  0
  5  6  1  0
  6  7  2  0
  7  8  1  0
  8  9  2  0
  9 10  1  0
 10 11  2  3
 11 12  1  0
 12 13  2  0
 13 14  1  0
 14 15  1  0
 15 16  1  0
 16 17  1  0
 17 18  1  0
 18 19  1  0
 13 20  1  0
 20 21  1  0
 21 22  1  0
 22 23  1  0
 23 24  1  0
 24 25  1  0
 25 26  1  0
 26 27  1  0
 21 28  2  0
  9  4  1  0
 28 11  1  0
 19 14  1  0
 27 22  1  0
  5 29  1  0
  6 30  1  0
  7 31  1  0
  8 32  1  0
 15 33  1  0
 15 34  1  0
 16 35  1  0
 16 36  1  0
 18 37  1  0
 18 38  1  0
 19 39  1  0
 19 40  1  0
 20 41  1  0
 23 42  1  0
 23 43  1  0
 24 44  1  0
 24 45  1  0
 26 46  1  0
 26 47  1  0
 27 48  1  0
 27 49  1  0
M  CHG  2   2   1   3  -1
M  END
>  <smiles>  (86) 
O=[N+]([O-])c1ccccc1N=c1nc(N2CCOCC2)[nH]c(N2CCOCC2)n1

>  <score_type>  (86) 
oracle

>  <origin>  (86) 
adg

>  <m_score__min__energy>  (86) 
-7.6299999999999999

>  <m_primary>  (86) 
energy

$$$$
87:0
     RDKit          3D

 44 47  0  0  0  0  0  0  0  0999 V2000
   55.8940   29.7190   43.0350 C   0  0  0  0  0  0  0  0  0  0  0  0
   56.7500   30.2760   44.1230 C   0  0  0  0  0  0  0  0  0  0  0  0
   56.7510   31.5800   44.5170 N   0  0  0  0  0  0  0  0  0  0  0  0
   57.5700   31.6980   45.5630 N   0  0  0  0  0  0  0  0  0  0  0  0
   57.7990   32.9530   46.2870 C   0  0  0  0  0  0  0  0  0  0  0  0
   57.8310   34.1680   45.3190 C   0  0  0  0  0  0  0  0  0  0  0  0
   59.1830   34.8940   45.3020 C   0  0  0  0  0  0  0  0  0  0  0  0
   59.6270   35.3010   46.7170 C   0  0  0  0  0  0  0  0  0  0  0  0
   59.4120   34.2000   47.7800 C   0  0  0  0  0  0  0  0  0  0  0  0
   59.0580   32.8400   47.1700 C   0  0  0  0  0  0  0  0  0  0  0  0
   58.0520   30.4730   45.8260 C   0  0  0  0  0  0  0  0  0  0  0  0
   59.0600   29.7870   46.9720 S   0  0  0  0  0  0  0  0  0  0  0  0
   58.8420   28.2170   46.3070 C   0  0  0  0  0  0  0  0  0  0  0  0
   59.4980   27.0060   46.8330 C   0  0  0  0  0  0  0  0  0  0  0  0
   60.7440   27.0110   47.0090 O   0  0  0  0  0  0  0  0  0  0  0  0
   58.7680   25.8010   47.0990 N   0  0  0  0  0  0  0  0  0  0  0  0
   57.6740   25.2890   46.3250 C   0  0  0  0  0  0  0  0  0  0  0  0
   57.8750   24.1480   45.5390 C   0  0  0  0  0  0  0  0  0  0  0  0
   56.8240   23.6170   44.7830 C   0  0  0  0  0  0  0  0  0  0  0  0
   55.5620   24.2160   44.8210 C   0  0  0  0  0  0  0  0  0  0  0  0
   55.3470   25.3420   45.6210 C   0  0  0  0  0  0  0  0  0  0  0  0
   54.1180   25.9130   45.6680 F   0  0  0  0  0  0  0  0  0  0  0  0
   56.3950   25.8740   46.3780 C   0  0  0  0  0  0  0  0  0  0  0  0
   57.9870   28.2660   45.1880 C   0  0  0  0  0  0  0  0  0  0  0  0
   57.5720   29.5700   44.9710 C   0  0  0  0  0  0  0  0  0  0  0  0
   55.0499   29.1697   43.4774 H   0  0  0  0  0  0  0  0  0  0  0  0
   55.5107   30.5411   42.4128 H   0  0  0  0  0  0  0  0  0  0  0  0
   56.4904   29.0355   42.4128 H   0  0  0  0  0  0  0  0  0  0  0  0
   56.9515   33.1358   46.9639 H   0  0  0  0  0  0  0  0  0  0  0  0
   57.6139   33.8100   44.3018 H   0  0  0  0  0  0  0  0  0  0  0  0
   57.0787   34.8878   45.6739 H   0  0  0  0  0  0  0  0  0  0  0  0
   59.9414   34.2253   44.8688 H   0  0  0  0  0  0  0  0  0  0  0  0
   59.0741   35.8083   44.7001 H   0  0  0  0  0  0  0  0  0  0  0  0
   60.6983   35.5488   46.6863 H   0  0  0  0  0  0  0  0  0  0  0  0
   59.0045   36.1581   47.0136 H   0  0  0  0  0  0  0  0  0  0  0  0
   60.3374   34.0917   48.3647 H   0  0  0  0  0  0  0  0  0  0  0  0
   58.5636   34.5099   48.4078 H   0  0  0  0  0  0  0  0  0  0  0  0
   59.9002   32.4890   46.5556 H   0  0  0  0  0  0  0  0  0  0  0  0
   58.8579   32.1274   47.9837 H   0  0  0  0  0  0  0  0  0  0  0  0
   58.8638   23.6666   45.5156 H   0  0  0  0  0  0  0  0  0  0  0  0
   56.9913   22.7273   44.1582 H   0  0  0  0  0  0  0  0  0  0  0  0
   54.7380   23.8016   44.2216 H   0  0  0  0  0  0  0  0  0  0  0  0
   56.2195   26.7522   47.0168 H   0  0  0  0  0  0  0  0  0  0  0  0
   57.6931   27.3990   44.5782 H   0  0  0  0  0  0  0  0  0  0  0  0
  1  2  1  0
  2  3  2  0
  3  4  1  0
  4  5  1  0
  5  6  1  0
  6  7  1  0
  7  8  1  0
  8  9  1  0
  9 10  1  0
  4 11  1  0
 11 12  1  0
 12 13  1  0
 13 14  1  0
 14 15  2  0
 14 16  1  0
 16 17  1  0
 17 18  2  0
 18 19  1  0
 19 20  2  0
 20 21  1  0
 21 22  1  0
 21 23  2  0
 13 24  2  0
 24 25  1  0
 25  2  1  0
 10  5  1  0
 25 11  2  0
 23 17  1  0
  1 26  1  0
  1 27  1  0
  1 28  1  0
  5 29  1  0
  6 30  1  0
  6 31  1  0
  7 32  1  0
  7 33  1  0
  8 34  1  0
  8 35  1  0
  9 36  1  0
  9 37  1  0
 10 38  1  0
 10 39  1  0
 18 40  1  0
 19 41  1  0
 20 42  1  0
 23 43  1  0
 24 44  1  0
M  CHG  1  16  -1
M  END
>  <UniqueID>  (87) 
80

>  <SMILES>  (87) 
Cc1nn(C2CCCCC2)c2sc(C(=O)[N-]c3cccc(F)c3)cc12

>  <Energy>  (87) 
134.45112621347857

>  <Genealogy>  (87) 
Cc1nn(C2CCCCC2)c2sc(C(=O)[N-]c3cccc(F)c3)cc12 (protonated)
Cc1nn(C2CCCCC2)c2sc(C(=O)[N-]c3cccc(F)c3)cc12 (3D coordinates assigned)
Cc1nn(C2CCCCC2)c2sc(C(=O)[N-]c3cccc(F)c3)cc12 (nonaromatic ring conformer: 134.45112621347857 kcal/mol)

>  <smiles>  (87) 
Cc1nn(C2CCCCC2)c2sc(C(=O)Nc3cccc(F)c3)cc12

>  <score_type>  (87) 
oracle

>  <origin>  (87) 
adg

>  <m_score__min__energy>  (87) 
-10.15

>  <m_primary>  (87) 
energy

$$$$
88:0
     RDKit          3D

 35 36  0  0  0  0  0  0  0  0999 V2000
   60.4250   27.9040   49.0180 C   0  0  0  0  0  0  0  0  0  0  0  0
   60.1400   27.0430   47.9190 O   0  0  0  0  0  0  0  0  0  0  0  0
   59.4890   27.4460   46.7450 C   0  0  0  0  0  0  0  0  0  0  0  0
   58.1280   27.1500   46.6040 C   0  0  0  0  0  0  0  0  0  0  0  0
   57.4370   27.5200   45.4480 C   0  0  0  0  0  0  0  0  0  0  0  0
   58.0990   28.1960   44.4090 C   0  0  0  0  0  0  0  0  0  0  0  0
   57.3980   28.5240   43.1930 N   0  0  0  0  0  0  0  0  0  0  0  0
   56.6590   29.7560   43.3670 C   0  0  0  0  0  0  0  0  0  0  0  0
   55.2680   29.7330   43.7440 S   0  0  0  0  0  0  0  0  0  0  0  0
   57.5330   31.3310   43.3840 S   0  0  0  0  0  0  0  0  0  0  0  0
   57.5670   31.4760   45.2040 C   0  0  0  0  0  0  0  0  0  0  0  0
   58.3090   32.7210   45.5900 C   0  0  0  0  0  0  0  0  0  0  0  0
   58.6690   32.9390   46.9300 C   0  0  0  0  0  0  0  0  0  0  0  0
   59.3280   34.1170   47.2990 C   0  0  0  0  0  0  0  0  0  0  0  0
   59.6250   35.0840   46.3350 C   0  0  0  0  0  0  0  0  0  0  0  0
   59.2620   34.8780   45.0010 C   0  0  0  0  0  0  0  0  0  0  0  0
   58.6010   33.7020   44.6280 C   0  0  0  0  0  0  0  0  0  0  0  0
   59.4670   28.4930   44.5490 C   0  0  0  0  0  0  0  0  0  0  0  0
   60.1560   28.1260   45.7080 C   0  0  0  0  0  0  0  0  0  0  0  0
   60.2470   27.3662   49.9609 H   0  0  0  0  0  0  0  0  0  0  0  0
   61.4767   28.2230   48.9708 H   0  0  0  0  0  0  0  0  0  0  0  0
   59.7714   28.7875   48.9708 H   0  0  0  0  0  0  0  0  0  0  0  0
   57.5984   26.6216   47.4104 H   0  0  0  0  0  0  0  0  0  0  0  0
   56.3678   27.2807   45.3502 H   0  0  0  0  0  0  0  0  0  0  0  0
   56.7240   27.7630   42.9430 H   0  0  0  0  0  0  0  0  0  0  0  0
   58.0910   28.5880   42.4100 H   0  0  0  0  0  0  0  0  0  0  0  0
   56.5373   31.5285   45.5874 H   0  0  0  0  0  0  0  0  0  0  0  0
   58.0725   30.5985   45.6335 H   0  0  0  0  0  0  0  0  0  0  0  0
   58.4322   32.1815   47.6916 H   0  0  0  0  0  0  0  0  0  0  0  0
   59.6124   34.2819   48.3487 H   0  0  0  0  0  0  0  0  0  0  0  0
   60.1451   36.0085   46.6263 H   0  0  0  0  0  0  0  0  0  0  0  0
   59.4960   35.6407   44.2437 H   0  0  0  0  0  0  0  0  0  0  0  0
   58.3095   33.5456   43.5789 H   0  0  0  0  0  0  0  0  0  0  0  0
   59.9977   29.0176   43.7408 H   0  0  0  0  0  0  0  0  0  0  0  0
   61.2238   28.3693   45.8107 H   0  0  0  0  0  0  0  0  0  0  0  0
  1  2  1  0
  2  3  1  0
  3  4  2  0
  4  5  1  0
  5  6  2  0
  6  7  1  0
  7  8  1  0
  8  9  2  0
  8 10  1  0
 10 11  1  0
 11 12  1  0
 12 13  2  0
 13 14  1  0
 14 15  2  0
 15 16  1  0
 16 17  2  0
  6 18  1  0
 18 19  2  0
 19  3  1  0
 17 12  1  0
  1 20  1  0
  1 21  1  0
  1 22  1  0
  4 23  1  0
  5 24  1  0
  7 25  1  0
  7 26  1  0
 11 27  1  0
 11 28  1  0
 13 29  1  0
 14 30  1  0
 15 31  1  0
 16 32  1  0
 17 33  1  0
 18 34  1  0
 19 35  1  0
M  CHG  1   7   1
M  END
>  <UniqueID>  (88) 
81

>  <SMILES>  (88) 
COc1ccc([NH2+]C(=S)SCc2ccccc2)cc1

>  <Energy>  (88) 
31.44656514496472

>  <Genealogy>  (88) 
COc1ccc([NH2+]C(=S)SCc2ccccc2)cc1 (protonated)
COc1ccc([NH2+]C(=S)SCc2ccccc2)cc1 (3D coordinates assigned)
COc1ccc([NH2+]C(=S)SCc2ccccc2)cc1 (optimized conformer: 31.44656514496472 kcal/mol)

>  <smiles>  (88) 
COc1ccc(NC(=S)SCc2ccccc2)cc1

>  <score_type>  (88) 
oracle

>  <origin>  (88) 
adg

>  <m_score__min__energy>  (88) 
-6.0099999999999998

>  <m_primary>  (88) 
energy

$$$$
89:0
     RDKit          3D

 48 51  0  0  0  0  0  0  0  0999 V2000
   55.8980   27.3930   45.6260 O   0  0  0  0  0  0  0  0  0  0  0  0
   56.7440   28.3010   45.4000 C   0  0  0  0  0  0  0  0  0  0  0  0
   56.3970   29.4150   44.4590 C   0  0  0  0  0  0  0  0  0  0  0  0
   57.6690   30.1170   43.9720 C   0  0  0  0  0  0  0  0  0  0  0  0
   57.9930   31.3080   44.8470 C   0  0  0  0  0  0  0  0  0  0  0  0
   57.0300   32.2580   44.8830 N   0  0  0  0  0  0  0  0  0  0  0  0
   56.9040   33.4350   45.5250 C   0  0  0  0  0  0  0  0  0  0  0  0
   57.8270   34.0060   46.3750 C   0  0  0  0  0  0  0  0  0  0  0  0
   59.0600   33.5080   46.7650 C   0  0  0  0  0  0  0  0  0  0  0  0
   59.8120   34.2460   47.6210 N   0  0  0  0  0  0  0  0  0  0  0  0
   60.9070   33.5070   47.8050 C   0  0  0  0  0  0  0  0  0  0  0  0
   61.9990   33.8290   48.6080 C   0  0  0  0  0  0  0  0  0  0  0  0
   63.0620   32.9170   48.6680 C   0  0  0  0  0  0  0  0  0  0  0  0
   63.0070   31.7170   47.9320 C   0  0  0  0  0  0  0  0  0  0  0  0
   61.8900   31.4210   47.1290 C   0  0  0  0  0  0  0  0  0  0  0  0
   60.8300   32.3510   47.0840 C   0  0  0  0  0  0  0  0  0  0  0  0
   59.6450   32.3230   46.4010 N   0  0  0  0  0  0  0  0  0  0  0  0
   59.2100   31.3180   45.5700 C   0  0  0  0  0  0  0  0  0  0  0  0
   59.9440   30.3040   45.4170 O   0  0  0  0  0  0  0  0  0  0  0  0
   58.0130   28.2930   46.0690 N   0  0  0  0  0  0  0  0  0  0  0  0
   58.3670   27.2880   47.0680 C   0  0  0  0  0  0  0  0  0  0  0  0
   59.7870   27.5310   47.5880 C   0  0  0  0  0  0  0  0  0  0  0  0
   59.8070   28.6810   48.5600 C   0  0  0  0  0  0  0  0  0  0  0  0
   60.8060   28.7590   49.5450 C   0  0  0  0  0  0  0  0  0  0  0  0
   60.8400   29.8420   50.4290 C   0  0  0  0  0  0  0  0  0  0  0  0
   59.8860   30.8590   50.3270 C   0  0  0  0  0  0  0  0  0  0  0  0
   58.9000   30.7970   49.3380 C   0  0  0  0  0  0  0  0  0  0  0  0
   58.8600   29.7130   48.4540 C   0  0  0  0  0  0  0  0  0  0  0  0
   55.8559   29.0038   43.5941 H   0  0  0  0  0  0  0  0  0  0  0  0
   55.7658   30.1450   44.9868 H   0  0  0  0  0  0  0  0  0  0  0  0
   58.5081   29.4065   44.0045 H   0  0  0  0  0  0  0  0  0  0  0  0
   57.5057   30.4692   42.9428 H   0  0  0  0  0  0  0  0  0  0  0  0
   55.9732   33.9959   45.3545 H   0  0  0  0  0  0  0  0  0  0  0  0
   57.5490   34.9826   46.7981 H   0  0  0  0  0  0  0  0  0  0  0  0
   62.0263   34.7698   49.1774 H   0  0  0  0  0  0  0  0  0  0  0  0
   63.9409   33.1388   49.2911 H   0  0  0  0  0  0  0  0  0  0  0  0
   63.8442   31.0055   47.9855 H   0  0  0  0  0  0  0  0  0  0  0  0
   61.8444   30.4867   46.5501 H   0  0  0  0  0  0  0  0  0  0  0  0
   58.7260   29.0130   45.8130 H   0  0  0  0  0  0  0  0  0  0  0  0
   57.6585   27.3458   47.9075 H   0  0  0  0  0  0  0  0  0  0  0  0
   58.3219   26.2916   46.6041 H   0  0  0  0  0  0  0  0  0  0  0  0
   60.1465   26.6233   48.0948 H   0  0  0  0  0  0  0  0  0  0  0  0
   60.4390   27.7756   46.7365 H   0  0  0  0  0  0  0  0  0  0  0  0
   61.5639   27.9654   49.6210 H   0  0  0  0  0  0  0  0  0  0  0  0
   61.6178   29.8938   51.2051 H   0  0  0  0  0  0  0  0  0  0  0  0
   59.9113   31.7085   51.0254 H   0  0  0  0  0  0  0  0  0  0  0  0
   58.1545   31.6015   49.2546 H   0  0  0  0  0  0  0  0  0  0  0  0
   58.0853   29.6689   47.6744 H   0  0  0  0  0  0  0  0  0  0  0  0
  1  2  2  0
  2  3  1  0
  3  4  1  0
  4  5  1  0
  5  6  2  0
  6  7  1  0
  7  8  2  0
  8  9  1  0
  9 10  2  0
 10 11  1  0
 11 12  2  0
 12 13  1  0
 13 14  2  0
 14 15  1  0
 15 16  2  0
 16 17  1  0
 17 18  1  0
 18 19  2  0
  2 20  1  0
 20 21  1  0
 21 22  1  0
 22 23  1  0
 23 24  2  0
 24 25  1  0
 25 26  2  0
 26 27  1  0
 27 28  2  0
 18  5  1  0
 28 23  1  0
 17  9  1  0
 16 11  1  0
  3 29  1  0
  3 30  1  0
  4 31  1  0
  4 32  1  0
  7 33  1  0
  8 34  1  0
 12 35  1  0
 13 36  1  0
 14 37  1  0
 15 38  1  0
 20 39  1  0
 21 40  1  0
 21 41  1  0
 22 42  1  0
 22 43  1  0
 24 44  1  0
 25 45  1  0
 26 46  1  0
 27 47  1  0
 28 48  1  0
M  END
>  <UniqueID>  (89) 
82

>  <SMILES>  (89) 
O=C(CCc1nccc2nc3ccccc3n2c1=O)NCCc1ccccc1

>  <Energy>  (89) 
106.94200269793625

>  <Genealogy>  (89) 
O=C(CCc1nccc2nc3ccccc3n2c1=O)NCCc1ccccc1 (3D coordinates assigned)
O=C(CCc1nccc2nc3ccccc3n2c1=O)NCCc1ccccc1 (optimized conformer: 106.94200269793625 kcal/mol)

>  <smiles>  (89) 
O=C(CCc1nccc2nc3ccccc3n2c1=O)NCCc1ccccc1

>  <score_type>  (89) 
oracle

>  <origin>  (89) 
adg

>  <m_score__min__energy>  (89) 
-8.6300000000000008

>  <m_primary>  (89) 
energy

$$$$
90:0
     RDKit          3D

 58 63  0  0  0  0  0  0  0  0999 V2000
   61.7760   25.0430   53.9310 H   0  0  0  0  0  0  0  0  0  0  0  0
   61.1730   25.7460   53.4440 N   0  0  0  0  0  0  0  0  0  0  0  0
   60.6160   26.7160   54.0900 C   0  0  0  0  0  0  0  0  0  0  0  0
   59.3660   27.1330   53.7550 N   0  0  0  0  0  0  0  0  0  0  0  0
   58.7550   28.1480   54.4260 C   0  0  0  0  0  0  0  0  0  0  0  0
   57.4120   28.5760   53.9890 C   0  0  0  0  0  0  0  0  0  0  0  0
   57.0160   29.8180   53.4530 C   0  0  0  0  0  0  0  0  0  0  0  0
   58.0140   30.9340   53.0710 C   0  0  0  0  0  0  0  0  0  0  0  0
   58.2394   31.3319   54.0714 H   0  0  0  0  0  0  0  0  0  0  0  0
   59.2750   30.3750   52.3650 C   0  0  0  0  0  0  0  0  0  0  0  0
   60.1059   31.0809   52.5108 H   0  0  0  0  0  0  0  0  0  0  0  0
   59.5044   29.3938   52.8061 H   0  0  0  0  0  0  0  0  0  0  0  0
   59.0520   30.1780   50.8650 C   0  0  0  0  0  0  0  0  0  0  0  0
   59.9737   29.7905   50.4064 H   0  0  0  0  0  0  0  0  0  0  0  0
   58.2319   29.4613   50.7104 H   0  0  0  0  0  0  0  0  0  0  0  0
   58.6980   31.4660   50.2400 N   0  0  0  0  0  0  0  0  0  0  0  0
   58.6380   31.3160   48.7720 C   0  0  0  0  0  0  0  0  0  0  0  0
   59.4154   30.6076   48.4498 H   0  0  0  0  0  0  0  0  0  0  0  0
   57.6410   30.9419   48.4962 H   0  0  0  0  0  0  0  0  0  0  0  0
   58.8630   32.6410   48.0890 C   0  0  0  0  0  0  0  0  0  0  0  0
   59.8000   33.5530   48.5970 C   0  0  0  0  0  0  0  0  0  0  0  0
   60.3743   33.3022   49.5010 H   0  0  0  0  0  0  0  0  0  0  0  0
   60.0010   34.7460   47.9760 N   0  0  0  0  0  0  0  0  0  0  0  0
   59.3160   35.0910   46.8510 C   0  0  0  0  0  0  0  0  0  0  0  0
   59.5029   36.0622   46.3696 H   0  0  0  0  0  0  0  0  0  0  0  0
   58.3760   34.2120   46.3080 C   0  0  0  0  0  0  0  0  0  0  0  0
   57.8200   34.4855   45.3991 H   0  0  0  0  0  0  0  0  0  0  0  0
   58.1490   32.9830   46.9300 C   0  0  0  0  0  0  0  0  0  0  0  0
   57.4108   32.2828   46.5119 H   0  0  0  0  0  0  0  0  0  0  0  0
   57.4020   31.9260   50.7770 C   0  0  0  0  0  0  0  0  0  0  0  0
   57.1147   32.8634   50.2782 H   0  0  0  0  0  0  0  0  0  0  0  0
   56.6428   31.1520   50.5911 H   0  0  0  0  0  0  0  0  0  0  0  0
   57.5080   32.1700   52.2970 C   0  0  0  0  0  0  0  0  0  0  0  0
   58.2056   33.0025   52.4708 H   0  0  0  0  0  0  0  0  0  0  0  0
   56.4971   32.3986   52.6655 H   0  0  0  0  0  0  0  0  0  0  0  0
   55.6740   29.7180   53.2010 N   0  0  0  0  0  0  0  0  0  0  0  0
   54.7290   30.6180   52.7970 C   0  0  0  0  0  0  0  0  0  0  0  0
   55.0049   31.6698   52.6309 H   0  0  0  0  0  0  0  0  0  0  0  0
   53.3970   30.1950   52.5930 C   0  0  0  0  0  0  0  0  0  0  0  0
   52.3620   31.1430   52.0980 C   0  0  0  0  0  0  0  0  0  0  0  0
   51.4900   31.9140   52.8470 C   0  0  0  0  0  0  0  0  0  0  0  0
   51.4523   31.9472   53.9459 H   0  0  0  0  0  0  0  0  0  0  0  0
   50.6950   32.6170   52.0180 N   0  0  0  0  0  0  0  0  0  0  0  0
   51.0250   32.3270   50.7700 N   0  0  0  0  0  0  0  0  0  0  0  0
   52.0320   31.4360   50.7860 C   0  0  0  0  0  0  0  0  0  0  0  0
   52.5171   31.0075   49.8966 H   0  0  0  0  0  0  0  0  0  0  0  0
   53.0690   28.8520   52.8730 C   0  0  0  0  0  0  0  0  0  0  0  0
   52.0411   28.4955   52.7105 H   0  0  0  0  0  0  0  0  0  0  0  0
   54.0400   27.9720   53.3550 C   0  0  0  0  0  0  0  0  0  0  0  0
   53.7220   26.6880   53.6570 F   0  0  0  0  0  0  0  0  0  0  0  0
   55.3380   28.4480   53.5150 C   0  0  0  0  0  0  0  0  0  0  0  0
   56.3650   27.7310   53.9890 N   0  0  0  0  0  0  0  0  0  0  0  0
   56.3540   26.7350   54.3040 H   0  0  0  0  0  0  0  0  0  0  0  0
   59.4090   28.7370   55.5130 C   0  0  0  0  0  0  0  0  0  0  0  0
   58.9154   29.5219   56.1049 H   0  0  0  0  0  0  0  0  0  0  0  0
   60.6970   28.3120   55.8330 C   0  0  0  0  0  0  0  0  0  0  0  0
   61.2421   28.7831   56.6643 H   0  0  0  0  0  0  0  0  0  0  0  0
   61.2770   27.3170   55.1180 N   0  0  0  0  0  0  0  0  0  0  0  0
  1  2  1  0
  2  3  2  0
  3  4  1  0
  4  5  2  0
  5  6  1  0
  6  7  2  0
  7  8  1  0
  8  9  1  0
  8 10  1  0
 10 11  1  0
 10 12  1  0
 10 13  1  0
 13 14  1  0
 13 15  1  0
 13 16  1  0
 16 17  1  0
 17 18  1  0
 17 19  1  0
 17 20  1  0
 20 21  2  0
 21 22  1  0
 21 23  1  0
 23 24  2  0
 24 25  1  0
 24 26  1  0
 26 27  1  0
 26 28  2  0
 28 29  1  0
 16 30  1  0
 30 31  1  0
 30 32  1  0
 30 33  1  0
 33 34  1  0
 33 35  1  0
  7 36  1  0
 36 37  1  0
 37 38  1  0
 37 39  2  0
 39 40  1  0
 40 41  1  0
 41 42  1  0
 41 43  2  0
 43 44  1  0
 44 45  1  0
 45 46  1  0
 39 47  1  0
 47 48  1  0
 47 49  2  0
 49 50  1  0
 49 51  1  0
 51 52  2  0
 52 53  1  0
  5 54  1  0
 54 55  1  0
 54 56  2  0
 56 57  1  0
 56 58  1  0
 58  3  1  0
 52  6  1  0
 33  8  1  0
 51 36  1  0
 28 20  1  0
 45 40  2  0
M  CHG  3  44  -1  52   1  58  -1
M  END
>  <UniqueID>  (90) 
83

>  <SMILES>  (90) 
[H]/N=c1\nc(-c2[nH+]c3c(F)cc(-c4cn[n-]c4)cn3c2C2CCN(Cc3cccnc3)CC2)cc[n-]1

>  <Energy>  (90) 
152.8101881121954

>  <Genealogy>  (90) 
N=c1nc(-c2[nH+]c3c(F)cc(-c4cn[n-]c4)cn3c2C2CCN(Cc3cccnc3)CC2)cc[n-]1 (protonated)
[H]/N=c1\nc(-c2[nH+]c3c(F)cc(-c4cn[n-]c4)cn3c2C2CCN(Cc3cccnc3)CC2)cc[n-]1 (cis-trans isomerization)
[H]/N=c1\nc(-c2[nH+]c3c(F)cc(-c4cn[n-]c4)cn3c2C2CCN(Cc3cccnc3)CC2)cc[n-]1 (3D coordinates assigned)
[H]/N=c1\nc(-c2[nH+]c3c(F)cc(-c4cn[n-]c4)cn3c2C2CCN(Cc3cccnc3)CC2)cc[n-]1 (nonaromatic ring conformer: 152.8101881121954 kcal/mol)

>  <smiles>  (90) 
N=c1nc(-c2nc3c(F)cc(-c4cn[nH]c4)cn3c2C2CCN(Cc3cccnc3)CC2)cc[nH]1

>  <score_type>  (90) 
oracle

>  <origin>  (90) 
adg

>  <m_score__min__energy>  (90) 
-10.32

>  <m_primary>  (90) 
energy

$$$$
91:0
     RDKit          3D

 44 47  0  0  0  0  0  0  0  0999 V2000
   54.5890   25.9680   45.6370 F   0  0  0  0  0  0  0  0  0  0  0  0
   55.0740   24.7030   45.3600 C   0  0  0  0  0  0  0  0  0  0  0  0
   54.5190   23.8000   46.2470 F   0  0  0  0  0  0  0  0  0  0  0  0
   56.5940   24.6890   45.5000 C   0  0  0  0  0  0  0  0  0  0  0  0
   57.2000   25.5810   44.5640 O   0  0  0  0  0  0  0  0  0  0  0  0
   57.7280   26.8470   44.8640 C   0  0  0  0  0  0  0  0  0  0  0  0
   58.7520   27.4480   44.1050 C   0  0  0  0  0  0  0  0  0  0  0  0
   59.2360   28.7130   44.4510 C   0  0  0  0  0  0  0  0  0  0  0  0
   58.7020   29.4050   45.5500 C   0  0  0  0  0  0  0  0  0  0  0  0
   59.2170   30.7340   45.9410 C   0  0  0  0  0  0  0  0  0  0  0  0
   60.3290   30.8980   46.6850 N   0  0  0  0  0  0  0  0  0  0  0  0
   60.5370   32.1970   46.8400 N   0  0  0  0  0  0  0  0  0  0  0  0
   61.6430   32.7410   47.5890 C   0  0  0  0  0  0  0  0  0  0  0  0
   61.4040   33.4400   48.7870 C   0  0  0  0  0  0  0  0  0  0  0  0
   62.4660   33.9730   49.5250 C   0  0  0  0  0  0  0  0  0  0  0  0
   63.7800   33.8080   49.0800 C   0  0  0  0  0  0  0  0  0  0  0  0
   64.0330   33.1120   47.8960 C   0  0  0  0  0  0  0  0  0  0  0  0
   62.9750   32.5790   47.1540 C   0  0  0  0  0  0  0  0  0  0  0  0
   59.5600   32.8850   46.2100 C   0  0  0  0  0  0  0  0  0  0  0  0
   58.6820   31.9810   45.6400 C   0  0  0  0  0  0  0  0  0  0  0  0
   57.4330   32.3030   44.8650 C   0  0  0  0  0  0  0  0  0  0  0  0
   56.8950   31.0900   44.1710 C   0  0  0  0  0  0  0  0  0  0  0  0
   55.7790   30.4330   44.5380 N   0  0  0  0  0  0  0  0  0  0  0  0
   55.6340   29.4790   43.6270 N   0  0  0  0  0  0  0  0  0  0  0  0
   56.6090   29.5530   42.7340 N   0  0  0  0  0  0  0  0  0  0  0  0
   57.4060   30.5570   43.0520 N   0  0  0  0  0  0  0  0  0  0  0  0
   57.7020   28.7930   46.3200 C   0  0  0  0  0  0  0  0  0  0  0  0
   57.2170   27.5280   45.9740 C   0  0  0  0  0  0  0  0  0  0  0  0
   54.8055   24.4248   44.3302 H   0  0  0  0  0  0  0  0  0  0  0  0
   56.8646   24.9990   46.5201 H   0  0  0  0  0  0  0  0  0  0  0  0
   56.9561   23.6698   45.2995 H   0  0  0  0  0  0  0  0  0  0  0  0
   59.1722   26.9195   43.2366 H   0  0  0  0  0  0  0  0  0  0  0  0
   60.0416   29.1700   43.8576 H   0  0  0  0  0  0  0  0  0  0  0  0
   60.3723   33.5684   49.1463 H   0  0  0  0  0  0  0  0  0  0  0  0
   62.2664   34.5226   50.4567 H   0  0  0  0  0  0  0  0  0  0  0  0
   64.6147   34.2260   49.6618 H   0  0  0  0  0  0  0  0  0  0  0  0
   65.0679   32.9828   47.5463 H   0  0  0  0  0  0  0  0  0  0  0  0
   63.1827   32.0293   46.2241 H   0  0  0  0  0  0  0  0  0  0  0  0
   59.4767   33.9806   46.1589 H   0  0  0  0  0  0  0  0  0  0  0  0
   56.6702   32.6870   45.5583 H   0  0  0  0  0  0  0  0  0  0  0  0
   57.6817   33.0568   44.1035 H   0  0  0  0  0  0  0  0  0  0  0  0
   58.2500   30.8580   42.5160 H   0  0  0  0  0  0  0  0  0  0  0  0
   57.2968   29.3114   47.2015 H   0  0  0  0  0  0  0  0  0  0  0  0
   56.4257   27.0636   46.5807 H   0  0  0  0  0  0  0  0  0  0  0  0
  1  2  1  0
  2  3  1  0
  2  4  1  0
  4  5  1  0
  5  6  1  0
  6  7  2  0
  7  8  1  0
  8  9  2  0
  9 10  1  0
 10 11  2  0
 11 12  1  0
 12 13  1  0
 13 14  2  0
 14 15  1  0
 15 16  2  0
 16 17  1  0
 17 18  2  0
 12 19  1  0
 19 20  2  0
 20 21  1  0
 21 22  1  0
 22 23  2  0
 23 24  1  0
 24 25  1  0
 25 26  2  0
  9 27  1  0
 27 28  2  0
 28  6  1  0
 20 10  1  0
 26 22  1  0
 18 13  1  0
  2 29  1  0
  4 30  1  0
  4 31  1  0
  7 32  1  0
  8 33  1  0
 14 34  1  0
 15 35  1  0
 16 36  1  0
 17 37  1  0
 18 38  1  0
 19 39  1  0
 21 40  1  0
 21 41  1  0
 26 42  1  0
 27 43  1  0
 28 44  1  0
M  CHG  2  24  -1  26   1
M  END
>  <UniqueID>  (91) 
84

>  <SMILES>  (91) 
FC(F)COc1ccc(-c2nn(-c3ccccc3)cc2Cc2n[n-]n[nH+]2)cc1

>  <Energy>  (91) 
121.44961038557489

>  <Genealogy>  (91) 
FC(F)COc1ccc(-c2nn(-c3ccccc3)cc2Cc2n[n-]n[nH+]2)cc1 (protonated)
FC(F)COc1ccc(-c2nn(-c3ccccc3)cc2Cc2n[n-]n[nH+]2)cc1 (3D coordinates assigned)
FC(F)COc1ccc(-c2nn(-c3ccccc3)cc2Cc2n[n-]n[nH+]2)cc1 (optimized conformer: 121.44961038557489 kcal/mol)

>  <smiles>  (91) 
FC(F)COc1ccc(-c2nn(-c3ccccc3)cc2Cc2nn[nH]n2)cc1

>  <score_type>  (91) 
oracle

>  <origin>  (91) 
adg

>  <m_score__min__energy>  (91) 
-8.1300000000000008

>  <m_primary>  (91) 
energy

$$$$
92:0
     RDKit          3D

 35 37  0  0  0  0  0  0  0  0999 V2000
   63.6700   34.0820   50.1180 O   0  0  0  0  0  0  0  0  0  0  0  0
   62.8800   33.9180   49.1500 C   0  0  0  0  0  0  0  0  0  0  0  0
   63.3840   33.8510   47.8470 C   0  0  0  0  0  0  0  0  0  0  0  0
   62.5060   33.6680   46.7790 C   0  0  0  0  0  0  0  0  0  0  0  0
   61.1320   33.5570   47.0170 C   0  0  0  0  0  0  0  0  0  0  0  0
   60.2270   33.3760   45.9610 C   0  0  0  0  0  0  0  0  0  0  0  0
   58.8530   33.2780   46.2200 C   0  0  0  0  0  0  0  0  0  0  0  0
   57.7190   33.0840   44.8870 S   0  0  0  0  0  0  0  0  0  0  0  0
   56.6770   34.1610   44.9750 O   0  0  0  0  0  0  0  0  0  0  0  0
   58.4310   33.1950   43.5660 O   0  0  0  0  0  0  0  0  0  0  0  0
   56.9440   31.5350   44.9810 N   0  0  0  0  0  0  0  0  0  0  0  0
   57.6230   30.2770   45.0930 C   0  0  0  0  0  0  0  0  0  0  0  0
   58.9960   30.2310   44.8260 C   0  0  0  0  0  0  0  0  0  0  0  0
   59.6900   29.0220   44.8930 C   0  0  0  0  0  0  0  0  0  0  0  0
   59.0190   27.8460   45.2360 C   0  0  0  0  0  0  0  0  0  0  0  0
   57.6480   27.8740   45.5420 C   0  0  0  0  0  0  0  0  0  0  0  0
   56.9090   26.5990   45.8640 C   0  0  0  0  0  0  0  0  0  0  0  0
   57.2970   26.1130   47.1010 F   0  0  0  0  0  0  0  0  0  0  0  0
   57.1710   25.6240   44.9170 F   0  0  0  0  0  0  0  0  0  0  0  0
   55.5500   26.8530   45.8850 F   0  0  0  0  0  0  0  0  0  0  0  0
   56.9520   29.0930   45.4500 C   0  0  0  0  0  0  0  0  0  0  0  0
   58.3860   33.3470   47.5390 C   0  0  0  0  0  0  0  0  0  0  0  0
   59.2820   33.5230   48.5970 C   0  0  0  0  0  0  0  0  0  0  0  0
   60.6580   33.6320   48.3470 C   0  0  0  0  0  0  0  0  0  0  0  0
   61.5400   33.8090   49.3740 N   0  0  0  0  0  0  0  0  0  0  0  0
   64.4652   33.9420   47.6659 H   0  0  0  0  0  0  0  0  0  0  0  0
   62.8933   33.6110   45.7510 H   0  0  0  0  0  0  0  0  0  0  0  0
   60.5964   33.3108   44.9269 H   0  0  0  0  0  0  0  0  0  0  0  0
   59.5321   31.1544   44.5614 H   0  0  0  0  0  0  0  0  0  0  0  0
   60.7679   28.9952   44.6752 H   0  0  0  0  0  0  0  0  0  0  0  0
   59.5669   26.8927   45.2667 H   0  0  0  0  0  0  0  0  0  0  0  0
   55.8724   29.1208   45.6592 H   0  0  0  0  0  0  0  0  0  0  0  0
   57.3084   33.2622   47.7430 H   0  0  0  0  0  0  0  0  0  0  0  0
   58.9068   33.5763   49.6297 H   0  0  0  0  0  0  0  0  0  0  0  0
   61.1880   33.8640   50.3580 H   0  0  0  0  0  0  0  0  0  0  0  0
  1  2  2  0
  2  3  1  0
  3  4  2  0
  4  5  1  0
  5  6  2  0
  6  7  1  0
  7  8  1  0
  8  9  2  0
  8 10  2  0
  8 11  1  0
 11 12  1  0
 12 13  2  0
 13 14  1  0
 14 15  2  0
 15 16  1  0
 16 17  1  0
 17 18  1  0
 17 19  1  0
 17 20  1  0
 16 21  2  0
  7 22  2  0
 22 23  1  0
 23 24  2  0
 24 25  1  0
 25  2  1  0
 24  5  1  0
 21 12  1  0
  3 26  1  0
  4 27  1  0
  6 28  1  0
 13 29  1  0
 14 30  1  0
 15 31  1  0
 21 32  1  0
 22 33  1  0
 23 34  1  0
 25 35  1  0
M  CHG  1  11  -1
M  END
>  <UniqueID>  (92) 
85

>  <SMILES>  (92) 
O=c1ccc2cc(S(=O)(=O)[N-]c3cccc(C(F)(F)F)c3)ccc2[nH]1

>  <Energy>  (92) 
44.32286070013856

>  <Genealogy>  (92) 
O=c1ccc2cc(S(=O)(=O)[N-]c3cccc(C(F)(F)F)c3)ccc2[nH]1 (protonated)
O=c1ccc2cc(S(=O)(=O)[N-]c3cccc(C(F)(F)F)c3)ccc2[nH]1 (3D coordinates assigned)
O=c1ccc2cc(S(=O)(=O)[N-]c3cccc(C(F)(F)F)c3)ccc2[nH]1 (optimized conformer: 44.32286070013856 kcal/mol)

>  <smiles>  (92) 
O=c1ccc2cc(S(=O)(=O)Nc3cccc(C(F)(F)F)c3)ccc2[nH]1

>  <score_type>  (92) 
oracle

>  <origin>  (92) 
adg

>  <m_score__min__energy>  (92) 
-9.1099999999999994

>  <m_primary>  (92) 
energy

$$$$
93:0
     RDKit          3D

 41 42  0  0  0  0  0  0  0  0999 V2000
   59.1330   34.6640   44.8710 C   0  0  0  0  0  0  0  0  0  0  0  0
   59.5400   35.2280   46.2290 C   0  0  0  0  0  0  0  0  0  0  0  0
   59.3960   34.2070   47.2770 N   0  0  0  0  0  0  0  0  0  0  0  0
   60.2940   34.2230   48.4410 C   0  0  0  0  0  0  0  0  0  0  0  0
   61.5960   33.5460   48.1230 C   0  0  0  0  0  0  0  0  0  0  0  0
   62.5100   33.8370   46.7410 S   0  0  0  0  0  0  0  0  0  0  0  0
   63.7220   32.7210   47.0720 C   0  0  0  0  0  0  0  0  0  0  0  0
   63.4220   32.0970   48.2750 C   0  0  0  0  0  0  0  0  0  0  0  0
   62.2390   32.5600   48.8740 C   0  0  0  0  0  0  0  0  0  0  0  0
   61.7040   31.9900   50.1500 C   0  0  0  0  0  0  0  0  0  0  0  0
   58.4160   33.1640   47.1170 C   0  0  0  0  0  0  0  0  0  0  0  0
   57.1930   33.4660   47.1050 O   0  0  0  0  0  0  0  0  0  0  0  0
   58.8220   31.7430   47.0320 C   0  0  0  0  0  0  0  0  0  0  0  0
   59.2150   31.0030   48.0850 N   0  0  0  0  0  0  0  0  0  0  0  0
   59.4720   29.7920   47.6180 N   0  0  0  0  0  0  0  0  0  0  0  0
   59.2440   29.7690   46.3140 N   0  0  0  0  0  0  0  0  0  0  0  0
   58.8270   30.9650   45.9270 N   0  0  0  0  0  0  0  0  0  0  0  0
   58.5200   31.3080   44.5380 C   0  0  0  0  0  0  0  0  0  0  0  0
   57.0330   31.6360   44.3680 C   0  0  0  0  0  0  0  0  0  0  0  0
   56.2280   30.5270   44.7200 O   0  0  0  0  0  0  0  0  0  0  0  0
   55.9160   29.7630   43.5770 C   0  0  0  0  0  0  0  0  0  0  0  0
   58.4950   33.7799   45.0174 H   0  0  0  0  0  0  0  0  0  0  0  0
   58.5770   35.4283   44.3083 H   0  0  0  0  0  0  0  0  0  0  0  0
   60.0336   34.3771   44.3083 H   0  0  0  0  0  0  0  0  0  0  0  0
   60.5892   35.5554   46.1848 H   0  0  0  0  0  0  0  0  0  0  0  0
   58.8860   36.0789   46.4703 H   0  0  0  0  0  0  0  0  0  0  0  0
   60.4915   35.2661   48.7292 H   0  0  0  0  0  0  0  0  0  0  0  0
   59.8089   33.6815   49.2665 H   0  0  0  0  0  0  0  0  0  0  0  0
   64.6019   32.5196   46.4433 H   0  0  0  0  0  0  0  0  0  0  0  0
   64.0526   31.3123   48.7183 H   0  0  0  0  0  0  0  0  0  0  0  0
   62.1781   32.4951   51.0044 H   0  0  0  0  0  0  0  0  0  0  0  0
   60.6154   32.1426   50.1918 H   0  0  0  0  0  0  0  0  0  0  0  0
   61.9252   30.9133   50.1918 H   0  0  0  0  0  0  0  0  0  0  0  0
   59.2900   31.2890   49.0860 H   0  0  0  0  0  0  0  0  0  0  0  0
   59.1172   32.1835   44.2435 H   0  0  0  0  0  0  0  0  0  0  0  0
   58.7626   30.4437   43.9023 H   0  0  0  0  0  0  0  0  0  0  0  0
   56.7758   32.4876   45.0150 H   0  0  0  0  0  0  0  0  0  0  0  0
   56.8464   31.8850   43.3129 H   0  0  0  0  0  0  0  0  0  0  0  0
   55.5170   28.7859   43.8868 H   0  0  0  0  0  0  0  0  0  0  0  0
   55.1623   30.2931   42.9762 H   0  0  0  0  0  0  0  0  0  0  0  0
   56.8253   29.6139   42.9762 H   0  0  0  0  0  0  0  0  0  0  0  0
  1  2  1  0
  2  3  1  0
  3  4  1  0
  4  5  1  0
  5  6  1  0
  6  7  1  0
  7  8  2  0
  8  9  1  0
  9 10  1  0
  3 11  1  0
 11 12  2  0
 11 13  1  0
 13 14  2  0
 14 15  1  0
 15 16  2  0
 16 17  1  0
 17 18  1  0
 18 19  1  0
 19 20  1  0
 20 21  1  0
  9  5  2  0
 17 13  1  0
  1 22  1  0
  1 23  1  0
  1 24  1  0
  2 25  1  0
  2 26  1  0
  4 27  1  0
  4 28  1  0
  7 29  1  0
  8 30  1  0
 10 31  1  0
 10 32  1  0
 10 33  1  0
 14 34  1  0
 18 35  1  0
 18 36  1  0
 19 37  1  0
 19 38  1  0
 21 39  1  0
 21 40  1  0
 21 41  1  0
M  CHG  1  14   1
M  END
>  <UniqueID>  (93) 
86

>  <SMILES>  (93) 
CCN(Cc1sccc1C)C(=O)c1[nH+]nnn1CCOC

>  <Energy>  (93) 
103.52311354617873

>  <Genealogy>  (93) 
CCN(Cc1sccc1C)C(=O)c1[nH+]nnn1CCOC (protonated)
CCN(Cc1sccc1C)C(=O)c1[nH+]nnn1CCOC (3D coordinates assigned)
CCN(Cc1sccc1C)C(=O)c1[nH+]nnn1CCOC (optimized conformer: 103.52311354617873 kcal/mol)

>  <smiles>  (93) 
CCN(Cc1sccc1C)C(=O)c1nnnn1CCOC

>  <score_type>  (93) 
oracle

>  <origin>  (93) 
adg

>  <m_score__min__energy>  (93) 
-5.7400000000000002

>  <m_primary>  (93) 
energy

$$$$
