0:0
     RDKit          3D

 27 29  0  0  0  0  0  0  0  0999 V2000
   59.7540   33.5540   46.5670 F   0  0  0  0  0  0  0  0  0  0  0  0
   58.5070   33.7820   46.0110 C   0  0  0  0  0  0  0  0  0  0  0  0
   57.5890   33.8920   47.0410 F   0  0  0  0  0  0  0  0  0  0  0  0
   58.5380   34.9720   45.3080 F   0  0  0  0  0  0  0  0  0  0  0  0
   58.1250   32.6620   45.0750 C   0  0  0  0  0  0  0  0  0  0  0  0
   57.8070   32.9320   43.7340 C   0  0  0  0  0  0  0  0  0  0  0  0
   57.4100   31.9010   42.8820 C   0  0  0  0  0  0  0  0  0  0  0  0
   57.3050   30.5930   43.3600 C   0  0  0  0  0  0  0  0  0  0  0  0
   57.5910   30.3040   44.7050 C   0  0  0  0  0  0  0  0  0  0  0  0
   57.4660   28.9210   45.2160 C   0  0  0  0  0  0  0  0  0  0  0  0
   58.5220   28.2160   45.7080 N   0  0  0  0  0  0  0  0  0  0  0  0
   57.9630   27.0460   46.0470 C   0  0  0  0  0  0  0  0  0  0  0  0
   58.5850   25.9330   46.6080 C   0  0  0  0  0  0  0  0  0  0  0  0
   57.7860   24.8060   46.8800 C   0  0  0  0  0  0  0  0  0  0  0  0
   56.4030   24.8230   46.5880 C   0  0  0  0  0  0  0  0  0  0  0  0
   55.8090   25.9670   46.0210 C   0  0  0  0  0  0  0  0  0  0  0  0
   56.6320   27.0620   45.7660 C   0  0  0  0  0  0  0  0  0  0  0  0
   56.2860   28.2430   45.2350 N   0  0  0  0  0  0  0  0  0  0  0  0
   57.9920   31.3480   45.5590 C   0  0  0  0  0  0  0  0  0  0  0  0
   57.8713   33.9620   43.3533 H   0  0  0  0  0  0  0  0  0  0  0  0
   57.1787   32.1193   41.8290 H   0  0  0  0  0  0  0  0  0  0  0  0
   56.9969   29.7850   42.6802 H   0  0  0  0  0  0  0  0  0  0  0  0
   59.6622   25.9345   46.8306 H   0  0  0  0  0  0  0  0  0  0  0  0
   58.2406   23.9072   47.3222 H   0  0  0  0  0  0  0  0  0  0  0  0
   55.7873   23.9376   46.8049 H   0  0  0  0  0  0  0  0  0  0  0  0
   54.7343   25.9951   45.7879 H   0  0  0  0  0  0  0  0  0  0  0  0
   58.2039   31.1341   46.6170 H   0  0  0  0  0  0  0  0  0  0  0  0
  1  2  1  0
  2  3  1  0
  2  4  1  0
  2  5  1  0
  5  6  2  0
  6  7  1  0
  7  8  2  0
  8  9  1  0
  9 10  1  0
 10 11  2  0
 11 12  1  0
 12 13  2  0
 13 14  1  0
 14 15  2  0
 15 16  1  0
 16 17  2  0
 17 18  1  0
  9 19  2  0
 19  5  1  0
 18 10  1  0
 17 12  1  0
  6 20  1  0
  7 21  1  0
  8 22  1  0
 13 23  1  0
 14 24  1  0
 15 25  1  0
 16 26  1  0
 19 27  1  0
M  CHG  1  18  -1
M  END
>  <UniqueID>  (1) 
1

>  <SMILES>  (1) 
FC(F)(F)c1cccc(-c2nc3ccccc3[n-]2)c1

>  <Energy>  (1) 
65.77641937113542

>  <Genealogy>  (1) 
FC(F)(F)c1cccc(-c2nc3ccccc3[n-]2)c1 (protonated)
FC(F)(F)c1cccc(-c2nc3ccccc3[n-]2)c1 (3D coordinates assigned)
FC(F)(F)c1cccc(-c2nc3ccccc3[n-]2)c1 (optimized conformer: 65.77641937113542 kcal/mol)

>  <smiles>  (1) 
FC(F)(F)c1cccc(-c2nc3ccccc3[nH]2)c1

>  <score_type>  (1) 
oracle

>  <origin>  (1) 
adg

>  <m_score__min__energy>  (1) 
-7.1699999999999999

>  <m_primary>  (1) 
energy

$$$$
1:0
     RDKit          3D

 27 29  0  0  0  0  0  0  0  0999 V2000
   57.9740   32.3380   41.5440 C   0  0  0  0  0  0  0  0  0  0  0  0
   57.0240   31.4110   42.2930 C   0  0  0  0  0  0  0  0  0  0  0  0
   57.5100   31.1790   43.6560 N   0  0  0  0  0  0  0  0  0  0  0  0
   57.7740   32.1100   44.6090 C   0  0  0  0  0  0  0  0  0  0  0  0
   57.6830   33.5020   44.5020 C   0  0  0  0  0  0  0  0  0  0  0  0
   57.9970   34.2750   45.6350 C   0  0  0  0  0  0  0  0  0  0  0  0
   58.3860   33.6560   46.8430 C   0  0  0  0  0  0  0  0  0  0  0  0
   58.4630   32.2560   46.9350 C   0  0  0  0  0  0  0  0  0  0  0  0
   58.1500   31.5140   45.7980 C   0  0  0  0  0  0  0  0  0  0  0  0
   58.1040   30.1570   45.5770 C   0  0  0  0  0  0  0  0  0  0  0  0
   58.3510   29.0680   46.4070 C   0  0  0  0  0  0  0  0  0  0  0  0
   58.1840   27.8160   45.8890 N   0  0  0  0  0  0  0  0  0  0  0  0
   57.7840   27.6110   44.5940 C   0  0  0  0  0  0  0  0  0  0  0  0
   57.5270   28.7020   43.7440 C   0  0  0  0  0  0  0  0  0  0  0  0
   57.7040   29.9840   44.2710 C   0  0  0  0  0  0  0  0  0  0  0  0
   58.5673   32.9170   42.2670 H   0  0  0  0  0  0  0  0  0  0  0  0
   58.6474   31.7402   40.9122 H   0  0  0  0  0  0  0  0  0  0  0  0
   57.3929   33.0259   40.9122 H   0  0  0  0  0  0  0  0  0  0  0  0
   56.0263   31.8722   42.3369 H   0  0  0  0  0  0  0  0  0  0  0  0
   56.9709   30.4485   41.7631 H   0  0  0  0  0  0  0  0  0  0  0  0
   57.3749   33.9783   43.5595 H   0  0  0  0  0  0  0  0  0  0  0  0
   57.9389   35.3720   45.5791 H   0  0  0  0  0  0  0  0  0  0  0  0
   58.6307   34.2747   47.7190 H   0  0  0  0  0  0  0  0  0  0  0  0
   58.7601   31.7629   47.8723 H   0  0  0  0  0  0  0  0  0  0  0  0
   58.6713   29.2116   47.4495 H   0  0  0  0  0  0  0  0  0  0  0  0
   57.6630   26.5850   44.2164 H   0  0  0  0  0  0  0  0  0  0  0  0
   57.1994   28.5517   42.7047 H   0  0  0  0  0  0  0  0  0  0  0  0
  1  2  1  0
  2  3  1  0
  3  4  1  0
  4  5  2  0
  5  6  1  0
  6  7  2  0
  7  8  1  0
  8  9  2  0
  9 10  1  0
 10 11  2  0
 11 12  1  0
 12 13  2  0
 13 14  1  0
 14 15  2  0
 15  3  1  0
  9  4  1  0
 15 10  1  0
  1 16  1  0
  1 17  1  0
  1 18  1  0
  2 19  1  0
  2 20  1  0
  5 21  1  0
  6 22  1  0
  7 23  1  0
  8 24  1  0
 11 25  1  0
 13 26  1  0
 14 27  1  0
M  END
>  <UniqueID>  (2) 
2

>  <SMILES>  (2) 
CCn1c2ccccc2c2cnccc21

>  <Energy>  (2) 
69.72288451796427

>  <Genealogy>  (2) 
CCn1c2ccccc2c2cnccc21 (3D coordinates assigned)
CCn1c2ccccc2c2cnccc21 (optimized conformer: 69.72288451796427 kcal/mol)

>  <smiles>  (2) 
CCn1c2ccccc2c2cnccc21

>  <score_type>  (2) 
oracle

>  <origin>  (2) 
adg

>  <m_score__min__energy>  (2) 
-5.8099999999999996

>  <m_primary>  (2) 
energy

$$$$
2:0
     RDKit          3D

 34 34  0  0  0  0  0  0  0  0999 V2000
   58.5710   31.0030   50.1650 C   0  0  0  0  0  0  0  0  0  0  0  0
   58.8350   32.4690   50.4910 C   0  0  0  0  0  0  0  0  0  0  0  0
   59.4210   33.1730   49.3080 C   0  0  0  0  0  0  0  0  0  0  0  0
   58.8140   33.2130   48.1030 N   0  0  0  0  0  0  0  0  0  0  0  0
   59.6920   33.8790   47.3330 C   0  0  0  0  0  0  0  0  0  0  0  0
   59.4800   34.1690   45.8740 C   0  0  0  0  0  0  0  0  0  0  0  0
   58.2350   33.5480   45.3600 N   0  0  1  0  0  0  0  0  0  0  0  0
   57.2960   34.5900   44.9030 C   0  0  0  0  0  0  0  0  0  0  0  0
   58.4750   32.5290   44.3050 C   0  0  0  0  0  0  0  0  0  0  0  0
   57.6550   31.2740   44.4730 C   0  0  0  0  0  0  0  0  0  0  0  0
   56.6580   31.2870   45.2450 O   0  0  0  0  0  0  0  0  0  0  0  0
   58.0090   30.0800   43.7560 N   0  0  0  0  0  0  0  0  0  0  0  0
   57.3340   28.8210   43.9060 C   0  0  0  0  0  0  0  0  0  0  0  0
   57.7560   27.6930   43.1420 N   0  0  0  0  0  0  0  0  0  0  0  0
   56.3710   28.6980   44.7090 O   0  0  0  0  0  0  0  0  0  0  0  0
   60.8000   34.2130   48.0750 C   0  0  0  0  0  0  0  0  0  0  0  0
   60.6370   33.7610   49.3300 N   0  0  0  0  0  0  0  0  0  0  0  0
   58.4682   30.4323   51.0997 H   0  0  0  0  0  0  0  0  0  0  0  0
   57.6432   30.9188   49.5801 H   0  0  0  0  0  0  0  0  0  0  0  0
   59.4111   30.6004   49.5801 H   0  0  0  0  0  0  0  0  0  0  0  0
   57.8875   32.9543   50.7679 H   0  0  0  0  0  0  0  0  0  0  0  0
   59.5485   32.5242   51.3264 H   0  0  0  0  0  0  0  0  0  0  0  0
   59.4179   35.2582   45.7336 H   0  0  0  0  0  0  0  0  0  0  0  0
   60.3274   33.7440   45.3161 H   0  0  0  0  0  0  0  0  0  0  0  0
   57.7670   33.0570   46.1600 H   0  0  0  0  0  0  0  0  0  0  0  0
   56.8475   35.0876   45.7755 H   0  0  0  0  0  0  0  0  0  0  0  0
   57.8374   35.3309   44.2964 H   0  0  0  0  0  0  0  0  0  0  0  0
   56.5029   34.1284   44.2964 H   0  0  0  0  0  0  0  0  0  0  0  0
   58.2303   32.9752   43.3298 H   0  0  0  0  0  0  0  0  0  0  0  0
   59.5319   32.2335   44.3795 H   0  0  0  0  0  0  0  0  0  0  0  0
   58.8110   30.1250   43.0870 H   0  0  0  0  0  0  0  0  0  0  0  0
   57.2720   26.7740   43.2450 H   0  0  0  0  0  0  0  0  0  0  0  0
   58.5530   27.7730   42.4710 H   0  0  0  0  0  0  0  0  0  0  0  0
   61.6776   34.7613   47.7020 H   0  0  0  0  0  0  0  0  0  0  0  0
  1  2  1  0
  2  3  1  0
  3  4  2  0
  4  5  1  0
  5  6  1  0
  6  7  1  0
  7  8  1  0
  7  9  1  0
  9 10  1  0
 10 11  2  0
 10 12  1  0
 12 13  1  0
 13 14  1  0
 13 15  2  0
  5 16  2  0
 16 17  1  0
 17  3  1  0
  1 18  1  0
  1 19  1  0
  1 20  1  0
  2 21  1  0
  2 22  1  0
  6 23  1  0
  6 24  1  0
  7 25  1  1
  8 26  1  0
  8 27  1  0
  8 28  1  0
  9 29  1  0
  9 30  1  0
 12 31  1  0
 14 32  1  0
 14 33  1  0
 16 34  1  0
M  CHG  2   7   1  17  -1
M  END
>  <UniqueID>  (3) 
3

>  <SMILES>  (3) 
CCc1nc(C[N@@H+](C)CC(=O)NC(N)=O)c[n-]1

>  <Energy>  (3) 
54.601006451214694

>  <Genealogy>  (3) 
CCc1nc(C[NH+](C)CC(=O)NC(N)=O)c[n-]1 (protonated)
CCc1nc(C[N@@H+](C)CC(=O)NC(N)=O)c[n-]1 (chirality)
CCc1nc(C[N@@H+](C)CC(=O)NC(N)=O)c[n-]1 (3D coordinates assigned)
CCc1nc(C[N@@H+](C)CC(=O)NC(N)=O)c[n-]1 (optimized conformer: 54.601006451214694 kcal/mol)

>  <smiles>  (3) 
CCc1nc(CN(C)CC(=O)NC(N)=O)c[nH]1

>  <score_type>  (3) 
oracle

>  <origin>  (3) 
adg

>  <m_score__min__energy>  (3) 
-5.4800000000000004

>  <m_primary>  (3) 
energy

$$$$
3:0
     RDKit          3D

 33 34  0  0  0  0  0  0  0  0999 V2000
   59.2230   30.3000   47.6130 C   0  0  0  0  0  0  0  0  0  0  0  0
   58.5050   31.5260   47.7130 O   0  0  0  0  0  0  0  0  0  0  0  0
   58.6100   32.5850   46.7980 C   0  0  0  0  0  0  0  0  0  0  0  0
   59.4080   33.7190   47.0540 C   0  0  0  0  0  0  0  0  0  0  0  0
   59.4860   34.7520   46.1190 C   0  0  0  0  0  0  0  0  0  0  0  0
   58.7710   34.6690   44.9240 C   0  0  0  0  0  0  0  0  0  0  0  0
   57.9760   33.5520   44.6580 C   0  0  0  0  0  0  0  0  0  0  0  0
   57.8910   32.5000   45.5940 C   0  0  0  0  0  0  0  0  0  0  0  0
   57.1040   31.3570   45.3690 O   0  0  0  0  0  0  0  0  0  0  0  0
   56.7550   30.8370   44.0860 C   0  0  0  0  0  0  0  0  0  0  0  0
   55.7650   29.7140   44.2250 C   0  0  0  0  0  0  0  0  0  0  0  0
   54.7680   29.6800   43.4570 O   0  0  0  0  0  0  0  0  0  0  0  0
   55.8900   28.7090   45.2400 N   0  0  0  0  0  0  0  0  0  0  0  0
   57.0720   27.9590   45.5540 C   0  0  0  0  0  0  0  0  0  0  0  0
   58.3280   28.3080   45.0250 C   0  0  0  0  0  0  0  0  0  0  0  0
   59.4560   27.5380   45.3270 C   0  0  0  0  0  0  0  0  0  0  0  0
   59.3350   26.4080   46.1410 C   0  0  0  0  0  0  0  0  0  0  0  0
   58.0840   26.0420   46.6470 C   0  0  0  0  0  0  0  0  0  0  0  0
   56.9560   26.8100   46.3460 C   0  0  0  0  0  0  0  0  0  0  0  0
   59.4446   29.9215   48.6218 H   0  0  0  0  0  0  0  0  0  0  0  0
   58.6144   29.5619   47.0700 H   0  0  0  0  0  0  0  0  0  0  0  0
   60.1645   30.4697   47.0700 H   0  0  0  0  0  0  0  0  0  0  0  0
   59.9720   33.7898   47.9957 H   0  0  0  0  0  0  0  0  0  0  0  0
   60.1120   35.6328   46.3245 H   0  0  0  0  0  0  0  0  0  0  0  0
   58.8335   35.4854   44.1894 H   0  0  0  0  0  0  0  0  0  0  0  0
   57.4137   33.4923   43.7145 H   0  0  0  0  0  0  0  0  0  0  0  0
   56.3098   31.6391   43.4791 H   0  0  0  0  0  0  0  0  0  0  0  0
   57.6632   30.4526   43.5987 H   0  0  0  0  0  0  0  0  0  0  0  0
   58.4232   29.1884   44.3724 H   0  0  0  0  0  0  0  0  0  0  0  0
   60.4392   27.8219   44.9236 H   0  0  0  0  0  0  0  0  0  0  0  0
   60.2238   25.8069   46.3834 H   0  0  0  0  0  0  0  0  0  0  0  0
   57.9877   25.1492   47.2823 H   0  0  0  0  0  0  0  0  0  0  0  0
   55.9711   26.5102   46.7335 H   0  0  0  0  0  0  0  0  0  0  0  0
  1  2  1  0
  2  3  1  0
  3  4  2  0
  4  5  1  0
  5  6  2  0
  6  7  1  0
  7  8  2  0
  8  9  1  0
  9 10  1  0
 10 11  1  0
 11 12  2  0
 11 13  1  0
 13 14  1  0
 14 15  2  0
 15 16  1  0
 16 17  2  0
 17 18  1  0
 18 19  2  0
  8  3  1  0
 19 14  1  0
  1 20  1  0
  1 21  1  0
  1 22  1  0
  4 23  1  0
  5 24  1  0
  6 25  1  0
  7 26  1  0
 10 27  1  0
 10 28  1  0
 15 29  1  0
 16 30  1  0
 17 31  1  0
 18 32  1  0
 19 33  1  0
M  CHG  1  13  -1
M  END
>  <UniqueID>  (4) 
4

>  <SMILES>  (4) 
COc1ccccc1OCC(=O)[N-]c1ccccc1

>  <Energy>  (4) 
37.10084433439571

>  <Genealogy>  (4) 
COc1ccccc1OCC(=O)[N-]c1ccccc1 (protonated)
COc1ccccc1OCC(=O)[N-]c1ccccc1 (3D coordinates assigned)
COc1ccccc1OCC(=O)[N-]c1ccccc1 (optimized conformer: 37.10084433439571 kcal/mol)

>  <smiles>  (4) 
COc1ccccc1OCC(=O)Nc1ccccc1

>  <score_type>  (4) 
oracle

>  <origin>  (4) 
adg

>  <m_score__min__energy>  (4) 
-8.9600000000000009

>  <m_primary>  (4) 
energy

$$$$
4:0
     RDKit          3D

 45 47  0  0  0  0  0  0  0  0999 V2000
   57.7840   27.3850   44.0880 C   0  0  0  0  0  0  0  0  0  0  0  0
   58.2620   28.7720   44.0420 N   0  0  2  0  0  0  0  0  0  0  0  0
   59.3860   28.9600   45.0060 C   0  0  0  0  0  0  0  0  0  0  0  0
   59.5170   30.3700   45.5470 C   0  0  0  0  0  0  0  0  0  0  0  0
   58.6620   31.3550   45.2650 C   0  0  0  0  0  0  0  0  0  0  0  0
   58.8760   32.7090   45.8290 C   0  0  0  0  0  0  0  0  0  0  0  0
   59.0840   33.7710   44.9340 C   0  0  0  0  0  0  0  0  0  0  0  0
   59.2830   35.0650   45.3960 C   0  0  0  0  0  0  0  0  0  0  0  0
   59.2580   35.3230   46.7630 C   0  0  0  0  0  0  0  0  0  0  0  0
   59.0600   34.2850   47.6670 C   0  0  0  0  0  0  0  0  0  0  0  0
   58.8820   32.9680   47.2230 C   0  0  0  0  0  0  0  0  0  0  0  0
   58.8370   31.8720   48.2600 C   0  0  0  0  0  0  0  0  0  0  0  0
   59.9780   31.9990   49.2810 C   0  0  0  0  0  0  0  0  0  0  0  0
   61.2840   32.3130   48.6070 C   0  0  0  0  0  0  0  0  0  0  0  0
   61.8850   31.3660   47.7640 C   0  0  0  0  0  0  0  0  0  0  0  0
   63.0970   31.6590   47.1380 C   0  0  0  0  0  0  0  0  0  0  0  0
   63.7170   32.8970   47.3420 C   0  0  0  0  0  0  0  0  0  0  0  0
   63.1200   33.8430   48.1730 C   0  0  0  0  0  0  0  0  0  0  0  0
   61.9020   33.5610   48.8000 C   0  0  0  0  0  0  0  0  0  0  0  0
   57.6130   31.1370   44.2040 C   0  0  0  0  0  0  0  0  0  0  0  0
   57.1280   29.6880   44.2780 C   0  0  0  0  0  0  0  0  0  0  0  0
   57.6752   27.0692   45.1361 H   0  0  0  0  0  0  0  0  0  0  0  0
   56.8102   27.3158   43.5812 H   0  0  0  0  0  0  0  0  0  0  0  0
   58.5084   26.7305   43.5812 H   0  0  0  0  0  0  0  0  0  0  0  0
   58.6130   28.9270   43.0730 H   0  0  0  0  0  0  0  0  0  0  0  0
   59.2286   28.2788   45.8552 H   0  0  0  0  0  0  0  0  0  0  0  0
   60.3130   28.7483   44.4529 H   0  0  0  0  0  0  0  0  0  0  0  0
   60.3656   30.5941   46.2101 H   0  0  0  0  0  0  0  0  0  0  0  0
   59.0893   33.5748   43.8516 H   0  0  0  0  0  0  0  0  0  0  0  0
   59.4599   35.8840   44.6833 H   0  0  0  0  0  0  0  0  0  0  0  0
   59.3952   36.3510   47.1297 H   0  0  0  0  0  0  0  0  0  0  0  0
   59.0429   34.5008   48.7455 H   0  0  0  0  0  0  0  0  0  0  0  0
   57.8761   31.9262   48.7926 H   0  0  0  0  0  0  0  0  0  0  0  0
   58.9505   30.9086   47.7415 H   0  0  0  0  0  0  0  0  0  0  0  0
   59.7371   32.8062   49.9884 H   0  0  0  0  0  0  0  0  0  0  0  0
   60.0815   31.0380   49.8061 H   0  0  0  0  0  0  0  0  0  0  0  0
   61.4007   30.3926   47.5967 H   0  0  0  0  0  0  0  0  0  0  0  0
   63.5677   30.9131   46.4807 H   0  0  0  0  0  0  0  0  0  0  0  0
   64.6733   33.1228   46.8475 H   0  0  0  0  0  0  0  0  0  0  0  0
   63.6084   34.8150   48.3364 H   0  0  0  0  0  0  0  0  0  0  0  0
   61.4275   34.3158   49.4443 H   0  0  0  0  0  0  0  0  0  0  0  0
   56.7670   31.8189   44.3754 H   0  0  0  0  0  0  0  0  0  0  0  0
   58.0403   31.3370   43.2103 H   0  0  0  0  0  0  0  0  0  0  0  0
   56.7029   29.4949   45.2740 H   0  0  0  0  0  0  0  0  0  0  0  0
   56.3585   29.5213   43.5099 H   0  0  0  0  0  0  0  0  0  0  0  0
  1  2  1  0
  2  3  1  0
  3  4  1  0
  4  5  2  0
  5  6  1  0
  6  7  2  0
  7  8  1  0
  8  9  2  0
  9 10  1  0
 10 11  2  0
 11 12  1  0
 12 13  1  0
 13 14  1  0
 14 15  2  0
 15 16  1  0
 16 17  2  0
 17 18  1  0
 18 19  2  0
  5 20  1  0
 20 21  1  0
 21  2  1  0
 11  6  1  0
 19 14  1  0
  1 22  1  0
  1 23  1  0
  1 24  1  0
  2 25  1  6
  3 26  1  0
  3 27  1  0
  4 28  1  0
  7 29  1  0
  8 30  1  0
  9 31  1  0
 10 32  1  0
 12 33  1  0
 12 34  1  0
 13 35  1  0
 13 36  1  0
 15 37  1  0
 16 38  1  0
 17 39  1  0
 18 40  1  0
 19 41  1  0
 20 42  1  0
 20 43  1  0
 21 44  1  0
 21 45  1  0
M  CHG  1   2   1
M  END
>  <UniqueID>  (5) 
5

>  <SMILES>  (5) 
C[N@@H+]1CC=C(c2ccccc2CCc2ccccc2)CC1

>  <Energy>  (5) 
53.2583581500393

>  <Genealogy>  (5) 
C[NH+]1CC=C(c2ccccc2CCc2ccccc2)CC1 (protonated)
C[N@@H+]1CC=C(c2ccccc2CCc2ccccc2)CC1 (chirality)
C[N@@H+]1CC=C(c2ccccc2CCc2ccccc2)CC1 (3D coordinates assigned)
C[N@@H+]1CC=C(c2ccccc2CCc2ccccc2)CC1 (nonaromatic ring conformer: 53.2583581500393 kcal/mol)

>  <smiles>  (5) 
CN1CC=C(c2ccccc2CCc2ccccc2)CC1

>  <score_type>  (5) 
oracle

>  <origin>  (5) 
adg

>  <m_score__min__energy>  (5) 
-6.1500000000000004

>  <m_primary>  (5) 
energy

$$$$
5:0
     RDKit          3D

 28 29  0  0  0  0  0  0  0  0999 V2000
   55.5200   27.2890   45.6140 O   0  0  0  0  0  0  0  0  0  0  0  0
   56.4440   26.6810   46.2140 C   0  0  0  0  0  0  0  0  0  0  0  0
   56.1840   25.4180   46.7330 O   0  0  0  0  0  0  0  0  0  0  0  0
   57.8020   27.2720   46.3420 C   0  0  0  0  0  0  0  0  0  0  0  0
   58.4150   27.2670   47.6100 C   0  0  0  0  0  0  0  0  0  0  0  0
   59.6950   27.7940   47.7880 C   0  0  0  0  0  0  0  0  0  0  0  0
   60.3860   28.3350   46.7070 C   0  0  0  0  0  0  0  0  0  0  0  0
   59.7960   28.3580   45.4440 C   0  0  0  0  0  0  0  0  0  0  0  0
   58.5040   27.8480   45.2490 C   0  0  0  0  0  0  0  0  0  0  0  0
   57.7990   27.9970   43.5950 S   0  0  0  0  0  0  0  0  0  0  0  0
   56.5960   29.2990   44.0440 C   0  0  0  0  0  0  0  0  0  0  0  0
   57.2890   30.6070   44.3140 C   0  0  0  0  0  0  0  0  0  0  0  0
   57.7390   30.9120   45.6080 C   0  0  0  0  0  0  0  0  0  0  0  0
   58.3500   32.1430   45.8700 C   0  0  0  0  0  0  0  0  0  0  0  0
   58.5120   33.0780   44.8420 C   0  0  0  0  0  0  0  0  0  0  0  0
   59.2710   34.6240   45.1740 Cl  0  0  0  0  0  0  0  0  0  0  0  0
   58.0630   32.7800   43.5510 C   0  0  0  0  0  0  0  0  0  0  0  0
   57.4550   31.5500   43.2860 C   0  0  0  0  0  0  0  0  0  0  0  0
   57.8781   26.8423   48.4710 H   0  0  0  0  0  0  0  0  0  0  0  0
   60.1593   27.7819   48.7851 H   0  0  0  0  0  0  0  0  0  0  0  0
   61.3971   28.7441   46.8494 H   0  0  0  0  0  0  0  0  0  0  0  0
   60.3492   28.7802   44.5921 H   0  0  0  0  0  0  0  0  0  0  0  0
   55.8857   29.4332   43.2149 H   0  0  0  0  0  0  0  0  0  0  0  0
   56.0690   28.9876   44.9580 H   0  0  0  0  0  0  0  0  0  0  0  0
   57.6108   30.1803   46.4193 H   0  0  0  0  0  0  0  0  0  0  0  0
   58.7034   32.3760   46.8853 H   0  0  0  0  0  0  0  0  0  0  0  0
   58.1888   33.5155   42.7428 H   0  0  0  0  0  0  0  0  0  0  0  0
   57.1052   31.3194   42.2689 H   0  0  0  0  0  0  0  0  0  0  0  0
  1  2  2  0
  2  3  1  0
  2  4  1  0
  4  5  2  0
  5  6  1  0
  6  7  2  0
  7  8  1  0
  8  9  2  0
  9 10  1  0
 10 11  1  0
 11 12  1  0
 12 13  2  0
 13 14  1  0
 14 15  2  0
 15 16  1  0
 15 17  1  0
 17 18  2  0
  9  4  1  0
 18 12  1  0
  5 19  1  0
  6 20  1  0
  7 21  1  0
  8 22  1  0
 11 23  1  0
 11 24  1  0
 13 25  1  0
 14 26  1  0
 17 27  1  0
 18 28  1  0
M  CHG  1   3  -1
M  END
>  <UniqueID>  (6) 
6

>  <SMILES>  (6) 
O=C([O-])c1ccccc1SCc1ccc(Cl)cc1

>  <Energy>  (6) 
27.791997984973165

>  <Genealogy>  (6) 
O=C([O-])c1ccccc1SCc1ccc(Cl)cc1 (protonated)
O=C([O-])c1ccccc1SCc1ccc(Cl)cc1 (3D coordinates assigned)
O=C([O-])c1ccccc1SCc1ccc(Cl)cc1 (optimized conformer: 27.791997984973165 kcal/mol)

>  <smiles>  (6) 
O=C(O)c1ccccc1SCc1ccc(Cl)cc1

>  <score_type>  (6) 
oracle

>  <origin>  (6) 
adg

>  <m_score__min__energy>  (6) 
-10.56

>  <m_primary>  (6) 
energy

$$$$
6:0
     RDKit          3D

 43 47  0  0  0  0  0  0  0  0999 V2000
   55.5050   26.2290   46.3300 O   0  0  0  0  0  0  0  0  0  0  0  0
   56.3640   27.0350   45.8810 C   0  0  0  0  0  0  0  0  0  0  0  0
   55.8980   28.2280   45.2400 N   0  0  0  0  0  0  0  0  0  0  0  0
   56.6610   29.3280   44.7280 C   0  0  0  0  0  0  0  0  0  0  0  0
   56.0920   30.0920   43.7010 C   0  0  0  0  0  0  0  0  0  0  0  0
   56.7510   31.2160   43.2000 C   0  0  0  0  0  0  0  0  0  0  0  0
   57.9810   31.5970   43.7350 C   0  0  0  0  0  0  0  0  0  0  0  0
   58.6220   32.6880   43.2480 F   0  0  0  0  0  0  0  0  0  0  0  0
   58.5490   30.8590   44.7750 C   0  0  0  0  0  0  0  0  0  0  0  0
   57.8950   29.7250   45.2900 C   0  0  0  0  0  0  0  0  0  0  0  0
   58.4640   29.0080   46.3970 N   0  0  0  0  0  0  0  0  0  0  0  0
   59.1130   29.8550   47.7760 S   0  0  0  0  0  0  0  0  0  0  0  0
   60.4260   29.2180   48.1360 O   0  0  0  0  0  0  0  0  0  0  0  0
   58.1640   29.7200   48.9330 O   0  0  0  0  0  0  0  0  0  0  0  0
   59.3180   31.5880   47.4350 C   0  0  0  0  0  0  0  0  0  0  0  0
   58.1680   32.3930   47.3830 C   0  0  0  0  0  0  0  0  0  0  0  0
   58.2500   33.7410   47.0390 C   0  0  0  0  0  0  0  0  0  0  0  0
   59.4840   34.3210   46.7620 C   0  0  0  0  0  0  0  0  0  0  0  0
   60.6580   33.5650   46.8660 C   0  0  0  0  0  0  0  0  0  0  0  0
   61.9010   34.1720   46.6290 C   0  0  0  0  0  0  0  0  0  0  0  0
   63.0800   33.4410   46.7730 C   0  0  0  0  0  0  0  0  0  0  0  0
   63.0310   32.1050   47.1670 C   0  0  0  0  0  0  0  0  0  0  0  0
   61.8020   31.4830   47.4020 C   0  0  0  0  0  0  0  0  0  0  0  0
   60.5910   32.1900   47.2310 C   0  0  0  0  0  0  0  0  0  0  0  0
   58.7910   27.6280   46.2270 C   0  0  0  0  0  0  0  0  0  0  0  0
   60.0870   27.2310   46.3700 N   0  0  0  0  0  0  0  0  0  0  0  0
   60.4640   25.9320   46.2540 C   0  0  0  0  0  0  0  0  0  0  0  0
   59.5090   24.9520   45.9940 C   0  0  0  0  0  0  0  0  0  0  0  0
   58.1720   25.3230   45.8580 C   0  0  0  0  0  0  0  0  0  0  0  0
   57.7940   26.6720   45.9620 C   0  0  0  0  0  0  0  0  0  0  0  0
   55.1156   29.8032   43.2849 H   0  0  0  0  0  0  0  0  0  0  0  0
   56.3005   31.8004   42.3842 H   0  0  0  0  0  0  0  0  0  0  0  0
   59.5174   31.1672   45.1959 H   0  0  0  0  0  0  0  0  0  0  0  0
   57.1876   31.9526   47.6174 H   0  0  0  0  0  0  0  0  0  0  0  0
   57.3350   34.3492   46.9862 H   0  0  0  0  0  0  0  0  0  0  0  0
   59.5375   35.3774   46.4602 H   0  0  0  0  0  0  0  0  0  0  0  0
   61.9456   35.2292   46.3283 H   0  0  0  0  0  0  0  0  0  0  0  0
   64.0504   33.9198   46.5752 H   0  0  0  0  0  0  0  0  0  0  0  0
   63.9646   31.5373   47.2936 H   0  0  0  0  0  0  0  0  0  0  0  0
   61.7772   30.4314   47.7237 H   0  0  0  0  0  0  0  0  0  0  0  0
   61.5224   25.6537   46.3652 H   0  0  0  0  0  0  0  0  0  0  0  0
   59.8063   23.8974   45.8971 H   0  0  0  0  0  0  0  0  0  0  0  0
   57.4082   24.5545   45.6681 H   0  0  0  0  0  0  0  0  0  0  0  0
  1  2  2  0
  2  3  1  0
  3  4  1  0
  4  5  2  0
  5  6  1  0
  6  7  2  0
  7  8  1  0
  7  9  1  0
  9 10  2  0
 10 11  1  0
 11 12  1  0
 12 13  2  0
 12 14  2  0
 12 15  1  0
 15 16  2  0
 16 17  1  0
 17 18  2  0
 18 19  1  0
 19 20  2  0
 20 21  1  0
 21 22  2  0
 22 23  1  0
 23 24  2  0
 11 25  1  0
 25 26  2  0
 26 27  1  0
 27 28  2  0
 28 29  1  0
 29 30  2  0
 30  2  1  0
 10  4  1  0
 24 15  1  0
 30 25  1  0
 24 19  1  0
  5 31  1  0
  6 32  1  0
  9 33  1  0
 16 34  1  0
 17 35  1  0
 18 36  1  0
 20 37  1  0
 21 38  1  0
 22 39  1  0
 23 40  1  0
 27 41  1  0
 28 42  1  0
 29 43  1  0
M  CHG  1   3  -1
M  END
>  <UniqueID>  (7) 
7

>  <SMILES>  (7) 
O=C1[N-]c2ccc(F)cc2N(S(=O)(=O)c2cccc3ccccc23)c2ncccc21

>  <Energy>  (7) 
80.32389611537879

>  <Genealogy>  (7) 
O=C1[N-]c2ccc(F)cc2N(S(=O)(=O)c2cccc3ccccc23)c2ncccc21 (protonated)
O=C1[N-]c2ccc(F)cc2N(S(=O)(=O)c2cccc3ccccc23)c2ncccc21 (3D coordinates assigned)
O=C1[N-]c2ccc(F)cc2N(S(=O)(=O)c2cccc3ccccc23)c2ncccc21 (nonaromatic ring conformer: 80.32389611537879 kcal/mol)

>  <smiles>  (7) 
O=C1Nc2ccc(F)cc2N(S(=O)(=O)c2cccc3ccccc23)c2ncccc21

>  <score_type>  (7) 
oracle

>  <origin>  (7) 
adg

>  <m_score__min__energy>  (7) 
-12.390000000000001

>  <m_primary>  (7) 
energy

$$$$
7:0
     RDKit          3D

 36 38  0  0  1  0  0  0  0  0999 V2000
   55.8950   19.6060   44.3070 C   0  0  0  0  0  0  0  0  0  0  0  0
   55.8970   20.6930   43.4020 O   0  0  0  0  0  0  0  0  0  0  0  0
   56.4450   21.9060   43.8070 C   0  0  0  0  0  0  0  0  0  0  0  0
   56.4310   23.0280   42.9730 C   0  0  0  0  0  0  0  0  0  0  0  0
   56.9820   24.2180   43.4030 C   0  0  0  0  0  0  0  0  0  0  0  0
   57.5470   24.2960   44.6600 C   0  0  0  0  0  0  0  0  0  0  0  0
   58.1080   25.5560   45.0630 N   0  0  0  0  0  0  0  0  0  0  0  0
   57.2850   26.5410   45.6780 C   0  0  0  0  0  0  0  0  0  0  0  0
   56.0650   26.2900   45.8610 O   0  0  0  0  0  0  0  0  0  0  0  0
   57.8980   27.7690   46.0540 N   0  0  0  0  0  0  0  0  0  0  0  0
   57.4720   28.8680   45.5330 C   0  0  0  0  0  0  0  0  0  0  0  0
   56.3900   28.9530   44.7440 N   0  0  0  0  0  0  0  0  0  0  0  0
   55.9550   30.1070   44.2060 C   0  0  0  0  0  0  0  0  0  0  0  0
   56.6300   31.2660   44.4590 N   0  0  0  0  0  0  0  0  0  0  0  0
   57.7290   31.2570   45.2450 C   0  0  0  0  0  0  0  0  0  0  0  0
   58.6080   32.1580   45.6950 N   0  0  0  0  0  0  0  0  0  0  0  0
   59.5260   31.5930   46.4620 N   0  0  0  0  0  0  0  0  0  0  0  0
   60.6560   32.2030   47.1480 C   0  0  0  0  0  0  0  0  0  0  0  0
   59.2870   30.2570   46.5550 C   0  0  0  0  0  0  0  0  0  0  0  0
   58.1570   30.0430   45.7900 C   0  0  0  0  0  0  0  0  0  0  0  0
   57.5810   23.1990   45.5210 C   0  0  0  0  0  0  0  0  0  0  0  0
   57.0260   22.0400   45.0600 C   0  0  0  0  0  0  0  0  0  0  0  0
   55.8957   19.9878   45.3386 H   0  0  0  0  0  0  0  0  0  0  0  0
   54.9957   18.9941   44.1431 H   0  0  0  0  0  0  0  0  0  0  0  0
   56.7920   18.9908   44.1431 H   0  0  0  0  0  0  0  0  0  0  0  0
   55.9798   22.9621   41.9719 H   0  0  0  0  0  0  0  0  0  0  0  0
   56.9710   25.1007   42.7467 H   0  0  0  0  0  0  0  0  0  0  0  0
   59.1240   25.7020   44.8830 H   0  0  0  0  0  0  0  0  0  0  0  0
   55.8540   28.0840   44.5330 H   0  0  0  0  0  0  0  0  0  0  0  0
   55.0605   30.1163   43.5659 H   0  0  0  0  0  0  0  0  0  0  0  0
   60.5106   32.1245   48.2355 H   0  0  0  0  0  0  0  0  0  0  0  0
   61.5822   31.6824   46.8634 H   0  0  0  0  0  0  0  0  0  0  0  0
   60.7290   33.2630   46.8634 H   0  0  0  0  0  0  0  0  0  0  0  0
   59.8671   29.5101   47.1168 H   0  0  0  0  0  0  0  0  0  0  0  0
   58.0326   23.2645   46.5219 H   0  0  0  0  0  0  0  0  0  0  0  0
   57.0402   21.1606   45.7207 H   0  0  0  0  0  0  0  0  0  0  0  0
  1  2  1  0
  2  3  1  0
  3  4  2  0
  4  5  1  0
  5  6  2  0
  6  7  1  0
  7  8  1  0
  8  9  2  0
  8 10  1  0
 10 11  2  0
 11 12  1  0
 12 13  1  0
 13 14  2  0
 14 15  1  0
 15 16  2  0
 16 17  1  0
 17 18  1  0
 17 19  1  0
 19 20  2  0
  6 21  1  0
 21 22  2  0
 22  3  1  0
 20 11  1  0
 20 15  1  0
  1 23  1  0
  1 24  1  0
  1 25  1  0
  4 26  1  0
  5 27  1  0
  7 28  1  0
 12 29  1  0
 13 30  1  0
 18 31  1  0
 18 32  1  0
 18 33  1  0
 19 34  1  0
 21 35  1  0
 22 36  1  0
M  END
>  <smiles>  (8) 
COc1ccc(NC(=O)N=c2[nH]cnc3nn(C)cc23)cc1

>  <score_type>  (8) 
oracle

>  <origin>  (8) 
adg

>  <m_score__min__energy>  (8) 
-6.9900000000000002

>  <m_primary>  (8) 
energy

$$$$
8:0
     RDKit          3D

 57 60  0  0  1  0  0  0  0  0999 V2000
   62.2570   31.2980   51.4450 C   0  0  0  0  0  0  0  0  0  0  0  0
   61.8110   32.3140   50.5650 O   0  0  0  0  0  0  0  0  0  0  0  0
   62.3410   32.5080   49.3080 C   0  0  0  0  0  0  0  0  0  0  0  0
   63.2430   31.6290   48.7290 C   0  0  0  0  0  0  0  0  0  0  0  0
   63.7650   31.8480   47.4550 C   0  0  0  0  0  0  0  0  0  0  0  0
   63.4000   32.9430   46.7360 C   0  0  0  0  0  0  0  0  0  0  0  0
   62.5030   33.8350   47.2900 C   0  0  0  0  0  0  0  0  0  0  0  0
   61.9800   33.6230   48.5580 C   0  0  0  0  0  0  0  0  0  0  0  0
   61.0130   34.5660   49.1760 C   0  0  0  0  0  0  0  0  0  0  0  0
   59.7120   34.4730   48.5850 N   0  0  0  0  0  0  0  0  0  0  0  0
   59.2660   33.3440   48.1880 C   0  0  0  0  0  0  0  0  0  0  0  0
   59.3690   32.2140   48.9300 N   0  0  0  0  0  0  0  0  0  0  0  0
   58.9010   31.0290   48.5150 C   0  0  0  0  0  0  0  0  0  0  0  0
   59.0540   30.0190   49.3030 N   0  0  0  0  0  0  0  0  0  0  0  0
   60.2560   29.2450   49.3250 C   0  0  0  0  0  0  0  0  0  0  0  0
   60.0310   27.8920   48.6620 C   0  0  0  0  0  0  0  0  0  0  0  0
   59.7680   28.1200   47.2190 C   0  0  0  0  0  0  0  0  0  0  0  0
   60.5680   29.0290   46.5180 C   0  0  0  0  0  0  0  0  0  0  0  0
   60.3500   29.2680   45.1660 C   0  0  0  0  0  0  0  0  0  0  0  0
   59.3410   28.6110   44.4930 C   0  0  0  0  0  0  0  0  0  0  0  0
   58.5310   27.6990   45.1770 C   0  0  0  0  0  0  0  0  0  0  0  0
   58.7620   27.4740   46.5230 C   0  0  0  0  0  0  0  0  0  0  0  0
   58.3030   30.9120   47.3310 N   0  0  0  0  0  0  0  0  0  0  0  0
   58.1600   31.9830   46.5350 C   0  0  0  0  0  0  0  0  0  0  0  0
   57.5350   31.8810   45.2920 C   0  0  0  0  0  0  0  0  0  0  0  0
   57.0520   30.6470   44.8690 O   0  0  0  0  0  0  0  0  0  0  0  0
   56.6920   30.4700   43.5240 C   0  0  0  0  0  0  0  0  0  0  0  0
   57.4020   33.0000   44.4940 C   0  0  0  0  0  0  0  0  0  0  0  0
   57.8790   34.2520   44.8960 C   0  0  0  0  0  0  0  0  0  0  0  0
   58.4970   34.3240   46.1400 C   0  0  0  0  0  0  0  0  0  0  0  0
   58.6390   33.2100   46.9540 C   0  0  0  0  0  0  0  0  0  0  0  0
   62.1134   31.6250   52.4854 H   0  0  0  0  0  0  0  0  0  0  0  0
   61.6796   30.3789   51.2666 H   0  0  0  0  0  0  0  0  0  0  0  0
   63.3244   31.1009   51.2666 H   0  0  0  0  0  0  0  0  0  0  0  0
   63.5550   30.7354   49.2894 H   0  0  0  0  0  0  0  0  0  0  0  0
   64.4787   31.1284   47.0274 H   0  0  0  0  0  0  0  0  0  0  0  0
   63.8120   33.1152   45.7307 H   0  0  0  0  0  0  0  0  0  0  0  0
   62.1992   34.7248   46.7191 H   0  0  0  0  0  0  0  0  0  0  0  0
   60.9317   34.3371   50.2488 H   0  0  0  0  0  0  0  0  0  0  0  0
   61.3860   35.5876   49.0111 H   0  0  0  0  0  0  0  0  0  0  0  0
   59.8420   32.2790   49.8760 H   0  0  0  0  0  0  0  0  0  0  0  0
   61.0455   29.7868   48.7835 H   0  0  0  0  0  0  0  0  0  0  0  0
   60.5562   29.0834   50.3708 H   0  0  0  0  0  0  0  0  0  0  0  0
   60.9266   27.2648   48.7826 H   0  0  0  0  0  0  0  0  0  0  0  0
   59.1766   27.3786   49.1272 H   0  0  0  0  0  0  0  0  0  0  0  0
   61.3770   29.5595   47.0416 H   0  0  0  0  0  0  0  0  0  0  0  0
   60.9868   29.9863   44.6289 H   0  0  0  0  0  0  0  0  0  0  0  0
   59.1742   28.8036   43.4229 H   0  0  0  0  0  0  0  0  0  0  0  0
   57.7223   27.1684   44.6531 H   0  0  0  0  0  0  0  0  0  0  0  0
   58.1231   26.7561   47.0582 H   0  0  0  0  0  0  0  0  0  0  0  0
   57.9540   29.9960   47.0380 H   0  0  0  0  0  0  0  0  0  0  0  0
   55.7061   29.9853   43.4690 H   0  0  0  0  0  0  0  0  0  0  0  0
   56.6476   31.4490   43.0244 H   0  0  0  0  0  0  0  0  0  0  0  0
   57.4402   29.8370   43.0244 H   0  0  0  0  0  0  0  0  0  0  0  0
   56.9077   32.9043   43.5160 H   0  0  0  0  0  0  0  0  0  0  0  0
   57.7702   35.1404   44.2565 H   0  0  0  0  0  0  0  0  0  0  0  0
   58.8845   35.2928   46.4884 H   0  0  0  0  0  0  0  0  0  0  0  0
  1  2  1  0
  2  3  1  0
  3  4  2  0
  4  5  1  0
  5  6  2  0
  6  7  1  0
  7  8  2  0
  8  9  1  0
  9 10  1  0
 10 11  2  0
 11 12  1  0
 12 13  1  0
 13 14  2  0
 14 15  1  0
 15 16  1  0
 16 17  1  0
 17 18  2  0
 18 19  1  0
 19 20  2  0
 20 21  1  0
 21 22  2  0
 13 23  1  0
 23 24  1  0
 24 25  2  0
 25 26  1  0
 26 27  1  0
 25 28  1  0
 28 29  2  0
 29 30  1  0
 30 31  2  0
  8  3  1  0
 31 11  1  0
 22 17  1  0
 31 24  1  0
  1 32  1  0
  1 33  1  0
  1 34  1  0
  4 35  1  0
  5 36  1  0
  6 37  1  0
  7 38  1  0
  9 39  1  0
  9 40  1  0
 12 41  1  0
 15 42  1  0
 15 43  1  0
 16 44  1  0
 16 45  1  0
 18 46  1  0
 19 47  1  0
 20 48  1  0
 21 49  1  0
 22 50  1  0
 23 51  1  0
 27 52  1  0
 27 53  1  0
 27 54  1  0
 28 55  1  0
 29 56  1  0
 30 57  1  0
M  END
>  <smiles>  (9) 
COc1ccccc1CN=c1[nH]c(=NCCc2ccccc2)[nH]c2c(OC)cccc12

>  <score_type>  (9) 
oracle

>  <origin>  (9) 
adg

>  <m_score__min__energy>  (9) 
-9.3800000000000008

>  <m_primary>  (9) 
energy

$$$$
9:0
     RDKit          3D

 44 46  0  0  0  0  0  0  0  0999 V2000
   57.7110   25.9870   46.6710 N   0  0  0  0  0  0  0  0  0  0  0  0
   58.2920   26.9780   46.8120 C   0  0  0  0  0  0  0  0  0  0  0  0
   59.0150   28.2100   46.9880 C   0  0  0  0  0  0  0  0  0  0  0  0
   58.9750   28.8770   48.2180 C   0  0  0  0  0  0  0  0  0  0  0  0
   59.6760   30.0740   48.3880 C   0  0  0  0  0  0  0  0  0  0  0  0
   60.4260   30.6180   47.3370 C   0  0  0  0  0  0  0  0  0  0  0  0
   61.1100   31.8240   47.5660 O   0  0  0  0  0  0  0  0  0  0  0  0
   61.0960   32.9630   46.7070 C   0  0  0  0  0  0  0  0  0  0  0  0
   60.4140   34.1520   47.3990 C   0  0  0  0  0  0  0  0  0  0  0  0
   58.8950   34.2010   47.1370 C   0  0  0  0  0  0  0  0  0  0  0  0
   58.2740   32.8210   46.8760 C   0  0  0  0  0  0  0  0  0  0  0  0
   58.0130   32.6050   45.4540 N   0  0  0  0  0  0  0  0  0  0  0  0
   58.5100   33.4450   44.3660 C   0  0  0  0  0  0  0  0  0  0  0  0
   58.0910   32.7320   43.0510 C   0  0  0  0  0  0  0  0  0  0  0  0
   57.3710   31.5390   43.4710 N   0  0  0  0  0  0  0  0  0  0  0  0
   56.9410   30.4220   42.6330 C   0  0  0  0  0  0  0  0  0  0  0  0
   57.0540   29.1080   43.4240 C   0  0  0  0  0  0  0  0  0  0  0  0
   56.4410   29.2730   44.8290 C   0  0  0  0  0  0  0  0  0  0  0  0
   57.0250   30.4210   45.5300 N   0  0  0  0  0  0  0  0  0  0  0  0
   57.3760   31.4850   44.8770 C   0  0  0  0  0  0  0  0  0  0  0  0
   60.4600   29.9440   46.1000 C   0  0  0  0  0  0  0  0  0  0  0  0
   59.7570   28.7460   45.9290 C   0  0  0  0  0  0  0  0  0  0  0  0
   58.3914   28.4587   49.0513 H   0  0  0  0  0  0  0  0  0  0  0  0
   59.6386   30.5942   49.3565 H   0  0  0  0  0  0  0  0  0  0  0  0
   62.1305   33.2372   46.4529 H   0  0  0  0  0  0  0  0  0  0  0  0
   60.5342   32.7130   45.7949 H   0  0  0  0  0  0  0  0  0  0  0  0
   60.5818   34.0719   48.4832 H   0  0  0  0  0  0  0  0  0  0  0  0
   60.8524   35.0728   46.9868 H   0  0  0  0  0  0  0  0  0  0  0  0
   58.4040   34.6431   48.0165 H   0  0  0  0  0  0  0  0  0  0  0  0
   58.7425   34.8018   46.2283 H   0  0  0  0  0  0  0  0  0  0  0  0
   58.9671   32.0450   47.2330 H   0  0  0  0  0  0  0  0  0  0  0  0
   57.3148   32.7700   47.4120 H   0  0  0  0  0  0  0  0  0  0  0  0
   58.0580   34.4464   44.4189 H   0  0  0  0  0  0  0  0  0  0  0  0
   59.6006   33.5767   44.4238 H   0  0  0  0  0  0  0  0  0  0  0  0
   57.4391   33.3836   42.4507 H   0  0  0  0  0  0  0  0  0  0  0  0
   58.9607   32.4856   42.4241 H   0  0  0  0  0  0  0  0  0  0  0  0
   55.8958   30.5758   42.3266 H   0  0  0  0  0  0  0  0  0  0  0  0
   57.5827   30.3671   41.7413 H   0  0  0  0  0  0  0  0  0  0  0  0
   56.5173   28.3132   42.8853 H   0  0  0  0  0  0  0  0  0  0  0  0
   58.1167   28.8433   43.5268 H   0  0  0  0  0  0  0  0  0  0  0  0
   55.3560   29.4259   44.7316 H   0  0  0  0  0  0  0  0  0  0  0  0
   56.6535   28.3641   45.4111 H   0  0  0  0  0  0  0  0  0  0  0  0
   61.0418   30.3614   45.2649 H   0  0  0  0  0  0  0  0  0  0  0  0
   59.7876   28.2248   44.9608 H   0  0  0  0  0  0  0  0  0  0  0  0
  1  2  3  0
  2  3  1  0
  3  4  2  0
  4  5  1  0
  5  6  2  0
  6  7  1  0
  7  8  1  0
  8  9  1  0
  9 10  1  0
 10 11  1  0
 11 12  1  0
 12 13  1  0
 13 14  1  0
 14 15  1  0
 15 16  1  0
 16 17  1  0
 17 18  1  0
 18 19  1  0
 19 20  2  0
  6 21  1  0
 21 22  2  0
 22  3  1  0
 20 12  1  0
 20 15  1  0
  4 23  1  0
  5 24  1  0
  8 25  1  0
  8 26  1  0
  9 27  1  0
  9 28  1  0
 10 29  1  0
 10 30  1  0
 11 31  1  0
 11 32  1  0
 13 33  1  0
 13 34  1  0
 14 35  1  0
 14 36  1  0
 16 37  1  0
 16 38  1  0
 17 39  1  0
 17 40  1  0
 18 41  1  0
 18 42  1  0
 21 43  1  0
 22 44  1  0
M  END
>  <UniqueID>  (10) 
8

>  <SMILES>  (10) 
N#Cc1ccc(OCCCCN2CCN3CCCN=C23)cc1

>  <Energy>  (10) 
50.85575628429916

>  <Genealogy>  (10) 
N#Cc1ccc(OCCCCN2CCN3CCCN=C23)cc1 (3D coordinates assigned)
N#Cc1ccc(OCCCCN2CCN3CCCN=C23)cc1 (nonaromatic ring conformer: 50.85575628429916 kcal/mol)

>  <smiles>  (10) 
N#Cc1ccc(OCCCCN2CCN3CCCN=C23)cc1

>  <score_type>  (10) 
oracle

>  <origin>  (10) 
adg

>  <m_score__min__energy>  (10) 
-6.7199999999999998

>  <m_primary>  (10) 
energy

$$$$
10:0
     RDKit          3D

 40 42  0  0  0  0  0  0  0  0999 V2000
   60.3490   28.7740   48.3530 C   0  0  0  0  0  0  0  0  0  0  0  0
   60.3450   28.5180   46.8470 C   0  0  0  0  0  0  0  0  0  0  0  0
   58.9840   28.6930   46.2890 N   0  0  0  0  0  0  0  0  0  0  0  0
   58.1680   27.5870   46.2010 C   0  0  0  0  0  0  0  0  0  0  0  0
   58.5560   26.4600   46.6190 O   0  0  0  0  0  0  0  0  0  0  0  0
   56.8910   27.6800   45.6520 C   0  0  0  0  0  0  0  0  0  0  0  0
   56.4150   28.9000   45.1980 C   0  0  0  0  0  0  0  0  0  0  0  0
   55.1400   28.9650   44.6430 O   0  0  0  0  0  0  0  0  0  0  0  0
   57.2150   30.0440   45.3120 C   0  0  0  0  0  0  0  0  0  0  0  0
   56.7380   31.2910   44.8740 C   0  0  0  0  0  0  0  0  0  0  0  0
   57.5180   32.4340   45.0100 C   0  0  0  0  0  0  0  0  0  0  0  0
   58.7850   32.3640   45.6040 C   0  0  0  0  0  0  0  0  0  0  0  0
   59.6200   33.5820   45.7500 C   0  0  0  0  0  0  0  0  0  0  0  0
   59.4090   34.5590   44.9830 O   0  0  0  0  0  0  0  0  0  0  0  0
   60.6950   33.6890   46.7680 C   0  0  0  0  0  0  0  0  0  0  0  0
   60.3790   34.0630   48.0850 C   0  0  0  0  0  0  0  0  0  0  0  0
   61.3840   34.1840   49.0500 C   0  0  0  0  0  0  0  0  0  0  0  0
   62.7290   33.9420   48.7080 C   0  0  0  0  0  0  0  0  0  0  0  0
   63.7730   34.0480   49.6390 O   0  0  0  0  0  0  0  0  0  0  0  0
   64.7940   33.0730   49.8160 C   0  0  0  0  0  0  0  0  0  0  0  0
   63.0430   33.5850   47.3930 C   0  0  0  0  0  0  0  0  0  0  0  0
   62.0400   33.4650   46.4280 C   0  0  0  0  0  0  0  0  0  0  0  0
   59.2780   31.1200   46.0260 C   0  0  0  0  0  0  0  0  0  0  0  0
   58.5120   29.9330   45.8840 C   0  0  0  0  0  0  0  0  0  0  0  0
   60.3340   27.8131   48.8883 H   0  0  0  0  0  0  0  0  0  0  0  0
   61.2560   29.3326   48.6276 H   0  0  0  0  0  0  0  0  0  0  0  0
   59.4599   29.3606   48.6276 H   0  0  0  0  0  0  0  0  0  0  0  0
   61.0293   29.2273   46.3585 H   0  0  0  0  0  0  0  0  0  0  0  0
   60.6718   27.4838   46.6635 H   0  0  0  0  0  0  0  0  0  0  0  0
   56.2588   26.7828   45.5786 H   0  0  0  0  0  0  0  0  0  0  0  0
   55.7389   31.3636   44.4196 H   0  0  0  0  0  0  0  0  0  0  0  0
   57.1374   33.4007   44.6484 H   0  0  0  0  0  0  0  0  0  0  0  0
   59.3326   34.2623   48.3593 H   0  0  0  0  0  0  0  0  0  0  0  0
   61.1233   34.4692   50.0799 H   0  0  0  0  0  0  0  0  0  0  0  0
   64.9638   32.9108   50.8907 H   0  0  0  0  0  0  0  0  0  0  0  0
   64.4835   32.1276   49.3471 H   0  0  0  0  0  0  0  0  0  0  0  0
   65.7241   33.4267   49.3471 H   0  0  0  0  0  0  0  0  0  0  0  0
   64.0906   33.3967   47.1155 H   0  0  0  0  0  0  0  0  0  0  0  0
   62.3047   33.1934   45.3954 H   0  0  0  0  0  0  0  0  0  0  0  0
   60.2798   31.0631   46.4767 H   0  0  0  0  0  0  0  0  0  0  0  0
  1  2  1  0
  2  3  1  0
  3  4  1  0
  4  5  2  0
  4  6  1  0
  6  7  2  0
  7  8  1  0
  7  9  1  0
  9 10  2  0
 10 11  1  0
 11 12  2  0
 12 13  1  0
 13 14  2  0
 13 15  1  0
 15 16  2  0
 16 17  1  0
 17 18  2  0
 18 19  1  0
 19 20  1  0
 18 21  1  0
 21 22  2  0
 12 23  1  0
 23 24  2  0
 24  3  1  0
 24  9  1  0
 22 15  1  0
  1 25  1  0
  1 26  1  0
  1 27  1  0
  2 28  1  0
  2 29  1  0
  6 30  1  0
 10 31  1  0
 11 32  1  0
 16 33  1  0
 17 34  1  0
 20 35  1  0
 20 36  1  0
 20 37  1  0
 21 38  1  0
 22 39  1  0
 23 40  1  0
M  CHG  1   8  -1
M  END
>  <UniqueID>  (11) 
9

>  <SMILES>  (11) 
CCn1c(=O)cc([O-])c2ccc(C(=O)c3ccc(OC)cc3)cc21

>  <Energy>  (11) 
57.4373324033865

>  <Genealogy>  (11) 
CCn1c(=O)cc([O-])c2ccc(C(=O)c3ccc(OC)cc3)cc21 (protonated)
CCn1c(=O)cc([O-])c2ccc(C(=O)c3ccc(OC)cc3)cc21 (3D coordinates assigned)
CCn1c(=O)cc([O-])c2ccc(C(=O)c3ccc(OC)cc3)cc21 (optimized conformer: 57.4373324033865 kcal/mol)

>  <smiles>  (11) 
CCn1c(=O)cc(O)c2ccc(C(=O)c3ccc(OC)cc3)cc21

>  <score_type>  (11) 
oracle

>  <origin>  (11) 
adg

>  <m_score__min__energy>  (11) 
-10.300000000000001

>  <m_primary>  (11) 
energy

$$$$
11:0
     RDKit          3D

 29 31  0  0  0  0  0  0  0  0999 V2000
   65.2200   32.4120   50.1120 C   0  0  0  0  0  0  0  0  0  0  0  0
   64.8160   33.0910   48.9290 O   0  0  0  0  0  0  0  0  0  0  0  0
   63.5860   32.8910   48.2810 C   0  0  0  0  0  0  0  0  0  0  0  0
   63.0390   33.8360   47.3930 C   0  0  0  0  0  0  0  0  0  0  0  0
   61.8110   33.5910   46.7720 C   0  0  0  0  0  0  0  0  0  0  0  0
   61.1070   32.3990   47.0260 C   0  0  0  0  0  0  0  0  0  0  0  0
   59.8010   32.1350   46.3710 C   0  0  0  0  0  0  0  0  0  0  0  0
   58.8350   33.1670   46.2620 C   0  0  0  0  0  0  0  0  0  0  0  0
   57.6130   32.8910   45.6310 C   0  0  0  0  0  0  0  0  0  0  0  0
   56.7300   33.7810   45.5120 O   0  0  0  0  0  0  0  0  0  0  0  0
   57.4100   31.6400   45.1540 N   0  0  0  0  0  0  0  0  0  0  0  0
   56.3350   31.1800   44.5380 N   0  0  0  0  0  0  0  0  0  0  0  0
   56.5840   29.8790   44.2480 C   0  0  0  0  0  0  0  0  0  0  0  0
   57.8530   29.5160   44.6980 C   0  0  0  0  0  0  0  0  0  0  0  0
   58.3270   30.6750   45.2620 C   0  0  0  0  0  0  0  0  0  0  0  0
   59.5240   30.8920   45.8620 N   0  0  0  0  0  0  0  0  0  0  0  0
   61.6580   31.4610   47.9140 C   0  0  0  0  0  0  0  0  0  0  0  0
   62.8870   31.7070   48.5340 C   0  0  0  0  0  0  0  0  0  0  0  0
   64.8831   32.9782   50.9929 H   0  0  0  0  0  0  0  0  0  0  0  0
   64.7728   31.4072   50.1289 H   0  0  0  0  0  0  0  0  0  0  0  0
   66.3165   32.3257   50.1289 H   0  0  0  0  0  0  0  0  0  0  0  0
   63.5801   34.7712   47.1868 H   0  0  0  0  0  0  0  0  0  0  0  0
   61.3915   34.3355   46.0794 H   0  0  0  0  0  0  0  0  0  0  0  0
   59.0407   34.1691   46.6662 H   0  0  0  0  0  0  0  0  0  0  0  0
   55.8844   29.2056   43.7312 H   0  0  0  0  0  0  0  0  0  0  0  0
   58.3527   28.5391   44.6202 H   0  0  0  0  0  0  0  0  0  0  0  0
   60.2090   30.1070   45.9460 H   0  0  0  0  0  0  0  0  0  0  0  0
   61.1186   30.5255   48.1235 H   0  0  0  0  0  0  0  0  0  0  0  0
   63.3073   30.9628   49.2265 H   0  0  0  0  0  0  0  0  0  0  0  0
  1  2  1  0
  2  3  1  0
  3  4  2  0
  4  5  1  0
  5  6  2  0
  6  7  1  0
  7  8  2  0
  8  9  1  0
  9 10  2  0
  9 11  1  0
 11 12  1  0
 12 13  2  0
 13 14  1  0
 14 15  2  0
 15 16  1  0
  6 17  1  0
 17 18  2  0
 18  3  1  0
 16  7  1  0
 15 11  1  0
  1 19  1  0
  1 20  1  0
  1 21  1  0
  4 22  1  0
  5 23  1  0
  8 24  1  0
 13 25  1  0
 14 26  1  0
 16 27  1  0
 17 28  1  0
 18 29  1  0
M  END
>  <UniqueID>  (12) 
10

>  <SMILES>  (12) 
COc1ccc(-c2cc(=O)n3nccc3[nH]2)cc1

>  <Energy>  (12) 
72.43588972253474

>  <Genealogy>  (12) 
COc1ccc(-c2cc(=O)n3nccc3[nH]2)cc1 (3D coordinates assigned)
COc1ccc(-c2cc(=O)n3nccc3[nH]2)cc1 (optimized conformer: 72.43588972253474 kcal/mol)

>  <smiles>  (12) 
COc1ccc(-c2cc(=O)n3nccc3[nH]2)cc1

>  <score_type>  (12) 
oracle

>  <origin>  (12) 
adg

>  <m_score__min__energy>  (12) 
-6.04

>  <m_primary>  (12) 
energy

$$$$
12:0
     RDKit          3D

 42 43  0  0  0  0  0  0  0  0999 V2000
   64.6464   32.8927   46.5442 H   0  0  0  0  0  0  0  0  0  0  0  0
   63.7140   33.0910   47.0930 C   0  0  0  0  0  0  0  0  0  0  0  0
   63.6360   32.8130   48.4580 C   0  0  0  0  0  0  0  0  0  0  0  0
   64.5120   32.4060   48.9842 H   0  0  0  0  0  0  0  0  0  0  0  0
   62.4500   33.0490   49.1610 C   0  0  0  0  0  0  0  0  0  0  0  0
   62.4450   32.7320   50.8940 Cl  0  0  0  0  0  0  0  0  0  0  0  0
   61.3150   33.5580   48.4870 C   0  0  0  0  0  0  0  0  0  0  0  0
   60.0480   33.7950   49.2170 C   0  0  0  0  0  0  0  0  0  0  0  0
   59.6070   34.9720   49.3080 O   0  0  0  0  0  0  0  0  0  0  0  0
   59.3080   32.6930   49.8810 C   0  0  0  0  0  0  0  0  0  0  0  0
   59.0860   31.4430   49.2690 C   0  0  0  0  0  0  0  0  0  0  0  0
   59.4710   31.2010   47.9070 N   0  0  0  0  0  0  0  0  0  0  0  0
   60.4120   30.1100   47.6560 C   0  0  0  0  0  0  0  0  0  0  0  0
   60.7642   29.7017   48.6148 H   0  0  0  0  0  0  0  0  0  0  0  0
   59.9097   29.3173   47.0822 H   0  0  0  0  0  0  0  0  0  0  0  0
   61.2699   30.4905   47.0822 H   0  0  0  0  0  0  0  0  0  0  0  0
   58.5720   31.5710   46.8030 C   0  0  0  0  0  0  0  0  0  0  0  0
   57.6781   32.0526   47.2262 H   0  0  0  0  0  0  0  0  0  0  0  0
   59.1301   32.2477   46.1392 H   0  0  0  0  0  0  0  0  0  0  0  0
   58.1260   30.3700   45.9600 C   0  0  0  0  0  0  0  0  0  0  0  0
   58.9404   30.0716   45.2835 H   0  0  0  0  0  0  0  0  0  0  0  0
   57.8763   29.5256   46.6194 H   0  0  0  0  0  0  0  0  0  0  0  0
   56.9920   30.7350   45.2030 O   0  0  0  0  0  0  0  0  0  0  0  0
   57.3880   31.5750   44.1430 C   0  0  0  0  0  0  0  0  0  0  0  0
   57.8237   32.4991   44.5506 H   0  0  0  0  0  0  0  0  0  0  0  0
   58.1371   31.0578   43.5255 H   0  0  0  0  0  0  0  0  0  0  0  0
   56.5123   31.8237   43.5255 H   0  0  0  0  0  0  0  0  0  0  0  0
   58.4180   30.4740   49.9460 N   0  0  0  0  0  0  0  0  0  0  0  0
   57.9520   30.6710   51.2060 C   0  0  0  0  0  0  0  0  0  0  0  0
   57.3280   29.6940   51.8000 N   0  0  0  0  0  0  0  0  0  0  0  0
   56.2320   29.8350   52.7520 C   0  0  0  0  0  0  0  0  0  0  0  0
   56.6279   29.7841   53.7770 H   0  0  0  0  0  0  0  0  0  0  0  0
   55.7354   30.8044   52.5985 H   0  0  0  0  0  0  0  0  0  0  0  0
   55.5062   29.0228   52.5985 H   0  0  0  0  0  0  0  0  0  0  0  0
   58.1370   31.8840   51.8090 N   0  0  0  0  0  0  0  0  0  0  0  0
   57.7850   32.0740   52.7730 H   0  0  0  0  0  0  0  0  0  0  0  0
   58.7930   32.8870   51.1690 C   0  0  0  0  0  0  0  0  0  0  0  0
   58.9207   33.8597   51.6666 H   0  0  0  0  0  0  0  0  0  0  0  0
   61.4170   33.8650   47.1100 C   0  0  0  0  0  0  0  0  0  0  0  0
   60.0680   34.5340   46.1980 Cl  0  0  0  0  0  0  0  0  0  0  0  0
   62.6110   33.6200   46.4240 C   0  0  0  0  0  0  0  0  0  0  0  0
   62.6803   33.8461   45.3497 H   0  0  0  0  0  0  0  0  0  0  0  0
  1  2  1  0
  2  3  2  0
  3  4  1  0
  3  5  1  0
  5  6  1  0
  5  7  2  0
  7  8  1  0
  8  9  2  0
  8 10  1  0
 10 11  1  0
 11 12  1  0
 12 13  1  0
 13 14  1  0
 13 15  1  0
 13 16  1  0
 12 17  1  0
 17 18  1  0
 17 19  1  0
 17 20  1  0
 20 21  1  0
 20 22  1  0
 20 23  1  0
 23 24  1  0
 24 25  1  0
 24 26  1  0
 24 27  1  0
 11 28  2  0
 28 29  1  0
 29 30  2  0
 30 31  1  0
 31 32  1  0
 31 33  1  0
 31 34  1  0
 29 35  1  0
 35 36  1  0
 35 37  1  0
 37 38  1  0
  7 39  1  0
 39 40  1  0
 39 41  2  0
 41 42  1  0
 41  2  1  0
 37 10  2  0
M  END
>  <UniqueID>  (13) 
11

>  <SMILES>  (13) 
C/N=c1/nc(N(C)CCOC)c(C(=O)c2c(Cl)cccc2Cl)c[nH]1

>  <Energy>  (13) 
57.15306556961687

>  <Genealogy>  (13) 
C/N=c1/nc(N(C)CCOC)c(C(=O)c2c(Cl)cccc2Cl)c[nH]1 (cis-trans isomerization)
C/N=c1/nc(N(C)CCOC)c(C(=O)c2c(Cl)cccc2Cl)c[nH]1 (3D coordinates assigned)
C/N=c1/nc(N(C)CCOC)c(C(=O)c2c(Cl)cccc2Cl)c[nH]1 (optimized conformer: 57.15306556961687 kcal/mol)

>  <smiles>  (13) 
CN=c1nc(N(C)CCOC)c(C(=O)c2c(Cl)cccc2Cl)c[nH]1

>  <score_type>  (13) 
oracle

>  <origin>  (13) 
adg

>  <m_score__min__energy>  (13) 
-6.5800000000000001

>  <m_primary>  (13) 
energy

$$$$
13:0
     RDKit          3D

 34 36  0  0  0  0  0  0  0  0999 V2000
   58.8980   34.5800   45.2690 C   0  0  0  0  0  0  0  0  0  0  0  0
   57.5490   33.8820   45.1460 C   0  0  0  0  0  0  0  0  0  0  0  0
   57.5700   32.9230   44.0880 O   0  0  0  0  0  0  0  0  0  0  0  0
   57.6330   31.5290   44.2480 C   0  0  0  0  0  0  0  0  0  0  0  0
   58.4730   31.0170   45.2420 C   0  0  0  0  0  0  0  0  0  0  0  0
   58.5780   29.6380   45.4470 C   0  0  0  0  0  0  0  0  0  0  0  0
   57.8410   28.7420   44.6530 C   0  0  0  0  0  0  0  0  0  0  0  0
   57.9330   27.2760   44.8470 C   0  0  0  0  0  0  0  0  0  0  0  0
   57.4050   26.3390   44.0350 N   0  0  0  0  0  0  0  0  0  0  0  0
   57.7580   25.1840   44.6360 C   0  0  0  0  0  0  0  0  0  0  0  0
   57.4240   23.8250   44.1430 C   0  0  0  0  0  0  0  0  0  0  0  0
   58.2620   22.7380   44.4480 C   0  0  0  0  0  0  0  0  0  0  0  0
   57.9500   21.4580   43.9880 C   0  0  0  0  0  0  0  0  0  0  0  0
   56.8000   21.2680   43.2220 C   0  0  0  0  0  0  0  0  0  0  0  0
   55.9960   22.3230   42.9320 N   0  0  0  0  0  0  0  0  0  0  0  0
   56.2750   23.5800   43.3680 C   0  0  0  0  0  0  0  0  0  0  0  0
   58.4680   25.4150   45.7600 N   0  0  0  0  0  0  0  0  0  0  0  0
   58.5530   26.7090   45.8550 O   0  0  0  0  0  0  0  0  0  0  0  0
   57.0020   29.2550   43.6510 C   0  0  0  0  0  0  0  0  0  0  0  0
   56.8970   30.6350   43.4470 C   0  0  0  0  0  0  0  0  0  0  0  0
   59.1482   34.7095   46.3323 H   0  0  0  0  0  0  0  0  0  0  0  0
   59.6725   33.9695   44.7817 H   0  0  0  0  0  0  0  0  0  0  0  0
   58.8470   35.5649   44.7817 H   0  0  0  0  0  0  0  0  0  0  0  0
   57.3199   33.3703   46.0924 H   0  0  0  0  0  0  0  0  0  0  0  0
   56.7801   34.6365   44.9234 H   0  0  0  0  0  0  0  0  0  0  0  0
   59.0572   31.7065   45.8691 H   0  0  0  0  0  0  0  0  0  0  0  0
   59.2416   29.2516   46.2346 H   0  0  0  0  0  0  0  0  0  0  0  0
   56.8590   26.4750   43.1580 H   0  0  0  0  0  0  0  0  0  0  0  0
   59.1675   22.8972   45.0519 H   0  0  0  0  0  0  0  0  0  0  0  0
   58.6047   20.6071   44.2272 H   0  0  0  0  0  0  0  0  0  0  0  0
   56.5445   20.2638   42.8529 H   0  0  0  0  0  0  0  0  0  0  0  0
   55.5993   24.4099   43.1138 H   0  0  0  0  0  0  0  0  0  0  0  0
   56.4217   28.5653   43.0204 H   0  0  0  0  0  0  0  0  0  0  0  0
   56.2367   31.0233   42.6575 H   0  0  0  0  0  0  0  0  0  0  0  0
  1  2  1  0
  2  3  1  0
  3  4  1  0
  4  5  2  0
  5  6  1  0
  6  7  2  0
  7  8  1  0
  8  9  2  0
  9 10  1  0
 10 11  1  0
 11 12  2  0
 12 13  1  0
 13 14  2  0
 14 15  1  0
 15 16  2  0
 10 17  2  0
 17 18  1  0
  7 19  1  0
 19 20  2  0
 20  4  1  0
 18  8  1  0
 16 11  1  0
  1 21  1  0
  1 22  1  0
  1 23  1  0
  2 24  1  0
  2 25  1  0
  5 26  1  0
  6 27  1  0
  9 28  1  0
 12 29  1  0
 13 30  1  0
 14 31  1  0
 16 32  1  0
 19 33  1  0
 20 34  1  0
M  CHG  1   9   1
M  END
>  <UniqueID>  (14) 
12

>  <SMILES>  (14) 
CCOc1ccc(-c2[nH+]c(-c3cccnc3)no2)cc1

>  <Energy>  (14) 
72.55701282543086

>  <Genealogy>  (14) 
CCOc1ccc(-c2[nH+]c(-c3cccnc3)no2)cc1 (protonated)
CCOc1ccc(-c2[nH+]c(-c3cccnc3)no2)cc1 (3D coordinates assigned)
CCOc1ccc(-c2[nH+]c(-c3cccnc3)no2)cc1 (optimized conformer: 72.55701282543086 kcal/mol)

>  <smiles>  (14) 
CCOc1ccc(-c2nc(-c3cccnc3)no2)cc1

>  <score_type>  (14) 
oracle

>  <origin>  (14) 
adg

>  <m_score__min__energy>  (14) 
-5.4699999999999998

>  <m_primary>  (14) 
energy

$$$$
14:0
     RDKit          3D

 32 34  0  0  0  0  0  0  0  0999 V2000
   60.8210   28.6060   44.8770 C   0  0  0  0  0  0  0  0  0  0  0  0
   59.5850   28.6730   45.6560 N   0  0  0  0  0  0  0  0  0  0  0  0
   59.5850   28.1280   47.0130 C   0  0  0  0  0  0  0  0  0  0  0  0
   58.5700   29.6220   45.2880 C   0  0  0  0  0  0  0  0  0  0  0  0
   57.4200   29.1820   44.6180 C   0  0  0  0  0  0  0  0  0  0  0  0
   56.4480   30.1020   44.2320 C   0  0  0  0  0  0  0  0  0  0  0  0
   56.6110   31.4230   44.5040 N   0  0  0  0  0  0  0  0  0  0  0  0
   57.7090   31.8900   45.1590 C   0  0  0  0  0  0  0  0  0  0  0  0
   57.8460   33.2540   45.4290 C   0  0  0  0  0  0  0  0  0  0  0  0
   56.9600   34.0720   45.0600 O   0  0  0  0  0  0  0  0  0  0  0  0
   58.9730   33.7150   46.1130 C   0  0  0  0  0  0  0  0  0  0  0  0
   59.9600   32.8060   46.5330 C   0  0  0  0  0  0  0  0  0  0  0  0
   61.1630   33.2810   47.2630 C   0  0  0  0  0  0  0  0  0  0  0  0
   62.4700   33.3430   46.7780 C   0  0  0  0  0  0  0  0  0  0  0  0
   63.3910   33.8410   47.7090 C   0  0  0  0  0  0  0  0  0  0  0  0
   62.8260   34.1740   48.9320 C   0  0  0  0  0  0  0  0  0  0  0  0
   61.1810   33.8520   48.8490 S   0  0  0  0  0  0  0  0  0  0  0  0
   59.8070   31.4750   46.2550 N   0  0  0  0  0  0  0  0  0  0  0  0
   58.7200   30.9970   45.5740 C   0  0  0  0  0  0  0  0  0  0  0  0
   61.6824   28.5593   45.5594 H   0  0  0  0  0  0  0  0  0  0  0  0
   60.8065   27.7073   44.2428 H   0  0  0  0  0  0  0  0  0  0  0  0
   60.9037   29.5010   44.2428 H   0  0  0  0  0  0  0  0  0  0  0  0
   60.6221   27.9913   47.3532 H   0  0  0  0  0  0  0  0  0  0  0  0
   59.0665   28.8248   47.6880 H   0  0  0  0  0  0  0  0  0  0  0  0
   59.0665   27.1579   47.0185 H   0  0  0  0  0  0  0  0  0  0  0  0
   57.2855   28.1127   44.3976 H   0  0  0  0  0  0  0  0  0  0  0  0
   55.5457   29.7579   43.7053 H   0  0  0  0  0  0  0  0  0  0  0  0
   59.0884   34.7886   46.3230 H   0  0  0  0  0  0  0  0  0  0  0  0
   62.7505   33.0306   45.7613 H   0  0  0  0  0  0  0  0  0  0  0  0
   64.4628   33.9573   47.4907 H   0  0  0  0  0  0  0  0  0  0  0  0
   63.3624   34.5782   49.8032 H   0  0  0  0  0  0  0  0  0  0  0  0
   60.5330   30.8050   46.5910 H   0  0  0  0  0  0  0  0  0  0  0  0
  1  2  1  0
  2  3  1  0
  2  4  1  0
  4  5  2  0
  5  6  1  0
  6  7  2  0
  7  8  1  0
  8  9  1  0
  9 10  2  0
  9 11  1  0
 11 12  2  0
 12 13  1  0
 13 14  2  0
 14 15  1  0
 15 16  2  0
 16 17  1  0
 12 18  1  0
 18 19  1  0
 19  4  1  0
 19  8  2  0
 17 13  1  0
  1 20  1  0
  1 21  1  0
  1 22  1  0
  3 23  1  0
  3 24  1  0
  3 25  1  0
  5 26  1  0
  6 27  1  0
 11 28  1  0
 14 29  1  0
 15 30  1  0
 16 31  1  0
 18 32  1  0
M  END
>  <UniqueID>  (15) 
13

>  <SMILES>  (15) 
CN(C)c1ccnc2c(=O)cc(-c3cccs3)[nH]c12

>  <Energy>  (15) 
71.2061797381884

>  <Genealogy>  (15) 
CN(C)c1ccnc2c(=O)cc(-c3cccs3)[nH]c12 (3D coordinates assigned)
CN(C)c1ccnc2c(=O)cc(-c3cccs3)[nH]c12 (optimized conformer: 71.2061797381884 kcal/mol)

>  <smiles>  (15) 
CN(C)c1ccnc2c(=O)cc(-c3cccs3)[nH]c12

>  <score_type>  (15) 
oracle

>  <origin>  (15) 
adg

>  <m_score__min__energy>  (15) 
-6.5800000000000001

>  <m_primary>  (15) 
energy

$$$$
15:0
     RDKit          3D

 40 42  0  0  0  0  0  0  0  0999 V2000
   56.6030   30.1290   43.6030 C   0  0  0  0  0  0  0  0  0  0  0  0
   57.0540   31.5770   43.8420 C   0  0  0  0  0  0  0  0  0  0  0  0
   58.1080   32.0130   42.8160 C   0  0  0  0  0  0  0  0  0  0  0  0
   57.5330   31.8090   45.2290 N   0  0  0  0  0  0  0  0  0  0  0  0
   57.0220   33.0040   45.9370 C   0  0  0  0  0  0  0  0  0  0  0  0
   58.0240   34.1540   45.9360 C   0  0  0  0  0  0  0  0  0  0  0  0
   59.3190   33.6990   46.5250 C   0  0  0  0  0  0  0  0  0  0  0  0
   60.1260   34.6080   47.2280 C   0  0  0  0  0  0  0  0  0  0  0  0
   61.3670   34.2090   47.7270 C   0  0  0  0  0  0  0  0  0  0  0  0
   61.8220   32.9080   47.5050 C   0  0  0  0  0  0  0  0  0  0  0  0
   61.0340   32.0040   46.7890 C   0  0  0  0  0  0  0  0  0  0  0  0
   59.7620   32.3790   46.3110 C   0  0  0  0  0  0  0  0  0  0  0  0
   58.9440   31.4010   45.4740 C   0  0  1  0  0  0  0  0  0  0  0  0
   58.9230   30.0270   46.1090 C   0  0  0  0  0  0  0  0  0  0  0  0
   59.1270   28.8760   45.3250 C   0  0  0  0  0  0  0  0  0  0  0  0
   59.1250   27.6090   45.9150 C   0  0  0  0  0  0  0  0  0  0  0  0
   58.9270   27.4780   47.2930 C   0  0  0  0  0  0  0  0  0  0  0  0
   58.9260   26.2480   47.8640 F   0  0  0  0  0  0  0  0  0  0  0  0
   58.7330   28.6160   48.0810 C   0  0  0  0  0  0  0  0  0  0  0  0
   58.7340   29.8840   47.4950 C   0  0  0  0  0  0  0  0  0  0  0  0
   56.4473   29.6291   44.5704 H   0  0  0  0  0  0  0  0  0  0  0  0
   55.6618   30.1273   43.0337 H   0  0  0  0  0  0  0  0  0  0  0  0
   57.3768   29.5932   43.0337 H   0  0  0  0  0  0  0  0  0  0  0  0
   56.1608   32.2044   43.7057 H   0  0  0  0  0  0  0  0  0  0  0  0
   59.0008   32.3823   43.3418 H   0  0  0  0  0  0  0  0  0  0  0  0
   58.3828   31.1547   42.1853 H   0  0  0  0  0  0  0  0  0  0  0  0
   57.6961   32.8146   42.1853 H   0  0  0  0  0  0  0  0  0  0  0  0
   56.0987   33.3397   45.4422 H   0  0  0  0  0  0  0  0  0  0  0  0
   56.8385   32.7203   46.9838 H   0  0  0  0  0  0  0  0  0  0  0  0
   58.1916   34.4911   44.9024 H   0  0  0  0  0  0  0  0  0  0  0  0
   57.6240   34.9840   46.5370 H   0  0  0  0  0  0  0  0  0  0  0  0
   59.7785   35.6396   47.3862 H   0  0  0  0  0  0  0  0  0  0  0  0
   61.9861   34.9192   48.2948 H   0  0  0  0  0  0  0  0  0  0  0  0
   62.8019   32.5946   47.8943 H   0  0  0  0  0  0  0  0  0  0  0  0
   61.4101   30.9885   46.5960 H   0  0  0  0  0  0  0  0  0  0  0  0
   59.4583   31.3918   44.5017 H   0  0  0  0  0  0  0  0  0  0  0  0
   59.2890   28.9742   44.2414 H   0  0  0  0  0  0  0  0  0  0  0  0
   59.2794   26.7138   45.2946 H   0  0  0  0  0  0  0  0  0  0  0  0
   58.5792   28.5128   49.1653 H   0  0  0  0  0  0  0  0  0  0  0  0
   58.5861   30.7760   48.1215 H   0  0  0  0  0  0  0  0  0  0  0  0
  1  2  1  0
  2  3  1  0
  2  4  1  0
  4  5  1  0
  5  6  1  0
  6  7  1  0
  7  8  2  0
  8  9  1  0
  9 10  2  0
 10 11  1  0
 11 12  2  0
 12 13  1  0
 13 14  1  0
 14 15  2  0
 15 16  1  0
 16 17  2  0
 17 18  1  0
 17 19  1  0
 19 20  2  0
 13  4  1  0
 20 14  1  0
 12  7  1  0
  1 21  1  0
  1 22  1  0
  1 23  1  0
  2 24  1  0
  3 25  1  0
  3 26  1  0
  3 27  1  0
  5 28  1  0
  5 29  1  0
  6 30  1  0
  6 31  1  0
  8 32  1  0
  9 33  1  0
 10 34  1  0
 11 35  1  0
 13 36  1  6
 15 37  1  0
 16 38  1  0
 19 39  1  0
 20 40  1  0
M  END
>  <UniqueID>  (16) 
14

>  <SMILES>  (16) 
CC(C)N1CCc2ccccc2[C@H]1c1ccc(F)cc1

>  <Energy>  (16) 
54.13611543297371

>  <Genealogy>  (16) 
CC(C)N1CCc2ccccc2[C@H]1c1ccc(F)cc1 (chirality)
CC(C)N1CCc2ccccc2[C@H]1c1ccc(F)cc1 (3D coordinates assigned)
CC(C)N1CCc2ccccc2[C@H]1c1ccc(F)cc1 (nonaromatic ring conformer: 54.13611543297371 kcal/mol)

>  <smiles>  (16) 
CC(C)N1CCc2ccccc2C1c1ccc(F)cc1

>  <score_type>  (16) 
oracle

>  <origin>  (16) 
adg

>  <m_score__min__energy>  (16) 
-7.1799999999999997

>  <m_primary>  (16) 
energy

$$$$
16:0
     RDKit          3D

 33 34  0  0  0  0  0  0  0  0999 V2000
   55.6780   30.3760   44.5630 O   0  0  0  0  0  0  0  0  0  0  0  0
   56.3440   29.3590   44.2310 C   0  0  0  0  0  0  0  0  0  0  0  0
   57.1450   28.6110   45.2330 C   0  0  0  0  0  0  0  0  0  0  0  0
   56.7170   27.3280   45.6290 C   0  0  0  0  0  0  0  0  0  0  0  0
   57.4370   26.5930   46.5690 C   0  0  0  0  0  0  0  0  0  0  0  0
   58.5950   27.1230   47.1340 C   0  0  0  0  0  0  0  0  0  0  0  0
   59.0380   28.3920   46.7590 C   0  0  0  0  0  0  0  0  0  0  0  0
   58.3270   29.1530   45.8120 C   0  0  0  0  0  0  0  0  0  0  0  0
   58.8780   30.5160   45.4270 C   0  0  0  0  0  0  0  0  0  0  0  0
   57.9670   31.6210   45.8210 N   0  0  0  0  0  0  0  0  0  0  0  0
   57.8020   32.6000   44.7080 C   0  0  0  0  0  0  0  0  0  0  0  0
   57.3570   33.9780   45.2120 C   0  0  0  0  0  0  0  0  0  0  0  0
   58.4170   34.5900   46.1420 C   0  0  0  0  0  0  0  0  0  0  0  0
   59.2430   33.5210   46.8780 C   0  0  0  0  0  0  0  0  0  0  0  0
   58.4190   32.2460   47.1010 C   0  0  0  0  0  0  0  0  0  0  0  0
   56.3318   29.0207   43.1844 H   0  0  0  0  0  0  0  0  0  0  0  0
   55.8029   26.9012   45.1905 H   0  0  0  0  0  0  0  0  0  0  0  0
   57.0902   25.5921   46.8655 H   0  0  0  0  0  0  0  0  0  0  0  0
   59.1605   26.5406   47.8763 H   0  0  0  0  0  0  0  0  0  0  0  0
   59.9540   28.8026   47.2089 H   0  0  0  0  0  0  0  0  0  0  0  0
   59.8471   30.6605   45.9270 H   0  0  0  0  0  0  0  0  0  0  0  0
   58.9847   30.5403   44.3325 H   0  0  0  0  0  0  0  0  0  0  0  0
   57.0240   31.2070   46.0090 H   0  0  0  0  0  0  0  0  0  0  0  0
   58.7636   32.7074   44.1848 H   0  0  0  0  0  0  0  0  0  0  0  0
   57.0211   32.2178   44.0342 H   0  0  0  0  0  0  0  0  0  0  0  0
   57.2054   34.6449   44.3505 H   0  0  0  0  0  0  0  0  0  0  0  0
   56.4200   33.8604   45.7761 H   0  0  0  0  0  0  0  0  0  0  0  0
   59.0982   35.2100   45.5407 H   0  0  0  0  0  0  0  0  0  0  0  0
   57.8907   35.1871   46.9013 H   0  0  0  0  0  0  0  0  0  0  0  0
   60.1305   33.2750   46.2765 H   0  0  0  0  0  0  0  0  0  0  0  0
   59.5406   33.9217   47.8582 H   0  0  0  0  0  0  0  0  0  0  0  0
   59.0366   31.5191   47.6489 H   0  0  0  0  0  0  0  0  0  0  0  0
   57.5202   32.5262   47.6699 H   0  0  0  0  0  0  0  0  0  0  0  0
  1  2  2  0
  2  3  1  0
  3  4  2  0
  4  5  1  0
  5  6  2  0
  6  7  1  0
  7  8  2  0
  8  9  1  0
  9 10  1  0
 10 11  1  0
 11 12  1  0
 12 13  1  0
 13 14  1  0
 14 15  1  0
  8  3  1  0
 15 10  1  0
  2 16  1  0
  4 17  1  0
  5 18  1  0
  6 19  1  0
  7 20  1  0
  9 21  1  0
  9 22  1  0
 10 23  1  0
 11 24  1  0
 11 25  1  0
 12 26  1  0
 12 27  1  0
 13 28  1  0
 13 29  1  0
 14 30  1  0
 14 31  1  0
 15 32  1  0
 15 33  1  0
M  CHG  1  10   1
M  END
>  <UniqueID>  (17) 
15

>  <SMILES>  (17) 
O=Cc1ccccc1C[NH+]1CCCCC1

>  <Energy>  (17) 
42.85648575001239

>  <Genealogy>  (17) 
O=Cc1ccccc1C[NH+]1CCCCC1 (protonated)
O=Cc1ccccc1C[NH+]1CCCCC1 (3D coordinates assigned)
O=Cc1ccccc1C[NH+]1CCCCC1 (nonaromatic ring conformer: 42.85648575001239 kcal/mol)

>  <smiles>  (17) 
O=Cc1ccccc1CN1CCCCC1

>  <score_type>  (17) 
oracle

>  <origin>  (17) 
adg

>  <m_score__min__energy>  (17) 
-4.4800000000000004

>  <m_primary>  (17) 
energy

$$$$
17:0
     RDKit          3D

 40 42  0  0  0  0  0  0  0  0999 V2000
   58.3070   27.8650   44.0650 C   0  0  0  0  0  0  0  0  0  0  0  0
   59.1360   29.0430   44.5900 C   0  0  0  0  0  0  0  0  0  0  0  0
   60.5770   28.6030   44.8730 C   0  0  0  0  0  0  0  0  0  0  0  0
   58.4780   29.7330   45.8090 C   0  0  0  0  0  0  0  0  0  0  0  0
   58.4200   31.2000   45.6750 N   0  0  0  0  0  0  0  0  0  0  0  0
   57.3830   31.8450   44.9060 C   0  0  0  0  0  0  0  0  0  0  0  0
   56.3730   31.1980   44.5200 O   0  0  0  0  0  0  0  0  0  0  0  0
   57.5350   33.2910   44.5060 C   0  0  0  0  0  0  0  0  0  0  0  0
   58.1560   34.1250   45.6380 C   0  0  0  0  0  0  0  0  0  0  0  0
   59.2660   33.4040   46.2570 N   0  0  0  0  0  0  0  0  0  0  0  0
   60.2200   33.9480   46.9930 N   0  0  0  0  0  0  0  0  0  0  0  0
   60.9630   32.9520   47.5300 C   0  0  0  0  0  0  0  0  0  0  0  0
   62.1290   33.1540   48.4250 C   0  0  0  0  0  0  0  0  0  0  0  0
   63.3590   32.5240   48.1490 C   0  0  0  0  0  0  0  0  0  0  0  0
   64.4580   32.7160   48.9920 C   0  0  0  0  0  0  0  0  0  0  0  0
   64.3450   33.5340   50.1170 C   0  0  0  0  0  0  0  0  0  0  0  0
   63.1320   34.1620   50.4020 C   0  0  0  0  0  0  0  0  0  0  0  0
   62.0280   33.9760   49.5630 C   0  0  0  0  0  0  0  0  0  0  0  0
   60.4390   31.7260   47.1260 C   0  0  0  0  0  0  0  0  0  0  0  0
   59.3630   32.0680   46.3250 C   0  0  0  0  0  0  0  0  0  0  0  0
   57.9044   27.2928   44.9138 H   0  0  0  0  0  0  0  0  0  0  0  0
   57.4764   28.2454   43.4522 H   0  0  0  0  0  0  0  0  0  0  0  0
   58.9454   27.2116   43.4522 H   0  0  0  0  0  0  0  0  0  0  0  0
   59.1685   29.8076   43.7999 H   0  0  0  0  0  0  0  0  0  0  0  0
   60.7385   28.5537   45.9600 H   0  0  0  0  0  0  0  0  0  0  0  0
   60.7509   27.6108   44.4311 H   0  0  0  0  0  0  0  0  0  0  0  0
   61.2755   29.3288   44.4311 H   0  0  0  0  0  0  0  0  0  0  0  0
   57.4528   29.3496   45.9183 H   0  0  0  0  0  0  0  0  0  0  0  0
   59.0958   29.5060   46.6904 H   0  0  0  0  0  0  0  0  0  0  0  0
   58.1844   33.3507   43.6201 H   0  0  0  0  0  0  0  0  0  0  0  0
   56.5360   33.6958   44.2864 H   0  0  0  0  0  0  0  0  0  0  0  0
   58.5268   35.0751   45.2258 H   0  0  0  0  0  0  0  0  0  0  0  0
   57.3872   34.3163   46.4011 H   0  0  0  0  0  0  0  0  0  0  0  0
   60.3460   34.9760   47.1240 H   0  0  0  0  0  0  0  0  0  0  0  0
   63.4552   31.8770   47.2646 H   0  0  0  0  0  0  0  0  0  0  0  0
   65.4143   32.2209   48.7678 H   0  0  0  0  0  0  0  0  0  0  0  0
   65.2112   33.6835   50.7783 H   0  0  0  0  0  0  0  0  0  0  0  0
   63.0434   34.8057   51.2896 H   0  0  0  0  0  0  0  0  0  0  0  0
   61.0754   34.4752   49.7941 H   0  0  0  0  0  0  0  0  0  0  0  0
   60.7976   30.7186   47.3840 H   0  0  0  0  0  0  0  0  0  0  0  0
  1  2  1  0
  2  3  1  0
  2  4  1  0
  4  5  1  0
  5  6  1  0
  6  7  2  0
  6  8  1  0
  8  9  1  0
  9 10  1  0
 10 11  1  0
 11 12  2  0
 12 13  1  0
 13 14  2  0
 14 15  1  0
 15 16  2  0
 16 17  1  0
 17 18  2  0
 12 19  1  0
 19 20  2  0
 20  5  1  0
 20 10  1  0
 18 13  1  0
  1 21  1  0
  1 22  1  0
  1 23  1  0
  2 24  1  0
  3 25  1  0
  3 26  1  0
  3 27  1  0
  4 28  1  0
  4 29  1  0
  8 30  1  0
  8 31  1  0
  9 32  1  0
  9 33  1  0
 11 34  1  0
 14 35  1  0
 15 36  1  0
 16 37  1  0
 17 38  1  0
 18 39  1  0
 19 40  1  0
M  CHG  1  11   1
M  END
>  <UniqueID>  (18) 
16

>  <SMILES>  (18) 
CC(C)CN1C(=O)CCn2[nH+]c(-c3ccccc3)cc21

>  <Energy>  (18) 
71.63539154672884

>  <Genealogy>  (18) 
CC(C)CN1C(=O)CCn2[nH+]c(-c3ccccc3)cc21 (protonated)
CC(C)CN1C(=O)CCn2[nH+]c(-c3ccccc3)cc21 (3D coordinates assigned)
CC(C)CN1C(=O)CCn2[nH+]c(-c3ccccc3)cc21 (nonaromatic ring conformer: 71.63539154672884 kcal/mol)

>  <smiles>  (18) 
CC(C)CN1C(=O)CCn2nc(-c3ccccc3)cc21

>  <score_type>  (18) 
oracle

>  <origin>  (18) 
adg

>  <m_score__min__energy>  (18) 
-5.7699999999999996

>  <m_primary>  (18) 
energy

$$$$
18:0
     RDKit          3D

 31 33  0  0  0  0  0  0  0  0999 V2000
   58.0124   33.2115   42.6289 H   0  0  0  0  0  0  0  0  0  0  0  0
   57.7490   32.3370   43.2420 C   0  0  0  0  0  0  0  0  0  0  0  0
   57.0280   30.9220   42.6820 S   0  0  0  0  0  0  0  0  0  0  0  0
   56.9960   30.2120   44.2010 C   0  0  0  0  0  0  0  0  0  0  0  0
   56.5330   29.0160   44.4230 N   0  0  0  0  0  0  0  0  0  0  0  0
   56.8670   28.1800   45.5380 C   0  0  0  0  0  0  0  0  0  0  0  0
   57.6490   28.6240   46.4190 O   0  0  0  0  0  0  0  0  0  0  0  0
   56.3880   26.7890   45.6400 C   0  0  0  0  0  0  0  0  0  0  0  0
   55.1330   26.4540   45.9990 N   0  0  0  0  0  0  0  0  0  0  0  0
   55.0390   25.1340   46.0120 N   0  0  0  0  0  0  0  0  0  0  0  0
   56.2330   24.6240   45.6550 C   0  0  0  0  0  0  0  0  0  0  0  0
   56.5400   23.1650   45.6120 C   0  0  0  0  0  0  0  0  0  0  0  0
   56.6216   22.7771   46.6381 H   0  0  0  0  0  0  0  0  0  0  0  0
   55.7335   22.6360   45.0831 H   0  0  0  0  0  0  0  0  0  0  0  0
   57.4913   23.0059   45.0831 H   0  0  0  0  0  0  0  0  0  0  0  0
   57.1310   25.6430   45.4270 C   0  0  0  0  0  0  0  0  0  0  0  0
   58.1905   25.5636   45.1423 H   0  0  0  0  0  0  0  0  0  0  0  0
   57.5440   31.0180   45.1400 N   0  0  0  0  0  0  0  0  0  0  0  0
   57.6900   30.7480   46.1360 H   0  0  0  0  0  0  0  0  0  0  0  0
   57.9560   32.2110   44.6200 C   0  0  0  0  0  0  0  0  0  0  0  0
   58.5610   33.2760   45.4560 C   0  0  0  0  0  0  0  0  0  0  0  0
   59.0560   34.4520   44.8630 C   0  0  0  0  0  0  0  0  0  0  0  0
   58.9918   34.5826   43.7727 H   0  0  0  0  0  0  0  0  0  0  0  0
   59.6290   35.4560   45.6500 C   0  0  0  0  0  0  0  0  0  0  0  0
   60.0141   36.3716   45.1774 H   0  0  0  0  0  0  0  0  0  0  0  0
   59.7130   35.2980   47.0350 C   0  0  0  0  0  0  0  0  0  0  0  0
   60.1630   36.0894   47.6525 H   0  0  0  0  0  0  0  0  0  0  0  0
   59.2260   34.1360   47.6360 C   0  0  0  0  0  0  0  0  0  0  0  0
   59.3060   33.9850   48.9820 F   0  0  0  0  0  0  0  0  0  0  0  0
   58.6540   33.1270   46.8530 C   0  0  0  0  0  0  0  0  0  0  0  0
   58.2748   32.2121   47.3317 H   0  0  0  0  0  0  0  0  0  0  0  0
  1  2  1  0
  2  3  1  0
  3  4  1  0
  4  5  2  0
  5  6  1  0
  6  7  2  0
  6  8  1  0
  8  9  1  0
  9 10  1  0
 10 11  2  0
 11 12  1  0
 12 13  1  0
 12 14  1  0
 12 15  1  0
 11 16  1  0
 16 17  1  0
  4 18  1  0
 18 19  1  0
 18 20  1  0
 20 21  1  0
 21 22  2  0
 22 23  1  0
 22 24  1  0
 24 25  1  0
 24 26  2  0
 26 27  1  0
 26 28  1  0
 28 29  1  0
 28 30  2  0
 30 31  1  0
 20  2  2  0
 30 21  1  0
 16  8  2  0
M  CHG  1   9  -1
M  END
>  <UniqueID>  (19) 
17

>  <SMILES>  (19) 
Cc1cc(C(=O)/N=c2\[nH]c(-c3cccc(F)c3)cs2)[n-]n1

>  <Energy>  (19) 
100.50134342917192

>  <Genealogy>  (19) 
Cc1cc(C(=O)N=c2[nH]c(-c3cccc(F)c3)cs2)[n-]n1 (protonated)
Cc1cc(C(=O)/N=c2\[nH]c(-c3cccc(F)c3)cs2)[n-]n1 (cis-trans isomerization)
Cc1cc(C(=O)/N=c2\[nH]c(-c3cccc(F)c3)cs2)[n-]n1 (3D coordinates assigned)
Cc1cc(C(=O)/N=c2\[nH]c(-c3cccc(F)c3)cs2)[n-]n1 (optimized conformer: 100.50134342917192 kcal/mol)

>  <smiles>  (19) 
Cc1cc(C(=O)N=c2[nH]c(-c3cccc(F)c3)cs2)[nH]n1

>  <score_type>  (19) 
oracle

>  <origin>  (19) 
adg

>  <m_score__min__energy>  (19) 
-10.23

>  <m_primary>  (19) 
energy

$$$$
19:0
     RDKit          3D

 24 25  0  0  0  0  0  0  0  0999 V2000
   57.4880   32.1420   44.4890 C   0  0  0  0  0  0  0  0  0  0  0  0
   57.0670   30.7270   44.6720 C   0  0  0  0  0  0  0  0  0  0  0  0
   55.8430   30.1830   44.6340 N   0  0  0  0  0  0  0  0  0  0  0  0
   55.9560   28.8820   44.8510 N   0  0  0  0  0  0  0  0  0  0  0  0
   57.2480   28.5550   45.0340 C   0  0  0  0  0  0  0  0  0  0  0  0
   57.9670   26.9510   45.3600 S   0  0  0  0  0  0  0  0  0  0  0  0
   56.6770   25.7230   45.4420 C   0  0  0  0  0  0  0  0  0  0  0  0
   55.5770   26.0020   45.9850 O   0  0  0  0  0  0  0  0  0  0  0  0
   56.8340   24.3830   44.9000 C   0  0  0  0  0  0  0  0  0  0  0  0
   56.1880   24.0870   43.7180 C   0  0  0  0  0  0  0  0  0  0  0  0
   56.2980   22.8160   43.1420 C   0  0  0  0  0  0  0  0  0  0  0  0
   57.0510   21.8300   43.7400 C   0  0  0  0  0  0  0  0  0  0  0  0
   57.6920   22.1430   44.9250 C   0  0  0  0  0  0  0  0  0  0  0  0
   57.5900   23.4050   45.5080 C   0  0  0  0  0  0  0  0  0  0  0  0
   57.9210   29.7230   44.9160 N   0  0  0  0  0  0  0  0  0  0  0  0
   57.6281   32.6131   45.4731 H   0  0  0  0  0  0  0  0  0  0  0  0
   58.4344   32.1735   43.9293 H   0  0  0  0  0  0  0  0  0  0  0  0
   56.7127   32.6858   43.9293 H   0  0  0  0  0  0  0  0  0  0  0  0
   55.1470   28.1980   44.8790 H   0  0  0  0  0  0  0  0  0  0  0  0
   55.5797   24.8581   43.2225 H   0  0  0  0  0  0  0  0  0  0  0  0
   55.7755   22.6016   42.1981 H   0  0  0  0  0  0  0  0  0  0  0  0
   57.1394   20.8296   43.2913 H   0  0  0  0  0  0  0  0  0  0  0  0
   58.3004   21.3731   45.4221 H   0  0  0  0  0  0  0  0  0  0  0  0
   58.1123   23.6196   46.4520 H   0  0  0  0  0  0  0  0  0  0  0  0
  1  2  1  0
  2  3  2  0
  3  4  1  0
  4  5  1  0
  5  6  1  0
  6  7  1  0
  7  8  2  0
  7  9  1  0
  9 10  2  0
 10 11  1  0
 11 12  2  0
 12 13  1  0
 13 14  2  0
  5 15  2  0
 15  2  1  0
 14  9  1  0
  1 16  1  0
  1 17  1  0
  1 18  1  0
  4 19  1  0
 10 20  1  0
 11 21  1  0
 12 22  1  0
 13 23  1  0
 14 24  1  0
M  END
>  <smiles>  (20) 
Cc1n[nH]c(SC(=O)c2ccccc2)n1

>  <score_type>  (20) 
oracle

>  <origin>  (20) 
adg

>  <m_score__min__energy>  (20) 
-7.1100000000000003

>  <m_primary>  (20) 
energy

$$$$
20:0
     RDKit          3D

 32 32  0  0  0  0  0  0  0  0999 V2000
   57.0460   24.3770   45.1980 C   0  0  0  0  0  0  0  0  0  0  0  0
   56.5590   25.1570   46.4130 C   0  0  0  0  0  0  0  0  0  0  0  0
   55.5990   26.2260   45.9960 C   0  0  0  0  0  0  0  0  0  0  0  0
   54.3660   25.9710   45.9320 O   0  0  0  0  0  0  0  0  0  0  0  0
   56.0960   27.5130   45.6220 N   0  0  0  0  0  0  0  0  0  0  0  0
   57.4280   27.7510   45.0780 C   0  0  0  0  0  0  0  0  0  0  0  0
   57.9460   29.0950   45.5130 C   0  0  0  0  0  0  0  0  0  0  0  0
   59.0510   29.3260   46.3290 C   0  0  0  0  0  0  0  0  0  0  0  0
   60.0130   28.3030   46.8470 C   0  0  0  0  0  0  0  0  0  0  0  0
   59.1580   30.6450   46.5710 N   0  0  0  0  0  0  0  0  0  0  0  0
   58.1670   31.2700   45.9580 N   0  0  0  0  0  0  0  0  0  0  0  0
   58.0030   32.7190   45.9320 C   0  0  0  0  0  0  0  0  0  0  0  0
   57.4200   30.3720   45.2850 C   0  0  0  0  0  0  0  0  0  0  0  0
   56.3250   30.7550   44.4940 O   0  0  0  0  0  0  0  0  0  0  0  0
   55.8750   30.0810   43.3260 C   0  0  0  0  0  0  0  0  0  0  0  0
   57.6012   23.4879   45.5315 H   0  0  0  0  0  0  0  0  0  0  0  0
   56.1824   24.0644   44.5927 H   0  0  0  0  0  0  0  0  0  0  0  0
   57.7061   25.0157   44.5927 H   0  0  0  0  0  0  0  0  0  0  0  0
   56.0555   24.4686   47.1077 H   0  0  0  0  0  0  0  0  0  0  0  0
   57.4234   25.6261   46.9058 H   0  0  0  0  0  0  0  0  0  0  0  0
   58.1106   26.9669   45.4376 H   0  0  0  0  0  0  0  0  0  0  0  0
   57.3708   27.7318   43.9797 H   0  0  0  0  0  0  0  0  0  0  0  0
   60.0028   28.3139   47.9469 H   0  0  0  0  0  0  0  0  0  0  0  0
   59.7173   27.3064   46.4874 H   0  0  0  0  0  0  0  0  0  0  0  0
   61.0259   28.5369   46.4874 H   0  0  0  0  0  0  0  0  0  0  0  0
   59.9030   31.1140   47.1350 H   0  0  0  0  0  0  0  0  0  0  0  0
   57.9597   33.1017   46.9624 H   0  0  0  0  0  0  0  0  0  0  0  0
   58.8553   33.1751   45.4070 H   0  0  0  0  0  0  0  0  0  0  0  0
   57.0704   32.9731   45.4070 H   0  0  0  0  0  0  0  0  0  0  0  0
   55.2858   29.1985   43.6160 H   0  0  0  0  0  0  0  0  0  0  0  0
   55.2485   30.7602   42.7291 H   0  0  0  0  0  0  0  0  0  0  0  0
   56.7425   29.7628   42.7291 H   0  0  0  0  0  0  0  0  0  0  0  0
  1  2  1  0
  2  3  1  0
  3  4  2  0
  3  5  1  0
  5  6  1  0
  6  7  1  0
  7  8  1  0
  8  9  1  0
  8 10  2  0
 10 11  1  0
 11 12  1  0
 11 13  1  0
 13 14  1  0
 14 15  1  0
 13  7  2  0
  1 16  1  0
  1 17  1  0
  1 18  1  0
  2 19  1  0
  2 20  1  0
  6 21  1  0
  6 22  1  0
  9 23  1  0
  9 24  1  0
  9 25  1  0
 10 26  1  0
 12 27  1  0
 12 28  1  0
 12 29  1  0
 15 30  1  0
 15 31  1  0
 15 32  1  0
M  CHG  2   5  -1  10   1
M  END
>  <UniqueID>  (21) 
18

>  <SMILES>  (21) 
CCC(=O)[N-]Cc1c(C)[nH+]n(C)c1OC

>  <Energy>  (21) 
53.35189230255846

>  <Genealogy>  (21) 
CCC(=O)[N-]Cc1c(C)[nH+]n(C)c1OC (protonated)
CCC(=O)[N-]Cc1c(C)[nH+]n(C)c1OC (3D coordinates assigned)
CCC(=O)[N-]Cc1c(C)[nH+]n(C)c1OC (optimized conformer: 53.35189230255846 kcal/mol)

>  <smiles>  (21) 
CCC(=O)NCc1c(C)nn(C)c1OC

>  <score_type>  (21) 
oracle

>  <origin>  (21) 
adg

>  <m_score__min__energy>  (21) 
-5.8899999999999997

>  <m_primary>  (21) 
energy

$$$$
21:0
     RDKit          3D

 46 48  0  0  0  0  0  0  0  0999 V2000
   58.9260   33.5260   54.2460 C   0  0  0  0  0  0  0  0  0  0  0  0
   58.7390   32.5660   53.2120 O   0  0  0  0  0  0  0  0  0  0  0  0
   58.9990   32.8050   51.8540 C   0  0  0  0  0  0  0  0  0  0  0  0
   60.0010   33.6930   51.4210 C   0  0  0  0  0  0  0  0  0  0  0  0
   60.2210   33.8970   50.0560 C   0  0  0  0  0  0  0  0  0  0  0  0
   59.4420   33.2230   49.0980 C   0  0  0  0  0  0  0  0  0  0  0  0
   59.6870   33.4210   47.6150 C   0  0  1  0  0  0  0  0  0  0  0  0
   58.8480   32.4800   46.7850 C   0  0  0  0  0  0  0  0  0  0  0  0
   58.6910   32.6820   45.4660 C   0  0  0  0  0  0  0  0  0  0  0  0
   57.9190   31.7120   44.6520 C   0  0  0  0  0  0  0  0  0  0  0  0
   57.6620   31.9690   43.2960 C   0  0  0  0  0  0  0  0  0  0  0  0
   56.9180   31.0650   42.5350 C   0  0  0  0  0  0  0  0  0  0  0  0
   56.4320   29.8920   43.1150 C   0  0  0  0  0  0  0  0  0  0  0  0
   56.6940   29.6040   44.4620 C   0  0  0  0  0  0  0  0  0  0  0  0
   56.1630   28.3990   45.0390 N   0  0  0  0  0  0  0  0  0  0  0  0
   56.9650   27.3820   45.6600 C   0  0  0  0  0  0  0  0  0  0  0  0
   56.3060   26.2690   46.4060 C   0  0  0  0  0  0  0  0  0  0  0  0
   58.2170   27.3690   45.5110 O   0  0  0  0  0  0  0  0  0  0  0  0
   57.4220   30.5300   45.2310 C   0  0  0  0  0  0  0  0  0  0  0  0
   59.3750   33.8560   44.7930 C   0  0  0  0  0  0  0  0  0  0  0  0
   59.4710   35.0500   45.7120 C   0  0  0  0  0  0  0  0  0  0  0  0
   59.5940   36.1680   45.2340 O   0  0  0  0  0  0  0  0  0  0  0  0
   59.4290   34.8850   47.2090 C   0  0  0  0  0  0  0  0  0  0  0  0
   58.4490   32.3300   49.5350 C   0  0  0  0  0  0  0  0  0  0  0  0
   58.2300   32.1280   50.9000 C   0  0  0  0  0  0  0  0  0  0  0  0
   58.8301   33.0338   55.2250 H   0  0  0  0  0  0  0  0  0  0  0  0
   59.9278   33.9714   54.1560 H   0  0  0  0  0  0  0  0  0  0  0  0
   58.1646   34.3148   54.1560 H   0  0  0  0  0  0  0  0  0  0  0  0
   60.6141   34.2292   52.1604 H   0  0  0  0  0  0  0  0  0  0  0  0
   61.0097   34.5902   49.7281 H   0  0  0  0  0  0  0  0  0  0  0  0
   60.7436   33.1870   47.4182 H   0  0  0  0  0  0  0  0  0  0  0  0
   58.3597   31.6193   47.2653 H   0  0  0  0  0  0  0  0  0  0  0  0
   58.0488   32.8875   42.8305 H   0  0  0  0  0  0  0  0  0  0  0  0
   56.7143   31.2779   41.4752 H   0  0  0  0  0  0  0  0  0  0  0  0
   55.8395   29.1889   42.5113 H   0  0  0  0  0  0  0  0  0  0  0  0
   55.1400   28.2110   44.9320 H   0  0  0  0  0  0  0  0  0  0  0  0
   56.4082   26.4415   47.4876 H   0  0  0  0  0  0  0  0  0  0  0  0
   55.2393   26.2304   46.1400 H   0  0  0  0  0  0  0  0  0  0  0  0
   56.7850   25.3152   46.1400 H   0  0  0  0  0  0  0  0  0  0  0  0
   57.6047   30.3277   46.2967 H   0  0  0  0  0  0  0  0  0  0  0  0
   60.3897   33.5538   44.4945 H   0  0  0  0  0  0  0  0  0  0  0  0
   58.7754   34.1454   43.9174 H   0  0  0  0  0  0  0  0  0  0  0  0
   60.2006   35.5245   47.6624 H   0  0  0  0  0  0  0  0  0  0  0  0
   58.4287   35.1740   47.5637 H   0  0  0  0  0  0  0  0  0  0  0  0
   57.8401   31.7864   48.7976 H   0  0  0  0  0  0  0  0  0  0  0  0
   57.4456   31.4302   51.2283 H   0  0  0  0  0  0  0  0  0  0  0  0
  1  2  1  0
  2  3  1  0
  3  4  2  0
  4  5  1  0
  5  6  2  0
  6  7  1  0
  7  8  1  0
  8  9  2  0
  9 10  1  0
 10 11  2  0
 11 12  1  0
 12 13  2  0
 13 14  1  0
 14 15  1  0
 15 16  1  0
 16 17  1  0
 16 18  2  0
 14 19  2  0
  9 20  1  0
 20 21  1  0
 21 22  2  0
 21 23  1  0
  6 24  1  0
 24 25  2  0
 25  3  1  0
 23  7  1  0
 19 10  1  0
  1 26  1  0
  1 27  1  0
  1 28  1  0
  4 29  1  0
  5 30  1  0
  7 31  1  1
  8 32  1  0
 11 33  1  0
 12 34  1  0
 13 35  1  0
 15 36  1  0
 17 37  1  0
 17 38  1  0
 17 39  1  0
 19 40  1  0
 20 41  1  0
 20 42  1  0
 23 43  1  0
 23 44  1  0
 24 45  1  0
 25 46  1  0
M  END
>  <UniqueID>  (22) 
19

>  <SMILES>  (22) 
COc1ccc([C@H]2C=C(c3cccc(NC(C)=O)c3)CC(=O)C2)cc1

>  <Energy>  (22) 
54.632529335819804

>  <Genealogy>  (22) 
COc1ccc([C@H]2C=C(c3cccc(NC(C)=O)c3)CC(=O)C2)cc1 (chirality)
COc1ccc([C@H]2C=C(c3cccc(NC(C)=O)c3)CC(=O)C2)cc1 (3D coordinates assigned)
COc1ccc([C@H]2C=C(c3cccc(NC(C)=O)c3)CC(=O)C2)cc1 (nonaromatic ring conformer: 54.632529335819804 kcal/mol)

>  <smiles>  (22) 
COc1ccc(C2C=C(c3cccc(NC(C)=O)c3)CC(=O)C2)cc1

>  <score_type>  (22) 
oracle

>  <origin>  (22) 
adg

>  <m_score__min__energy>  (22) 
-8.5199999999999996

>  <m_primary>  (22) 
energy

$$$$
22:0
     RDKit          3D

 24 26  0  0  0  0  0  0  0  0999 V2000
   56.8380   27.1600   45.4230 O   0  0  0  0  0  0  0  0  0  0  0  0
   56.7730   28.4050   45.2560 C   0  0  0  0  0  0  0  0  0  0  0  0
   55.7100   28.9670   44.6080 N   0  0  0  0  0  0  0  0  0  0  0  0
   55.6330   30.3230   44.4090 C   0  0  0  0  0  0  0  0  0  0  0  0
   56.6240   31.1490   44.8600 N   0  0  0  0  0  0  0  0  0  0  0  0
   57.6710   30.5930   45.5190 C   0  0  0  0  0  0  0  0  0  0  0  0
   57.7720   29.2510   45.7150 C   0  0  0  0  0  0  0  0  0  0  0  0
   58.9750   29.0550   46.3580 C   0  0  0  0  0  0  0  0  0  0  0  0
   59.5520   30.2700   46.5190 N   0  0  0  0  0  0  0  0  0  0  0  0
   58.7610   31.2120   46.0130 N   0  0  0  0  0  0  0  0  0  0  0  0
   59.0630   32.6200   45.9990 C   0  0  0  0  0  0  0  0  0  0  0  0
   59.6590   33.2250   47.1190 C   0  0  0  0  0  0  0  0  0  0  0  0
   59.9500   34.5920   47.1140 C   0  0  0  0  0  0  0  0  0  0  0  0
   59.6450   35.3700   45.9950 C   0  0  0  0  0  0  0  0  0  0  0  0
   59.0450   34.7810   44.8780 C   0  0  0  0  0  0  0  0  0  0  0  0
   58.7530   33.4130   44.8790 C   0  0  0  0  0  0  0  0  0  0  0  0
   54.7662   30.7484   43.8820 H   0  0  0  0  0  0  0  0  0  0  0  0
   59.3905   28.0891   46.6812 H   0  0  0  0  0  0  0  0  0  0  0  0
   60.4700   30.4450   46.9860 H   0  0  0  0  0  0  0  0  0  0  0  0
   59.8979   32.6187   48.0052 H   0  0  0  0  0  0  0  0  0  0  0  0
   60.4203   35.0562   47.9934 H   0  0  0  0  0  0  0  0  0  0  0  0
   59.8767   36.4453   45.9925 H   0  0  0  0  0  0  0  0  0  0  0  0
   58.8023   35.3940   43.9975 H   0  0  0  0  0  0  0  0  0  0  0  0
   58.2782   32.9546   43.9990 H   0  0  0  0  0  0  0  0  0  0  0  0
  1  2  2  0
  2  3  1  0
  3  4  1  0
  4  5  2  0
  5  6  1  0
  6  7  2  0
  7  8  1  0
  8  9  2  0
  9 10  1  0
 10 11  1  0
 11 12  2  0
 12 13  1  0
 13 14  2  0
 14 15  1  0
 15 16  2  0
  7  2  1  0
 16 11  1  0
 10  6  1  0
  4 17  1  0
  8 18  1  0
  9 19  1  0
 12 20  1  0
 13 21  1  0
 14 22  1  0
 15 23  1  0
 16 24  1  0
M  CHG  2   3  -1   9   1
M  END
>  <UniqueID>  (23) 
20

>  <SMILES>  (23) 
O=c1[n-]cnc2c1c[nH+]n2-c1ccccc1

>  <Energy>  (23) 
74.77944861768408

>  <Genealogy>  (23) 
O=c1[n-]cnc2c1c[nH+]n2-c1ccccc1 (protonated)
O=c1[n-]cnc2c1c[nH+]n2-c1ccccc1 (3D coordinates assigned)
O=c1[n-]cnc2c1c[nH+]n2-c1ccccc1 (optimized conformer: 74.77944861768408 kcal/mol)

>  <smiles>  (23) 
O=c1[nH]cnc2c1cnn2-c1ccccc1

>  <score_type>  (23) 
oracle

>  <origin>  (23) 
adg

>  <m_score__min__energy>  (23) 
-6.3700000000000001

>  <m_primary>  (23) 
energy

$$$$
23:0
     RDKit          3D

 66 68  0  0  0  0  0  0  0  0999 V2000
   63.4410   32.8180   47.1640 C   0  0  0  0  0  0  0  0  0  0  0  0
   62.1120   33.3980   47.6390 C   0  0  0  0  0  0  0  0  0  0  0  0
   62.0290   33.4210   49.1700 C   0  0  0  0  0  0  0  0  0  0  0  0
   60.8320   32.6890   49.6320 N   0  0  0  0  0  0  0  0  0  0  0  0
   60.8870   31.3400   49.9200 C   0  0  0  0  0  0  0  0  0  0  0  0
   62.1170   30.6150   49.7850 N   0  0  0  0  0  0  0  0  0  0  0  0
   59.7310   30.6650   50.3780 C   0  0  0  0  0  0  0  0  0  0  0  0
   59.7370   29.2350   50.6240 N   0  0  0  0  0  0  0  0  0  0  0  0
   59.9360   28.8030   52.0260 C   0  0  0  0  0  0  0  0  0  0  0  0
   58.7160   29.0080   52.9700 C   0  0  0  0  0  0  0  0  0  0  0  0
   58.4570   27.8110   53.8910 C   0  0  0  0  0  0  0  0  0  0  0  0
   58.7600   30.3110   53.7780 C   0  0  0  0  0  0  0  0  0  0  0  0
   60.1710   28.3770   49.5470 C   0  0  0  0  0  0  0  0  0  0  0  0
   61.1440   27.5970   49.7380 O   0  0  0  0  0  0  0  0  0  0  0  0
   59.5730   28.4650   48.1870 C   0  0  0  0  0  0  0  0  0  0  0  0
   58.3830   27.7900   47.8670 C   0  0  0  0  0  0  0  0  0  0  0  0
   57.8060   27.9230   46.6010 C   0  0  0  0  0  0  0  0  0  0  0  0
   58.4250   28.7110   45.6260 C   0  0  0  0  0  0  0  0  0  0  0  0
   57.8240   28.8680   44.3360 N   0  0  0  0  0  0  0  0  0  0  0  0
   58.0370   27.8540   43.3040 C   0  0  0  0  0  0  0  0  0  0  0  0
   56.8350   30.2550   44.0040 S   0  0  0  0  0  0  0  0  0  0  0  0
   55.4840   30.0920   44.6390 O   0  0  0  0  0  0  0  0  0  0  0  0
   56.6560   30.3930   42.5160 O   0  0  0  0  0  0  0  0  0  0  0  0
   57.6190   31.6790   44.6760 C   0  0  0  0  0  0  0  0  0  0  0  0
   58.1260   32.6840   43.8390 C   0  0  0  0  0  0  0  0  0  0  0  0
   58.7720   33.7960   44.3900 C   0  0  0  0  0  0  0  0  0  0  0  0
   58.9180   33.9070   45.7770 C   0  0  0  0  0  0  0  0  0  0  0  0
   59.5520   34.9810   46.3090 F   0  0  0  0  0  0  0  0  0  0  0  0
   58.4130   32.9070   46.6150 C   0  0  0  0  0  0  0  0  0  0  0  0
   57.7680   31.7930   46.0660 C   0  0  0  0  0  0  0  0  0  0  0  0
   59.6300   29.3570   45.9200 C   0  0  0  0  0  0  0  0  0  0  0  0
   60.1980   29.2410   47.1910 C   0  0  0  0  0  0  0  0  0  0  0  0
   58.5440   31.4060   50.4960 C   0  0  0  0  0  0  0  0  0  0  0  0
   57.4710   30.8550   50.8620 O   0  0  0  0  0  0  0  0  0  0  0  0
   58.5330   32.7220   50.1960 N   0  0  0  0  0  0  0  0  0  0  0  0
   59.6440   33.3640   49.7660 C   0  0  0  0  0  0  0  0  0  0  0  0
   59.5630   34.5920   49.4900 O   0  0  0  0  0  0  0  0  0  0  0  0
   64.0563   32.5495   48.0354 H   0  0  0  0  0  0  0  0  0  0  0  0
   63.2532   31.9200   46.5571 H   0  0  0  0  0  0  0  0  0  0  0  0
   63.9717   33.5664   46.5571 H   0  0  0  0  0  0  0  0  0  0  0  0
   62.0136   34.4257   47.2594 H   0  0  0  0  0  0  0  0  0  0  0  0
   61.2996   32.7623   47.2570 H   0  0  0  0  0  0  0  0  0  0  0  0
   62.9284   32.9460   49.5889 H   0  0  0  0  0  0  0  0  0  0  0  0
   61.9609   34.4656   49.5079 H   0  0  0  0  0  0  0  0  0  0  0  0
   62.1480   29.5730   49.7640 H   0  0  0  0  0  0  0  0  0  0  0  0
   63.0200   31.1230   49.6930 H   0  0  0  0  0  0  0  0  0  0  0  0
   60.1823   27.7310   52.0185 H   0  0  0  0  0  0  0  0  0  0  0  0
   60.7384   29.4396   52.4271 H   0  0  0  0  0  0  0  0  0  0  0  0
   57.8636   29.0919   52.2798 H   0  0  0  0  0  0  0  0  0  0  0  0
   58.5268   28.1338   54.9402 H   0  0  0  0  0  0  0  0  0  0  0  0
   57.4513   27.4099   53.6969 H   0  0  0  0  0  0  0  0  0  0  0  0
   59.2069   27.0300   53.6969 H   0  0  0  0  0  0  0  0  0  0  0  0
   58.7521   30.0765   54.8527 H   0  0  0  0  0  0  0  0  0  0  0  0
   59.6774   30.8652   53.5304 H   0  0  0  0  0  0  0  0  0  0  0  0
   57.8821   30.9258   53.5304 H   0  0  0  0  0  0  0  0  0  0  0  0
   57.9005   27.1503   48.6206 H   0  0  0  0  0  0  0  0  0  0  0  0
   56.8625   27.4064   46.3711 H   0  0  0  0  0  0  0  0  0  0  0  0
   58.2409   26.8835   43.7800 H   0  0  0  0  0  0  0  0  0  0  0  0
   57.1362   27.7732   42.6778 H   0  0  0  0  0  0  0  0  0  0  0  0
   58.8941   28.1425   42.6778 H   0  0  0  0  0  0  0  0  0  0  0  0
   58.0155   32.5977   42.7480 H   0  0  0  0  0  0  0  0  0  0  0  0
   59.1658   34.5843   43.7316 H   0  0  0  0  0  0  0  0  0  0  0  0
   58.5230   32.9964   47.7058 H   0  0  0  0  0  0  0  0  0  0  0  0
   57.3769   31.0048   46.7262 H   0  0  0  0  0  0  0  0  0  0  0  0
   60.1322   29.9584   45.1479 H   0  0  0  0  0  0  0  0  0  0  0  0
   61.1414   29.7600   47.4161 H   0  0  0  0  0  0  0  0  0  0  0  0
  1  2  1  0
  2  3  1  0
  3  4  1  0
  4  5  1  0
  5  6  1  0
  5  7  2  0
  7  8  1  0
  8  9  1  0
  9 10  1  0
 10 11  1  0
 10 12  1  0
  8 13  1  0
 13 14  2  0
 13 15  1  0
 15 16  2  0
 16 17  1  0
 17 18  2  0
 18 19  1  0
 19 20  1  0
 19 21  1  0
 21 22  2  0
 21 23  2  0
 21 24  1  0
 24 25  2  0
 25 26  1  0
 26 27  2  0
 27 28  1  0
 27 29  1  0
 29 30  2  0
 18 31  1  0
 31 32  2  0
  7 33  1  0
 33 34  2  0
 33 35  1  0
 35 36  1  0
 36 37  2  0
 36  4  1  0
 32 15  1  0
 30 24  1  0
  1 38  1  0
  1 39  1  0
  1 40  1  0
  2 41  1  0
  2 42  1  0
  3 43  1  0
  3 44  1  0
  6 45  1  0
  6 46  1  0
  9 47  1  0
  9 48  1  0
 10 49  1  0
 11 50  1  0
 11 51  1  0
 11 52  1  0
 12 53  1  0
 12 54  1  0
 12 55  1  0
 16 56  1  0
 17 57  1  0
 20 58  1  0
 20 59  1  0
 20 60  1  0
 25 61  1  0
 26 62  1  0
 29 63  1  0
 30 64  1  0
 31 65  1  0
 32 66  1  0
M  CHG  1  35  -1
M  END
>  <UniqueID>  (24) 
21

>  <SMILES>  (24) 
CCCn1c(N)c(N(CC(C)C)C(=O)c2ccc(N(C)S(=O)(=O)c3ccc(F)cc3)cc2)c(=O)[n-]c1=O

>  <Energy>  (24) 
87.45642795405041

>  <Genealogy>  (24) 
CCCn1c(N)c(N(CC(C)C)C(=O)c2ccc(N(C)S(=O)(=O)c3ccc(F)cc3)cc2)c(=O)[n-]c1=O (protonated)
CCCn1c(N)c(N(CC(C)C)C(=O)c2ccc(N(C)S(=O)(=O)c3ccc(F)cc3)cc2)c(=O)[n-]c1=O (3D coordinates assigned)
CCCn1c(N)c(N(CC(C)C)C(=O)c2ccc(N(C)S(=O)(=O)c3ccc(F)cc3)cc2)c(=O)[n-]c1=O (optimized conformer: 87.45642795405041 kcal/mol)

>  <smiles>  (24) 
CCCn1c(N)c(N(CC(C)C)C(=O)c2ccc(N(C)S(=O)(=O)c3ccc(F)cc3)cc2)c(=O)[nH]c1=O

>  <score_type>  (24) 
oracle

>  <origin>  (24) 
adg

>  <m_score__min__energy>  (24) 
-11.300000000000001

>  <m_primary>  (24) 
energy

$$$$
24:0
     RDKit          3D

 37 40  0  0  0  0  0  0  0  0999 V2000
   55.1460   29.9080   43.8620 O   0  0  0  0  0  0  0  0  0  0  0  0
   56.0070   29.5510   44.7050 C   0  0  0  0  0  0  0  0  0  0  0  0
   55.9260   28.2250   45.2560 N   0  0  0  0  0  0  0  0  0  0  0  0
   56.9520   27.1750   45.2930 C   0  0  0  0  0  0  0  0  0  0  0  0
   57.4430   26.8630   46.7100 C   0  0  0  0  0  0  0  0  0  0  0  0
   58.9430   27.1330   46.7190 C   0  0  0  0  0  0  0  0  0  0  0  0
   59.3860   27.1050   45.2660 C   0  0  0  0  0  0  0  0  0  0  0  0
   58.1760   27.5280   44.4480 C   0  0  0  0  0  0  0  0  0  0  0  0
   57.0360   30.5140   45.1060 C   0  0  0  0  0  0  0  0  0  0  0  0
   57.2450   31.7540   44.5100 C   0  0  0  0  0  0  0  0  0  0  0  0
   58.3760   32.4140   45.0080 C   0  0  0  0  0  0  0  0  0  0  0  0
   59.0790   31.6740   45.9520 C   0  0  0  0  0  0  0  0  0  0  0  0
   58.3010   30.1970   46.1720 S   0  0  0  0  0  0  0  0  0  0  0  0
   60.3400   32.1270   46.5660 C   0  0  0  0  0  0  0  0  0  0  0  0
   61.2440   31.2110   47.1290 C   0  0  0  0  0  0  0  0  0  0  0  0
   62.4980   31.6450   47.5700 C   0  0  0  0  0  0  0  0  0  0  0  0
   62.8600   32.9890   47.4450 C   0  0  0  0  0  0  0  0  0  0  0  0
   61.9600   33.9090   46.8990 C   0  0  0  0  0  0  0  0  0  0  0  0
   60.6930   33.4890   46.4770 C   0  0  0  0  0  0  0  0  0  0  0  0
   59.4970   34.7220   45.9120 S   0  0  0  0  0  0  0  0  0  0  0  0
   58.8760   33.7350   44.5070 C   0  0  0  0  0  0  0  0  0  0  0  0
   56.4478   26.2894   44.8789 H   0  0  0  0  0  0  0  0  0  0  0  0
   56.9359   27.5120   47.4391 H   0  0  0  0  0  0  0  0  0  0  0  0
   57.2254   25.8205   46.9852 H   0  0  0  0  0  0  0  0  0  0  0  0
   59.1507   28.1180   47.1623 H   0  0  0  0  0  0  0  0  0  0  0  0
   59.4821   26.3839   47.3175 H   0  0  0  0  0  0  0  0  0  0  0  0
   60.2184   27.8064   45.1071 H   0  0  0  0  0  0  0  0  0  0  0  0
   59.7397   26.1055   44.9729 H   0  0  0  0  0  0  0  0  0  0  0  0
   58.2062   28.6100   44.2523 H   0  0  0  0  0  0  0  0  0  0  0  0
   58.1519   27.0207   43.4722 H   0  0  0  0  0  0  0  0  0  0  0  0
   56.5912   32.1718   43.7302 H   0  0  0  0  0  0  0  0  0  0  0  0
   60.9651   30.1511   47.2231 H   0  0  0  0  0  0  0  0  0  0  0  0
   63.2013   30.9267   48.0165 H   0  0  0  0  0  0  0  0  0  0  0  0
   63.8541   33.3234   47.7766 H   0  0  0  0  0  0  0  0  0  0  0  0
   62.2483   34.9660   46.8007 H   0  0  0  0  0  0  0  0  0  0  0  0
   58.0543   34.2752   44.0140 H   0  0  0  0  0  0  0  0  0  0  0  0
   59.6903   33.5698   43.7861 H   0  0  0  0  0  0  0  0  0  0  0  0
  1  2  2  0
  2  3  1  0
  3  4  1  0
  4  5  1  0
  5  6  1  0
  6  7  1  0
  7  8  1  0
  2  9  1  0
  9 10  2  0
 10 11  1  0
 11 12  2  0
 12 13  1  0
 12 14  1  0
 14 15  2  0
 15 16  1  0
 16 17  2  0
 17 18  1  0
 18 19  2  0
 19 20  1  0
 20 21  1  0
  8  4  1  0
 13  9  1  0
 19 14  1  0
 21 11  1  0
  4 22  1  0
  5 23  1  0
  5 24  1  0
  6 25  1  0
  6 26  1  0
  7 27  1  0
  7 28  1  0
  8 29  1  0
  8 30  1  0
 10 31  1  0
 15 32  1  0
 16 33  1  0
 17 34  1  0
 18 35  1  0
 21 36  1  0
 21 37  1  0
M  CHG  1   3  -1
M  END
>  <UniqueID>  (25) 
22

>  <SMILES>  (25) 
O=C([N-]C1CCCC1)c1cc2c(s1)-c1ccccc1SC2

>  <Energy>  (25) 
80.71909138825015

>  <Genealogy>  (25) 
O=C([N-]C1CCCC1)c1cc2c(s1)-c1ccccc1SC2 (protonated)
O=C([N-]C1CCCC1)c1cc2c(s1)-c1ccccc1SC2 (3D coordinates assigned)
O=C([N-]C1CCCC1)c1cc2c(s1)-c1ccccc1SC2 (nonaromatic ring conformer: 80.71909138825015 kcal/mol)

>  <smiles>  (25) 
O=C(NC1CCCC1)c1cc2c(s1)-c1ccccc1SC2

>  <score_type>  (25) 
oracle

>  <origin>  (25) 
adg

>  <m_score__min__energy>  (25) 
-10.300000000000001

>  <m_primary>  (25) 
energy

$$$$
25:0
     RDKit          3D

 18 19  0  0  0  0  0  0  0  0999 V2000
   59.4430   24.2700   46.0040 N   0  0  0  0  0  0  0  0  0  0  0  0
   58.7880   25.2010   45.7930 C   0  0  0  0  0  0  0  0  0  0  0  0
   57.9720   26.3600   45.5290 C   0  0  0  0  0  0  0  0  0  0  0  0
   58.5380   27.4820   44.9120 C   0  0  0  0  0  0  0  0  0  0  0  0
   57.7500   28.6100   44.6530 C   0  0  0  0  0  0  0  0  0  0  0  0
   58.2870   29.7490   44.0360 C   0  0  0  0  0  0  0  0  0  0  0  0
   57.4740   30.8610   43.7900 C   0  0  0  0  0  0  0  0  0  0  0  0
   58.1470   32.2860   43.0190 Cl  0  0  0  0  0  0  0  0  0  0  0  0
   56.1240   30.8390   44.1600 C   0  0  0  0  0  0  0  0  0  0  0  0
   55.5810   29.7070   44.7750 C   0  0  0  0  0  0  0  0  0  0  0  0
   56.3870   28.5910   45.0240 C   0  0  0  0  0  0  0  0  0  0  0  0
   55.8610   27.4890   45.6220 N   0  0  0  0  0  0  0  0  0  0  0  0
   56.6120   26.3840   45.8820 C   0  0  0  0  0  0  0  0  0  0  0  0
   56.0750   25.3890   46.4380 O   0  0  0  0  0  0  0  0  0  0  0  0
   59.6014   27.4774   44.6308 H   0  0  0  0  0  0  0  0  0  0  0  0
   59.3477   29.7683   43.7453 H   0  0  0  0  0  0  0  0  0  0  0  0
   55.4882   31.7155   43.9661 H   0  0  0  0  0  0  0  0  0  0  0  0
   54.5195   29.6938   45.0632 H   0  0  0  0  0  0  0  0  0  0  0  0
  1  2  3  0
  2  3  1  0
  3  4  2  0
  4  5  1  0
  5  6  2  0
  6  7  1  0
  7  8  1  0
  7  9  2  0
  9 10  1  0
 10 11  2  0
 11 12  1  0
 12 13  1  0
 13 14  2  0
 13  3  1  0
 11  5  1  0
  4 15  1  0
  6 16  1  0
  9 17  1  0
 10 18  1  0
M  CHG  1  12  -1
M  END
>  <UniqueID>  (26) 
23

>  <SMILES>  (26) 
N#Cc1cc2cc(Cl)ccc2[n-]c1=O

>  <Energy>  (26) 
22.15396059243984

>  <Genealogy>  (26) 
N#Cc1cc2cc(Cl)ccc2[n-]c1=O (protonated)
N#Cc1cc2cc(Cl)ccc2[n-]c1=O (3D coordinates assigned)
N#Cc1cc2cc(Cl)ccc2[n-]c1=O (optimized conformer: 22.15396059243984 kcal/mol)

>  <smiles>  (26) 
N#Cc1cc2cc(Cl)ccc2[nH]c1=O

>  <score_type>  (26) 
oracle

>  <origin>  (26) 
adg

>  <m_score__min__energy>  (26) 
-7.5

>  <m_primary>  (26) 
energy

$$$$
26:0
     RDKit          3D

 44 47  0  0  1  0  0  0  0  0999 V2000
   56.0620   30.0720   43.8030 C   0  0  0  0  0  0  0  0  0  0  0  0
   56.6330   30.0680   45.1140 O   0  0  0  0  0  0  0  0  0  0  0  0
   57.9410   29.6480   45.2620 C   0  0  0  0  0  0  0  0  0  0  0  0
   58.5550   28.7880   44.3470 C   0  0  0  0  0  0  0  0  0  0  0  0
   59.8650   28.3730   44.5040 C   0  0  0  0  0  0  0  0  0  0  0  0
   60.5970   28.8170   45.5990 C   0  0  0  0  0  0  0  0  0  0  0  0
   59.9700   29.6670   46.4920 C   0  0  0  0  0  0  0  0  0  0  0  0
   58.6600   30.0830   46.3360 C   0  0  0  0  0  0  0  0  0  0  0  0
   60.2270   34.2810   49.7100 N   0  0  0  0  0  0  0  0  0  0  0  0
   59.6380   33.8750   48.6540 C   0  0  0  0  0  0  0  0  0  0  0  0
   59.1910   32.6260   48.5280 N   0  0  0  0  0  0  0  0  0  0  0  0
   58.5680   32.1580   47.4390 C   0  0  0  0  0  0  0  0  0  0  0  0
   58.1510   30.9600   47.3400 N   0  0  0  0  0  0  0  0  0  0  0  0
   61.4160   33.6500   50.2430 C   0  0  0  0  0  0  0  0  0  0  0  0
   62.2110   33.2240   49.0370 C   0  0  0  0  0  0  0  0  0  0  0  0
   62.2390   31.8920   48.6340 C   0  0  0  0  0  0  0  0  0  0  0  0
   63.0000   31.5830   47.5100 C   0  0  0  0  0  0  0  0  0  0  0  0
   63.7030   32.5590   46.8150 C   0  0  0  0  0  0  0  0  0  0  0  0
   63.6770   33.8730   47.2120 C   0  0  0  0  0  0  0  0  0  0  0  0
   62.9250   34.1860   48.3260 C   0  0  0  0  0  0  0  0  0  0  0  0
   59.4490   34.7150   47.6240 N   0  0  0  0  0  0  0  0  0  0  0  0
   58.8260   34.3110   46.4910 C   0  0  0  0  0  0  0  0  0  0  0  0
   58.5070   34.9220   45.3250 N   0  0  0  0  0  0  0  0  0  0  0  0
   57.8770   34.0530   44.5080 C   0  0  0  0  0  0  0  0  0  0  0  0
   57.7870   32.8700   45.1480 N   0  0  0  0  0  0  0  0  0  0  0  0
   58.3630   33.0140   46.3600 C   0  0  0  0  0  0  0  0  0  0  0  0
   54.9648   30.0797   43.8810 H   0  0  0  0  0  0  0  0  0  0  0  0
   56.3973   30.9678   43.2598 H   0  0  0  0  0  0  0  0  0  0  0  0
   56.3847   29.1716   43.2598 H   0  0  0  0  0  0  0  0  0  0  0  0
   57.9810   28.4318   43.4789 H   0  0  0  0  0  0  0  0  0  0  0  0
   60.3241   27.6967   43.7679 H   0  0  0  0  0  0  0  0  0  0  0  0
   61.6403   28.5028   45.7503 H   0  0  0  0  0  0  0  0  0  0  0  0
   60.5370   30.0274   47.3630 H   0  0  0  0  0  0  0  0  0  0  0  0
   59.3420   31.9800   49.3310 H   0  0  0  0  0  0  0  0  0  0  0  0
   61.9911   34.3630   50.8520 H   0  0  0  0  0  0  0  0  0  0  0  0
   61.1724   32.7993   50.8964 H   0  0  0  0  0  0  0  0  0  0  0  0
   61.6831   31.1161   49.1807 H   0  0  0  0  0  0  0  0  0  0  0  0
   63.0458   30.5400   47.1635 H   0  0  0  0  0  0  0  0  0  0  0  0
   64.2913   32.2738   45.9304 H   0  0  0  0  0  0  0  0  0  0  0  0
   64.2342   34.6466   46.6632 H   0  0  0  0  0  0  0  0  0  0  0  0
   62.8881   35.2320   48.6645 H   0  0  0  0  0  0  0  0  0  0  0  0
   59.7720   35.6850   47.6710 H   0  0  0  0  0  0  0  0  0  0  0  0
   57.5025   34.2713   43.4970 H   0  0  0  0  0  0  0  0  0  0  0  0
   57.3470   32.0020   44.7630 H   0  0  0  0  0  0  0  0  0  0  0  0
  1  2  1  0
  2  3  1  0
  3  4  2  0
  4  5  1  0
  5  6  2  0
  6  7  1  0
  7  8  2  0
  8  9  1  0
  9 10  2  0
 10 11  1  0
 11 12  1  0
 12 13  2  0
 13 14  1  0
 14 15  1  0
 15 16  2  0
 16 17  1  0
 17 18  2  0
 18 19  1  0
 19 20  2  0
 12 21  1  0
 21 22  1  0
 22 23  1  0
 23 24  2  0
 24 25  1  0
 25 26  1  0
  8  3  1  0
 26 10  1  0
 20 15  1  0
 26 22  2  0
  1 27  1  0
  1 28  1  0
  1 29  1  0
  4 30  1  0
  5 31  1  0
  6 32  1  0
  7 33  1  0
 11 34  1  0
 14 35  1  0
 14 36  1  0
 16 37  1  0
 17 38  1  0
 18 39  1  0
 19 40  1  0
 20 41  1  0
 21 42  1  0
 24 43  1  0
 25 44  1  0
M  END
>  <smiles>  (27) 
COc1ccccc1N=c1[nH]c(=NCc2ccccc2)[nH]c2nc[nH]c12

>  <score_type>  (27) 
oracle

>  <origin>  (27) 
adg

>  <m_score__min__energy>  (27) 
-8.1300000000000008

>  <m_primary>  (27) 
energy

$$$$
27:0
     RDKit          3D

 35 36  0  0  0  0  0  0  0  0999 V2000
   60.8470   26.4660   46.5500 C   0  0  0  0  0  0  0  0  0  0  0  0
   59.7620   27.3390   45.9900 C   0  0  0  0  0  0  0  0  0  0  0  0
   60.0800   28.3250   45.0450 C   0  0  0  0  0  0  0  0  0  0  0  0
   59.0720   29.1280   44.4990 C   0  0  0  0  0  0  0  0  0  0  0  0
   57.7390   28.9470   44.8870 C   0  0  0  0  0  0  0  0  0  0  0  0
   56.4770   29.9490   44.1770 S   0  0  0  0  0  0  0  0  0  0  0  0
   56.6380   30.0320   42.6840 O   0  0  0  0  0  0  0  0  0  0  0  0
   55.1400   29.3410   44.4920 O   0  0  0  0  0  0  0  0  0  0  0  0
   56.5460   31.5480   44.8430 N   0  0  0  0  0  0  0  0  0  0  0  0
   57.7240   32.1740   45.3730 C   0  0  0  0  0  0  0  0  0  0  0  0
   58.1600   33.3680   44.7970 C   0  0  0  0  0  0  0  0  0  0  0  0
   59.2930   34.0200   45.2860 C   0  0  0  0  0  0  0  0  0  0  0  0
   60.0130   33.4870   46.3670 C   0  0  0  0  0  0  0  0  0  0  0  0
   61.2320   34.2120   46.8730 C   0  0  0  0  0  0  0  0  0  0  0  0
   59.5850   32.2730   46.9540 C   0  0  0  0  0  0  0  0  0  0  0  0
   60.3230   31.6660   48.1190 C   0  0  0  0  0  0  0  0  0  0  0  0
   58.4420   31.6260   46.4500 C   0  0  0  0  0  0  0  0  0  0  0  0
   57.4190   27.9600   45.8280 C   0  0  0  0  0  0  0  0  0  0  0  0
   58.4250   27.1550   46.3730 C   0  0  0  0  0  0  0  0  0  0  0  0
   60.8106   26.4953   47.6490 H   0  0  0  0  0  0  0  0  0  0  0  0
   60.6997   25.4317   46.2057 H   0  0  0  0  0  0  0  0  0  0  0  0
   61.8258   26.8312   46.2057 H   0  0  0  0  0  0  0  0  0  0  0  0
   61.1248   28.4678   44.7319 H   0  0  0  0  0  0  0  0  0  0  0  0
   59.3280   29.9039   43.7625 H   0  0  0  0  0  0  0  0  0  0  0  0
   57.6059   33.7990   43.9502 H   0  0  0  0  0  0  0  0  0  0  0  0
   59.6248   34.9597   44.8203 H   0  0  0  0  0  0  0  0  0  0  0  0
   61.2293   34.2104   47.9730 H   0  0  0  0  0  0  0  0  0  0  0  0
   62.1377   33.7057   46.5078 H   0  0  0  0  0  0  0  0  0  0  0  0
   61.2195   35.2495   46.5078 H   0  0  0  0  0  0  0  0  0  0  0  0
   59.8833   32.0277   49.0602 H   0  0  0  0  0  0  0  0  0  0  0  0
   60.2417   30.5699   48.0736 H   0  0  0  0  0  0  0  0  0  0  0  0
   61.3828   31.9573   48.0736 H   0  0  0  0  0  0  0  0  0  0  0  0
   58.1067   30.6815   46.9034 H   0  0  0  0  0  0  0  0  0  0  0  0
   56.3737   27.8175   46.1393 H   0  0  0  0  0  0  0  0  0  0  0  0
   58.1668   26.3750   47.1044 H   0  0  0  0  0  0  0  0  0  0  0  0
  1  2  1  0
  2  3  2  0
  3  4  1  0
  4  5  2  0
  5  6  1  0
  6  7  2  0
  6  8  2  0
  6  9  1  0
  9 10  1  0
 10 11  2  0
 11 12  1  0
 12 13  2  0
 13 14  1  0
 13 15  1  0
 15 16  1  0
 15 17  2  0
  5 18  1  0
 18 19  2  0
 19  2  1  0
 17 10  1  0
  1 20  1  0
  1 21  1  0
  1 22  1  0
  3 23  1  0
  4 24  1  0
 11 25  1  0
 12 26  1  0
 14 27  1  0
 14 28  1  0
 14 29  1  0
 16 30  1  0
 16 31  1  0
 16 32  1  0
 17 33  1  0
 18 34  1  0
 19 35  1  0
M  CHG  1   9  -1
M  END
>  <UniqueID>  (28) 
24

>  <SMILES>  (28) 
Cc1ccc(S(=O)(=O)[N-]c2ccc(C)c(C)c2)cc1

>  <Energy>  (28) 
37.34678888169227

>  <Genealogy>  (28) 
Cc1ccc(S(=O)(=O)[N-]c2ccc(C)c(C)c2)cc1 (protonated)
Cc1ccc(S(=O)(=O)[N-]c2ccc(C)c(C)c2)cc1 (3D coordinates assigned)
Cc1ccc(S(=O)(=O)[N-]c2ccc(C)c(C)c2)cc1 (optimized conformer: 37.34678888169227 kcal/mol)

>  <smiles>  (28) 
Cc1ccc(S(=O)(=O)Nc2ccc(C)c(C)c2)cc1

>  <score_type>  (28) 
oracle

>  <origin>  (28) 
adg

>  <m_score__min__energy>  (28) 
-8.9399999999999995

>  <m_primary>  (28) 
energy

$$$$
28:0
     RDKit          3D

 40 43  0  0  0  0  0  0  0  0999 V2000
   58.1870   27.4620   47.7540 C   0  0  0  0  0  0  0  0  0  0  0  0
   58.0540   27.0820   46.3050 C   0  0  0  0  0  0  0  0  0  0  0  0
   57.7380   25.7560   45.9600 C   0  0  0  0  0  0  0  0  0  0  0  0
   57.6170   25.3790   44.6170 C   0  0  0  0  0  0  0  0  0  0  0  0
   57.1970   23.7210   44.1970 S   0  0  0  0  0  0  0  0  0  0  0  0
   56.4820   23.6910   42.6230 N   0  0  0  0  0  0  0  0  0  0  0  0
   56.2230   23.1740   45.2010 O   0  0  0  0  0  0  0  0  0  0  0  0
   58.4320   22.8640   44.2070 O   0  0  0  0  0  0  0  0  0  0  0  0
   57.8070   26.3310   43.6090 C   0  0  0  0  0  0  0  0  0  0  0  0
   58.1360   27.6470   43.9400 C   0  0  0  0  0  0  0  0  0  0  0  0
   58.2730   28.0290   45.2810 C   0  0  0  0  0  0  0  0  0  0  0  0
   58.6300   29.3850   45.5930 N   0  0  0  0  0  0  0  0  0  0  0  0
   57.7150   30.4580   45.3170 C   0  0  0  0  0  0  0  0  0  0  0  0
   56.5810   30.2090   44.8220 O   0  0  0  0  0  0  0  0  0  0  0  0
   58.1040   31.8540   45.6230 C   0  0  0  0  0  0  0  0  0  0  0  0
   57.2310   32.9170   45.3380 C   0  0  0  0  0  0  0  0  0  0  0  0
   57.5970   34.2320   45.6290 C   0  0  0  0  0  0  0  0  0  0  0  0
   58.8350   34.5070   46.2090 C   0  0  0  0  0  0  0  0  0  0  0  0
   59.7230   33.4630   46.5040 C   0  0  0  0  0  0  0  0  0  0  0  0
   60.9680   33.7390   47.0880 C   0  0  0  0  0  0  0  0  0  0  0  0
   61.8510   32.7010   47.3820 C   0  0  0  0  0  0  0  0  0  0  0  0
   61.5060   31.3790   47.0960 C   0  0  0  0  0  0  0  0  0  0  0  0
   60.2650   31.0760   46.5090 C   0  0  0  0  0  0  0  0  0  0  0  0
   59.3620   32.1230   46.2100 C   0  0  0  0  0  0  0  0  0  0  0  0
   59.8990   29.6750   46.2020 C   0  0  0  0  0  0  0  0  0  0  0  0
   60.7030   28.7370   46.4630 O   0  0  0  0  0  0  0  0  0  0  0  0
   57.8893   26.6115   48.3849 H   0  0  0  0  0  0  0  0  0  0  0  0
   59.2322   27.7295   47.9685 H   0  0  0  0  0  0  0  0  0  0  0  0
   57.5368   28.3229   47.9685 H   0  0  0  0  0  0  0  0  0  0  0  0
   57.5845   25.0083   46.7521 H   0  0  0  0  0  0  0  0  0  0  0  0
   56.6500   22.7390   42.2300 H   0  0  0  0  0  0  0  0  0  0  0  0
   57.0200   24.3630   42.0310 H   0  0  0  0  0  0  0  0  0  0  0  0
   57.6969   26.0419   42.5534 H   0  0  0  0  0  0  0  0  0  0  0  0
   58.2887   28.3890   43.1424 H   0  0  0  0  0  0  0  0  0  0  0  0
   56.2513   32.7114   44.8819 H   0  0  0  0  0  0  0  0  0  0  0  0
   56.9052   35.0559   45.3996 H   0  0  0  0  0  0  0  0  0  0  0  0
   59.1156   35.5462   46.4357 H   0  0  0  0  0  0  0  0  0  0  0  0
   61.2487   34.7781   47.3148 H   0  0  0  0  0  0  0  0  0  0  0  0
   62.8249   32.9250   47.8418 H   0  0  0  0  0  0  0  0  0  0  0  0
   62.2107   30.5679   47.3318 H   0  0  0  0  0  0  0  0  0  0  0  0
  1  2  1  0
  2  3  2  0
  3  4  1  0
  4  5  1  0
  5  6  1  0
  5  7  2  0
  5  8  2  0
  4  9  2  0
  9 10  1  0
 10 11  2  0
 11 12  1  0
 12 13  1  0
 13 14  2  0
 13 15  1  0
 15 16  2  0
 16 17  1  0
 17 18  2  0
 18 19  1  0
 19 20  2  0
 20 21  1  0
 21 22  2  0
 22 23  1  0
 23 24  2  0
 23 25  1  0
 25 26  2  0
 11  2  1  0
 25 12  1  0
 24 15  1  0
 24 19  1  0
  1 27  1  0
  1 28  1  0
  1 29  1  0
  3 30  1  0
  6 31  1  0
  6 32  1  0
  9 33  1  0
 10 34  1  0
 16 35  1  0
 17 36  1  0
 18 37  1  0
 20 38  1  0
 21 39  1  0
 22 40  1  0
M  END
>  <UniqueID>  (29) 
25

>  <SMILES>  (29) 
Cc1cc(S(N)(=O)=O)ccc1N1C(=O)c2cccc3cccc(c23)C1=O

>  <Energy>  (29) 
55.966646588826364

>  <Genealogy>  (29) 
Cc1cc(S(N)(=O)=O)ccc1N1C(=O)c2cccc3cccc(c23)C1=O (3D coordinates assigned)
Cc1cc(S(N)(=O)=O)ccc1N1C(=O)c2cccc3cccc(c23)C1=O (nonaromatic ring conformer: 55.966646588826364 kcal/mol)

>  <smiles>  (29) 
Cc1cc(S(N)(=O)=O)ccc1N1C(=O)c2cccc3cccc(c23)C1=O

>  <score_type>  (29) 
oracle

>  <origin>  (29) 
adg

>  <m_score__min__energy>  (29) 
-9.0299999999999994

>  <m_primary>  (29) 
energy

$$$$
29:0
     RDKit          3D

 42 44  0  0  0  0  0  0  0  0999 V2000
   58.9220   34.6680   47.1540 C   0  0  0  0  0  0  0  0  0  0  0  0
   58.7320   33.3520   46.4480 C   0  0  0  0  0  0  0  0  0  0  0  0
   59.4550   32.2280   46.8810 C   0  0  0  0  0  0  0  0  0  0  0  0
   59.2950   30.9950   46.2500 C   0  0  0  0  0  0  0  0  0  0  0  0
   58.3970   30.8520   45.1840 C   0  0  0  0  0  0  0  0  0  0  0  0
   58.2180   29.5690   44.5600 N   0  0  0  0  0  0  0  0  0  0  0  0
   57.1890   29.1830   43.7830 C   0  0  0  0  0  0  0  0  0  0  0  0
   57.4050   27.9510   43.2930 N   0  0  0  0  0  0  0  0  0  0  0  0
   58.5810   27.5290   43.7280 N   0  0  0  0  0  0  0  0  0  0  0  0
   59.0700   28.5200   44.5010 C   0  0  0  0  0  0  0  0  0  0  0  0
   60.7070   28.4540   45.2440 S   0  0  0  0  0  0  0  0  0  0  0  0
   60.2540   27.2320   46.5210 C   0  0  0  0  0  0  0  0  0  0  0  0
   59.0270   27.6680   47.2710 C   0  0  0  0  0  0  0  0  0  0  0  0
   59.1350   28.5800   48.1330 O   0  0  0  0  0  0  0  0  0  0  0  0
   57.7200   27.1690   46.9540 N   0  0  0  0  0  0  0  0  0  0  0  0
   57.4150   25.9540   46.2560 C   0  0  0  0  0  0  0  0  0  0  0  0
   58.3780   24.9440   46.0870 C   0  0  0  0  0  0  0  0  0  0  0  0
   58.0470   23.7620   45.4200 C   0  0  0  0  0  0  0  0  0  0  0  0
   56.7490   23.5670   44.9420 C   0  0  0  0  0  0  0  0  0  0  0  0
   55.7770   24.5510   45.1400 C   0  0  0  0  0  0  0  0  0  0  0  0
   56.1050   25.7370   45.8050 C   0  0  0  0  0  0  0  0  0  0  0  0
   55.1510   26.6820   45.9980 F   0  0  0  0  0  0  0  0  0  0  0  0
   57.6810   31.9730   44.7370 C   0  0  0  0  0  0  0  0  0  0  0  0
   57.8290   33.2210   45.3670 C   0  0  0  0  0  0  0  0  0  0  0  0
   57.0400   34.4010   44.8600 C   0  0  0  0  0  0  0  0  0  0  0  0
   58.8988   34.5072   48.2419 H   0  0  0  0  0  0  0  0  0  0  0  0
   59.8920   35.1009   46.8680 H   0  0  0  0  0  0  0  0  0  0  0  0
   58.1141   35.3575   46.8680 H   0  0  0  0  0  0  0  0  0  0  0  0
   60.1537   32.3215   47.7255 H   0  0  0  0  0  0  0  0  0  0  0  0
   59.8785   30.1274   46.5919 H   0  0  0  0  0  0  0  0  0  0  0  0
   56.2958   29.7914   43.5779 H   0  0  0  0  0  0  0  0  0  0  0  0
   56.7760   27.4100   42.6610 H   0  0  0  0  0  0  0  0  0  0  0  0
   60.0556   26.2637   46.0383 H   0  0  0  0  0  0  0  0  0  0  0  0
   61.0876   27.1434   47.2332 H   0  0  0  0  0  0  0  0  0  0  0  0
   59.3953   25.0848   46.4811 H   0  0  0  0  0  0  0  0  0  0  0  0
   58.8098   22.9835   45.2710 H   0  0  0  0  0  0  0  0  0  0  0  0
   56.4922   22.6391   44.4099 H   0  0  0  0  0  0  0  0  0  0  0  0
   54.7524   24.3927   44.7724 H   0  0  0  0  0  0  0  0  0  0  0  0
   56.9952   31.8740   43.8827 H   0  0  0  0  0  0  0  0  0  0  0  0
   56.6542   34.9780   45.7133 H   0  0  0  0  0  0  0  0  0  0  0  0
   57.6916   35.0423   44.2483 H   0  0  0  0  0  0  0  0  0  0  0  0
   56.1984   34.0438   44.2483 H   0  0  0  0  0  0  0  0  0  0  0  0
  1  2  1  0
  2  3  2  0
  3  4  1  0
  4  5  2  0
  5  6  1  0
  6  7  1  0
  7  8  2  0
  8  9  1  0
  9 10  2  0
 10 11  1  0
 11 12  1  0
 12 13  1  0
 13 14  2  0
 13 15  1  0
 15 16  1  0
 16 17  2  0
 17 18  1  0
 18 19  2  0
 19 20  1  0
 20 21  2  0
 21 22  1  0
  5 23  1  0
 23 24  2  0
 24 25  1  0
 24  2  1  0
 10  6  1  0
 21 16  1  0
  1 26  1  0
  1 27  1  0
  1 28  1  0
  3 29  1  0
  4 30  1  0
  7 31  1  0
  8 32  1  0
 12 33  1  0
 12 34  1  0
 17 35  1  0
 18 36  1  0
 19 37  1  0
 20 38  1  0
 23 39  1  0
 25 40  1  0
 25 41  1  0
 25 42  1  0
M  CHG  2   8   1  15  -1
M  END
>  <UniqueID>  (30) 
26

>  <SMILES>  (30) 
Cc1ccc(-n2c[nH+]nc2SCC(=O)[N-]c2ccccc2F)cc1C

>  <Energy>  (30) 
81.47593277799153

>  <Genealogy>  (30) 
Cc1ccc(-n2c[nH+]nc2SCC(=O)[N-]c2ccccc2F)cc1C (protonated)
Cc1ccc(-n2c[nH+]nc2SCC(=O)[N-]c2ccccc2F)cc1C (3D coordinates assigned)
Cc1ccc(-n2c[nH+]nc2SCC(=O)[N-]c2ccccc2F)cc1C (optimized conformer: 81.47593277799153 kcal/mol)

>  <smiles>  (30) 
Cc1ccc(-n2cnnc2SCC(=O)Nc2ccccc2F)cc1C

>  <score_type>  (30) 
oracle

>  <origin>  (30) 
adg

>  <m_score__min__energy>  (30) 
-9.3499999999999996

>  <m_primary>  (30) 
energy

$$$$
30:0
     RDKit          3D

 41 43  0  0  0  0  0  0  0  0999 V2000
   55.7380   30.5510   44.7660 O   0  0  0  0  0  0  0  0  0  0  0  0
   56.9470   30.0610   44.0190 S   0  0  0  0  0  0  0  0  0  0  0  0
   56.6630   30.1980   42.5490 O   0  0  0  0  0  0  0  0  0  0  0  0
   57.1750   28.3510   44.4190 C   0  0  0  0  0  0  0  0  0  0  0  0
   57.9120   27.5140   43.5650 C   0  0  0  0  0  0  0  0  0  0  0  0
   58.0910   26.1630   43.8800 C   0  0  0  0  0  0  0  0  0  0  0  0
   57.5610   25.6450   45.0640 C   0  0  0  0  0  0  0  0  0  0  0  0
   57.7340   24.3350   45.3690 F   0  0  0  0  0  0  0  0  0  0  0  0
   56.8670   26.4810   45.9430 C   0  0  0  0  0  0  0  0  0  0  0  0
   56.6890   27.8310   45.6300 C   0  0  0  0  0  0  0  0  0  0  0  0
   58.3180   31.0780   44.4320 N   0  0  2  0  0  0  0  0  0  0  0  0
   58.7510   30.9390   45.8480 C   0  0  0  0  0  0  0  0  0  0  0  0
   59.3850   29.6100   46.2080 C   0  0  0  0  0  0  0  0  0  0  0  0
   59.0640   28.9860   47.4270 C   0  0  0  0  0  0  0  0  0  0  0  0
   59.6150   27.7440   47.7560 C   0  0  0  0  0  0  0  0  0  0  0  0
   60.4820   27.1060   46.8660 C   0  0  0  0  0  0  0  0  0  0  0  0
   60.7780   27.6970   45.6360 C   0  0  0  0  0  0  0  0  0  0  0  0
   60.2190   28.9340   45.3000 C   0  0  0  0  0  0  0  0  0  0  0  0
   58.0950   32.4730   43.9940 C   0  0  0  0  0  0  0  0  0  0  0  0
   58.5450   33.4730   45.0240 C   0  0  0  0  0  0  0  0  0  0  0  0
   59.6500   34.3080   44.9190 C   0  0  0  0  0  0  0  0  0  0  0  0
   59.8190   35.1400   46.0320 C   0  0  0  0  0  0  0  0  0  0  0  0
   58.8510   34.9660   47.0120 C   0  0  0  0  0  0  0  0  0  0  0  0
   57.7830   33.7760   46.4910 S   0  0  0  0  0  0  0  0  0  0  0  0
   58.3509   27.9234   42.6432 H   0  0  0  0  0  0  0  0  0  0  0  0
   58.6494   25.5081   43.1950 H   0  0  0  0  0  0  0  0  0  0  0  0
   56.4608   26.0760   46.8816 H   0  0  0  0  0  0  0  0  0  0  0  0
   56.1647   28.4911   46.3367 H   0  0  0  0  0  0  0  0  0  0  0  0
   59.1040   30.7000   43.8520 H   0  0  0  0  0  0  0  0  0  0  0  0
   59.4837   31.7322   46.0580 H   0  0  0  0  0  0  0  0  0  0  0  0
   57.8350   31.0108   46.4528 H   0  0  0  0  0  0  0  0  0  0  0  0
   58.3738   29.4793   48.1272 H   0  0  0  0  0  0  0  0  0  0  0  0
   59.3656   27.2690   48.7163 H   0  0  0  0  0  0  0  0  0  0  0  0
   60.9314   26.1384   47.1339 H   0  0  0  0  0  0  0  0  0  0  0  0
   61.4518   27.1889   44.9304 H   0  0  0  0  0  0  0  0  0  0  0  0
   60.4333   29.3814   44.3182 H   0  0  0  0  0  0  0  0  0  0  0  0
   58.6564   32.6459   43.0640 H   0  0  0  0  0  0  0  0  0  0  0  0
   57.0142   32.6095   43.8417 H   0  0  0  0  0  0  0  0  0  0  0  0
   60.3238   34.3148   44.0496 H   0  0  0  0  0  0  0  0  0  0  0  0
   60.6421   35.8642   46.1218 H   0  0  0  0  0  0  0  0  0  0  0  0
   58.7927   35.5123   47.9649 H   0  0  0  0  0  0  0  0  0  0  0  0
  1  2  2  0
  2  3  2  0
  2  4  1  0
  4  5  2  0
  5  6  1  0
  6  7  2  0
  7  8  1  0
  7  9  1  0
  9 10  2  0
  2 11  1  0
 11 12  1  0
 12 13  1  0
 13 14  2  0
 14 15  1  0
 15 16  2  0
 16 17  1  0
 17 18  2  0
 11 19  1  0
 19 20  1  0
 20 21  2  0
 21 22  1  0
 22 23  2  0
 23 24  1  0
 10  4  1  0
 18 13  1  0
 24 20  1  0
  5 25  1  0
  6 26  1  0
  9 27  1  0
 10 28  1  0
 11 29  1  6
 12 30  1  0
 12 31  1  0
 14 32  1  0
 15 33  1  0
 16 34  1  0
 17 35  1  0
 18 36  1  0
 19 37  1  0
 19 38  1  0
 21 39  1  0
 22 40  1  0
 23 41  1  0
M  CHG  1  11   1
M  END
>  <UniqueID>  (31) 
27

>  <SMILES>  (31) 
O=S(=O)(c1ccc(F)cc1)[N@H+](Cc1ccccc1)Cc1cccs1

>  <Energy>  (31) 
72.35069204349139

>  <Genealogy>  (31) 
O=S(=O)(c1ccc(F)cc1)[NH+](Cc1ccccc1)Cc1cccs1 (protonated)
O=S(=O)(c1ccc(F)cc1)[N@H+](Cc1ccccc1)Cc1cccs1 (chirality)
O=S(=O)(c1ccc(F)cc1)[N@H+](Cc1ccccc1)Cc1cccs1 (3D coordinates assigned)
O=S(=O)(c1ccc(F)cc1)[N@H+](Cc1ccccc1)Cc1cccs1 (optimized conformer: 72.35069204349139 kcal/mol)

>  <smiles>  (31) 
O=S(=O)(c1ccc(F)cc1)N(Cc1ccccc1)Cc1cccs1

>  <score_type>  (31) 
oracle

>  <origin>  (31) 
adg

>  <m_score__min__energy>  (31) 
-6.3099999999999996

>  <m_primary>  (31) 
energy

$$$$
31:0
     RDKit          3D

 29 30  0  0  0  0  0  0  0  0999 V2000
   58.1450   26.7820   43.3320 C   0  0  0  0  0  0  0  0  0  0  0  0
   57.8000   28.1850   43.7340 C   0  0  0  0  0  0  0  0  0  0  0  0
   58.2350   28.6960   44.9660 C   0  0  0  0  0  0  0  0  0  0  0  0
   57.8840   29.9910   45.3570 C   0  0  0  0  0  0  0  0  0  0  0  0
   57.0740   30.7890   44.5270 C   0  0  0  0  0  0  0  0  0  0  0  0
   56.6870   32.0950   44.8720 O   0  0  0  0  0  0  0  0  0  0  0  0
   57.3980   33.2850   44.5270 C   0  0  0  0  0  0  0  0  0  0  0  0
   58.2800   33.7310   45.6630 C   0  0  0  0  0  0  0  0  0  0  0  0
   58.1480   33.1400   46.9310 C   0  0  0  0  0  0  0  0  0  0  0  0
   58.9580   33.5590   47.9900 C   0  0  0  0  0  0  0  0  0  0  0  0
   59.8980   34.5750   47.7950 C   0  0  0  0  0  0  0  0  0  0  0  0
   60.0260   35.1770   46.5400 C   0  0  0  0  0  0  0  0  0  0  0  0
   59.2180   34.7610   45.4770 C   0  0  0  0  0  0  0  0  0  0  0  0
   56.6320   30.2710   43.3040 C   0  0  0  0  0  0  0  0  0  0  0  0
   56.9840   28.9760   42.9120 C   0  0  0  0  0  0  0  0  0  0  0  0
   58.2957   26.1690   44.2329 H   0  0  0  0  0  0  0  0  0  0  0  0
   57.3240   26.3595   42.7341 H   0  0  0  0  0  0  0  0  0  0  0  0
   59.0683   26.7884   42.7341 H   0  0  0  0  0  0  0  0  0  0  0  0
   58.8557   28.0740   45.6278 H   0  0  0  0  0  0  0  0  0  0  0  0
   58.2424   30.3887   46.3179 H   0  0  0  0  0  0  0  0  0  0  0  0
   58.0215   33.0886   43.6423 H   0  0  0  0  0  0  0  0  0  0  0  0
   56.6694   34.0810   44.3137 H   0  0  0  0  0  0  0  0  0  0  0  0
   57.4047   32.3450   47.0906 H   0  0  0  0  0  0  0  0  0  0  0  0
   58.8556   33.0883   48.9789 H   0  0  0  0  0  0  0  0  0  0  0  0
   60.5369   34.9007   48.6291 H   0  0  0  0  0  0  0  0  0  0  0  0
   60.7633   35.9791   46.3882 H   0  0  0  0  0  0  0  0  0  0  0  0
   59.3169   35.2414   44.4924 H   0  0  0  0  0  0  0  0  0  0  0  0
   56.0025   30.8880   42.6459 H   0  0  0  0  0  0  0  0  0  0  0  0
   56.6193   28.5756   41.9545 H   0  0  0  0  0  0  0  0  0  0  0  0
  1  2  1  0
  2  3  2  0
  3  4  1  0
  4  5  2  0
  5  6  1  0
  6  7  1  0
  7  8  1  0
  8  9  2  0
  9 10  1  0
 10 11  2  0
 11 12  1  0
 12 13  2  0
  5 14  1  0
 14 15  2  0
 15  2  1  0
 13  8  1  0
  1 16  1  0
  1 17  1  0
  1 18  1  0
  3 19  1  0
  4 20  1  0
  7 21  1  0
  7 22  1  0
  9 23  1  0
 10 24  1  0
 11 25  1  0
 12 26  1  0
 13 27  1  0
 14 28  1  0
 15 29  1  0
M  END
>  <UniqueID>  (32) 
28

>  <SMILES>  (32) 
Cc1ccc(OCc2ccccc2)cc1

>  <Energy>  (32) 
28.410113642380438

>  <Genealogy>  (32) 
Cc1ccc(OCc2ccccc2)cc1 (3D coordinates assigned)
Cc1ccc(OCc2ccccc2)cc1 (optimized conformer: 28.410113642380438 kcal/mol)

>  <smiles>  (32) 
Cc1ccc(OCc2ccccc2)cc1

>  <score_type>  (32) 
oracle

>  <origin>  (32) 
adg

>  <m_score__min__energy>  (32) 
-6.0499999999999998

>  <m_primary>  (32) 
energy

$$$$
32:0
     RDKit          3D

 40 42  0  0  0  0  0  0  0  0999 V2000
   57.7640   25.2200   47.8800 C   0  0  0  0  0  0  0  0  0  0  0  0
   57.4040   26.4350   47.0620 C   0  0  0  0  0  0  0  0  0  0  0  0
   58.2600   27.5610   46.9900 C   0  0  0  0  0  0  0  0  0  0  0  0
   59.6050   27.6250   47.6800 C   0  0  0  0  0  0  0  0  0  0  0  0
   60.1660   29.0370   47.7820 C   0  0  0  0  0  0  0  0  0  0  0  0
   60.2030   29.7210   49.0260 C   0  0  0  0  0  0  0  0  0  0  0  0
   59.6310   29.0020   50.5290 Cl  0  0  0  0  0  0  0  0  0  0  0  0
   60.7370   31.0120   49.1060 C   0  0  0  0  0  0  0  0  0  0  0  0
   61.2590   31.6310   47.9740 C   0  0  0  0  0  0  0  0  0  0  0  0
   61.2580   30.9640   46.7500 C   0  0  0  0  0  0  0  0  0  0  0  0
   60.7270   29.6740   46.6450 C   0  0  0  0  0  0  0  0  0  0  0  0
   60.8350   28.8870   45.0700 Cl  0  0  0  0  0  0  0  0  0  0  0  0
   57.9020   28.6160   46.2100 N   0  0  0  0  0  0  0  0  0  0  0  0
   56.7340   28.6380   45.5270 C   0  0  0  0  0  0  0  0  0  0  0  0
   56.3300   30.0450   44.4970 S   0  0  0  0  0  0  0  0  0  0  0  0
   58.0430   30.6820   44.3860 C   0  0  0  0  0  0  0  0  0  0  0  0
   58.1670   31.9530   45.1810 C   0  0  0  0  0  0  0  0  0  0  0  0
   58.1000   31.9240   46.5860 C   0  0  0  0  0  0  0  0  0  0  0  0
   58.2050   33.1080   47.3210 C   0  0  0  0  0  0  0  0  0  0  0  0
   58.4030   34.3280   46.6650 C   0  0  0  0  0  0  0  0  0  0  0  0
   58.4850   34.3670   45.2710 C   0  0  0  0  0  0  0  0  0  0  0  0
   58.3640   33.1850   44.5290 C   0  0  0  0  0  0  0  0  0  0  0  0
   55.8910   27.5790   45.5940 N   0  0  0  0  0  0  0  0  0  0  0  0
   56.1940   26.4870   46.3400 C   0  0  0  0  0  0  0  0  0  0  0  0
   55.3830   25.5220   46.3680 O   0  0  0  0  0  0  0  0  0  0  0  0
   57.6917   25.4639   48.9502 H   0  0  0  0  0  0  0  0  0  0  0  0
   57.0703   24.3998   47.6432 H   0  0  0  0  0  0  0  0  0  0  0  0
   58.7925   24.9101   47.6432 H   0  0  0  0  0  0  0  0  0  0  0  0
   59.4950   27.2193   48.6965 H   0  0  0  0  0  0  0  0  0  0  0  0
   60.3099   27.0387   47.0722 H   0  0  0  0  0  0  0  0  0  0  0  0
   60.7442   31.5413   50.0703 H   0  0  0  0  0  0  0  0  0  0  0  0
   61.6728   32.6477   48.0453 H   0  0  0  0  0  0  0  0  0  0  0  0
   61.6779   31.4556   45.8600 H   0  0  0  0  0  0  0  0  0  0  0  0
   58.7387   29.9307   44.7879 H   0  0  0  0  0  0  0  0  0  0  0  0
   58.2865   30.8872   43.3331 H   0  0  0  0  0  0  0  0  0  0  0  0
   57.9644   30.9654   47.1082 H   0  0  0  0  0  0  0  0  0  0  0  0
   58.1318   33.0808   48.4182 H   0  0  0  0  0  0  0  0  0  0  0  0
   58.4941   35.2568   47.2473 H   0  0  0  0  0  0  0  0  0  0  0  0
   58.6446   35.3258   44.7560 H   0  0  0  0  0  0  0  0  0  0  0  0
   58.4232   33.2197   43.4311 H   0  0  0  0  0  0  0  0  0  0  0  0
  1  2  1  0
  2  3  2  0
  3  4  1  0
  4  5  1  0
  5  6  2  0
  6  7  1  0
  6  8  1  0
  8  9  2  0
  9 10  1  0
 10 11  2  0
 11 12  1  0
  3 13  1  0
 13 14  1  0
 14 15  1  0
 15 16  1  0
 16 17  1  0
 17 18  2  0
 18 19  1  0
 19 20  2  0
 20 21  1  0
 21 22  2  0
 14 23  2  0
 23 24  1  0
 24 25  2  0
 24  2  1  0
 11  5  1  0
 22 17  1  0
  1 26  1  0
  1 27  1  0
  1 28  1  0
  4 29  1  0
  4 30  1  0
  8 31  1  0
  9 32  1  0
 10 33  1  0
 16 34  1  0
 16 35  1  0
 18 36  1  0
 19 37  1  0
 20 38  1  0
 21 39  1  0
 22 40  1  0
M  CHG  1  13  -1
M  END
>  <UniqueID>  (33) 
29

>  <SMILES>  (33) 
Cc1c(Cc2c(Cl)cccc2Cl)[n-]c(SCc2ccccc2)nc1=O

>  <Energy>  (33) 
46.304578412562634

>  <Genealogy>  (33) 
Cc1c(Cc2c(Cl)cccc2Cl)[n-]c(SCc2ccccc2)nc1=O (protonated)
Cc1c(Cc2c(Cl)cccc2Cl)[n-]c(SCc2ccccc2)nc1=O (3D coordinates assigned)
Cc1c(Cc2c(Cl)cccc2Cl)[n-]c(SCc2ccccc2)nc1=O (optimized conformer: 46.304578412562634 kcal/mol)

>  <smiles>  (33) 
Cc1c(Cc2c(Cl)cccc2Cl)[nH]c(SCc2ccccc2)nc1=O

>  <score_type>  (33) 
oracle

>  <origin>  (33) 
adg

>  <m_score__min__energy>  (33) 
-10.220000000000001

>  <m_primary>  (33) 
energy

$$$$
33:0
     RDKit          3D

 32 34  0  0  0  0  0  0  0  0999 V2000
   59.1100   25.9000   46.3320 C   0  0  0  0  0  0  0  0  0  0  0  0
   57.7320   26.1140   46.2420 C   0  0  0  0  0  0  0  0  0  0  0  0
   57.2410   27.3520   45.8160 C   0  0  0  0  0  0  0  0  0  0  0  0
   58.1270   28.3900   45.4760 C   0  0  0  0  0  0  0  0  0  0  0  0
   57.6090   29.6990   45.0230 C   0  0  0  0  0  0  0  0  0  0  0  0
   56.2980   29.9880   44.9070 N   0  0  0  0  0  0  0  0  0  0  0  0
   56.2620   31.2200   44.5000 O   0  0  0  0  0  0  0  0  0  0  0  0
   57.4820   31.6760   44.3680 C   0  0  0  0  0  0  0  0  0  0  0  0
   57.8200   33.0780   43.9410 C   0  0  0  0  0  0  0  0  0  0  0  0
   57.7530   34.0660   45.0420 N   0  0  0  0  0  0  0  0  0  0  0  0
   57.3910   33.4710   46.3370 C   0  0  0  0  0  0  0  0  0  0  0  0
   58.6600   33.3430   47.1670 C   0  0  0  0  0  0  0  0  0  0  0  0
   59.6930   34.2250   46.4890 C   0  0  0  0  0  0  0  0  0  0  0  0
   59.0130   34.7930   45.2510 C   0  0  0  0  0  0  0  0  0  0  0  0
   58.3980   30.7430   44.6900 N   0  0  0  0  0  0  0  0  0  0  0  0
   59.5120   28.1630   45.5690 C   0  0  0  0  0  0  0  0  0  0  0  0
   59.9980   26.9230   45.9960 C   0  0  0  0  0  0  0  0  0  0  0  0
   59.4947   24.9256   46.6675 H   0  0  0  0  0  0  0  0  0  0  0  0
   57.0325   25.3074   46.5067 H   0  0  0  0  0  0  0  0  0  0  0  0
   56.1554   27.5150   45.7464 H   0  0  0  0  0  0  0  0  0  0  0  0
   58.8417   33.0805   43.5333 H   0  0  0  0  0  0  0  0  0  0  0  0
   57.0703   33.3769   43.1936 H   0  0  0  0  0  0  0  0  0  0  0  0
   56.6690   34.1182   46.8564 H   0  0  0  0  0  0  0  0  0  0  0  0
   56.9305   32.4832   46.1882 H   0  0  0  0  0  0  0  0  0  0  0  0
   58.4800   33.6868   48.1963 H   0  0  0  0  0  0  0  0  0  0  0  0
   58.9989   32.2982   47.2272 H   0  0  0  0  0  0  0  0  0  0  0  0
   60.0021   35.0382   47.1622 H   0  0  0  0  0  0  0  0  0  0  0  0
   60.5976   33.6569   46.2266 H   0  0  0  0  0  0  0  0  0  0  0  0
   58.8049   35.8630   45.3988 H   0  0  0  0  0  0  0  0  0  0  0  0
   59.6665   34.6787   44.3736 H   0  0  0  0  0  0  0  0  0  0  0  0
   60.2167   28.9651   45.3045 H   0  0  0  0  0  0  0  0  0  0  0  0
   61.0826   26.7536   46.0672 H   0  0  0  0  0  0  0  0  0  0  0  0
  1  2  2  0
  2  3  1  0
  3  4  2  0
  4  5  1  0
  5  6  2  0
  6  7  1  0
  7  8  1  0
  8  9  1  0
  9 10  1  0
 10 11  1  0
 11 12  1  0
 12 13  1  0
 13 14  1  0
  8 15  2  0
  4 16  1  0
 16 17  2  0
 17  1  1  0
 15  5  1  0
 14 10  1  0
  1 18  1  0
  2 19  1  0
  3 20  1  0
  9 21  1  0
  9 22  1  0
 11 23  1  0
 11 24  1  0
 12 25  1  0
 12 26  1  0
 13 27  1  0
 13 28  1  0
 14 29  1  0
 14 30  1  0
 16 31  1  0
 17 32  1  0
M  END
>  <UniqueID>  (34) 
30

>  <SMILES>  (34) 
c1ccc(-c2noc(CN3CCCC3)n2)cc1

>  <Energy>  (34) 
70.16190417096706

>  <Genealogy>  (34) 
c1ccc(-c2noc(CN3CCCC3)n2)cc1 (3D coordinates assigned)
c1ccc(-c2noc(CN3CCCC3)n2)cc1 (nonaromatic ring conformer: 70.16190417096706 kcal/mol)

>  <smiles>  (34) 
c1ccc(-c2noc(CN3CCCC3)n2)cc1

>  <score_type>  (34) 
oracle

>  <origin>  (34) 
adg

>  <m_score__min__energy>  (34) 
-7.1100000000000003

>  <m_primary>  (34) 
energy

$$$$
34:0
     RDKit          3D

 39 41  0  0  0  0  0  0  0  0999 V2000
   57.7730   27.2450   42.7950 C   0  0  0  0  0  0  0  0  0  0  0  0
   57.5950   28.3980   43.6820 N   0  0  0  0  0  0  0  0  0  0  0  0
   56.5280   29.3660   43.3880 C   0  0  0  0  0  0  0  0  0  0  0  0
   57.0480   30.7970   43.5150 C   0  0  0  0  0  0  0  0  0  0  0  0
   57.0350   31.1930   44.8830 O   0  0  0  0  0  0  0  0  0  0  0  0
   57.8210   32.2410   45.3690 C   0  0  0  0  0  0  0  0  0  0  0  0
   57.3020   33.5370   45.3970 C   0  0  0  0  0  0  0  0  0  0  0  0
   58.0890   34.5790   45.8880 C   0  0  0  0  0  0  0  0  0  0  0  0
   59.3820   34.3190   46.3480 C   0  0  0  0  0  0  0  0  0  0  0  0
   59.8830   33.0040   46.3040 C   0  0  0  0  0  0  0  0  0  0  0  0
   61.2160   32.6860   46.7480 N   0  0  0  0  0  0  0  0  0  0  0  0
   62.3130   33.4710   46.7540 C   0  0  0  0  0  0  0  0  0  0  0  0
   63.3880   32.8140   47.2380 N   0  0  0  0  0  0  0  0  0  0  0  0
   62.8840   31.5950   47.5340 C   0  0  0  0  0  0  0  0  0  0  0  0
   61.5770   31.5120   47.2350 N   0  0  0  0  0  0  0  0  0  0  0  0
   59.0880   32.0110   45.8170 N   0  0  0  0  0  0  0  0  0  0  0  0
   58.5130   28.6250   44.7700 C   0  0  0  0  0  0  0  0  0  0  0  0
   58.0520   28.6500   46.0950 C   0  0  0  0  0  0  0  0  0  0  0  0
   58.9610   28.8370   47.1390 C   0  0  0  0  0  0  0  0  0  0  0  0
   60.2820   29.0120   46.8680 N   0  0  0  0  0  0  0  0  0  0  0  0
   60.7560   29.0070   45.5940 C   0  0  0  0  0  0  0  0  0  0  0  0
   59.8830   28.8070   44.5230 C   0  0  0  0  0  0  0  0  0  0  0  0
   57.9133   26.3362   43.3987 H   0  0  0  0  0  0  0  0  0  0  0  0
   56.8820   27.1297   42.1603 H   0  0  0  0  0  0  0  0  0  0  0  0
   58.6573   27.4037   42.1603 H   0  0  0  0  0  0  0  0  0  0  0  0
   56.1651   29.2032   42.3624 H   0  0  0  0  0  0  0  0  0  0  0  0
   55.7102   29.2213   44.1093 H   0  0  0  0  0  0  0  0  0  0  0  0
   58.0770   30.8477   43.1295 H   0  0  0  0  0  0  0  0  0  0  0  0
   56.4022   31.4721   42.9343 H   0  0  0  0  0  0  0  0  0  0  0  0
   56.2821   33.7345   45.0353 H   0  0  0  0  0  0  0  0  0  0  0  0
   57.6917   35.6044   45.9129 H   0  0  0  0  0  0  0  0  0  0  0  0
   60.0045   35.1359   46.7419 H   0  0  0  0  0  0  0  0  0  0  0  0
   62.3293   34.5150   46.4080 H   0  0  0  0  0  0  0  0  0  0  0  0
   63.4720   30.7721   47.9666 H   0  0  0  0  0  0  0  0  0  0  0  0
   60.9610   30.6790   47.3560 H   0  0  0  0  0  0  0  0  0  0  0  0
   56.9808   28.5231   46.3104 H   0  0  0  0  0  0  0  0  0  0  0  0
   58.6081   28.8427   48.1808 H   0  0  0  0  0  0  0  0  0  0  0  0
   61.8290   29.1608   45.4066 H   0  0  0  0  0  0  0  0  0  0  0  0
   60.2662   28.7921   43.4920 H   0  0  0  0  0  0  0  0  0  0  0  0
  1  2  1  0
  2  3  1  0
  3  4  1  0
  4  5  1  0
  5  6  1  0
  6  7  2  0
  7  8  1  0
  8  9  2  0
  9 10  1  0
 10 11  1  0
 11 12  1  0
 12 13  2  0
 13 14  1  0
 14 15  2  0
 10 16  2  0
  2 17  1  0
 17 18  2  0
 18 19  1  0
 19 20  2  0
 20 21  1  0
 21 22  2  0
 16  6  1  0
 22 17  1  0
 15 11  1  0
  1 23  1  0
  1 24  1  0
  1 25  1  0
  3 26  1  0
  3 27  1  0
  4 28  1  0
  4 29  1  0
  7 30  1  0
  8 31  1  0
  9 32  1  0
 12 33  1  0
 14 34  1  0
 15 35  1  0
 18 36  1  0
 19 37  1  0
 21 38  1  0
 22 39  1  0
M  CHG  1  15   1
M  END
>  <UniqueID>  (35) 
31

>  <SMILES>  (35) 
CN(CCOc1cccc(-n2cnc[nH+]2)n1)c1ccncc1

>  <Energy>  (35) 
76.50064707441665

>  <Genealogy>  (35) 
CN(CCOc1cccc(-n2cnc[nH+]2)n1)c1ccncc1 (protonated)
CN(CCOc1cccc(-n2cnc[nH+]2)n1)c1ccncc1 (3D coordinates assigned)
CN(CCOc1cccc(-n2cnc[nH+]2)n1)c1ccncc1 (optimized conformer: 76.50064707441665 kcal/mol)

>  <smiles>  (35) 
CN(CCOc1cccc(-n2cncn2)n1)c1ccncc1

>  <score_type>  (35) 
oracle

>  <origin>  (35) 
adg

>  <m_score__min__energy>  (35) 
-5.1699999999999999

>  <m_primary>  (35) 
energy

$$$$
35:0
     RDKit          3D

 52 54  0  0  1  0  0  0  0  0999 V2000
   50.2680   32.7760   52.9970 C   0  0  0  0  0  0  0  0  0  0  0  0
   51.3160   32.1670   52.0650 C   0  0  0  0  0  0  0  0  0  0  0  0
   52.0140   31.0960   52.8400 C   0  0  0  0  0  0  0  0  0  0  0  0
   53.1480   30.1440   51.8610 S   0  0  0  0  0  0  0  0  0  0  0  0
   53.5100   28.9130   52.6490 O   0  0  0  0  0  0  0  0  0  0  0  0
   52.5490   29.7130   50.5660 O   0  0  0  0  0  0  0  0  0  0  0  0
   54.5400   31.1680   51.6210 N   0  0  0  0  0  0  0  0  0  0  0  0
   55.8540   30.7360   51.8800 C   0  0  0  0  0  0  0  0  0  0  0  0
   56.0640   29.5690   52.3040 O   0  0  0  0  0  0  0  0  0  0  0  0
   57.0200   31.5930   51.6800 C   0  0  0  0  0  0  0  0  0  0  0  0
   57.7990   31.3910   50.5690 C   0  0  0  0  0  0  0  0  0  0  0  0
   58.9250   32.1430   50.2780 C   0  0  0  0  0  0  0  0  0  0  0  0
   59.2620   33.1420   51.1680 C   0  0  0  0  0  0  0  0  0  0  0  0
   60.3920   33.9920   50.9960 N   0  0  0  0  0  0  0  0  0  0  0  0
   61.1210   33.8400   49.9430 C   0  0  0  0  0  0  0  0  0  0  0  0
   62.3870   33.4260   50.1260 N   0  0  0  0  0  0  0  0  0  0  0  0
   63.2550   33.2280   49.1170 C   0  0  0  0  0  0  0  0  0  0  0  0
   64.9030   32.6880   49.3800 Cl  0  0  0  0  0  0  0  0  0  0  0  0
   62.8200   33.4610   47.8210 C   0  0  0  0  0  0  0  0  0  0  0  0
   61.5240   33.8820   47.6480 C   0  0  0  0  0  0  0  0  0  0  0  0
   61.1190   34.0990   46.4470 N   0  0  0  0  0  0  0  0  0  0  0  0
   59.8050   33.7480   46.0130 C   0  0  0  0  0  0  0  0  0  0  0  0
   58.9570   34.6430   45.3970 C   0  0  0  0  0  0  0  0  0  0  0  0
   57.7040   34.1910   45.0170 C   0  0  0  0  0  0  0  0  0  0  0  0
   57.3220   32.8710   45.2550 C   0  0  0  0  0  0  0  0  0  0  0  0
   58.1670   31.9750   45.8710 C   0  0  0  0  0  0  0  0  0  0  0  0
   57.7890   30.6220   46.1210 N   0  0  0  0  0  0  0  0  0  0  0  0
   59.4300   32.4240   46.2550 C   0  0  0  0  0  0  0  0  0  0  0  0
   60.6780   34.0710   48.6930 N   0  0  0  0  0  0  0  0  0  0  0  0
   58.4910   33.3620   52.2930 C   0  0  0  0  0  0  0  0  0  0  0  0
   57.3760   32.5910   52.5460 C   0  0  0  0  0  0  0  0  0  0  0  0
   50.5633   32.6044   54.0427 H   0  0  0  0  0  0  0  0  0  0  0  0
   50.1947   33.8574   52.8094 H   0  0  0  0  0  0  0  0  0  0  0  0
   49.2921   32.3043   52.8094 H   0  0  0  0  0  0  0  0  0  0  0  0
   50.8289   31.7360   51.1779 H   0  0  0  0  0  0  0  0  0  0  0  0
   52.0277   32.9310   51.7190 H   0  0  0  0  0  0  0  0  0  0  0  0
   52.5732   31.5679   53.6614 H   0  0  0  0  0  0  0  0  0  0  0  0
   51.2414   30.4044   53.2071 H   0  0  0  0  0  0  0  0  0  0  0  0
   54.3470   32.1310   51.2690 H   0  0  0  0  0  0  0  0  0  0  0  0
   57.5141   30.5890   49.8721 H   0  0  0  0  0  0  0  0  0  0  0  0
   59.5249   31.9520   49.3760 H   0  0  0  0  0  0  0  0  0  0  0  0
   62.7370   33.2440   51.1050 H   0  0  0  0  0  0  0  0  0  0  0  0
   63.4899   33.3137   46.9610 H   0  0  0  0  0  0  0  0  0  0  0  0
   59.2653   35.6828   45.2131 H   0  0  0  0  0  0  0  0  0  0  0  0
   57.0034   34.8800   44.5226 H   0  0  0  0  0  0  0  0  0  0  0  0
   56.3213   32.5374   44.9430 H   0  0  0  0  0  0  0  0  0  0  0  0
   57.9060   30.2750   47.0900 H   0  0  0  0  0  0  0  0  0  0  0  0
   57.4100   29.9890   45.3900 H   0  0  0  0  0  0  0  0  0  0  0  0
   60.1315   31.7355   46.7487 H   0  0  0  0  0  0  0  0  0  0  0  0
   59.6950   34.3920   48.5430 H   0  0  0  0  0  0  0  0  0  0  0  0
   58.7698   34.1615   52.9952 H   0  0  0  0  0  0  0  0  0  0  0  0
   56.7716   32.7786   53.4457 H   0  0  0  0  0  0  0  0  0  0  0  0
  1  2  1  0
  2  3  1  0
  3  4  1  0
  4  5  2  0
  4  6  2  0
  4  7  1  0
  7  8  1  0
  8  9  2  0
  8 10  1  0
 10 11  2  0
 11 12  1  0
 12 13  2  0
 13 14  1  0
 14 15  2  0
 15 16  1  0
 16 17  1  0
 17 18  1  0
 17 19  2  0
 19 20  1  0
 20 21  2  0
 21 22  1  0
 22 23  2  0
 23 24  1  0
 24 25  2  0
 25 26  1  0
 26 27  1  0
 26 28  2  0
 20 29  1  0
 13 30  1  0
 30 31  2  0
 31 10  1  0
 29 15  1  0
 28 22  1  0
  1 32  1  0
  1 33  1  0
  1 34  1  0
  2 35  1  0
  2 36  1  0
  3 37  1  0
  3 38  1  0
  7 39  1  0
 11 40  1  0
 12 41  1  0
 16 42  1  0
 19 43  1  0
 23 44  1  0
 24 45  1  0
 25 46  1  0
 27 47  1  0
 27 48  1  0
 28 49  1  0
 29 50  1  0
 30 51  1  0
 31 52  1  0
M  END
>  <smiles>  (36) 
CCCS(=O)(=O)NC(=O)c1ccc(N=c2[nH]c(Cl)cc(=Nc3cccc(N)c3)[nH]2)cc1

>  <score_type>  (36) 
oracle

>  <origin>  (36) 
adg

>  <m_score__min__energy>  (36) 
-9.1600000000000001

>  <m_primary>  (36) 
energy

$$$$
36:0
     RDKit          3D

 40 42  0  0  1  0  0  0  0  0999 V2000
   57.8890   32.3500   41.1070 C   0  0  0  0  0  0  0  0  0  0  0  0
   57.0110   31.6730   41.9890 O   0  0  0  0  0  0  0  0  0  0  0  0
   57.3650   31.4970   43.3250 C   0  0  0  0  0  0  0  0  0  0  0  0
   57.5710   32.5510   44.1910 C   0  0  0  0  0  0  0  0  0  0  0  0
   57.9190   32.2700   45.5020 C   0  0  0  0  0  0  0  0  0  0  0  0
   58.1030   33.2900   46.2800 N   0  0  0  0  0  0  0  0  0  0  0  0
   59.3710   33.4140   46.9420 C   0  0  0  0  0  0  0  0  0  0  0  0
   59.5170   34.4180   47.6980 O   0  0  0  0  0  0  0  0  0  0  0  0
   60.4160   32.4660   46.7680 N   0  0  0  0  0  0  0  0  0  0  0  0
   61.6670   32.6320   47.4510 C   0  0  0  0  0  0  0  0  0  0  0  0
   62.5910   33.5860   47.0810 C   0  0  0  0  0  0  0  0  0  0  0  0
   63.7730   33.6800   47.7910 C   0  0  0  0  0  0  0  0  0  0  0  0
   63.9950   32.8130   48.8540 C   0  0  0  0  0  0  0  0  0  0  0  0
   65.4820   32.9040   49.7770 Cl  0  0  0  0  0  0  0  0  0  0  0  0
   63.0730   31.8540   49.2300 C   0  0  0  0  0  0  0  0  0  0  0  0
   61.8980   31.7720   48.5120 C   0  0  0  0  0  0  0  0  0  0  0  0
   58.0540   31.0100   45.9260 N   0  0  0  0  0  0  0  0  0  0  0  0
   57.8540   29.9790   45.0880 C   0  0  0  0  0  0  0  0  0  0  0  0
   57.9850   28.5820   45.4830 C   0  0  0  0  0  0  0  0  0  0  0  0
   57.7740   27.5530   44.5590 C   0  0  0  0  0  0  0  0  0  0  0  0
   57.8940   26.2290   44.9190 C   0  0  0  0  0  0  0  0  0  0  0  0
   58.2260   25.8570   46.2020 C   0  0  0  0  0  0  0  0  0  0  0  0
   58.4380   26.8520   47.1200 C   0  0  0  0  0  0  0  0  0  0  0  0
   58.3160   28.1870   46.7540 C   0  0  0  0  0  0  0  0  0  0  0  0
   57.5170   30.2600   43.8170 N   0  0  0  0  0  0  0  0  0  0  0  0
   58.6275   32.9195   41.6903 H   0  0  0  0  0  0  0  0  0  0  0  0
   58.4090   31.6168   40.4729 H   0  0  0  0  0  0  0  0  0  0  0  0
   57.3122   33.0393   40.4729 H   0  0  0  0  0  0  0  0  0  0  0  0
   57.4614   33.5905   43.8483 H   0  0  0  0  0  0  0  0  0  0  0  0
   60.2800   31.6470   46.1440 H   0  0  0  0  0  0  0  0  0  0  0  0
   62.3909   34.2606   46.2355 H   0  0  0  0  0  0  0  0  0  0  0  0
   64.5284   34.4316   47.5181 H   0  0  0  0  0  0  0  0  0  0  0  0
   63.2701   31.1778   50.0749 H   0  0  0  0  0  0  0  0  0  0  0  0
   61.1416   31.0208   48.7831 H   0  0  0  0  0  0  0  0  0  0  0  0
   58.3130   30.8380   46.9000 H   0  0  0  0  0  0  0  0  0  0  0  0
   57.5065   27.8068   43.5226 H   0  0  0  0  0  0  0  0  0  0  0  0
   57.7202   25.4496   44.1625 H   0  0  0  0  0  0  0  0  0  0  0  0
   58.3180   24.7969   46.4809 H   0  0  0  0  0  0  0  0  0  0  0  0
   58.7068   26.5920   48.1545 H   0  0  0  0  0  0  0  0  0  0  0  0
   58.4925   28.9601   47.5164 H   0  0  0  0  0  0  0  0  0  0  0  0
  1  2  1  0
  2  3  1  0
  3  4  2  0
  4  5  1  0
  5  6  2  0
  6  7  1  0
  7  8  2  0
  7  9  1  0
  9 10  1  0
 10 11  2  0
 11 12  1  0
 12 13  2  0
 13 14  1  0
 13 15  1  0
 15 16  2  0
  5 17  1  0
 17 18  1  0
 18 19  1  0
 19 20  2  0
 20 21  1  0
 21 22  2  0
 22 23  1  0
 23 24  2  0
 18 25  2  0
 25  3  1  0
 16 10  1  0
 24 19  1  0
  1 26  1  0
  1 27  1  0
  1 28  1  0
  4 29  1  0
  9 30  1  0
 11 31  1  0
 12 32  1  0
 15 33  1  0
 16 34  1  0
 17 35  1  0
 20 36  1  0
 21 37  1  0
 22 38  1  0
 23 39  1  0
 24 40  1  0
M  END
>  <smiles>  (37) 
COc1cc(=NC(=O)Nc2ccc(Cl)cc2)[nH]c(-c2ccccc2)n1

>  <score_type>  (37) 
oracle

>  <origin>  (37) 
adg

>  <m_score__min__energy>  (37) 
-7.3799999999999999

>  <m_primary>  (37) 
energy

$$$$
37:0
     RDKit          3D

 49 51  0  0  0  0  0  0  0  0999 V2000
   63.3930   32.3190   47.1100 C   0  0  0  0  0  0  0  0  0  0  0  0
   62.0070   32.0650   47.3090 O   0  0  0  0  0  0  0  0  0  0  0  0
   61.2800   32.4370   48.4520 C   0  0  0  0  0  0  0  0  0  0  0  0
   61.7220   33.4680   49.3010 C   0  0  0  0  0  0  0  0  0  0  0  0
   60.9740   33.8320   50.4180 C   0  0  0  0  0  0  0  0  0  0  0  0
   59.7740   33.1820   50.7030 C   0  0  0  0  0  0  0  0  0  0  0  0
   59.3070   32.1490   49.8700 C   0  0  0  0  0  0  0  0  0  0  0  0
   58.0940   31.4890   50.1250 O   0  0  0  0  0  0  0  0  0  0  0  0
   57.3890   31.5370   51.3600 C   0  0  0  0  0  0  0  0  0  0  0  0
   60.0710   31.7660   48.7450 C   0  0  0  0  0  0  0  0  0  0  0  0
   59.5530   30.6870   47.8110 C   0  0  0  0  0  0  0  0  0  0  0  0
   59.9220   30.9460   46.4080 N   0  0  0  0  0  0  0  0  0  0  0  0
   58.8830   30.5320   45.4880 C   0  0  0  0  0  0  0  0  0  0  0  0
   58.7420   29.1630   45.1850 C   0  0  0  0  0  0  0  0  0  0  0  0
   57.7100   28.7170   44.3570 C   0  0  0  0  0  0  0  0  0  0  0  0
   56.8060   29.6280   43.8160 C   0  0  0  0  0  0  0  0  0  0  0  0
   56.9280   30.9870   44.1000 C   0  0  0  0  0  0  0  0  0  0  0  0
   57.9550   31.4560   44.9370 C   0  0  0  0  0  0  0  0  0  0  0  0
   58.0430   32.8680   45.1980 N   0  0  0  0  0  0  0  0  0  0  0  0
   58.8630   33.7230   44.3290 C   0  0  0  0  0  0  0  0  0  0  0  0
   59.2710   34.9930   45.0760 C   0  0  0  0  0  0  0  0  0  0  0  0
   59.6640   34.6480   46.3870 O   0  0  0  0  0  0  0  0  0  0  0  0
   58.5360   34.2950   47.1740 C   0  0  0  0  0  0  0  0  0  0  0  0
   57.4900   33.4240   46.4390 C   0  0  0  0  0  0  0  0  0  0  0  0
   63.8928   32.4106   48.0856 H   0  0  0  0  0  0  0  0  0  0  0  0
   63.8407   31.4879   46.5453 H   0  0  0  0  0  0  0  0  0  0  0  0
   63.5169   33.2548   46.5453 H   0  0  0  0  0  0  0  0  0  0  0  0
   62.6648   33.9902   49.0811 H   0  0  0  0  0  0  0  0  0  0  0  0
   61.3316   34.6359   51.0783 H   0  0  0  0  0  0  0  0  0  0  0  0
   59.1882   33.4790   51.5854 H   0  0  0  0  0  0  0  0  0  0  0  0
   58.1054   31.4882   52.1933 H   0  0  0  0  0  0  0  0  0  0  0  0
   56.8193   32.4760   51.4207 H   0  0  0  0  0  0  0  0  0  0  0  0
   56.6973   30.6839   51.4207 H   0  0  0  0  0  0  0  0  0  0  0  0
   59.9773   29.7193   48.1167 H   0  0  0  0  0  0  0  0  0  0  0  0
   58.4550   30.6795   47.8772 H   0  0  0  0  0  0  0  0  0  0  0  0
   60.8180   30.4510   46.1900 H   0  0  0  0  0  0  0  0  0  0  0  0
   60.1200   31.9640   46.2910 H   0  0  0  0  0  0  0  0  0  0  0  0
   59.4534   28.4372   45.6058 H   0  0  0  0  0  0  0  0  0  0  0  0
   57.6108   27.6449   44.1317 H   0  0  0  0  0  0  0  0  0  0  0  0
   55.9942   29.2742   43.1634 H   0  0  0  0  0  0  0  0  0  0  0  0
   56.2128   31.7002   43.6644 H   0  0  0  0  0  0  0  0  0  0  0  0
   59.7662   33.1734   44.0253 H   0  0  0  0  0  0  0  0  0  0  0  0
   58.2773   34.0003   43.4402 H   0  0  0  0  0  0  0  0  0  0  0  0
   60.1109   35.4745   44.5537 H   0  0  0  0  0  0  0  0  0  0  0  0
   58.4219   35.6913   45.1139 H   0  0  0  0  0  0  0  0  0  0  0  0
   58.8911   33.7373   48.0532 H   0  0  0  0  0  0  0  0  0  0  0  0
   58.0308   35.2359   47.4376 H   0  0  0  0  0  0  0  0  0  0  0  0
   57.1839   32.5979   47.0976 H   0  0  0  0  0  0  0  0  0  0  0  0
   56.6264   34.0559   46.1842 H   0  0  0  0  0  0  0  0  0  0  0  0
  1  2  1  0
  2  3  1  0
  3  4  2  0
  4  5  1  0
  5  6  2  0
  6  7  1  0
  7  8  1  0
  8  9  1  0
  7 10  2  0
 10 11  1  0
 11 12  1  0
 12 13  1  0
 13 14  2  0
 14 15  1  0
 15 16  2  0
 16 17  1  0
 17 18  2  0
 18 19  1  0
 19 20  1  0
 20 21  1  0
 21 22  1  0
 22 23  1  0
 23 24  1  0
 10  3  1  0
 18 13  1  0
 24 19  1  0
  1 25  1  0
  1 26  1  0
  1 27  1  0
  4 28  1  0
  5 29  1  0
  6 30  1  0
  9 31  1  0
  9 32  1  0
  9 33  1  0
 11 34  1  0
 11 35  1  0
 12 36  1  0
 12 37  1  0
 14 38  1  0
 15 39  1  0
 16 40  1  0
 17 41  1  0
 20 42  1  0
 20 43  1  0
 21 44  1  0
 21 45  1  0
 23 46  1  0
 23 47  1  0
 24 48  1  0
 24 49  1  0
M  CHG  1  12   1
M  END
>  <UniqueID>  (38) 
32

>  <SMILES>  (38) 
COc1cccc(OC)c1C[NH2+]c1ccccc1N1CCOCC1

>  <Energy>  (38) 
61.83249279510166

>  <Genealogy>  (38) 
COc1cccc(OC)c1C[NH2+]c1ccccc1N1CCOCC1 (protonated)
COc1cccc(OC)c1C[NH2+]c1ccccc1N1CCOCC1 (3D coordinates assigned)
COc1cccc(OC)c1C[NH2+]c1ccccc1N1CCOCC1 (nonaromatic ring conformer: 61.83249279510166 kcal/mol)

>  <smiles>  (38) 
COc1cccc(OC)c1CNc1ccccc1N1CCOCC1

>  <score_type>  (38) 
oracle

>  <origin>  (38) 
adg

>  <m_score__min__energy>  (38) 
-5.1100000000000003

>  <m_primary>  (38) 
energy

$$$$
38:0
     RDKit          3D

 41 43  0  0  0  0  0  0  0  0999 V2000
   63.1700   34.2110   46.3770 C   0  0  0  0  0  0  0  0  0  0  0  0
   62.9660   33.1070   47.3620 C   0  0  0  0  0  0  0  0  0  0  0  0
   63.8410   32.1050   47.5670 N   0  0  0  0  0  0  0  0  0  0  0  0
   63.3420   31.3040   48.4610 O   0  0  0  0  0  0  0  0  0  0  0  0
   62.1630   31.7300   48.8550 C   0  0  0  0  0  0  0  0  0  0  0  0
   61.3220   31.0430   49.8790 C   0  0  0  0  0  0  0  0  0  0  0  0
   61.8570   32.8940   48.1640 C   0  0  0  0  0  0  0  0  0  0  0  0
   60.6150   33.7380   48.2760 C   0  0  0  0  0  0  0  0  0  0  0  0
   59.9090   33.8090   46.9840 N   0  0  0  0  0  0  0  0  0  0  0  0
   59.8870   34.9940   46.3030 C   0  0  0  0  0  0  0  0  0  0  0  0
   59.2380   35.0990   45.0750 C   0  0  0  0  0  0  0  0  0  0  0  0
   58.6070   33.9830   44.5350 C   0  0  0  0  0  0  0  0  0  0  0  0
   58.6220   32.7640   45.2230 C   0  0  0  0  0  0  0  0  0  0  0  0
   57.9580   31.5780   44.6290 C   0  0  0  0  0  0  0  0  0  0  0  0
   57.4010   31.6490   43.3410 C   0  0  0  0  0  0  0  0  0  0  0  0
   56.7810   30.5310   42.7760 C   0  0  0  0  0  0  0  0  0  0  0  0
   56.7150   29.3310   43.4870 C   0  0  0  0  0  0  0  0  0  0  0  0
   57.2710   29.2390   44.7730 C   0  0  0  0  0  0  0  0  0  0  0  0
   57.2070   27.9390   45.5250 C   0  0  0  0  0  0  0  0  0  0  0  0
   57.7100   28.1140   46.8020 F   0  0  0  0  0  0  0  0  0  0  0  0
   55.8950   27.5120   45.6070 F   0  0  0  0  0  0  0  0  0  0  0  0
   57.8950   30.3640   45.3370 C   0  0  0  0  0  0  0  0  0  0  0  0
   59.2750   32.7010   46.4740 C   0  0  0  0  0  0  0  0  0  0  0  0
   59.2580   31.6230   47.1310 O   0  0  0  0  0  0  0  0  0  0  0  0
   63.3444   35.1546   46.9148 H   0  0  0  0  0  0  0  0  0  0  0  0
   64.0411   33.9825   45.7454 H   0  0  0  0  0  0  0  0  0  0  0  0
   62.2747   34.3089   45.7454 H   0  0  0  0  0  0  0  0  0  0  0  0
   64.7660   31.9740   47.1000 H   0  0  0  0  0  0  0  0  0  0  0  0
   61.6664   31.3244   50.8851 H   0  0  0  0  0  0  0  0  0  0  0  0
   60.2717   31.3447   49.7533 H   0  0  0  0  0  0  0  0  0  0  0  0
   61.4081   29.9536   49.7533 H   0  0  0  0  0  0  0  0  0  0  0  0
   59.9456   33.2956   49.0284 H   0  0  0  0  0  0  0  0  0  0  0  0
   60.9075   34.7559   48.5731 H   0  0  0  0  0  0  0  0  0  0  0  0
   60.3879   35.8754   46.7299 H   0  0  0  0  0  0  0  0  0  0  0  0
   59.2245   36.0578   44.5359 H   0  0  0  0  0  0  0  0  0  0  0  0
   58.0947   34.0587   43.5645 H   0  0  0  0  0  0  0  0  0  0  0  0
   57.4532   32.5901   42.7739 H   0  0  0  0  0  0  0  0  0  0  0  0
   56.3439   30.5966   41.7687 H   0  0  0  0  0  0  0  0  0  0  0  0
   56.2255   28.4543   43.0378 H   0  0  0  0  0  0  0  0  0  0  0  0
   57.8065   27.1857   44.9929 H   0  0  0  0  0  0  0  0  0  0  0  0
   58.3384   30.2951   46.3413 H   0  0  0  0  0  0  0  0  0  0  0  0
  1  2  1  0
  2  3  2  0
  3  4  1  0
  4  5  1  0
  5  6  1  0
  5  7  2  0
  7  8  1  0
  8  9  1  0
  9 10  1  0
 10 11  2  0
 11 12  1  0
 12 13  2  0
 13 14  1  0
 14 15  2  0
 15 16  1  0
 16 17  2  0
 17 18  1  0
 18 19  1  0
 19 20  1  0
 19 21  1  0
 18 22  2  0
 13 23  1  0
 23 24  2  0
  7  2  1  0
 23  9  1  0
 22 14  1  0
  1 25  1  0
  1 26  1  0
  1 27  1  0
  3 28  1  0
  6 29  1  0
  6 30  1  0
  6 31  1  0
  8 32  1  0
  8 33  1  0
 10 34  1  0
 11 35  1  0
 12 36  1  0
 15 37  1  0
 16 38  1  0
 17 39  1  0
 19 40  1  0
 22 41  1  0
M  CHG  1   3   1
M  END
>  <UniqueID>  (39) 
33

>  <SMILES>  (39) 
Cc1[nH+]oc(C)c1Cn1cccc(-c2cccc(C(F)F)c2)c1=O

>  <Energy>  (39) 
79.50627947910819

>  <Genealogy>  (39) 
Cc1[nH+]oc(C)c1Cn1cccc(-c2cccc(C(F)F)c2)c1=O (protonated)
Cc1[nH+]oc(C)c1Cn1cccc(-c2cccc(C(F)F)c2)c1=O (3D coordinates assigned)
Cc1[nH+]oc(C)c1Cn1cccc(-c2cccc(C(F)F)c2)c1=O (optimized conformer: 79.50627947910819 kcal/mol)

>  <smiles>  (39) 
Cc1noc(C)c1Cn1cccc(-c2cccc(C(F)F)c2)c1=O

>  <score_type>  (39) 
oracle

>  <origin>  (39) 
adg

>  <m_score__min__energy>  (39) 
-7.1799999999999997

>  <m_primary>  (39) 
energy

$$$$
39:0
     RDKit          3D

 52 55  0  0  1  0  0  0  0  0999 V2000
   56.0360   21.4760   49.1310 C   0  0  0  0  0  0  0  0  0  0  0  0
   57.0280   22.0050   48.2680 O   0  0  0  0  0  0  0  0  0  0  0  0
   56.6070   22.7100   47.1520 C   0  0  0  0  0  0  0  0  0  0  0  0
   56.3470   24.0630   47.1560 C   0  0  0  0  0  0  0  0  0  0  0  0
   55.9260   24.7520   46.0290 C   0  0  0  0  0  0  0  0  0  0  0  0
   55.6680   26.1320   46.0580 N   0  0  0  0  0  0  0  0  0  0  0  0
   56.6030   26.9530   45.7170 C   0  0  0  0  0  0  0  0  0  0  0  0
   57.9140   26.6500   45.7890 N   0  0  0  0  0  0  0  0  0  0  0  0
   58.8130   27.5940   45.4030 C   0  0  0  0  0  0  0  0  0  0  0  0
   58.3860   28.8420   44.9460 C   0  0  0  0  0  0  0  0  0  0  0  0
   57.0170   29.1220   44.8860 C   0  0  0  0  0  0  0  0  0  0  0  0
   56.6520   30.2890   44.4570 N   0  0  0  0  0  0  0  0  0  0  0  0
   57.3850   31.4610   44.7920 C   0  0  0  0  0  0  0  0  0  0  0  0
   57.7280   32.2930   43.7350 C   0  0  0  0  0  0  0  0  0  0  0  0
   58.4380   33.4640   43.9070 C   0  0  0  0  0  0  0  0  0  0  0  0
   58.8110   33.7970   45.2060 C   0  0  0  0  0  0  0  0  0  0  0  0
   59.5320   34.9760   45.4220 C   0  0  0  0  0  0  0  0  0  0  0  0
   59.9090   35.3180   46.7160 C   0  0  0  0  0  0  0  0  0  0  0  0
   59.5720   34.4940   47.7720 C   0  0  0  0  0  0  0  0  0  0  0  0
   58.8580   33.3300   47.5410 C   0  0  0  0  0  0  0  0  0  0  0  0
   58.4630   32.9580   46.2510 C   0  0  0  0  0  0  0  0  0  0  0  0
   57.7550   31.7900   46.0710 C   0  0  0  0  0  0  0  0  0  0  0  0
   56.1760   28.1700   45.2720 N   0  0  0  0  0  0  0  0  0  0  0  0
   55.7740   24.0070   44.8770 C   0  0  0  0  0  0  0  0  0  0  0  0
   56.0250   22.6460   44.8360 C   0  0  0  0  0  0  0  0  0  0  0  0
   55.8730   21.8900   43.6750 O   0  0  0  0  0  0  0  0  0  0  0  0
   57.0400   21.3990   43.0420 C   0  0  0  0  0  0  0  0  0  0  0  0
   56.4460   21.9720   45.9750 C   0  0  0  0  0  0  0  0  0  0  0  0
   56.7000   20.6090   45.9440 O   0  0  0  0  0  0  0  0  0  0  0  0
   57.9690   20.1140   46.3900 C   0  0  0  0  0  0  0  0  0  0  0  0
   56.3366   21.6363   50.1769 H   0  0  0  0  0  0  0  0  0  0  0  0
   55.0781   21.9831   48.9429 H   0  0  0  0  0  0  0  0  0  0  0  0
   55.9234   20.3981   48.9429 H   0  0  0  0  0  0  0  0  0  0  0  0
   56.4793   24.6211   48.0946 H   0  0  0  0  0  0  0  0  0  0  0  0
   58.2050   25.7270   46.1280 H   0  0  0  0  0  0  0  0  0  0  0  0
   59.8892   27.3718   45.4514 H   0  0  0  0  0  0  0  0  0  0  0  0
   59.1207   29.5995   44.6354 H   0  0  0  0  0  0  0  0  0  0  0  0
   57.4212   32.0071   42.7181 H   0  0  0  0  0  0  0  0  0  0  0  0
   58.6982   34.1071   43.0534 H   0  0  0  0  0  0  0  0  0  0  0  0
   59.7983   35.6266   44.5760 H   0  0  0  0  0  0  0  0  0  0  0  0
   60.4748   36.2435   46.8984 H   0  0  0  0  0  0  0  0  0  0  0  0
   59.8706   34.7622   48.7962 H   0  0  0  0  0  0  0  0  0  0  0  0
   58.5954   32.6830   48.3910 H   0  0  0  0  0  0  0  0  0  0  0  0
   57.4957   31.1442   46.9229 H   0  0  0  0  0  0  0  0  0  0  0  0
   55.1490   28.3910   45.2220 H   0  0  0  0  0  0  0  0  0  0  0  0
   55.4415   24.5128   43.9585 H   0  0  0  0  0  0  0  0  0  0  0  0
   57.7698   21.0920   43.8056 H   0  0  0  0  0  0  0  0  0  0  0  0
   56.7802   20.5339   42.4142 H   0  0  0  0  0  0  0  0  0  0  0  0
   57.4769   22.1896   42.4142 H   0  0  0  0  0  0  0  0  0  0  0  0
   57.9930   20.1046   47.4897 H   0  0  0  0  0  0  0  0  0  0  0  0
   58.1176   19.0920   46.0113 H   0  0  0  0  0  0  0  0  0  0  0  0
   58.7704   20.7655   46.0113 H   0  0  0  0  0  0  0  0  0  0  0  0
  1  2  1  0
  2  3  1  0
  3  4  2  0
  4  5  1  0
  5  6  1  0
  6  7  2  0
  7  8  1  0
  8  9  1  0
  9 10  2  0
 10 11  1  0
 11 12  2  0
 12 13  1  0
 13 14  2  0
 14 15  1  0
 15 16  2  0
 16 17  1  0
 17 18  2  0
 18 19  1  0
 19 20  2  0
 20 21  1  0
 21 22  2  0
 11 23  1  0
  5 24  2  0
 24 25  1  0
 25 26  1  0
 26 27  1  0
 25 28  2  0
 28 29  1  0
 29 30  1  0
 28  3  1  0
 23  7  1  0
 22 13  1  0
 21 16  1  0
  1 31  1  0
  1 32  1  0
  1 33  1  0
  4 34  1  0
  8 35  1  0
  9 36  1  0
 10 37  1  0
 14 38  1  0
 15 39  1  0
 17 40  1  0
 18 41  1  0
 19 42  1  0
 20 43  1  0
 22 44  1  0
 23 45  1  0
 24 46  1  0
 27 47  1  0
 27 48  1  0
 27 49  1  0
 30 50  1  0
 30 51  1  0
 30 52  1  0
M  END
>  <smiles>  (40) 
COc1cc(N=c2[nH]ccc(=Nc3ccc4ccccc4c3)[nH]2)cc(OC)c1OC

>  <score_type>  (40) 
oracle

>  <origin>  (40) 
adg

>  <m_score__min__energy>  (40) 
-9.8599999999999994

>  <m_primary>  (40) 
energy

$$$$
40:0
     RDKit          3D

 26 27  0  0  0  0  0  0  0  0999 V2000
   56.4793   31.8576   43.5952 H   0  0  0  0  0  0  0  0  0  0  0  0
   56.4250   30.9070   44.1460 C   0  0  0  0  0  0  0  0  0  0  0  0
   57.3010   30.5050   45.0890 N   0  0  0  0  0  0  0  0  0  0  0  0
   56.8290   29.3000   45.4690 C   0  0  0  0  0  0  0  0  0  0  0  0
   57.4140   28.5820   46.3800 N   0  0  0  0  0  0  0  0  0  0  0  0
   57.7470   27.1690   46.2340 C   0  0  0  0  0  0  0  0  0  0  0  0
   58.7047   26.9689   46.7367 H   0  0  0  0  0  0  0  0  0  0  0  0
   57.8240   26.9303   45.1630 H   0  0  0  0  0  0  0  0  0  0  0  0
   56.6580   26.2950   46.8590 C   0  0  0  0  0  0  0  0  0  0  0  0
   56.3572   26.7312   47.8230 H   0  0  0  0  0  0  0  0  0  0  0  0
   57.0631   25.2822   47.0009 H   0  0  0  0  0  0  0  0  0  0  0  0
   55.4860   26.2070   45.9890 N   0  0  0  0  0  0  0  0  0  0  0  0
   54.8990   25.0250   45.4250 C   0  0  0  0  0  0  0  0  0  0  0  0
   53.6820   24.7970   45.6520 O   0  0  0  0  0  0  0  0  0  0  0  0
   55.6510   24.0760   44.5780 C   0  0  0  0  0  0  0  0  0  0  0  0
   55.1270   23.3260   43.6360 O   0  0  0  0  0  0  0  0  0  0  0  0
   56.0790   22.6030   43.0900 C   0  0  0  0  0  0  0  0  0  0  0  0
   55.9373   21.8828   42.2707 H   0  0  0  0  0  0  0  0  0  0  0  0
   57.2830   22.8850   43.7010 C   0  0  0  0  0  0  0  0  0  0  0  0
   58.2630   22.4436   43.4671 H   0  0  0  0  0  0  0  0  0  0  0  0
   57.0090   23.8320   44.6640 C   0  0  0  0  0  0  0  0  0  0  0  0
   57.7238   24.2979   45.3583 H   0  0  0  0  0  0  0  0  0  0  0  0
   55.7080   28.9310   44.8140 N   0  0  0  0  0  0  0  0  0  0  0  0
   55.1500   28.0540   44.9200 H   0  0  0  0  0  0  0  0  0  0  0  0
   55.4520   29.9470   43.9770 C   0  0  0  0  0  0  0  0  0  0  0  0
   54.6077   30.0040   43.2743 H   0  0  0  0  0  0  0  0  0  0  0  0
  1  2  1  0
  2  3  1  0
  3  4  1  0
  4  5  2  0
  5  6  1  0
  6  7  1  0
  6  8  1  0
  6  9  1  0
  9 10  1  0
  9 11  1  0
  9 12  1  0
 12 13  1  0
 13 14  2  0
 13 15  1  0
 15 16  1  0
 16 17  1  0
 17 18  1  0
 17 19  2  0
 19 20  1  0
 19 21  1  0
 21 22  1  0
  4 23  1  0
 23 24  1  0
 23 25  1  0
 25 26  1  0
 25  2  2  0
 21 15  2  0
M  CHG  2   3  -1  12  -1
M  END
>  <UniqueID>  (41) 
34

>  <SMILES>  (41) 
O=C([N-]CC/N=c1/[n-]cc[nH]1)c1ccco1

>  <Energy>  (41) 
78.31226064082902

>  <Genealogy>  (41) 
O=C([N-]CCN=c1[n-]cc[nH]1)c1ccco1 (protonated)
O=C([N-]CC/N=c1/[n-]cc[nH]1)c1ccco1 (cis-trans isomerization)
O=C([N-]CC/N=c1/[n-]cc[nH]1)c1ccco1 (3D coordinates assigned)
O=C([N-]CC/N=c1/[n-]cc[nH]1)c1ccco1 (optimized conformer: 78.31226064082902 kcal/mol)

>  <smiles>  (41) 
O=C(NCCN=c1[nH]cc[nH]1)c1ccco1

>  <score_type>  (41) 
oracle

>  <origin>  (41) 
adg

>  <m_score__min__energy>  (41) 
-9.5399999999999991

>  <m_primary>  (41) 
energy

$$$$
41:0
     RDKit          3D

 36 38  0  0  0  0  0  0  0  0999 V2000
   59.8560   35.3240   47.0680 C   0  0  0  0  0  0  0  0  0  0  0  0
   59.7500   33.8500   46.7950 C   0  0  0  0  0  0  0  0  0  0  0  0
   58.6380   33.3270   46.1300 C   0  0  0  0  0  0  0  0  0  0  0  0
   58.5090   31.9760   45.8960 N   0  0  0  0  0  0  0  0  0  0  0  0
   57.3940   31.5200   45.2260 C   0  0  0  0  0  0  0  0  0  0  0  0
   56.5110   32.3350   44.8360 O   0  0  0  0  0  0  0  0  0  0  0  0
   57.2210   30.1480   44.9680 C   0  0  0  0  0  0  0  0  0  0  0  0
   56.0250   29.6230   44.2480 C   0  0  0  0  0  0  0  0  0  0  0  0
   55.1450   28.9690   44.8680 O   0  0  0  0  0  0  0  0  0  0  0  0
   55.8540   29.8400   42.8850 O   0  0  0  0  0  0  0  0  0  0  0  0
   58.2040   29.2590   45.4020 C   0  0  0  0  0  0  0  0  0  0  0  0
   59.3480   29.6970   46.0810 C   0  0  0  0  0  0  0  0  0  0  0  0
   60.3530   28.6180   46.5040 C   0  0  0  0  0  0  0  0  0  0  0  0
   60.2290   27.3090   45.7240 C   0  0  0  0  0  0  0  0  0  0  0  0
   60.6820   26.2250   46.6880 C   0  0  0  0  0  0  0  0  0  0  0  0
   60.3840   26.7440   48.0900 C   0  0  0  0  0  0  0  0  0  0  0  0
   60.3300   28.2680   47.9980 C   0  0  0  0  0  0  0  0  0  0  0  0
   59.4870   31.0960   46.3330 C   0  0  0  0  0  0  0  0  0  0  0  0
   60.6050   31.6120   47.0250 C   0  0  0  0  0  0  0  0  0  0  0  0
   60.7290   32.9760   47.2570 C   0  0  0  0  0  0  0  0  0  0  0  0
   61.8090   33.4410   47.9350 F   0  0  0  0  0  0  0  0  0  0  0  0
   59.8683   35.4957   48.1544 H   0  0  0  0  0  0  0  0  0  0  0  0
   60.7844   35.7132   46.6247 H   0  0  0  0  0  0  0  0  0  0  0  0
   58.9928   35.8420   46.6247 H   0  0  0  0  0  0  0  0  0  0  0  0
   57.8475   34.0100   45.7855 H   0  0  0  0  0  0  0  0  0  0  0  0
   58.0773   28.1841   45.2056 H   0  0  0  0  0  0  0  0  0  0  0  0
   61.3106   29.1036   46.2649 H   0  0  0  0  0  0  0  0  0  0  0  0
   59.1863   27.1406   45.4168 H   0  0  0  0  0  0  0  0  0  0  0  0
   60.8332   27.3198   44.8048 H   0  0  0  0  0  0  0  0  0  0  0  0
   60.1273   25.2937   46.5012 H   0  0  0  0  0  0  0  0  0  0  0  0
   61.7522   26.0029   46.5641 H   0  0  0  0  0  0  0  0  0  0  0  0
   59.4180   26.3519   48.4409 H   0  0  0  0  0  0  0  0  0  0  0  0
   61.1575   26.4201   48.8019 H   0  0  0  0  0  0  0  0  0  0  0  0
   59.4060   28.6437   48.4617 H   0  0  0  0  0  0  0  0  0  0  0  0
   61.1783   28.7277   48.5263 H   0  0  0  0  0  0  0  0  0  0  0  0
   61.3863   30.9260   47.3843 H   0  0  0  0  0  0  0  0  0  0  0  0
  1  2  1  0
  2  3  2  0
  3  4  1  0
  4  5  1  0
  5  6  2  0
  5  7  1  0
  7  8  1  0
  8  9  2  0
  8 10  1  0
  7 11  2  0
 11 12  1  0
 12 13  1  0
 13 14  1  0
 14 15  1  0
 15 16  1  0
 16 17  1  0
 12 18  2  0
 18 19  1  0
 19 20  2  0
 20 21  1  0
 20  2  1  0
 18  4  1  0
 17 13  1  0
  1 22  1  0
  1 23  1  0
  1 24  1  0
  3 25  1  0
 11 26  1  0
 13 27  1  0
 14 28  1  0
 14 29  1  0
 15 30  1  0
 15 31  1  0
 16 32  1  0
 16 33  1  0
 17 34  1  0
 17 35  1  0
 19 36  1  0
M  CHG  1  10  -1
M  END
>  <UniqueID>  (42) 
35

>  <SMILES>  (42) 
Cc1cn2c(=O)c(C(=O)[O-])cc(C3CCCC3)c2cc1F

>  <Energy>  (42) 
54.599673537586575

>  <Genealogy>  (42) 
Cc1cn2c(=O)c(C(=O)[O-])cc(C3CCCC3)c2cc1F (protonated)
Cc1cn2c(=O)c(C(=O)[O-])cc(C3CCCC3)c2cc1F (3D coordinates assigned)
Cc1cn2c(=O)c(C(=O)[O-])cc(C3CCCC3)c2cc1F (nonaromatic ring conformer: 54.599673537586575 kcal/mol)

>  <smiles>  (42) 
Cc1cn2c(=O)c(C(=O)O)cc(C3CCCC3)c2cc1F

>  <score_type>  (42) 
oracle

>  <origin>  (42) 
adg

>  <m_score__min__energy>  (42) 
-9.4800000000000004

>  <m_primary>  (42) 
energy

$$$$
42:0
     RDKit          3D

 31 33  0  0  0  0  0  0  0  0999 V2000
   55.8670   29.3950   42.6310 O   0  0  0  0  0  0  0  0  0  0  0  0
   56.5900   29.7350   43.9040 S   0  0  0  0  0  0  0  0  0  0  0  0
   55.6800   30.5800   44.7520 O   0  0  0  0  0  0  0  0  0  0  0  0
   56.9600   28.2510   44.7700 C   0  0  0  0  0  0  0  0  0  0  0  0
   58.1470   27.5630   44.7190 C   0  0  0  0  0  0  0  0  0  0  0  0
   58.0690   26.5100   45.5490 N   0  0  0  0  0  0  0  0  0  0  0  0
   56.8300   26.5950   46.0780 C   0  0  0  0  0  0  0  0  0  0  0  0
   56.1190   27.6490   45.6260 N   0  0  0  0  0  0  0  0  0  0  0  0
   58.0510   30.6270   43.5280 N   0  0  1  0  0  0  0  0  0  0  0  0
   57.7180   31.9940   43.0140 C   0  0  0  0  0  0  0  0  0  0  0  0
   58.4650   33.1460   43.7140 C   0  0  0  0  0  0  0  0  0  0  0  0
   58.4320   32.9440   45.1960 C   0  0  0  0  0  0  0  0  0  0  0  0
   58.1710   33.9940   46.0900 C   0  0  0  0  0  0  0  0  0  0  0  0
   58.1700   33.7500   47.4670 C   0  0  0  0  0  0  0  0  0  0  0  0
   58.4450   32.4680   47.9540 C   0  0  0  0  0  0  0  0  0  0  0  0
   58.7190   31.4240   47.0640 C   0  0  0  0  0  0  0  0  0  0  0  0
   58.6990   31.6620   45.6820 C   0  0  0  0  0  0  0  0  0  0  0  0
   58.9900   30.5800   44.6790 C   0  0  0  0  0  0  0  0  0  0  0  0
   59.0171   27.8298   44.1012 H   0  0  0  0  0  0  0  0  0  0  0  0
   56.4369   25.8729   46.8088 H   0  0  0  0  0  0  0  0  0  0  0  0
   58.5080   30.0970   42.7480 H   0  0  0  0  0  0  0  0  0  0  0  0
   57.9652   32.0266   41.9426 H   0  0  0  0  0  0  0  0  0  0  0  0
   56.6481   32.1495   43.2168 H   0  0  0  0  0  0  0  0  0  0  0  0
   59.5100   33.1654   43.3712 H   0  0  0  0  0  0  0  0  0  0  0  0
   57.9762   34.0998   43.4662 H   0  0  0  0  0  0  0  0  0  0  0  0
   57.9679   35.0056   45.7088 H   0  0  0  0  0  0  0  0  0  0  0  0
   57.9524   34.5685   48.1690 H   0  0  0  0  0  0  0  0  0  0  0  0
   58.4458   32.2805   49.0379 H   0  0  0  0  0  0  0  0  0  0  0  0
   58.9495   30.4190   47.4472 H   0  0  0  0  0  0  0  0  0  0  0  0
   60.0170   30.7072   44.3060 H   0  0  0  0  0  0  0  0  0  0  0  0
   58.8686   29.6081   45.1797 H   0  0  0  0  0  0  0  0  0  0  0  0
  1  2  2  0
  2  3  2  0
  2  4  1  0
  4  5  2  0
  5  6  1  0
  6  7  1  0
  7  8  2  0
  2  9  1  0
  9 10  1  0
 10 11  1  0
 11 12  1  0
 12 13  2  0
 13 14  1  0
 14 15  2  0
 15 16  1  0
 16 17  2  0
 17 18  1  0
  8  4  1  0
 18  9  1  0
 17 12  1  0
  5 19  1  0
  7 20  1  0
  9 21  1  6
 10 22  1  0
 10 23  1  0
 11 24  1  0
 11 25  1  0
 13 26  1  0
 14 27  1  0
 15 28  1  0
 16 29  1  0
 18 30  1  0
 18 31  1  0
M  CHG  2   6  -1   9   1
M  END
>  <UniqueID>  (43) 
36

>  <SMILES>  (43) 
O=S(=O)(c1c[n-]cn1)[N@H+]1CCc2ccccc2C1

>  <Energy>  (43) 
68.03276568095411

>  <Genealogy>  (43) 
O=S(=O)(c1c[n-]cn1)[NH+]1CCc2ccccc2C1 (protonated)
O=S(=O)(c1c[n-]cn1)[N@H+]1CCc2ccccc2C1 (chirality)
O=S(=O)(c1c[n-]cn1)[N@H+]1CCc2ccccc2C1 (3D coordinates assigned)
O=S(=O)(c1c[n-]cn1)[N@H+]1CCc2ccccc2C1 (nonaromatic ring conformer: 68.03276568095411 kcal/mol)

>  <smiles>  (43) 
O=S(=O)(c1c[nH]cn1)N1CCc2ccccc2C1

>  <score_type>  (43) 
oracle

>  <origin>  (43) 
adg

>  <m_score__min__energy>  (43) 
-7.7400000000000002

>  <m_primary>  (43) 
energy

$$$$
43:0
     RDKit          3D

 50 52  0  0  0  0  0  0  0  0999 V2000
   52.4440   22.7880   45.8710 C   0  0  0  0  0  0  0  0  0  0  0  0
   53.7840   23.3820   45.5770 C   0  0  0  0  0  0  0  0  0  0  0  0
   54.7700   22.6240   44.9420 C   0  0  0  0  0  0  0  0  0  0  0  0
   56.0230   23.1910   44.6670 C   0  0  0  0  0  0  0  0  0  0  0  0
   57.0570   22.3510   43.9590 C   0  0  0  0  0  0  0  0  0  0  0  0
   56.2660   24.5440   45.0170 C   0  0  0  0  0  0  0  0  0  0  0  0
   57.5930   25.2160   44.7110 C   0  0  0  0  0  0  0  0  0  0  0  0
   57.4720   26.6710   44.7870 N   0  0  0  0  0  0  0  0  0  0  0  0
   58.4290   27.4900   45.4780 C   0  0  0  0  0  0  0  0  0  0  0  0
   59.3710   26.9450   46.1160 O   0  0  0  0  0  0  0  0  0  0  0  0
   58.3200   28.9690   45.4730 C   0  0  0  0  0  0  0  0  0  0  0  0
   58.0190   29.6740   44.2930 C   0  0  0  0  0  0  0  0  0  0  0  0
   57.9250   31.0690   44.3060 C   0  0  0  0  0  0  0  0  0  0  0  0
   58.1320   31.7840   45.4930 C   0  0  0  0  0  0  0  0  0  0  0  0
   58.0470   33.2880   45.4930 C   0  0  0  0  0  0  0  0  0  0  0  0
   59.3510   33.8880   45.1300 N   0  0  0  0  0  0  0  0  0  0  0  0
   59.2780   35.3630   45.0010 C   0  0  0  0  0  0  0  0  0  0  0  0
   59.6440   36.0940   46.3090 C   0  0  0  0  0  0  0  0  0  0  0  0
   59.3990   35.2710   47.4270 O   0  0  0  0  0  0  0  0  0  0  0  0
   60.3050   34.1820   47.4320 C   0  0  0  0  0  0  0  0  0  0  0  0
   60.4370   33.4940   46.0520 C   0  0  0  0  0  0  0  0  0  0  0  0
   58.4480   31.0870   46.6690 C   0  0  0  0  0  0  0  0  0  0  0  0
   58.5440   29.6920   46.6580 C   0  0  0  0  0  0  0  0  0  0  0  0
   55.2330   25.2660   45.6550 C   0  0  0  0  0  0  0  0  0  0  0  0
   55.3980   26.4690   45.9930 O   0  0  0  0  0  0  0  0  0  0  0  0
   54.0380   24.6720   45.9130 N   0  0  0  0  0  0  0  0  0  0  0  0
   52.3018   22.7250   46.9599 H   0  0  0  0  0  0  0  0  0  0  0  0
   51.6581   23.4221   45.4347 H   0  0  0  0  0  0  0  0  0  0  0  0
   52.3861   21.7799   45.4347 H   0  0  0  0  0  0  0  0  0  0  0  0
   54.5639   21.5817   44.6573 H   0  0  0  0  0  0  0  0  0  0  0  0
   57.6861   21.8400   44.7027 H   0  0  0  0  0  0  0  0  0  0  0  0
   56.5531   21.6032   43.3290 H   0  0  0  0  0  0  0  0  0  0  0  0
   57.6857   22.9974   43.3290 H   0  0  0  0  0  0  0  0  0  0  0  0
   58.3440   24.8787   45.4406 H   0  0  0  0  0  0  0  0  0  0  0  0
   57.8980   24.9420   43.6902 H   0  0  0  0  0  0  0  0  0  0  0  0
   56.6420   27.1100   44.3310 H   0  0  0  0  0  0  0  0  0  0  0  0
   57.8566   29.1241   43.3543 H   0  0  0  0  0  0  0  0  0  0  0  0
   57.6868   31.6090   43.3777 H   0  0  0  0  0  0  0  0  0  0  0  0
   57.2879   33.6064   44.7634 H   0  0  0  0  0  0  0  0  0  0  0  0
   57.7723   33.6258   46.5032 H   0  0  0  0  0  0  0  0  0  0  0  0
   59.9754   35.6822   44.2125 H   0  0  0  0  0  0  0  0  0  0  0  0
   58.2382   35.6238   44.7545 H   0  0  0  0  0  0  0  0  0  0  0  0
   60.7104   36.3629   46.2858 H   0  0  0  0  0  0  0  0  0  0  0  0
   59.0232   36.9982   46.3936 H   0  0  0  0  0  0  0  0  0  0  0  0
   61.2956   34.5525   47.7344 H   0  0  0  0  0  0  0  0  0  0  0  0
   59.9124   33.4327   48.1352 H   0  0  0  0  0  0  0  0  0  0  0  0
   61.4018   33.7763   45.6054 H   0  0  0  0  0  0  0  0  0  0  0  0
   60.3729   32.4069   46.2071 H   0  0  0  0  0  0  0  0  0  0  0  0
   58.6210   31.6404   47.6038 H   0  0  0  0  0  0  0  0  0  0  0  0
   58.7969   29.1556   47.5844 H   0  0  0  0  0  0  0  0  0  0  0  0
  1  2  1  0
  2  3  2  0
  3  4  1  0
  4  5  1  0
  4  6  2  0
  6  7  1  0
  7  8  1  0
  8  9  1  0
  9 10  2  0
  9 11  1  0
 11 12  2  0
 12 13  1  0
 13 14  2  0
 14 15  1  0
 15 16  1  0
 16 17  1  0
 17 18  1  0
 18 19  1  0
 19 20  1  0
 20 21  1  0
 14 22  1  0
 22 23  2  0
  6 24  1  0
 24 25  2  0
 24 26  1  0
 26  2  1  0
 23 11  1  0
 21 16  1  0
  1 27  1  0
  1 28  1  0
  1 29  1  0
  3 30  1  0
  5 31  1  0
  5 32  1  0
  5 33  1  0
  7 34  1  0
  7 35  1  0
  8 36  1  0
 12 37  1  0
 13 38  1  0
 15 39  1  0
 15 40  1  0
 17 41  1  0
 17 42  1  0
 18 43  1  0
 18 44  1  0
 20 45  1  0
 20 46  1  0
 21 47  1  0
 21 48  1  0
 22 49  1  0
 23 50  1  0
M  CHG  1  26  -1
M  END
>  <UniqueID>  (44) 
37

>  <SMILES>  (44) 
Cc1cc(C)c(CNC(=O)c2ccc(CN3CCOCC3)cc2)c(=O)[n-]1

>  <Energy>  (44) 
65.36055005690244

>  <Genealogy>  (44) 
Cc1cc(C)c(CNC(=O)c2ccc(CN3CCOCC3)cc2)c(=O)[n-]1 (protonated)
Cc1cc(C)c(CNC(=O)c2ccc(CN3CCOCC3)cc2)c(=O)[n-]1 (3D coordinates assigned)
Cc1cc(C)c(CNC(=O)c2ccc(CN3CCOCC3)cc2)c(=O)[n-]1 (nonaromatic ring conformer: 65.36055005690244 kcal/mol)

>  <smiles>  (44) 
Cc1cc(C)c(CNC(=O)c2ccc(CN3CCOCC3)cc2)c(=O)[nH]1

>  <score_type>  (44) 
oracle

>  <origin>  (44) 
adg

>  <m_score__min__energy>  (44) 
-9.7799999999999994

>  <m_primary>  (44) 
energy

$$$$
44:0
     RDKit          3D

 39 41  0  0  0  0  0  0  0  0999 V2000
   59.3345   35.4648   45.8058 H   0  0  0  0  0  0  0  0  0  0  0  0
   58.8780   34.4760   45.6510 C   0  0  0  0  0  0  0  0  0  0  0  0
   59.5010   33.2980   45.8820 N   0  0  0  0  0  0  0  0  0  0  0  0
   58.7390   32.2370   45.6210 N   0  0  0  0  0  0  0  0  0  0  0  0
   59.0850   31.2600   45.7450 H   0  0  0  0  0  0  0  0  0  0  0  0
   57.4990   32.5490   45.1880 C   0  0  0  0  0  0  0  0  0  0  0  0
   56.6320   31.6380   44.8480 N   0  0  0  0  0  0  0  0  0  0  0  0
   56.8410   30.2260   44.6710 C   0  0  0  0  0  0  0  0  0  0  0  0
   55.8900   29.4400   44.9260 O   0  0  0  0  0  0  0  0  0  0  0  0
   58.1200   29.6520   44.1230 C   0  0  0  0  0  0  0  0  0  0  0  0
   57.9593   28.5953   43.8629 H   0  0  0  0  0  0  0  0  0  0  0  0
   58.4107   30.2248   43.2300 H   0  0  0  0  0  0  0  0  0  0  0  0
   59.1680   29.7430   45.0880 O   0  0  0  0  0  0  0  0  0  0  0  0
   59.4690   28.7710   46.0540 C   0  0  0  0  0  0  0  0  0  0  0  0
   59.8060   27.4480   45.7110 C   0  0  0  0  0  0  0  0  0  0  0  0
   59.8522   27.1514   44.6527 H   0  0  0  0  0  0  0  0  0  0  0  0
   60.0820   26.5100   46.7090 C   0  0  0  0  0  0  0  0  0  0  0  0
   60.4010   25.2360   46.3730 F   0  0  0  0  0  0  0  0  0  0  0  0
   60.0230   26.8810   48.0540 C   0  0  0  0  0  0  0  0  0  0  0  0
   60.2326   26.1389   48.8385 H   0  0  0  0  0  0  0  0  0  0  0  0
   59.6980   28.1940   48.4040 C   0  0  0  0  0  0  0  0  0  0  0  0
   59.6529   28.4827   49.4645 H   0  0  0  0  0  0  0  0  0  0  0  0
   59.4280   29.1490   47.4060 C   0  0  0  0  0  0  0  0  0  0  0  0
   59.1340   30.4860   47.7090 O   0  0  0  0  0  0  0  0  0  0  0  0
   59.7050   31.2170   48.7900 C   0  0  0  0  0  0  0  0  0  0  0  0
   58.9973   31.9877   49.1292 H   0  0  0  0  0  0  0  0  0  0  0  0
   59.9236   30.5363   49.6260 H   0  0  0  0  0  0  0  0  0  0  0  0
   60.9730   31.8690   48.3200 C   0  0  0  0  0  0  0  0  0  0  0  0
   61.1760   33.2430   48.5230 C   0  0  0  0  0  0  0  0  0  0  0  0
   60.4204   33.8350   49.0602 H   0  0  0  0  0  0  0  0  0  0  0  0
   62.3350   33.8620   48.0450 C   0  0  0  0  0  0  0  0  0  0  0  0
   62.4916   34.9380   48.2113 H   0  0  0  0  0  0  0  0  0  0  0  0
   63.2950   33.1150   47.3560 C   0  0  0  0  0  0  0  0  0  0  0  0
   64.2080   33.6027   46.9838 H   0  0  0  0  0  0  0  0  0  0  0  0
   63.0950   31.7490   47.1400 C   0  0  0  0  0  0  0  0  0  0  0  0
   63.8509   31.1620   46.5977 H   0  0  0  0  0  0  0  0  0  0  0  0
   61.9340   31.1270   47.6130 C   0  0  0  0  0  0  0  0  0  0  0  0
   61.7734   30.0542   47.4307 H   0  0  0  0  0  0  0  0  0  0  0  0
   57.3080   34.2240   45.0940 S   0  0  0  0  0  0  0  0  0  0  0  0
  1  2  1  0
  2  3  2  0
  3  4  1  0
  4  5  1  0
  4  6  1  0
  6  7  2  0
  7  8  1  0
  8  9  2  0
  8 10  1  0
 10 11  1  0
 10 12  1  0
 10 13  1  0
 13 14  1  0
 14 15  2  0
 15 16  1  0
 15 17  1  0
 17 18  1  0
 17 19  2  0
 19 20  1  0
 19 21  1  0
 21 22  1  0
 21 23  2  0
 23 24  1  0
 24 25  1  0
 25 26  1  0
 25 27  1  0
 25 28  1  0
 28 29  2  0
 29 30  1  0
 29 31  1  0
 31 32  1  0
 31 33  2  0
 33 34  1  0
 33 35  1  0
 35 36  1  0
 35 37  2  0
 37 38  1  0
  6 39  1  0
 39  2  1  0
 23 14  1  0
 37 28  1  0
M  END
>  <UniqueID>  (45) 
38

>  <SMILES>  (45) 
O=C(COc1cc(F)ccc1OCc1ccccc1)/N=c1/[nH]ncs1

>  <Energy>  (45) 
77.84988530390356

>  <Genealogy>  (45) 
O=C(COc1cc(F)ccc1OCc1ccccc1)/N=c1/[nH]ncs1 (cis-trans isomerization)
O=C(COc1cc(F)ccc1OCc1ccccc1)/N=c1/[nH]ncs1 (3D coordinates assigned)
O=C(COc1cc(F)ccc1OCc1ccccc1)/N=c1/[nH]ncs1 (optimized conformer: 77.84988530390356 kcal/mol)

>  <smiles>  (45) 
O=C(COc1cc(F)ccc1OCc1ccccc1)N=c1[nH]ncs1

>  <score_type>  (45) 
oracle

>  <origin>  (45) 
adg

>  <m_score__min__energy>  (45) 
-8.1899999999999995

>  <m_primary>  (45) 
energy

$$$$
45:0
     RDKit          3D

 46 48  0  0  0  0  0  0  0  0999 V2000
   56.5480   24.7986   46.6162 H   0  0  0  0  0  0  0  0  0  0  0  0
   56.9850   25.7080   46.1780 C   0  0  0  0  0  0  0  0  0  0  0  0
   56.2110   26.8090   45.9840 N   0  0  0  0  0  0  0  0  0  0  0  0
   56.7010   27.9650   45.4540 C   0  0  0  0  0  0  0  0  0  0  0  0
   55.8790   28.9660   45.3010 N   0  0  0  0  0  0  0  0  0  0  0  0
   55.6690   29.8000   44.1470 C   0  0  0  0  0  0  0  0  0  0  0  0
   54.7200   29.5630   43.3510 O   0  0  0  0  0  0  0  0  0  0  0  0
   56.6290   30.8890   43.8420 C   0  0  0  0  0  0  0  0  0  0  0  0
   57.0770   31.1020   42.5250 C   0  0  0  0  0  0  0  0  0  0  0  0
   56.7121   30.4562   41.7128 H   0  0  0  0  0  0  0  0  0  0  0  0
   57.9820   32.1280   42.2420 C   0  0  0  0  0  0  0  0  0  0  0  0
   58.3250   32.2874   41.2091 H   0  0  0  0  0  0  0  0  0  0  0  0
   58.4520   32.9510   43.2660 C   0  0  0  0  0  0  0  0  0  0  0  0
   59.1637   33.7581   43.0377 H   0  0  0  0  0  0  0  0  0  0  0  0
   58.0210   32.7530   44.5820 C   0  0  0  0  0  0  0  0  0  0  0  0
   58.6220   33.8070   45.8570 S   0  0  0  0  0  0  0  0  0  0  0  0
   57.4800   34.6430   46.3650 O   0  0  0  0  0  0  0  0  0  0  0  0
   59.7000   34.7170   45.3350 O   0  0  0  0  0  0  0  0  0  0  0  0
   59.2740   32.8350   47.1420 N   0  0  0  0  0  0  0  0  0  0  0  0
   60.6920   32.7780   47.3570 C   0  0  0  0  0  0  0  0  0  0  0  0
   61.3600   33.8890   47.8940 C   0  0  0  0  0  0  0  0  0  0  0  0
   60.7926   34.7945   48.1551 H   0  0  0  0  0  0  0  0  0  0  0  0
   62.7410   33.8520   48.0990 C   0  0  0  0  0  0  0  0  0  0  0  0
   63.2576   34.7274   48.5195 H   0  0  0  0  0  0  0  0  0  0  0  0
   63.4660   32.7060   47.7710 C   0  0  0  0  0  0  0  0  0  0  0  0
   64.5542   32.6806   47.9297 H   0  0  0  0  0  0  0  0  0  0  0  0
   62.8120   31.5900   47.2410 C   0  0  0  0  0  0  0  0  0  0  0  0
   63.3881   30.6888   46.9841 H   0  0  0  0  0  0  0  0  0  0  0  0
   61.4170   31.6140   47.0340 C   0  0  0  0  0  0  0  0  0  0  0  0
   60.7220   30.5050   46.5230 O   0  0  0  0  0  0  0  0  0  0  0  0
   60.3080   29.3860   47.2970 C   0  0  0  0  0  0  0  0  0  0  0  0
   60.3971   29.6269   48.3666 H   0  0  0  0  0  0  0  0  0  0  0  0
   59.2610   29.1445   47.0615 H   0  0  0  0  0  0  0  0  0  0  0  0
   60.9457   28.5212   47.0615 H   0  0  0  0  0  0  0  0  0  0  0  0
   58.3710   32.0970   48.0230 C   0  0  0  0  0  0  0  0  0  0  0  0
   58.6285   32.3075   49.0715 H   0  0  0  0  0  0  0  0  0  0  0  0
   57.3341   32.4095   47.8303 H   0  0  0  0  0  0  0  0  0  0  0  0
   58.4708   31.0186   47.8303 H   0  0  0  0  0  0  0  0  0  0  0  0
   57.1110   31.7240   44.8680 C   0  0  0  0  0  0  0  0  0  0  0  0
   56.7713   31.5684   45.9026 H   0  0  0  0  0  0  0  0  0  0  0  0
   58.0580   28.0110   45.0640 C   0  0  0  0  0  0  0  0  0  0  0  0
   58.4739   28.9234   44.6117 H   0  0  0  0  0  0  0  0  0  0  0  0
   58.8680   26.8890   45.2570 C   0  0  0  0  0  0  0  0  0  0  0  0
   59.9277   26.9190   44.9636 H   0  0  0  0  0  0  0  0  0  0  0  0
   58.3340   25.7320   45.8210 C   0  0  0  0  0  0  0  0  0  0  0  0
   58.9683   24.8480   45.9829 H   0  0  0  0  0  0  0  0  0  0  0  0
  1  2  1  0
  2  3  1  0
  3  4  1  0
  4  5  2  0
  5  6  1  0
  6  7  2  0
  6  8  1  0
  8  9  2  0
  9 10  1  0
  9 11  1  0
 11 12  1  0
 11 13  2  0
 13 14  1  0
 13 15  1  0
 15 16  1  0
 16 17  2  0
 16 18  2  0
 16 19  1  0
 19 20  1  0
 20 21  2  0
 21 22  1  0
 21 23  1  0
 23 24  1  0
 23 25  2  0
 25 26  1  0
 25 27  1  0
 27 28  1  0
 27 29  2  0
 29 30  1  0
 30 31  1  0
 31 32  1  0
 31 33  1  0
 31 34  1  0
 19 35  1  0
 35 36  1  0
 35 37  1  0
 35 38  1  0
 15 39  2  0
 39 40  1  0
  4 41  1  0
 41 42  1  0
 41 43  2  0
 43 44  1  0
 43 45  1  0
 45 46  1  0
 45  2  2  0
 39  8  1  0
 29 20  1  0
M  CHG  1   3  -1
M  END
>  <UniqueID>  (46) 
39

>  <SMILES>  (46) 
COc1ccccc1N(C)S(=O)(=O)c1cccc(C(=O)/N=c2\cccc[n-]2)c1

>  <Energy>  (46) 
62.46066234177066

>  <Genealogy>  (46) 
COc1ccccc1N(C)S(=O)(=O)c1cccc(C(=O)N=c2cccc[n-]2)c1 (protonated)
COc1ccccc1N(C)S(=O)(=O)c1cccc(C(=O)/N=c2\cccc[n-]2)c1 (cis-trans isomerization)
COc1ccccc1N(C)S(=O)(=O)c1cccc(C(=O)/N=c2\cccc[n-]2)c1 (3D coordinates assigned)
COc1ccccc1N(C)S(=O)(=O)c1cccc(C(=O)/N=c2\cccc[n-]2)c1 (optimized conformer: 62.46066234177066 kcal/mol)

>  <smiles>  (46) 
COc1ccccc1N(C)S(=O)(=O)c1cccc(C(=O)N=c2cccc[nH]2)c1

>  <score_type>  (46) 
oracle

>  <origin>  (46) 
adg

>  <m_score__min__energy>  (46) 
-10.85

>  <m_primary>  (46) 
energy

$$$$
46:0
     RDKit          3D

 48 50  0  0  0  0  0  0  0  0999 V2000
   63.7000   33.4390   47.1340 C   0  0  0  0  0  0  0  0  0  0  0  0
   62.4560   33.8590   46.3610 C   0  0  0  0  0  0  0  0  0  0  0  0
   61.2850   33.8580   47.2440 N   0  0  0  0  0  0  0  0  0  0  0  0
   61.3040   33.1150   48.4700 C   0  0  0  0  0  0  0  0  0  0  0  0
   61.3380   31.7130   48.4410 C   0  0  0  0  0  0  0  0  0  0  0  0
   61.3710   30.9860   49.6360 C   0  0  0  0  0  0  0  0  0  0  0  0
   61.3710   31.6560   50.8640 C   0  0  0  0  0  0  0  0  0  0  0  0
   61.3380   33.0540   50.8980 C   0  0  0  0  0  0  0  0  0  0  0  0
   61.3060   33.7830   49.7050 C   0  0  0  0  0  0  0  0  0  0  0  0
   59.7760   34.5150   46.6900 S   0  0  0  0  0  0  0  0  0  0  0  0
   59.0210   35.1100   47.8450 O   0  0  0  0  0  0  0  0  0  0  0  0
   60.0230   35.6030   45.6830 O   0  0  0  0  0  0  0  0  0  0  0  0
   58.8350   33.2210   45.9600 C   0  0  0  0  0  0  0  0  0  0  0  0
   58.2870   33.3880   44.6810 C   0  0  0  0  0  0  0  0  0  0  0  0
   57.5050   32.3780   44.1130 C   0  0  0  0  0  0  0  0  0  0  0  0
   57.2540   31.1880   44.8210 C   0  0  0  0  0  0  0  0  0  0  0  0
   56.4240   30.1160   44.2230 C   0  0  0  0  0  0  0  0  0  0  0  0
   56.1520   30.1400   42.9910 O   0  0  0  0  0  0  0  0  0  0  0  0
   55.9260   29.0490   45.0410 N   0  0  0  0  0  0  0  0  0  0  0  0
   56.6320   27.7890   45.2470 C   0  0  0  0  0  0  0  0  0  0  0  0
   58.0800   28.0450   45.5640 C   0  0  0  0  0  0  0  0  0  0  0  0
   58.5290   27.9970   46.8920 C   0  0  0  0  0  0  0  0  0  0  0  0
   59.8800   28.2180   47.1710 C   0  0  0  0  0  0  0  0  0  0  0  0
   60.7530   28.4740   46.1590 N   0  0  0  0  0  0  0  0  0  0  0  0
   60.3460   28.5220   44.8620 C   0  0  0  0  0  0  0  0  0  0  0  0
   59.0030   28.3070   44.5410 C   0  0  0  0  0  0  0  0  0  0  0  0
   57.7960   31.0340   46.1120 C   0  0  0  0  0  0  0  0  0  0  0  0
   58.5780   32.0460   46.6770 C   0  0  0  0  0  0  0  0  0  0  0  0
   63.5009   33.5062   48.2137 H   0  0  0  0  0  0  0  0  0  0  0  0
   63.9613   32.4028   46.8732 H   0  0  0  0  0  0  0  0  0  0  0  0
   64.5359   34.1047   46.8732 H   0  0  0  0  0  0  0  0  0  0  0  0
   62.6045   34.8709   45.9561 H   0  0  0  0  0  0  0  0  0  0  0  0
   62.2865   33.1465   45.5403 H   0  0  0  0  0  0  0  0  0  0  0  0
   61.3387   31.1839   47.4766 H   0  0  0  0  0  0  0  0  0  0  0  0
   61.3970   29.8866   49.6098 H   0  0  0  0  0  0  0  0  0  0  0  0
   61.3969   31.0835   51.8029 H   0  0  0  0  0  0  0  0  0  0  0  0
   61.3372   33.5804   51.8639 H   0  0  0  0  0  0  0  0  0  0  0  0
   61.2823   34.8824   49.7342 H   0  0  0  0  0  0  0  0  0  0  0  0
   58.4728   34.3170   44.1221 H   0  0  0  0  0  0  0  0  0  0  0  0
   57.0832   32.5143   43.1063 H   0  0  0  0  0  0  0  0  0  0  0  0
   56.1682   27.2463   46.0839 H   0  0  0  0  0  0  0  0  0  0  0  0
   56.5687   27.1899   44.3266 H   0  0  0  0  0  0  0  0  0  0  0  0
   57.8222   27.7868   47.7082 H   0  0  0  0  0  0  0  0  0  0  0  0
   60.2386   28.1850   48.2104 H   0  0  0  0  0  0  0  0  0  0  0  0
   61.0748   28.7303   44.0649 H   0  0  0  0  0  0  0  0  0  0  0  0
   58.6719   28.3430   43.4926 H   0  0  0  0  0  0  0  0  0  0  0  0
   57.6028   30.1116   46.6793 H   0  0  0  0  0  0  0  0  0  0  0  0
   58.9926   31.9188   47.6879 H   0  0  0  0  0  0  0  0  0  0  0  0
  1  2  1  0
  2  3  1  0
  3  4  1  0
  4  5  2  0
  5  6  1  0
  6  7  2  0
  7  8  1  0
  8  9  2  0
  3 10  1  0
 10 11  2  0
 10 12  2  0
 10 13  1  0
 13 14  2  0
 14 15  1  0
 15 16  2  0
 16 17  1  0
 17 18  2  0
 17 19  1  0
 19 20  1  0
 20 21  1  0
 21 22  2  0
 22 23  1  0
 23 24  2  0
 24 25  1  0
 25 26  2  0
 16 27  1  0
 27 28  2  0
  9  4  1  0
 28 13  1  0
 26 21  1  0
  1 29  1  0
  1 30  1  0
  1 31  1  0
  2 32  1  0
  2 33  1  0
  5 34  1  0
  6 35  1  0
  7 36  1  0
  8 37  1  0
  9 38  1  0
 14 39  1  0
 15 40  1  0
 20 41  1  0
 20 42  1  0
 22 43  1  0
 23 44  1  0
 25 45  1  0
 26 46  1  0
 27 47  1  0
 28 48  1  0
M  CHG  1  19  -1
M  END
>  <UniqueID>  (47) 
40

>  <SMILES>  (47) 
CCN(c1ccccc1)S(=O)(=O)c1ccc(C(=O)[N-]Cc2ccncc2)cc1

>  <Energy>  (47) 
52.482348496588784

>  <Genealogy>  (47) 
CCN(c1ccccc1)S(=O)(=O)c1ccc(C(=O)[N-]Cc2ccncc2)cc1 (protonated)
CCN(c1ccccc1)S(=O)(=O)c1ccc(C(=O)[N-]Cc2ccncc2)cc1 (3D coordinates assigned)
CCN(c1ccccc1)S(=O)(=O)c1ccc(C(=O)[N-]Cc2ccncc2)cc1 (optimized conformer: 52.482348496588784 kcal/mol)

>  <smiles>  (47) 
CCN(c1ccccc1)S(=O)(=O)c1ccc(C(=O)NCc2ccncc2)cc1

>  <score_type>  (47) 
oracle

>  <origin>  (47) 
adg

>  <m_score__min__energy>  (47) 
-10.32

>  <m_primary>  (47) 
energy

$$$$
47:0
     RDKit          3D

 32 34  0  0  0  0  0  0  0  0999 V2000
   57.0410   27.4070   45.3330 C   0  0  0  0  0  0  0  0  0  0  0  0
   57.2930   28.8870   45.3800 C   0  0  0  0  0  0  0  0  0  0  0  0
   56.3500   29.7180   44.8640 N   0  0  0  0  0  0  0  0  0  0  0  0
   56.4930   31.0410   44.8710 N   0  0  0  0  0  0  0  0  0  0  0  0
   57.5910   31.6460   45.3920 C   0  0  0  0  0  0  0  0  0  0  0  0
   57.6620   33.0820   45.3960 N   0  0  0  0  0  0  0  0  0  0  0  0
   58.3820   33.7840   44.3330 C   0  0  0  0  0  0  0  0  0  0  0  0
   59.6430   34.4220   44.9290 C   0  0  0  0  0  0  0  0  0  0  0  0
   59.3170   35.2420   46.0380 O   0  0  0  0  0  0  0  0  0  0  0  0
   58.7600   34.4580   47.0800 C   0  0  0  0  0  0  0  0  0  0  0  0
   57.4370   33.8260   46.6350 C   0  0  0  0  0  0  0  0  0  0  0  0
   58.6250   30.8490   45.9250 C   0  0  0  0  0  0  0  0  0  0  0  0
   59.8130   31.4170   46.4270 C   0  0  0  0  0  0  0  0  0  0  0  0
   60.8180   30.6030   46.9520 C   0  0  0  0  0  0  0  0  0  0  0  0
   60.6590   29.2190   46.9760 C   0  0  0  0  0  0  0  0  0  0  0  0
   59.4970   28.6360   46.4650 C   0  0  0  0  0  0  0  0  0  0  0  0
   58.4710   29.4410   45.9280 C   0  0  0  0  0  0  0  0  0  0  0  0
   56.9740   27.0137   46.3581 H   0  0  0  0  0  0  0  0  0  0  0  0
   56.0968   27.2125   44.8032 H   0  0  0  0  0  0  0  0  0  0  0  0
   57.8676   26.9109   44.8032 H   0  0  0  0  0  0  0  0  0  0  0  0
   58.6655   33.0708   43.5450 H   0  0  0  0  0  0  0  0  0  0  0  0
   57.7391   34.5628   43.8970 H   0  0  0  0  0  0  0  0  0  0  0  0
   60.3284   33.6269   45.2577 H   0  0  0  0  0  0  0  0  0  0  0  0
   60.1203   35.0452   44.1584 H   0  0  0  0  0  0  0  0  0  0  0  0
   59.4682   33.6607   47.3499 H   0  0  0  0  0  0  0  0  0  0  0  0
   58.5676   35.1074   47.9467 H   0  0  0  0  0  0  0  0  0  0  0  0
   57.0732   33.1420   47.4159 H   0  0  0  0  0  0  0  0  0  0  0  0
   56.6857   34.6118   46.4674 H   0  0  0  0  0  0  0  0  0  0  0  0
   59.9491   32.5083   46.4050 H   0  0  0  0  0  0  0  0  0  0  0  0
   61.7389   31.0558   47.3482 H   0  0  0  0  0  0  0  0  0  0  0  0
   61.4511   28.5834   47.3987 H   0  0  0  0  0  0  0  0  0  0  0  0
   59.3815   27.5422   46.4815 H   0  0  0  0  0  0  0  0  0  0  0  0
  1  2  1  0
  2  3  2  0
  3  4  1  0
  4  5  2  0
  5  6  1  0
  6  7  1  0
  7  8  1  0
  8  9  1  0
  9 10  1  0
 10 11  1  0
  5 12  1  0
 12 13  2  0
 13 14  1  0
 14 15  2  0
 15 16  1  0
 16 17  2  0
 17  2  1  0
 11  6  1  0
 17 12  1  0
  1 18  1  0
  1 19  1  0
  1 20  1  0
  7 21  1  0
  7 22  1  0
  8 23  1  0
  8 24  1  0
 10 25  1  0
 10 26  1  0
 11 27  1  0
 11 28  1  0
 13 29  1  0
 14 30  1  0
 15 31  1  0
 16 32  1  0
M  END
>  <UniqueID>  (48) 
41

>  <SMILES>  (48) 
Cc1nnc(N2CCOCC2)c2ccccc12

>  <Energy>  (48) 
46.70758820591567

>  <Genealogy>  (48) 
Cc1nnc(N2CCOCC2)c2ccccc12 (3D coordinates assigned)
Cc1nnc(N2CCOCC2)c2ccccc12 (nonaromatic ring conformer: 46.70758820591567 kcal/mol)

>  <smiles>  (48) 
Cc1nnc(N2CCOCC2)c2ccccc12

>  <score_type>  (48) 
oracle

>  <origin>  (48) 
adg

>  <m_score__min__energy>  (48) 
-6.6699999999999999

>  <m_primary>  (48) 
energy

$$$$
48:0
     RDKit          3D

 56 58  0  0  0  0  0  0  0  0999 V2000
   56.7910   23.9610   43.4240 C   0  0  0  0  0  0  0  0  0  0  0  0
   55.7620   23.3880   44.3940 C   0  0  0  0  0  0  0  0  0  0  0  0
   56.4230   22.9610   45.7100 C   0  0  0  0  0  0  0  0  0  0  0  0
   55.6380   23.4130   46.9480 C   0  0  0  0  0  0  0  0  0  0  0  0
   56.2670   24.5280   47.5840 O   0  0  0  0  0  0  0  0  0  0  0  0
   56.9300   25.5910   46.9470 C   0  0  0  0  0  0  0  0  0  0  0  0
   56.3070   26.4370   46.0070 C   0  0  0  0  0  0  0  0  0  0  0  0
   57.0280   27.4760   45.4090 C   0  0  0  0  0  0  0  0  0  0  0  0
   58.3700   27.6960   45.7510 C   0  0  0  0  0  0  0  0  0  0  0  0
   59.2560   29.0190   44.9960 S   0  0  0  0  0  0  0  0  0  0  0  0
   59.8990   29.8840   46.0460 O   0  0  0  0  0  0  0  0  0  0  0  0
   60.3340   28.4350   44.1250 O   0  0  0  0  0  0  0  0  0  0  0  0
   58.1940   29.9850   44.0210 N   0  0  0  0  0  0  0  0  0  0  0  0
   56.9930   30.5490   44.5670 C   0  0  0  0  0  0  0  0  0  0  0  0
   55.7310   30.0930   44.0810 N   0  0  0  0  0  0  0  0  0  0  0  0
   57.0200   31.4260   45.5310 N   0  0  0  0  0  0  0  0  0  0  0  0
   57.8970   32.5580   45.6440 C   0  0  0  0  0  0  0  0  0  0  0  0
   58.0700   33.4520   44.5700 C   0  0  0  0  0  0  0  0  0  0  0  0
   58.8570   34.5950   44.7240 C   0  0  0  0  0  0  0  0  0  0  0  0
   59.4430   34.8770   45.9580 C   0  0  0  0  0  0  0  0  0  0  0  0
   59.2480   34.0180   47.0410 C   0  0  0  0  0  0  0  0  0  0  0  0
   58.4870   32.8430   46.8880 C   0  0  0  0  0  0  0  0  0  0  0  0
   58.2540   31.9660   47.9590 O   0  0  0  0  0  0  0  0  0  0  0  0
   59.1970   31.1040   48.5440 C   0  0  0  0  0  0  0  0  0  0  0  0
   60.5210   31.5030   48.8040 C   0  0  0  0  0  0  0  0  0  0  0  0
   61.4310   30.6010   49.3660 C   0  0  0  0  0  0  0  0  0  0  0  0
   61.0310   29.2980   49.6670 C   0  0  0  0  0  0  0  0  0  0  0  0
   59.7230   28.8910   49.3970 C   0  0  0  0  0  0  0  0  0  0  0  0
   58.8120   29.7890   48.8310 C   0  0  0  0  0  0  0  0  0  0  0  0
   58.9900   26.8590   46.6880 C   0  0  0  0  0  0  0  0  0  0  0  0
   58.2730   25.8130   47.2760 C   0  0  0  0  0  0  0  0  0  0  0  0
   57.6143   24.4195   43.9914 H   0  0  0  0  0  0  0  0  0  0  0  0
   57.1872   23.1536   42.7906 H   0  0  0  0  0  0  0  0  0  0  0  0
   56.3133   24.7230   42.7906 H   0  0  0  0  0  0  0  0  0  0  0  0
   55.0019   24.1544   44.6057 H   0  0  0  0  0  0  0  0  0  0  0  0
   55.3001   22.5033   43.9315 H   0  0  0  0  0  0  0  0  0  0  0  0
   56.4992   21.8637   45.7243 H   0  0  0  0  0  0  0  0  0  0  0  0
   57.4117   23.4413   45.7532 H   0  0  0  0  0  0  0  0  0  0  0  0
   54.6216   23.7017   46.6420 H   0  0  0  0  0  0  0  0  0  0  0  0
   55.6070   22.5778   47.6632 H   0  0  0  0  0  0  0  0  0  0  0  0
   55.2508   26.2797   45.7430 H   0  0  0  0  0  0  0  0  0  0  0  0
   56.5395   28.1240   44.6664 H   0  0  0  0  0  0  0  0  0  0  0  0
   58.2250   29.8160   42.9900 H   0  0  0  0  0  0  0  0  0  0  0  0
   54.8410   30.4690   44.4780 H   0  0  0  0  0  0  0  0  0  0  0  0
   55.6850   29.3720   43.3270 H   0  0  0  0  0  0  0  0  0  0  0  0
   57.5828   33.2489   43.6049 H   0  0  0  0  0  0  0  0  0  0  0  0
   59.0149   35.2730   43.8723 H   0  0  0  0  0  0  0  0  0  0  0  0
   60.0608   35.7792   46.0782 H   0  0  0  0  0  0  0  0  0  0  0  0
   59.6908   34.2601   48.0184 H   0  0  0  0  0  0  0  0  0  0  0  0
   60.8417   32.5276   48.5646 H   0  0  0  0  0  0  0  0  0  0  0  0
   62.4638   30.9193   49.5711 H   0  0  0  0  0  0  0  0  0  0  0  0
   61.7455   28.5926   50.1164 H   0  0  0  0  0  0  0  0  0  0  0  0
   59.4085   27.8629   49.6297 H   0  0  0  0  0  0  0  0  0  0  0  0
   57.7860   29.4596   48.6099 H   0  0  0  0  0  0  0  0  0  0  0  0
   60.0425   27.0252   46.9613 H   0  0  0  0  0  0  0  0  0  0  0  0
   58.7695   25.1565   48.0057 H   0  0  0  0  0  0  0  0  0  0  0  0
  1  2  1  0
  2  3  1  0
  3  4  1  0
  4  5  1  0
  5  6  1  0
  6  7  2  0
  7  8  1  0
  8  9  2  0
  9 10  1  0
 10 11  2  0
 10 12  2  0
 10 13  1  0
 13 14  1  0
 14 15  1  0
 14 16  2  3
 16 17  1  0
 17 18  2  0
 18 19  1  0
 19 20  2  0
 20 21  1  0
 21 22  2  0
 22 23  1  0
 23 24  1  0
 24 25  2  0
 25 26  1  0
 26 27  2  0
 27 28  1  0
 28 29  2  0
  9 30  1  0
 30 31  2  0
 31  6  1  0
 22 17  1  0
 29 24  1  0
  1 32  1  0
  1 33  1  0
  1 34  1  0
  2 35  1  0
  2 36  1  0
  3 37  1  0
  3 38  1  0
  4 39  1  0
  4 40  1  0
  7 41  1  0
  8 42  1  0
 13 43  1  0
 15 44  1  0
 15 45  1  0
 18 46  1  0
 19 47  1  0
 20 48  1  0
 21 49  1  0
 25 50  1  0
 26 51  1  0
 27 52  1  0
 28 53  1  0
 29 54  1  0
 30 55  1  0
 31 56  1  0
M  END
>  <UniqueID>  (49) 
42

>  <SMILES>  (49) 
CCCCOc1ccc(S(=O)(=O)NC(N)=Nc2ccccc2Oc2ccccc2)cc1

>  <Energy>  (49) 
66.97449059994527

>  <Genealogy>  (49) 
CCCCOc1ccc(S(=O)(=O)NC(N)=Nc2ccccc2Oc2ccccc2)cc1 (3D coordinates assigned)
CCCCOc1ccc(S(=O)(=O)NC(N)=Nc2ccccc2Oc2ccccc2)cc1 (optimized conformer: 66.97449059994527 kcal/mol)

>  <smiles>  (49) 
CCCCOc1ccc(S(=O)(=O)NC(N)=Nc2ccccc2Oc2ccccc2)cc1

>  <score_type>  (49) 
oracle

>  <origin>  (49) 
adg

>  <m_score__min__energy>  (49) 
-8.7699999999999996

>  <m_primary>  (49) 
energy

$$$$
49:0
     RDKit          3D

 32 33  0  0  0  0  0  0  0  0999 V2000
   57.1192   33.4876   43.2265 H   0  0  0  0  0  0  0  0  0  0  0  0
   57.7780   32.7890   43.7630 C   0  0  0  0  0  0  0  0  0  0  0  0
   57.9860   31.5830   43.2270 C   0  0  0  0  0  0  0  0  0  0  0  0
   58.7404   31.4597   42.4360 H   0  0  0  0  0  0  0  0  0  0  0  0
   57.0640   30.1940   43.7760 S   0  0  0  0  0  0  0  0  0  0  0  0
   56.5670   29.4120   42.5930 O   0  0  0  0  0  0  0  0  0  0  0  0
   55.8870   30.6540   44.5910 O   0  0  0  0  0  0  0  0  0  0  0  0
   58.1020   29.1710   44.7620 C   0  0  0  0  0  0  0  0  0  0  0  0
   59.4950   29.3370   44.7270 C   0  0  0  0  0  0  0  0  0  0  0  0
   59.9404   30.1000   44.0717 H   0  0  0  0  0  0  0  0  0  0  0  0
   60.3180   28.5350   45.5230 C   0  0  0  0  0  0  0  0  0  0  0  0
   61.4098   28.6649   45.4892 H   0  0  0  0  0  0  0  0  0  0  0  0
   59.7560   27.5680   46.3620 C   0  0  0  0  0  0  0  0  0  0  0  0
   60.5560   26.7920   47.1350 F   0  0  0  0  0  0  0  0  0  0  0  0
   58.3680   27.4060   46.4080 C   0  0  0  0  0  0  0  0  0  0  0  0
   57.9256   26.6478   47.0708 H   0  0  0  0  0  0  0  0  0  0  0  0
   57.5410   28.2060   45.6130 C   0  0  0  0  0  0  0  0  0  0  0  0
   56.4492   28.0788   45.6547 H   0  0  0  0  0  0  0  0  0  0  0  0
   58.3840   33.2410   45.0400 C   0  0  0  0  0  0  0  0  0  0  0  0
   59.0290   34.4860   45.0710 C   0  0  0  0  0  0  0  0  0  0  0  0
   59.0593   35.1075   44.1639 H   0  0  0  0  0  0  0  0  0  0  0  0
   59.6330   34.9430   46.2440 C   0  0  0  0  0  0  0  0  0  0  0  0
   60.1367   35.9208   46.2559 H   0  0  0  0  0  0  0  0  0  0  0  0
   59.6000   34.1640   47.4010 C   0  0  0  0  0  0  0  0  0  0  0  0
   60.0851   34.5272   48.3190 H   0  0  0  0  0  0  0  0  0  0  0  0
   58.9510   32.9190   47.4000 C   0  0  0  0  0  0  0  0  0  0  0  0
   58.9690   32.0470   48.6300 C   0  0  0  0  0  0  0  0  0  0  0  0
   60.1540   32.2480   49.3130 F   0  0  0  0  0  0  0  0  0  0  0  0
   58.8720   30.7110   48.2820 F   0  0  0  0  0  0  0  0  0  0  0  0
   57.9100   32.3530   49.4660 F   0  0  0  0  0  0  0  0  0  0  0  0
   58.3690   32.4510   46.2070 C   0  0  0  0  0  0  0  0  0  0  0  0
   57.8972   31.4576   46.1852 H   0  0  0  0  0  0  0  0  0  0  0  0
  1  2  1  0
  2  3  2  0
  3  4  1  0
  3  5  1  0
  5  6  2  0
  5  7  2  0
  5  8  1  0
  8  9  2  0
  9 10  1  0
  9 11  1  0
 11 12  1  0
 11 13  2  0
 13 14  1  0
 13 15  1  0
 15 16  1  0
 15 17  2  0
 17 18  1  0
  2 19  1  0
 19 20  2  0
 20 21  1  0
 20 22  1  0
 22 23  1  0
 22 24  2  0
 24 25  1  0
 24 26  1  0
 26 27  1  0
 27 28  1  0
 27 29  1  0
 27 30  1  0
 26 31  2  0
 31 32  1  0
 17  8  1  0
 31 19  1  0
M  END
>  <UniqueID>  (50) 
43

>  <SMILES>  (50) 
O=S(=O)(/C=C/c1cccc(C(F)(F)F)c1)c1ccc(F)cc1

>  <Energy>  (50) 
36.94446190924151

>  <Genealogy>  (50) 
O=S(=O)(/C=C/c1cccc(C(F)(F)F)c1)c1ccc(F)cc1 (cis-trans isomerization)
O=S(=O)(/C=C/c1cccc(C(F)(F)F)c1)c1ccc(F)cc1 (3D coordinates assigned)
O=S(=O)(/C=C/c1cccc(C(F)(F)F)c1)c1ccc(F)cc1 (optimized conformer: 36.94446190924151 kcal/mol)

>  <smiles>  (50) 
O=S(=O)(C=Cc1cccc(C(F)(F)F)c1)c1ccc(F)cc1

>  <score_type>  (50) 
oracle

>  <origin>  (50) 
adg

>  <m_score__min__energy>  (50) 
-7.3300000000000001

>  <m_primary>  (50) 
energy

$$$$
50:0
     RDKit          3D

 39 41  0  0  1  0  0  0  0  0999 V2000
   56.3880   24.5220   47.3680 C   0  0  0  0  0  0  0  0  0  0  0  0
   55.8990   25.4440   46.3710 N   0  0  0  0  0  0  0  0  0  0  0  0
   56.0820   24.8160   45.0650 C   0  0  0  0  0  0  0  0  0  0  0  0
   56.6580   26.6690   46.3280 C   0  0  0  0  0  0  0  0  0  0  0  0
   58.0500   26.4620   45.7030 C   0  0  0  0  0  0  0  0  0  0  0  0
   58.2390   27.4790   44.6900 N   0  0  0  0  0  0  0  0  0  0  0  0
   57.7690   28.6570   44.7220 C   0  0  0  0  0  0  0  0  0  0  0  0
   56.5680   28.9720   44.2060 N   0  0  0  0  0  0  0  0  0  0  0  0
   56.1970   30.2640   44.3100 C   0  0  0  0  0  0  0  0  0  0  0  0
   56.9170   31.2210   44.8710 N   0  0  0  0  0  0  0  0  0  0  0  0
   58.1560   30.9690   45.4210 C   0  0  0  0  0  0  0  0  0  0  0  0
   58.9910   31.8280   46.0190 C   0  0  0  0  0  0  0  0  0  0  0  0
   60.1720   31.3990   46.5010 C   0  0  0  0  0  0  0  0  0  0  0  0
   61.2860   31.9480   47.1690 C   0  0  0  0  0  0  0  0  0  0  0  0
   61.9330   31.2920   48.1980 C   0  0  0  0  0  0  0  0  0  0  0  0
   63.0230   31.8140   48.8620 C   0  0  0  0  0  0  0  0  0  0  0  0
   63.5000   33.0550   48.4880 C   0  0  0  0  0  0  0  0  0  0  0  0
   64.5670   33.6490   49.0850 F   0  0  0  0  0  0  0  0  0  0  0  0
   62.8580   33.7130   47.4620 C   0  0  0  0  0  0  0  0  0  0  0  0
   61.7740   33.1800   46.8090 C   0  0  0  0  0  0  0  0  0  0  0  0
   60.1490   29.6050   46.0940 S   0  0  0  0  0  0  0  0  0  0  0  0
   58.5490   29.6530   45.3220 C   0  0  0  0  0  0  0  0  0  0  0  0
   56.1766   24.9207   48.3712 H   0  0  0  0  0  0  0  0  0  0  0  0
   55.8866   23.5505   47.2463 H   0  0  0  0  0  0  0  0  0  0  0  0
   57.4735   24.3922   47.2463 H   0  0  0  0  0  0  0  0  0  0  0  0
   56.3874   23.7681   45.2016 H   0  0  0  0  0  0  0  0  0  0  0  0
   55.1359   24.8522   44.5049 H   0  0  0  0  0  0  0  0  0  0  0  0
   56.8605   25.3548   44.5049 H   0  0  0  0  0  0  0  0  0  0  0  0
   56.1059   27.4083   45.7291 H   0  0  0  0  0  0  0  0  0  0  0  0
   56.7976   27.0193   47.3613 H   0  0  0  0  0  0  0  0  0  0  0  0
   58.8253   26.5574   46.4775 H   0  0  0  0  0  0  0  0  0  0  0  0
   58.1245   25.4590   45.2574 H   0  0  0  0  0  0  0  0  0  0  0  0
   55.9840   28.2350   43.7580 H   0  0  0  0  0  0  0  0  0  0  0  0
   55.2175   30.5444   43.8953 H   0  0  0  0  0  0  0  0  0  0  0  0
   58.7109   32.8873   46.1166 H   0  0  0  0  0  0  0  0  0  0  0  0
   61.5599   30.3032   48.5032 H   0  0  0  0  0  0  0  0  0  0  0  0
   63.5044   31.2516   49.6756 H   0  0  0  0  0  0  0  0  0  0  0  0
   63.2275   34.7023   47.1544 H   0  0  0  0  0  0  0  0  0  0  0  0
   61.2946   33.7423   45.9941 H   0  0  0  0  0  0  0  0  0  0  0  0
  1  2  1  0
  2  3  1  0
  2  4  1  0
  4  5  1  0
  5  6  1  0
  6  7  2  0
  7  8  1  0
  8  9  1  0
  9 10  2  0
 10 11  1  0
 11 12  1  0
 12 13  2  0
 13 14  1  0
 14 15  2  0
 15 16  1  0
 16 17  2  0
 17 18  1  0
 17 19  1  0
 19 20  2  0
 13 21  1  0
 21 22  1  0
 22  7  1  0
 22 11  2  0
 20 14  1  0
  1 23  1  0
  1 24  1  0
  1 25  1  0
  3 26  1  0
  3 27  1  0
  3 28  1  0
  4 29  1  0
  4 30  1  0
  5 31  1  0
  5 32  1  0
  8 33  1  0
  9 34  1  0
 12 35  1  0
 15 36  1  0
 16 37  1  0
 19 38  1  0
 20 39  1  0
M  END
>  <smiles>  (51) 
CN(C)CCN=c1[nH]cnc2cc(-c3ccc(F)cc3)sc12

>  <score_type>  (51) 
oracle

>  <origin>  (51) 
adg

>  <m_score__min__energy>  (51) 
-7.21

>  <m_primary>  (51) 
energy

$$$$
51:0
     RDKit          3D

 45 48  0  0  0  0  0  0  0  0999 V2000
   64.6708   33.9561   48.0355 H   0  0  0  0  0  0  0  0  0  0  0  0
   63.9010   33.1820   48.1700 C   0  0  0  0  0  0  0  0  0  0  0  0
   63.3880   32.9180   49.4510 C   0  0  0  0  0  0  0  0  0  0  0  0
   63.7795   33.4562   50.3268 H   0  0  0  0  0  0  0  0  0  0  0  0
   62.3730   31.9630   49.6040 C   0  0  0  0  0  0  0  0  0  0  0  0
   61.9224   31.7964   50.5936 H   0  0  0  0  0  0  0  0  0  0  0  0
   61.9230   31.2080   48.4840 C   0  0  0  0  0  0  0  0  0  0  0  0
   60.8750   30.1540   48.6780 C   0  0  0  0  0  0  0  0  0  0  0  0
   61.2160   28.9960   49.1010 O   0  0  0  0  0  0  0  0  0  0  0  0
   59.4960   30.4740   48.5710 N   0  0  0  0  0  0  0  0  0  0  0  0
   58.7700   31.1290   47.6900 C   0  0  0  0  0  0  0  0  0  0  0  0
   58.1170   32.6540   48.3270 S   0  0  0  0  0  0  0  0  0  0  0  0
   58.7720   33.5480   46.9470 C   0  0  0  0  0  0  0  0  0  0  0  0
   58.2200   33.2500   45.7000 C   0  0  0  0  0  0  0  0  0  0  0  0
   58.3140   34.2370   44.6780 C   0  0  0  0  0  0  0  0  0  0  0  0
   57.6828   34.1649   43.7800 H   0  0  0  0  0  0  0  0  0  0  0  0
   59.2260   35.3140   44.8240 C   0  0  0  0  0  0  0  0  0  0  0  0
   59.3536   36.0490   44.0156 H   0  0  0  0  0  0  0  0  0  0  0  0
   59.9500   35.4280   45.9910 C   0  0  0  0  0  0  0  0  0  0  0  0
   60.6724   36.2502   46.1011 H   0  0  0  0  0  0  0  0  0  0  0  0
   59.7800   34.5070   47.0480 C   0  0  0  0  0  0  0  0  0  0  0  0
   60.6770   34.5860   48.2650 C   0  0  0  0  0  0  0  0  0  0  0  0
   60.0638   34.5320   49.1766 H   0  0  0  0  0  0  0  0  0  0  0  0
   61.3883   33.7470   48.2513 H   0  0  0  0  0  0  0  0  0  0  0  0
   61.2307   35.5364   48.2513 H   0  0  0  0  0  0  0  0  0  0  0  0
   57.8450   31.8100   45.4620 C   0  0  0  0  0  0  0  0  0  0  0  0
   57.0220   31.5170   44.4800 N   0  0  0  0  0  0  0  0  0  0  0  0
   56.9660   32.1140   43.6110 H   0  0  0  0  0  0  0  0  0  0  0  0
   56.2990   30.2810   44.3210 C   0  0  0  0  0  0  0  0  0  0  0  0
   55.4306   30.4408   43.6650 H   0  0  0  0  0  0  0  0  0  0  0  0
   55.9441   29.9233   45.2988 H   0  0  0  0  0  0  0  0  0  0  0  0
   57.2420   29.2420   43.6900 C   0  0  0  0  0  0  0  0  0  0  0  0
   57.3149   29.4497   42.6122 H   0  0  0  0  0  0  0  0  0  0  0  0
   56.8129   28.2514   43.9009 H   0  0  0  0  0  0  0  0  0  0  0  0
   58.6600   29.2490   44.2810 C   0  0  0  0  0  0  0  0  0  0  0  0
   59.2115   30.0886   43.8328 H   0  0  0  0  0  0  0  0  0  0  0  0
   59.0931   28.2651   44.0480 H   0  0  0  0  0  0  0  0  0  0  0  0
   58.7300   29.3950   45.8040 C   0  0  0  0  0  0  0  0  0  0  0  0
   59.7303   29.0797   46.1356 H   0  0  0  0  0  0  0  0  0  0  0  0
   57.9274   28.7683   46.2199 H   0  0  0  0  0  0  0  0  0  0  0  0
   58.4910   30.7760   46.2920 N   0  0  0  0  0  0  0  0  0  0  0  0
   62.4730   31.4530   47.2250 C   0  0  0  0  0  0  0  0  0  0  0  0
   62.1533   30.8559   46.3582 H   0  0  0  0  0  0  0  0  0  0  0  0
   63.4350   32.4630   47.0670 C   0  0  0  0  0  0  0  0  0  0  0  0
   63.8258   32.6905   46.0643 H   0  0  0  0  0  0  0  0  0  0  0  0
  1  2  1  0
  2  3  2  0
  3  4  1  0
  3  5  1  0
  5  6  1  0
  5  7  2  0
  7  8  1  0
  8  9  2  0
  8 10  1  0
 10 11  2  0
 11 12  1  0
 12 13  1  0
 13 14  2  0
 14 15  1  0
 15 16  1  0
 15 17  2  0
 17 18  1  0
 17 19  1  0
 19 20  1  0
 19 21  2  0
 21 22  1  0
 22 23  1  0
 22 24  1  0
 22 25  1  0
 14 26  1  0
 26 27  2  0
 27 28  1  0
 27 29  1  0
 29 30  1  0
 29 31  1  0
 29 32  1  0
 32 33  1  0
 32 34  1  0
 32 35  1  0
 35 36  1  0
 35 37  1  0
 35 38  1  0
 38 39  1  0
 38 40  1  0
 38 41  1  0
  7 42  1  0
 42 43  1  0
 42 44  2  0
 44 45  1  0
 44  2  1  0
 41 11  1  0
 21 13  1  0
 41 26  1  0
M  CHG  1  27   1
M  END
>  <UniqueID>  (52) 
44

>  <SMILES>  (52) 
Cc1cccc2c1S/C(=N/C(=O)c1ccccc1)N1CCCC[NH+]=C21

>  <Energy>  (52) 
113.15710567951946

>  <Genealogy>  (52) 
Cc1cccc2c1SC(=NC(=O)c1ccccc1)N1CCCC[NH+]=C21 (protonated)
Cc1cccc2c1S/C(=N/C(=O)c1ccccc1)N1CCCC[NH+]=C21 (cis-trans isomerization)
Cc1cccc2c1S/C(=N/C(=O)c1ccccc1)N1CCCC[NH+]=C21 (3D coordinates assigned)
Cc1cccc2c1S/C(=N/C(=O)c1ccccc1)N1CCCC[NH+]=C21 (nonaromatic ring conformer: 113.15710567951946 kcal/mol)

>  <smiles>  (52) 
Cc1cccc2c1SC(=NC(=O)c1ccccc1)N1CCCCN=C21

>  <score_type>  (52) 
oracle

>  <origin>  (52) 
adg

>  <m_score__min__energy>  (52) 
-5.3700000000000001

>  <m_primary>  (52) 
energy

$$$$
52:0
     RDKit          3D

 32 34  0  0  0  0  0  0  0  0999 V2000
   55.7890   28.9650   45.2290 N   0  0  0  0  0  0  0  0  0  0  0  0
   57.2090   28.7580   45.2230 C   0  0  0  0  0  0  0  0  0  0  0  0
   57.7070   27.4900   45.5630 C   0  0  0  0  0  0  0  0  0  0  0  0
   59.0810   27.2450   45.5750 C   0  0  0  0  0  0  0  0  0  0  0  0
   59.9730   28.2640   45.2480 C   0  0  0  0  0  0  0  0  0  0  0  0
   59.4960   29.5300   44.9040 C   0  0  0  0  0  0  0  0  0  0  0  0
   58.1160   29.7940   44.8840 C   0  0  0  0  0  0  0  0  0  0  0  0
   57.5580   31.4120   44.4370 S   0  0  0  0  0  0  0  0  0  0  0  0
   57.6660   31.5970   42.9500 O   0  0  0  0  0  0  0  0  0  0  0  0
   56.1230   31.5830   44.8540 O   0  0  0  0  0  0  0  0  0  0  0  0
   58.5110   32.6280   45.2160 N   0  0  0  0  0  0  0  0  0  0  0  0
   58.2740   33.9280   45.1140 N   0  0  0  0  0  0  0  0  0  0  0  0
   59.2040   34.5430   45.8730 C   0  0  0  0  0  0  0  0  0  0  0  0
   59.9970   33.5580   46.4310 C   0  0  0  0  0  0  0  0  0  0  0  0
   61.1100   33.7440   47.3210 N   0  0  0  0  0  0  0  0  0  0  0  0
   62.4100   33.5380   47.0300 C   0  0  0  0  0  0  0  0  0  0  0  0
   63.1870   33.8220   48.1330 C   0  0  0  0  0  0  0  0  0  0  0  0
   62.3210   34.2150   49.1360 C   0  0  0  0  0  0  0  0  0  0  0  0
   61.0490   34.1570   48.6030 C   0  0  0  0  0  0  0  0  0  0  0  0
   59.5410   32.3690   46.0040 N   0  0  0  0  0  0  0  0  0  0  0  0
   55.3510   29.8480   45.5680 H   0  0  0  0  0  0  0  0  0  0  0  0
   55.1450   28.2120   44.8970 H   0  0  0  0  0  0  0  0  0  0  0  0
   57.0074   26.6818   45.8225 H   0  0  0  0  0  0  0  0  0  0  0  0
   59.4596   26.2475   45.8426 H   0  0  0  0  0  0  0  0  0  0  0  0
   61.0558   28.0705   45.2609 H   0  0  0  0  0  0  0  0  0  0  0  0
   60.2072   30.3286   44.6461 H   0  0  0  0  0  0  0  0  0  0  0  0
   59.3115   35.6277   46.0206 H   0  0  0  0  0  0  0  0  0  0  0  0
   62.7936   33.1947   46.0579 H   0  0  0  0  0  0  0  0  0  0  0  0
   64.2825   33.7499   48.2014 H   0  0  0  0  0  0  0  0  0  0  0  0
   62.5923   34.5152   50.1589 H   0  0  0  0  0  0  0  0  0  0  0  0
   60.1246   34.4097   49.1430 H   0  0  0  0  0  0  0  0  0  0  0  0
   59.9000   31.4170   46.2380 H   0  0  0  0  0  0  0  0  0  0  0  0
  1  2  1  0
  2  3  2  0
  3  4  1  0
  4  5  2  0
  5  6  1  0
  6  7  2  0
  7  8  1  0
  8  9  2  0
  8 10  2  0
  8 11  1  0
 11 12  1  0
 12 13  2  0
 13 14  1  0
 14 15  1  0
 15 16  1  0
 16 17  2  0
 17 18  1  0
 18 19  2  0
 14 20  2  0
  7  2  1  0
 20 11  1  0
 19 15  1  0
  1 21  1  0
  1 22  1  0
  3 23  1  0
  4 24  1  0
  5 25  1  0
  6 26  1  0
 13 27  1  0
 16 28  1  0
 17 29  1  0
 18 30  1  0
 19 31  1  0
 20 32  1  0
M  CHG  1  20   1
M  END
>  <UniqueID>  (53) 
45

>  <SMILES>  (53) 
Nc1ccccc1S(=O)(=O)n1ncc(-n2cccc2)[nH+]1

>  <Energy>  (53) 
99.58551801696703

>  <Genealogy>  (53) 
Nc1ccccc1S(=O)(=O)n1ncc(-n2cccc2)[nH+]1 (protonated)
Nc1ccccc1S(=O)(=O)n1ncc(-n2cccc2)[nH+]1 (3D coordinates assigned)
Nc1ccccc1S(=O)(=O)n1ncc(-n2cccc2)[nH+]1 (optimized conformer: 99.58551801696703 kcal/mol)

>  <smiles>  (53) 
Nc1ccccc1S(=O)(=O)n1ncc(-n2cccc2)n1

>  <score_type>  (53) 
oracle

>  <origin>  (53) 
adg

>  <m_score__min__energy>  (53) 
-7.0700000000000003

>  <m_primary>  (53) 
energy

$$$$
53:0
     RDKit          3D

 33 35  0  0  0  0  0  0  0  0999 V2000
   65.2870   33.0730   49.7360 C   0  0  0  0  0  0  0  0  0  0  0  0
   64.0510   32.7400   48.9520 C   0  0  0  0  0  0  0  0  0  0  0  0
   63.1750   31.7440   49.4050 C   0  0  0  0  0  0  0  0  0  0  0  0
   62.0050   31.4580   48.6940 C   0  0  0  0  0  0  0  0  0  0  0  0
   61.6860   32.1720   47.5270 C   0  0  0  0  0  0  0  0  0  0  0  0
   60.4440   31.8610   46.7820 C   0  0  0  0  0  0  0  0  0  0  0  0
   59.8520   30.6460   46.7920 N   0  0  0  0  0  0  0  0  0  0  0  0
   58.7230   30.6020   46.0290 C   0  0  0  0  0  0  0  0  0  0  0  0
   57.9090   29.3640   45.9310 C   0  0  0  0  0  0  0  0  0  0  0  0
   58.4160   28.1670   46.4620 C   0  0  0  0  0  0  0  0  0  0  0  0
   57.6720   26.9890   46.3910 C   0  0  0  0  0  0  0  0  0  0  0  0
   56.4140   27.0080   45.7820 C   0  0  0  0  0  0  0  0  0  0  0  0
   55.6030   25.7560   45.6790 C   0  0  0  0  0  0  0  0  0  0  0  0
   55.9450   28.1660   45.2450 N   0  0  0  0  0  0  0  0  0  0  0  0
   56.6480   29.3290   45.2970 C   0  0  0  0  0  0  0  0  0  0  0  0
   56.1650   30.3570   44.7520 O   0  0  0  0  0  0  0  0  0  0  0  0
   58.3950   31.8090   45.4100 C   0  0  0  0  0  0  0  0  0  0  0  0
   59.5680   32.9380   45.8270 S   0  0  0  0  0  0  0  0  0  0  0  0
   62.5600   33.1830   47.0870 C   0  0  0  0  0  0  0  0  0  0  0  0
   63.7290   33.4670   47.7980 C   0  0  0  0  0  0  0  0  0  0  0  0
   65.0659   33.0134   50.8119 H   0  0  0  0  0  0  0  0  0  0  0  0
   66.0841   32.3576   49.4853 H   0  0  0  0  0  0  0  0  0  0  0  0
   65.6168   34.0920   49.4853 H   0  0  0  0  0  0  0  0  0  0  0  0
   63.4086   31.1851   50.3232 H   0  0  0  0  0  0  0  0  0  0  0  0
   61.3290   30.6674   49.0516 H   0  0  0  0  0  0  0  0  0  0  0  0
   59.4078   28.1581   46.9378 H   0  0  0  0  0  0  0  0  0  0  0  0
   58.0717   26.0539   46.8104 H   0  0  0  0  0  0  0  0  0  0  0  0
   55.3653   25.3890   46.6884 H   0  0  0  0  0  0  0  0  0  0  0  0
   54.6697   25.9673   45.1364 H   0  0  0  0  0  0  0  0  0  0  0  0
   56.1774   24.9907   45.1364 H   0  0  0  0  0  0  0  0  0  0  0  0
   57.5233   31.9894   44.7638 H   0  0  0  0  0  0  0  0  0  0  0  0
   62.3215   33.7536   46.1773 H   0  0  0  0  0  0  0  0  0  0  0  0
   64.4003   34.2658   47.4499 H   0  0  0  0  0  0  0  0  0  0  0  0
  1  2  1  0
  2  3  2  0
  3  4  1  0
  4  5  2  0
  5  6  1  0
  6  7  2  0
  7  8  1  0
  8  9  1  0
  9 10  2  0
 10 11  1  0
 11 12  2  0
 12 13  1  0
 12 14  1  0
 14 15  1  0
 15 16  2  0
  8 17  2  0
 17 18  1  0
  5 19  1  0
 19 20  2  0
 20  2  1  0
 18  6  1  0
 15  9  1  0
  1 21  1  0
  1 22  1  0
  1 23  1  0
  3 24  1  0
  4 25  1  0
 10 26  1  0
 11 27  1  0
 13 28  1  0
 13 29  1  0
 13 30  1  0
 17 31  1  0
 19 32  1  0
 20 33  1  0
M  CHG  1  14  -1
M  END
>  <UniqueID>  (54) 
46

>  <SMILES>  (54) 
Cc1ccc(-c2nc(-c3ccc(C)[n-]c3=O)cs2)cc1

>  <Energy>  (54) 
69.5687107097646

>  <Genealogy>  (54) 
Cc1ccc(-c2nc(-c3ccc(C)[n-]c3=O)cs2)cc1 (protonated)
Cc1ccc(-c2nc(-c3ccc(C)[n-]c3=O)cs2)cc1 (3D coordinates assigned)
Cc1ccc(-c2nc(-c3ccc(C)[n-]c3=O)cs2)cc1 (optimized conformer: 69.5687107097646 kcal/mol)

>  <smiles>  (54) 
Cc1ccc(-c2nc(-c3ccc(C)[nH]c3=O)cs2)cc1

>  <score_type>  (54) 
oracle

>  <origin>  (54) 
adg

>  <m_score__min__energy>  (54) 
-9.2200000000000006

>  <m_primary>  (54) 
energy

$$$$
54:0
     RDKit          3D

 37 39  0  0  0  0  0  0  0  0999 V2000
   62.4720   33.9150   49.8020 C   0  0  0  0  0  0  0  0  0  0  0  0
   61.0490   33.8660   49.8230 O   0  0  0  0  0  0  0  0  0  0  0  0
   60.2420   33.7900   48.6790 C   0  0  0  0  0  0  0  0  0  0  0  0
   60.4530   34.6060   47.5500 C   0  0  0  0  0  0  0  0  0  0  0  0
   59.6210   34.4910   46.4330 C   0  0  0  0  0  0  0  0  0  0  0  0
   58.5670   33.5690   46.4290 C   0  0  0  0  0  0  0  0  0  0  0  0
   57.5400   33.4180   45.0040 S   0  0  0  0  0  0  0  0  0  0  0  0
   56.2800   32.6740   45.3490 O   0  0  0  0  0  0  0  0  0  0  0  0
   57.1660   34.7910   44.5230 O   0  0  0  0  0  0  0  0  0  0  0  0
   58.3870   32.5820   43.7410 N   0  0  0  0  0  0  0  0  0  0  0  0
   57.4560   31.7510   42.9850 C   0  0  0  0  0  0  0  0  0  0  0  0
   57.1150   30.5390   43.7910 C   0  0  0  0  0  0  0  0  0  0  0  0
   55.8870   29.8850   43.8330 C   0  0  0  0  0  0  0  0  0  0  0  0
   55.9250   28.8690   44.7250 N   0  0  0  0  0  0  0  0  0  0  0  0
   57.1610   28.8840   45.2540 C   0  0  0  0  0  0  0  0  0  0  0  0
   57.6700   28.0350   46.2360 C   0  0  0  0  0  0  0  0  0  0  0  0
   58.9950   28.2430   46.6630 C   0  0  0  0  0  0  0  0  0  0  0  0
   59.7700   29.2870   46.1070 C   0  0  0  0  0  0  0  0  0  0  0  0
   59.2290   30.1290   45.1200 C   0  0  0  0  0  0  0  0  0  0  0  0
   57.9150   29.8940   44.7140 C   0  0  0  0  0  0  0  0  0  0  0  0
   58.3580   32.7540   47.5480 C   0  0  0  0  0  0  0  0  0  0  0  0
   59.1900   32.8670   48.6660 C   0  0  0  0  0  0  0  0  0  0  0  0
   62.8537   33.9281   50.8336 H   0  0  0  0  0  0  0  0  0  0  0  0
   62.8617   33.0297   49.2781 H   0  0  0  0  0  0  0  0  0  0  0  0
   62.7999   34.8250   49.2781 H   0  0  0  0  0  0  0  0  0  0  0  0
   61.2756   35.3363   47.5477 H   0  0  0  0  0  0  0  0  0  0  0  0
   59.7949   35.1276   45.5530 H   0  0  0  0  0  0  0  0  0  0  0  0
   56.5401   32.3226   42.7741 H   0  0  0  0  0  0  0  0  0  0  0  0
   57.9197   31.4456   42.0354 H   0  0  0  0  0  0  0  0  0  0  0  0
   55.0101   30.1560   43.2268 H   0  0  0  0  0  0  0  0  0  0  0  0
   55.1450   28.2160   44.9620 H   0  0  0  0  0  0  0  0  0  0  0  0
   57.0558   27.2286   46.6633 H   0  0  0  0  0  0  0  0  0  0  0  0
   59.4301   27.5897   47.4336 H   0  0  0  0  0  0  0  0  0  0  0  0
   60.8039   29.4413   46.4494 H   0  0  0  0  0  0  0  0  0  0  0  0
   59.8217   30.9458   44.6824 H   0  0  0  0  0  0  0  0  0  0  0  0
   57.5366   32.0224   47.5476 H   0  0  0  0  0  0  0  0  0  0  0  0
   59.0163   32.2253   49.5424 H   0  0  0  0  0  0  0  0  0  0  0  0
  1  2  1  0
  2  3  1  0
  3  4  2  0
  4  5  1  0
  5  6  2  0
  6  7  1  0
  7  8  2  0
  7  9  2  0
  7 10  1  0
 10 11  1  0
 11 12  1  0
 12 13  2  0
 13 14  1  0
 14 15  1  0
 15 16  2  0
 16 17  1  0
 17 18  2  0
 18 19  1  0
 19 20  2  0
  6 21  1  0
 21 22  2  0
 22  3  1  0
 20 12  1  0
 20 15  1  0
  1 23  1  0
  1 24  1  0
  1 25  1  0
  4 26  1  0
  5 27  1  0
 11 28  1  0
 11 29  1  0
 13 30  1  0
 14 31  1  0
 16 32  1  0
 17 33  1  0
 18 34  1  0
 19 35  1  0
 21 36  1  0
 22 37  1  0
M  CHG  1  10  -1
M  END
>  <UniqueID>  (55) 
47

>  <SMILES>  (55) 
COc1ccc(S(=O)(=O)[N-]Cc2c[nH]c3ccccc23)cc1

>  <Energy>  (55) 
68.83383492126053

>  <Genealogy>  (55) 
COc1ccc(S(=O)(=O)[N-]Cc2c[nH]c3ccccc23)cc1 (protonated)
COc1ccc(S(=O)(=O)[N-]Cc2c[nH]c3ccccc23)cc1 (3D coordinates assigned)
COc1ccc(S(=O)(=O)[N-]Cc2c[nH]c3ccccc23)cc1 (optimized conformer: 68.83383492126053 kcal/mol)

>  <smiles>  (55) 
COc1ccc(S(=O)(=O)NCc2c[nH]c3ccccc23)cc1

>  <score_type>  (55) 
oracle

>  <origin>  (55) 
adg

>  <m_score__min__energy>  (55) 
-8.9700000000000006

>  <m_primary>  (55) 
energy

$$$$
55:0
     RDKit          3D

 47 49  0  0  0  0  0  0  0  0999 V2000
   60.5610   29.1100   45.0720 C   0  0  0  0  0  0  0  0  0  0  0  0
   59.9040   28.4030   46.1690 N   0  0  0  0  0  0  0  0  0  0  0  0
   60.3950   28.5770   47.5400 C   0  0  0  0  0  0  0  0  0  0  0  0
   60.4720   30.0370   47.8970 C   0  0  0  0  0  0  0  0  0  0  0  0
   59.4660   30.6300   48.6790 C   0  0  0  0  0  0  0  0  0  0  0  0
   59.5540   31.9780   49.0360 C   0  0  0  0  0  0  0  0  0  0  0  0
   60.6490   32.7430   48.6210 C   0  0  0  0  0  0  0  0  0  0  0  0
   60.7340   34.0510   48.9700 F   0  0  0  0  0  0  0  0  0  0  0  0
   61.6590   32.1580   47.8520 C   0  0  0  0  0  0  0  0  0  0  0  0
   61.5740   30.8100   47.4920 C   0  0  0  0  0  0  0  0  0  0  0  0
   59.1070   27.2540   45.8570 C   0  0  0  0  0  0  0  0  0  0  0  0
   59.6530   26.0130   45.9890 N   0  0  0  0  0  0  0  0  0  0  0  0
   58.9500   24.8830   45.7170 C   0  0  0  0  0  0  0  0  0  0  0  0
   57.6300   24.9720   45.2780 C   0  0  0  0  0  0  0  0  0  0  0  0
   57.0470   26.2290   45.1190 C   0  0  0  0  0  0  0  0  0  0  0  0
   57.7770   27.3890   45.4110 C   0  0  0  0  0  0  0  0  0  0  0  0
   57.0160   28.9780   45.2370 S   0  0  0  0  0  0  0  0  0  0  0  0
   57.3670   29.8600   46.4020 O   0  0  0  0  0  0  0  0  0  0  0  0
   55.5240   28.8070   45.2020 O   0  0  0  0  0  0  0  0  0  0  0  0
   57.5380   29.7380   43.7690 N   0  0  0  0  0  0  0  0  0  0  0  0
   57.6490   31.1550   43.6210 C   0  0  0  0  0  0  0  0  0  0  0  0
   58.1670   31.6250   42.5740 O   0  0  0  0  0  0  0  0  0  0  0  0
   57.1630   32.0370   44.6390 N   0  0  0  0  0  0  0  0  0  0  0  0
   57.9180   33.1360   45.1820 C   0  0  0  0  0  0  0  0  0  0  0  0
   58.8590   33.8470   44.4090 C   0  0  0  0  0  0  0  0  0  0  0  0
   59.6140   34.8730   44.9840 C   0  0  0  0  0  0  0  0  0  0  0  0
   59.4440   35.1990   46.3320 C   0  0  0  0  0  0  0  0  0  0  0  0
   58.5200   34.4970   47.1080 C   0  0  0  0  0  0  0  0  0  0  0  0
   57.7640   33.4680   46.5380 C   0  0  0  0  0  0  0  0  0  0  0  0
   61.2559   29.8578   45.4818 H   0  0  0  0  0  0  0  0  0  0  0  0
   61.1188   28.3908   44.4542 H   0  0  0  0  0  0  0  0  0  0  0  0
   59.8029   29.6136   44.4542 H   0  0  0  0  0  0  0  0  0  0  0  0
   59.7096   28.0709   48.2358 H   0  0  0  0  0  0  0  0  0  0  0  0
   61.4027   28.1420   47.6123 H   0  0  0  0  0  0  0  0  0  0  0  0
   58.6058   30.0304   49.0114 H   0  0  0  0  0  0  0  0  0  0  0  0
   58.7612   32.4381   49.6441 H   0  0  0  0  0  0  0  0  0  0  0  0
   62.5219   32.7592   47.5297 H   0  0  0  0  0  0  0  0  0  0  0  0
   62.3725   30.3524   46.8895 H   0  0  0  0  0  0  0  0  0  0  0  0
   59.4224   23.8976   45.8432 H   0  0  0  0  0  0  0  0  0  0  0  0
   57.0543   24.0606   45.0593 H   0  0  0  0  0  0  0  0  0  0  0  0
   56.0095   26.3102   44.7628 H   0  0  0  0  0  0  0  0  0  0  0  0
   56.2340   31.8150   45.0620 H   0  0  0  0  0  0  0  0  0  0  0  0
   58.9995   33.5928   43.3480 H   0  0  0  0  0  0  0  0  0  0  0  0
   60.3439   35.4252   44.3738 H   0  0  0  0  0  0  0  0  0  0  0  0
   60.0380   36.0084   46.7815 H   0  0  0  0  0  0  0  0  0  0  0  0
   58.3864   34.7537   48.1693 H   0  0  0  0  0  0  0  0  0  0  0  0
   57.0427   32.9140   47.1567 H   0  0  0  0  0  0  0  0  0  0  0  0
  1  2  1  0
  2  3  1  0
  3  4  1  0
  4  5  2  0
  5  6  1  0
  6  7  2  0
  7  8  1  0
  7  9  1  0
  9 10  2  0
  2 11  1  0
 11 12  2  0
 12 13  1  0
 13 14  2  0
 14 15  1  0
 15 16  2  0
 16 17  1  0
 17 18  2  0
 17 19  2  0
 17 20  1  0
 20 21  1  0
 21 22  2  0
 21 23  1  0
 23 24  1  0
 24 25  2  0
 25 26  1  0
 26 27  2  0
 27 28  1  0
 28 29  2  0
 10  4  1  0
 16 11  1  0
 29 24  1  0
  1 30  1  0
  1 31  1  0
  1 32  1  0
  3 33  1  0
  3 34  1  0
  5 35  1  0
  6 36  1  0
  9 37  1  0
 10 38  1  0
 13 39  1  0
 14 40  1  0
 15 41  1  0
 23 42  1  0
 25 43  1  0
 26 44  1  0
 27 45  1  0
 28 46  1  0
 29 47  1  0
M  CHG  1  20  -1
M  END
>  <UniqueID>  (56) 
48

>  <SMILES>  (56) 
CN(Cc1ccc(F)cc1)c1ncccc1S(=O)(=O)[N-]C(=O)Nc1ccccc1

>  <Energy>  (56) 
56.60517180154278

>  <Genealogy>  (56) 
CN(Cc1ccc(F)cc1)c1ncccc1S(=O)(=O)[N-]C(=O)Nc1ccccc1 (protonated)
CN(Cc1ccc(F)cc1)c1ncccc1S(=O)(=O)[N-]C(=O)Nc1ccccc1 (3D coordinates assigned)
CN(Cc1ccc(F)cc1)c1ncccc1S(=O)(=O)[N-]C(=O)Nc1ccccc1 (optimized conformer: 56.60517180154278 kcal/mol)

>  <smiles>  (56) 
CN(Cc1ccc(F)cc1)c1ncccc1S(=O)(=O)NC(=O)Nc1ccccc1

>  <score_type>  (56) 
oracle

>  <origin>  (56) 
adg

>  <m_score__min__energy>  (56) 
-10.18

>  <m_primary>  (56) 
energy

$$$$
56:0
     RDKit          3D

 36 36  0  0  0  0  0  0  0  0999 V2000
   56.6220   29.6770   43.7720 C   0  0  0  0  0  0  0  0  0  0  0  0
   56.2810   29.1890   45.1780 C   0  0  0  0  0  0  0  0  0  0  0  0
   57.1370   28.0030   45.5840 C   0  0  0  0  0  0  0  0  0  0  0  0
   58.5600   28.0680   45.5870 C   0  0  0  0  0  0  0  0  0  0  0  0
   59.3030   29.1860   45.1660 O   0  0  0  0  0  0  0  0  0  0  0  0
   59.9350   30.1570   46.0070 C   0  0  0  0  0  0  0  0  0  0  0  0
   58.9630   30.7940   47.0110 C   0  0  0  0  0  0  0  0  0  0  0  0
   59.0620   32.3250   47.0080 C   0  0  0  0  0  0  0  0  0  0  0  0
   58.1550   32.9310   45.9390 C   0  0  0  0  0  0  0  0  0  0  0  0
   58.9360   34.5650   45.2520 Br  0  0  0  0  0  0  0  0  0  0  0  0
   59.2960   26.9850   46.0700 C   0  0  0  0  0  0  0  0  0  0  0  0
   58.6660   25.8270   46.5110 C   0  0  0  0  0  0  0  0  0  0  0  0
   57.2690   25.7260   46.5080 C   0  0  0  0  0  0  0  0  0  0  0  0
   56.6460   24.4700   47.0020 C   0  0  0  0  0  0  0  0  0  0  0  0
   55.3900   23.9080   46.4100 C   0  0  0  0  0  0  0  0  0  0  0  0
   57.1860   23.8480   47.9590 O   0  0  0  0  0  0  0  0  0  0  0  0
   56.5060   26.8170   46.0340 C   0  0  0  0  0  0  0  0  0  0  0  0
   55.1170   26.7170   45.9920 O   0  0  0  0  0  0  0  0  0  0  0  0
   57.2509   30.5770   43.8387 H   0  0  0  0  0  0  0  0  0  0  0  0
   57.1666   28.8883   43.2322 H   0  0  0  0  0  0  0  0  0  0  0  0
   55.6942   29.9172   43.2322 H   0  0  0  0  0  0  0  0  0  0  0  0
   56.4485   30.0100   45.8906 H   0  0  0  0  0  0  0  0  0  0  0  0
   55.2283   28.8700   45.1842 H   0  0  0  0  0  0  0  0  0  0  0  0
   60.7452   29.6650   46.5652 H   0  0  0  0  0  0  0  0  0  0  0  0
   60.3166   30.9597   45.3589 H   0  0  0  0  0  0  0  0  0  0  0  0
   57.9359   30.5032   46.7456 H   0  0  0  0  0  0  0  0  0  0  0  0
   59.2280   30.4365   48.0170 H   0  0  0  0  0  0  0  0  0  0  0  0
   58.7599   32.7068   47.9944 H   0  0  0  0  0  0  0  0  0  0  0  0
   60.1016   32.6081   46.7865 H   0  0  0  0  0  0  0  0  0  0  0  0
   58.0325   32.2120   45.1155 H   0  0  0  0  0  0  0  0  0  0  0  0
   57.1758   33.1596   46.3849 H   0  0  0  0  0  0  0  0  0  0  0  0
   60.3937   27.0489   46.1023 H   0  0  0  0  0  0  0  0  0  0  0  0
   59.2716   24.9803   46.8664 H   0  0  0  0  0  0  0  0  0  0  0  0
   54.7084   23.6030   47.2178 H   0  0  0  0  0  0  0  0  0  0  0  0
   54.9028   24.6740   45.7888 H   0  0  0  0  0  0  0  0  0  0  0  0
   55.6364   23.0343   45.7888 H   0  0  0  0  0  0  0  0  0  0  0  0
  1  2  1  0
  2  3  1  0
  3  4  2  0
  4  5  1  0
  5  6  1  0
  6  7  1  0
  7  8  1  0
  8  9  1  0
  9 10  1  0
  4 11  1  0
 11 12  2  0
 12 13  1  0
 13 14  1  0
 14 15  1  0
 14 16  2  0
 13 17  2  0
 17 18  1  0
 17  3  1  0
  1 19  1  0
  1 20  1  0
  1 21  1  0
  2 22  1  0
  2 23  1  0
  6 24  1  0
  6 25  1  0
  7 26  1  0
  7 27  1  0
  8 28  1  0
  8 29  1  0
  9 30  1  0
  9 31  1  0
 11 32  1  0
 12 33  1  0
 15 34  1  0
 15 35  1  0
 15 36  1  0
M  CHG  1  18  -1
M  END
>  <UniqueID>  (57) 
49

>  <SMILES>  (57) 
CCc1c(OCCCCBr)ccc(C(C)=O)c1[O-]

>  <Energy>  (57) 
38.5320729951531

>  <Genealogy>  (57) 
CCc1c(OCCCCBr)ccc(C(C)=O)c1[O-] (protonated)
CCc1c(OCCCCBr)ccc(C(C)=O)c1[O-] (3D coordinates assigned)
CCc1c(OCCCCBr)ccc(C(C)=O)c1[O-] (optimized conformer: 38.5320729951531 kcal/mol)

>  <smiles>  (57) 
CCc1c(OCCCCBr)ccc(C(C)=O)c1O

>  <score_type>  (57) 
oracle

>  <origin>  (57) 
adg

>  <m_score__min__energy>  (57) 
-9.8300000000000001

>  <m_primary>  (57) 
energy

$$$$
57:0
     RDKit          3D

 51 54  0  0  1  0  0  0  0  0999 V2000
   60.7210   30.6650   52.0300 O   0  0  0  0  0  0  0  0  0  0  0  0
   60.6710   32.1610   51.7800 S   0  0  0  0  0  0  0  0  0  0  0  0
   61.4350   32.7800   52.9190 O   0  0  0  0  0  0  0  0  0  0  0  0
   59.0410   32.6800   51.9280 N   0  0  0  0  0  0  0  0  0  0  0  0
   58.0820   31.6250   51.6590 C   0  0  0  0  0  0  0  0  0  0  0  0
   58.1870   31.0900   50.2540 C   0  0  0  0  0  0  0  0  0  0  0  0
   58.9160   29.8700   50.1660 N   0  0  0  0  0  0  0  0  0  0  0  0
   59.1640   29.2500   48.8980 C   0  0  0  0  0  0  0  0  0  0  0  0
   60.0170   28.1590   48.8000 C   0  0  0  0  0  0  0  0  0  0  0  0
   60.2610   27.5520   47.5700 C   0  0  0  0  0  0  0  0  0  0  0  0
   59.6480   28.0430   46.4390 C   0  0  0  0  0  0  0  0  0  0  0  0
   59.9020   27.4400   45.2680 N   0  0  0  0  0  0  0  0  0  0  0  0
   59.2980   27.9230   44.1520 C   0  0  0  0  0  0  0  0  0  0  0  0
   58.4740   28.9750   44.2410 N   0  0  0  0  0  0  0  0  0  0  0  0
   58.2020   29.6020   45.4090 C   0  0  0  0  0  0  0  0  0  0  0  0
   57.3920   30.6160   45.4090 N   0  0  0  0  0  0  0  0  0  0  0  0
   57.9620   31.9200   45.4460 C   0  0  0  0  0  0  0  0  0  0  0  0
   58.1390   32.5510   44.2210 C   0  0  0  0  0  0  0  0  0  0  0  0
   58.6850   33.8210   44.1500 C   0  0  0  0  0  0  0  0  0  0  0  0
   59.0570   34.4660   45.3260 C   0  0  0  0  0  0  0  0  0  0  0  0
   58.8660   33.8080   46.5320 C   0  0  0  0  0  0  0  0  0  0  0  0
   59.3360   34.6230   48.0170 Cl  0  0  0  0  0  0  0  0  0  0  0  0
   58.3240   32.5450   46.6210 C   0  0  0  0  0  0  0  0  0  0  0  0
   58.8050   29.1280   46.5580 C   0  0  0  0  0  0  0  0  0  0  0  0
   58.5430   29.7510   47.7640 C   0  0  0  0  0  0  0  0  0  0  0  0
   61.3920   32.5780   50.2620 C   0  0  0  0  0  0  0  0  0  0  0  0
   61.3520   31.7520   49.1470 C   0  0  0  0  0  0  0  0  0  0  0  0
   61.9480   32.1290   47.9420 C   0  0  0  0  0  0  0  0  0  0  0  0
   62.6030   33.3590   47.8380 C   0  0  0  0  0  0  0  0  0  0  0  0
   63.3620   33.8600   46.3350 Cl  0  0  0  0  0  0  0  0  0  0  0  0
   62.6420   34.1800   48.9510 C   0  0  0  0  0  0  0  0  0  0  0  0
   62.0480   33.8090   50.1590 C   0  0  0  0  0  0  0  0  0  0  0  0
   58.9020   32.9300   52.9330 H   0  0  0  0  0  0  0  0  0  0  0  0
   58.2593   30.7997   52.3643 H   0  0  0  0  0  0  0  0  0  0  0  0
   57.0753   32.0519   51.7783 H   0  0  0  0  0  0  0  0  0  0  0  0
   57.1708   30.9174   49.8699 H   0  0  0  0  0  0  0  0  0  0  0  0
   58.7340   31.8384   49.6618 H   0  0  0  0  0  0  0  0  0  0  0  0
   59.2800   29.4130   51.0290 H   0  0  0  0  0  0  0  0  0  0  0  0
   60.5062   27.7690   49.7047 H   0  0  0  0  0  0  0  0  0  0  0  0
   60.9379   26.6875   47.5029 H   0  0  0  0  0  0  0  0  0  0  0  0
   59.4852   27.4509   43.1762 H   0  0  0  0  0  0  0  0  0  0  0  0
   58.0420   29.2920   43.3250 H   0  0  0  0  0  0  0  0  0  0  0  0
   57.8416   32.0350   43.2962 H   0  0  0  0  0  0  0  0  0  0  0  0
   58.8232   34.3142   43.1765 H   0  0  0  0  0  0  0  0  0  0  0  0
   59.4930   35.4756   45.2995 H   0  0  0  0  0  0  0  0  0  0  0  0
   58.1848   32.0523   47.5946 H   0  0  0  0  0  0  0  0  0  0  0  0
   57.8647   30.6150   47.8220 H   0  0  0  0  0  0  0  0  0  0  0  0
   60.8403   30.7806   49.2142 H   0  0  0  0  0  0  0  0  0  0  0  0
   61.9019   31.4565   47.0728 H   0  0  0  0  0  0  0  0  0  0  0  0
   63.1546   35.1508   48.8824 H   0  0  0  0  0  0  0  0  0  0  0  0
   62.0958   34.4829   51.0271 H   0  0  0  0  0  0  0  0  0  0  0  0
  1  2  2  0
  2  3  2  0
  2  4  1  0
  4  5  1  0
  5  6  1  0
  6  7  1  0
  7  8  1  0
  8  9  2  0
  9 10  1  0
 10 11  2  0
 11 12  1  0
 12 13  2  0
 13 14  1  0
 14 15  1  0
 15 16  2  0
 16 17  1  0
 17 18  2  0
 18 19  1  0
 19 20  2  0
 20 21  1  0
 21 22  1  0
 21 23  2  0
 15 24  1  0
 24 25  2  0
  2 26  1  0
 26 27  2  0
 27 28  1  0
 28 29  2  0
 29 30  1  0
 29 31  1  0
 31 32  2  0
 25  8  1  0
 32 26  1  0
 24 11  1  0
 23 17  1  0
  4 33  1  0
  5 34  1  0
  5 35  1  0
  6 36  1  0
  6 37  1  0
  7 38  1  0
  9 39  1  0
 10 40  1  0
 13 41  1  0
 14 42  1  0
 18 43  1  0
 19 44  1  0
 20 45  1  0
 23 46  1  0
 25 47  1  0
 27 48  1  0
 28 49  1  0
 31 50  1  0
 32 51  1  0
M  END
>  <smiles>  (58) 
O=S(=O)(NCCNc1ccc2nc[nH]c(=Nc3cccc(Cl)c3)c2c1)c1ccc(Cl)cc1

>  <score_type>  (58) 
oracle

>  <origin>  (58) 
adg

>  <m_score__min__energy>  (58) 
-9.3300000000000001

>  <m_primary>  (58) 
energy

$$$$
58:0
     RDKit          3D

 39 41  0  0  0  0  0  0  0  0999 V2000
   55.0780   29.3580   44.8710 O   0  0  0  0  0  0  0  0  0  0  0  0
   56.3340   29.3330   44.7900 C   0  0  0  0  0  0  0  0  0  0  0  0
   57.0090   28.0750   44.9140 N   0  0  0  0  0  0  0  0  0  0  0  0
   57.6680   27.6030   46.1250 C   0  0  0  0  0  0  0  0  0  0  0  0
   58.8640   28.4680   46.4080 C   0  0  0  0  0  0  0  0  0  0  0  0
   59.8210   28.6940   45.4050 C   0  0  0  0  0  0  0  0  0  0  0  0
   60.9510   29.4720   45.6710 C   0  0  0  0  0  0  0  0  0  0  0  0
   61.1420   30.0200   46.9410 C   0  0  0  0  0  0  0  0  0  0  0  0
   60.2040   29.7880   47.9530 C   0  0  0  0  0  0  0  0  0  0  0  0
   60.4630   30.4730   49.5490 Cl  0  0  0  0  0  0  0  0  0  0  0  0
   59.0690   29.0080   47.6920 C   0  0  0  0  0  0  0  0  0  0  0  0
   58.1720   28.7750   48.6840 F   0  0  0  0  0  0  0  0  0  0  0  0
   57.0600   30.5920   44.5310 C   0  0  0  0  0  0  0  0  0  0  0  0
   57.0780   31.1580   43.2500 C   0  0  0  0  0  0  0  0  0  0  0  0
   57.7780   32.3420   43.0130 C   0  0  0  0  0  0  0  0  0  0  0  0
   58.4800   32.9710   44.0490 C   0  0  0  0  0  0  0  0  0  0  0  0
   59.1450   34.1740   43.8050 O   0  0  0  0  0  0  0  0  0  0  0  0
   58.4980   32.3950   45.3350 C   0  0  0  0  0  0  0  0  0  0  0  0
   59.2500   33.0230   46.4490 C   0  0  0  0  0  0  0  0  0  0  0  0
   58.5730   33.5510   47.5620 C   0  0  0  0  0  0  0  0  0  0  0  0
   59.2870   34.1510   48.6040 C   0  0  0  0  0  0  0  0  0  0  0  0
   60.6800   34.2330   48.5440 C   0  0  0  0  0  0  0  0  0  0  0  0
   61.3640   33.7170   47.4380 C   0  0  0  0  0  0  0  0  0  0  0  0
   63.1130   33.8220   47.3620 Cl  0  0  0  0  0  0  0  0  0  0  0  0
   60.6530   33.1170   46.3930 C   0  0  0  0  0  0  0  0  0  0  0  0
   57.7850   31.2040   45.5650 C   0  0  0  0  0  0  0  0  0  0  0  0
   56.9664   27.6577   46.9705 H   0  0  0  0  0  0  0  0  0  0  0  0
   57.9911   26.5606   45.9868 H   0  0  0  0  0  0  0  0  0  0  0  0
   59.6804   28.2566   44.4056 H   0  0  0  0  0  0  0  0  0  0  0  0
   61.6916   29.6531   44.8781 H   0  0  0  0  0  0  0  0  0  0  0  0
   62.0308   30.6348   47.1461 H   0  0  0  0  0  0  0  0  0  0  0  0
   56.5380   30.6671   42.4269 H   0  0  0  0  0  0  0  0  0  0  0  0
   57.7784   32.7841   42.0058 H   0  0  0  0  0  0  0  0  0  0  0  0
   59.3310   34.8380   44.5470 H   0  0  0  0  0  0  0  0  0  0  0  0
   57.4758   33.4919   47.6136 H   0  0  0  0  0  0  0  0  0  0  0  0
   58.7503   34.5594   49.4730 H   0  0  0  0  0  0  0  0  0  0  0  0
   61.2392   34.7032   49.3663 H   0  0  0  0  0  0  0  0  0  0  0  0
   61.1937   32.7165   45.5228 H   0  0  0  0  0  0  0  0  0  0  0  0
   57.7960   30.7478   46.5659 H   0  0  0  0  0  0  0  0  0  0  0  0
  1  2  2  0
  2  3  1  0
  3  4  1  0
  4  5  1  0
  5  6  2  0
  6  7  1  0
  7  8  2  0
  8  9  1  0
  9 10  1  0
  9 11  2  0
 11 12  1  0
  2 13  1  0
 13 14  2  0
 14 15  1  0
 15 16  2  0
 16 17  1  0
 16 18  1  0
 18 19  1  0
 19 20  2  0
 20 21  1  0
 21 22  2  0
 22 23  1  0
 23 24  1  0
 23 25  2  0
 18 26  2  0
 11  5  1  0
 26 13  1  0
 25 19  1  0
  4 27  1  0
  4 28  1  0
  6 29  1  0
  7 30  1  0
  8 31  1  0
 14 32  1  0
 15 33  1  0
 17 34  1  0
 20 35  1  0
 21 36  1  0
 22 37  1  0
 25 38  1  0
 26 39  1  0
M  CHG  1   3  -1
M  END
>  <UniqueID>  (59) 
50

>  <SMILES>  (59) 
O=C([N-]Cc1cccc(Cl)c1F)c1ccc(O)c(-c2cccc(Cl)c2)c1

>  <Energy>  (59) 
51.914248212327905

>  <Genealogy>  (59) 
O=C([N-]Cc1cccc(Cl)c1F)c1ccc(O)c(-c2cccc(Cl)c2)c1 (protonated)
O=C([N-]Cc1cccc(Cl)c1F)c1ccc(O)c(-c2cccc(Cl)c2)c1 (3D coordinates assigned)
O=C([N-]Cc1cccc(Cl)c1F)c1ccc(O)c(-c2cccc(Cl)c2)c1 (optimized conformer: 51.914248212327905 kcal/mol)

>  <smiles>  (59) 
O=C(NCc1cccc(Cl)c1F)c1ccc(O)c(-c2cccc(Cl)c2)c1

>  <score_type>  (59) 
oracle

>  <origin>  (59) 
adg

>  <m_score__min__energy>  (59) 
-9.9199999999999999

>  <m_primary>  (59) 
energy

$$$$
59:0
     RDKit          3D

 41 44  0  0  0  0  0  0  0  0999 V2000
   56.8060   29.3970   43.4030 C   0  0  0  0  0  0  0  0  0  0  0  0
   57.4810   30.5920   44.0070 C   0  0  0  0  0  0  0  0  0  0  0  0
   57.4210   31.8380   43.3650 C   0  0  0  0  0  0  0  0  0  0  0  0
   58.0800   32.9440   43.9090 C   0  0  0  0  0  0  0  0  0  0  0  0
   58.8210   32.8170   45.0950 C   0  0  0  0  0  0  0  0  0  0  0  0
   59.5070   34.0180   45.6940 C   0  0  0  0  0  0  0  0  0  0  0  0
   60.0580   33.6900   47.0260 N   0  0  0  0  0  0  0  0  0  0  0  0
   59.2170   33.4270   48.0840 C   0  0  0  0  0  0  0  0  0  0  0  0
   57.9650   33.4600   47.9250 O   0  0  0  0  0  0  0  0  0  0  0  0
   59.7510   33.0950   49.3490 C   0  0  0  0  0  0  0  0  0  0  0  0
   58.8940   32.8150   50.5270 C   0  0  0  0  0  0  0  0  0  0  0  0
   58.9430   33.6690   51.6430 C   0  0  0  0  0  0  0  0  0  0  0  0
   58.1290   33.4290   52.7540 C   0  0  0  0  0  0  0  0  0  0  0  0
   57.2500   32.3430   52.7560 C   0  0  0  0  0  0  0  0  0  0  0  0
   57.1800   31.4990   51.6460 C   0  0  0  0  0  0  0  0  0  0  0  0
   56.3140   30.4550   51.6440 F   0  0  0  0  0  0  0  0  0  0  0  0
   57.9930   31.7350   50.5320 C   0  0  0  0  0  0  0  0  0  0  0  0
   61.0990   33.0020   49.4910 N   0  0  0  0  0  0  0  0  0  0  0  0
   61.9370   33.2460   48.4560 C   0  0  0  0  0  0  0  0  0  0  0  0
   63.3200   33.1520   48.6140 C   0  0  0  0  0  0  0  0  0  0  0  0
   64.1370   33.4050   47.5590 N   0  0  0  0  0  0  0  0  0  0  0  0
   63.6260   33.7500   46.3480 C   0  0  0  0  0  0  0  0  0  0  0  0
   62.2810   33.8460   46.1760 N   0  0  0  0  0  0  0  0  0  0  0  0
   61.4170   33.6010   47.2010 C   0  0  0  0  0  0  0  0  0  0  0  0
   58.8940   31.5660   45.7270 C   0  0  0  0  0  0  0  0  0  0  0  0
   58.2350   30.4590   45.1830 C   0  0  0  0  0  0  0  0  0  0  0  0
   56.4355   28.7411   44.2045 H   0  0  0  0  0  0  0  0  0  0  0  0
   55.9617   29.7284   42.7807 H   0  0  0  0  0  0  0  0  0  0  0  0
   57.5257   28.8449   42.7807 H   0  0  0  0  0  0  0  0  0  0  0  0
   56.8527   31.9450   42.4293 H   0  0  0  0  0  0  0  0  0  0  0  0
   58.0178   33.9198   43.4051 H   0  0  0  0  0  0  0  0  0  0  0  0
   60.3261   34.3346   45.0316 H   0  0  0  0  0  0  0  0  0  0  0  0
   58.7721   34.8291   45.8034 H   0  0  0  0  0  0  0  0  0  0  0  0
   59.6260   34.5312   51.6419 H   0  0  0  0  0  0  0  0  0  0  0  0
   58.1806   34.0958   53.6274 H   0  0  0  0  0  0  0  0  0  0  0  0
   56.6129   32.1529   53.6323 H   0  0  0  0  0  0  0  0  0  0  0  0
   57.9272   31.0729   49.6561 H   0  0  0  0  0  0  0  0  0  0  0  0
   63.7469   32.8741   49.5890 H   0  0  0  0  0  0  0  0  0  0  0  0
   64.3026   33.9521   45.5046 H   0  0  0  0  0  0  0  0  0  0  0  0
   59.4730   31.4556   46.6557 H   0  0  0  0  0  0  0  0  0  0  0  0
   58.3080   29.4799   45.6790 H   0  0  0  0  0  0  0  0  0  0  0  0
  1  2  1  0
  2  3  2  0
  3  4  1  0
  4  5  2  0
  5  6  1  0
  6  7  1  0
  7  8  1  0
  8  9  2  0
  8 10  1  0
 10 11  1  0
 11 12  2  0
 12 13  1  0
 13 14  2  0
 14 15  1  0
 15 16  1  0
 15 17  2  0
 10 18  2  0
 18 19  1  0
 19 20  2  0
 20 21  1  0
 21 22  2  0
 22 23  1  0
 23 24  2  0
  5 25  1  0
 25 26  2  0
 26  2  1  0
 24  7  1  0
 17 11  1  0
 24 19  1  0
  1 27  1  0
  1 28  1  0
  1 29  1  0
  3 30  1  0
  4 31  1  0
  6 32  1  0
  6 33  1  0
 12 34  1  0
 13 35  1  0
 14 36  1  0
 17 37  1  0
 20 38  1  0
 22 39  1  0
 25 40  1  0
 26 41  1  0
M  END
>  <UniqueID>  (60) 
51

>  <SMILES>  (60) 
Cc1ccc(Cn2c(=O)c(-c3cccc(F)c3)nc3cncnc32)cc1

>  <Energy>  (60) 
58.86605433594119

>  <Genealogy>  (60) 
Cc1ccc(Cn2c(=O)c(-c3cccc(F)c3)nc3cncnc32)cc1 (3D coordinates assigned)
Cc1ccc(Cn2c(=O)c(-c3cccc(F)c3)nc3cncnc32)cc1 (optimized conformer: 58.86605433594119 kcal/mol)

>  <smiles>  (60) 
Cc1ccc(Cn2c(=O)c(-c3cccc(F)c3)nc3cncnc32)cc1

>  <score_type>  (60) 
oracle

>  <origin>  (60) 
adg

>  <m_score__min__energy>  (60) 
-7.6200000000000001

>  <m_primary>  (60) 
energy

$$$$
60:0
     RDKit          3D

 26 27  0  0  0  0  0  0  0  0999 V2000
   55.7490   27.9530   44.8120 H   0  0  0  0  0  0  0  0  0  0  0  0
   55.5180   28.9670   44.9230 N   0  0  0  0  0  0  0  0  0  0  0  0
   56.1370   29.8780   44.2450 C   0  0  0  0  0  0  0  0  0  0  0  0
   56.7430   30.9360   44.8120 N   0  0  0  0  0  0  0  0  0  0  0  0
   57.2660   31.6420   43.8220 N   0  0  0  0  0  0  0  0  0  0  0  0
   58.0710   32.8450   44.0190 C   0  0  0  0  0  0  0  0  0  0  0  0
   59.0754   32.5541   44.3603 H   0  0  0  0  0  0  0  0  0  0  0  0
   58.1313   33.3873   43.0639 H   0  0  0  0  0  0  0  0  0  0  0  0
   57.4330   33.7660   45.0650 C   0  0  0  0  0  0  0  0  0  0  0  0
   57.4283   34.7960   44.6790 H   0  0  0  0  0  0  0  0  0  0  0  0
   56.4082   33.4145   45.2552 H   0  0  0  0  0  0  0  0  0  0  0  0
   58.1930   33.7340   46.3660 C   0  0  0  0  0  0  0  0  0  0  0  0
   57.9050   32.7530   47.3300 C   0  0  0  0  0  0  0  0  0  0  0  0
   57.1006   32.0252   47.1474 H   0  0  0  0  0  0  0  0  0  0  0  0
   58.6370   32.6980   48.5210 C   0  0  0  0  0  0  0  0  0  0  0  0
   58.4034   31.9320   49.2751 H   0  0  0  0  0  0  0  0  0  0  0  0
   59.6650   33.6160   48.7530 C   0  0  0  0  0  0  0  0  0  0  0  0
   60.2393   33.5724   49.6901 H   0  0  0  0  0  0  0  0  0  0  0  0
   59.9640   34.5890   47.7960 C   0  0  0  0  0  0  0  0  0  0  0  0
   60.7749   35.3092   47.9793 H   0  0  0  0  0  0  0  0  0  0  0  0
   59.2330   34.6480   46.6050 C   0  0  0  0  0  0  0  0  0  0  0  0
   59.4733   35.4132   45.8522 H   0  0  0  0  0  0  0  0  0  0  0  0
   57.0130   31.0460   42.6390 C   0  0  0  0  0  0  0  0  0  0  0  0
   57.3376   31.4117   41.6537 H   0  0  0  0  0  0  0  0  0  0  0  0
   56.2790   29.9010   42.8710 C   0  0  0  0  0  0  0  0  0  0  0  0
   55.8971   29.1774   42.1357 H   0  0  0  0  0  0  0  0  0  0  0  0
  1  2  1  0
  2  3  2  0
  3  4  1  0
  4  5  1  0
  5  6  1  0
  6  7  1  0
  6  8  1  0
  6  9  1  0
  9 10  1  0
  9 11  1  0
  9 12  1  0
 12 13  2  0
 13 14  1  0
 13 15  1  0
 15 16  1  0
 15 17  2  0
 17 18  1  0
 17 19  1  0
 19 20  1  0
 19 21  2  0
 21 22  1  0
  5 23  1  0
 23 24  1  0
 23 25  2  0
 25 26  1  0
 25  3  1  0
 21 12  1  0
M  CHG  1   4  -1
M  END
>  <UniqueID>  (61) 
52

>  <SMILES>  (61) 
[H]/N=c1\ccn(CCc2ccccc2)[n-]1

>  <Energy>  (61) 
52.34791681604921

>  <Genealogy>  (61) 
N=c1ccn(CCc2ccccc2)[n-]1 (protonated)
[H]/N=c1\ccn(CCc2ccccc2)[n-]1 (cis-trans isomerization)
[H]/N=c1\ccn(CCc2ccccc2)[n-]1 (3D coordinates assigned)
[H]/N=c1\ccn(CCc2ccccc2)[n-]1 (optimized conformer: 52.34791681604921 kcal/mol)

>  <smiles>  (61) 
N=c1ccn(CCc2ccccc2)[nH]1

>  <score_type>  (61) 
oracle

>  <origin>  (61) 
adg

>  <m_score__min__energy>  (61) 
-8.6799999999999997

>  <m_primary>  (61) 
energy

$$$$
61:0
     RDKit          3D

 29 30  0  0  0  0  0  0  0  0999 V2000
   59.9960   35.3030   46.3620 C   0  0  0  0  0  0  0  0  0  0  0  0
   59.0520   34.2320   45.9020 C   0  0  0  0  0  0  0  0  0  0  0  0
   58.6250   34.1910   44.5650 C   0  0  0  0  0  0  0  0  0  0  0  0
   57.7730   33.1730   44.1300 C   0  0  0  0  0  0  0  0  0  0  0  0
   57.3420   32.1870   45.0230 C   0  0  0  0  0  0  0  0  0  0  0  0
   56.2320   30.8900   44.4640 S   0  0  0  0  0  0  0  0  0  0  0  0
   57.4820   30.0410   43.4350 C   0  0  0  0  0  0  0  0  0  0  0  0
   58.0970   28.8870   44.1780 C   0  0  0  0  0  0  0  0  0  0  0  0
   59.2380   29.0890   44.9700 C   0  0  0  0  0  0  0  0  0  0  0  0
   59.8230   28.0030   45.6210 C   0  0  0  0  0  0  0  0  0  0  0  0
   59.2740   26.7280   45.4750 C   0  0  0  0  0  0  0  0  0  0  0  0
   58.1430   26.5600   44.6750 C   0  0  0  0  0  0  0  0  0  0  0  0
   57.5800   27.6290   44.0470 N   0  0  0  0  0  0  0  0  0  0  0  0
   57.7870   32.2070   46.3500 C   0  0  0  0  0  0  0  0  0  0  0  0
   58.6420   33.2230   46.7880 C   0  0  0  0  0  0  0  0  0  0  0  0
   60.0165   35.3262   47.4616 H   0  0  0  0  0  0  0  0  0  0  0  0
   61.0057   35.0902   45.9809 H   0  0  0  0  0  0  0  0  0  0  0  0
   59.6581   36.2780   45.9809 H   0  0  0  0  0  0  0  0  0  0  0  0
   58.9625   34.9630   43.8578 H   0  0  0  0  0  0  0  0  0  0  0  0
   57.4402   33.1469   43.0819 H   0  0  0  0  0  0  0  0  0  0  0  0
   56.9999   29.6645   42.5208 H   0  0  0  0  0  0  0  0  0  0  0  0
   58.2761   30.7595   43.1836 H   0  0  0  0  0  0  0  0  0  0  0  0
   59.6676   30.0960   45.0765 H   0  0  0  0  0  0  0  0  0  0  0  0
   60.7147   28.1509   46.2479 H   0  0  0  0  0  0  0  0  0  0  0  0
   59.7278   25.8653   45.9848 H   0  0  0  0  0  0  0  0  0  0  0  0
   57.7041   25.5590   44.5511 H   0  0  0  0  0  0  0  0  0  0  0  0
   56.7410   27.4690   43.4460 H   0  0  0  0  0  0  0  0  0  0  0  0
   57.4635   31.4221   47.0495 H   0  0  0  0  0  0  0  0  0  0  0  0
   58.9945   33.2318   47.8300 H   0  0  0  0  0  0  0  0  0  0  0  0
  1  2  1  0
  2  3  2  0
  3  4  1  0
  4  5  2  0
  5  6  1  0
  6  7  1  0
  7  8  1  0
  8  9  2  0
  9 10  1  0
 10 11  2  0
 11 12  1  0
 12 13  2  0
  5 14  1  0
 14 15  2  0
 15  2  1  0
 13  8  1  0
  1 16  1  0
  1 17  1  0
  1 18  1  0
  3 19  1  0
  4 20  1  0
  7 21  1  0
  7 22  1  0
  9 23  1  0
 10 24  1  0
 11 25  1  0
 12 26  1  0
 13 27  1  0
 14 28  1  0
 15 29  1  0
M  CHG  1  13   1
M  END
>  <UniqueID>  (62) 
53

>  <SMILES>  (62) 
Cc1ccc(SCc2cccc[nH+]2)cc1

>  <Energy>  (62) 
23.099921217512893

>  <Genealogy>  (62) 
Cc1ccc(SCc2cccc[nH+]2)cc1 (protonated)
Cc1ccc(SCc2cccc[nH+]2)cc1 (3D coordinates assigned)
Cc1ccc(SCc2cccc[nH+]2)cc1 (optimized conformer: 23.099921217512893 kcal/mol)

>  <smiles>  (62) 
Cc1ccc(SCc2ccccn2)cc1

>  <score_type>  (62) 
oracle

>  <origin>  (62) 
adg

>  <m_score__min__energy>  (62) 
-4.8200000000000003

>  <m_primary>  (62) 
energy

$$$$
62:0
     RDKit          3D

 50 53  0  0  0  0  0  0  0  0999 V2000
   62.8640   34.1210   49.5960 C   0  0  0  0  0  0  0  0  0  0  0  0
   62.1170   33.0910   48.8030 C   0  0  0  0  0  0  0  0  0  0  0  0
   60.7640   32.8390   49.0680 C   0  0  0  0  0  0  0  0  0  0  0  0
   60.0760   31.8540   48.3550 C   0  0  0  0  0  0  0  0  0  0  0  0
   60.7350   31.0890   47.3740 C   0  0  0  0  0  0  0  0  0  0  0  0
   60.0080   30.0300   46.6310 C   0  0  0  0  0  0  0  0  0  0  0  0
   59.1690   30.3640   45.6150 N   0  0  0  0  0  0  0  0  0  0  0  0
   58.4650   29.4320   44.9250 C   0  0  0  0  0  0  0  0  0  0  0  0
   57.3580   30.0090   43.6290 S   0  0  0  0  0  0  0  0  0  0  0  0
   57.9550   31.7390   43.6360 C   0  0  0  0  0  0  0  0  0  0  0  0
   57.4470   32.5190   44.8180 C   0  0  0  0  0  0  0  0  0  0  0  0
   56.2730   32.3070   45.2220 O   0  0  0  0  0  0  0  0  0  0  0  0
   58.2730   33.4740   45.5100 N   0  0  0  0  0  0  0  0  0  0  0  0
   57.8410   34.1490   46.7210 C   0  0  0  0  0  0  0  0  0  0  0  0
   59.0530   34.9300   47.2090 C   0  0  0  0  0  0  0  0  0  0  0  0
   60.0000   35.0170   46.0160 C   0  0  0  0  0  0  0  0  0  0  0  0
   59.6040   33.8760   45.0870 C   0  0  0  0  0  0  0  0  0  0  0  0
   58.6120   28.0700   45.2510 C   0  0  0  0  0  0  0  0  0  0  0  0
   57.9200   27.0440   44.5820 C   0  0  0  0  0  0  0  0  0  0  0  0
   58.1130   25.7020   44.9500 C   0  0  0  0  0  0  0  0  0  0  0  0
   57.3440   24.6150   44.2610 C   0  0  0  0  0  0  0  0  0  0  0  0
   58.9760   25.3910   46.0120 C   0  0  0  0  0  0  0  0  0  0  0  0
   59.6670   26.4050   46.6810 C   0  0  0  0  0  0  0  0  0  0  0  0
   59.4910   27.7400   46.3060 C   0  0  0  0  0  0  0  0  0  0  0  0
   60.1600   28.7210   46.9660 N   0  0  0  0  0  0  0  0  0  0  0  0
   62.0980   31.3350   47.1240 C   0  0  0  0  0  0  0  0  0  0  0  0
   62.7830   32.3230   47.8370 C   0  0  0  0  0  0  0  0  0  0  0  0
   62.7246   33.9288   50.6701 H   0  0  0  0  0  0  0  0  0  0  0  0
   63.9348   34.0676   49.3499 H   0  0  0  0  0  0  0  0  0  0  0  0
   62.4807   35.1222   49.3499 H   0  0  0  0  0  0  0  0  0  0  0  0
   60.2408   33.4200   49.8417 H   0  0  0  0  0  0  0  0  0  0  0  0
   59.0106   31.6747   48.5619 H   0  0  0  0  0  0  0  0  0  0  0  0
   59.0546   31.7326   43.6638 H   0  0  0  0  0  0  0  0  0  0  0  0
   57.5763   32.2270   42.7258 H   0  0  0  0  0  0  0  0  0  0  0  0
   57.0065   34.8318   46.5032 H   0  0  0  0  0  0  0  0  0  0  0  0
   57.4840   33.4362   47.4790 H   0  0  0  0  0  0  0  0  0  0  0  0
   58.7538   35.9372   47.5347 H   0  0  0  0  0  0  0  0  0  0  0  0
   59.5307   34.4394   48.0699 H   0  0  0  0  0  0  0  0  0  0  0  0
   59.8846   35.9844   45.5052 H   0  0  0  0  0  0  0  0  0  0  0  0
   61.0520   34.9385   46.3278 H   0  0  0  0  0  0  0  0  0  0  0  0
   59.5879   34.2192   44.0420 H   0  0  0  0  0  0  0  0  0  0  0  0
   60.3181   33.0409   45.1394 H   0  0  0  0  0  0  0  0  0  0  0  0
   57.2246   27.2937   43.7671 H   0  0  0  0  0  0  0  0  0  0  0  0
   56.8807   23.9601   45.0136 H   0  0  0  0  0  0  0  0  0  0  0  0
   56.5603   25.0624   43.6319 H   0  0  0  0  0  0  0  0  0  0  0  0
   58.0268   24.0250   43.6319 H   0  0  0  0  0  0  0  0  0  0  0  0
   59.1093   24.3433   46.3196 H   0  0  0  0  0  0  0  0  0  0  0  0
   60.3509   26.1519   47.5045 H   0  0  0  0  0  0  0  0  0  0  0  0
   62.6282   30.7453   46.3617 H   0  0  0  0  0  0  0  0  0  0  0  0
   63.8506   32.4991   47.6392 H   0  0  0  0  0  0  0  0  0  0  0  0
  1  2  1  0
  2  3  2  0
  3  4  1  0
  4  5  2  0
  5  6  1  0
  6  7  2  0
  7  8  1  0
  8  9  1  0
  9 10  1  0
 10 11  1  0
 11 12  2  0
 11 13  1  0
 13 14  1  0
 14 15  1  0
 15 16  1  0
 16 17  1  0
  8 18  2  0
 18 19  1  0
 19 20  2  0
 20 21  1  0
 20 22  1  0
 22 23  2  0
 23 24  1  0
 24 25  2  0
  5 26  1  0
 26 27  2  0
 27  2  1  0
 25  6  1  0
 17 13  1  0
 24 18  1  0
  1 28  1  0
  1 29  1  0
  1 30  1  0
  3 31  1  0
  4 32  1  0
 10 33  1  0
 10 34  1  0
 14 35  1  0
 14 36  1  0
 15 37  1  0
 15 38  1  0
 16 39  1  0
 16 40  1  0
 17 41  1  0
 17 42  1  0
 19 43  1  0
 21 44  1  0
 21 45  1  0
 21 46  1  0
 22 47  1  0
 23 48  1  0
 26 49  1  0
 27 50  1  0
M  END
>  <UniqueID>  (63) 
54

>  <SMILES>  (63) 
Cc1ccc(-c2nc(SCC(=O)N3CCCC3)c3cc(C)ccc3n2)cc1

>  <Energy>  (63) 
49.98531560616371

>  <Genealogy>  (63) 
Cc1ccc(-c2nc(SCC(=O)N3CCCC3)c3cc(C)ccc3n2)cc1 (3D coordinates assigned)
Cc1ccc(-c2nc(SCC(=O)N3CCCC3)c3cc(C)ccc3n2)cc1 (nonaromatic ring conformer: 49.98531560616371 kcal/mol)

>  <smiles>  (63) 
Cc1ccc(-c2nc(SCC(=O)N3CCCC3)c3cc(C)ccc3n2)cc1

>  <score_type>  (63) 
oracle

>  <origin>  (63) 
adg

>  <m_score__min__energy>  (63) 
-8.5199999999999996

>  <m_primary>  (63) 
energy

$$$$
63:0
     RDKit          3D

 33 34  0  0  0  0  0  0  0  0999 V2000
   59.3350   34.9240   45.7060 C   0  0  0  0  0  0  0  0  0  0  0  0
   58.7490   33.5810   45.3830 C   0  0  0  0  0  0  0  0  0  0  0  0
   58.7070   32.5740   46.3590 C   0  0  0  0  0  0  0  0  0  0  0  0
   58.1280   31.3360   46.0690 C   0  0  0  0  0  0  0  0  0  0  0  0
   57.5750   31.0950   44.8040 C   0  0  0  0  0  0  0  0  0  0  0  0
   56.8640   29.5300   44.4150 S   0  0  0  0  0  0  0  0  0  0  0  0
   55.4850   29.4240   45.0040 O   0  0  0  0  0  0  0  0  0  0  0  0
   56.7590   29.3990   42.9230 O   0  0  0  0  0  0  0  0  0  0  0  0
   57.8830   28.2010   45.0550 C   0  0  0  0  0  0  0  0  0  0  0  0
   57.2830   27.5440   46.3040 C   0  0  0  0  0  0  0  0  0  0  0  0
   56.4790   26.3240   45.9680 C   0  0  0  0  0  0  0  0  0  0  0  0
   56.9800   25.0930   45.6190 C   0  0  0  0  0  0  0  0  0  0  0  0
   55.9550   24.2460   45.4180 N   0  0  0  0  0  0  0  0  0  0  0  0
   54.8600   25.0040   45.6410 C   0  0  0  0  0  0  0  0  0  0  0  0
   53.4730   24.4590   45.5890 C   0  0  0  0  0  0  0  0  0  0  0  0
   55.1350   26.2780   45.9940 N   0  0  0  0  0  0  0  0  0  0  0  0
   57.6000   32.1040   43.8340 C   0  0  0  0  0  0  0  0  0  0  0  0
   58.1780   33.3440   44.1230 C   0  0  0  0  0  0  0  0  0  0  0  0
   59.3889   35.0476   46.7977 H   0  0  0  0  0  0  0  0  0  0  0  0
   60.3460   34.9953   45.2785 H   0  0  0  0  0  0  0  0  0  0  0  0
   58.6996   35.7137   45.2785 H   0  0  0  0  0  0  0  0  0  0  0  0
   59.1316   32.7599   47.3566 H   0  0  0  0  0  0  0  0  0  0  0  0
   58.1061   30.5479   46.8361 H   0  0  0  0  0  0  0  0  0  0  0  0
   57.9940   27.4350   44.2734 H   0  0  0  0  0  0  0  0  0  0  0  0
   58.8529   28.6341   45.3409 H   0  0  0  0  0  0  0  0  0  0  0  0
   58.1009   27.2547   46.9803 H   0  0  0  0  0  0  0  0  0  0  0  0
   56.6104   28.2726   46.7802 H   0  0  0  0  0  0  0  0  0  0  0  0
   58.0462   24.8413   45.5201 H   0  0  0  0  0  0  0  0  0  0  0  0
   53.0983   24.3118   46.6127 H   0  0  0  0  0  0  0  0  0  0  0  0
   52.8203   25.1675   45.0580 H   0  0  0  0  0  0  0  0  0  0  0  0
   53.4772   23.4957   45.0580 H   0  0  0  0  0  0  0  0  0  0  0  0
   57.1635   31.9208   42.8411 H   0  0  0  0  0  0  0  0  0  0  0  0
   58.1852   34.1365   43.3602 H   0  0  0  0  0  0  0  0  0  0  0  0
  1  2  1  0
  2  3  2  0
  3  4  1  0
  4  5  2  0
  5  6  1  0
  6  7  2  0
  6  8  2  0
  6  9  1  0
  9 10  1  0
 10 11  1  0
 11 12  2  0
 12 13  1  0
 13 14  1  0
 14 15  1  0
 14 16  2  0
  5 17  1  0
 17 18  2  0
 18  2  1  0
 16 11  1  0
  1 19  1  0
  1 20  1  0
  1 21  1  0
  3 22  1  0
  4 23  1  0
  9 24  1  0
  9 25  1  0
 10 26  1  0
 10 27  1  0
 12 28  1  0
 15 29  1  0
 15 30  1  0
 15 31  1  0
 17 32  1  0
 18 33  1  0
M  CHG  1  13  -1
M  END
>  <UniqueID>  (64) 
55

>  <SMILES>  (64) 
Cc1ccc(S(=O)(=O)CCc2c[n-]c(C)n2)cc1

>  <Energy>  (64) 
51.718729836156825

>  <Genealogy>  (64) 
Cc1ccc(S(=O)(=O)CCc2c[n-]c(C)n2)cc1 (protonated)
Cc1ccc(S(=O)(=O)CCc2c[n-]c(C)n2)cc1 (3D coordinates assigned)
Cc1ccc(S(=O)(=O)CCc2c[n-]c(C)n2)cc1 (optimized conformer: 51.718729836156825 kcal/mol)

>  <smiles>  (64) 
Cc1ccc(S(=O)(=O)CCc2c[nH]c(C)n2)cc1

>  <score_type>  (64) 
oracle

>  <origin>  (64) 
adg

>  <m_score__min__energy>  (64) 
-9.4100000000000001

>  <m_primary>  (64) 
energy

$$$$
64:0
     RDKit          3D

 59 62  0  0  0  0  0  0  0  0999 V2000
   56.7240   30.4660   43.0590 C   0  0  0  0  0  0  0  0  0  0  0  0
   57.4990   31.3660   43.9760 C   0  0  0  0  0  0  0  0  0  0  0  0
   57.7720   30.9640   45.2940 C   0  0  0  0  0  0  0  0  0  0  0  0
   58.4600   31.8160   46.1650 C   0  0  0  0  0  0  0  0  0  0  0  0
   58.8780   33.0820   45.7280 C   0  0  0  0  0  0  0  0  0  0  0  0
   59.7380   34.1660   46.8160 S   0  0  0  0  0  0  0  0  0  0  0  0
   58.8940   34.3810   48.0400 O   0  0  0  0  0  0  0  0  0  0  0  0
   59.9430   35.4840   46.1240 O   0  0  0  0  0  0  0  0  0  0  0  0
   61.2660   33.4120   47.2210 N   0  0  0  0  0  0  0  0  0  0  0  0
   62.1490   33.9910   48.2400 C   0  0  1  0  0  0  0  0  0  0  0  0
   63.5300   34.0870   47.5970 C   0  0  0  0  0  0  0  0  0  0  0  0
   63.7700   32.7340   46.7880 C   0  0  0  0  0  0  0  0  0  0  0  0
   62.7670   31.5310   47.1230 C   0  0  0  0  0  0  0  0  0  0  0  0
   61.2730   31.9830   47.4280 C   0  0  1  0  0  0  0  0  0  0  0  0
   60.7640   31.6770   48.9030 C   0  0  0  0  0  0  0  0  0  0  0  0
   60.4690   32.9580   49.8530 C   0  0  1  0  0  0  0  0  0  0  0  0
   60.3240   32.6280   51.3340 N   0  0  0  0  0  0  0  0  0  0  0  0
   61.3530   33.3710   52.1200 C   0  0  0  0  0  0  0  0  0  0  0  0
   58.9820   33.0420   51.8640 C   0  0  0  0  0  0  0  0  0  0  0  0
   57.7990   32.3360   51.1650 C   0  0  0  0  0  0  0  0  0  0  0  0
   58.0760   30.8540   50.8770 C   0  0  0  0  0  0  0  0  0  0  0  0
   59.2110   30.3180   51.7400 C   0  0  0  0  0  0  0  0  0  0  0  0
   60.5110   31.1520   51.6090 C   0  0  0  0  0  0  0  0  0  0  0  0
   61.4260   34.2170   49.5680 C   0  0  0  0  0  0  0  0  0  0  0  0
   58.5850   33.4940   44.4200 C   0  0  0  0  0  0  0  0  0  0  0  0
   57.8950   32.6440   43.5500 C   0  0  0  0  0  0  0  0  0  0  0  0
   56.1211   29.7658   43.6558 H   0  0  0  0  0  0  0  0  0  0  0  0
   56.0608   31.0723   42.4245 H   0  0  0  0  0  0  0  0  0  0  0  0
   57.4220   29.9001   42.4245 H   0  0  0  0  0  0  0  0  0  0  0  0
   57.4431   29.9741   45.6432 H   0  0  0  0  0  0  0  0  0  0  0  0
   58.6736   31.4926   47.1945 H   0  0  0  0  0  0  0  0  0  0  0  0
   62.3893   32.9816   48.6053 H   0  0  0  0  0  0  0  0  0  0  0  0
   63.5677   34.9470   46.9122 H   0  0  0  0  0  0  0  0  0  0  0  0
   64.3076   34.2269   48.3623 H   0  0  0  0  0  0  0  0  0  0  0  0
   63.6772   32.9615   45.7158 H   0  0  0  0  0  0  0  0  0  0  0  0
   64.7680   32.3814   47.0873 H   0  0  0  0  0  0  0  0  0  0  0  0
   62.7500   30.8478   46.2611 H   0  0  0  0  0  0  0  0  0  0  0  0
   63.1437   31.0563   48.0410 H   0  0  0  0  0  0  0  0  0  0  0  0
   60.5943   31.4163   46.7736 H   0  0  0  0  0  0  0  0  0  0  0  0
   59.8303   31.1013   48.8205 H   0  0  0  0  0  0  0  0  0  0  0  0
   61.5929   31.1417   49.3892 H   0  0  0  0  0  0  0  0  0  0  0  0
   59.4649   33.2859   49.5461 H   0  0  0  0  0  0  0  0  0  0  0  0
   61.1630   33.2338   53.1948 H   0  0  0  0  0  0  0  0  0  0  0  0
   62.3529   32.9851   51.8722 H   0  0  0  0  0  0  0  0  0  0  0  0
   61.3013   34.4415   51.8722 H   0  0  0  0  0  0  0  0  0  0  0  0
   58.9435   32.8054   52.9376 H   0  0  0  0  0  0  0  0  0  0  0  0
   58.8760   34.1196   51.6702 H   0  0  0  0  0  0  0  0  0  0  0  0
   56.9137   32.4083   51.8138 H   0  0  0  0  0  0  0  0  0  0  0  0
   57.6391   32.8366   50.1987 H   0  0  0  0  0  0  0  0  0  0  0  0
   57.1649   30.2736   51.0846 H   0  0  0  0  0  0  0  0  0  0  0  0
   58.3710   30.7577   49.8217 H   0  0  0  0  0  0  0  0  0  0  0  0
   58.8893   30.3316   52.7918 H   0  0  0  0  0  0  0  0  0  0  0  0
   59.4359   29.2980   51.3951 H   0  0  0  0  0  0  0  0  0  0  0  0
   61.0714   31.0529   52.5504 H   0  0  0  0  0  0  0  0  0  0  0  0
   61.0357   30.7495   50.7300 H   0  0  0  0  0  0  0  0  0  0  0  0
   60.8228   35.1350   49.5097 H   0  0  0  0  0  0  0  0  0  0  0  0
   62.1592   34.3227   50.3812 H   0  0  0  0  0  0  0  0  0  0  0  0
   58.8994   34.4906   44.0767 H   0  0  0  0  0  0  0  0  0  0  0  0
   57.6616   32.9778   42.5282 H   0  0  0  0  0  0  0  0  0  0  0  0
  1  2  1  0
  2  3  2  0
  3  4  1  0
  4  5  2  0
  5  6  1  0
  6  7  2  0
  6  8  2  0
  6  9  1  0
  9 10  1  0
 10 11  1  0
 11 12  1  0
 12 13  1  0
 13 14  1  0
 14 15  1  0
 15 16  1  0
 16 17  1  0
 17 18  1  0
 17 19  1  0
 19 20  1  0
 20 21  1  0
 21 22  1  0
 22 23  1  0
 16 24  1  0
  5 25  1  0
 25 26  2  0
 26  2  1  0
 14  9  1  0
 23 17  1  0
 24 10  1  0
  1 27  1  0
  1 28  1  0
  1 29  1  0
  3 30  1  0
  4 31  1  0
 10 32  1  6
 11 33  1  0
 11 34  1  0
 12 35  1  0
 12 36  1  0
 13 37  1  0
 13 38  1  0
 14 39  1  6
 15 40  1  0
 15 41  1  0
 16 42  1  6
 18 43  1  0
 18 44  1  0
 18 45  1  0
 19 46  1  0
 19 47  1  0
 20 48  1  0
 20 49  1  0
 21 50  1  0
 21 51  1  0
 22 52  1  0
 22 53  1  0
 23 54  1  0
 23 55  1  0
 24 56  1  0
 24 57  1  0
 25 58  1  0
 26 59  1  0
M  CHG  1  17   1
M  END
>  <UniqueID>  (65) 
56

>  <SMILES>  (65) 
Cc1ccc(S(=O)(=O)N2[C@H]3CCC[C@H]2CC([N+]2(C)CCCCC2)C3)cc1

>  <Energy>  (65) 
201.0624873300916

>  <Genealogy>  (65) 
Cc1ccc(S(=O)(=O)N2[C@H]3CCC[C@H]2CC([N+]2(C)CCCCC2)C3)cc1 (chirality)
Cc1ccc(S(=O)(=O)N2[C@H]3CCC[C@H]2CC([N+]2(C)CCCCC2)C3)cc1 (3D coordinates assigned)
Cc1ccc(S(=O)(=O)N2[C@H]3CCC[C@H]2CC([N+]2(C)CCCCC2)C3)cc1 (nonaromatic ring conformer: 201.0624873300916 kcal/mol)

>  <smiles>  (65) 
Cc1ccc(S(=O)(=O)N2C3CCCC2CC([N+]2(C)CCCCC2)C3)cc1

>  <score_type>  (65) 
oracle

>  <origin>  (65) 
adg

>  <m_score__min__energy>  (65) 
-7.4500000000000002

>  <m_primary>  (65) 
energy

$$$$
65:0
     RDKit          3D

 34 36  0  0  0  0  0  0  0  0999 V2000
   55.7010   28.7170   44.8720 N   0  0  0  0  0  0  0  0  0  0  0  0
   56.5370   29.6700   44.2000 C   0  0  0  0  0  0  0  0  0  0  0  0
   56.1370   30.1690   42.9510 C   0  0  0  0  0  0  0  0  0  0  0  0
   56.9040   31.1310   42.2920 C   0  0  0  0  0  0  0  0  0  0  0  0
   58.0790   31.6070   42.8740 C   0  0  0  0  0  0  0  0  0  0  0  0
   58.4950   31.1160   44.1130 C   0  0  0  0  0  0  0  0  0  0  0  0
   57.7350   30.1450   44.7870 C   0  0  0  0  0  0  0  0  0  0  0  0
   58.2210   29.6360   46.0910 C   0  0  0  0  0  0  0  0  0  0  0  0
   58.1420   28.2570   46.3500 C   0  0  0  0  0  0  0  0  0  0  0  0
   58.6530   27.7280   47.5350 C   0  0  0  0  0  0  0  0  0  0  0  0
   59.2570   28.5660   48.4720 C   0  0  0  0  0  0  0  0  0  0  0  0
   59.3480   29.9380   48.2290 C   0  0  0  0  0  0  0  0  0  0  0  0
   58.8280   30.4910   47.0460 C   0  0  0  0  0  0  0  0  0  0  0  0
   58.9160   31.9570   46.8410 C   0  0  0  0  0  0  0  0  0  0  0  0
   57.7520   32.7280   46.6810 C   0  0  0  0  0  0  0  0  0  0  0  0
   57.8420   34.1090   46.4800 C   0  0  0  0  0  0  0  0  0  0  0  0
   59.0930   34.7310   46.4470 C   0  0  0  0  0  0  0  0  0  0  0  0
   60.2550   33.9740   46.6170 C   0  0  0  0  0  0  0  0  0  0  0  0
   60.1690   32.5920   46.8160 C   0  0  0  0  0  0  0  0  0  0  0  0
   55.9970   27.7200   44.9570 H   0  0  0  0  0  0  0  0  0  0  0  0
   54.7620   28.9730   45.2480 H   0  0  0  0  0  0  0  0  0  0  0  0
   55.2108   29.7988   42.4872 H   0  0  0  0  0  0  0  0  0  0  0  0
   56.5816   31.5142   41.3126 H   0  0  0  0  0  0  0  0  0  0  0  0
   58.6785   32.3701   42.3561 H   0  0  0  0  0  0  0  0  0  0  0  0
   59.4247   31.4921   44.5650 H   0  0  0  0  0  0  0  0  0  0  0  0
   57.6733   27.5894   45.6121 H   0  0  0  0  0  0  0  0  0  0  0  0
   58.5795   26.6481   47.7309 H   0  0  0  0  0  0  0  0  0  0  0  0
   59.6624   28.1454   49.4041 H   0  0  0  0  0  0  0  0  0  0  0  0
   59.8310   30.5919   48.9700 H   0  0  0  0  0  0  0  0  0  0  0  0
   56.7653   32.2429   46.7140 H   0  0  0  0  0  0  0  0  0  0  0  0
   56.9276   34.7060   46.3478 H   0  0  0  0  0  0  0  0  0  0  0  0
   59.1629   35.8171   46.2871 H   0  0  0  0  0  0  0  0  0  0  0  0
   61.2389   34.4654   46.5943 H   0  0  0  0  0  0  0  0  0  0  0  0
   61.0860   32.0002   46.9534 H   0  0  0  0  0  0  0  0  0  0  0  0
  1  2  1  0
  2  3  2  0
  3  4  1  0
  4  5  2  0
  5  6  1  0
  6  7  2  0
  7  8  1  0
  8  9  2  0
  9 10  1  0
 10 11  2  0
 11 12  1  0
 12 13  2  0
 13 14  1  0
 14 15  2  0
 15 16  1  0
 16 17  2  0
 17 18  1  0
 18 19  2  0
  7  2  1  0
 13  8  1  0
 19 14  1  0
  1 20  1  0
  1 21  1  0
  3 22  1  0
  4 23  1  0
  5 24  1  0
  6 25  1  0
  9 26  1  0
 10 27  1  0
 11 28  1  0
 12 29  1  0
 15 30  1  0
 16 31  1  0
 17 32  1  0
 18 33  1  0
 19 34  1  0
M  END
>  <UniqueID>  (66) 
57

>  <SMILES>  (66) 
Nc1ccccc1-c1ccccc1-c1ccccc1

>  <Energy>  (66) 
50.343103910680476

>  <Genealogy>  (66) 
Nc1ccccc1-c1ccccc1-c1ccccc1 (3D coordinates assigned)
Nc1ccccc1-c1ccccc1-c1ccccc1 (optimized conformer: 50.343103910680476 kcal/mol)

>  <smiles>  (66) 
Nc1ccccc1-c1ccccc1-c1ccccc1

>  <score_type>  (66) 
oracle

>  <origin>  (66) 
adg

>  <m_score__min__energy>  (66) 
-7.8200000000000003

>  <m_primary>  (66) 
energy

$$$$
66:0
     RDKit          3D

 39 42  0  0  0  0  0  0  0  0999 V2000
   53.9700   23.4320   45.3530 C   0  0  0  0  0  0  0  0  0  0  0  0
   55.2460   24.1420   45.4070 N   0  0  0  0  0  0  0  0  0  0  0  0
   55.4320   25.4540   45.6890 C   0  0  0  0  0  0  0  0  0  0  0  0
   54.3940   26.3410   45.9550 O   0  0  0  0  0  0  0  0  0  0  0  0
   56.7890   25.7610   45.7290 C   0  0  0  0  0  0  0  0  0  0  0  0
   57.3990   27.0150   46.0710 N   0  0  0  0  0  0  0  0  0  0  0  0
   57.6390   28.0600   45.1160 C   0  0  0  0  0  0  0  0  0  0  0  0
   57.6350   27.8050   43.8820 O   0  0  0  0  0  0  0  0  0  0  0  0
   57.9400   29.4320   45.5590 C   0  0  0  0  0  0  0  0  0  0  0  0
   59.0690   29.8550   46.2340 C   0  0  0  0  0  0  0  0  0  0  0  0
   58.8500   31.2080   46.4210 C   0  0  0  0  0  0  0  0  0  0  0  0
   59.7380   32.1820   47.0950 C   0  0  0  0  0  0  0  0  0  0  0  0
   61.1340   31.9970   47.1370 C   0  0  0  0  0  0  0  0  0  0  0  0
   61.9510   32.9310   47.7800 C   0  0  0  0  0  0  0  0  0  0  0  0
   61.3890   34.0570   48.3860 C   0  0  0  0  0  0  0  0  0  0  0  0
   62.1850   34.9620   49.0090 F   0  0  0  0  0  0  0  0  0  0  0  0
   60.0060   34.2510   48.3500 C   0  0  0  0  0  0  0  0  0  0  0  0
   59.1830   33.3200   47.7090 C   0  0  0  0  0  0  0  0  0  0  0  0
   57.6880   31.5180   45.8910 O   0  0  0  0  0  0  0  0  0  0  0  0
   57.1120   30.4760   45.3660 N   0  0  0  0  0  0  0  0  0  0  0  0
   57.4480   24.5680   45.5090 C   0  0  0  0  0  0  0  0  0  0  0  0
   58.8080   24.2630   45.4800 C   0  0  0  0  0  0  0  0  0  0  0  0
   59.1770   22.9270   45.2440 C   0  0  0  0  0  0  0  0  0  0  0  0
   58.1900   21.9360   45.0490 C   0  0  0  0  0  0  0  0  0  0  0  0
   56.8240   22.2700   45.0850 C   0  0  0  0  0  0  0  0  0  0  0  0
   56.4820   23.6060   45.3130 C   0  0  0  0  0  0  0  0  0  0  0  0
   53.6163   23.2352   46.3758 H   0  0  0  0  0  0  0  0  0  0  0  0
   53.2299   24.0480   44.8213 H   0  0  0  0  0  0  0  0  0  0  0  0
   54.1033   22.4783   44.8213 H   0  0  0  0  0  0  0  0  0  0  0  0
   57.7640   27.1290   47.0400 H   0  0  0  0  0  0  0  0  0  0  0  0
   59.9371   29.2570   46.5484 H   0  0  0  0  0  0  0  0  0  0  0  0
   61.5833   31.1128   46.6612 H   0  0  0  0  0  0  0  0  0  0  0  0
   63.0400   32.7789   47.8089 H   0  0  0  0  0  0  0  0  0  0  0  0
   59.5636   35.1380   48.8269 H   0  0  0  0  0  0  0  0  0  0  0  0
   58.0947   33.4782   47.6845 H   0  0  0  0  0  0  0  0  0  0  0  0
   59.5680   25.0426   45.6367 H   0  0  0  0  0  0  0  0  0  0  0  0
   60.2415   22.6519   45.2110 H   0  0  0  0  0  0  0  0  0  0  0  0
   58.4920   20.8940   44.8674 H   0  0  0  0  0  0  0  0  0  0  0  0
   56.0489   21.5034   44.9382 H   0  0  0  0  0  0  0  0  0  0  0  0
  1  2  1  0
  2  3  1  0
  3  4  1  0
  3  5  2  0
  5  6  1  0
  6  7  1  0
  7  8  2  0
  7  9  1  0
  9 10  1  0
 10 11  2  0
 11 12  1  0
 12 13  2  0
 13 14  1  0
 14 15  2  0
 15 16  1  0
 15 17  1  0
 17 18  2  0
 11 19  1  0
 19 20  1  0
  5 21  1  0
 21 22  2  0
 22 23  1  0
 23 24  2  0
 24 25  1  0
 25 26  2  0
 26  2  1  0
 20  9  2  0
 26 21  1  0
 18 12  1  0
  1 27  1  0
  1 28  1  0
  1 29  1  0
  6 30  1  0
 10 31  1  0
 13 32  1  0
 14 33  1  0
 17 34  1  0
 18 35  1  0
 22 36  1  0
 23 37  1  0
 24 38  1  0
 25 39  1  0
M  CHG  1   4  -1
M  END
>  <UniqueID>  (67) 
58

>  <SMILES>  (67) 
Cn1c([O-])c(NC(=O)c2cc(-c3ccc(F)cc3)on2)c2ccccc21

>  <Energy>  (67) 
113.51324418993225

>  <Genealogy>  (67) 
Cn1c([O-])c(NC(=O)c2cc(-c3ccc(F)cc3)on2)c2ccccc21 (protonated)
Cn1c([O-])c(NC(=O)c2cc(-c3ccc(F)cc3)on2)c2ccccc21 (3D coordinates assigned)
Cn1c([O-])c(NC(=O)c2cc(-c3ccc(F)cc3)on2)c2ccccc21 (optimized conformer: 113.51324418993225 kcal/mol)

>  <smiles>  (67) 
Cn1c(O)c(NC(=O)c2cc(-c3ccc(F)cc3)on2)c2ccccc21

>  <score_type>  (67) 
oracle

>  <origin>  (67) 
adg

>  <m_score__min__energy>  (67) 
-11.65

>  <m_primary>  (67) 
energy

$$$$
67:0
     RDKit          3D

 39 41  0  0  0  0  0  0  0  0999 V2000
   61.5170   29.9080   49.4430 C   0  0  0  0  0  0  0  0  0  0  0  0
   60.5430   29.7990   48.3060 C   0  0  0  0  0  0  0  0  0  0  0  0
   60.4960   30.7890   47.3240 C   0  0  0  0  0  0  0  0  0  0  0  0
   59.6170   30.6790   46.2460 C   0  0  0  0  0  0  0  0  0  0  0  0
   58.7560   29.5620   46.1130 C   0  0  0  0  0  0  0  0  0  0  0  0
   58.8200   28.5480   47.1090 C   0  0  0  0  0  0  0  0  0  0  0  0
   59.7200   28.6750   48.1870 C   0  0  0  0  0  0  0  0  0  0  0  0
   57.9740   27.4290   47.0150 C   0  0  0  0  0  0  0  0  0  0  0  0
   58.0320   26.5220   47.8920 O   0  0  0  0  0  0  0  0  0  0  0  0
   57.0650   27.3230   45.9490 C   0  0  0  0  0  0  0  0  0  0  0  0
   56.1390   26.1660   45.8070 C   0  0  0  0  0  0  0  0  0  0  0  0
   56.5740   25.0140   45.5390 O   0  0  0  0  0  0  0  0  0  0  0  0
   54.7690   26.3380   45.9690 O   0  0  0  0  0  0  0  0  0  0  0  0
   57.0280   28.3480   44.9970 C   0  0  0  0  0  0  0  0  0  0  0  0
   57.8580   29.4360   45.0670 N   0  0  0  0  0  0  0  0  0  0  0  0
   57.6880   30.4550   44.0080 C   0  0  0  0  0  0  0  0  0  0  0  0
   56.7910   31.6140   44.4780 C   0  0  0  0  0  0  0  0  0  0  0  0
   57.5900   32.7650   45.0270 C   0  0  0  0  0  0  0  0  0  0  0  0
   58.5390   33.4170   44.2220 C   0  0  0  0  0  0  0  0  0  0  0  0
   59.3230   34.4470   44.7520 C   0  0  0  0  0  0  0  0  0  0  0  0
   59.1670   34.8320   46.0860 C   0  0  0  0  0  0  0  0  0  0  0  0
   58.2250   34.1880   46.8930 C   0  0  0  0  0  0  0  0  0  0  0  0
   57.4370   33.1600   46.3680 C   0  0  0  0  0  0  0  0  0  0  0  0
   60.9742   29.8473   50.3978 H   0  0  0  0  0  0  0  0  0  0  0  0
   62.2451   29.0857   49.3822 H   0  0  0  0  0  0  0  0  0  0  0  0
   62.0454   30.8709   49.3822 H   0  0  0  0  0  0  0  0  0  0  0  0
   61.1579   31.6642   47.4003 H   0  0  0  0  0  0  0  0  0  0  0  0
   59.5922   31.4738   45.4859 H   0  0  0  0  0  0  0  0  0  0  0  0
   59.7754   27.8792   48.9444 H   0  0  0  0  0  0  0  0  0  0  0  0
   56.3101   28.2781   44.1665 H   0  0  0  0  0  0  0  0  0  0  0  0
   58.6757   30.8554   43.7356 H   0  0  0  0  0  0  0  0  0  0  0  0
   57.2070   29.9758   43.1425 H   0  0  0  0  0  0  0  0  0  0  0  0
   56.1968   31.9708   43.6239 H   0  0  0  0  0  0  0  0  0  0  0  0
   56.1458   31.2358   45.2846 H   0  0  0  0  0  0  0  0  0  0  0  0
   58.6659   33.1165   43.1715 H   0  0  0  0  0  0  0  0  0  0  0  0
   60.0639   34.9550   44.1172 H   0  0  0  0  0  0  0  0  0  0  0  0
   59.7853   35.6416   46.5009 H   0  0  0  0  0  0  0  0  0  0  0  0
   58.1035   34.4908   47.9435 H   0  0  0  0  0  0  0  0  0  0  0  0
   56.6946   32.6581   47.0059 H   0  0  0  0  0  0  0  0  0  0  0  0
  1  2  1  0
  2  3  2  0
  3  4  1  0
  4  5  2  0
  5  6  1  0
  6  7  2  0
  6  8  1  0
  8  9  2  0
  8 10  1  0
 10 11  1  0
 11 12  2  0
 11 13  1  0
 10 14  2  0
 14 15  1  0
 15 16  1  0
 16 17  1  0
 17 18  1  0
 18 19  2  0
 19 20  1  0
 20 21  2  0
 21 22  1  0
 22 23  2  0
  7  2  1  0
 23 18  1  0
 15  5  1  0
  1 24  1  0
  1 25  1  0
  1 26  1  0
  3 27  1  0
  4 28  1  0
  7 29  1  0
 14 30  1  0
 16 31  1  0
 16 32  1  0
 17 33  1  0
 17 34  1  0
 19 35  1  0
 20 36  1  0
 21 37  1  0
 22 38  1  0
 23 39  1  0
M  CHG  1  13  -1
M  END
>  <UniqueID>  (68) 
59

>  <SMILES>  (68) 
Cc1ccc2c(c1)c(=O)c(C(=O)[O-])cn2CCc1ccccc1

>  <Energy>  (68) 
49.79098964290181

>  <Genealogy>  (68) 
Cc1ccc2c(c1)c(=O)c(C(=O)[O-])cn2CCc1ccccc1 (protonated)
Cc1ccc2c(c1)c(=O)c(C(=O)[O-])cn2CCc1ccccc1 (3D coordinates assigned)
Cc1ccc2c(c1)c(=O)c(C(=O)[O-])cn2CCc1ccccc1 (optimized conformer: 49.79098964290181 kcal/mol)

>  <smiles>  (68) 
Cc1ccc2c(c1)c(=O)c(C(=O)O)cn2CCc1ccccc1

>  <score_type>  (68) 
oracle

>  <origin>  (68) 
adg

>  <m_score__min__energy>  (68) 
-9.9499999999999993

>  <m_primary>  (68) 
energy

$$$$
68:0
     RDKit          3D

 38 40  0  0  0  0  0  0  0  0999 V2000
   60.8260   30.4680   46.6920 C   0  0  0  0  0  0  0  0  0  0  0  0
   59.6980   31.2700   47.0320 O   0  0  0  0  0  0  0  0  0  0  0  0
   59.2960   32.3960   46.2970 C   0  0  0  0  0  0  0  0  0  0  0  0
   58.1810   32.3680   45.4260 C   0  0  0  0  0  0  0  0  0  0  0  0
   57.4420   31.1230   45.1240 C   0  0  0  0  0  0  0  0  0  0  0  0
   57.7300   29.9930   45.7870 C   0  0  0  0  0  0  0  0  0  0  0  0
   57.0220   28.7060   45.4570 C   0  0  0  0  0  0  0  0  0  0  0  0
   55.7490   28.9320   44.8790 O   0  0  0  0  0  0  0  0  0  0  0  0
   55.8870   29.7350   43.7240 C   0  0  0  0  0  0  0  0  0  0  0  0
   56.3220   31.1540   44.1140 C   0  0  0  0  0  0  0  0  0  0  0  0
   57.8180   33.5410   44.7500 C   0  0  0  0  0  0  0  0  0  0  0  0
   58.5440   34.6770   44.9010 N   0  0  0  0  0  0  0  0  0  0  0  0
   59.6430   34.7190   45.6990 C   0  0  0  0  0  0  0  0  0  0  0  0
   60.0440   33.5850   46.4180 C   0  0  0  0  0  0  0  0  0  0  0  0
   61.2310   33.6650   47.3030 C   0  0  0  0  0  0  0  0  0  0  0  0
   61.0710   33.9180   48.6770 C   0  0  0  0  0  0  0  0  0  0  0  0
   62.1880   33.9870   49.5170 C   0  0  0  0  0  0  0  0  0  0  0  0
   63.4690   33.7970   48.9940 C   0  0  0  0  0  0  0  0  0  0  0  0
   63.6380   33.5340   47.6330 C   0  0  0  0  0  0  0  0  0  0  0  0
   62.5240   33.4650   46.7900 C   0  0  0  0  0  0  0  0  0  0  0  0
   61.3178   30.1183   47.6117 H   0  0  0  0  0  0  0  0  0  0  0  0
   60.4949   29.6014   46.1010 H   0  0  0  0  0  0  0  0  0  0  0  0
   61.5358   31.0653   46.1010 H   0  0  0  0  0  0  0  0  0  0  0  0
   58.4918   30.0069   46.5804 H   0  0  0  0  0  0  0  0  0  0  0  0
   57.6376   28.1343   44.7469 H   0  0  0  0  0  0  0  0  0  0  0  0
   56.8747   28.1500   46.3947 H   0  0  0  0  0  0  0  0  0  0  0  0
   56.6452   29.2917   43.0617 H   0  0  0  0  0  0  0  0  0  0  0  0
   54.9186   29.7864   43.2048 H   0  0  0  0  0  0  0  0  0  0  0  0
   56.6655   31.6842   43.2135 H   0  0  0  0  0  0  0  0  0  0  0  0
   55.4615   31.6708   44.5639 H   0  0  0  0  0  0  0  0  0  0  0  0
   56.9369   33.5404   44.0914 H   0  0  0  0  0  0  0  0  0  0  0  0
   58.2610   35.5360   44.3790 H   0  0  0  0  0  0  0  0  0  0  0  0
   60.2224   35.6504   45.7813 H   0  0  0  0  0  0  0  0  0  0  0  0
   60.0631   34.0623   49.0934 H   0  0  0  0  0  0  0  0  0  0  0  0
   62.0571   34.1910   50.5900 H   0  0  0  0  0  0  0  0  0  0  0  0
   64.3462   33.8546   49.6552 H   0  0  0  0  0  0  0  0  0  0  0  0
   64.6475   33.3810   47.2238 H   0  0  0  0  0  0  0  0  0  0  0  0
   62.6608   33.2530   45.7193 H   0  0  0  0  0  0  0  0  0  0  0  0
  1  2  1  0
  2  3  1  0
  3  4  2  0
  4  5  1  0
  5  6  2  0
  6  7  1  0
  7  8  1  0
  8  9  1  0
  9 10  1  0
  4 11  1  0
 11 12  2  0
 12 13  1  0
 13 14  2  0
 14 15  1  0
 15 16  2  0
 16 17  1  0
 17 18  2  0
 18 19  1  0
 19 20  2  0
 14  3  1  0
 20 15  1  0
 10  5  1  0
  1 21  1  0
  1 22  1  0
  1 23  1  0
  6 24  1  0
  7 25  1  0
  7 26  1  0
  9 27  1  0
  9 28  1  0
 10 29  1  0
 10 30  1  0
 11 31  1  0
 12 32  1  0
 13 33  1  0
 16 34  1  0
 17 35  1  0
 18 36  1  0
 19 37  1  0
 20 38  1  0
M  CHG  1  12   1
M  END
>  <UniqueID>  (69) 
60

>  <SMILES>  (69) 
COc1c(C2=CCOCC2)c[nH+]cc1-c1ccccc1

>  <Energy>  (69) 
60.55079891955106

>  <Genealogy>  (69) 
COc1c(C2=CCOCC2)c[nH+]cc1-c1ccccc1 (protonated)
COc1c(C2=CCOCC2)c[nH+]cc1-c1ccccc1 (3D coordinates assigned)
COc1c(C2=CCOCC2)c[nH+]cc1-c1ccccc1 (nonaromatic ring conformer: 60.55079891955106 kcal/mol)

>  <smiles>  (69) 
COc1c(C2=CCOCC2)cncc1-c1ccccc1

>  <score_type>  (69) 
oracle

>  <origin>  (69) 
adg

>  <m_score__min__energy>  (69) 
-5.8300000000000001

>  <m_primary>  (69) 
energy

$$$$
69:0
     RDKit          3D

 41 44  0  0  0  0  0  0  0  0999 V2000
   59.4994   28.0831   44.6817 H   0  0  0  0  0  0  0  0  0  0  0  0
   58.7060   28.8310   44.8270 C   0  0  0  0  0  0  0  0  0  0  0  0
   58.7380   30.4250   44.2810 S   0  0  0  0  0  0  0  0  0  0  0  0
   57.2100   30.7790   44.9060 C   0  0  0  0  0  0  0  0  0  0  0  0
   56.6050   31.9300   44.8580 N   0  0  0  0  0  0  0  0  0  0  0  0
   57.1690   33.1860   45.2600 C   0  0  0  0  0  0  0  0  0  0  0  0
   56.6430   34.2470   44.8310 O   0  0  0  0  0  0  0  0  0  0  0  0
   58.3870   33.2660   46.1030 C   0  0  0  0  0  0  0  0  0  0  0  0
   58.4230   32.6680   47.3730 C   0  0  0  0  0  0  0  0  0  0  0  0
   57.5364   32.1388   47.7524 H   0  0  0  0  0  0  0  0  0  0  0  0
   59.5770   32.7400   48.1590 C   0  0  0  0  0  0  0  0  0  0  0  0
   59.5868   32.2784   49.1574 H   0  0  0  0  0  0  0  0  0  0  0  0
   60.7240   33.3970   47.6840 C   0  0  0  0  0  0  0  0  0  0  0  0
   61.9140   33.4870   48.4920 N   0  0  0  0  0  0  0  0  0  0  0  0
   63.1840   32.8900   48.2200 C   0  0  0  0  0  0  0  0  0  0  0  0
   63.4940   32.3180   47.1400 O   0  0  0  0  0  0  0  0  0  0  0  0
   64.0740   33.1080   49.3310 C   0  0  0  0  0  0  0  0  0  0  0  0
   65.3950   32.7130   49.5240 C   0  0  0  0  0  0  0  0  0  0  0  0
   65.9254   32.1307   48.7561 H   0  0  0  0  0  0  0  0  0  0  0  0
   66.0370   33.0750   50.7230 C   0  0  0  0  0  0  0  0  0  0  0  0
   67.3660   32.6720   50.9110 O   0  0  0  0  0  0  0  0  0  0  0  0
   68.4840   33.5540   50.8900 C   0  0  0  0  0  0  0  0  0  0  0  0
   68.7838   33.7905   51.9216 H   0  0  0  0  0  0  0  0  0  0  0  0
   69.3221   33.0712   50.3661 H   0  0  0  0  0  0  0  0  0  0  0  0
   68.2096   34.4815   50.3661 H   0  0  0  0  0  0  0  0  0  0  0  0
   65.3270   33.8300   51.6940 C   0  0  0  0  0  0  0  0  0  0  0  0
   65.8241   34.1152   52.6329 H   0  0  0  0  0  0  0  0  0  0  0  0
   63.9950   34.2160   51.4660 C   0  0  0  0  0  0  0  0  0  0  0  0
   63.4444   34.8022   52.2164 H   0  0  0  0  0  0  0  0  0  0  0  0
   63.3860   33.8410   50.2700 C   0  0  0  0  0  0  0  0  0  0  0  0
   61.9920   34.1470   49.8040 C   0  0  0  0  0  0  0  0  0  0  0  0
   61.8393   35.2321   49.7076 H   0  0  0  0  0  0  0  0  0  0  0  0
   61.2201   33.7972   50.5053 H   0  0  0  0  0  0  0  0  0  0  0  0
   60.6870   33.9930   46.4130 C   0  0  0  0  0  0  0  0  0  0  0  0
   61.5738   34.5215   46.0331 H   0  0  0  0  0  0  0  0  0  0  0  0
   59.5340   33.9210   45.6260 C   0  0  0  0  0  0  0  0  0  0  0  0
   59.5250   34.3804   44.6266 H   0  0  0  0  0  0  0  0  0  0  0  0
   56.6820   29.7090   45.5360 N   0  0  0  0  0  0  0  0  0  0  0  0
   55.7500   29.7080   46.0080 H   0  0  0  0  0  0  0  0  0  0  0  0
   57.5030   28.6250   45.4930 C   0  0  0  0  0  0  0  0  0  0  0  0
   57.2358   27.6606   45.9496 H   0  0  0  0  0  0  0  0  0  0  0  0
  1  2  1  0
  2  3  1  0
  3  4  1  0
  4  5  2  0
  5  6  1  0
  6  7  2  0
  6  8  1  0
  8  9  2  0
  9 10  1  0
  9 11  1  0
 11 12  1  0
 11 13  2  0
 13 14  1  0
 14 15  1  0
 15 16  2  0
 15 17  1  0
 17 18  2  0
 18 19  1  0
 18 20  1  0
 20 21  1  0
 21 22  1  0
 22 23  1  0
 22 24  1  0
 22 25  1  0
 20 26  2  0
 26 27  1  0
 26 28  1  0
 28 29  1  0
 28 30  2  0
 30 31  1  0
 31 32  1  0
 31 33  1  0
 13 34  1  0
 34 35  1  0
 34 36  2  0
 36 37  1  0
  4 38  1  0
 38 39  1  0
 38 40  1  0
 40 41  1  0
 40  2  2  0
 36  8  1  0
 31 14  1  0
 30 17  1  0
M  END
>  <UniqueID>  (70) 
61

>  <SMILES>  (70) 
COc1ccc2c(c1)C(=O)N(c1ccc(C(=O)/N=c3/[nH]ccs3)cc1)C2

>  <Energy>  (70) 
108.74075567906853

>  <Genealogy>  (70) 
COc1ccc2c(c1)C(=O)N(c1ccc(C(=O)/N=c3/[nH]ccs3)cc1)C2 (cis-trans isomerization)
COc1ccc2c(c1)C(=O)N(c1ccc(C(=O)/N=c3/[nH]ccs3)cc1)C2 (3D coordinates assigned)
COc1ccc2c(c1)C(=O)N(c1ccc(C(=O)/N=c3/[nH]ccs3)cc1)C2 (nonaromatic ring conformer: 108.74075567906853 kcal/mol)

>  <smiles>  (70) 
COc1ccc2c(c1)C(=O)N(c1ccc(C(=O)N=c3[nH]ccs3)cc1)C2

>  <score_type>  (70) 
oracle

>  <origin>  (70) 
adg

>  <m_score__min__energy>  (70) 
-7.8899999999999997

>  <m_primary>  (70) 
energy

$$$$
70:0
     RDKit          3D

 41 43  0  0  0  0  0  0  0  0999 V2000
   60.1051   35.5705   47.5091 H   0  0  0  0  0  0  0  0  0  0  0  0
   60.3310   34.5120   47.3130 C   0  0  0  0  0  0  0  0  0  0  0  0
   59.5310   33.8590   46.4390 C   0  0  0  0  0  0  0  0  0  0  0  0
   59.0370   34.4500   45.1640 C   0  0  0  0  0  0  0  0  0  0  0  0
   59.2650   35.6480   44.8570 O   0  0  0  0  0  0  0  0  0  0  0  0
   58.3180   33.6330   44.2320 N   0  0  0  0  0  0  0  0  0  0  0  0
   58.1650   32.3510   44.3840 C   0  0  0  0  0  0  0  0  0  0  0  0
   58.7420   31.6670   45.5070 N   0  0  0  0  0  0  0  0  0  0  0  0
   59.1780   32.4280   46.6520 C   0  0  0  0  0  0  0  0  0  0  0  0
   59.1020   31.9200   47.8510 N   0  0  0  0  0  0  0  0  0  0  0  0
   58.3710   32.2240   48.5290 H   0  0  0  0  0  0  0  0  0  0  0  0
   59.8150   31.2540   48.2200 H   0  0  0  0  0  0  0  0  0  0  0  0
   58.8510   30.2080   45.4220 C   0  0  0  0  0  0  0  0  0  0  0  0
   59.4116   29.9372   44.5152 H   0  0  0  0  0  0  0  0  0  0  0  0
   59.3769   29.8336   46.3127 H   0  0  0  0  0  0  0  0  0  0  0  0
   57.4580   29.5800   45.3620 C   0  0  0  0  0  0  0  0  0  0  0  0
   57.5728   28.5160   45.1075 H   0  0  0  0  0  0  0  0  0  0  0  0
   57.0017   29.7427   46.3496 H   0  0  0  0  0  0  0  0  0  0  0  0
   56.3170   30.3460   44.1290 S   0  0  0  0  0  0  0  0  0  0  0  0
   57.4390   31.5600   43.3410 C   0  0  0  0  0  0  0  0  0  0  0  0
   58.1703   31.0259   42.7165 H   0  0  0  0  0  0  0  0  0  0  0  0
   56.8439   32.2469   42.7213 H   0  0  0  0  0  0  0  0  0  0  0  0
   61.4810   33.9230   48.0250 C   0  0  0  0  0  0  0  0  0  0  0  0
   62.6270   33.5200   47.3250 C   0  0  0  0  0  0  0  0  0  0  0  0
   62.6564   33.6033   46.2286 H   0  0  0  0  0  0  0  0  0  0  0  0
   63.7320   33.0130   48.0140 C   0  0  0  0  0  0  0  0  0  0  0  0
   64.6188   32.6853   47.4517 H   0  0  0  0  0  0  0  0  0  0  0  0
   63.7250   32.9160   49.4210 C   0  0  0  0  0  0  0  0  0  0  0  0
   64.8720   32.3870   50.1370 N   0  0  0  0  0  0  0  0  0  0  0  0
   66.1620   33.0870   50.1010 C   0  0  0  0  0  0  0  0  0  0  0  0
   66.5065   33.2740   51.1288 H   0  0  0  0  0  0  0  0  0  0  0  0
   66.9014   32.4664   49.5736 H   0  0  0  0  0  0  0  0  0  0  0  0
   66.0446   34.0452   49.5736 H   0  0  0  0  0  0  0  0  0  0  0  0
   64.7620   31.1420   50.9080 C   0  0  0  0  0  0  0  0  0  0  0  0
   64.7825   31.3735   51.9832 H   0  0  0  0  0  0  0  0  0  0  0  0
   63.8159   30.6390   50.6592 H   0  0  0  0  0  0  0  0  0  0  0  0
   65.6052   30.4809   50.6592 H   0  0  0  0  0  0  0  0  0  0  0  0
   62.5770   33.3560   50.1140 C   0  0  0  0  0  0  0  0  0  0  0  0
   62.5504   33.2998   51.2122 H   0  0  0  0  0  0  0  0  0  0  0  0
   61.4740   33.8620   49.4220 C   0  0  0  0  0  0  0  0  0  0  0  0
   60.5940   34.2148   49.9798 H   0  0  0  0  0  0  0  0  0  0  0  0
  1  2  1  0
  2  3  2  0
  3  4  1  0
  4  5  2  0
  4  6  1  0
  6  7  2  0
  7  8  1  0
  8  9  1  0
  9 10  2  0
 10 11  1  0
 10 12  1  0
  8 13  1  0
 13 14  1  0
 13 15  1  0
 13 16  1  0
 16 17  1  0
 16 18  1  0
 16 19  1  0
 19 20  1  0
 20 21  1  0
 20 22  1  0
  2 23  1  0
 23 24  2  0
 24 25  1  0
 24 26  1  0
 26 27  1  0
 26 28  2  0
 28 29  1  0
 29 30  1  0
 30 31  1  0
 30 32  1  0
 30 33  1  0
 29 34  1  0
 34 35  1  0
 34 36  1  0
 34 37  1  0
 28 38  1  0
 38 39  1  0
 38 40  2  0
 40 41  1  0
  9  3  1  0
 40 23  1  0
 20  7  1  0
M  CHG  1  10   1
M  END
>  <UniqueID>  (71) 
62

>  <SMILES>  (71) 
CN(C)c1ccc(/C=C2/C(=[NH2+])N3CCSCC3=NC2=O)cc1

>  <Energy>  (71) 
62.24121549874304

>  <Genealogy>  (71) 
CN(C)c1ccc(C=C2C(=[NH2+])N3CCSCC3=NC2=O)cc1 (protonated)
CN(C)c1ccc(/C=C2/C(=[NH2+])N3CCSCC3=NC2=O)cc1 (cis-trans isomerization)
CN(C)c1ccc(/C=C2/C(=[NH2+])N3CCSCC3=NC2=O)cc1 (3D coordinates assigned)
CN(C)c1ccc(/C=C2/C(=[NH2+])N3CCSCC3=NC2=O)cc1 (nonaromatic ring conformer: 62.24121549874304 kcal/mol)

>  <smiles>  (71) 
CN(C)c1ccc(C=C2C(=N)N3CCSCC3=NC2=O)cc1

>  <score_type>  (71) 
oracle

>  <origin>  (71) 
adg

>  <m_score__min__energy>  (71) 
-5.79

>  <m_primary>  (71) 
energy

$$$$
71:0
     RDKit          3D

 55 58  0  0  0  0  0  0  0  0999 V2000
   55.1480   26.7400   45.9890 O   0  0  0  0  0  0  0  0  0  0  0  0
   56.4720   27.1560   45.9110 C   0  0  0  0  0  0  0  0  0  0  0  0
   56.8800   28.4180   45.5410 C   0  0  0  0  0  0  0  0  0  0  0  0
   58.2620   28.3960   45.6200 C   0  0  0  0  0  0  0  0  0  0  0  0
   59.1870   29.5400   45.3210 C   0  0  1  0  0  0  0  0  0  0  0  0
   58.8350   30.0920   44.0800 O   0  0  0  0  0  0  0  0  0  0  0  0
   59.0750   30.5590   46.3690 N   0  0  0  0  0  0  0  0  0  0  0  0
   58.7770   31.9390   46.0930 C   0  0  0  0  0  0  0  0  0  0  0  0
   57.5470   32.2450   45.4890 C   0  0  0  0  0  0  0  0  0  0  0  0
   57.2000   33.5680   45.2090 C   0  0  0  0  0  0  0  0  0  0  0  0
   58.0840   34.6000   45.5150 C   0  0  0  0  0  0  0  0  0  0  0  0
   59.3220   34.3130   46.0940 C   0  0  0  0  0  0  0  0  0  0  0  0
   59.6880   32.9870   46.3810 C   0  0  0  0  0  0  0  0  0  0  0  0
   60.9930   32.7290   46.9310 N   0  0  0  0  0  0  0  0  0  0  0  0
   61.1400   31.6810   47.9560 C   0  0  0  0  0  0  0  0  0  0  0  0
   62.5450   31.6540   48.5900 C   0  0  0  0  0  0  0  0  0  0  0  0
   63.1890   32.9060   48.4850 O   0  0  0  0  0  0  0  0  0  0  0  0
   63.4310   33.1750   47.1220 C   0  0  0  0  0  0  0  0  0  0  0  0
   62.1230   33.5060   46.4080 C   0  0  0  0  0  0  0  0  0  0  0  0
   58.6330   27.1280   46.0340 C   0  0  0  0  0  0  0  0  0  0  0  0
   57.5310   26.3720   46.2020 N   0  0  0  0  0  0  0  0  0  0  0  0
   57.4920   25.0040   46.7120 C   0  0  0  0  0  0  0  0  0  0  0  0
   58.4990   24.1340   45.9610 C   0  0  0  0  0  0  0  0  0  0  0  0
   57.8230   23.3750   44.8520 C   0  0  0  0  0  0  0  0  0  0  0  0
   56.7670   23.9660   44.1330 C   0  0  0  0  0  0  0  0  0  0  0  0
   56.1600   23.2770   43.0770 C   0  0  0  0  0  0  0  0  0  0  0  0
   56.6070   21.9980   42.7280 C   0  0  0  0  0  0  0  0  0  0  0  0
   57.6640   21.4070   43.4330 C   0  0  0  0  0  0  0  0  0  0  0  0
   58.2750   22.0940   44.4870 C   0  0  0  0  0  0  0  0  0  0  0  0
   56.2428   29.2644   45.2453 H   0  0  0  0  0  0  0  0  0  0  0  0
   60.2261   29.1804   45.2884 H   0  0  0  0  0  0  0  0  0  0  0  0
   58.7600   29.3350   43.4400 H   0  0  0  0  0  0  0  0  0  0  0  0
   59.5000   30.3390   47.2980 H   0  0  0  0  0  0  0  0  0  0  0  0
   56.8494   31.4337   45.2337 H   0  0  0  0  0  0  0  0  0  0  0  0
   56.2282   33.7955   44.7466 H   0  0  0  0  0  0  0  0  0  0  0  0
   57.8066   35.6426   45.3003 H   0  0  0  0  0  0  0  0  0  0  0  0
   60.0173   35.1328   46.3276 H   0  0  0  0  0  0  0  0  0  0  0  0
   60.4002   31.8605   48.7500 H   0  0  0  0  0  0  0  0  0  0  0  0
   60.9827   30.7113   47.4612 H   0  0  0  0  0  0  0  0  0  0  0  0
   62.4512   31.3894   49.6536 H   0  0  0  0  0  0  0  0  0  0  0  0
   63.1504   30.9105   48.0509 H   0  0  0  0  0  0  0  0  0  0  0  0
   64.1175   34.0303   47.0371 H   0  0  0  0  0  0  0  0  0  0  0  0
   63.8787   32.2852   46.6552 H   0  0  0  0  0  0  0  0  0  0  0  0
   61.9082   34.5766   46.5408 H   0  0  0  0  0  0  0  0  0  0  0  0
   62.2449   33.2505   45.3450 H   0  0  0  0  0  0  0  0  0  0  0  0
   59.6667   26.7905   46.1999 H   0  0  0  0  0  0  0  0  0  0  0  0
   57.7423   25.0079   47.7831 H   0  0  0  0  0  0  0  0  0  0  0  0
   56.4820   24.5939   46.5648 H   0  0  0  0  0  0  0  0  0  0  0  0
   59.2829   24.7763   45.5334 H   0  0  0  0  0  0  0  0  0  0  0  0
   58.9387   23.4132   46.6660 H   0  0  0  0  0  0  0  0  0  0  0  0
   56.4175   24.9736   44.4023 H   0  0  0  0  0  0  0  0  0  0  0  0
   55.3316   23.7409   42.5215 H   0  0  0  0  0  0  0  0  0  0  0  0
   56.1282   21.4558   41.8993 H   0  0  0  0  0  0  0  0  0  0  0  0
   58.0137   20.4012   43.1571 H   0  0  0  0  0  0  0  0  0  0  0  0
   59.1111   21.6314   45.0319 H   0  0  0  0  0  0  0  0  0  0  0  0
  1  2  1  0
  2  3  2  0
  3  4  1  0
  4  5  1  0
  5  6  1  0
  5  7  1  0
  7  8  1  0
  8  9  2  0
  9 10  1  0
 10 11  2  0
 11 12  1  0
 12 13  2  0
 13 14  1  0
 14 15  1  0
 15 16  1  0
 16 17  1  0
 17 18  1  0
 18 19  1  0
  4 20  2  0
 20 21  1  0
 21 22  1  0
 22 23  1  0
 23 24  1  0
 24 25  2  0
 25 26  1  0
 26 27  2  0
 27 28  1  0
 28 29  2  0
 21  2  1  0
 29 24  1  0
 13  8  1  0
 19 14  1  0
  3 30  1  0
  5 31  1  6
  6 32  1  0
  7 33  1  0
  9 34  1  0
 10 35  1  0
 11 36  1  0
 12 37  1  0
 15 38  1  0
 15 39  1  0
 16 40  1  0
 16 41  1  0
 18 42  1  0
 18 43  1  0
 19 44  1  0
 19 45  1  0
 20 46  1  0
 22 47  1  0
 22 48  1  0
 23 49  1  0
 23 50  1  0
 25 51  1  0
 26 52  1  0
 27 53  1  0
 28 54  1  0
 29 55  1  0
M  CHG  1   1  -1
M  END
>  <UniqueID>  (72) 
63

>  <SMILES>  (72) 
[O-]c1cc([C@@H](O)Nc2ccccc2N2CCOCC2)cn1CCc1ccccc1

>  <Energy>  (72) 
92.92547920750864

>  <Genealogy>  (72) 
[O-]c1cc(C(O)Nc2ccccc2N2CCOCC2)cn1CCc1ccccc1 (protonated)
[O-]c1cc([C@@H](O)Nc2ccccc2N2CCOCC2)cn1CCc1ccccc1 (chirality)
[O-]c1cc([C@@H](O)Nc2ccccc2N2CCOCC2)cn1CCc1ccccc1 (3D coordinates assigned)
[O-]c1cc([C@@H](O)Nc2ccccc2N2CCOCC2)cn1CCc1ccccc1 (nonaromatic ring conformer: 92.92547920750864 kcal/mol)

>  <smiles>  (72) 
Oc1cc(C(O)Nc2ccccc2N2CCOCC2)cn1CCc1ccccc1

>  <score_type>  (72) 
oracle

>  <origin>  (72) 
adg

>  <m_score__min__energy>  (72) 
-12.039999999999999

>  <m_primary>  (72) 
energy

$$$$
72:0
     RDKit          3D

 39 41  0  0  0  0  0  0  0  0999 V2000
   56.6270   29.0950   42.8110 N   0  0  0  0  0  0  0  0  0  0  0  0
   57.5870   28.0960   43.1770 C   0  0  0  0  0  0  0  0  0  0  0  0
   57.7420   27.0550   42.4110 N   0  0  0  0  0  0  0  0  0  0  0  0
   58.3690   28.2410   44.3850 N   0  0  0  0  0  0  0  0  0  0  0  0
   58.5440   27.1750   45.3600 C   0  0  0  0  0  0  0  0  0  0  0  0
   59.6930   27.6140   46.2570 C   0  0  0  0  0  0  0  0  0  0  0  0
   59.8150   29.1200   46.0630 C   0  0  0  0  0  0  0  0  0  0  0  0
   59.1810   29.4110   44.7020 C   0  0  2  0  0  0  0  0  0  0  0  0
   58.3520   30.6610   44.7540 C   0  0  0  0  0  0  0  0  0  0  0  0
   57.0110   30.6870   44.8840 N   0  0  0  0  0  0  0  0  0  0  0  0
   56.6680   31.9640   44.9450 N   0  0  0  0  0  0  0  0  0  0  0  0
   57.8150   32.6620   44.8580 C   0  0  0  0  0  0  0  0  0  0  0  0
   57.9170   34.4470   44.9450 S   0  0  0  0  0  0  0  0  0  0  0  0
   58.3890   34.4780   46.7120 C   0  0  0  0  0  0  0  0  0  0  0  0
   59.6630   33.7110   46.9470 C   0  0  0  0  0  0  0  0  0  0  0  0
   59.6500   32.5400   47.7230 C   0  0  0  0  0  0  0  0  0  0  0  0
   60.8390   31.8520   47.9800 C   0  0  0  0  0  0  0  0  0  0  0  0
   62.0490   32.3280   47.4680 C   0  0  0  0  0  0  0  0  0  0  0  0
   63.2030   31.6620   47.7220 F   0  0  0  0  0  0  0  0  0  0  0  0
   62.0720   33.4930   46.6970 C   0  0  0  0  0  0  0  0  0  0  0  0
   60.8840   34.1840   46.4350 C   0  0  0  0  0  0  0  0  0  0  0  0
   58.8520   31.8720   44.7370 O   0  0  0  0  0  0  0  0  0  0  0  0
   56.0380   28.9800   41.9570 H   0  0  0  0  0  0  0  0  0  0  0  0
   56.5090   29.9710   43.3650 H   0  0  0  0  0  0  0  0  0  0  0  0
   58.5960   26.9510   41.8200 H   0  0  0  0  0  0  0  0  0  0  0  0
   57.0210   26.3040   42.3470 H   0  0  0  0  0  0  0  0  0  0  0  0
   57.6259   27.0429   45.9514 H   0  0  0  0  0  0  0  0  0  0  0  0
   58.7578   26.2126   44.8720 H   0  0  0  0  0  0  0  0  0  0  0  0
   59.4700   27.3795   47.3083 H   0  0  0  0  0  0  0  0  0  0  0  0
   60.6285   27.0946   46.0020 H   0  0  0  0  0  0  0  0  0  0  0  0
   59.2770   29.6548   46.8596 H   0  0  0  0  0  0  0  0  0  0  0  0
   60.8627   29.4525   46.1039 H   0  0  0  0  0  0  0  0  0  0  0  0
   59.9418   29.5856   43.9270 H   0  0  0  0  0  0  0  0  0  0  0  0
   58.5351   35.5219   47.0264 H   0  0  0  0  0  0  0  0  0  0  0  0
   57.5850   34.0067   47.2964 H   0  0  0  0  0  0  0  0  0  0  0  0
   58.7001   32.1631   48.1300 H   0  0  0  0  0  0  0  0  0  0  0  0
   60.8224   30.9343   48.5863 H   0  0  0  0  0  0  0  0  0  0  0  0
   63.0252   33.8673   46.2955 H   0  0  0  0  0  0  0  0  0  0  0  0
   60.9053   35.1002   45.8266 H   0  0  0  0  0  0  0  0  0  0  0  0
  1  2  1  0
  2  3  2  0
  2  4  1  0
  4  5  1  0
  5  6  1  0
  6  7  1  0
  7  8  1  0
  8  9  1  0
  9 10  2  0
 10 11  1  0
 11 12  2  0
 12 13  1  0
 13 14  1  0
 14 15  1  0
 15 16  2  0
 16 17  1  0
 17 18  2  0
 18 19  1  0
 18 20  1  0
 20 21  2  0
 12 22  1  0
  8  4  1  0
 22  9  1  0
 21 15  1  0
  1 23  1  0
  1 24  1  0
  3 25  1  0
  3 26  1  0
  5 27  1  0
  5 28  1  0
  6 29  1  0
  6 30  1  0
  7 31  1  0
  7 32  1  0
  8 33  1  6
 14 34  1  0
 14 35  1  0
 16 36  1  0
 17 37  1  0
 20 38  1  0
 21 39  1  0
M  CHG  1   3   1
M  END
>  <UniqueID>  (73) 
64

>  <SMILES>  (73) 
NC(=[NH2+])N1CCC[C@@H]1c1nnc(SCc2ccc(F)cc2)o1

>  <Energy>  (73) 
68.03692544445772

>  <Genealogy>  (73) 
NC(=[NH2+])N1CCCC1c1nnc(SCc2ccc(F)cc2)o1 (protonated)
NC(=[NH2+])N1CCC[C@@H]1c1nnc(SCc2ccc(F)cc2)o1 (chirality)
NC(=[NH2+])N1CCC[C@@H]1c1nnc(SCc2ccc(F)cc2)o1 (3D coordinates assigned)
NC(=[NH2+])N1CCC[C@@H]1c1nnc(SCc2ccc(F)cc2)o1 (nonaromatic ring conformer: 68.03692544445772 kcal/mol)

>  <smiles>  (73) 
N=C(N)N1CCCC1c1nnc(SCc2ccc(F)cc2)o1

>  <score_type>  (73) 
oracle

>  <origin>  (73) 
adg

>  <m_score__min__energy>  (73) 
-6.6299999999999999

>  <m_primary>  (73) 
energy

$$$$
73:0
     RDKit          3D

 60 64  0  0  1  0  0  0  0  0999 V2000
   57.0590   27.5280   45.7610 C   0  0  0  0  0  0  0  0  0  0  0  0
   57.2720   28.8360   45.0770 C   0  0  0  0  0  0  0  0  0  0  0  0
   58.5660   29.2460   44.7420 C   0  0  0  0  0  0  0  0  0  0  0  0
   58.6800   30.4350   44.1260 N   0  0  0  0  0  0  0  0  0  0  0  0
   57.5770   31.1700   43.8590 C   0  0  0  0  0  0  0  0  0  0  0  0
   57.8200   32.4800   43.1730 C   0  0  0  0  0  0  0  0  0  0  0  0
   57.7430   33.4870   44.1270 O   0  0  0  0  0  0  0  0  0  0  0  0
   58.3430   33.5370   45.3600 C   0  0  0  0  0  0  0  0  0  0  0  0
   59.4510   34.3530   45.4940 C   0  0  0  0  0  0  0  0  0  0  0  0
   60.0690   34.4190   46.7170 C   0  0  0  0  0  0  0  0  0  0  0  0
   59.6570   33.7250   47.8320 C   0  0  0  0  0  0  0  0  0  0  0  0
   60.3480   33.8550   49.0220 C   0  0  0  0  0  0  0  0  0  0  0  0
   61.3520   34.6240   49.0520 N   0  0  0  0  0  0  0  0  0  0  0  0
   62.6100   34.0930   49.4550 C   0  0  0  0  0  0  0  0  0  0  0  0
   63.1270   34.2350   50.7240 C   0  0  0  0  0  0  0  0  0  0  0  0
   64.3560   33.7040   51.0530 C   0  0  0  0  0  0  0  0  0  0  0  0
   65.0750   33.0150   50.0790 C   0  0  0  0  0  0  0  0  0  0  0  0
   66.3910   32.4660   50.4760 C   0  0  0  0  0  0  0  0  0  0  0  0
   66.4340   31.0840   50.2990 F   0  0  0  0  0  0  0  0  0  0  0  0
   66.6240   32.6500   51.8420 F   0  0  0  0  0  0  0  0  0  0  0  0
   67.3970   33.0380   49.7450 F   0  0  0  0  0  0  0  0  0  0  0  0
   64.5310   32.8920   48.8260 C   0  0  0  0  0  0  0  0  0  0  0  0
   63.3100   33.4040   48.4520 C   0  0  0  0  0  0  0  0  0  0  0  0
   59.8790   33.1390   50.0630 N   0  0  0  0  0  0  0  0  0  0  0  0
   58.8040   32.3410   49.9620 C   0  0  0  0  0  0  0  0  0  0  0  0
   58.3230   31.6010   51.0780 N   0  0  0  0  0  0  0  0  0  0  0  0
   59.0880   30.5980   51.7730 C   0  0  0  0  0  0  0  0  0  0  0  0
   58.2370   29.3390   51.8030 C   0  0  0  0  0  0  0  0  0  0  0  0
   56.9570   29.5330   52.3970 N   0  0  0  0  0  0  0  0  0  0  0  0
   56.5650   30.8840   52.6310 C   0  0  0  0  0  0  0  0  0  0  0  0
   56.9660   31.8520   51.5660 C   0  0  0  0  0  0  0  0  0  0  0  0
   58.1290   32.2170   48.7800 N   0  0  0  0  0  0  0  0  0  0  0  0
   58.5490   32.9130   47.6860 C   0  0  0  0  0  0  0  0  0  0  0  0
   57.9150   32.8310   46.4680 C   0  0  0  0  0  0  0  0  0  0  0  0
   56.3130   30.7780   44.1830 C   0  0  0  0  0  0  0  0  0  0  0  0
   56.1880   29.5740   44.8070 N   0  0  0  0  0  0  0  0  0  0  0  0
   57.0831   27.6759   46.8507 H   0  0  0  0  0  0  0  0  0  0  0  0
   56.0819   27.1160   45.4684 H   0  0  0  0  0  0  0  0  0  0  0  0
   57.8549   26.8273   45.4684 H   0  0  0  0  0  0  0  0  0  0  0  0
   59.4460   28.6269   44.9710 H   0  0  0  0  0  0  0  0  0  0  0  0
   58.8183   32.4795   42.7110 H   0  0  0  0  0  0  0  0  0  0  0  0
   57.0697   32.6429   42.3852 H   0  0  0  0  0  0  0  0  0  0  0  0
   59.8280   34.9354   44.6404 H   0  0  0  0  0  0  0  0  0  0  0  0
   60.9513   35.0689   46.8128 H   0  0  0  0  0  0  0  0  0  0  0  0
   62.5507   34.7801   51.4860 H   0  0  0  0  0  0  0  0  0  0  0  0
   64.7623   33.8225   52.0683 H   0  0  0  0  0  0  0  0  0  0  0  0
   65.1112   32.3461   48.0674 H   0  0  0  0  0  0  0  0  0  0  0  0
   62.9091   33.2817   47.4350 H   0  0  0  0  0  0  0  0  0  0  0  0
   60.3660   33.2060   50.9590 H   0  0  0  0  0  0  0  0  0  0  0  0
   60.0312   30.4049   51.2409 H   0  0  0  0  0  0  0  0  0  0  0  0
   59.3394   30.9288   52.7915 H   0  0  0  0  0  0  0  0  0  0  0  0
   58.0922   28.9918   50.7693 H   0  0  0  0  0  0  0  0  0  0  0  0
   58.7716   28.6014   52.4196 H   0  0  0  0  0  0  0  0  0  0  0  0
   56.8510   29.0030   53.3060 H   0  0  0  0  0  0  0  0  0  0  0  0
   55.4690   30.9105   52.7209 H   0  0  0  0  0  0  0  0  0  0  0  0
   57.0864   31.2009   53.5462 H   0  0  0  0  0  0  0  0  0  0  0  0
   56.2640   31.7639   50.7237 H   0  0  0  0  0  0  0  0  0  0  0  0
   56.9430   32.8625   51.9999 H   0  0  0  0  0  0  0  0  0  0  0  0
   57.0343   32.1789   46.3725 H   0  0  0  0  0  0  0  0  0  0  0  0
   55.4375   31.4026   43.9522 H   0  0  0  0  0  0  0  0  0  0  0  0
  1  2  1  0
  2  3  2  0
  3  4  1  0
  4  5  2  0
  5  6  1  0
  6  7  1  0
  7  8  1  0
  8  9  2  0
  9 10  1  0
 10 11  2  0
 11 12  1  0
 12 13  2  0
 13 14  1  0
 14 15  2  0
 15 16  1  0
 16 17  2  0
 17 18  1  0
 18 19  1  0
 18 20  1  0
 18 21  1  0
 17 22  1  0
 22 23  2  0
 12 24  1  0
 24 25  1  0
 25 26  1  0
 26 27  1  0
 27 28  1  0
 28 29  1  0
 29 30  1  0
 30 31  1  0
 25 32  2  0
 32 33  1  0
 33 34  2  0
  5 35  1  0
 35 36  2  0
 36  2  1  0
 34  8  1  0
 33 11  1  0
 23 14  1  0
 31 26  1  0
  1 37  1  0
  1 38  1  0
  1 39  1  0
  3 40  1  0
  6 41  1  0
  6 42  1  0
  9 43  1  0
 10 44  1  0
 15 45  1  0
 16 46  1  0
 22 47  1  0
 23 48  1  0
 24 49  1  0
 27 50  1  0
 27 51  1  0
 28 52  1  0
 28 53  1  0
 29 54  1  0
 30 55  1  0
 30 56  1  0
 31 57  1  0
 31 58  1  0
 34 59  1  0
 35 60  1  0
M  END
>  <smiles>  (74) 
Cc1cnc(COc2ccc3c(=Nc4ccc(C(F)(F)F)cc4)[nH]c(N4CCNCC4)nc3c2)cn1

>  <score_type>  (74) 
oracle

>  <origin>  (74) 
adg

>  <m_score__min__energy>  (74) 
-9.2100000000000009

>  <m_primary>  (74) 
energy

$$$$
74:0
     RDKit          3D

 31 32  0  0  0  0  0  0  0  0999 V2000
   56.4040   29.8560   42.8210 O   0  0  0  0  0  0  0  0  0  0  0  0
   56.4230   29.9330   44.3230 S   0  0  0  0  0  0  0  0  0  0  0  0
   55.1440   29.3440   44.8470 O   0  0  0  0  0  0  0  0  0  0  0  0
   56.5390   31.5920   44.8330 N   0  0  0  0  0  0  0  0  0  0  0  0
   57.5830   32.3060   44.0910 C   0  0  0  0  0  0  0  0  0  0  0  0
   57.7490   33.7360   44.6160 C   0  0  0  0  0  0  0  0  0  0  0  0
   58.4020   33.7510   45.9700 C   0  0  0  0  0  0  0  0  0  0  0  0
   59.4680   34.6210   46.2410 C   0  0  0  0  0  0  0  0  0  0  0  0
   60.0750   34.5890   47.4980 C   0  0  0  0  0  0  0  0  0  0  0  0
   59.6210   33.6910   48.4660 C   0  0  0  0  0  0  0  0  0  0  0  0
   58.5630   32.8320   48.1590 C   0  0  0  0  0  0  0  0  0  0  0  0
   57.9850   32.8770   46.9290 N   0  0  0  0  0  0  0  0  0  0  0  0
   57.7800   29.0130   44.9670 C   0  0  0  0  0  0  0  0  0  0  0  0
   57.5670   27.9350   45.8420 C   0  0  0  0  0  0  0  0  0  0  0  0
   58.6540   27.2060   46.3330 C   0  0  0  0  0  0  0  0  0  0  0  0
   59.9560   27.5470   45.9550 C   0  0  0  0  0  0  0  0  0  0  0  0
   60.1720   28.6170   45.0820 C   0  0  0  0  0  0  0  0  0  0  0  0
   59.0870   29.3480   44.5880 C   0  0  0  0  0  0  0  0  0  0  0  0
   58.5361   31.7685   44.2037 H   0  0  0  0  0  0  0  0  0  0  0  0
   57.2903   32.3532   43.0317 H   0  0  0  0  0  0  0  0  0  0  0  0
   58.3728   34.3057   43.9115 H   0  0  0  0  0  0  0  0  0  0  0  0
   56.7508   34.1890   44.7081 H   0  0  0  0  0  0  0  0  0  0  0  0
   59.8225   35.3218   45.4708 H   0  0  0  0  0  0  0  0  0  0  0  0
   60.9088   35.2696   47.7251 H   0  0  0  0  0  0  0  0  0  0  0  0
   60.0915   33.6603   49.4598 H   0  0  0  0  0  0  0  0  0  0  0  0
   58.1973   32.1189   48.9126 H   0  0  0  0  0  0  0  0  0  0  0  0
   56.5437   27.6642   46.1412 H   0  0  0  0  0  0  0  0  0  0  0  0
   58.4845   26.3623   47.0182 H   0  0  0  0  0  0  0  0  0  0  0  0
   60.8101   26.9735   46.3444 H   0  0  0  0  0  0  0  0  0  0  0  0
   61.1964   28.8843   44.7833 H   0  0  0  0  0  0  0  0  0  0  0  0
   59.2599   30.1885   43.8998 H   0  0  0  0  0  0  0  0  0  0  0  0
  1  2  2  0
  2  3  2  0
  2  4  1  0
  4  5  1  0
  5  6  1  0
  6  7  1  0
  7  8  2  0
  8  9  1  0
  9 10  2  0
 10 11  1  0
 11 12  2  0
  2 13  1  0
 13 14  2  0
 14 15  1  0
 15 16  2  0
 16 17  1  0
 17 18  2  0
 12  7  1  0
 18 13  1  0
  5 19  1  0
  5 20  1  0
  6 21  1  0
  6 22  1  0
  8 23  1  0
  9 24  1  0
 10 25  1  0
 11 26  1  0
 14 27  1  0
 15 28  1  0
 16 29  1  0
 17 30  1  0
 18 31  1  0
M  CHG  1   4  -1
M  END
>  <UniqueID>  (75) 
65

>  <SMILES>  (75) 
O=S(=O)([N-]CCc1ccccn1)c1ccccc1

>  <Energy>  (75) 
29.521516540207717

>  <Genealogy>  (75) 
O=S(=O)([N-]CCc1ccccn1)c1ccccc1 (protonated)
O=S(=O)([N-]CCc1ccccn1)c1ccccc1 (3D coordinates assigned)
O=S(=O)([N-]CCc1ccccn1)c1ccccc1 (optimized conformer: 29.521516540207717 kcal/mol)

>  <smiles>  (75) 
O=S(=O)(NCCc1ccccn1)c1ccccc1

>  <score_type>  (75) 
oracle

>  <origin>  (75) 
adg

>  <m_score__min__energy>  (75) 
-8.6999999999999993

>  <m_primary>  (75) 
energy

$$$$
75:0
     RDKit          3D

 45 48  0  0  0  0  0  0  0  0999 V2000
   56.3720   25.2000   47.3190 O   0  0  0  0  0  0  0  0  0  0  0  0
   56.1950   25.4860   45.8540 S   0  0  0  0  0  0  0  0  0  0  0  0
   54.7740   25.9230   45.6270 O   0  0  0  0  0  0  0  0  0  0  0  0
   56.5430   24.0390   44.9160 C   0  0  0  0  0  0  0  0  0  0  0  0
   57.4610   23.0920   45.3960 C   0  0  0  0  0  0  0  0  0  0  0  0
   57.7200   21.9310   44.6600 C   0  0  0  0  0  0  0  0  0  0  0  0
   57.0610   21.7070   43.4480 C   0  0  0  0  0  0  0  0  0  0  0  0
   56.1390   22.6430   42.9720 C   0  0  0  0  0  0  0  0  0  0  0  0
   55.8760   23.8050   43.7040 C   0  0  0  0  0  0  0  0  0  0  0  0
   57.2730   26.7490   45.3690 N   0  0  0  0  0  0  0  0  0  0  0  0
   57.8050   26.9120   44.1430 C   0  0  0  0  0  0  0  0  0  0  0  0
   58.5770   28.0570   44.1180 C   0  0  0  0  0  0  0  0  0  0  0  0
   58.4970   28.6010   45.3920 C   0  0  0  0  0  0  0  0  0  0  0  0
   59.1270   29.8190   45.8430 N   0  0  0  0  0  0  0  0  0  0  0  0
   60.1500   29.7540   46.8960 C   0  0  0  0  0  0  0  0  0  0  0  0
   61.1010   30.9500   46.8340 C   0  0  0  0  0  0  0  0  0  0  0  0
   60.3280   32.2470   46.8360 C   0  0  0  0  0  0  0  0  0  0  0  0
   59.1350   32.2940   46.0850 C   0  0  0  0  0  0  0  0  0  0  0  0
   58.3940   33.4820   46.0240 C   0  0  0  0  0  0  0  0  0  0  0  0
   58.8170   34.6130   46.7150 C   0  0  0  0  0  0  0  0  0  0  0  0
   60.0010   34.5840   47.4490 C   0  0  0  0  0  0  0  0  0  0  0  0
   60.7900   33.4170   47.5030 C   0  0  0  0  0  0  0  0  0  0  0  0
   62.0900   33.4340   48.2850 C   0  0  0  0  0  0  0  0  0  0  0  0
   62.1250   32.3540   49.1490 F   0  0  0  0  0  0  0  0  0  0  0  0
   62.2250   34.5920   49.0350 F   0  0  0  0  0  0  0  0  0  0  0  0
   63.1670   33.3680   47.4180 F   0  0  0  0  0  0  0  0  0  0  0  0
   58.6840   31.1040   45.2720 C   0  0  0  0  0  0  0  0  0  0  0  0
   57.6800   27.7710   46.1410 C   0  0  0  0  0  0  0  0  0  0  0  0
   57.9774   23.2630   46.3521 H   0  0  0  0  0  0  0  0  0  0  0  0
   58.4438   21.1928   45.0359 H   0  0  0  0  0  0  0  0  0  0  0  0
   57.2679   20.7947   42.8693 H   0  0  0  0  0  0  0  0  0  0  0  0
   55.6189   22.4653   42.0192 H   0  0  0  0  0  0  0  0  0  0  0  0
   55.1452   24.5367   43.3291 H   0  0  0  0  0  0  0  0  0  0  0  0
   57.6484   26.2354   43.2900 H   0  0  0  0  0  0  0  0  0  0  0  0
   59.1407   28.4565   43.2621 H   0  0  0  0  0  0  0  0  0  0  0  0
   59.6521   29.7447   47.8768 H   0  0  0  0  0  0  0  0  0  0  0  0
   60.7401   28.8380   46.7453 H   0  0  0  0  0  0  0  0  0  0  0  0
   61.7686   30.9262   47.7079 H   0  0  0  0  0  0  0  0  0  0  0  0
   61.6864   30.8886   45.9048 H   0  0  0  0  0  0  0  0  0  0  0  0
   57.4717   33.5205   45.4257 H   0  0  0  0  0  0  0  0  0  0  0  0
   58.2149   35.5330   46.6818 H   0  0  0  0  0  0  0  0  0  0  0  0
   60.3243   35.4835   47.9935 H   0  0  0  0  0  0  0  0  0  0  0  0
   57.5850   31.1071   45.2249 H   0  0  0  0  0  0  0  0  0  0  0  0
   59.1363   31.1954   44.2735 H   0  0  0  0  0  0  0  0  0  0  0  0
   57.4084   27.9233   47.1960 H   0  0  0  0  0  0  0  0  0  0  0  0
  1  2  2  0
  2  3  2  0
  2  4  1  0
  4  5  2  0
  5  6  1  0
  6  7  2  0
  7  8  1  0
  8  9  2  0
  2 10  1  0
 10 11  1  0
 11 12  2  0
 12 13  1  0
 13 14  1  0
 14 15  1  0
 15 16  1  0
 16 17  1  0
 17 18  2  0
 18 19  1  0
 19 20  2  0
 20 21  1  0
 21 22  2  0
 22 23  1  0
 23 24  1  0
 23 25  1  0
 23 26  1  0
 18 27  1  0
 13 28  2  0
  9  4  1  0
 28 10  1  0
 27 14  1  0
 22 17  1  0
  5 29  1  0
  6 30  1  0
  7 31  1  0
  8 32  1  0
  9 33  1  0
 11 34  1  0
 12 35  1  0
 15 36  1  0
 15 37  1  0
 16 38  1  0
 16 39  1  0
 19 40  1  0
 20 41  1  0
 21 42  1  0
 27 43  1  0
 27 44  1  0
 28 45  1  0
M  END
>  <UniqueID>  (76) 
66

>  <SMILES>  (76) 
O=S(=O)(c1ccccc1)n1ccc(N2CCc3c(cccc3C(F)(F)F)C2)c1

>  <Energy>  (76) 
84.01791885937419

>  <Genealogy>  (76) 
O=S(=O)(c1ccccc1)n1ccc(N2CCc3c(cccc3C(F)(F)F)C2)c1 (3D coordinates assigned)
O=S(=O)(c1ccccc1)n1ccc(N2CCc3c(cccc3C(F)(F)F)C2)c1 (nonaromatic ring conformer: 84.01791885937419 kcal/mol)

>  <smiles>  (76) 
O=S(=O)(c1ccccc1)n1ccc(N2CCc3c(cccc3C(F)(F)F)C2)c1

>  <score_type>  (76) 
oracle

>  <origin>  (76) 
adg

>  <m_score__min__energy>  (76) 
-8.8200000000000003

>  <m_primary>  (76) 
energy

$$$$
76:0
     RDKit          3D

 28 29  0  0  0  0  0  0  0  0999 V2000
   57.6619   34.3465   43.5574 H   0  0  0  0  0  0  0  0  0  0  0  0
   58.0790   33.4930   44.1120 C   0  0  0  0  0  0  0  0  0  0  0  0
   58.1330   32.3110   43.4750 C   0  0  0  0  0  0  0  0  0  0  0  0
   58.5766   32.2990   42.4685 H   0  0  0  0  0  0  0  0  0  0  0  0
   57.6440   31.0240   44.0180 C   0  0  0  0  0  0  0  0  0  0  0  0
   58.4600   30.2060   44.8190 C   0  0  0  0  0  0  0  0  0  0  0  0
   59.4946   30.5101   45.0361 H   0  0  0  0  0  0  0  0  0  0  0  0
   57.9630   29.0080   45.3410 C   0  0  0  0  0  0  0  0  0  0  0  0
   58.6125   28.3657   45.9538 H   0  0  0  0  0  0  0  0  0  0  0  0
   56.6400   28.6230   45.0860 C   0  0  0  0  0  0  0  0  0  0  0  0
   56.1320   27.3970   45.6190 N   0  0  0  0  0  0  0  0  0  0  0  0
   55.9070   26.5930   44.9920 H   0  0  0  0  0  0  0  0  0  0  0  0
   55.9780   27.2830   46.6460 H   0  0  0  0  0  0  0  0  0  0  0  0
   55.8150   29.4510   44.3130 C   0  0  0  0  0  0  0  0  0  0  0  0
   54.7731   29.1577   44.1170 H   0  0  0  0  0  0  0  0  0  0  0  0
   56.3120   30.6490   43.7900 C   0  0  0  0  0  0  0  0  0  0  0  0
   55.6544   31.3010   43.1963 H   0  0  0  0  0  0  0  0  0  0  0  0
   58.5340   33.7410   45.4970 C   0  0  0  0  0  0  0  0  0  0  0  0
   58.0610   32.9720   46.5770 C   0  0  0  0  0  0  0  0  0  0  0  0
   57.3192   32.1789   46.4018 H   0  0  0  0  0  0  0  0  0  0  0  0
   58.5310   33.2130   47.8720 C   0  0  0  0  0  0  0  0  0  0  0  0
   58.1466   32.6198   48.7148 H   0  0  0  0  0  0  0  0  0  0  0  0
   59.4870   34.2050   48.0970 C   0  0  0  0  0  0  0  0  0  0  0  0
   59.8493   34.3981   49.1175 H   0  0  0  0  0  0  0  0  0  0  0  0
   59.9840   34.9530   47.0260 C   0  0  0  0  0  0  0  0  0  0  0  0
   60.7438   35.7286   47.2028 H   0  0  0  0  0  0  0  0  0  0  0  0
   59.5160   34.7160   45.7300 C   0  0  0  0  0  0  0  0  0  0  0  0
   59.9200   35.2973   44.8880 H   0  0  0  0  0  0  0  0  0  0  0  0
  1  2  1  0
  2  3  2  0
  3  4  1  0
  3  5  1  0
  5  6  2  0
  6  7  1  0
  6  8  1  0
  8  9  1  0
  8 10  2  0
 10 11  1  0
 11 12  1  0
 11 13  1  0
 10 14  1  0
 14 15  1  0
 14 16  2  0
 16 17  1  0
  2 18  1  0
 18 19  2  0
 19 20  1  0
 19 21  1  0
 21 22  1  0
 21 23  2  0
 23 24  1  0
 23 25  1  0
 25 26  1  0
 25 27  2  0
 27 28  1  0
 16  5  1  0
 27 18  1  0
M  END
>  <UniqueID>  (77) 
67

>  <SMILES>  (77) 
Nc1ccc(/C=C\c2ccccc2)cc1

>  <Energy>  (77) 
37.156288983694445

>  <Genealogy>  (77) 
Nc1ccc(/C=C\c2ccccc2)cc1 (cis-trans isomerization)
Nc1ccc(/C=C\c2ccccc2)cc1 (3D coordinates assigned)
Nc1ccc(/C=C\c2ccccc2)cc1 (optimized conformer: 37.156288983694445 kcal/mol)

>  <smiles>  (77) 
Nc1ccc(C=Cc2ccccc2)cc1

>  <score_type>  (77) 
oracle

>  <origin>  (77) 
adg

>  <m_score__min__energy>  (77) 
-6.8899999999999997

>  <m_primary>  (77) 
energy

$$$$
77:0
     RDKit          3D

 26 27  0  0  0  0  0  0  0  0999 V2000
   55.1460   29.3410   44.4840 O   0  0  0  0  0  0  0  0  0  0  0  0
   56.4620   30.0010   44.1820 S   0  0  0  0  0  0  0  0  0  0  0  0
   56.6180   30.1150   42.6930 O   0  0  0  0  0  0  0  0  0  0  0  0
   56.4670   31.5950   44.8650 N   0  0  0  0  0  0  0  0  0  0  0  0
   57.6090   32.3660   45.2760 C   0  0  0  0  0  0  0  0  0  0  0  0
   57.8940   33.5360   44.5580 C   0  0  0  0  0  0  0  0  0  0  0  0
   58.9930   34.3300   44.8960 C   0  0  0  0  0  0  0  0  0  0  0  0
   59.8200   33.9630   45.9580 C   0  0  0  0  0  0  0  0  0  0  0  0
   59.5460   32.8030   46.6860 C   0  0  0  0  0  0  0  0  0  0  0  0
   58.4470   32.0030   46.3550 C   0  0  0  0  0  0  0  0  0  0  0  0
   58.2170   30.8990   47.1040 F   0  0  0  0  0  0  0  0  0  0  0  0
   57.8070   29.0470   44.8130 C   0  0  0  0  0  0  0  0  0  0  0  0
   59.1270   29.4210   44.5190 C   0  0  0  0  0  0  0  0  0  0  0  0
   60.1980   28.6730   45.0180 C   0  0  0  0  0  0  0  0  0  0  0  0
   59.9570   27.5450   45.8070 C   0  0  0  0  0  0  0  0  0  0  0  0
   60.9970   26.8200   46.2890 F   0  0  0  0  0  0  0  0  0  0  0  0
   58.6440   27.1610   46.0930 C   0  0  0  0  0  0  0  0  0  0  0  0
   57.5690   27.9060   45.5980 C   0  0  0  0  0  0  0  0  0  0  0  0
   56.3020   27.5080   45.8790 F   0  0  0  0  0  0  0  0  0  0  0  0
   57.2458   33.8319   43.7200 H   0  0  0  0  0  0  0  0  0  0  0  0
   59.2063   35.2452   44.3243 H   0  0  0  0  0  0  0  0  0  0  0  0
   60.6869   34.5866   46.2217 H   0  0  0  0  0  0  0  0  0  0  0  0
   60.1980   32.5168   47.5244 H   0  0  0  0  0  0  0  0  0  0  0  0
   59.3200   30.3054   43.8940 H   0  0  0  0  0  0  0  0  0  0  0  0
   61.2313   28.9728   44.7892 H   0  0  0  0  0  0  0  0  0  0  0  0
   58.4555   26.2697   46.7095 H   0  0  0  0  0  0  0  0  0  0  0  0
  1  2  2  0
  2  3  2  0
  2  4  1  0
  4  5  1  0
  5  6  2  0
  6  7  1  0
  7  8  2  0
  8  9  1  0
  9 10  2  0
 10 11  1  0
  2 12  1  0
 12 13  2  0
 13 14  1  0
 14 15  2  0
 15 16  1  0
 15 17  1  0
 17 18  2  0
 18 19  1  0
 10  5  1  0
 18 12  1  0
  6 20  1  0
  7 21  1  0
  8 22  1  0
  9 23  1  0
 13 24  1  0
 14 25  1  0
 17 26  1  0
M  CHG  1   4  -1
M  END
>  <UniqueID>  (78) 
68

>  <SMILES>  (78) 
O=S(=O)([N-]c1ccccc1F)c1ccc(F)cc1F

>  <Energy>  (78) 
33.26985427044691

>  <Genealogy>  (78) 
O=S(=O)([N-]c1ccccc1F)c1ccc(F)cc1F (protonated)
O=S(=O)([N-]c1ccccc1F)c1ccc(F)cc1F (3D coordinates assigned)
O=S(=O)([N-]c1ccccc1F)c1ccc(F)cc1F (optimized conformer: 33.26985427044691 kcal/mol)

>  <smiles>  (78) 
O=S(=O)(Nc1ccccc1F)c1ccc(F)cc1F

>  <score_type>  (78) 
oracle

>  <origin>  (78) 
adg

>  <m_score__min__energy>  (78) 
-8.4700000000000006

>  <m_primary>  (78) 
energy

$$$$
78:0
     RDKit          3D

 34 36  0  0  0  0  0  0  0  0999 V2000
   56.6530   30.5040   42.3830 C   0  0  0  0  0  0  0  0  0  0  0  0
   56.9390   30.5210   43.8220 N   0  0  0  0  0  0  0  0  0  0  0  0
   56.4840   29.4240   44.6390 C   0  0  0  0  0  0  0  0  0  0  0  0
   55.2540   29.3140   44.8940 O   0  0  0  0  0  0  0  0  0  0  0  0
   57.4310   28.4200   45.1830 C   0  0  0  0  0  0  0  0  0  0  0  0
   58.8180   28.6230   45.0750 C   0  0  0  0  0  0  0  0  0  0  0  0
   59.7140   27.6760   45.5840 C   0  0  0  0  0  0  0  0  0  0  0  0
   59.2340   26.5240   46.2110 C   0  0  0  0  0  0  0  0  0  0  0  0
   57.8580   26.3180   46.3350 C   0  0  0  0  0  0  0  0  0  0  0  0
   56.9590   27.2620   45.8290 C   0  0  0  0  0  0  0  0  0  0  0  0
   57.6190   31.6440   44.4280 C   0  0  0  0  0  0  0  0  0  0  0  0
   58.1180   32.7120   43.6580 C   0  0  0  0  0  0  0  0  0  0  0  0
   58.7620   33.7460   44.2670 N   0  0  0  0  0  0  0  0  0  0  0  0
   58.9370   33.7680   45.6170 C   0  0  0  0  0  0  0  0  0  0  0  0
   59.6040   34.8310   46.2450 C   0  0  0  0  0  0  0  0  0  0  0  0
   59.7710   34.8270   47.6340 C   0  0  0  0  0  0  0  0  0  0  0  0
   59.2760   33.7650   48.4000 C   0  0  0  0  0  0  0  0  0  0  0  0
   58.6100   32.7030   47.7810 C   0  0  0  0  0  0  0  0  0  0  0  0
   58.4380   32.7020   46.3930 C   0  0  0  0  0  0  0  0  0  0  0  0
   57.7950   31.6760   45.7790 N   0  0  0  0  0  0  0  0  0  0  0  0
   55.5662   30.4394   42.2259 H   0  0  0  0  0  0  0  0  0  0  0  0
   57.0359   31.4265   41.9221 H   0  0  0  0  0  0  0  0  0  0  0  0
   57.1425   29.6334   41.9221 H   0  0  0  0  0  0  0  0  0  0  0  0
   59.2012   29.5316   44.5875 H   0  0  0  0  0  0  0  0  0  0  0  0
   60.7978   27.8392   45.4901 H   0  0  0  0  0  0  0  0  0  0  0  0
   59.9396   25.7789   46.6072 H   0  0  0  0  0  0  0  0  0  0  0  0
   57.4810   25.4117   46.8315 H   0  0  0  0  0  0  0  0  0  0  0  0
   55.8765   27.0986   45.9365 H   0  0  0  0  0  0  0  0  0  0  0  0
   57.9878   32.7112   42.5657 H   0  0  0  0  0  0  0  0  0  0  0  0
   59.1270   34.5260   43.6740 H   0  0  0  0  0  0  0  0  0  0  0  0
   59.9951   35.6665   45.6458 H   0  0  0  0  0  0  0  0  0  0  0  0
   60.2930   35.6611   48.1258 H   0  0  0  0  0  0  0  0  0  0  0  0
   59.4114   33.7661   49.4916 H   0  0  0  0  0  0  0  0  0  0  0  0
   58.2218   31.8694   48.3847 H   0  0  0  0  0  0  0  0  0  0  0  0
  1  2  1  0
  2  3  1  0
  3  4  2  0
  3  5  1  0
  5  6  2  0
  6  7  1  0
  7  8  2  0
  8  9  1  0
  9 10  2  0
  2 11  1  0
 11 12  2  0
 12 13  1  0
 13 14  2  0
 14 15  1  0
 15 16  2  0
 16 17  1  0
 17 18  2  0
 18 19  1  0
 19 20  2  0
 10  5  1  0
 20 11  1  0
 19 14  1  0
  1 21  1  0
  1 22  1  0
  1 23  1  0
  6 24  1  0
  7 25  1  0
  8 26  1  0
  9 27  1  0
 10 28  1  0
 12 29  1  0
 13 30  1  0
 15 31  1  0
 16 32  1  0
 17 33  1  0
 18 34  1  0
M  CHG  1  13   1
M  END
>  <UniqueID>  (79) 
69

>  <SMILES>  (79) 
CN(C(=O)c1ccccc1)c1c[nH+]c2ccccc2n1

>  <Energy>  (79) 
47.51826890670349

>  <Genealogy>  (79) 
CN(C(=O)c1ccccc1)c1c[nH+]c2ccccc2n1 (protonated)
CN(C(=O)c1ccccc1)c1c[nH+]c2ccccc2n1 (3D coordinates assigned)
CN(C(=O)c1ccccc1)c1c[nH+]c2ccccc2n1 (optimized conformer: 47.51826890670349 kcal/mol)

>  <smiles>  (79) 
CN(C(=O)c1ccccc1)c1cnc2ccccc2n1

>  <score_type>  (79) 
oracle

>  <origin>  (79) 
adg

>  <m_score__min__energy>  (79) 
-6.1500000000000004

>  <m_primary>  (79) 
energy

$$$$
79:0
     RDKit          3D

 69 71  0  0  0  0  0  0  0  0999 V2000
   60.2700   33.8400   50.8930 C   0  0  0  0  0  0  0  0  0  0  0  0
   60.5580   34.2340   49.5560 O   0  0  0  0  0  0  0  0  0  0  0  0
   59.7540   33.9190   48.4500 C   0  0  0  0  0  0  0  0  0  0  0  0
   59.8090   34.6450   47.2450 C   0  0  0  0  0  0  0  0  0  0  0  0
   58.9900   34.2900   46.1690 C   0  0  0  0  0  0  0  0  0  0  0  0
   58.1120   33.2000   46.2770 C   0  0  0  0  0  0  0  0  0  0  0  0
   57.3070   32.7560   45.0820 C   0  0  0  0  0  0  0  0  0  0  0  0
   56.9990   31.3170   45.1220 N   0  0  0  0  0  0  0  0  0  0  0  0
   58.1380   30.4590   44.7360 C   0  0  0  0  0  0  0  0  0  0  0  0
   57.8880   28.9570   45.0160 C   0  0  1  0  0  0  0  0  0  0  0  0
   58.4630   28.5920   46.3160 N   0  0  0  0  0  0  0  0  0  0  0  0
   59.5210   27.6330   46.4450 C   0  0  0  0  0  0  0  0  0  0  0  0
   59.8930   26.9540   45.4510 O   0  0  0  0  0  0  0  0  0  0  0  0
   60.2500   27.4840   47.7420 C   0  0  0  0  0  0  0  0  0  0  0  0
   59.5430   28.2100   48.7890 N   0  0  0  0  0  0  0  0  0  0  0  0
   60.1080   29.3090   49.5180 C   0  0  0  0  0  0  0  0  0  0  0  0
   59.8560   29.4450   50.7450 O   0  0  0  0  0  0  0  0  0  0  0  0
   60.9380   30.3160   48.8210 C   0  0  0  0  0  0  0  0  0  0  0  0
   60.7640   30.5500   47.4460 C   0  0  0  0  0  0  0  0  0  0  0  0
   61.5890   31.4550   46.7740 C   0  0  0  0  0  0  0  0  0  0  0  0
   62.5940   32.1360   47.4660 C   0  0  0  0  0  0  0  0  0  0  0  0
   62.7750   31.9330   48.8430 C   0  0  0  0  0  0  0  0  0  0  0  0
   63.9050   32.6350   49.5550 C   0  0  0  0  0  0  0  0  0  0  0  0
   64.7680   31.6880   50.0770 F   0  0  0  0  0  0  0  0  0  0  0  0
   64.5960   33.4350   48.6610 F   0  0  0  0  0  0  0  0  0  0  0  0
   63.4430   33.4340   50.5890 F   0  0  0  0  0  0  0  0  0  0  0  0
   61.9400   31.0190   49.5140 C   0  0  0  0  0  0  0  0  0  0  0  0
   56.4200   28.6270   44.9910 C   0  0  0  0  0  0  0  0  0  0  0  0
   55.6160   29.3540   44.3470 O   0  0  0  0  0  0  0  0  0  0  0  0
   55.9490   27.4390   45.6360 N   0  0  0  0  0  0  0  0  0  0  0  0
   56.6690   26.1640   45.6710 C   0  0  0  0  0  0  0  0  0  0  0  0
   57.1210   25.8550   47.1180 C   0  0  0  0  0  0  0  0  0  0  0  0
   57.3880   24.3590   47.3140 C   0  0  0  0  0  0  0  0  0  0  0  0
   56.1200   23.5140   47.0650 C   0  0  0  0  0  0  0  0  0  0  0  0
   55.1310   24.1600   46.0740 C   0  0  0  0  0  0  0  0  0  0  0  0
   55.8520   25.0140   45.0230 C   0  0  0  0  0  0  0  0  0  0  0  0
   58.0560   32.4780   47.4810 C   0  0  0  0  0  0  0  0  0  0  0  0
   58.8680   32.8420   48.5580 C   0  0  0  0  0  0  0  0  0  0  0  0
   60.7707   34.5250   51.5930 H   0  0  0  0  0  0  0  0  0  0  0  0
   59.1833   33.8753   51.0596 H   0  0  0  0  0  0  0  0  0  0  0  0
   60.6334   32.8152   51.0596 H   0  0  0  0  0  0  0  0  0  0  0  0
   60.4998   35.4957   47.1496 H   0  0  0  0  0  0  0  0  0  0  0  0
   59.0338   34.8673   45.2337 H   0  0  0  0  0  0  0  0  0  0  0  0
   56.3627   33.3199   45.0618 H   0  0  0  0  0  0  0  0  0  0  0  0
   57.9074   32.9477   44.1805 H   0  0  0  0  0  0  0  0  0  0  0  0
   56.1470   31.1160   44.5500 H   0  0  0  0  0  0  0  0  0  0  0  0
   58.3249   30.5883   43.6597 H   0  0  0  0  0  0  0  0  0  0  0  0
   59.0018   30.7670   45.3435 H   0  0  0  0  0  0  0  0  0  0  0  0
   58.3764   28.3761   44.2198 H   0  0  0  0  0  0  0  0  0  0  0  0
   58.0790   29.0330   47.1830 H   0  0  0  0  0  0  0  0  0  0  0  0
   60.3059   26.4185   48.0097 H   0  0  0  0  0  0  0  0  0  0  0  0
   61.2660   27.8925   47.6378 H   0  0  0  0  0  0  0  0  0  0  0  0
   59.9739   30.0176   46.8962 H   0  0  0  0  0  0  0  0  0  0  0  0
   61.4472   31.6320   45.6976 H   0  0  0  0  0  0  0  0  0  0  0  0
   63.2486   32.8369   46.9272 H   0  0  0  0  0  0  0  0  0  0  0  0
   62.0729   30.8528   50.5932 H   0  0  0  0  0  0  0  0  0  0  0  0
   57.5755   26.2515   45.0540 H   0  0  0  0  0  0  0  0  0  0  0  0
   58.0440   26.4141   47.3315 H   0  0  0  0  0  0  0  0  0  0  0  0
   56.3148   26.1550   47.8036 H   0  0  0  0  0  0  0  0  0  0  0  0
   58.1715   24.0417   46.6101 H   0  0  0  0  0  0  0  0  0  0  0  0
   57.7055   24.2014   48.3553 H   0  0  0  0  0  0  0  0  0  0  0  0
   56.4268   22.5372   46.6628 H   0  0  0  0  0  0  0  0  0  0  0  0
   55.5979   23.4250   48.0291 H   0  0  0  0  0  0  0  0  0  0  0  0
   54.5696   23.3645   45.5620 H   0  0  0  0  0  0  0  0  0  0  0  0
   54.4569   24.8166   46.6435 H   0  0  0  0  0  0  0  0  0  0  0  0
   56.5364   24.3704   44.4508 H   0  0  0  0  0  0  0  0  0  0  0  0
   55.0903   25.4640   44.3693 H   0  0  0  0  0  0  0  0  0  0  0  0
   57.3704   31.6231   47.5760 H   0  0  0  0  0  0  0  0  0  0  0  0
   58.8101   32.2764   49.4997 H   0  0  0  0  0  0  0  0  0  0  0  0
  1  2  1  0
  2  3  1  0
  3  4  2  0
  4  5  1  0
  5  6  2  0
  6  7  1  0
  7  8  1  0
  8  9  1  0
  9 10  1  0
 10 11  1  0
 11 12  1  0
 12 13  2  0
 12 14  1  0
 14 15  1  0
 15 16  1  0
 16 17  2  0
 16 18  1  0
 18 19  2  0
 19 20  1  0
 20 21  2  0
 21 22  1  0
 22 23  1  0
 23 24  1  0
 23 25  1  0
 23 26  1  0
 22 27  2  0
 10 28  1  0
 28 29  2  0
 28 30  1  0
 30 31  1  0
 31 32  1  0
 32 33  1  0
 33 34  1  0
 34 35  1  0
 35 36  1  0
  6 37  1  0
 37 38  2  0
 38  3  1  0
 27 18  1  0
 36 31  1  0
  1 39  1  0
  1 40  1  0
  1 41  1  0
  4 42  1  0
  5 43  1  0
  7 44  1  0
  7 45  1  0
  8 46  1  0
  9 47  1  0
  9 48  1  0
 10 49  1  6
 11 50  1  0
 14 51  1  0
 14 52  1  0
 19 53  1  0
 20 54  1  0
 21 55  1  0
 27 56  1  0
 31 57  1  0
 32 58  1  0
 32 59  1  0
 33 60  1  0
 33 61  1  0
 34 62  1  0
 34 63  1  0
 35 64  1  0
 35 65  1  0
 36 66  1  0
 36 67  1  0
 37 68  1  0
 38 69  1  0
M  CHG  2  15  -1  30  -1
M  END
>  <UniqueID>  (80) 
70

>  <SMILES>  (80) 
COc1ccc(CNC[C@@H](NC(=O)C[N-]C(=O)c2cccc(C(F)(F)F)c2)C(=O)[N-]C2CCCCC2)cc1

>  <Energy>  (80) 
69.4661618160267

>  <Genealogy>  (80) 
COc1ccc(CNCC(NC(=O)C[N-]C(=O)c2cccc(C(F)(F)F)c2)C(=O)[N-]C2CCCCC2)cc1 (protonated)
COc1ccc(CNC[C@@H](NC(=O)C[N-]C(=O)c2cccc(C(F)(F)F)c2)C(=O)[N-]C2CCCCC2)cc1 (chirality)
COc1ccc(CNC[C@@H](NC(=O)C[N-]C(=O)c2cccc(C(F)(F)F)c2)C(=O)[N-]C2CCCCC2)cc1 (3D coordinates assigned)
COc1ccc(CNC[C@@H](NC(=O)C[N-]C(=O)c2cccc(C(F)(F)F)c2)C(=O)[N-]C2CCCCC2)cc1 (nonaromatic ring conformer: 69.4661618160267 kcal/mol)

>  <smiles>  (80) 
COc1ccc(CNCC(NC(=O)CNC(=O)c2cccc(C(F)(F)F)c2)C(=O)NC2CCCCC2)cc1

>  <score_type>  (80) 
oracle

>  <origin>  (80) 
adg

>  <m_score__min__energy>  (80) 
-11.73

>  <m_primary>  (80) 
energy

$$$$
80:0
     RDKit          3D

 49 52  0  0  0  0  0  0  0  0999 V2000
   52.4100   23.2990   45.8950 C   0  0  0  0  0  0  0  0  0  0  0  0
   53.0640   23.7140   44.5820 C   0  0  0  0  0  0  0  0  0  0  0  0
   54.4920   23.9570   44.7730 N   0  0  0  0  0  0  0  0  0  0  0  0
   54.9900   25.1080   45.4760 C   0  0  0  0  0  0  0  0  0  0  0  0
   54.1840   25.9340   45.9840 O   0  0  0  0  0  0  0  0  0  0  0  0
   56.4470   25.3360   45.6060 C   0  0  0  0  0  0  0  0  0  0  0  0
   57.2980   24.2330   45.7960 C   0  0  0  0  0  0  0  0  0  0  0  0
   58.6660   24.4190   46.0020 C   0  0  0  0  0  0  0  0  0  0  0  0
   59.2010   25.7070   46.0290 C   0  0  0  0  0  0  0  0  0  0  0  0
   58.3720   26.8130   45.8340 C   0  0  0  0  0  0  0  0  0  0  0  0
   57.0000   26.6420   45.5970 C   0  0  0  0  0  0  0  0  0  0  0  0
   56.1960   27.8080   45.3480 N   0  0  0  0  0  0  0  0  0  0  0  0
   56.7300   29.1370   45.2000 C   0  0  0  0  0  0  0  0  0  0  0  0
   56.2430   29.9620   44.1760 C   0  0  0  0  0  0  0  0  0  0  0  0
   56.7630   31.2450   43.9900 C   0  0  0  0  0  0  0  0  0  0  0  0
   57.7740   31.7210   44.8300 C   0  0  0  0  0  0  0  0  0  0  0  0
   58.2920   32.9580   44.6340 N   0  0  0  0  0  0  0  0  0  0  0  0
   59.2810   33.4400   45.4260 C   0  0  0  0  0  0  0  0  0  0  0  0
   59.7870   32.6850   46.4470 N   0  0  0  0  0  0  0  0  0  0  0  0
   60.8600   33.2220   47.2460 C   0  0  0  0  0  0  0  0  0  0  0  0
   62.1710   33.2590   46.7410 C   0  0  0  0  0  0  0  0  0  0  0  0
   63.2130   33.7720   47.5220 C   0  0  0  0  0  0  0  0  0  0  0  0
   62.9550   34.2470   48.8100 C   0  0  0  0  0  0  0  0  0  0  0  0
   61.6550   34.2090   49.3220 C   0  0  0  0  0  0  0  0  0  0  0  0
   60.6100   33.6970   48.5460 C   0  0  0  0  0  0  0  0  0  0  0  0
   59.2820   31.4330   46.6930 C   0  0  0  0  0  0  0  0  0  0  0  0
   59.7270   30.7450   47.6540 O   0  0  0  0  0  0  0  0  0  0  0  0
   58.2580   30.9160   45.8770 C   0  0  0  0  0  0  0  0  0  0  0  0
   57.7230   29.6300   46.0680 C   0  0  0  0  0  0  0  0  0  0  0  0
   53.0069   23.6778   46.7377 H   0  0  0  0  0  0  0  0  0  0  0  0
   51.3944   23.7182   45.9473 H   0  0  0  0  0  0  0  0  0  0  0  0
   52.3568   22.2015   45.9473 H   0  0  0  0  0  0  0  0  0  0  0  0
   52.9297   22.9115   43.8417 H   0  0  0  0  0  0  0  0  0  0  0  0
   52.5907   24.6416   44.2277 H   0  0  0  0  0  0  0  0  0  0  0  0
   55.1670   23.2710   44.3680 H   0  0  0  0  0  0  0  0  0  0  0  0
   56.8822   23.2147   45.7822 H   0  0  0  0  0  0  0  0  0  0  0  0
   59.3233   23.5484   46.1433 H   0  0  0  0  0  0  0  0  0  0  0  0
   60.2773   25.8513   46.2041 H   0  0  0  0  0  0  0  0  0  0  0  0
   58.7980   27.8267   45.8664 H   0  0  0  0  0  0  0  0  0  0  0  0
   55.1570   27.6930   45.3690 H   0  0  0  0  0  0  0  0  0  0  0  0
   55.4448   29.5957   43.5137 H   0  0  0  0  0  0  0  0  0  0  0  0
   56.3762   31.8821   43.1810 H   0  0  0  0  0  0  0  0  0  0  0  0
   59.6804   34.4489   45.2452 H   0  0  0  0  0  0  0  0  0  0  0  0
   62.3789   32.8834   45.7282 H   0  0  0  0  0  0  0  0  0  0  0  0
   64.2368   33.8012   47.1208 H   0  0  0  0  0  0  0  0  0  0  0  0
   63.7752   34.6511   49.4215 H   0  0  0  0  0  0  0  0  0  0  0  0
   61.4534   34.5824   50.3369 H   0  0  0  0  0  0  0  0  0  0  0  0
   59.5889   33.6657   48.9539 H   0  0  0  0  0  0  0  0  0  0  0  0
   58.0819   29.0059   46.8996 H   0  0  0  0  0  0  0  0  0  0  0  0
  1  2  1  0
  2  3  1  0
  3  4  1  0
  4  5  2  0
  4  6  1  0
  6  7  2  0
  7  8  1  0
  8  9  2  0
  9 10  1  0
 10 11  2  0
 11 12  1  0
 12 13  1  0
 13 14  2  0
 14 15  1  0
 15 16  2  0
 16 17  1  0
 17 18  2  0
 18 19  1  0
 19 20  1  0
 20 21  2  0
 21 22  1  0
 22 23  2  0
 23 24  1  0
 24 25  2  0
 19 26  1  0
 26 27  2  0
 26 28  1  0
 28 29  2  0
 11  6  1  0
 29 13  1  0
 28 16  1  0
 25 20  1  0
  1 30  1  0
  1 31  1  0
  1 32  1  0
  2 33  1  0
  2 34  1  0
  3 35  1  0
  7 36  1  0
  8 37  1  0
  9 38  1  0
 10 39  1  0
 12 40  1  0
 14 41  1  0
 15 42  1  0
 18 43  1  0
 21 44  1  0
 22 45  1  0
 23 46  1  0
 24 47  1  0
 25 48  1  0
 29 49  1  0
M  END
>  <UniqueID>  (81) 
71

>  <SMILES>  (81) 
CCNC(=O)c1ccccc1Nc1ccc2ncn(-c3ccccc3)c(=O)c2c1

>  <Energy>  (81) 
69.62543723449075

>  <Genealogy>  (81) 
CCNC(=O)c1ccccc1Nc1ccc2ncn(-c3ccccc3)c(=O)c2c1 (3D coordinates assigned)
CCNC(=O)c1ccccc1Nc1ccc2ncn(-c3ccccc3)c(=O)c2c1 (optimized conformer: 69.62543723449075 kcal/mol)

>  <smiles>  (81) 
CCNC(=O)c1ccccc1Nc1ccc2ncn(-c3ccccc3)c(=O)c2c1

>  <score_type>  (81) 
oracle

>  <origin>  (81) 
adg

>  <m_score__min__energy>  (81) 
-8.9100000000000001

>  <m_primary>  (81) 
energy

$$$$
81:0
     RDKit          3D

 37 41  0  0  0  0  0  0  0  0999 V2000
   57.5970   24.8370   47.8170 C   0  0  0  0  0  0  0  0  0  0  0  0
   57.5200   25.2390   46.4040 N   0  0  0  0  0  0  0  0  0  0  0  0
   57.1920   24.2630   45.3790 C   0  0  0  0  0  0  0  0  0  0  0  0
   56.9230   22.9130   45.6960 C   0  0  0  0  0  0  0  0  0  0  0  0
   56.6100   21.9940   44.6890 C   0  0  0  0  0  0  0  0  0  0  0  0
   56.2520   20.1710   45.1390 Br  0  0  0  0  0  0  0  0  0  0  0  0
   56.5600   22.4040   43.3570 C   0  0  0  0  0  0  0  0  0  0  0  0
   56.8200   23.7330   43.0250 C   0  0  0  0  0  0  0  0  0  0  0  0
   57.1340   24.6640   44.0240 C   0  0  0  0  0  0  0  0  0  0  0  0
   57.3950   26.0270   43.6700 N   0  0  0  0  0  0  0  0  0  0  0  0
   57.7080   26.9940   44.6720 C   0  0  0  0  0  0  0  0  0  0  0  0
   57.9440   28.2870   44.3220 N   0  0  0  0  0  0  0  0  0  0  0  0
   58.2410   29.2260   45.2560 C   0  0  0  0  0  0  0  0  0  0  0  0
   58.4820   30.5510   44.8800 C   0  0  0  0  0  0  0  0  0  0  0  0
   58.7880   31.5140   45.8560 C   0  0  0  0  0  0  0  0  0  0  0  0
   59.0320   32.8470   45.4930 C   0  0  0  0  0  0  0  0  0  0  0  0
   59.3350   33.7990   46.4710 C   0  0  0  0  0  0  0  0  0  0  0  0
   59.6390   35.4630   46.0100 Cl  0  0  0  0  0  0  0  0  0  0  0  0
   59.3980   33.4260   47.8180 C   0  0  0  0  0  0  0  0  0  0  0  0
   59.1570   32.1020   48.1940 C   0  0  0  0  0  0  0  0  0  0  0  0
   58.8510   31.1370   47.2220 C   0  0  0  0  0  0  0  0  0  0  0  0
   58.6080   29.8040   47.5910 C   0  0  0  0  0  0  0  0  0  0  0  0
   58.3040   28.8520   46.6130 C   0  0  0  0  0  0  0  0  0  0  0  0
   58.0670   27.5600   46.9570 N   0  0  0  0  0  0  0  0  0  0  0  0
   57.7700   26.6140   46.0220 C   0  0  0  0  0  0  0  0  0  0  0  0
   57.4288   25.7152   48.4577 H   0  0  0  0  0  0  0  0  0  0  0  0
   56.8278   24.0787   48.0249 H   0  0  0  0  0  0  0  0  0  0  0  0
   58.5920   24.4166   48.0249 H   0  0  0  0  0  0  0  0  0  0  0  0
   56.9600   22.5814   46.7442 H   0  0  0  0  0  0  0  0  0  0  0  0
   56.3152   21.6782   42.5675 H   0  0  0  0  0  0  0  0  0  0  0  0
   56.7784   24.0523   41.9732 H   0  0  0  0  0  0  0  0  0  0  0  0
   57.3560   26.3260   42.6680 H   0  0  0  0  0  0  0  0  0  0  0  0
   58.4320   30.8394   43.8197 H   0  0  0  0  0  0  0  0  0  0  0  0
   58.9847   33.1442   44.4350 H   0  0  0  0  0  0  0  0  0  0  0  0
   59.6382   34.1780   48.5840 H   0  0  0  0  0  0  0  0  0  0  0  0
   59.2073   31.8153   49.2548 H   0  0  0  0  0  0  0  0  0  0  0  0
   58.6568   29.5088   48.6495 H   0  0  0  0  0  0  0  0  0  0  0  0
  1  2  1  0
  2  3  1  0
  3  4  2  0
  4  5  1  0
  5  6  1  0
  5  7  2  0
  7  8  1  0
  8  9  2  0
  9 10  1  0
 10 11  1  0
 11 12  2  0
 12 13  1  0
 13 14  2  0
 14 15  1  0
 15 16  2  0
 16 17  1  0
 17 18  1  0
 17 19  2  0
 19 20  1  0
 20 21  2  0
 21 22  1  0
 22 23  2  0
 23 24  1  0
 24 25  2  0
 25  2  1  0
  9  3  1  0
 25 11  1  0
 23 13  1  0
 21 15  1  0
  1 26  1  0
  1 27  1  0
  1 28  1  0
  4 29  1  0
  7 30  1  0
  8 31  1  0
 10 32  1  0
 14 33  1  0
 16 34  1  0
 19 35  1  0
 20 36  1  0
 22 37  1  0
M  END
>  <UniqueID>  (82) 
72

>  <SMILES>  (82) 
CN1c2cc(Br)ccc2Nc2nc3cc4cc(Cl)ccc4cc3nc21

>  <Energy>  (82) 
54.292372236539784

>  <Genealogy>  (82) 
CN1c2cc(Br)ccc2Nc2nc3cc4cc(Cl)ccc4cc3nc21 (3D coordinates assigned)
CN1c2cc(Br)ccc2Nc2nc3cc4cc(Cl)ccc4cc3nc21 (nonaromatic ring conformer: 54.292372236539784 kcal/mol)

>  <smiles>  (82) 
CN1c2cc(Br)ccc2Nc2nc3cc4cc(Cl)ccc4cc3nc21

>  <score_type>  (82) 
oracle

>  <origin>  (82) 
adg

>  <m_score__min__energy>  (82) 
-7.5899999999999999

>  <m_primary>  (82) 
energy

$$$$
82:0
     RDKit          3D

 46 49  0  0  0  0  0  0  0  0999 V2000
   59.1060   30.8870   49.2580 C   0  0  0  0  0  0  0  0  0  0  0  0
   59.0180   30.9130   47.7980 N   0  0  0  0  0  0  0  0  0  0  0  0
   58.4660   31.8780   47.0170 C   0  0  0  0  0  0  0  0  0  0  0  0
   58.4770   31.5060   45.6920 C   0  0  0  0  0  0  0  0  0  0  0  0
   59.0780   30.2690   45.6470 C   0  0  0  0  0  0  0  0  0  0  0  0
   59.3800   29.4370   44.5700 C   0  0  0  0  0  0  0  0  0  0  0  0
   60.0080   28.2110   44.8470 C   0  0  0  0  0  0  0  0  0  0  0  0
   60.3130   27.8480   46.1770 C   0  0  0  0  0  0  0  0  0  0  0  0
   59.9980   28.7080   47.2440 C   0  0  0  0  0  0  0  0  0  0  0  0
   59.3820   29.9270   46.9440 C   0  0  0  0  0  0  0  0  0  0  0  0
   58.0000   32.3650   44.5690 C   0  0  0  0  0  0  0  0  0  0  0  0
   57.3890   33.6940   45.0780 C   0  0  0  0  0  0  0  0  0  0  0  0
   57.9440   34.2010   46.3660 N   0  0  2  0  0  0  0  0  0  0  0  0
   59.2360   34.9320   46.2410 C   0  0  0  0  0  0  0  0  0  0  0  0
   60.3940   34.3330   47.0130 C   0  0  0  0  0  0  0  0  0  0  0  0
   60.5470   34.5910   48.3860 C   0  0  0  0  0  0  0  0  0  0  0  0
   61.5770   33.9850   49.1110 C   0  0  0  0  0  0  0  0  0  0  0  0
   62.4860   33.1310   48.4680 C   0  0  0  0  0  0  0  0  0  0  0  0
   63.5950   32.4850   49.2450 C   0  0  0  0  0  0  0  0  0  0  0  0
   64.8220   33.0190   48.8320 O   0  0  0  0  0  0  0  0  0  0  0  0
   62.3860   32.9400   47.0820 C   0  0  0  0  0  0  0  0  0  0  0  0
   61.3530   33.5440   46.3590 C   0  0  0  0  0  0  0  0  0  0  0  0
   57.9090   33.1980   47.4630 C   0  0  0  0  0  0  0  0  0  0  0  0
   58.1354   31.1738   49.6890 H   0  0  0  0  0  0  0  0  0  0  0  0
   59.3699   29.8725   49.5914 H   0  0  0  0  0  0  0  0  0  0  0  0
   59.8789   31.5952   49.5914 H   0  0  0  0  0  0  0  0  0  0  0  0
   59.1350   29.7303   43.5385 H   0  0  0  0  0  0  0  0  0  0  0  0
   60.2637   27.5295   44.0223 H   0  0  0  0  0  0  0  0  0  0  0  0
   60.8015   26.8836   46.3803 H   0  0  0  0  0  0  0  0  0  0  0  0
   60.2291   28.4303   48.2830 H   0  0  0  0  0  0  0  0  0  0  0  0
   58.8506   32.5939   43.9102 H   0  0  0  0  0  0  0  0  0  0  0  0
   57.2163   31.8146   44.0278 H   0  0  0  0  0  0  0  0  0  0  0  0
   57.5592   34.4622   44.3093 H   0  0  0  0  0  0  0  0  0  0  0  0
   56.3255   33.4860   45.2671 H   0  0  0  0  0  0  0  0  0  0  0  0
   57.2670   34.9440   46.6670 H   0  0  0  0  0  0  0  0  0  0  0  0
   59.5123   34.9549   45.1765 H   0  0  0  0  0  0  0  0  0  0  0  0
   59.0652   35.9293   46.6724 H   0  0  0  0  0  0  0  0  0  0  0  0
   59.8510   35.2749   48.8939 H   0  0  0  0  0  0  0  0  0  0  0  0
   61.6754   34.1782   50.1894 H   0  0  0  0  0  0  0  0  0  0  0  0
   63.4527   32.6786   50.3184 H   0  0  0  0  0  0  0  0  0  0  0  0
   63.5866   31.3997   49.0659 H   0  0  0  0  0  0  0  0  0  0  0  0
   64.9540   32.7110   47.8980 H   0  0  0  0  0  0  0  0  0  0  0  0
   63.1239   32.3119   46.5614 H   0  0  0  0  0  0  0  0  0  0  0  0
   61.2914   33.3999   45.2702 H   0  0  0  0  0  0  0  0  0  0  0  0
   58.5062   33.5711   48.3081 H   0  0  0  0  0  0  0  0  0  0  0  0
   56.8609   33.0481   47.7612 H   0  0  0  0  0  0  0  0  0  0  0  0
  1  2  1  0
  2  3  1  0
  3  4  2  0
  4  5  1  0
  5  6  2  0
  6  7  1  0
  7  8  2  0
  8  9  1  0
  9 10  2  0
  4 11  1  0
 11 12  1  0
 12 13  1  0
 13 14  1  0
 14 15  1  0
 15 16  2  0
 16 17  1  0
 17 18  2  0
 18 19  1  0
 19 20  1  0
 18 21  1  0
 21 22  2  0
 13 23  1  0
 10  2  1  0
 22 15  1  0
 23  3  1  0
 10  5  1  0
  1 24  1  0
  1 25  1  0
  1 26  1  0
  6 27  1  0
  7 28  1  0
  8 29  1  0
  9 30  1  0
 11 31  1  0
 11 32  1  0
 12 33  1  0
 12 34  1  0
 13 35  1  1
 14 36  1  0
 14 37  1  0
 16 38  1  0
 17 39  1  0
 19 40  1  0
 19 41  1  0
 20 42  1  0
 21 43  1  0
 22 44  1  0
 23 45  1  0
 23 46  1  0
M  CHG  1  13   1
M  END
>  <UniqueID>  (83) 
73

>  <SMILES>  (83) 
Cn1c2c(c3ccccc31)CC[N@H+](Cc1ccc(CO)cc1)C2

>  <Energy>  (83) 
92.95533060332197

>  <Genealogy>  (83) 
Cn1c2c(c3ccccc31)CC[NH+](Cc1ccc(CO)cc1)C2 (protonated)
Cn1c2c(c3ccccc31)CC[N@H+](Cc1ccc(CO)cc1)C2 (chirality)
Cn1c2c(c3ccccc31)CC[N@H+](Cc1ccc(CO)cc1)C2 (3D coordinates assigned)
Cn1c2c(c3ccccc31)CC[N@H+](Cc1ccc(CO)cc1)C2 (nonaromatic ring conformer: 92.95533060332197 kcal/mol)

>  <smiles>  (83) 
Cn1c2c(c3ccccc31)CCN(Cc1ccc(CO)cc1)C2

>  <score_type>  (83) 
oracle

>  <origin>  (83) 
adg

>  <m_score__min__energy>  (83) 
-6.5800000000000001

>  <m_primary>  (83) 
energy

$$$$
83:0
     RDKit          3D

 63 66  0  0  0  0  0  0  0  0999 V2000
   59.7880   21.8410   44.1490 C   0  0  0  0  0  0  0  0  0  0  0  0
   58.9950   22.2870   45.3040 N   0  0  0  0  0  0  0  0  0  0  0  0
   59.2740   23.6920   45.6290 C   0  0  0  0  0  0  0  0  0  0  0  0
   57.5510   22.0040   45.1630 C   0  0  0  0  0  0  0  0  0  0  0  0
   57.0150   22.1400   43.7190 C   0  0  0  0  0  0  0  0  0  0  0  0
   55.9100   23.2020   43.5980 C   0  0  0  0  0  0  0  0  0  0  0  0
   56.2050   24.3980   44.4240 N   0  0  0  0  0  0  0  0  0  0  0  0
   55.5840   24.6300   45.6280 C   0  0  0  0  0  0  0  0  0  0  0  0
   54.4220   23.6400   46.2400 S   0  0  0  0  0  0  0  0  0  0  0  0
   55.9380   25.6980   46.3730 N   0  0  0  0  0  0  0  0  0  0  0  0
   56.9130   26.5500   45.9750 C   0  0  0  0  0  0  0  0  0  0  0  0
   57.2260   27.5740   46.7180 N   0  0  0  0  0  0  0  0  0  0  0  0
   58.4420   27.7320   47.4620 C   0  0  0  0  0  0  0  0  0  0  0  0
   59.1920   26.5950   47.7920 C   0  0  0  0  0  0  0  0  0  0  0  0
   60.3680   26.7220   48.5370 C   0  0  0  0  0  0  0  0  0  0  0  0
   60.7800   27.9820   48.9900 C   0  0  0  0  0  0  0  0  0  0  0  0
   60.0100   29.1200   48.7180 C   0  0  0  0  0  0  0  0  0  0  0  0
   60.4360   30.3630   49.2050 O   0  0  0  0  0  0  0  0  0  0  0  0
   60.3760   31.5640   48.4780 C   0  0  0  0  0  0  0  0  0  0  0  0
   59.2240   32.3590   48.5740 C   0  0  0  0  0  0  0  0  0  0  0  0
   59.1260   33.5540   47.8480 C   0  0  0  0  0  0  0  0  0  0  0  0
   60.1690   33.9510   47.0060 C   0  0  0  0  0  0  0  0  0  0  0  0
   61.3090   33.1520   46.8870 C   0  0  0  0  0  0  0  0  0  0  0  0
   61.4150   31.9640   47.6210 C   0  0  0  0  0  0  0  0  0  0  0  0
   58.8460   28.9940   47.9390 C   0  0  0  0  0  0  0  0  0  0  0  0
   57.5470   26.3430   44.7780 N   0  0  0  0  0  0  0  0  0  0  0  0
   58.7120   27.1710   44.3980 C   0  0  0  0  0  0  0  0  0  0  0  0
   58.3360   28.6300   44.4430 C   0  0  0  0  0  0  0  0  0  0  0  0
   57.0410   29.0460   44.0830 C   0  0  0  0  0  0  0  0  0  0  0  0
   56.6690   30.3880   44.2120 C   0  0  0  0  0  0  0  0  0  0  0  0
   57.5840   31.3240   44.7070 C   0  0  0  0  0  0  0  0  0  0  0  0
   57.1100   33.0030   44.8930 Cl  0  0  0  0  0  0  0  0  0  0  0  0
   58.8710   30.9180   45.0660 C   0  0  0  0  0  0  0  0  0  0  0  0
   59.2470   29.5790   44.9350 C   0  0  0  0  0  0  0  0  0  0  0  0
   57.1690   25.2790   43.9970 C   0  0  0  0  0  0  0  0  0  0  0  0
   57.7220   25.1030   42.8730 O   0  0  0  0  0  0  0  0  0  0  0  0
   60.6958   21.3304   44.5027 H   0  0  0  0  0  0  0  0  0  0  0  0
   59.1904   21.1466   43.5401 H   0  0  0  0  0  0  0  0  0  0  0  0
   60.0710   22.7123   43.5401 H   0  0  0  0  0  0  0  0  0  0  0  0
   59.2989   23.8176   46.7215 H   0  0  0  0  0  0  0  0  0  0  0  0
   60.2469   23.9803   45.2044 H   0  0  0  0  0  0  0  0  0  0  0  0
   58.4850   24.3302   45.2044 H   0  0  0  0  0  0  0  0  0  0  0  0
   57.3667   20.9744   45.5035 H   0  0  0  0  0  0  0  0  0  0  0  0
   57.0218   22.7550   45.7679 H   0  0  0  0  0  0  0  0  0  0  0  0
   57.8484   22.4214   43.0586 H   0  0  0  0  0  0  0  0  0  0  0  0
   56.5801   21.1714   43.4316 H   0  0  0  0  0  0  0  0  0  0  0  0
   55.8240   23.5085   42.5451 H   0  0  0  0  0  0  0  0  0  0  0  0
   54.9693   22.7602   43.9584 H   0  0  0  0  0  0  0  0  0  0  0  0
   58.8546   25.6007   47.4641 H   0  0  0  0  0  0  0  0  0  0  0  0
   60.9708   25.8313   48.7679 H   0  0  0  0  0  0  0  0  0  0  0  0
   61.7141   28.0783   49.5629 H   0  0  0  0  0  0  0  0  0  0  0  0
   58.3935   32.0429   49.2223 H   0  0  0  0  0  0  0  0  0  0  0  0
   58.2267   34.1806   47.9409 H   0  0  0  0  0  0  0  0  0  0  0  0
   60.0923   34.8902   46.4385 H   0  0  0  0  0  0  0  0  0  0  0  0
   62.1251   33.4567   46.2153 H   0  0  0  0  0  0  0  0  0  0  0  0
   62.3164   31.3408   47.5260 H   0  0  0  0  0  0  0  0  0  0  0  0
   58.2479   29.8859   47.7009 H   0  0  0  0  0  0  0  0  0  0  0  0
   59.5376   26.9845   45.1006 H   0  0  0  0  0  0  0  0  0  0  0  0
   59.0280   26.9080   43.3777 H   0  0  0  0  0  0  0  0  0  0  0  0
   56.3176   28.3121   43.6982 H   0  0  0  0  0  0  0  0  0  0  0  0
   55.6567   30.7079   43.9242 H   0  0  0  0  0  0  0  0  0  0  0  0
   59.5906   31.6545   45.4530 H   0  0  0  0  0  0  0  0  0  0  0  0
   60.2626   29.2660   45.2189 H   0  0  0  0  0  0  0  0  0  0  0  0
  1  2  1  0
  2  3  1  0
  2  4  1  0
  4  5  1  0
  5  6  1  0
  6  7  1  0
  7  8  1  0
  8  9  2  0
  8 10  1  0
 10 11  1  0
 11 12  2  3
 12 13  1  0
 13 14  2  0
 14 15  1  0
 15 16  2  0
 16 17  1  0
 17 18  1  0
 18 19  1  0
 19 20  2  0
 20 21  1  0
 21 22  2  0
 22 23  1  0
 23 24  2  0
 17 25  2  0
 11 26  1  0
 26 27  1  0
 27 28  1  0
 28 29  2  0
 29 30  1  0
 30 31  2  0
 31 32  1  0
 31 33  1  0
 33 34  2  0
 26 35  1  0
 35 36  2  0
 35  7  1  0
 25 13  1  0
 34 28  1  0
 24 19  1  0
  1 37  1  0
  1 38  1  0
  1 39  1  0
  3 40  1  0
  3 41  1  0
  3 42  1  0
  4 43  1  0
  4 44  1  0
  5 45  1  0
  5 46  1  0
  6 47  1  0
  6 48  1  0
 14 49  1  0
 15 50  1  0
 16 51  1  0
 20 52  1  0
 21 53  1  0
 22 54  1  0
 23 55  1  0
 24 56  1  0
 25 57  1  0
 27 58  1  0
 27 59  1  0
 29 60  1  0
 30 61  1  0
 33 62  1  0
 34 63  1  0
M  CHG  1  10  -1
M  END
>  <UniqueID>  (84) 
74

>  <SMILES>  (84) 
CN(C)CCCn1c(=S)[n-]c(=Nc2cccc(Oc3ccccc3)c2)n(Cc2ccc(Cl)cc2)c1=O

>  <Energy>  (84) 
87.21469174043085

>  <Genealogy>  (84) 
CN(C)CCCn1c(=S)[n-]c(=Nc2cccc(Oc3ccccc3)c2)n(Cc2ccc(Cl)cc2)c1=O (protonated)
CN(C)CCCn1c(=S)[n-]c(=Nc2cccc(Oc3ccccc3)c2)n(Cc2ccc(Cl)cc2)c1=O (3D coordinates assigned)
CN(C)CCCn1c(=S)[n-]c(=Nc2cccc(Oc3ccccc3)c2)n(Cc2ccc(Cl)cc2)c1=O (optimized conformer: 87.21469174043085 kcal/mol)

>  <smiles>  (84) 
CN(C)CCCn1c(=S)[nH]c(=Nc2cccc(Oc3ccccc3)c2)n(Cc2ccc(Cl)cc2)c1=O

>  <score_type>  (84) 
oracle

>  <origin>  (84) 
adg

>  <m_score__min__energy>  (84) 
-10.890000000000001

>  <m_primary>  (84) 
energy

$$$$
84:0
     RDKit          3D

 48 51  0  0  0  0  0  0  0  0999 V2000
   56.8314   33.3167   44.1740 H   0  0  0  0  0  0  0  0  0  0  0  0
   57.1780   32.4630   44.7750 C   0  0  0  0  0  0  0  0  0  0  0  0
   56.6900   31.2870   44.4960 N   0  0  0  0  0  0  0  0  0  0  0  0
   57.3300   30.0140   44.6780 C   0  0  0  0  0  0  0  0  0  0  0  0
   58.7330   29.9020   44.6890 C   0  0  0  0  0  0  0  0  0  0  0  0
   59.3550   30.7926   44.5158 H   0  0  0  0  0  0  0  0  0  0  0  0
   59.3390   28.6640   44.9190 C   0  0  0  0  0  0  0  0  0  0  0  0
   60.4355   28.5777   44.9046 H   0  0  0  0  0  0  0  0  0  0  0  0
   58.5540   27.5370   45.1670 C   0  0  0  0  0  0  0  0  0  0  0  0
   59.0323   26.5618   45.3407 H   0  0  0  0  0  0  0  0  0  0  0  0
   57.1600   27.6460   45.1950 C   0  0  0  0  0  0  0  0  0  0  0  0
   56.5434   26.7585   45.4004 H   0  0  0  0  0  0  0  0  0  0  0  0
   56.5490   28.8830   44.9620 C   0  0  0  0  0  0  0  0  0  0  0  0
   55.1620   28.9830   45.0040 O   0  0  0  0  0  0  0  0  0  0  0  0
   58.1640   32.7290   45.8420 C   0  0  0  0  0  0  0  0  0  0  0  0
   58.8780   33.8050   45.9050 N   0  0  0  0  0  0  0  0  0  0  0  0
   59.6400   33.6980   47.0980 C   0  0  0  0  0  0  0  0  0  0  0  0
   60.4550   34.5840   47.4680 O   0  0  0  0  0  0  0  0  0  0  0  0
   59.3420   32.4270   47.8370 C   0  0  0  0  0  0  0  0  0  0  0  0
   58.3400   31.8500   46.9510 N   0  0  0  0  0  0  0  0  0  0  0  0
   57.8520   30.9360   47.0870 H   0  0  0  0  0  0  0  0  0  0  0  0
   58.7310   32.6920   49.2380 C   0  0  0  0  0  0  0  0  0  0  0  0
   58.2494   33.6809   49.2301 H   0  0  0  0  0  0  0  0  0  0  0  0
   58.0084   31.8880   49.4418 H   0  0  0  0  0  0  0  0  0  0  0  0
   59.7830   32.6660   50.3620 C   0  0  0  0  0  0  0  0  0  0  0  0
   59.4935   33.3806   51.1466 H   0  0  0  0  0  0  0  0  0  0  0  0
   59.8360   31.6496   50.7792 H   0  0  0  0  0  0  0  0  0  0  0  0
   61.1060   33.0360   49.8320 N   0  0  0  0  0  0  0  0  0  0  0  0
   62.0710   33.4400   50.8790 C   0  0  0  0  0  0  0  0  0  0  0  0
   62.1851   34.5334   50.8411 H   0  0  0  0  0  0  0  0  0  0  0  0
   61.6643   33.0900   51.8393 H   0  0  0  0  0  0  0  0  0  0  0  0
   63.4420   32.8120   50.7280 C   0  0  0  0  0  0  0  0  0  0  0  0
   64.4190   33.4210   49.9210 C   0  0  0  0  0  0  0  0  0  0  0  0
   64.1869   34.3589   49.3952 H   0  0  0  0  0  0  0  0  0  0  0  0
   65.6830   32.8420   49.7830 C   0  0  0  0  0  0  0  0  0  0  0  0
   66.4396   33.3204   49.1438 H   0  0  0  0  0  0  0  0  0  0  0  0
   65.9870   31.6560   50.4560 C   0  0  0  0  0  0  0  0  0  0  0  0
   66.9817   31.2000   50.3439 H   0  0  0  0  0  0  0  0  0  0  0  0
   65.0290   31.0490   51.2710 C   0  0  0  0  0  0  0  0  0  0  0  0
   65.2706   30.1170   51.8030 H   0  0  0  0  0  0  0  0  0  0  0  0
   63.7620   31.6260   51.4110 C   0  0  0  0  0  0  0  0  0  0  0  0
   63.0122   31.1488   52.0592 H   0  0  0  0  0  0  0  0  0  0  0  0
   61.6400   32.0060   48.9140 C   0  0  0  0  0  0  0  0  0  0  0  0
   62.4820   32.4359   48.3517 H   0  0  0  0  0  0  0  0  0  0  0  0
   61.9593   31.1468   49.5221 H   0  0  0  0  0  0  0  0  0  0  0  0
   60.5760   31.5050   47.9100 C   0  0  0  0  0  0  0  0  0  0  0  0
   61.0335   31.4504   46.9111 H   0  0  0  0  0  0  0  0  0  0  0  0
   60.2326   30.5189   48.2560 H   0  0  0  0  0  0  0  0  0  0  0  0
  1  2  1  0
  2  3  2  0
  3  4  1  0
  4  5  2  0
  5  6  1  0
  5  7  1  0
  7  8  1  0
  7  9  2  0
  9 10  1  0
  9 11  1  0
 11 12  1  0
 11 13  2  0
 13 14  1  0
  2 15  1  0
 15 16  2  0
 16 17  1  0
 17 18  2  0
 17 19  1  0
 19 20  1  0
 20 21  1  0
 19 22  1  0
 22 23  1  0
 22 24  1  0
 22 25  1  0
 25 26  1  0
 25 27  1  0
 25 28  1  0
 28 29  1  0
 29 30  1  0
 29 31  1  0
 29 32  1  0
 32 33  2  0
 33 34  1  0
 33 35  1  0
 35 36  1  0
 35 37  2  0
 37 38  1  0
 37 39  1  0
 39 40  1  0
 39 41  2  0
 41 42  1  0
 28 43  1  0
 43 44  1  0
 43 45  1  0
 43 46  1  0
 46 47  1  0
 46 48  1  0
 13  4  1  0
 20 15  1  0
 41 32  1  0
 46 19  1  0
M  CHG  1  14  -1
M  END
>  <UniqueID>  (85) 
75

>  <SMILES>  (85) 
O=C1N=C(/C=N\c2ccccc2[O-])NC12CCN(Cc1ccccc1)CC2

>  <Energy>  (85) 
87.38873500011181

>  <Genealogy>  (85) 
O=C1N=C(C=Nc2ccccc2[O-])NC12CCN(Cc1ccccc1)CC2 (protonated)
O=C1N=C(/C=N\c2ccccc2[O-])NC12CCN(Cc1ccccc1)CC2 (cis-trans isomerization)
O=C1N=C(/C=N\c2ccccc2[O-])NC12CCN(Cc1ccccc1)CC2 (3D coordinates assigned)
O=C1N=C(/C=N\c2ccccc2[O-])NC12CCN(Cc1ccccc1)CC2 (nonaromatic ring conformer: 87.38873500011181 kcal/mol)

>  <smiles>  (85) 
O=C1N=C(C=Nc2ccccc2O)NC12CCN(Cc1ccccc1)CC2

>  <score_type>  (85) 
oracle

>  <origin>  (85) 
adg

>  <m_score__min__energy>  (85) 
-12.65

>  <m_primary>  (85) 
energy

$$$$
85:0
     RDKit          3D

 60 64  0  0  0  0  0  0  0  0999 V2000
   55.7480   25.9900   46.0150 O   0  0  0  0  0  0  0  0  0  0  0  0
   56.7740   25.2640   46.1210 C   0  0  0  0  0  0  0  0  0  0  0  0
   58.0730   25.7380   45.5370 C   0  0  0  0  0  0  0  0  0  0  0  0
   58.1400   27.2220   45.5860 N   0  0  0  0  0  0  0  0  0  0  0  0
   58.4140   27.7880   46.8110 C   0  0  0  0  0  0  0  0  0  0  0  0
   58.1310   27.1200   47.8480 O   0  0  0  0  0  0  0  0  0  0  0  0
   59.1480   28.9840   47.0060 C   0  0  0  0  0  0  0  0  0  0  0  0
   59.9370   29.0580   48.1850 C   0  0  0  0  0  0  0  0  0  0  0  0
   60.7400   30.1570   48.4690 C   0  0  0  0  0  0  0  0  0  0  0  0
   61.5080   30.1500   49.5870 F   0  0  0  0  0  0  0  0  0  0  0  0
   60.7890   31.2270   47.5810 C   0  0  0  0  0  0  0  0  0  0  0  0
   61.6400   32.3560   47.8330 N   0  0  0  0  0  0  0  0  0  0  0  0
   62.9530   32.4570   47.1940 C   0  0  0  0  0  0  0  0  0  0  0  0
   63.9080   33.2210   48.1170 C   0  0  0  0  0  0  0  0  0  0  0  0
   63.3430   34.4580   48.5150 O   0  0  0  0  0  0  0  0  0  0  0  0
   62.1940   34.2260   49.3090 C   0  0  0  0  0  0  0  0  0  0  0  0
   61.0940   33.5460   48.4890 C   0  0  0  0  0  0  0  0  0  0  0  0
   59.9950   31.2020   46.4380 C   0  0  0  0  0  0  0  0  0  0  0  0
   59.1310   30.1150   46.1430 C   0  0  0  0  0  0  0  0  0  0  0  0
   58.2430   30.2420   45.1120 N   0  0  0  0  0  0  0  0  0  0  0  0
   57.8260   31.4230   44.5820 C   0  0  0  0  0  0  0  0  0  0  0  0
   57.0660   31.2180   43.4580 C   0  0  0  0  0  0  0  0  0  0  0  0
   57.0110   29.8610   43.2760 C   0  0  0  0  0  0  0  0  0  0  0  0
   57.7170   29.2790   44.3210 C   0  0  0  0  0  0  0  0  0  0  0  0
   57.9140   27.9000   44.4130 C   0  0  0  0  0  0  0  0  0  0  0  0
   57.7560   27.2410   43.3450 O   0  0  0  0  0  0  0  0  0  0  0  0
   56.7140   24.0250   46.8420 N   0  0  0  0  0  0  0  0  0  0  0  0
   55.4990   23.5550   47.5010 C   0  0  0  0  0  0  0  0  0  0  0  0
   54.8290   22.4580   46.6690 C   0  0  0  0  0  0  0  0  0  0  0  0
   55.4190   22.4100   45.2850 C   0  0  0  0  0  0  0  0  0  0  0  0
   56.4250   21.4790   44.9750 C   0  0  0  0  0  0  0  0  0  0  0  0
   56.9970   21.4600   43.6980 C   0  0  0  0  0  0  0  0  0  0  0  0
   56.5760   22.3740   42.7280 C   0  0  0  0  0  0  0  0  0  0  0  0
   55.5870   23.3110   43.0340 C   0  0  0  0  0  0  0  0  0  0  0  0
   55.0120   23.3340   44.3100 C   0  0  0  0  0  0  0  0  0  0  0  0
   58.9081   25.3162   46.1155 H   0  0  0  0  0  0  0  0  0  0  0  0
   58.1405   25.4075   44.4900 H   0  0  0  0  0  0  0  0  0  0  0  0
   59.9119   28.2190   48.8960 H   0  0  0  0  0  0  0  0  0  0  0  0
   63.3499   31.4480   47.0085 H   0  0  0  0  0  0  0  0  0  0  0  0
   62.8573   32.9926   46.2380 H   0  0  0  0  0  0  0  0  0  0  0  0
   64.1091   32.6124   49.0110 H   0  0  0  0  0  0  0  0  0  0  0  0
   64.8417   33.4201   47.5705 H   0  0  0  0  0  0  0  0  0  0  0  0
   62.4655   33.5780   50.1554 H   0  0  0  0  0  0  0  0  0  0  0  0
   61.8158   35.1929   49.6725 H   0  0  0  0  0  0  0  0  0  0  0  0
   60.2690   33.2520   49.1546 H   0  0  0  0  0  0  0  0  0  0  0  0
   60.7187   34.2453   47.7273 H   0  0  0  0  0  0  0  0  0  0  0  0
   60.0384   32.0518   45.7409 H   0  0  0  0  0  0  0  0  0  0  0  0
   58.0662   32.4120   44.9993 H   0  0  0  0  0  0  0  0  0  0  0  0
   56.5954   31.9883   42.8294 H   0  0  0  0  0  0  0  0  0  0  0  0
   56.5031   29.3319   42.4562 H   0  0  0  0  0  0  0  0  0  0  0  0
   57.5850   23.4590   46.9510 H   0  0  0  0  0  0  0  0  0  0  0  0
   55.7569   23.1518   48.4914 H   0  0  0  0  0  0  0  0  0  0  0  0
   54.8013   24.3989   47.6057 H   0  0  0  0  0  0  0  0  0  0  0  0
   54.9818   21.4863   47.1613 H   0  0  0  0  0  0  0  0  0  0  0  0
   53.7543   22.6787   46.5896 H   0  0  0  0  0  0  0  0  0  0  0  0
   56.7638   20.7631   45.7384 H   0  0  0  0  0  0  0  0  0  0  0  0
   57.7790   20.7248   43.4573 H   0  0  0  0  0  0  0  0  0  0  0  0
   57.0238   22.3552   41.7235 H   0  0  0  0  0  0  0  0  0  0  0  0
   55.2592   24.0323   42.2710 H   0  0  0  0  0  0  0  0  0  0  0  0
   54.2386   24.0787   44.5494 H   0  0  0  0  0  0  0  0  0  0  0  0
  1  2  2  0
  2  3  1  0
  3  4  1  0
  4  5  1  0
  5  6  2  0
  5  7  1  0
  7  8  2  0
  8  9  1  0
  9 10  1  0
  9 11  2  0
 11 12  1  0
 12 13  1  0
 13 14  1  0
 14 15  1  0
 15 16  1  0
 16 17  1  0
 11 18  1  0
 18 19  2  0
 19 20  1  0
 20 21  1  0
 21 22  2  0
 22 23  1  0
 23 24  2  0
 24 25  1  0
 25 26  2  0
  2 27  1  0
 27 28  1  0
 28 29  1  0
 29 30  1  0
 30 31  2  0
 31 32  1  0
 32 33  2  0
 33 34  1  0
 34 35  2  0
 25  4  1  0
 35 30  1  0
 19  7  1  0
 24 20  1  0
 17 12  1  0
  3 36  1  0
  3 37  1  0
  8 38  1  0
 13 39  1  0
 13 40  1  0
 14 41  1  0
 14 42  1  0
 16 43  1  0
 16 44  1  0
 17 45  1  0
 17 46  1  0
 18 47  1  0
 21 48  1  0
 22 49  1  0
 23 50  1  0
 27 51  1  0
 28 52  1  0
 28 53  1  0
 29 54  1  0
 29 55  1  0
 31 56  1  0
 32 57  1  0
 33 58  1  0
 34 59  1  0
 35 60  1  0
M  END
>  <UniqueID>  (86) 
76

>  <SMILES>  (86) 
O=C(Cn1c(=O)c2cc(F)c(N3CCOCC3)cc2n2cccc2c1=O)NCCc1ccccc1

>  <Energy>  (86) 
144.39602269372733

>  <Genealogy>  (86) 
O=C(Cn1c(=O)c2cc(F)c(N3CCOCC3)cc2n2cccc2c1=O)NCCc1ccccc1 (3D coordinates assigned)
O=C(Cn1c(=O)c2cc(F)c(N3CCOCC3)cc2n2cccc2c1=O)NCCc1ccccc1 (nonaromatic ring conformer: 144.39602269372733 kcal/mol)

>  <smiles>  (86) 
O=C(Cn1c(=O)c2cc(F)c(N3CCOCC3)cc2n2cccc2c1=O)NCCc1ccccc1

>  <score_type>  (86) 
oracle

>  <origin>  (86) 
adg

>  <m_score__min__energy>  (86) 
-8.4900000000000002

>  <m_primary>  (86) 
energy

$$$$
86:0
     RDKit          3D

 43 45  0  0  0  0  0  0  0  0999 V2000
   61.6120   33.8350   48.7160 C   0  0  0  0  0  0  0  0  0  0  0  0
   61.8460   32.9240   47.2030 S   0  0  0  0  0  0  0  0  0  0  0  0
   62.4550   33.8320   46.1710 O   0  0  0  0  0  0  0  0  0  0  0  0
   62.8190   31.8140   47.4880 O   0  0  0  0  0  0  0  0  0  0  0  0
   60.3000   32.2870   46.6470 N   0  0  0  0  0  0  0  0  0  0  0  0
   59.2630   33.3440   46.6830 C   0  0  0  0  0  0  0  0  0  0  0  0
   57.8550   32.7860   46.4060 C   0  0  0  0  0  0  0  0  0  0  0  0
   57.4350   32.8870   44.9310 C   0  0  0  0  0  0  0  0  0  0  0  0
   57.0570   31.5580   44.3520 C   0  0  0  0  0  0  0  0  0  0  0  0
   57.5580   31.0000   43.1990 C   0  0  0  0  0  0  0  0  0  0  0  0
   56.9460   29.8230   42.9840 N   0  0  0  0  0  0  0  0  0  0  0  0
   56.0840   29.7060   44.0170 C   0  0  0  0  0  0  0  0  0  0  0  0
   56.1160   30.7510   44.8700 N   0  0  0  0  0  0  0  0  0  0  0  0
   59.8760   31.1410   47.4830 C   0  0  0  0  0  0  0  0  0  0  0  0
   59.7340   29.8750   46.6740 C   0  0  0  0  0  0  0  0  0  0  0  0
   60.6810   29.5590   45.6930 C   0  0  0  0  0  0  0  0  0  0  0  0
   60.5510   28.3760   44.9660 C   0  0  0  0  0  0  0  0  0  0  0  0
   59.5060   27.5410   45.2040 N   0  0  0  0  0  0  0  0  0  0  0  0
   58.5540   27.8180   46.1400 C   0  0  0  0  0  0  0  0  0  0  0  0
   57.4730   26.8890   46.3420 N   0  0  0  0  0  0  0  0  0  0  0  0
   57.4070   25.8170   47.1550 C   0  0  0  0  0  0  0  0  0  0  0  0
   56.2160   25.1990   47.0440 N   0  0  0  0  0  0  0  0  0  0  0  0
   55.5070   25.8740   46.1500 N   0  0  0  0  0  0  0  0  0  0  0  0
   56.2740   26.8950   45.7280 C   0  0  0  0  0  0  0  0  0  0  0  0
   58.6530   29.0050   46.8870 C   0  0  0  0  0  0  0  0  0  0  0  0
   61.7830   33.1694   49.5749 H   0  0  0  0  0  0  0  0  0  0  0  0
   62.3242   34.6725   48.7536 H   0  0  0  0  0  0  0  0  0  0  0  0
   60.5844   34.2256   48.7536 H   0  0  0  0  0  0  0  0  0  0  0  0
   59.2690   33.8126   47.6782 H   0  0  0  0  0  0  0  0  0  0  0  0
   59.4979   34.0750   45.8953 H   0  0  0  0  0  0  0  0  0  0  0  0
   57.8359   31.7267   46.7018 H   0  0  0  0  0  0  0  0  0  0  0  0
   57.1458   33.3941   46.9868 H   0  0  0  0  0  0  0  0  0  0  0  0
   56.5711   33.5638   44.8553 H   0  0  0  0  0  0  0  0  0  0  0  0
   58.2964   33.2675   44.3625 H   0  0  0  0  0  0  0  0  0  0  0  0
   58.3331   31.4446   42.5575 H   0  0  0  0  0  0  0  0  0  0  0  0
   55.4185   28.8404   44.1504 H   0  0  0  0  0  0  0  0  0  0  0  0
   60.6273   30.9777   48.2697 H   0  0  0  0  0  0  0  0  0  0  0  0
   58.8935   31.3804   47.9158 H   0  0  0  0  0  0  0  0  0  0  0  0
   61.5226   30.2396   45.4967 H   0  0  0  0  0  0  0  0  0  0  0  0
   61.2958   28.1185   44.1986 H   0  0  0  0  0  0  0  0  0  0  0  0
   58.2187   25.4898   47.8214 H   0  0  0  0  0  0  0  0  0  0  0  0
   55.9628   27.6381   44.9791 H   0  0  0  0  0  0  0  0  0  0  0  0
   57.8859   29.2512   47.6359 H   0  0  0  0  0  0  0  0  0  0  0  0
  1  2  1  0
  2  3  2  0
  2  4  2  0
  2  5  1  0
  5  6  1  0
  6  7  1  0
  7  8  1  0
  8  9  1  0
  9 10  2  0
 10 11  1  0
 11 12  1  0
 12 13  2  0
  5 14  1  0
 14 15  1  0
 15 16  2  0
 16 17  1  0
 17 18  2  0
 18 19  1  0
 19 20  1  0
 20 21  1  0
 21 22  2  0
 22 23  1  0
 23 24  2  0
 19 25  2  0
 13  9  1  0
 25 15  1  0
 24 20  1  0
  1 26  1  0
  1 27  1  0
  1 28  1  0
  6 29  1  0
  6 30  1  0
  7 31  1  0
  7 32  1  0
  8 33  1  0
  8 34  1  0
 10 35  1  0
 12 36  1  0
 14 37  1  0
 14 38  1  0
 16 39  1  0
 17 40  1  0
 21 41  1  0
 24 42  1  0
 25 43  1  0
M  CHG  1  11  -1
M  END
>  <UniqueID>  (87) 
77

>  <SMILES>  (87) 
CS(=O)(=O)N(CCCc1c[n-]cn1)Cc1ccnc(-n2cnnc2)c1

>  <Energy>  (87) 
100.87887910537108

>  <Genealogy>  (87) 
CS(=O)(=O)N(CCCc1c[n-]cn1)Cc1ccnc(-n2cnnc2)c1 (protonated)
CS(=O)(=O)N(CCCc1c[n-]cn1)Cc1ccnc(-n2cnnc2)c1 (3D coordinates assigned)
CS(=O)(=O)N(CCCc1c[n-]cn1)Cc1ccnc(-n2cnnc2)c1 (optimized conformer: 100.87887910537108 kcal/mol)

>  <smiles>  (87) 
CS(=O)(=O)N(CCCc1c[nH]cn1)Cc1ccnc(-n2cnnc2)c1

>  <score_type>  (87) 
oracle

>  <origin>  (87) 
adg

>  <m_score__min__energy>  (87) 
-9.9600000000000009

>  <m_primary>  (87) 
energy

$$$$
87:0
     RDKit          3D

 41 42  0  0  0  0  0  0  0  0999 V2000
   58.8860   34.7700   46.7230 C   0  0  0  0  0  0  0  0  0  0  0  0
   58.6840   33.4070   46.1300 C   0  0  0  0  0  0  0  0  0  0  0  0
   57.9350   33.2530   44.9540 C   0  0  0  0  0  0  0  0  0  0  0  0
   57.7770   31.9880   44.3790 C   0  0  0  0  0  0  0  0  0  0  0  0
   58.3670   30.8580   44.9740 C   0  0  0  0  0  0  0  0  0  0  0  0
   58.2400   29.5520   44.3880 N   0  0  0  0  0  0  0  0  0  0  0  0
   57.9560   28.3590   45.1380 C   0  0  0  0  0  0  0  0  0  0  0  0
   58.9830   27.6880   45.7980 C   0  0  0  0  0  0  0  0  0  0  0  0
   58.6790   26.5440   46.5340 C   0  0  0  0  0  0  0  0  0  0  0  0
   59.6120   25.9330   47.1250 O   0  0  0  0  0  0  0  0  0  0  0  0
   57.3840   26.0900   46.6120 N   0  0  0  0  0  0  0  0  0  0  0  0
   57.0780   24.8580   47.3680 C   0  0  0  0  0  0  0  0  0  0  0  0
   57.2740   23.5930   46.5130 C   0  0  0  0  0  0  0  0  0  0  0  0
   56.5800   23.6640   45.1370 C   0  0  0  0  0  0  0  0  0  0  0  0
   57.4840   24.2160   44.0170 C   0  0  0  0  0  0  0  0  0  0  0  0
   57.1550   25.6040   43.6850 N   0  0  0  0  0  0  0  0  0  0  0  0
   56.3880   26.7870   45.9720 C   0  0  0  0  0  0  0  0  0  0  0  0
   55.1880   26.4060   46.0330 O   0  0  0  0  0  0  0  0  0  0  0  0
   56.6840   27.9010   45.2540 N   0  0  0  0  0  0  0  0  0  0  0  0
   59.1500   31.0230   46.1260 C   0  0  0  0  0  0  0  0  0  0  0  0
   59.3070   32.2880   46.7010 C   0  0  0  0  0  0  0  0  0  0  0  0
   58.8753   34.6976   47.8206 H   0  0  0  0  0  0  0  0  0  0  0  0
   59.8539   35.1743   46.3916 H   0  0  0  0  0  0  0  0  0  0  0  0
   58.0770   35.4376   46.3916 H   0  0  0  0  0  0  0  0  0  0  0  0
   57.4699   34.1310   44.4820 H   0  0  0  0  0  0  0  0  0  0  0  0
   57.1883   31.8760   43.4566 H   0  0  0  0  0  0  0  0  0  0  0  0
   58.4360   29.4540   43.3650 H   0  0  0  0  0  0  0  0  0  0  0  0
   60.0182   28.0554   45.7392 H   0  0  0  0  0  0  0  0  0  0  0  0
   57.7440   24.8028   48.2417 H   0  0  0  0  0  0  0  0  0  0  0  0
   56.0224   24.9008   47.6744 H   0  0  0  0  0  0  0  0  0  0  0  0
   58.3521   23.4460   46.3516 H   0  0  0  0  0  0  0  0  0  0  0  0
   56.8156   22.7578   47.0628 H   0  0  0  0  0  0  0  0  0  0  0  0
   56.2592   22.6498   44.8567 H   0  0  0  0  0  0  0  0  0  0  0  0
   55.7327   24.3580   45.2388 H   0  0  0  0  0  0  0  0  0  0  0  0
   58.5315   24.1684   44.3493 H   0  0  0  0  0  0  0  0  0  0  0  0
   57.3256   23.6032   43.1174 H   0  0  0  0  0  0  0  0  0  0  0  0
   56.2710   25.8700   44.1750 H   0  0  0  0  0  0  0  0  0  0  0  0
   57.0080   25.7050   42.6540 H   0  0  0  0  0  0  0  0  0  0  0  0
   57.9150   26.2490   43.9990 H   0  0  0  0  0  0  0  0  0  0  0  0
   59.6439   30.1514   46.5802 H   0  0  0  0  0  0  0  0  0  0  0  0
   59.9220   32.4058   47.6054 H   0  0  0  0  0  0  0  0  0  0  0  0
  1  2  1  0
  2  3  2  0
  3  4  1  0
  4  5  2  0
  5  6  1  0
  6  7  1  0
  7  8  2  0
  8  9  1  0
  9 10  2  0
  9 11  1  0
 11 12  1  0
 12 13  1  0
 13 14  1  0
 14 15  1  0
 15 16  1  0
 11 17  1  0
 17 18  2  0
 17 19  1  0
  5 20  1  0
 20 21  2  0
 21  2  1  0
 19  7  1  0
  1 22  1  0
  1 23  1  0
  1 24  1  0
  3 25  1  0
  4 26  1  0
  6 27  1  0
  8 28  1  0
 12 29  1  0
 12 30  1  0
 13 31  1  0
 13 32  1  0
 14 33  1  0
 14 34  1  0
 15 35  1  0
 15 36  1  0
 16 37  1  0
 16 38  1  0
 16 39  1  0
 20 40  1  0
 21 41  1  0
M  CHG  2  16   1  19  -1
M  END
>  <UniqueID>  (88) 
78

>  <SMILES>  (88) 
Cc1ccc(Nc2cc(=O)n(CCCC[NH3+])c(=O)[n-]2)cc1

>  <Energy>  (88) 
44.06272748545979

>  <Genealogy>  (88) 
Cc1ccc(Nc2cc(=O)n(CCCC[NH3+])c(=O)[n-]2)cc1 (protonated)
Cc1ccc(Nc2cc(=O)n(CCCC[NH3+])c(=O)[n-]2)cc1 (3D coordinates assigned)
Cc1ccc(Nc2cc(=O)n(CCCC[NH3+])c(=O)[n-]2)cc1 (optimized conformer: 44.06272748545979 kcal/mol)

>  <smiles>  (88) 
Cc1ccc(Nc2cc(=O)n(CCCCN)c(=O)[nH]2)cc1

>  <score_type>  (88) 
oracle

>  <origin>  (88) 
adg

>  <m_score__min__energy>  (88) 
-8.1899999999999995

>  <m_primary>  (88) 
energy

$$$$
88:0
     RDKit          3D

 36 37  0  0  0  0  0  0  0  0999 V2000
   56.8290   29.5340   43.7400 C   0  0  0  0  0  0  0  0  0  0  0  0
   56.5780   30.3750   44.8620 O   0  0  0  0  0  0  0  0  0  0  0  0
   57.3600   31.4860   45.2150 C   0  0  0  0  0  0  0  0  0  0  0  0
   57.0990   32.7730   44.7030 C   0  0  0  0  0  0  0  0  0  0  0  0
   57.8970   33.8580   45.0730 C   0  0  0  0  0  0  0  0  0  0  0  0
   58.9550   33.6770   45.9640 C   0  0  0  0  0  0  0  0  0  0  0  0
   59.9400   35.0460   46.4470 Cl  0  0  0  0  0  0  0  0  0  0  0  0
   59.2230   32.4070   46.4810 C   0  0  0  0  0  0  0  0  0  0  0  0
   58.4410   31.3010   46.1000 C   0  0  0  0  0  0  0  0  0  0  0  0
   58.6950   29.9970   46.6520 N   0  0  0  0  0  0  0  0  0  0  0  0
   59.7370   29.7210   47.6000 C   0  0  0  0  0  0  0  0  0  0  0  0
   60.6510   30.5630   47.8140 O   0  0  0  0  0  0  0  0  0  0  0  0
   59.7390   28.4260   48.3540 C   0  0  0  0  0  0  0  0  0  0  0  0
   59.2930   27.3380   47.4760 N   0  0  0  0  0  0  0  0  0  0  0  0
   60.2200   26.5870   46.8090 C   0  0  0  0  0  0  0  0  0  0  0  0
   59.8200   25.5260   45.9970 C   0  0  0  0  0  0  0  0  0  0  0  0
   58.4650   25.2260   45.8760 C   0  0  0  0  0  0  0  0  0  0  0  0
   57.5120   25.9860   46.5700 C   0  0  0  0  0  0  0  0  0  0  0  0
   56.0680   25.6750   46.4600 C   0  0  0  0  0  0  0  0  0  0  0  0
   55.1410   26.6720   46.0330 N   0  0  0  0  0  0  0  0  0  0  0  0
   55.6410   24.5220   46.7420 O   0  0  0  0  0  0  0  0  0  0  0  0
   57.9590   27.0480   47.3750 C   0  0  0  0  0  0  0  0  0  0  0  0
   57.1272   28.5348   44.0902 H   0  0  0  0  0  0  0  0  0  0  0  0
   55.9162   29.4520   43.1317 H   0  0  0  0  0  0  0  0  0  0  0  0
   57.6374   29.9658   43.1317 H   0  0  0  0  0  0  0  0  0  0  0  0
   56.2607   32.9240   44.0069 H   0  0  0  0  0  0  0  0  0  0  0  0
   57.6908   34.8569   44.6611 H   0  0  0  0  0  0  0  0  0  0  0  0
   60.0517   32.2707   47.1914 H   0  0  0  0  0  0  0  0  0  0  0  0
   58.1240   29.1920   46.3080 H   0  0  0  0  0  0  0  0  0  0  0  0
   60.7575   28.2129   48.7108 H   0  0  0  0  0  0  0  0  0  0  0  0
   59.0543   28.5042   49.2113 H   0  0  0  0  0  0  0  0  0  0  0  0
   61.2897   26.8212   46.9134 H   0  0  0  0  0  0  0  0  0  0  0  0
   60.5695   24.9300   45.4557 H   0  0  0  0  0  0  0  0  0  0  0  0
   58.1420   24.3921   45.2354 H   0  0  0  0  0  0  0  0  0  0  0  0
   54.4640   27.0980   46.7040 H   0  0  0  0  0  0  0  0  0  0  0  0
   57.2279   27.6535   47.9307 H   0  0  0  0  0  0  0  0  0  0  0  0
  1  2  1  0
  2  3  1  0
  3  4  2  0
  4  5  1  0
  5  6  2  0
  6  7  1  0
  6  8  1  0
  8  9  2  0
  9 10  1  0
 10 11  1  0
 11 12  2  0
 11 13  1  0
 13 14  1  0
 14 15  2  0
 15 16  1  0
 16 17  2  0
 17 18  1  0
 18 19  1  0
 19 20  1  0
 19 21  2  0
 18 22  2  0
  9  3  1  0
 22 14  1  0
  1 23  1  0
  1 24  1  0
  1 25  1  0
  4 26  1  0
  5 27  1  0
  8 28  1  0
 10 29  1  0
 13 30  1  0
 13 31  1  0
 15 32  1  0
 16 33  1  0
 17 34  1  0
 20 35  1  0
 22 36  1  0
M  CHG  2  14   1  20  -1
M  END
>  <UniqueID>  (89) 
79

>  <SMILES>  (89) 
COc1ccc(Cl)cc1NC(=O)C[n+]1cccc(C([NH-])=O)c1

>  <Energy>  (89) 
38.61790529239524

>  <Genealogy>  (89) 
COc1ccc(Cl)cc1NC(=O)C[n+]1cccc(C([NH-])=O)c1 (protonated)
COc1ccc(Cl)cc1NC(=O)C[n+]1cccc(C([NH-])=O)c1 (3D coordinates assigned)
COc1ccc(Cl)cc1NC(=O)C[n+]1cccc(C([NH-])=O)c1 (optimized conformer: 38.61790529239524 kcal/mol)

>  <smiles>  (89) 
COc1ccc(Cl)cc1NC(=O)C[n+]1cccc(C(N)=O)c1

>  <score_type>  (89) 
oracle

>  <origin>  (89) 
adg

>  <m_score__min__energy>  (89) 
-9.0999999999999996

>  <m_primary>  (89) 
energy

$$$$
89:0
     RDKit          3D

 55 59  0  0  0  0  0  0  0  0999 V2000
   58.9680   34.6100   45.8790 C   0  0  0  0  0  0  0  0  0  0  0  0
   58.9960   34.1930   44.5460 C   0  0  0  0  0  0  0  0  0  0  0  0
   58.2150   33.1080   44.1350 C   0  0  0  0  0  0  0  0  0  0  0  0
   57.3960   32.4330   45.0510 C   0  0  0  0  0  0  0  0  0  0  0  0
   56.6280   31.3550   44.5810 O   0  0  0  0  0  0  0  0  0  0  0  0
   57.1330   30.0770   44.1990 C   0  0  0  0  0  0  0  0  0  0  0  0
   57.2380   29.1070   45.3970 C   0  0  0  0  0  0  0  0  0  0  0  0
   58.1440   29.5340   46.4860 N   0  0  0  0  0  0  0  0  0  0  0  0
   59.2890   30.3480   46.0440 C   0  0  0  0  0  0  0  0  0  0  0  0
   60.0060   30.9150   47.2730 C   0  0  0  0  0  0  0  0  0  0  0  0
   60.5000   29.8060   48.1340 N   0  0  0  0  0  0  0  0  0  0  0  0
   61.2580   30.3430   49.3030 C   0  0  2  0  0  0  0  0  0  0  0  0
   60.4480   31.1990   50.2750 C   0  0  0  0  0  0  0  0  0  0  0  0
   59.2560   31.8580   49.9140 C   0  0  0  0  0  0  0  0  0  0  0  0
   58.6570   32.7630   50.7960 C   0  0  0  0  0  0  0  0  0  0  0  0
   59.2780   33.0840   52.0050 C   0  0  0  0  0  0  0  0  0  0  0  0
   60.5190   32.5280   52.3240 C   0  0  0  0  0  0  0  0  0  0  0  0
   61.1100   31.5970   51.4640 C   0  0  0  0  0  0  0  0  0  0  0  0
   62.8330   31.0990   51.7140 S   0  0  0  0  0  0  0  0  0  0  0  0
   63.2740   31.6350   50.0400 C   0  0  0  0  0  0  0  0  0  0  0  0
   64.2440   32.5700   49.8550 N   0  0  0  0  0  0  0  0  0  0  0  0
   64.4470   33.1530   48.6430 C   0  0  0  0  0  0  0  0  0  0  0  0
   63.6090   32.8480   47.5700 C   0  0  0  0  0  0  0  0  0  0  0  0
   62.5830   31.9180   47.7410 C   0  0  0  0  0  0  0  0  0  0  0  0
   62.4540   31.2290   48.9590 C   0  0  0  0  0  0  0  0  0  0  0  0
   59.3020   29.0480   48.5860 C   0  0  0  0  0  0  0  0  0  0  0  0
   58.5760   28.4470   47.3790 C   0  0  0  0  0  0  0  0  0  0  0  0
   57.3790   32.8550   46.3960 C   0  0  0  0  0  0  0  0  0  0  0  0
   58.1610   33.9400   46.8030 C   0  0  0  0  0  0  0  0  0  0  0  0
   59.5805   35.4650   46.2012 H   0  0  0  0  0  0  0  0  0  0  0  0
   59.6328   34.7184   43.8191 H   0  0  0  0  0  0  0  0  0  0  0  0
   58.2436   32.7817   43.0849 H   0  0  0  0  0  0  0  0  0  0  0  0
   56.4585   29.6400   43.4479 H   0  0  0  0  0  0  0  0  0  0  0  0
   58.1451   30.2222   43.7934 H   0  0  0  0  0  0  0  0  0  0  0  0
   56.2311   28.9842   45.8226 H   0  0  0  0  0  0  0  0  0  0  0  0
   57.6667   28.1770   44.9953 H   0  0  0  0  0  0  0  0  0  0  0  0
   59.9856   29.7214   45.4678 H   0  0  0  0  0  0  0  0  0  0  0  0
   58.9336   31.1731   45.4092 H   0  0  0  0  0  0  0  0  0  0  0  0
   60.8581   31.5290   46.9460 H   0  0  0  0  0  0  0  0  0  0  0  0
   59.3000   31.5311   47.8493 H   0  0  0  0  0  0  0  0  0  0  0  0
   61.5691   29.3904   49.7567 H   0  0  0  0  0  0  0  0  0  0  0  0
   58.7950   31.6599   48.9351 H   0  0  0  0  0  0  0  0  0  0  0  0
   57.6926   33.2240   50.5364 H   0  0  0  0  0  0  0  0  0  0  0  0
   58.7892   33.7756   52.7070 H   0  0  0  0  0  0  0  0  0  0  0  0
   61.0315   32.8225   53.2517 H   0  0  0  0  0  0  0  0  0  0  0  0
   64.8320   32.8700   50.6660 H   0  0  0  0  0  0  0  0  0  0  0  0
   65.2735   33.8663   48.5085 H   0  0  0  0  0  0  0  0  0  0  0  0
   63.7562   33.3374   46.5959 H   0  0  0  0  0  0  0  0  0  0  0  0
   61.8747   31.7240   46.9220 H   0  0  0  0  0  0  0  0  0  0  0  0
   59.6164   28.2390   49.2618 H   0  0  0  0  0  0  0  0  0  0  0  0
   58.6204   29.7313   49.1137 H   0  0  0  0  0  0  0  0  0  0  0  0
   59.2569   27.7740   46.8373 H   0  0  0  0  0  0  0  0  0  0  0  0
   57.6990   27.8774   47.7202 H   0  0  0  0  0  0  0  0  0  0  0  0
   56.7483   32.3288   47.1277 H   0  0  0  0  0  0  0  0  0  0  0  0
   58.1412   34.2673   47.8530 H   0  0  0  0  0  0  0  0  0  0  0  0
  1  2  2  0
  2  3  1  0
  3  4  2  0
  4  5  1  0
  5  6  1  0
  6  7  1  0
  7  8  1  0
  8  9  1  0
  9 10  1  0
 10 11  1  0
 11 12  1  0
 12 13  1  0
 13 14  2  0
 14 15  1  0
 15 16  2  0
 16 17  1  0
 17 18  2  0
 18 19  1  0
 19 20  1  0
 20 21  2  0
 21 22  1  0
 22 23  2  0
 23 24  1  0
 24 25  2  0
 11 26  1  0
 26 27  1  0
  4 28  1  0
 28 29  2  0
 29  1  1  0
 27  8  1  0
 25 12  1  0
 18 13  1  0
 25 20  1  0
  1 30  1  0
  2 31  1  0
  3 32  1  0
  6 33  1  0
  6 34  1  0
  7 35  1  0
  7 36  1  0
  9 37  1  0
  9 38  1  0
 10 39  1  0
 10 40  1  0
 12 41  1  1
 14 42  1  0
 15 43  1  0
 16 44  1  0
 17 45  1  0
 21 46  1  0
 22 47  1  0
 23 48  1  0
 24 49  1  0
 26 50  1  0
 26 51  1  0
 27 52  1  0
 27 53  1  0
 28 54  1  0
 29 55  1  0
M  CHG  1  21   1
M  END
>  <UniqueID>  (90) 
80

>  <SMILES>  (90) 
c1ccc(OCCN2CCN([C@@H]3c4ccccc4Sc4[nH+]cccc43)CC2)cc1

>  <Energy>  (90) 
92.64886029903593

>  <Genealogy>  (90) 
c1ccc(OCCN2CCN(C3c4ccccc4Sc4[nH+]cccc43)CC2)cc1 (protonated)
c1ccc(OCCN2CCN([C@@H]3c4ccccc4Sc4[nH+]cccc43)CC2)cc1 (chirality)
c1ccc(OCCN2CCN([C@@H]3c4ccccc4Sc4[nH+]cccc43)CC2)cc1 (3D coordinates assigned)
c1ccc(OCCN2CCN([C@@H]3c4ccccc4Sc4[nH+]cccc43)CC2)cc1 (nonaromatic ring conformer: 92.64886029903593 kcal/mol)

>  <smiles>  (90) 
c1ccc(OCCN2CCN(C3c4ccccc4Sc4ncccc43)CC2)cc1

>  <score_type>  (90) 
oracle

>  <origin>  (90) 
adg

>  <m_score__min__energy>  (90) 
-7.6799999999999997

>  <m_primary>  (90) 
energy

$$$$
90:0
     RDKit          3D

 35 37  0  0  0  0  0  0  0  0999 V2000
   58.5130   30.1440   47.2460 C   0  0  0  0  0  0  0  0  0  0  0  0
   58.1910   30.8760   46.0020 N   0  0  0  0  0  0  0  0  0  0  0  0
   57.5840   30.2200   44.9480 C   0  0  0  0  0  0  0  0  0  0  0  0
   57.0380   28.8500   45.0690 C   0  0  0  0  0  0  0  0  0  0  0  0
   55.7960   28.6960   45.2260 O   0  0  0  0  0  0  0  0  0  0  0  0
   57.9170   27.7130   45.0140 N   0  0  0  0  0  0  0  0  0  0  0  0
   57.4850   26.3520   45.1720 C   0  0  0  0  0  0  0  0  0  0  0  0
   57.5830   25.4220   44.1210 C   0  0  0  0  0  0  0  0  0  0  0  0
   57.1310   24.1100   44.2950 C   0  0  0  0  0  0  0  0  0  0  0  0
   56.5640   23.7190   45.5110 C   0  0  0  0  0  0  0  0  0  0  0  0
   56.4410   24.6430   46.5530 C   0  0  0  0  0  0  0  0  0  0  0  0
   56.8910   25.9560   46.3810 C   0  0  0  0  0  0  0  0  0  0  0  0
   57.4420   30.8530   43.7080 C   0  0  0  0  0  0  0  0  0  0  0  0
   57.8460   32.1700   43.5430 C   0  0  0  0  0  0  0  0  0  0  0  0
   57.7090   32.7190   42.4140 O   0  0  0  0  0  0  0  0  0  0  0  0
   58.3780   32.8760   44.6300 C   0  0  0  0  0  0  0  0  0  0  0  0
   58.7550   34.2270   44.4970 C   0  0  0  0  0  0  0  0  0  0  0  0
   59.2600   34.9310   45.5880 C   0  0  0  0  0  0  0  0  0  0  0  0
   59.3920   34.3030   46.8230 C   0  0  0  0  0  0  0  0  0  0  0  0
   59.0310   32.9630   46.9750 C   0  0  0  0  0  0  0  0  0  0  0  0
   58.5320   32.2120   45.8800 C   0  0  0  0  0  0  0  0  0  0  0  0
   58.2416   30.7611   48.1152 H   0  0  0  0  0  0  0  0  0  0  0  0
   57.9464   29.2016   47.2740 H   0  0  0  0  0  0  0  0  0  0  0  0
   59.5906   29.9249   47.2740 H   0  0  0  0  0  0  0  0  0  0  0  0
   58.9190   27.8780   44.7690 H   0  0  0  0  0  0  0  0  0  0  0  0
   58.0172   25.7282   43.1578 H   0  0  0  0  0  0  0  0  0  0  0  0
   57.2220   23.3845   43.4732 H   0  0  0  0  0  0  0  0  0  0  0  0
   56.2147   22.6850   45.6482 H   0  0  0  0  0  0  0  0  0  0  0  0
   55.9901   24.3372   47.5086 H   0  0  0  0  0  0  0  0  0  0  0  0
   56.7788   26.6834   47.1985 H   0  0  0  0  0  0  0  0  0  0  0  0
   57.0078   30.3035   42.8597 H   0  0  0  0  0  0  0  0  0  0  0  0
   58.6498   34.7298   43.5243 H   0  0  0  0  0  0  0  0  0  0  0  0
   59.5548   35.9845   45.4732 H   0  0  0  0  0  0  0  0  0  0  0  0
   59.7828   34.8654   47.6838 H   0  0  0  0  0  0  0  0  0  0  0  0
   59.1351   32.4823   47.9589 H   0  0  0  0  0  0  0  0  0  0  0  0
  1  2  1  0
  2  3  1  0
  3  4  1  0
  4  5  2  0
  4  6  1  0
  6  7  1  0
  7  8  2  0
  8  9  1  0
  9 10  2  0
 10 11  1  0
 11 12  2  0
  3 13  2  0
 13 14  1  0
 14 15  2  0
 14 16  1  0
 16 17  2  0
 17 18  1  0
 18 19  2  0
 19 20  1  0
 20 21  2  0
 21  2  1  0
 12  7  1  0
 21 16  1  0
  1 22  1  0
  1 23  1  0
  1 24  1  0
  6 25  1  0
  8 26  1  0
  9 27  1  0
 10 28  1  0
 11 29  1  0
 12 30  1  0
 13 31  1  0
 17 32  1  0
 18 33  1  0
 19 34  1  0
 20 35  1  0
M  END
>  <UniqueID>  (91) 
81

>  <SMILES>  (91) 
Cn1c(C(=O)Nc2ccccc2)cc(=O)c2ccccc21

>  <Energy>  (91) 
59.85897706573694

>  <Genealogy>  (91) 
Cn1c(C(=O)Nc2ccccc2)cc(=O)c2ccccc21 (3D coordinates assigned)
Cn1c(C(=O)Nc2ccccc2)cc(=O)c2ccccc21 (optimized conformer: 59.85897706573694 kcal/mol)

>  <smiles>  (91) 
Cn1c(C(=O)Nc2ccccc2)cc(=O)c2ccccc21

>  <score_type>  (91) 
oracle

>  <origin>  (91) 
adg

>  <m_score__min__energy>  (91) 
-7.2300000000000004

>  <m_primary>  (91) 
energy

$$$$
91:0
     RDKit          3D

 29 30  0  0  0  0  0  0  0  0999 V2000
   55.5770   28.6530   45.0970 O   0  0  0  0  0  0  0  0  0  0  0  0
   56.5270   29.6400   44.8620 C   0  0  0  0  0  0  0  0  0  0  0  0
   56.3490   30.7240   44.0310 C   0  0  0  0  0  0  0  0  0  0  0  0
   57.5390   31.4210   44.1090 C   0  0  0  0  0  0  0  0  0  0  0  0
   57.8930   32.6700   43.3570 C   0  0  0  0  0  0  0  0  0  0  0  0
   58.8940   33.5450   44.1320 C   0  0  0  0  0  0  0  0  0  0  0  0
   58.2300   34.4650   45.1890 C   0  0  0  0  0  0  0  0  0  0  0  0
   59.2720   35.0480   46.1420 C   0  0  0  0  0  0  0  0  0  0  0  0
   59.3950   34.0550   47.2880 C   0  0  0  0  0  0  0  0  0  0  0  0
   58.0880   33.2680   47.3230 C   0  0  0  0  0  0  0  0  0  0  0  0
   57.2720   33.7050   46.1100 C   0  0  0  0  0  0  0  0  0  0  0  0
   58.3600   30.7160   44.9690 C   0  0  0  0  0  0  0  0  0  0  0  0
   57.7220   29.6550   45.4070 O   0  0  0  0  0  0  0  0  0  0  0  0
   54.7520   28.5880   44.5150 H   0  0  0  0  0  0  0  0  0  0  0  0
   55.4582   30.9779   43.4378 H   0  0  0  0  0  0  0  0  0  0  0  0
   58.3398   32.3890   42.3919 H   0  0  0  0  0  0  0  0  0  0  0  0
   56.9714   33.2533   43.2138 H   0  0  0  0  0  0  0  0  0  0  0  0
   59.6075   32.8842   44.6460 H   0  0  0  0  0  0  0  0  0  0  0  0
   59.3836   34.2009   43.3972 H   0  0  0  0  0  0  0  0  0  0  0  0
   57.7053   35.2318   44.6001 H   0  0  0  0  0  0  0  0  0  0  0  0
   60.2384   35.1609   45.6288 H   0  0  0  0  0  0  0  0  0  0  0  0
   58.9755   36.0441   46.5023 H   0  0  0  0  0  0  0  0  0  0  0  0
   60.2426   33.3761   47.1130 H   0  0  0  0  0  0  0  0  0  0  0  0
   59.5741   34.5706   48.2430 H   0  0  0  0  0  0  0  0  0  0  0  0
   58.2951   32.1890   47.2702 H   0  0  0  0  0  0  0  0  0  0  0  0
   57.5384   33.4607   48.2562 H   0  0  0  0  0  0  0  0  0  0  0  0
   56.8637   32.8256   45.5905 H   0  0  0  0  0  0  0  0  0  0  0  0
   56.4239   34.3382   46.4097 H   0  0  0  0  0  0  0  0  0  0  0  0
   59.3868   30.9993   45.2435 H   0  0  0  0  0  0  0  0  0  0  0  0
  1  2  1  0
  2  3  2  0
  3  4  1  0
  4  5  1  0
  5  6  1  0
  6  7  1  0
  7  8  1  0
  8  9  1  0
  9 10  1  0
 10 11  1  0
  4 12  2  0
 12 13  1  0
 13  2  1  0
 11  7  1  0
  1 14  1  0
  3 15  1  0
  5 16  1  0
  5 17  1  0
  6 18  1  0
  6 19  1  0
  7 20  1  0
  8 21  1  0
  8 22  1  0
  9 23  1  0
  9 24  1  0
 10 25  1  0
 10 26  1  0
 11 27  1  0
 11 28  1  0
 12 29  1  0
M  END
>  <UniqueID>  (92) 
82

>  <SMILES>  (92) 
Oc1cc(CCC2CCCC2)co1

>  <Energy>  (92) 
51.46231234291743

>  <Genealogy>  (92) 
Oc1cc(CCC2CCCC2)co1 (3D coordinates assigned)
Oc1cc(CCC2CCCC2)co1 (nonaromatic ring conformer: 51.46231234291743 kcal/mol)

>  <smiles>  (92) 
Oc1cc(CCC2CCCC2)co1

>  <score_type>  (92) 
oracle

>  <origin>  (92) 
adg

>  <m_score__min__energy>  (92) 
-6.5899999999999999

>  <m_primary>  (92) 
energy

$$$$
