0:0
     RDKit          3D

 34 35  0  0  0  0  0  0  0  0999 V2000
   60.7290   28.1780   48.1340 C   0  0  0  0  0  0  0  0  0  0  0  0
   60.3440   27.9680   46.7790 O   0  0  0  0  0  0  0  0  0  0  0  0
   59.0270   28.0610   46.2980 C   0  0  0  0  0  0  0  0  0  0  0  0
   58.6040   29.1510   45.5170 C   0  0  0  0  0  0  0  0  0  0  0  0
   57.2760   29.2220   45.0810 C   0  0  0  0  0  0  0  0  0  0  0  0
   56.7970   30.3620   44.2680 C   0  0  0  0  0  0  0  0  0  0  0  0
   56.5910   30.2070   43.0360 O   0  0  0  0  0  0  0  0  0  0  0  0
   56.4900   31.6330   44.8600 N   0  0  0  0  0  0  0  0  0  0  0  0
   57.4320   32.6660   45.1850 C   0  0  0  0  0  0  0  0  0  0  0  0
   57.5680   33.1270   46.5070 C   0  0  0  0  0  0  0  0  0  0  0  0
   58.4970   34.1230   46.8170 C   0  0  0  0  0  0  0  0  0  0  0  0
   59.3110   34.6560   45.8170 C   0  0  0  0  0  0  0  0  0  0  0  0
   59.2050   34.1870   44.5050 C   0  0  0  0  0  0  0  0  0  0  0  0
   58.2760   33.1870   44.1810 C   0  0  0  0  0  0  0  0  0  0  0  0
   58.1850   32.7210   42.8290 N   0  0  0  0  0  0  0  0  0  0  0  0
   56.4240   28.2080   45.3840 N   0  0  0  0  0  0  0  0  0  0  0  0
   56.7870   27.1270   46.1230 C   0  0  0  0  0  0  0  0  0  0  0  0
   55.7680   26.0760   46.3250 C   0  0  0  0  0  0  0  0  0  0  0  0
   56.0850   24.9250   46.7230 O   0  0  0  0  0  0  0  0  0  0  0  0
   54.4440   26.3370   45.9960 O   0  0  0  0  0  0  0  0  0  0  0  0
   58.1090   27.0440   46.6240 C   0  0  0  0  0  0  0  0  0  0  0  0
   58.5180   25.9840   47.5030 N   0  0  0  0  0  0  0  0  0  0  0  0
   59.9619   27.7596   48.8022 H   0  0  0  0  0  0  0  0  0  0  0  0
   61.6913   27.6798   48.3232 H   0  0  0  0  0  0  0  0  0  0  0  0
   60.8312   29.2568   48.3232 H   0  0  0  0  0  0  0  0  0  0  0  0
   59.3153   29.9462   45.2493 H   0  0  0  0  0  0  0  0  0  0  0  0
   56.9386   32.7003   47.3019 H   0  0  0  0  0  0  0  0  0  0  0  0
   58.5869   34.4876   47.8509 H   0  0  0  0  0  0  0  0  0  0  0  0
   60.0365   35.4458   46.0615 H   0  0  0  0  0  0  0  0  0  0  0  0
   59.8541   34.6046   43.7212 H   0  0  0  0  0  0  0  0  0  0  0  0
   58.8220   33.0980   42.0930 H   0  0  0  0  0  0  0  0  0  0  0  0
   57.4840   32.0020   42.5430 H   0  0  0  0  0  0  0  0  0  0  0  0
   59.4920   25.9180   47.8680 H   0  0  0  0  0  0  0  0  0  0  0  0
   57.8950   25.1670   47.6880 H   0  0  0  0  0  0  0  0  0  0  0  0
  1  2  1  0
  2  3  1  0
  3  4  2  0
  4  5  1  0
  5  6  1  0
  6  7  2  0
  6  8  1  0
  8  9  1  0
  9 10  2  0
 10 11  1  0
 11 12  2  0
 12 13  1  0
 13 14  2  0
 14 15  1  0
  5 16  2  0
 16 17  1  0
 17 18  1  0
 18 19  2  0
 18 20  1  0
 17 21  2  0
 21 22  1  0
 21  3  1  0
 14  9  1  0
  1 23  1  0
  1 24  1  0
  1 25  1  0
  4 26  1  0
 10 27  1  0
 11 28  1  0
 12 29  1  0
 13 30  1  0
 15 31  1  0
 15 32  1  0
 22 33  1  0
 22 34  1  0
M  CHG  2   8  -1  20  -1
M  END
>  <UniqueID>  (1) 
1

>  <SMILES>  (1) 
COc1cc(C(=O)[N-]c2ccccc2N)nc(C(=O)[O-])c1N

>  <Energy>  (1) 
44.68053061606539

>  <Genealogy>  (1) 
COc1cc(C(=O)[N-]c2ccccc2N)nc(C(=O)[O-])c1N (protonated)
COc1cc(C(=O)[N-]c2ccccc2N)nc(C(=O)[O-])c1N (3D coordinates assigned)
COc1cc(C(=O)[N-]c2ccccc2N)nc(C(=O)[O-])c1N (optimized conformer: 44.68053061606539 kcal/mol)

>  <smiles>  (1) 
COc1cc(C(=O)Nc2ccccc2N)nc(C(=O)O)c1N

>  <score_type>  (1) 
oracle

>  <origin>  (1) 
adg

>  <m_score__min__energy>  (1) 
-10.4

>  <m_primary>  (1) 
energy

$$$$
1:0
     RDKit          3D

 32 34  0  0  0  0  0  0  0  0999 V2000
   58.1240   22.4040   47.1180 H   0  0  0  0  0  0  0  0  0  0  0  0
   57.4010   23.0000   47.5020 O   0  0  0  0  0  0  0  0  0  0  0  0
   57.0480   24.1850   46.8680 C   0  0  0  0  0  0  0  0  0  0  0  0
   55.8280   24.7510   46.9800 N   0  0  0  0  0  0  0  0  0  0  0  0
   55.9030   25.8610   46.2220 C   0  0  0  0  0  0  0  0  0  0  0  0
   54.8230   26.7130   46.0240 O   0  0  0  0  0  0  0  0  0  0  0  0
   57.1560   26.0090   45.6540 C   0  0  0  0  0  0  0  0  0  0  0  0
   57.6230   27.0540   44.7200 C   0  0  0  0  0  0  0  0  0  0  0  0
   57.4109   26.9097   43.6503 H   0  0  0  0  0  0  0  0  0  0  0  0
   58.2860   28.1660   45.0750 C   0  0  0  0  0  0  0  0  0  0  0  0
   59.1189   28.0525   45.7845 H   0  0  0  0  0  0  0  0  0  0  0  0
   57.9880   29.5320   44.5900 C   0  0  0  0  0  0  0  0  0  0  0  0
   57.2590   29.6920   43.4050 C   0  0  0  0  0  0  0  0  0  0  0  0
   56.9051   28.8065   42.8566 H   0  0  0  0  0  0  0  0  0  0  0  0
   56.9790   30.9690   42.9160 C   0  0  0  0  0  0  0  0  0  0  0  0
   56.3964   31.0859   41.9903 H   0  0  0  0  0  0  0  0  0  0  0  0
   57.4360   32.0990   43.5980 C   0  0  0  0  0  0  0  0  0  0  0  0
   57.2017   33.1022   43.2123 H   0  0  0  0  0  0  0  0  0  0  0  0
   58.1940   31.9620   44.7750 C   0  0  0  0  0  0  0  0  0  0  0  0
   58.6650   33.1260   45.4840 N   0  0  0  0  0  0  0  0  0  0  0  0
   59.2730   34.2060   44.9490 C   0  0  0  0  0  0  0  0  0  0  0  0
   59.4962   34.3397   43.8802 H   0  0  0  0  0  0  0  0  0  0  0  0
   59.5730   35.1170   45.9400 C   0  0  0  0  0  0  0  0  0  0  0  0
   60.0702   36.0895   45.8098 H   0  0  0  0  0  0  0  0  0  0  0  0
   59.1280   34.5710   47.1270 C   0  0  0  0  0  0  0  0  0  0  0  0
   59.2006   35.0236   48.1270 H   0  0  0  0  0  0  0  0  0  0  0  0
   58.5740   33.3460   46.8140 C   0  0  0  0  0  0  0  0  0  0  0  0
   58.1250   32.6519   47.5397 H   0  0  0  0  0  0  0  0  0  0  0  0
   58.4820   30.6710   45.2520 C   0  0  0  0  0  0  0  0  0  0  0  0
   59.1008   30.5501   46.1534 H   0  0  0  0  0  0  0  0  0  0  0  0
   57.8880   24.9120   46.0510 C   0  0  0  0  0  0  0  0  0  0  0  0
   58.9242   24.6673   45.7746 H   0  0  0  0  0  0  0  0  0  0  0  0
  1  2  1  0
  2  3  1  0
  3  4  1  0
  4  5  1  0
  5  6  1  0
  5  7  2  0
  7  8  1  0
  8  9  1  0
  8 10  2  0
 10 11  1  0
 10 12  1  0
 12 13  2  0
 13 14  1  0
 13 15  1  0
 15 16  1  0
 15 17  2  0
 17 18  1  0
 17 19  1  0
 19 20  1  0
 20 21  1  0
 21 22  1  0
 21 23  2  0
 23 24  1  0
 23 25  1  0
 25 26  1  0
 25 27  2  0
 27 28  1  0
 19 29  2  0
 29 30  1  0
  7 31  1  0
 31 32  1  0
 31  3  2  0
 29 12  1  0
 27 20  1  0
M  CHG  2   4  -1   6  -1
M  END
>  <UniqueID>  (2) 
2

>  <SMILES>  (2) 
[O-]c1[n-]c(O)cc1/C=C\c1cccc(-n2cccc2)c1

>  <Energy>  (2) 
97.78224641492108

>  <Genealogy>  (2) 
[O-]c1[n-]c(O)cc1C=Cc1cccc(-n2cccc2)c1 (protonated)
[O-]c1[n-]c(O)cc1/C=C\c1cccc(-n2cccc2)c1 (cis-trans isomerization)
[O-]c1[n-]c(O)cc1/C=C\c1cccc(-n2cccc2)c1 (3D coordinates assigned)
[O-]c1[n-]c(O)cc1/C=C\c1cccc(-n2cccc2)c1 (optimized conformer: 97.78224641492108 kcal/mol)

>  <smiles>  (2) 
Oc1cc(C=Cc2cccc(-n3cccc3)c2)c(O)[nH]1

>  <score_type>  (2) 
oracle

>  <origin>  (2) 
adg

>  <m_score__min__energy>  (2) 
-13.720000000000001

>  <m_primary>  (2) 
energy

$$$$
2:0
     RDKit          3D

 47 50  0  0  0  0  0  0  0  0999 V2000
   54.0980   25.9610   45.8100 N   0  0  0  0  0  0  0  0  0  0  0  0
   55.0700   24.5320   45.7970 S   0  0  0  0  0  0  0  0  0  0  0  0
   54.8810   23.8060   44.4950 O   0  0  0  0  0  0  0  0  0  0  0  0
   54.6430   23.6290   46.9190 O   0  0  0  0  0  0  0  0  0  0  0  0
   56.7640   24.9720   45.9910 C   0  0  0  0  0  0  0  0  0  0  0  0
   57.7710   24.0330   45.7360 C   0  0  0  0  0  0  0  0  0  0  0  0
   59.1120   24.3820   45.9020 C   0  0  0  0  0  0  0  0  0  0  0  0
   59.4570   25.6680   46.3280 C   0  0  0  0  0  0  0  0  0  0  0  0
   58.4580   26.6230   46.5960 C   0  0  0  0  0  0  0  0  0  0  0  0
   58.8220   27.9870   47.0530 C   0  0  0  0  0  0  0  0  0  0  0  0
   59.2890   28.9070   46.1670 N   0  0  0  0  0  0  0  0  0  0  0  0
   59.6260   30.1660   46.5490 C   0  0  0  0  0  0  0  0  0  0  0  0
   60.0800   30.9590   45.6830 O   0  0  0  0  0  0  0  0  0  0  0  0
   59.4810   30.5520   47.8990 C   0  0  0  0  0  0  0  0  0  0  0  0
   59.7870   31.8500   48.3850 C   0  0  0  0  0  0  0  0  0  0  0  0
   60.1940   32.8830   47.5370 O   0  0  0  0  0  0  0  0  0  0  0  0
   59.6610   34.1720   47.6200 C   0  0  0  0  0  0  0  0  0  0  0  0
   60.1130   35.0000   48.4600 O   0  0  0  0  0  0  0  0  0  0  0  0
   58.5830   34.5380   46.7550 N   0  0  0  0  0  0  0  0  0  0  0  0
   58.7100   34.6160   45.3040 C   0  0  0  0  0  0  0  0  0  0  0  0
   58.2400   33.3320   44.6740 C   0  0  0  0  0  0  0  0  0  0  0  0
   57.4750   32.4230   45.4230 C   0  0  0  0  0  0  0  0  0  0  0  0
   57.0020   31.2470   44.8310 C   0  0  0  0  0  0  0  0  0  0  0  0
   57.2850   30.9750   43.4890 C   0  0  0  0  0  0  0  0  0  0  0  0
   58.0410   31.8770   42.7380 C   0  0  0  0  0  0  0  0  0  0  0  0
   58.5160   33.0550   43.3250 C   0  0  0  0  0  0  0  0  0  0  0  0
   59.6780   32.1200   49.7550 C   0  0  0  0  0  0  0  0  0  0  0  0
   59.2330   31.1380   50.6390 C   0  0  0  0  0  0  0  0  0  0  0  0
   58.8960   29.8700   50.1680 C   0  0  0  0  0  0  0  0  0  0  0  0
   59.0190   29.5700   48.8080 C   0  0  0  0  0  0  0  0  0  0  0  0
   58.7000   28.3280   48.3630 N   0  0  0  0  0  0  0  0  0  0  0  0
   57.1080   26.2600   46.4250 C   0  0  0  0  0  0  0  0  0  0  0  0
   54.6360   26.6900   46.3290 H   0  0  0  0  0  0  0  0  0  0  0  0
   57.5046   23.0186   45.4043 H   0  0  0  0  0  0  0  0  0  0  0  0
   59.9002   23.6426   45.6969 H   0  0  0  0  0  0  0  0  0  0  0  0
   60.5164   25.9356   46.4547 H   0  0  0  0  0  0  0  0  0  0  0  0
   58.0985   35.4502   44.9295 H   0  0  0  0  0  0  0  0  0  0  0  0
   59.7660   34.7796   45.0432 H   0  0  0  0  0  0  0  0  0  0  0  0
   57.2472   32.6363   46.4778 H   0  0  0  0  0  0  0  0  0  0  0  0
   56.4067   30.5354   45.4220 H   0  0  0  0  0  0  0  0  0  0  0  0
   56.9119   30.0501   43.0248 H   0  0  0  0  0  0  0  0  0  0  0  0
   58.2637   31.6612   41.6826 H   0  0  0  0  0  0  0  0  0  0  0  0
   59.1069   33.7657   42.7286 H   0  0  0  0  0  0  0  0  0  0  0  0
   59.9460   33.1161   50.1371 H   0  0  0  0  0  0  0  0  0  0  0  0
   59.1475   31.3646   51.7120 H   0  0  0  0  0  0  0  0  0  0  0  0
   58.5324   29.1035   50.8682 H   0  0  0  0  0  0  0  0  0  0  0  0
   56.3159   26.9941   46.6340 H   0  0  0  0  0  0  0  0  0  0  0  0
  1  2  1  0
  2  3  2  0
  2  4  2  0
  2  5  1  0
  5  6  2  0
  6  7  1  0
  7  8  2  0
  8  9  1  0
  9 10  1  0
 10 11  2  0
 11 12  1  0
 12 13  2  0
 12 14  1  0
 14 15  2  0
 15 16  1  0
 16 17  1  0
 17 18  2  0
 17 19  1  0
 19 20  1  0
 20 21  1  0
 21 22  2  0
 22 23  1  0
 23 24  2  0
 24 25  1  0
 25 26  2  0
 15 27  1  0
 27 28  2  0
 28 29  1  0
 29 30  2  0
 30 31  1  0
  9 32  2  0
 32  5  1  0
 31 10  1  0
 30 14  1  0
 26 21  1  0
  1 33  1  0
  6 34  1  0
  7 35  1  0
  8 36  1  0
 20 37  1  0
 20 38  1  0
 22 39  1  0
 23 40  1  0
 24 41  1  0
 25 42  1  0
 26 43  1  0
 27 44  1  0
 28 45  1  0
 29 46  1  0
 32 47  1  0
M  CHG  3   1  -1  19  -1  31  -1
M  END
>  <UniqueID>  (3) 
3

>  <SMILES>  (3) 
[NH-]S(=O)(=O)c1cccc(-c2nc(=O)c3c(OC(=O)[N-]Cc4ccccc4)cccc3[n-]2)c1

>  <Energy>  (3) 
64.4479186364923

>  <Genealogy>  (3) 
[NH-]S(=O)(=O)c1cccc(-c2nc(=O)c3c(OC(=O)[N-]Cc4ccccc4)cccc3[n-]2)c1 (protonated)
[NH-]S(=O)(=O)c1cccc(-c2nc(=O)c3c(OC(=O)[N-]Cc4ccccc4)cccc3[n-]2)c1 (3D coordinates assigned)
[NH-]S(=O)(=O)c1cccc(-c2nc(=O)c3c(OC(=O)[N-]Cc4ccccc4)cccc3[n-]2)c1 (optimized conformer: 64.4479186364923 kcal/mol)

>  <smiles>  (3) 
NS(=O)(=O)c1cccc(-c2nc(=O)c3c(OC(=O)NCc4ccccc4)cccc3[nH]2)c1

>  <score_type>  (3) 
oracle

>  <origin>  (3) 
adg

>  <m_score__min__energy>  (3) 
-13.359999999999999

>  <m_primary>  (3) 
energy

$$$$
3:0
     RDKit          3D

 46 49  0  0  0  0  0  0  0  0999 V2000
   50.3090   32.3410   50.8910 H   0  0  0  0  0  0  0  0  0  0  0  0
   51.2800   32.2760   51.2680 N   0  0  0  0  0  0  0  0  0  0  0  0
   51.6410   30.5960   51.4440 S   0  0  0  0  0  0  0  0  0  0  0  0
   51.5800   29.9270   50.1000 O   0  0  0  0  0  0  0  0  0  0  0  0
   50.6260   29.9570   52.3490 O   0  0  0  0  0  0  0  0  0  0  0  0
   53.2490   30.4140   52.1390 C   0  0  0  0  0  0  0  0  0  0  0  0
   53.4760   29.4990   53.1770 C   0  0  0  0  0  0  0  0  0  0  0  0
   52.6433   28.8971   53.5698 H   0  0  0  0  0  0  0  0  0  0  0  0
   54.7590   29.3500   53.7140 C   0  0  0  0  0  0  0  0  0  0  0  0
   54.9290   28.6387   54.5357 H   0  0  0  0  0  0  0  0  0  0  0  0
   55.8300   30.1030   53.2100 C   0  0  0  0  0  0  0  0  0  0  0  0
   57.2010   29.9670   53.8220 C   0  0  0  0  0  0  0  0  0  0  0  0
   57.1983   30.4269   54.8213 H   0  0  0  0  0  0  0  0  0  0  0  0
   57.4524   28.8987   53.8960 H   0  0  0  0  0  0  0  0  0  0  0  0
   58.2030   30.6310   52.9900 N   0  0  0  0  0  0  0  0  0  0  0  0
   58.5790   30.1850   51.8300 C   0  0  0  0  0  0  0  0  0  0  0  0
   59.5800   29.2790   51.6860 N   0  0  0  0  0  0  0  0  0  0  0  0
   59.6270   29.1420   50.3480 C   0  0  0  0  0  0  0  0  0  0  0  0
   60.4840   28.3400   49.5990 C   0  0  0  0  0  0  0  0  0  0  0  0
   61.2308   27.6947   50.0848 H   0  0  0  0  0  0  0  0  0  0  0  0
   60.3600   28.3850   48.1970 C   0  0  0  0  0  0  0  0  0  0  0  0
   61.0208   27.7647   47.5737 H   0  0  0  0  0  0  0  0  0  0  0  0
   59.3950   29.2190   47.5780 C   0  0  0  0  0  0  0  0  0  0  0  0
   59.3420   29.2640   46.1460 N   0  0  0  0  0  0  0  0  0  0  0  0
   58.2130   30.2070   45.2270 S   0  0  0  0  0  0  0  0  0  0  0  0
   58.4270   29.9470   43.7630 O   0  0  0  0  0  0  0  0  0  0  0  0
   56.8150   29.7980   45.5990 O   0  0  0  0  0  0  0  0  0  0  0  0
   58.4640   31.9210   45.5440 C   0  0  0  0  0  0  0  0  0  0  0  0
   59.5760   32.3560   46.2810 C   0  0  0  0  0  0  0  0  0  0  0  0
   60.2821   31.6205   46.6939 H   0  0  0  0  0  0  0  0  0  0  0  0
   59.7890   33.7210   46.4920 C   0  0  0  0  0  0  0  0  0  0  0  0
   60.6639   34.0580   47.0673 H   0  0  0  0  0  0  0  0  0  0  0  0
   58.8920   34.6580   45.9730 C   0  0  0  0  0  0  0  0  0  0  0  0
   59.0613   35.7321   46.1395 H   0  0  0  0  0  0  0  0  0  0  0  0
   57.7790   34.2310   45.2420 C   0  0  0  0  0  0  0  0  0  0  0  0
   57.0719   34.9690   44.8354 H   0  0  0  0  0  0  0  0  0  0  0  0
   57.5650   32.8660   45.0280 C   0  0  0  0  0  0  0  0  0  0  0  0
   56.6887   32.5321   44.4531 H   0  0  0  0  0  0  0  0  0  0  0  0
   58.5280   30.0000   48.3810 C   0  0  0  0  0  0  0  0  0  0  0  0
   57.7529   30.6362   47.9288 H   0  0  0  0  0  0  0  0  0  0  0  0
   58.6900   29.9350   49.7590 C   0  0  0  0  0  0  0  0  0  0  0  0
   58.0390   30.5770   50.6880 O   0  0  0  0  0  0  0  0  0  0  0  0
   55.5990   31.0170   52.1690 C   0  0  0  0  0  0  0  0  0  0  0  0
   56.4318   31.6151   51.7707 H   0  0  0  0  0  0  0  0  0  0  0  0
   54.3160   31.1700   51.6370 C   0  0  0  0  0  0  0  0  0  0  0  0
   54.1433   31.8869   50.8208 H   0  0  0  0  0  0  0  0  0  0  0  0
  1  2  1  0
  2  3  1  0
  3  4  2  0
  3  5  2  0
  3  6  1  0
  6  7  2  0
  7  8  1  0
  7  9  1  0
  9 10  1  0
  9 11  2  0
 11 12  1  0
 12 13  1  0
 12 14  1  0
 12 15  1  0
 15 16  2  0
 16 17  1  0
 17 18  1  0
 18 19  2  0
 19 20  1  0
 19 21  1  0
 21 22  1  0
 21 23  2  0
 23 24  1  0
 24 25  1  0
 25 26  2  0
 25 27  2  0
 25 28  1  0
 28 29  2  0
 29 30  1  0
 29 31  1  0
 31 32  1  0
 31 33  2  0
 33 34  1  0
 33 35  1  0
 35 36  1  0
 35 37  2  0
 37 38  1  0
 23 39  1  0
 39 40  1  0
 39 41  2  0
 41 42  1  0
 11 43  1  0
 43 44  1  0
 43 45  2  0
 45 46  1  0
 45  6  1  0
 42 16  1  0
 41 18  1  0
 37 28  1  0
M  CHG  3   2  -1  17  -1  24  -1
M  END
>  <UniqueID>  (4) 
4

>  <SMILES>  (4) 
[NH-]S(=O)(=O)c1ccc(C/N=c2/[n-]c3ccc([N-]S(=O)(=O)c4ccccc4)cc3o2)cc1

>  <Energy>  (4) 
87.84938545161452

>  <Genealogy>  (4) 
[NH-]S(=O)(=O)c1ccc(CN=c2[n-]c3ccc([N-]S(=O)(=O)c4ccccc4)cc3o2)cc1 (protonated)
[NH-]S(=O)(=O)c1ccc(C/N=c2/[n-]c3ccc([N-]S(=O)(=O)c4ccccc4)cc3o2)cc1 (cis-trans isomerization)
[NH-]S(=O)(=O)c1ccc(C/N=c2/[n-]c3ccc([N-]S(=O)(=O)c4ccccc4)cc3o2)cc1 (3D coordinates assigned)
[NH-]S(=O)(=O)c1ccc(C/N=c2/[n-]c3ccc([N-]S(=O)(=O)c4ccccc4)cc3o2)cc1 (optimized conformer: 87.84938545161452 kcal/mol)

>  <smiles>  (4) 
NS(=O)(=O)c1ccc(CN=c2[nH]c3ccc(NS(=O)(=O)c4ccccc4)cc3o2)cc1

>  <score_type>  (4) 
oracle

>  <origin>  (4) 
adg

>  <m_score__min__energy>  (4) 
-13.52

>  <m_primary>  (4) 
energy

$$$$
4:0
     RDKit          3D

 60 62  0  0  0  0  0  0  0  0999 V2000
   51.0450   32.3390   50.1100 N   0  0  0  0  0  0  0  0  0  0  0  0
   51.3590   32.3200   51.5020 C   0  0  0  0  0  0  0  0  0  0  0  0
   50.7910   33.1440   52.2700 O   0  0  0  0  0  0  0  0  0  0  0  0
   52.3370   31.3460   52.0400 C   0  0  0  0  0  0  0  0  0  0  0  0
   51.9380   30.3830   52.9840 C   0  0  0  0  0  0  0  0  0  0  0  0
   52.8640   29.4700   53.4970 C   0  0  0  0  0  0  0  0  0  0  0  0
   54.1910   29.4980   53.0660 C   0  0  0  0  0  0  0  0  0  0  0  0
   54.6040   30.4330   52.1120 C   0  0  0  0  0  0  0  0  0  0  0  0
   55.9780   30.4520   51.7050 N   0  0  0  0  0  0  0  0  0  0  0  0
   57.0150   31.2300   52.3170 C   0  0  0  0  0  0  0  0  0  0  0  0
   57.0580   31.3090   53.5720 O   0  0  0  0  0  0  0  0  0  0  0  0
   58.0510   31.8530   51.5460 N   0  0  0  0  0  0  0  0  0  0  0  0
   58.5320   31.3610   50.2580 C   0  0  0  0  0  0  0  0  0  0  0  0
   58.1440   32.3360   49.1450 C   0  0  0  0  0  0  0  0  0  0  0  0
   59.3510   32.7600   48.2830 C   0  0  0  0  0  0  0  0  0  0  0  0
   59.1870   32.3330   46.8720 N   0  0  0  0  0  0  0  0  0  0  0  0
   60.1850   31.3220   46.4440 C   0  0  0  0  0  0  0  0  0  0  0  0
   60.3130   30.0890   47.3700 C   0  0  0  0  0  0  0  0  0  0  0  0
   59.5040   28.9050   46.9030 C   0  0  0  0  0  0  0  0  0  0  0  0
   58.9770   27.9970   47.8350 C   0  0  0  0  0  0  0  0  0  0  0  0
   58.2020   26.9170   47.4070 C   0  0  0  0  0  0  0  0  0  0  0  0
   57.9460   26.7270   46.0430 C   0  0  0  0  0  0  0  0  0  0  0  0
   56.9560   25.3620   45.5430 Cl  0  0  0  0  0  0  0  0  0  0  0  0
   58.4800   27.6250   45.1020 C   0  0  0  0  0  0  0  0  0  0  0  0
   58.1700   27.4330   43.3830 Cl  0  0  0  0  0  0  0  0  0  0  0  0
   59.2630   28.7020   45.5340 C   0  0  0  0  0  0  0  0  0  0  0  0
   57.7970   31.9570   46.5130 C   0  0  0  0  0  0  0  0  0  0  0  0
   57.6190   31.8600   45.0150 C   0  0  0  0  0  0  0  0  0  0  0  0
   58.2740   32.7740   44.1700 C   0  0  0  0  0  0  0  0  0  0  0  0
   58.1440   32.6750   42.7830 C   0  0  0  0  0  0  0  0  0  0  0  0
   57.3900   31.6430   42.2220 C   0  0  0  0  0  0  0  0  0  0  0  0
   56.7730   30.6950   43.0460 C   0  0  0  0  0  0  0  0  0  0  0  0
   56.0500   29.6420   42.4890 O   0  0  0  0  0  0  0  0  0  0  0  0
   56.8880   30.7980   44.4400 C   0  0  0  0  0  0  0  0  0  0  0  0
   56.2710   29.8440   45.2450 O   0  0  0  0  0  0  0  0  0  0  0  0
   53.6800   31.3730   51.6190 C   0  0  0  0  0  0  0  0  0  0  0  0
   51.5610   32.9610   49.4490 H   0  0  0  0  0  0  0  0  0  0  0  0
   50.8914   30.3480   53.3206 H   0  0  0  0  0  0  0  0  0  0  0  0
   52.5456   28.7269   54.2430 H   0  0  0  0  0  0  0  0  0  0  0  0
   54.9157   28.7809   53.4789 H   0  0  0  0  0  0  0  0  0  0  0  0
   59.6272   31.2642   50.2915 H   0  0  0  0  0  0  0  0  0  0  0  0
   58.0758   30.3811   50.0536 H   0  0  0  0  0  0  0  0  0  0  0  0
   57.3996   31.8519   48.4957 H   0  0  0  0  0  0  0  0  0  0  0  0
   57.7386   33.2414   49.6204 H   0  0  0  0  0  0  0  0  0  0  0  0
   59.4470   33.8553   48.3163 H   0  0  0  0  0  0  0  0  0  0  0  0
   60.2519   32.2759   48.6880 H   0  0  0  0  0  0  0  0  0  0  0  0
   59.9016   30.9671   45.4421 H   0  0  0  0  0  0  0  0  0  0  0  0
   61.1619   31.8269   46.4715 H   0  0  0  0  0  0  0  0  0  0  0  0
   61.3716   29.7933   47.4131 H   0  0  0  0  0  0  0  0  0  0  0  0
   59.9234   30.3808   48.3564 H   0  0  0  0  0  0  0  0  0  0  0  0
   59.1755   28.1369   48.9078 H   0  0  0  0  0  0  0  0  0  0  0  0
   57.7906   26.2121   48.1445 H   0  0  0  0  0  0  0  0  0  0  0  0
   59.6930   29.3948   44.7957 H   0  0  0  0  0  0  0  0  0  0  0  0
   57.5624   30.9819   46.9648 H   0  0  0  0  0  0  0  0  0  0  0  0
   57.1197   32.7368   46.8914 H   0  0  0  0  0  0  0  0  0  0  0  0
   58.8931   33.5725   44.6048 H   0  0  0  0  0  0  0  0  0  0  0  0
   58.6367   33.4117   42.1315 H   0  0  0  0  0  0  0  0  0  0  0  0
   57.2805   31.5747   41.1296 H   0  0  0  0  0  0  0  0  0  0  0  0
   55.7970   28.8270   43.0340 H   0  0  0  0  0  0  0  0  0  0  0  0
   54.0101   32.1356   50.8983 H   0  0  0  0  0  0  0  0  0  0  0  0
  1  2  1  0
  2  3  2  0
  2  4  1  0
  4  5  2  0
  5  6  1  0
  6  7  2  0
  7  8  1  0
  8  9  1  0
  9 10  1  0
 10 11  2  0
 10 12  1  0
 12 13  1  0
 13 14  1  0
 14 15  1  0
 15 16  1  0
 16 17  1  0
 17 18  1  0
 18 19  1  0
 19 20  2  0
 20 21  1  0
 21 22  2  0
 22 23  1  0
 22 24  1  0
 24 25  1  0
 24 26  2  0
 16 27  1  0
 27 28  1  0
 28 29  2  0
 29 30  1  0
 30 31  2  0
 31 32  1  0
 32 33  1  0
 32 34  2  0
 34 35  1  0
  8 36  2  0
 36  4  1  0
 26 19  1  0
 34 28  1  0
  1 37  1  0
  5 38  1  0
  6 39  1  0
  7 40  1  0
 13 41  1  0
 13 42  1  0
 14 43  1  0
 14 44  1  0
 15 45  1  0
 15 46  1  0
 17 47  1  0
 17 48  1  0
 18 49  1  0
 18 50  1  0
 20 51  1  0
 21 52  1  0
 26 53  1  0
 27 54  1  0
 27 55  1  0
 29 56  1  0
 30 57  1  0
 31 58  1  0
 33 59  1  0
 36 60  1  0
M  CHG  4   1  -1   9  -1  12  -1  35  -1
M  END
>  <UniqueID>  (5) 
5

>  <SMILES>  (5) 
[NH-]C(=O)c1cccc([N-]C(=O)[N-]CCCN(CCc2ccc(Cl)c(Cl)c2)Cc2cccc(O)c2[O-])c1

>  <Energy>  (5) 
69.52847476711644

>  <Genealogy>  (5) 
[NH-]C(=O)c1cccc([N-]C(=O)[N-]CCCN(CCc2ccc(Cl)c(Cl)c2)Cc2cccc(O)c2[O-])c1 (protonated)
[NH-]C(=O)c1cccc([N-]C(=O)[N-]CCCN(CCc2ccc(Cl)c(Cl)c2)Cc2cccc(O)c2[O-])c1 (3D coordinates assigned)
[NH-]C(=O)c1cccc([N-]C(=O)[N-]CCCN(CCc2ccc(Cl)c(Cl)c2)Cc2cccc(O)c2[O-])c1 (optimized conformer: 69.52847476711644 kcal/mol)

>  <smiles>  (5) 
NC(=O)c1cccc(NC(=O)NCCCN(CCc2ccc(Cl)c(Cl)c2)Cc2cccc(O)c2O)c1

>  <score_type>  (5) 
oracle

>  <origin>  (5) 
adg

>  <m_score__min__energy>  (5) 
-18.640000000000001

>  <m_primary>  (5) 
energy

$$$$
5:0
     RDKit          3D

 43 45  0  0  0  0  0  0  0  0999 V2000
   60.2649   30.7015   48.7055 H   0  0  0  0  0  0  0  0  0  0  0  0
   59.9380   30.2030   47.7810 C   0  0  0  0  0  0  0  0  0  0  0  0
   58.8160   28.9540   47.6790 S   0  0  0  0  0  0  0  0  0  0  0  0
   58.8710   28.7930   46.0040 C   0  0  0  0  0  0  0  0  0  0  0  0
   58.1210   27.7750   45.1990 C   0  0  0  0  0  0  0  0  0  0  0  0
   58.3255   26.7742   45.6072 H   0  0  0  0  0  0  0  0  0  0  0  0
   58.4552   27.8452   44.1533 H   0  0  0  0  0  0  0  0  0  0  0  0
   56.6350   28.0280   45.2410 C   0  0  0  0  0  0  0  0  0  0  0  0
   55.8960   27.1520   45.7640 O   0  0  0  0  0  0  0  0  0  0  0  0
   56.0220   29.2450   44.7760 N   0  0  0  0  0  0  0  0  0  0  0  0
   56.5850   30.3330   44.3380 C   0  0  0  0  0  0  0  0  0  0  0  0
   56.8990   31.3140   45.2260 N   0  0  0  0  0  0  0  0  0  0  0  0
   57.4880   32.4720   44.8260 C   0  0  0  0  0  0  0  0  0  0  0  0
   57.7920   33.5360   45.8340 C   0  0  0  0  0  0  0  0  0  0  0  0
   58.1089   33.0676   46.7775 H   0  0  0  0  0  0  0  0  0  0  0  0
   56.8914   34.1424   46.0104 H   0  0  0  0  0  0  0  0  0  0  0  0
   59.1290   34.6020   45.2060 S   0  0  0  0  0  0  0  0  0  0  0  0
   60.2080   34.2720   46.6000 C   0  0  0  0  0  0  0  0  0  0  0  0
   59.7420   34.4600   47.9030 C   0  0  0  0  0  0  0  0  0  0  0  0
   58.7147   34.8148   48.0724 H   0  0  0  0  0  0  0  0  0  0  0  0
   60.5760   34.1990   48.9900 C   0  0  0  0  0  0  0  0  0  0  0  0
   60.2009   34.3491   50.0131 H   0  0  0  0  0  0  0  0  0  0  0  0
   61.8910   33.7460   48.7900 C   0  0  0  0  0  0  0  0  0  0  0  0
   62.7680   33.4750   49.9850 C   0  0  0  0  0  0  0  0  0  0  0  0
   62.1956   33.6519   50.9075 H   0  0  0  0  0  0  0  0  0  0  0  0
   63.1091   32.4295   49.9599 H   0  0  0  0  0  0  0  0  0  0  0  0
   63.6395   34.1458   49.9599 H   0  0  0  0  0  0  0  0  0  0  0  0
   62.3730   33.5750   47.4690 C   0  0  0  0  0  0  0  0  0  0  0  0
   63.7750   33.0920   47.2050 C   0  0  0  0  0  0  0  0  0  0  0  0
   64.2882   32.9152   48.1618 H   0  0  0  0  0  0  0  0  0  0  0  0
   63.7378   32.1549   46.6302 H   0  0  0  0  0  0  0  0  0  0  0  0
   64.3229   33.8532   46.6302 H   0  0  0  0  0  0  0  0  0  0  0  0
   61.5180   33.8350   46.3850 C   0  0  0  0  0  0  0  0  0  0  0  0
   61.8831   33.6933   45.3571 H   0  0  0  0  0  0  0  0  0  0  0  0
   57.7550   32.6760   43.4670 C   0  0  0  0  0  0  0  0  0  0  0  0
   58.2194   33.6103   43.1185 H   0  0  0  0  0  0  0  0  0  0  0  0
   57.4180   31.6660   42.5650 C   0  0  0  0  0  0  0  0  0  0  0  0
   57.6450   31.8130   41.3360 O   0  0  0  0  0  0  0  0  0  0  0  0
   56.8410   30.5230   43.0150 N   0  0  0  0  0  0  0  0  0  0  0  0
   59.7940   29.7040   45.5050 C   0  0  0  0  0  0  0  0  0  0  0  0
   60.0389   29.7931   44.4363 H   0  0  0  0  0  0  0  0  0  0  0  0
   60.3810   30.4970   46.4980 C   0  0  0  0  0  0  0  0  0  0  0  0
   61.1234   31.2795   46.2824 H   0  0  0  0  0  0  0  0  0  0  0  0
  1  2  1  0
  2  3  1  0
  3  4  1  0
  4  5  1  0
  5  6  1  0
  5  7  1  0
  5  8  1  0
  8  9  2  0
  8 10  1  0
 10 11  2  0
 11 12  1  0
 12 13  1  0
 13 14  1  0
 14 15  1  0
 14 16  1  0
 14 17  1  0
 17 18  1  0
 18 19  2  0
 19 20  1  0
 19 21  1  0
 21 22  1  0
 21 23  2  0
 23 24  1  0
 24 25  1  0
 24 26  1  0
 24 27  1  0
 23 28  1  0
 28 29  1  0
 29 30  1  0
 29 31  1  0
 29 32  1  0
 28 33  2  0
 33 34  1  0
 13 35  2  0
 35 36  1  0
 35 37  1  0
 37 38  2  0
 37 39  1  0
  4 40  2  0
 40 41  1  0
 40 42  1  0
 42 43  1  0
 42  2  2  0
 39 11  1  0
 33 18  1  0
M  CHG  2  12  -1  39  -1
M  END
>  <UniqueID>  (6) 
6

>  <SMILES>  (6) 
Cc1ccc(SCc2cc(=O)[n-]/c(=N\C(=O)Cc3cccs3)[n-]2)cc1C

>  <Energy>  (6) 
69.75747795311193

>  <Genealogy>  (6) 
Cc1ccc(SCc2cc(=O)[n-]c(=NC(=O)Cc3cccs3)[n-]2)cc1C (protonated)
Cc1ccc(SCc2cc(=O)[n-]/c(=N\C(=O)Cc3cccs3)[n-]2)cc1C (cis-trans isomerization)
Cc1ccc(SCc2cc(=O)[n-]/c(=N\C(=O)Cc3cccs3)[n-]2)cc1C (3D coordinates assigned)
Cc1ccc(SCc2cc(=O)[n-]/c(=N\C(=O)Cc3cccs3)[n-]2)cc1C (optimized conformer: 69.75747795311193 kcal/mol)

>  <smiles>  (6) 
Cc1ccc(SCc2cc(=O)[nH]c(=NC(=O)Cc3cccs3)[nH]2)cc1C

>  <score_type>  (6) 
oracle

>  <origin>  (6) 
adg

>  <m_score__min__energy>  (6) 
-12.4

>  <m_primary>  (6) 
energy

$$$$
6:0
     RDKit          3D

 26 27  0  0  0  0  0  0  0  0999 V2000
   55.1450   29.0140   44.5100 N   0  0  0  0  0  0  0  0  0  0  0  0
   56.4120   30.1390   44.1630 S   0  0  0  0  0  0  0  0  0  0  0  0
   56.4890   30.3520   42.6770 O   0  0  0  0  0  0  0  0  0  0  0  0
   56.0870   31.4400   44.8430 O   0  0  0  0  0  0  0  0  0  0  0  0
   57.9590   29.5130   44.7550 C   0  0  0  0  0  0  0  0  0  0  0  0
   58.2610   28.1570   44.5460 C   0  0  0  0  0  0  0  0  0  0  0  0
   59.4470   27.6080   45.0380 C   0  0  0  0  0  0  0  0  0  0  0  0
   60.3450   28.4050   45.7450 C   0  0  0  0  0  0  0  0  0  0  0  0
   60.0680   29.7560   45.9530 C   0  0  0  0  0  0  0  0  0  0  0  0
   58.8870   30.3280   45.4530 C   0  0  0  0  0  0  0  0  0  0  0  0
   58.6580   31.7700   45.6720 C   0  0  0  0  0  0  0  0  0  0  0  0
   58.5460   32.6460   44.5800 C   0  0  0  0  0  0  0  0  0  0  0  0
   58.3400   34.0120   44.7930 C   0  0  0  0  0  0  0  0  0  0  0  0
   58.2540   34.5130   46.0940 C   0  0  0  0  0  0  0  0  0  0  0  0
   58.3800   33.6490   47.1860 C   0  0  0  0  0  0  0  0  0  0  0  0
   58.5860   32.2820   46.9770 C   0  0  0  0  0  0  0  0  0  0  0  0
   54.6720   29.3460   45.3800 H   0  0  0  0  0  0  0  0  0  0  0  0
   57.5564   27.5216   43.9894 H   0  0  0  0  0  0  0  0  0  0  0  0
   59.6726   26.5450   44.8672 H   0  0  0  0  0  0  0  0  0  0  0  0
   61.2740   27.9679   46.1398 H   0  0  0  0  0  0  0  0  0  0  0  0
   60.7807   30.3788   46.5135 H   0  0  0  0  0  0  0  0  0  0  0  0
   58.6206   32.2560   43.5542 H   0  0  0  0  0  0  0  0  0  0  0  0
   58.2455   34.6935   43.9347 H   0  0  0  0  0  0  0  0  0  0  0  0
   58.0871   35.5876   46.2595 H   0  0  0  0  0  0  0  0  0  0  0  0
   58.3170   34.0450   48.2103 H   0  0  0  0  0  0  0  0  0  0  0  0
   58.6920   31.6056   47.8380 H   0  0  0  0  0  0  0  0  0  0  0  0
  1  2  1  0
  2  3  2  0
  2  4  2  0
  2  5  1  0
  5  6  2  0
  6  7  1  0
  7  8  2  0
  8  9  1  0
  9 10  2  0
 10 11  1  0
 11 12  2  0
 12 13  1  0
 13 14  2  0
 14 15  1  0
 15 16  2  0
 10  5  1  0
 16 11  1  0
  1 17  1  0
  6 18  1  0
  7 19  1  0
  8 20  1  0
  9 21  1  0
 12 22  1  0
 13 23  1  0
 14 24  1  0
 15 25  1  0
 16 26  1  0
M  CHG  1   1  -1
M  END
>  <UniqueID>  (7) 
7

>  <SMILES>  (7) 
[NH-]S(=O)(=O)c1ccccc1-c1ccccc1

>  <Energy>  (7) 
35.16249838225877

>  <Genealogy>  (7) 
[NH-]S(=O)(=O)c1ccccc1-c1ccccc1 (protonated)
[NH-]S(=O)(=O)c1ccccc1-c1ccccc1 (3D coordinates assigned)
[NH-]S(=O)(=O)c1ccccc1-c1ccccc1 (optimized conformer: 35.16249838225877 kcal/mol)

>  <smiles>  (7) 
NS(=O)(=O)c1ccccc1-c1ccccc1

>  <score_type>  (7) 
oracle

>  <origin>  (7) 
adg

>  <m_score__min__energy>  (7) 
-10.039999999999999

>  <m_primary>  (7) 
energy

$$$$
7:0
     RDKit          3D

 44 46  0  0  0  0  0  0  0  0999 V2000
   52.9820   24.0880   44.6710 C   0  0  0  0  0  0  0  0  0  0  0  0
   52.9510   23.3520   45.9810 C   0  0  0  0  0  0  0  0  0  0  0  0
   51.7780   22.6860   46.3760 C   0  0  0  0  0  0  0  0  0  0  0  0
   51.7480   21.9500   47.5630 C   0  0  0  0  0  0  0  0  0  0  0  0
   52.8830   21.8780   48.3710 C   0  0  0  0  0  0  0  0  0  0  0  0
   54.0560   22.5310   47.9890 C   0  0  0  0  0  0  0  0  0  0  0  0
   54.1090   23.2520   46.7820 C   0  0  0  0  0  0  0  0  0  0  0  0
   55.3190   23.9090   46.3690 N   0  0  0  0  0  0  0  0  0  0  0  0
   56.5050   24.0610   47.1610 C   0  0  0  0  0  0  0  0  0  0  0  0
   57.1790   23.0410   47.4540 O   0  0  0  0  0  0  0  0  0  0  0  0
   56.9430   25.3430   47.6350 N   0  0  0  0  0  0  0  0  0  0  0  0
   57.3750   26.4350   46.8110 C   0  0  0  0  0  0  0  0  0  0  0  0
   58.7220   26.8350   46.7800 C   0  0  0  0  0  0  0  0  0  0  0  0
   59.1140   27.9310   46.0100 C   0  0  0  0  0  0  0  0  0  0  0  0
   58.1690   28.6340   45.2490 C   0  0  0  0  0  0  0  0  0  0  0  0
   58.5470   29.7670   44.4640 N   0  0  0  0  0  0  0  0  0  0  0  0
   57.5440   31.1700   44.2920 S   0  0  0  0  0  0  0  0  0  0  0  0
   57.4820   31.5510   42.8400 O   0  0  0  0  0  0  0  0  0  0  0  0
   56.1530   30.8390   44.7550 O   0  0  0  0  0  0  0  0  0  0  0  0
   58.1780   32.5350   45.2060 C   0  0  0  0  0  0  0  0  0  0  0  0
   58.6810   33.6560   44.5320 C   0  0  0  0  0  0  0  0  0  0  0  0
   59.2230   34.7260   45.2540 C   0  0  0  0  0  0  0  0  0  0  0  0
   59.2640   34.6770   46.6500 C   0  0  0  0  0  0  0  0  0  0  0  0
   58.7650   33.5610   47.3270 C   0  0  0  0  0  0  0  0  0  0  0  0
   58.2210   32.4930   46.6080 C   0  0  0  0  0  0  0  0  0  0  0  0
   56.8420   28.1910   45.2200 C   0  0  0  0  0  0  0  0  0  0  0  0
   56.4400   27.1000   46.0030 C   0  0  0  0  0  0  0  0  0  0  0  0
   55.1110   26.6810   45.9960 O   0  0  0  0  0  0  0  0  0  0  0  0
   53.0276   25.1707   44.8597 H   0  0  0  0  0  0  0  0  0  0  0  0
   53.8679   23.7782   44.0972 H   0  0  0  0  0  0  0  0  0  0  0  0
   52.0732   23.8538   44.0972 H   0  0  0  0  0  0  0  0  0  0  0  0
   50.8779   22.7447   45.7465 H   0  0  0  0  0  0  0  0  0  0  0  0
   50.8278   21.4263   47.8611 H   0  0  0  0  0  0  0  0  0  0  0  0
   52.8535   21.3060   49.3101 H   0  0  0  0  0  0  0  0  0  0  0  0
   54.9445   22.4816   48.6356 H   0  0  0  0  0  0  0  0  0  0  0  0
   59.4709   26.2815   47.3655 H   0  0  0  0  0  0  0  0  0  0  0  0
   60.1683   28.2446   46.0000 H   0  0  0  0  0  0  0  0  0  0  0  0
   58.6499   33.6953   43.4331 H   0  0  0  0  0  0  0  0  0  0  0  0
   59.6165   35.6051   44.7226 H   0  0  0  0  0  0  0  0  0  0  0  0
   59.6897   35.5181   47.2168 H   0  0  0  0  0  0  0  0  0  0  0  0
   58.8003   33.5231   48.4258 H   0  0  0  0  0  0  0  0  0  0  0  0
   57.8254   31.6169   47.1427 H   0  0  0  0  0  0  0  0  0  0  0  0
   56.1093   28.7024   44.5784 H   0  0  0  0  0  0  0  0  0  0  0  0
   54.8070   25.8710   46.5240 H   0  0  0  0  0  0  0  0  0  0  0  0
  1  2  1  0
  2  3  2  0
  3  4  1  0
  4  5  2  0
  5  6  1  0
  6  7  2  0
  7  8  1  0
  8  9  1  0
  9 10  2  0
  9 11  1  0
 11 12  1  0
 12 13  2  0
 13 14  1  0
 14 15  2  0
 15 16  1  0
 16 17  1  0
 17 18  2  0
 17 19  2  0
 17 20  1  0
 20 21  2  0
 21 22  1  0
 22 23  2  0
 23 24  1  0
 24 25  2  0
 15 26  1  0
 26 27  2  0
 27 28  1  0
  7  2  1  0
 27 12  1  0
 25 20  1  0
  1 29  1  0
  1 30  1  0
  1 31  1  0
  3 32  1  0
  4 33  1  0
  5 34  1  0
  6 35  1  0
 13 36  1  0
 14 37  1  0
 21 38  1  0
 22 39  1  0
 23 40  1  0
 24 41  1  0
 25 42  1  0
 26 43  1  0
 28 44  1  0
M  CHG  3   8  -1  11  -1  16  -1
M  END
>  <UniqueID>  (8) 
8

>  <SMILES>  (8) 
Cc1ccccc1[N-]C(=O)[N-]c1ccc([N-]S(=O)(=O)c2ccccc2)cc1O

>  <Energy>  (8) 
58.840662821896935

>  <Genealogy>  (8) 
Cc1ccccc1[N-]C(=O)[N-]c1ccc([N-]S(=O)(=O)c2ccccc2)cc1O (protonated)
Cc1ccccc1[N-]C(=O)[N-]c1ccc([N-]S(=O)(=O)c2ccccc2)cc1O (3D coordinates assigned)
Cc1ccccc1[N-]C(=O)[N-]c1ccc([N-]S(=O)(=O)c2ccccc2)cc1O (optimized conformer: 58.840662821896935 kcal/mol)

>  <smiles>  (8) 
Cc1ccccc1NC(=O)Nc1ccc(NS(=O)(=O)c2ccccc2)cc1O

>  <score_type>  (8) 
oracle

>  <origin>  (8) 
adg

>  <m_score__min__energy>  (8) 
-14.32

>  <m_primary>  (8) 
energy

$$$$
8:0
     RDKit          3D

 65 67  0  0  1  0  0  0  0  0999 V2000
   55.8150   22.9890   46.4660 C   0  0  0  0  0  0  0  0  0  0  0  0
   55.3380   24.1520   45.6040 C   0  0  0  0  0  0  0  0  0  0  0  0
   53.9180   23.9330   45.1970 C   0  0  0  0  0  0  0  0  0  0  0  0
   56.2230   24.1600   44.3870 C   0  0  0  0  0  0  0  0  0  0  0  0
   55.4430   25.3290   46.3740 O   0  0  0  0  0  0  0  0  0  0  0  0
   56.4700   26.2520   46.1980 C   0  0  0  0  0  0  0  0  0  0  0  0
   57.6070   25.9170   46.5700 O   0  0  0  0  0  0  0  0  0  0  0  0
   56.1370   27.5010   45.6090 N   0  0  0  0  0  0  0  0  0  0  0  0
   57.1810   28.5400   45.3830 C   0  0  0  0  0  0  0  0  0  0  0  0
   56.4620   29.7180   44.8930 C   0  0  0  0  0  0  0  0  0  0  0  0
   55.1810   29.5980   44.8610 O   0  0  0  0  0  0  0  0  0  0  0  0
   56.9390   30.9540   44.4540 N   0  0  0  0  0  0  0  0  0  0  0  0
   57.3150   31.9560   45.0910 C   0  0  0  0  0  0  0  0  0  0  0  0
   56.6400   33.0880   45.3470 N   0  0  0  0  0  0  0  0  0  0  0  0
   57.2740   33.9550   46.0320 N   0  0  0  0  0  0  0  0  0  0  0  0
   58.3530   33.9670   46.4960 C   0  0  0  0  0  0  0  0  0  0  0  0
   59.3840   34.7050   47.2840 C   0  0  0  0  0  0  0  0  0  0  0  0
   60.6920   34.5980   46.6600 N   0  0  0  0  0  0  0  0  0  0  0  0
   61.5730   33.7420   47.0360 C   0  0  0  0  0  0  0  0  0  0  0  0
   62.7880   33.7580   46.4600 N   0  0  0  0  0  0  0  0  0  0  0  0
   63.7160   32.8530   46.8550 C   0  0  0  0  0  0  0  0  0  0  0  0
   63.4130   31.9470   47.8190 C   0  0  0  0  0  0  0  0  0  0  0  0
   62.1550   31.9750   48.3750 C   0  0  0  0  0  0  0  0  0  0  0  0
   61.8380   31.1370   49.2790 N   0  0  0  0  0  0  0  0  0  0  0  0
   60.7530   31.2650   50.2290 C   0  0  0  0  0  0  0  0  0  0  0  0
   59.7320   30.1910   49.8920 C   0  0  0  0  0  0  0  0  0  0  0  0
   59.3100   30.2650   48.4450 C   0  0  0  0  0  0  0  0  0  0  0  0
   59.7690   29.0980   47.6620 C   0  0  0  0  0  0  0  0  0  0  0  0
   60.1400   29.3140   46.3510 C   0  0  0  0  0  0  0  0  0  0  0  0
   60.5700   28.1970   45.6330 C   0  0  0  0  0  0  0  0  0  0  0  0
   60.6170   26.9470   46.2150 C   0  0  0  0  0  0  0  0  0  0  0  0
   60.2470   26.7260   47.5230 C   0  0  0  0  0  0  0  0  0  0  0  0
   59.8170   27.8400   48.2430 C   0  0  0  0  0  0  0  0  0  0  0  0
   61.2130   32.8700   47.9940 N   0  0  0  0  0  0  0  0  0  0  0  0
   58.9260   32.2260   45.9030 S   0  0  0  0  0  0  0  0  0  0  0  0
   55.7072   23.2519   47.5287 H   0  0  0  0  0  0  0  0  0  0  0  0
   55.2101   22.0971   46.2457 H   0  0  0  0  0  0  0  0  0  0  0  0
   56.8720   22.7787   46.2457 H   0  0  0  0  0  0  0  0  0  0  0  0
   53.2900   23.8361   46.0949 H   0  0  0  0  0  0  0  0  0  0  0  0
   53.5721   24.7884   44.5981 H   0  0  0  0  0  0  0  0  0  0  0  0
   53.8459   23.0131   44.5981 H   0  0  0  0  0  0  0  0  0  0  0  0
   57.2774   24.1695   44.7004 H   0  0  0  0  0  0  0  0  0  0  0  0
   56.0274   23.2601   43.7855 H   0  0  0  0  0  0  0  0  0  0  0  0
   56.0112   25.0563   43.7855 H   0  0  0  0  0  0  0  0  0  0  0  0
   55.1450   27.6820   45.3330 H   0  0  0  0  0  0  0  0  0  0  0  0
   57.7025   28.7717   46.3234 H   0  0  0  0  0  0  0  0  0  0  0  0
   57.9449   28.2017   44.6675 H   0  0  0  0  0  0  0  0  0  0  0  0
   55.6550   33.2060   44.9860 H   0  0  0  0  0  0  0  0  0  0  0  0
   59.0997   35.7659   47.3437 H   0  0  0  0  0  0  0  0  0  0  0  0
   59.4386   34.2633   48.2899 H   0  0  0  0  0  0  0  0  0  0  0  0
   63.0070   34.4600   45.7210 H   0  0  0  0  0  0  0  0  0  0  0  0
   64.7149   32.8527   46.3943 H   0  0  0  0  0  0  0  0  0  0  0  0
   64.1569   31.2067   48.1485 H   0  0  0  0  0  0  0  0  0  0  0  0
   61.1290   31.1197   51.2525 H   0  0  0  0  0  0  0  0  0  0  0  0
   60.3002   32.2659   50.1723 H   0  0  0  0  0  0  0  0  0  0  0  0
   60.1753   29.2030   50.0852 H   0  0  0  0  0  0  0  0  0  0  0  0
   58.8429   30.3503   50.5198 H   0  0  0  0  0  0  0  0  0  0  0  0
   58.2119   30.3107   48.3995 H   0  0  0  0  0  0  0  0  0  0  0  0
   59.7702   31.1633   48.0077 H   0  0  0  0  0  0  0  0  0  0  0  0
   60.0991   30.3143   45.8953 H   0  0  0  0  0  0  0  0  0  0  0  0
   60.8772   28.3155   44.5834 H   0  0  0  0  0  0  0  0  0  0  0  0
   60.9630   26.0948   45.6116 H   0  0  0  0  0  0  0  0  0  0  0  0
   60.2885   25.7243   47.9755 H   0  0  0  0  0  0  0  0  0  0  0  0
   59.5099   27.7184   49.2922 H   0  0  0  0  0  0  0  0  0  0  0  0
   60.2670   32.8750   48.4270 H   0  0  0  0  0  0  0  0  0  0  0  0
  1  2  1  0
  2  3  1  0
  2  4  1  0
  2  5  1  0
  5  6  1  0
  6  7  2  0
  6  8  1  0
  8  9  1  0
  9 10  1  0
 10 11  2  0
 10 12  1  0
 12 13  2  0
 13 14  1  0
 14 15  1  0
 15 16  2  0
 16 17  1  0
 17 18  1  0
 18 19  2  0
 19 20  1  0
 20 21  1  0
 21 22  2  0
 22 23  1  0
 23 24  2  0
 24 25  1  0
 25 26  1  0
 26 27  1  0
 27 28  1  0
 28 29  2  0
 29 30  1  0
 30 31  2  0
 31 32  1  0
 32 33  2  0
 23 34  1  0
 16 35  1  0
 35 13  1  0
 34 19  1  0
 33 28  1  0
  1 36  1  0
  1 37  1  0
  1 38  1  0
  3 39  1  0
  3 40  1  0
  3 41  1  0
  4 42  1  0
  4 43  1  0
  4 44  1  0
  8 45  1  0
  9 46  1  0
  9 47  1  0
 14 48  1  0
 17 49  1  0
 17 50  1  0
 20 51  1  0
 21 52  1  0
 22 53  1  0
 25 54  1  0
 25 55  1  0
 26 56  1  0
 26 57  1  0
 27 58  1  0
 27 59  1  0
 29 60  1  0
 30 61  1  0
 31 62  1  0
 32 63  1  0
 33 64  1  0
 34 65  1  0
M  END
>  <smiles>  (9) 
CC(C)(C)OC(=O)NCC(=O)N=c1[nH]nc(CN=c2[nH]ccc(=NCCCc3ccccc3)[nH]2)s1

>  <score_type>  (9) 
oracle

>  <origin>  (9) 
adg

>  <m_score__min__energy>  (9) 
-8.8000000000000007

>  <m_primary>  (9) 
energy

$$$$
9:0
     RDKit          3D

 32 34  0  0  0  0  0  0  0  0999 V2000
   57.8731   28.9779   50.4384 H   0  0  0  0  0  0  0  0  0  0  0  0
   58.6710   29.6460   50.0820 C   0  0  0  0  0  0  0  0  0  0  0  0
   59.0660   29.6820   48.7810 N   0  0  0  0  0  0  0  0  0  0  0  0
   60.0630   30.5740   48.5920 C   0  0  0  0  0  0  0  0  0  0  0  0
   60.6120   30.8310   47.4410 N   0  0  0  0  0  0  0  0  0  0  0  0
   60.8650   32.1300   46.8830 C   0  0  0  0  0  0  0  0  0  0  0  0
   62.0390   32.5840   46.9190 O   0  0  0  0  0  0  0  0  0  0  0  0
   59.8150   32.9080   46.1920 C   0  0  0  0  0  0  0  0  0  0  0  0
   60.0380   34.2750   45.9570 C   0  0  0  0  0  0  0  0  0  0  0  0
   60.9754   34.7414   46.2944 H   0  0  0  0  0  0  0  0  0  0  0  0
   59.0780   35.0460   45.2980 C   0  0  0  0  0  0  0  0  0  0  0  0
   59.2629   36.1148   45.1149 H   0  0  0  0  0  0  0  0  0  0  0  0
   57.8860   34.4630   44.8720 C   0  0  0  0  0  0  0  0  0  0  0  0
   57.1281   35.0742   44.3600 H   0  0  0  0  0  0  0  0  0  0  0  0
   57.6520   33.1040   45.0940 C   0  0  0  0  0  0  0  0  0  0  0  0
   56.7072   32.6515   44.7584 H   0  0  0  0  0  0  0  0  0  0  0  0
   58.6140   32.3090   45.7430 C   0  0  0  0  0  0  0  0  0  0  0  0
   58.3700   30.9040   45.9440 N   0  0  0  0  0  0  0  0  0  0  0  0
   58.7810   30.4410   46.7820 H   0  0  0  0  0  0  0  0  0  0  0  0
   57.6740   30.0880   44.9870 C   0  0  0  0  0  0  0  0  0  0  0  0
   57.4800   30.5150   43.8160 O   0  0  0  0  0  0  0  0  0  0  0  0
   57.2080   28.7340   45.3360 C   0  0  0  0  0  0  0  0  0  0  0  0
   55.9120   28.3660   45.2650 N   0  0  0  0  0  0  0  0  0  0  0  0
   55.8930   27.0830   45.6700 C   0  0  0  0  0  0  0  0  0  0  0  0
   54.7320   26.3240   45.7420 O   0  0  0  0  0  0  0  0  0  0  0  0
   57.1480   26.6250   46.0000 C   0  0  0  0  0  0  0  0  0  0  0  0
   57.4163   25.6202   46.3582 H   0  0  0  0  0  0  0  0  0  0  0  0
   57.9980   27.6880   45.7880 C   0  0  0  0  0  0  0  0  0  0  0  0
   59.0865   27.7039   45.9458 H   0  0  0  0  0  0  0  0  0  0  0  0
   60.4830   31.3590   50.0140 S   0  0  0  0  0  0  0  0  0  0  0  0
   59.3500   30.5160   50.9290 C   0  0  0  0  0  0  0  0  0  0  0  0
   59.1764   30.6326   52.0090 H   0  0  0  0  0  0  0  0  0  0  0  0
  1  2  1  0
  2  3  1  0
  3  4  1  0
  4  5  2  0
  5  6  1  0
  6  7  2  0
  6  8  1  0
  8  9  2  0
  9 10  1  0
  9 11  1  0
 11 12  1  0
 11 13  2  0
 13 14  1  0
 13 15  1  0
 15 16  1  0
 15 17  2  0
 17 18  1  0
 18 19  1  0
 18 20  1  0
 20 21  2  0
 20 22  1  0
 22 23  1  0
 23 24  1  0
 24 25  1  0
 24 26  2  0
 26 27  1  0
 26 28  1  0
 28 29  1  0
  4 30  1  0
 30 31  1  0
 31 32  1  0
 31  2  2  0
 17  8  1  0
 28 22  2  0
M  CHG  3   3  -1  23  -1  25  -1
M  END
>  <UniqueID>  (10) 
9

>  <SMILES>  (10) 
O=C(Nc1ccccc1C(=O)/N=c1\[n-]ccs1)c1ccc([O-])[n-]1

>  <Energy>  (10) 
103.54591978522983

>  <Genealogy>  (10) 
O=C(Nc1ccccc1C(=O)N=c1[n-]ccs1)c1ccc([O-])[n-]1 (protonated)
O=C(Nc1ccccc1C(=O)/N=c1\[n-]ccs1)c1ccc([O-])[n-]1 (cis-trans isomerization)
O=C(Nc1ccccc1C(=O)/N=c1\[n-]ccs1)c1ccc([O-])[n-]1 (3D coordinates assigned)
O=C(Nc1ccccc1C(=O)/N=c1\[n-]ccs1)c1ccc([O-])[n-]1 (optimized conformer: 103.54591978522983 kcal/mol)

>  <smiles>  (10) 
O=C(Nc1ccccc1C(=O)N=c1[nH]ccs1)c1ccc(O)[nH]1

>  <score_type>  (10) 
oracle

>  <origin>  (10) 
adg

>  <m_score__min__energy>  (10) 
-14.029999999999999

>  <m_primary>  (10) 
energy

$$$$
10:0
     RDKit          3D

 51 54  0  0  0  0  0  0  0  0999 V2000
   58.6290   34.6390   45.2810 C   0  0  0  0  0  0  0  0  0  0  0  0
   57.4150   33.7510   45.5610 C   0  0  0  0  0  0  0  0  0  0  0  0
   57.4130   32.6070   44.7050 O   0  0  0  0  0  0  0  0  0  0  0  0
   57.6110   31.2950   45.1560 C   0  0  0  0  0  0  0  0  0  0  0  0
   56.6920   30.3240   44.9000 N   0  0  0  0  0  0  0  0  0  0  0  0
   56.8500   29.0480   45.3360 C   0  0  0  0  0  0  0  0  0  0  0  0
   57.9670   28.6990   46.1120 C   0  0  0  0  0  0  0  0  0  0  0  0
   58.1490   27.3210   46.6230 C   0  0  0  0  0  0  0  0  0  0  0  0
   59.3180   26.8780   46.8030 O   0  0  0  0  0  0  0  0  0  0  0  0
   57.0400   26.4520   46.8940 N   0  0  0  0  0  0  0  0  0  0  0  0
   56.6030   25.3470   46.0930 C   0  0  0  0  0  0  0  0  0  0  0  0
   57.4950   24.3290   45.6950 C   0  0  0  0  0  0  0  0  0  0  0  0
   57.0450   23.2680   44.9050 C   0  0  0  0  0  0  0  0  0  0  0  0
   55.7030   23.2140   44.5050 C   0  0  0  0  0  0  0  0  0  0  0  0
   54.8190   24.2410   44.8690 C   0  0  0  0  0  0  0  0  0  0  0  0
   55.2670   25.3080   45.6550 C   0  0  0  0  0  0  0  0  0  0  0  0
   54.3890   26.3400   45.9820 O   0  0  0  0  0  0  0  0  0  0  0  0
   58.9310   29.6830   46.3700 C   0  0  0  0  0  0  0  0  0  0  0  0
   58.7790   30.9770   45.8560 C   0  0  0  0  0  0  0  0  0  0  0  0
   59.7950   31.9730   46.0110 N   0  0  0  0  0  0  0  0  0  0  0  0
   60.8950   32.0760   47.3510 S   0  0  0  0  0  0  0  0  0  0  0  0
   61.8380   33.2330   47.1210 O   0  0  0  0  0  0  0  0  0  0  0  0
   61.6910   30.7980   47.4310 O   0  0  0  0  0  0  0  0  0  0  0  0
   60.0300   32.2840   48.8780 C   0  0  0  0  0  0  0  0  0  0  0  0
   60.1320   33.4890   49.5960 C   0  0  0  0  0  0  0  0  0  0  0  0
   59.3880   33.6790   50.7670 C   0  0  0  0  0  0  0  0  0  0  0  0
   58.5300   32.6710   51.2170 C   0  0  0  0  0  0  0  0  0  0  0  0
   58.4100   31.4730   50.4950 C   0  0  0  0  0  0  0  0  0  0  0  0
   59.1830   31.2640   49.3470 C   0  0  0  0  0  0  0  0  0  0  0  0
   57.5010   30.5060   50.9320 O   0  0  0  0  0  0  0  0  0  0  0  0
   56.4980   30.8290   51.8960 C   0  0  0  0  0  0  0  0  0  0  0  0
   57.0770   31.7480   52.9810 C   0  0  0  0  0  0  0  0  0  0  0  0
   57.7750   32.8440   52.3830 O   0  0  0  0  0  0  0  0  0  0  0  0
   59.0731   34.9639   46.2335 H   0  0  0  0  0  0  0  0  0  0  0  0
   59.3736   34.0709   44.7041 H   0  0  0  0  0  0  0  0  0  0  0  0
   58.3131   35.5207   44.7041 H   0  0  0  0  0  0  0  0  0  0  0  0
   57.4468   33.4171   46.6086 H   0  0  0  0  0  0  0  0  0  0  0  0
   56.5015   34.3338   45.3716 H   0  0  0  0  0  0  0  0  0  0  0  0
   56.1002   28.2848   45.0804 H   0  0  0  0  0  0  0  0  0  0  0  0
   58.5488   24.3707   46.0078 H   0  0  0  0  0  0  0  0  0  0  0  0
   57.7435   22.4759   44.5973 H   0  0  0  0  0  0  0  0  0  0  0  0
   55.3423   22.3655   43.9050 H   0  0  0  0  0  0  0  0  0  0  0  0
   53.7713   24.2071   44.5356 H   0  0  0  0  0  0  0  0  0  0  0  0
   59.8127   29.4375   46.9801 H   0  0  0  0  0  0  0  0  0  0  0  0
   60.7993   34.2859   49.2360 H   0  0  0  0  0  0  0  0  0  0  0  0
   59.4784   34.6189   51.3313 H   0  0  0  0  0  0  0  0  0  0  0  0
   59.1281   30.3040   48.8128 H   0  0  0  0  0  0  0  0  0  0  0  0
   55.6640   31.3412   51.3940 H   0  0  0  0  0  0  0  0  0  0  0  0
   56.1421   29.9005   52.3665 H   0  0  0  0  0  0  0  0  0  0  0  0
   56.2571   32.1361   53.6032 H   0  0  0  0  0  0  0  0  0  0  0  0
   57.7799   31.1715   53.6004 H   0  0  0  0  0  0  0  0  0  0  0  0
  1  2  1  0
  2  3  1  0
  3  4  1  0
  4  5  2  0
  5  6  1  0
  6  7  2  0
  7  8  1  0
  8  9  2  0
  8 10  1  0
 10 11  1  0
 11 12  2  0
 12 13  1  0
 13 14  2  0
 14 15  1  0
 15 16  2  0
 16 17  1  0
  7 18  1  0
 18 19  2  0
 19 20  1  0
 20 21  1  0
 21 22  2  0
 21 23  2  0
 21 24  1  0
 24 25  2  0
 25 26  1  0
 26 27  2  0
 27 28  1  0
 28 29  2  0
 28 30  1  0
 30 31  1  0
 31 32  1  0
 32 33  1  0
 19  4  1  0
 29 24  1  0
 16 11  1  0
 33 27  1  0
  1 34  1  0
  1 35  1  0
  1 36  1  0
  2 37  1  0
  2 38  1  0
  6 39  1  0
 12 40  1  0
 13 41  1  0
 14 42  1  0
 15 43  1  0
 18 44  1  0
 25 45  1  0
 26 46  1  0
 29 47  1  0
 31 48  1  0
 31 49  1  0
 32 50  1  0
 32 51  1  0
M  CHG  3  10  -1  17  -1  20  -1
M  END
>  <UniqueID>  (11) 
10

>  <SMILES>  (11) 
CCOc1ncc(C(=O)[N-]c2ccccc2[O-])cc1[N-]S(=O)(=O)c1ccc2c(c1)OCCO2

>  <Energy>  (11) 
65.54456982548132

>  <Genealogy>  (11) 
CCOc1ncc(C(=O)[N-]c2ccccc2[O-])cc1[N-]S(=O)(=O)c1ccc2c(c1)OCCO2 (protonated)
CCOc1ncc(C(=O)[N-]c2ccccc2[O-])cc1[N-]S(=O)(=O)c1ccc2c(c1)OCCO2 (3D coordinates assigned)
CCOc1ncc(C(=O)[N-]c2ccccc2[O-])cc1[N-]S(=O)(=O)c1ccc2c(c1)OCCO2 (nonaromatic ring conformer: 65.54456982548132 kcal/mol)

>  <smiles>  (11) 
CCOc1ncc(C(=O)Nc2ccccc2O)cc1NS(=O)(=O)c1ccc2c(c1)OCCO2

>  <score_type>  (11) 
oracle

>  <origin>  (11) 
adg

>  <m_score__min__energy>  (11) 
-15.550000000000001

>  <m_primary>  (11) 
energy

$$$$
11:0
     RDKit          3D

 45 47  0  0  0  0  0  0  0  0999 V2000
   60.5054   26.4388   45.9454 H   0  0  0  0  0  0  0  0  0  0  0  0
   59.6540   27.0940   45.7090 C   0  0  0  0  0  0  0  0  0  0  0  0
   59.8770   28.3520   45.1530 C   0  0  0  0  0  0  0  0  0  0  0  0
   60.9047   28.6870   44.9492 H   0  0  0  0  0  0  0  0  0  0  0  0
   58.8010   29.1880   44.8540 C   0  0  0  0  0  0  0  0  0  0  0  0
   58.9885   30.1797   44.4164 H   0  0  0  0  0  0  0  0  0  0  0  0
   57.4760   28.7770   45.1060 C   0  0  0  0  0  0  0  0  0  0  0  0
   56.3540   29.6980   44.7680 C   0  0  0  0  0  0  0  0  0  0  0  0
   55.1590   29.3140   44.8790 O   0  0  0  0  0  0  0  0  0  0  0  0
   56.6320   31.0450   44.3620 N   0  0  0  0  0  0  0  0  0  0  0  0
   57.2670   32.0610   45.1510 C   0  0  0  0  0  0  0  0  0  0  0  0
   57.3800   33.3890   44.7010 C   0  0  0  0  0  0  0  0  0  0  0  0
   56.9610   33.6757   43.7252 H   0  0  0  0  0  0  0  0  0  0  0  0
   58.0240   34.3450   45.4920 C   0  0  0  0  0  0  0  0  0  0  0  0
   58.1001   35.3850   45.1419 H   0  0  0  0  0  0  0  0  0  0  0  0
   58.5710   33.9840   46.7250 C   0  0  0  0  0  0  0  0  0  0  0  0
   59.0674   34.7423   47.3483 H   0  0  0  0  0  0  0  0  0  0  0  0
   58.4890   32.6580   47.1700 C   0  0  0  0  0  0  0  0  0  0  0  0
   59.1750   32.2180   48.7310 S   0  0  0  0  0  0  0  0  0  0  0  0
   59.4790   30.7460   48.7330 O   0  0  0  0  0  0  0  0  0  0  0  0
   58.1900   32.5240   49.8250 O   0  0  0  0  0  0  0  0  0  0  0  0
   60.6310   33.1290   48.9810 N   0  0  0  0  0  0  0  0  0  0  0  0
   60.5950   33.9120   49.6710 H   0  0  0  0  0  0  0  0  0  0  0  0
   61.7470   32.8840   48.3570 C   0  0  0  0  0  0  0  0  0  0  0  0
   62.0700   31.6410   47.7600 N   0  0  0  0  0  0  0  0  0  0  0  0
   61.4810   30.7800   47.7670 H   0  0  0  0  0  0  0  0  0  0  0  0
   63.3910   31.7040   47.1680 C   0  0  0  0  0  0  0  0  0  0  0  0
   63.3403   31.4594   46.0967 H   0  0  0  0  0  0  0  0  0  0  0  0
   64.0749   30.9824   47.6388 H   0  0  0  0  0  0  0  0  0  0  0  0
   63.8830   33.1500   47.3620 C   0  0  0  0  0  0  0  0  0  0  0  0
   63.9972   33.6428   46.3852 H   0  0  0  0  0  0  0  0  0  0  0  0
   64.8597   33.1639   47.8679 H   0  0  0  0  0  0  0  0  0  0  0  0
   62.8260   33.8850   48.2010 C   0  0  0  0  0  0  0  0  0  0  0  0
   62.4593   34.7789   47.6751 H   0  0  0  0  0  0  0  0  0  0  0  0
   63.2186   34.2435   49.1640 H   0  0  0  0  0  0  0  0  0  0  0  0
   57.8390   31.7010   46.3770 C   0  0  0  0  0  0  0  0  0  0  0  0
   57.7781   30.6581   46.7215 H   0  0  0  0  0  0  0  0  0  0  0  0
   57.2500   27.4950   45.6700 C   0  0  0  0  0  0  0  0  0  0  0  0
   55.9340   27.0700   45.9250 O   0  0  0  0  0  0  0  0  0  0  0  0
   55.5170   25.7110   45.9920 C   0  0  0  0  0  0  0  0  0  0  0  0
   55.4239   25.4075   47.0452 H   0  0  0  0  0  0  0  0  0  0  0  0
   54.5438   25.6010   45.4913 H   0  0  0  0  0  0  0  0  0  0  0  0
   56.2610   25.0740   45.4913 H   0  0  0  0  0  0  0  0  0  0  0  0
   58.3520   26.6650   45.9660 C   0  0  0  0  0  0  0  0  0  0  0  0
   58.1826   25.6701   46.4036 H   0  0  0  0  0  0  0  0  0  0  0  0
  1  2  1  0
  2  3  2  0
  3  4  1  0
  3  5  1  0
  5  6  1  0
  5  7  2  0
  7  8  1  0
  8  9  2  0
  8 10  1  0
 10 11  1  0
 11 12  2  0
 12 13  1  0
 12 14  1  0
 14 15  1  0
 14 16  2  0
 16 17  1  0
 16 18  1  0
 18 19  1  0
 19 20  2  0
 19 21  2  0
 19 22  1  0
 22 23  1  0
 22 24  2  0
 24 25  1  0
 25 26  1  0
 25 27  1  0
 27 28  1  0
 27 29  1  0
 27 30  1  0
 30 31  1  0
 30 32  1  0
 30 33  1  0
 33 34  1  0
 33 35  1  0
 18 36  2  0
 36 37  1  0
  7 38  1  0
 38 39  1  0
 39 40  1  0
 40 41  1  0
 40 42  1  0
 40 43  1  0
 38 44  2  0
 44 45  1  0
 44  2  1  0
 36 11  1  0
 33 24  1  0
M  CHG  2  10  -1  22   1
M  END
>  <UniqueID>  (12) 
11

>  <SMILES>  (12) 
COc1ccccc1C(=O)[N-]c1cccc(S(=O)(=O)/[NH+]=C2/CCCN2)c1

>  <Energy>  (12) 
60.69766635553554

>  <Genealogy>  (12) 
COc1ccccc1C(=O)[N-]c1cccc(S(=O)(=O)[NH+]=C2CCCN2)c1 (protonated)
COc1ccccc1C(=O)[N-]c1cccc(S(=O)(=O)/[NH+]=C2/CCCN2)c1 (cis-trans isomerization)
COc1ccccc1C(=O)[N-]c1cccc(S(=O)(=O)/[NH+]=C2/CCCN2)c1 (3D coordinates assigned)
COc1ccccc1C(=O)[N-]c1cccc(S(=O)(=O)/[NH+]=C2/CCCN2)c1 (nonaromatic ring conformer: 60.69766635553554 kcal/mol)

>  <smiles>  (12) 
COc1ccccc1C(=O)Nc1cccc(S(=O)(=O)N=C2CCCN2)c1

>  <score_type>  (12) 
oracle

>  <origin>  (12) 
adg

>  <m_score__min__energy>  (12) 
-9.2799999999999994

>  <m_primary>  (12) 
energy

$$$$
12:0
     RDKit          3D

 27 27  0  0  0  0  0  0  0  0999 V2000
   59.3710   28.8980   45.4290 C   0  0  0  0  0  0  0  0  0  0  0  0
   58.5530   27.7530   44.8440 C   0  0  0  0  0  0  0  0  0  0  0  0
   57.1620   28.0680   44.8590 O   0  0  0  0  0  0  0  0  0  0  0  0
   56.6410   29.2800   44.3970 C   0  0  0  0  0  0  0  0  0  0  0  0
   55.5580   29.7300   44.8610 O   0  0  0  0  0  0  0  0  0  0  0  0
   57.3430   29.9940   43.3720 N   0  0  0  0  0  0  0  0  0  0  0  0
   56.8090   31.1900   42.7240 C   0  0  0  0  0  0  0  0  0  0  0  0
   58.1500   32.3810   42.3870 S   0  0  0  0  0  0  0  0  0  0  0  0
   58.1870   33.0460   44.0540 C   0  0  0  0  0  0  0  0  0  0  0  0
   57.2640   32.5970   45.0080 C   0  0  0  0  0  0  0  0  0  0  0  0
   57.3030   33.1020   46.3120 C   0  0  0  0  0  0  0  0  0  0  0  0
   58.2560   34.0630   46.6620 C   0  0  0  0  0  0  0  0  0  0  0  0
   59.1690   34.5230   45.7070 C   0  0  0  0  0  0  0  0  0  0  0  0
   59.1340   34.0170   44.4040 C   0  0  0  0  0  0  0  0  0  0  0  0
   59.3364   28.8496   46.5274 H   0  0  0  0  0  0  0  0  0  0  0  0
   60.4143   28.8134   45.0909 H   0  0  0  0  0  0  0  0  0  0  0  0
   58.9527   29.8576   45.0909 H   0  0  0  0  0  0  0  0  0  0  0  0
   58.8717   27.5749   43.8064 H   0  0  0  0  0  0  0  0  0  0  0  0
   58.7183   26.8526   45.4539 H   0  0  0  0  0  0  0  0  0  0  0  0
   58.2260   29.5830   42.9970 H   0  0  0  0  0  0  0  0  0  0  0  0
   56.3298   30.9054   41.7757 H   0  0  0  0  0  0  0  0  0  0  0  0
   56.0728   31.6603   43.3924 H   0  0  0  0  0  0  0  0  0  0  0  0
   56.5084   31.8470   44.7313 H   0  0  0  0  0  0  0  0  0  0  0  0
   56.5834   32.7427   47.0624 H   0  0  0  0  0  0  0  0  0  0  0  0
   58.2880   34.4575   47.6883 H   0  0  0  0  0  0  0  0  0  0  0  0
   59.9150   35.2834   45.9814 H   0  0  0  0  0  0  0  0  0  0  0  0
   59.8506   34.3817   43.6533 H   0  0  0  0  0  0  0  0  0  0  0  0
  1  2  1  0
  2  3  1  0
  3  4  1  0
  4  5  2  0
  4  6  1  0
  6  7  1  0
  7  8  1  0
  8  9  1  0
  9 10  2  0
 10 11  1  0
 11 12  2  0
 12 13  1  0
 13 14  2  0
 14  9  1  0
  1 15  1  0
  1 16  1  0
  1 17  1  0
  2 18  1  0
  2 19  1  0
  6 20  1  0
  7 21  1  0
  7 22  1  0
 10 23  1  0
 11 24  1  0
 12 25  1  0
 13 26  1  0
 14 27  1  0
M  END
>  <UniqueID>  (13) 
12

>  <SMILES>  (13) 
CCOC(=O)NCSc1ccccc1

>  <Energy>  (13) 
14.64961943011274

>  <Genealogy>  (13) 
CCOC(=O)NCSc1ccccc1 (3D coordinates assigned)
CCOC(=O)NCSc1ccccc1 (optimized conformer: 14.64961943011274 kcal/mol)

>  <smiles>  (13) 
CCOC(=O)NCSc1ccccc1

>  <score_type>  (13) 
oracle

>  <origin>  (13) 
adg

>  <m_score__min__energy>  (13) 
-5.6900000000000004

>  <m_primary>  (13) 
energy

$$$$
13:0
     RDKit          3D

 40 42  0  0  1  0  0  0  0  0999 V2000
   57.3700   32.3390   40.8990 C   0  0  0  0  0  0  0  0  0  0  0  0
   57.0310   31.3130   41.9900 C   0  0  0  0  0  0  0  0  0  0  0  0
   57.4740   31.9560   43.2740 C   0  0  0  0  0  0  0  0  0  0  0  0
   58.2170   33.0730   43.3750 N   0  0  0  0  0  0  0  0  0  0  0  0
   58.3910   33.3370   44.6860 C   0  0  0  0  0  0  0  0  0  0  0  0
   59.0820   34.3880   45.2570 C   0  0  0  0  0  0  0  0  0  0  0  0
   59.1090   34.4350   46.6350 C   0  0  0  0  0  0  0  0  0  0  0  0
   58.4580   33.4510   47.3810 C   0  0  0  0  0  0  0  0  0  0  0  0
   57.7730   32.4120   46.7850 C   0  0  0  0  0  0  0  0  0  0  0  0
   57.7430   32.3610   45.4170 C   0  0  0  0  0  0  0  0  0  0  0  0
   57.1610   31.4830   44.5570 C   0  0  0  0  0  0  0  0  0  0  0  0
   56.3840   30.3140   44.7390 N   0  0  0  0  0  0  0  0  0  0  0  0
   56.8800   29.2530   45.2720 C   0  0  0  0  0  0  0  0  0  0  0  0
   58.1630   29.2010   45.8040 C   0  0  0  0  0  0  0  0  0  0  0  0
   58.5920   27.9980   46.3240 C   0  0  0  0  0  0  0  0  0  0  0  0
   59.8680   27.8120   46.9240 N   0  0  0  0  0  0  0  0  0  0  0  0
   60.6880   26.7410   46.3500 C   0  0  0  0  0  0  0  0  0  0  0  0
   57.7680   26.9110   46.3060 N   0  0  0  0  0  0  0  0  0  0  0  0
   56.5170   26.9810   45.7800 C   0  0  0  0  0  0  0  0  0  0  0  0
   55.6360   25.7550   45.7650 C   0  0  0  0  0  0  0  0  0  0  0  0
   56.1040   28.1570   45.2750 N   0  0  0  0  0  0  0  0  0  0  0  0
   57.6821   33.2836   41.3683 H   0  0  0  0  0  0  0  0  0  0  0  0
   58.1882   31.9524   40.2736 H   0  0  0  0  0  0  0  0  0  0  0  0
   56.4826   32.5159   40.2736 H   0  0  0  0  0  0  0  0  0  0  0  0
   55.9497   31.1122   42.0103 H   0  0  0  0  0  0  0  0  0  0  0  0
   57.5259   30.3458   41.8181 H   0  0  0  0  0  0  0  0  0  0  0  0
   58.5930   33.6380   42.5650 H   0  0  0  0  0  0  0  0  0  0  0  0
   59.5856   35.1494   44.6432 H   0  0  0  0  0  0  0  0  0  0  0  0
   59.6440   35.2486   47.1467 H   0  0  0  0  0  0  0  0  0  0  0  0
   58.4922   33.5056   48.4791 H   0  0  0  0  0  0  0  0  0  0  0  0
   57.2658   31.6470   47.3912 H   0  0  0  0  0  0  0  0  0  0  0  0
   58.8133   30.0882   45.8100 H   0  0  0  0  0  0  0  0  0  0  0  0
   60.2340   28.3680   47.7230 H   0  0  0  0  0  0  0  0  0  0  0  0
   61.1400   26.1507   47.1607 H   0  0  0  0  0  0  0  0  0  0  0  0
   60.0565   26.0883   45.7293 H   0  0  0  0  0  0  0  0  0  0  0  0
   61.4828   27.1803   45.7293 H   0  0  0  0  0  0  0  0  0  0  0  0
   55.4160   25.4489   46.7984 H   0  0  0  0  0  0  0  0  0  0  0  0
   54.6957   25.9855   45.2428 H   0  0  0  0  0  0  0  0  0  0  0  0
   56.1544   24.9373   45.2428 H   0  0  0  0  0  0  0  0  0  0  0  0
   55.1490   28.2070   44.8700 H   0  0  0  0  0  0  0  0  0  0  0  0
  1  2  1  0
  2  3  1  0
  3  4  1  0
  4  5  1  0
  5  6  2  0
  6  7  1  0
  7  8  2  0
  8  9  1  0
  9 10  2  0
 10 11  1  0
 11 12  1  0
 12 13  2  0
 13 14  1  0
 14 15  2  0
 15 16  1  0
 16 17  1  0
 15 18  1  0
 18 19  2  0
 19 20  1  0
 19 21  1  0
 11  3  2  0
 21 13  1  0
 10  5  1  0
  1 22  1  0
  1 23  1  0
  1 24  1  0
  2 25  1  0
  2 26  1  0
  4 27  1  0
  6 28  1  0
  7 29  1  0
  8 30  1  0
  9 31  1  0
 14 32  1  0
 16 33  1  0
 17 34  1  0
 17 35  1  0
 17 36  1  0
 20 37  1  0
 20 38  1  0
 20 39  1  0
 21 40  1  0
M  END
>  <smiles>  (14) 
CCc1[nH]c2ccccc2c1N=c1cc(NC)nc(C)[nH]1

>  <score_type>  (14) 
oracle

>  <origin>  (14) 
adg

>  <m_score__min__energy>  (14) 
-7.5700000000000003

>  <m_primary>  (14) 
energy

$$$$
14:0
     RDKit          3D

 48 50  0  0  0  0  0  0  0  0999 V2000
   60.5780   27.5040   48.4200 C   0  0  0  0  0  0  0  0  0  0  0  0
   59.5690   28.1010   47.4720 C   0  0  0  0  0  0  0  0  0  0  0  0
   58.7250   27.2510   46.7380 C   0  0  0  0  0  0  0  0  0  0  0  0
   57.7960   27.7760   45.8390 C   0  0  0  0  0  0  0  0  0  0  0  0
   57.6990   29.1600   45.6520 C   0  0  0  0  0  0  0  0  0  0  0  0
   56.5360   29.8200   44.5020 S   0  0  0  0  0  0  0  0  0  0  0  0
   56.8650   29.3400   43.1160 O   0  0  0  0  0  0  0  0  0  0  0  0
   55.1580   29.3330   44.8550 O   0  0  0  0  0  0  0  0  0  0  0  0
   56.5480   31.5580   44.5350 N   0  0  0  0  0  0  0  0  0  0  0  0
   57.8750   32.0570   44.1700 C   0  0  0  0  0  0  0  0  0  0  0  0
   57.9210   33.5750   44.3500 C   0  0  0  0  0  0  0  0  0  0  0  0
   57.7030   33.9440   45.7840 C   0  0  0  0  0  0  0  0  0  0  0  0
   56.6680   33.5320   46.3770 O   0  0  0  0  0  0  0  0  0  0  0  0
   58.6620   34.7870   46.4420 N   0  0  0  0  0  0  0  0  0  0  0  0
   59.7550   34.4240   47.0490 C   0  0  0  0  0  0  0  0  0  0  0  0
   60.8820   34.1240   46.3570 N   0  0  0  0  0  0  0  0  0  0  0  0
   61.8900   33.7770   47.1990 C   0  0  0  0  0  0  0  0  0  0  0  0
   63.1720   33.4170   46.7830 C   0  0  0  0  0  0  0  0  0  0  0  0
   64.1300   33.0820   47.7550 C   0  0  0  0  0  0  0  0  0  0  0  0
   63.7970   33.1000   49.1270 C   0  0  0  0  0  0  0  0  0  0  0  0
   65.0180   32.6640   50.3170 S   0  0  0  0  0  0  0  0  0  0  0  0
   64.8120   33.6280   51.7370 N   0  0  0  0  0  0  0  0  0  0  0  0
   64.8920   31.2120   50.6890 O   0  0  0  0  0  0  0  0  0  0  0  0
   66.3850   32.9060   49.7390 O   0  0  0  0  0  0  0  0  0  0  0  0
   62.4980   33.4680   49.5330 C   0  0  0  0  0  0  0  0  0  0  0  0
   61.5740   33.8030   48.5460 C   0  0  0  0  0  0  0  0  0  0  0  0
   59.9710   34.2710   48.7320 S   0  0  0  0  0  0  0  0  0  0  0  0
   58.5280   30.0170   46.3850 C   0  0  0  0  0  0  0  0  0  0  0  0
   59.4690   29.5030   47.2950 C   0  0  0  0  0  0  0  0  0  0  0  0
   60.3470   30.4540   48.0670 C   0  0  0  0  0  0  0  0  0  0  0  0
   60.2622   27.6909   49.4570 H   0  0  0  0  0  0  0  0  0  0  0  0
   60.6466   26.4198   48.2473 H   0  0  0  0  0  0  0  0  0  0  0  0
   61.5613   27.9658   48.2473 H   0  0  0  0  0  0  0  0  0  0  0  0
   58.7972   26.1617   46.8732 H   0  0  0  0  0  0  0  0  0  0  0  0
   57.1371   27.0996   45.2748 H   0  0  0  0  0  0  0  0  0  0  0  0
   56.3500   31.8440   45.5190 H   0  0  0  0  0  0  0  0  0  0  0  0
   58.6323   31.5889   44.8160 H   0  0  0  0  0  0  0  0  0  0  0  0
   58.0820   31.8079   43.1188 H   0  0  0  0  0  0  0  0  0  0  0  0
   58.9042   33.9474   44.0267 H   0  0  0  0  0  0  0  0  0  0  0  0
   57.1232   34.0277   43.7429 H   0  0  0  0  0  0  0  0  0  0  0  0
   63.4283   33.3958   45.7135 H   0  0  0  0  0  0  0  0  0  0  0  0
   65.1478   32.8034   47.4444 H   0  0  0  0  0  0  0  0  0  0  0  0
   65.4680   34.4360   51.6550 H   0  0  0  0  0  0  0  0  0  0  0  0
   62.2224   33.4899   50.5977 H   0  0  0  0  0  0  0  0  0  0  0  0
   58.4425   31.1050   46.2477 H   0  0  0  0  0  0  0  0  0  0  0  0
   60.2002   30.2950   49.1455 H   0  0  0  0  0  0  0  0  0  0  0  0
   61.4007   30.2713   47.8095 H   0  0  0  0  0  0  0  0  0  0  0  0
   60.0809   31.4898   47.8095 H   0  0  0  0  0  0  0  0  0  0  0  0
  1  2  1  0
  2  3  2  0
  3  4  1  0
  4  5  2  0
  5  6  1  0
  6  7  2  0
  6  8  2  0
  6  9  1  0
  9 10  1  0
 10 11  1  0
 11 12  1  0
 12 13  2  0
 12 14  1  0
 14 15  2  3
 15 16  1  0
 16 17  1  0
 17 18  2  0
 18 19  1  0
 19 20  2  0
 20 21  1  0
 21 22  1  0
 21 23  2  0
 21 24  2  0
 20 25  1  0
 25 26  2  0
 26 27  1  0
  5 28  1  0
 28 29  2  0
 29 30  1  0
 29  2  1  0
 27 15  1  0
 26 17  1  0
  1 31  1  0
  1 32  1  0
  1 33  1  0
  3 34  1  0
  4 35  1  0
  9 36  1  0
 10 37  1  0
 10 38  1  0
 11 39  1  0
 11 40  1  0
 18 41  1  0
 19 42  1  0
 22 43  1  0
 25 44  1  0
 28 45  1  0
 30 46  1  0
 30 47  1  0
 30 48  1  0
M  CHG  2  16  -1  22  -1
M  END
>  <UniqueID>  (15) 
13

>  <SMILES>  (15) 
Cc1ccc(S(=O)(=O)NCCC(=O)N=c2[n-]c3ccc(S([NH-])(=O)=O)cc3s2)cc1C

>  <Energy>  (15) 
81.96586924584045

>  <Genealogy>  (15) 
Cc1ccc(S(=O)(=O)NCCC(=O)N=c2[n-]c3ccc(S([NH-])(=O)=O)cc3s2)cc1C (protonated)
Cc1ccc(S(=O)(=O)NCCC(=O)N=c2[n-]c3ccc(S([NH-])(=O)=O)cc3s2)cc1C (3D coordinates assigned)
Cc1ccc(S(=O)(=O)NCCC(=O)N=c2[n-]c3ccc(S([NH-])(=O)=O)cc3s2)cc1C (optimized conformer: 81.96586924584045 kcal/mol)

>  <smiles>  (15) 
Cc1ccc(S(=O)(=O)NCCC(=O)N=c2[nH]c3ccc(S(N)(=O)=O)cc3s2)cc1C

>  <score_type>  (15) 
oracle

>  <origin>  (15) 
adg

>  <m_score__min__energy>  (15) 
-12.76

>  <m_primary>  (15) 
energy

$$$$
15:0
     RDKit          3D

 43 44  0  0  0  0  0  0  0  0999 V2000
   59.1470   26.3160   46.8450 H   0  0  0  0  0  0  0  0  0  0  0  0
   59.2290   26.8680   46.0010 O   0  0  0  0  0  0  0  0  0  0  0  0
   58.2190   27.7210   45.5400 C   0  0  0  0  0  0  0  0  0  0  0  0
   56.8600   27.3810   45.6830 C   0  0  0  0  0  0  0  0  0  0  0  0
   56.4310   26.0930   46.3180 C   0  0  0  0  0  0  0  0  0  0  0  0
   56.4649   26.1948   47.4128 H   0  0  0  0  0  0  0  0  0  0  0  0
   55.4045   25.8533   46.0037 H   0  0  0  0  0  0  0  0  0  0  0  0
   57.1087   25.2856   46.0037 H   0  0  0  0  0  0  0  0  0  0  0  0
   55.9030   28.2400   45.2470 N   0  0  0  0  0  0  0  0  0  0  0  0
   56.1980   29.4350   44.6780 C   0  0  0  0  0  0  0  0  0  0  0  0
   55.2550   30.1810   44.2990 O   0  0  0  0  0  0  0  0  0  0  0  0
   57.5400   29.8350   44.5190 C   0  0  0  0  0  0  0  0  0  0  0  0
   57.8540   31.1760   43.8810 C   0  0  0  0  0  0  0  0  0  0  0  0
   58.9295   31.2248   43.6553 H   0  0  0  0  0  0  0  0  0  0  0  0
   57.2638   31.2736   42.9579 H   0  0  0  0  0  0  0  0  0  0  0  0
   57.4920   32.3080   44.8070 C   0  0  0  0  0  0  0  0  0  0  0  0
   56.2910   32.4560   45.1580 O   0  0  0  0  0  0  0  0  0  0  0  0
   58.4620   33.2760   45.2370 N   0  0  0  0  0  0  0  0  0  0  0  0
   59.1680   33.2580   46.3320 C   0  0  0  0  0  0  0  0  0  0  0  0
   59.4804   34.2223   46.7592 H   0  0  0  0  0  0  0  0  0  0  0  0
   59.5760   32.0240   47.0370 C   0  0  0  0  0  0  0  0  0  0  0  0
   58.5930   31.1780   47.5670 C   0  0  0  0  0  0  0  0  0  0  0  0
   57.5304   31.4434   47.4646 H   0  0  0  0  0  0  0  0  0  0  0  0
   58.9540   29.9990   48.2250 C   0  0  0  0  0  0  0  0  0  0  0  0
   58.1746   29.3556   48.6593 H   0  0  0  0  0  0  0  0  0  0  0  0
   60.3070   29.6290   48.3360 C   0  0  0  0  0  0  0  0  0  0  0  0
   60.7190   28.3530   49.0560 C   0  0  0  0  0  0  0  0  0  0  0  0
   61.8142   28.2841   48.9799 H   0  0  0  0  0  0  0  0  0  0  0  0
   60.3500   28.3970   50.4720 N   0  0  0  0  0  0  0  0  0  0  0  0
   60.8770   29.1770   50.9270 H   0  0  0  0  0  0  0  0  0  0  0  0
   59.3320   28.6110   50.5680 H   0  0  0  0  0  0  0  0  0  0  0  0
   60.1370   27.1660   48.4260 N   0  0  0  0  0  0  0  0  0  0  0  0
   60.7140   26.9110   47.5920 H   0  0  0  0  0  0  0  0  0  0  0  0
   59.1700   27.3750   48.0890 H   0  0  0  0  0  0  0  0  0  0  0  0
   61.2870   30.4620   47.7690 C   0  0  0  0  0  0  0  0  0  0  0  0
   62.3482   30.1811   47.8387 H   0  0  0  0  0  0  0  0  0  0  0  0
   60.9250   31.6430   47.1180 C   0  0  0  0  0  0  0  0  0  0  0  0
   61.7009   32.2784   46.6661 H   0  0  0  0  0  0  0  0  0  0  0  0
   58.5670   28.9430   44.9280 C   0  0  0  0  0  0  0  0  0  0  0  0
   60.0240   29.3130   44.7720 C   0  0  0  0  0  0  0  0  0  0  0  0
   60.4812   29.4291   45.7657 H   0  0  0  0  0  0  0  0  0  0  0  0
   60.5467   28.5191   44.2184 H   0  0  0  0  0  0  0  0  0  0  0  0
   60.1045   30.2601   44.2184 H   0  0  0  0  0  0  0  0  0  0  0  0
  1  2  1  0
  2  3  1  0
  3  4  2  0
  4  5  1  0
  5  6  1  0
  5  7  1  0
  5  8  1  0
  4  9  1  0
  9 10  1  0
 10 11  2  0
 10 12  1  0
 12 13  1  0
 13 14  1  0
 13 15  1  0
 13 16  1  0
 16 17  2  0
 16 18  1  0
 18 19  2  0
 19 20  1  0
 19 21  1  0
 21 22  2  0
 22 23  1  0
 22 24  1  0
 24 25  1  0
 24 26  2  0
 26 27  1  0
 27 28  1  0
 27 29  1  0
 29 30  1  0
 29 31  1  0
 27 32  1  0
 32 33  1  0
 32 34  1  0
 26 35  1  0
 35 36  1  0
 35 37  2  0
 37 38  1  0
 12 39  2  0
 39 40  1  0
 40 41  1  0
 40 42  1  0
 40 43  1  0
 39  3  1  0
 37 21  1  0
M  CHG  1   9  -1
M  END
>  <UniqueID>  (16) 
14

>  <SMILES>  (16) 
Cc1[n-]c(=O)c(CC(=O)/N=C\c2ccc(C(N)N)cc2)c(C)c1O

>  <Energy>  (16) 
56.874379799629864

>  <Genealogy>  (16) 
Cc1[n-]c(=O)c(CC(=O)N=Cc2ccc(C(N)N)cc2)c(C)c1O (protonated)
Cc1[n-]c(=O)c(CC(=O)/N=C\c2ccc(C(N)N)cc2)c(C)c1O (cis-trans isomerization)
Cc1[n-]c(=O)c(CC(=O)/N=C\c2ccc(C(N)N)cc2)c(C)c1O (3D coordinates assigned)
Cc1[n-]c(=O)c(CC(=O)/N=C\c2ccc(C(N)N)cc2)c(C)c1O (optimized conformer: 56.874379799629864 kcal/mol)

>  <smiles>  (16) 
Cc1[nH]c(=O)c(CC(=O)N=Cc2ccc(C(N)N)cc2)c(C)c1O

>  <score_type>  (16) 
oracle

>  <origin>  (16) 
adg

>  <m_score__min__energy>  (16) 
-7.4699999999999998

>  <m_primary>  (16) 
energy

$$$$
16:0
     RDKit          3D

 31 32  0  0  0  0  0  0  0  0999 V2000
   54.7820   26.3420   46.0040 N   0  0  0  0  0  0  0  0  0  0  0  0
   56.0400   25.1770   46.2120 S   0  0  0  0  0  0  0  0  0  0  0  0
   55.8490   24.4640   47.5220 O   0  0  0  0  0  0  0  0  0  0  0  0
   55.9810   24.1660   45.1010 O   0  0  0  0  0  0  0  0  0  0  0  0
   57.6030   25.9900   46.1940 C   0  0  0  0  0  0  0  0  0  0  0  0
   58.7820   25.2510   46.0370 C   0  0  0  0  0  0  0  0  0  0  0  0
   60.0180   25.8990   46.0330 C   0  0  0  0  0  0  0  0  0  0  0  0
   60.0870   27.2850   46.1950 C   0  0  0  0  0  0  0  0  0  0  0  0
   58.9120   28.0400   46.3730 C   0  0  0  0  0  0  0  0  0  0  0  0
   58.9450   29.4690   46.5520 N   0  0  0  0  0  0  0  0  0  0  0  0
   57.7780   30.3450   46.4380 C   0  0  0  0  0  0  0  0  0  0  0  0
   57.3960   30.5430   44.9930 C   0  0  0  0  0  0  0  0  0  0  0  0
   58.1860   31.3560   44.1590 C   0  0  0  0  0  0  0  0  0  0  0  0
   57.8340   31.5470   42.8200 C   0  0  0  0  0  0  0  0  0  0  0  0
   56.6990   30.9250   42.2970 C   0  0  0  0  0  0  0  0  0  0  0  0
   55.9140   30.1050   43.1120 C   0  0  0  0  0  0  0  0  0  0  0  0
   56.2580   29.9080   44.4530 C   0  0  0  0  0  0  0  0  0  0  0  0
   55.4680   29.0810   45.2450 O   0  0  0  0  0  0  0  0  0  0  0  0
   57.6720   27.3790   46.3640 C   0  0  0  0  0  0  0  0  0  0  0  0
   55.1480   27.0730   45.3540 H   0  0  0  0  0  0  0  0  0  0  0  0
   58.7339   24.1587   45.9167 H   0  0  0  0  0  0  0  0  0  0  0  0
   60.9416   25.3162   45.9018 H   0  0  0  0  0  0  0  0  0  0  0  0
   61.0646   27.7891   46.1834 H   0  0  0  0  0  0  0  0  0  0  0  0
   59.8700   29.9270   46.7160 H   0  0  0  0  0  0  0  0  0  0  0  0
   56.9325   29.8910   46.9756 H   0  0  0  0  0  0  0  0  0  0  0  0
   58.0279   31.3236   46.8738 H   0  0  0  0  0  0  0  0  0  0  0  0
   59.0853   31.8437   44.5632 H   0  0  0  0  0  0  0  0  0  0  0  0
   58.4531   32.1893   42.1764 H   0  0  0  0  0  0  0  0  0  0  0  0
   56.4226   31.0803   41.2437 H   0  0  0  0  0  0  0  0  0  0  0  0
   55.0221   29.6126   42.6971 H   0  0  0  0  0  0  0  0  0  0  0  0
   56.7456   27.9583   46.4918 H   0  0  0  0  0  0  0  0  0  0  0  0
  1  2  1  0
  2  3  2  0
  2  4  2  0
  2  5  1  0
  5  6  2  0
  6  7  1  0
  7  8  2  0
  8  9  1  0
  9 10  1  0
 10 11  1  0
 11 12  1  0
 12 13  2  0
 13 14  1  0
 14 15  2  0
 15 16  1  0
 16 17  2  0
 17 18  1  0
  9 19  2  0
 19  5  1  0
 17 12  1  0
  1 20  1  0
  6 21  1  0
  7 22  1  0
  8 23  1  0
 10 24  1  0
 11 25  1  0
 11 26  1  0
 13 27  1  0
 14 28  1  0
 15 29  1  0
 16 30  1  0
 19 31  1  0
M  CHG  2   1  -1  18  -1
M  END
>  <UniqueID>  (17) 
15

>  <SMILES>  (17) 
[NH-]S(=O)(=O)c1cccc(NCc2ccccc2[O-])c1

>  <Energy>  (17) 
31.263945144472434

>  <Genealogy>  (17) 
[NH-]S(=O)(=O)c1cccc(NCc2ccccc2[O-])c1 (protonated)
[NH-]S(=O)(=O)c1cccc(NCc2ccccc2[O-])c1 (3D coordinates assigned)
[NH-]S(=O)(=O)c1cccc(NCc2ccccc2[O-])c1 (optimized conformer: 31.263945144472434 kcal/mol)

>  <smiles>  (17) 
NS(=O)(=O)c1cccc(NCc2ccccc2O)c1

>  <score_type>  (17) 
oracle

>  <origin>  (17) 
adg

>  <m_score__min__energy>  (17) 
-13.220000000000001

>  <m_primary>  (17) 
energy

$$$$
17:0
     RDKit          3D

 51 53  0  0  0  0  0  0  0  0999 V2000
   59.8480   26.9020   46.7170 C   0  0  0  0  0  0  0  0  0  0  0  0
   59.0820   28.1460   46.3640 C   0  0  0  0  0  0  0  0  0  0  0  0
   59.5080   29.3740   46.8870 C   0  0  0  0  0  0  0  0  0  0  0  0
   58.8600   30.5610   46.5420 C   0  0  0  0  0  0  0  0  0  0  0  0
   57.7670   30.5450   45.6580 C   0  0  0  0  0  0  0  0  0  0  0  0
   57.0790   31.7490   45.2690 N   0  0  0  0  0  0  0  0  0  0  0  0
   57.8670   33.2610   44.9450 S   0  0  0  0  0  0  0  0  0  0  0  0
   56.8280   34.3450   44.8330 O   0  0  0  0  0  0  0  0  0  0  0  0
   58.6070   33.1630   43.6400 O   0  0  0  0  0  0  0  0  0  0  0  0
   59.0230   33.6230   46.2220 C   0  0  0  0  0  0  0  0  0  0  0  0
   58.5630   34.0370   47.4740 C   0  0  0  0  0  0  0  0  0  0  0  0
   59.4680   34.3060   48.5020 C   0  0  0  0  0  0  0  0  0  0  0  0
   60.8500   34.1680   48.2930 C   0  0  0  0  0  0  0  0  0  0  0  0
   61.7950   34.4770   49.4250 C   0  0  0  0  0  0  0  0  0  0  0  0
   61.3210   33.7370   47.0290 C   0  0  0  0  0  0  0  0  0  0  0  0
   62.7610   33.5250   46.7540 C   0  0  0  0  0  0  0  0  0  0  0  0
   63.4140   34.4030   46.1280 O   0  0  0  0  0  0  0  0  0  0  0  0
   63.4570   32.3780   47.2620 N   0  0  0  0  0  0  0  0  0  0  0  0
   63.7790   32.1450   48.6400 C   0  0  0  0  0  0  0  0  0  0  0  0
   63.0180   31.2740   49.4380 C   0  0  0  0  0  0  0  0  0  0  0  0
   63.3840   31.0330   50.7640 C   0  0  0  0  0  0  0  0  0  0  0  0
   64.5160   31.6570   51.3090 C   0  0  0  0  0  0  0  0  0  0  0  0
   64.9550   31.3170   52.9790 Cl  0  0  0  0  0  0  0  0  0  0  0  0
   65.2870   32.5220   50.5130 C   0  0  0  0  0  0  0  0  0  0  0  0
   66.7250   33.3140   51.1520 Cl  0  0  0  0  0  0  0  0  0  0  0  0
   64.9220   32.7540   49.1810 C   0  0  0  0  0  0  0  0  0  0  0  0
   60.3980   33.4770   46.0010 C   0  0  0  0  0  0  0  0  0  0  0  0
   57.3220   29.3140   45.1530 C   0  0  0  0  0  0  0  0  0  0  0  0
   57.9480   28.1140   45.5190 C   0  0  0  0  0  0  0  0  0  0  0  0
   57.4100   26.8870   45.0100 N   0  0  0  0  0  0  0  0  0  0  0  0
   56.4650   25.8000   45.9760 S   0  0  0  0  0  0  0  0  0  0  0  0
   54.8150   26.3230   46.0070 N   0  0  0  0  0  0  0  0  0  0  0  0
   56.5310   24.4240   45.3770 O   0  0  0  0  0  0  0  0  0  0  0  0
   57.0060   25.7630   47.3770 O   0  0  0  0  0  0  0  0  0  0  0  0
   59.9072   26.8059   47.8112 H   0  0  0  0  0  0  0  0  0  0  0  0
   59.3339   26.0239   46.2991 H   0  0  0  0  0  0  0  0  0  0  0  0
   60.8635   26.9657   46.2991 H   0  0  0  0  0  0  0  0  0  0  0  0
   60.3635   29.4029   47.5779 H   0  0  0  0  0  0  0  0  0  0  0  0
   59.2068   31.5155   46.9646 H   0  0  0  0  0  0  0  0  0  0  0  0
   56.0400   31.7320   45.1750 H   0  0  0  0  0  0  0  0  0  0  0  0
   57.4833   34.1515   47.6506 H   0  0  0  0  0  0  0  0  0  0  0  0
   59.0953   34.6292   49.4852 H   0  0  0  0  0  0  0  0  0  0  0  0
   61.2844   34.3100   50.3849 H   0  0  0  0  0  0  0  0  0  0  0  0
   62.6744   33.8196   49.3583 H   0  0  0  0  0  0  0  0  0  0  0  0
   62.1162   35.5270   49.3583 H   0  0  0  0  0  0  0  0  0  0  0  0
   62.1302   30.7799   49.0164 H   0  0  0  0  0  0  0  0  0  0  0  0
   62.7824   30.3514   51.3833 H   0  0  0  0  0  0  0  0  0  0  0  0
   65.5354   33.4182   48.5544 H   0  0  0  0  0  0  0  0  0  0  0  0
   60.7596   33.1556   45.0131 H   0  0  0  0  0  0  0  0  0  0  0  0
   56.4688   29.2899   44.4592 H   0  0  0  0  0  0  0  0  0  0  0  0
   54.7530   27.0920   46.7100 H   0  0  0  0  0  0  0  0  0  0  0  0
  1  2  1  0
  2  3  2  0
  3  4  1  0
  4  5  2  0
  5  6  1  0
  6  7  1  0
  7  8  2  0
  7  9  2  0
  7 10  1  0
 10 11  2  0
 11 12  1  0
 12 13  2  0
 13 14  1  0
 13 15  1  0
 15 16  1  0
 16 17  2  0
 16 18  1  0
 18 19  1  0
 19 20  2  0
 20 21  1  0
 21 22  2  0
 22 23  1  0
 22 24  1  0
 24 25  1  0
 24 26  2  0
 15 27  2  0
  5 28  1  0
 28 29  2  0
 29 30  1  0
 30 31  1  0
 31 32  1  0
 31 33  2  0
 31 34  2  0
 29  2  1  0
 27 10  1  0
 26 19  1  0
  1 35  1  0
  1 36  1  0
  1 37  1  0
  3 38  1  0
  4 39  1  0
  6 40  1  0
 11 41  1  0
 12 42  1  0
 14 43  1  0
 14 44  1  0
 14 45  1  0
 20 46  1  0
 21 47  1  0
 26 48  1  0
 27 49  1  0
 28 50  1  0
 32 51  1  0
M  CHG  3  18  -1  30  -1  32  -1
M  END
>  <UniqueID>  (18) 
16

>  <SMILES>  (18) 
Cc1ccc(NS(=O)(=O)c2ccc(C)c(C(=O)[N-]c3ccc(Cl)c(Cl)c3)c2)cc1[N-]S([NH-])(=O)=O

>  <Energy>  (18) 
69.8643027081694

>  <Genealogy>  (18) 
Cc1ccc(NS(=O)(=O)c2ccc(C)c(C(=O)[N-]c3ccc(Cl)c(Cl)c3)c2)cc1[N-]S([NH-])(=O)=O (protonated)
Cc1ccc(NS(=O)(=O)c2ccc(C)c(C(=O)[N-]c3ccc(Cl)c(Cl)c3)c2)cc1[N-]S([NH-])(=O)=O (3D coordinates assigned)
Cc1ccc(NS(=O)(=O)c2ccc(C)c(C(=O)[N-]c3ccc(Cl)c(Cl)c3)c2)cc1[N-]S([NH-])(=O)=O (optimized conformer: 69.8643027081694 kcal/mol)

>  <smiles>  (18) 
Cc1ccc(NS(=O)(=O)c2ccc(C)c(C(=O)Nc3ccc(Cl)c(Cl)c3)c2)cc1NS(N)(=O)=O

>  <score_type>  (18) 
oracle

>  <origin>  (18) 
adg

>  <m_score__min__energy>  (18) 
-17.16

>  <m_primary>  (18) 
energy

$$$$
18:0
     RDKit          3D

 45 47  0  0  0  0  0  0  0  0999 V2000
   57.6070   22.4380   44.1340 C   0  0  0  0  0  0  0  0  0  0  0  0
   57.5220   23.6860   44.9630 C   0  0  0  0  0  0  0  0  0  0  0  0
   56.2810   24.2990   45.1940 C   0  0  0  0  0  0  0  0  0  0  0  0
   56.1980   25.4330   46.0060 C   0  0  0  0  0  0  0  0  0  0  0  0
   57.3500   25.9590   46.5970 C   0  0  0  0  0  0  0  0  0  0  0  0
   58.5950   25.3600   46.3760 C   0  0  0  0  0  0  0  0  0  0  0  0
   59.7250   25.9050   47.0030 O   0  0  0  0  0  0  0  0  0  0  0  0
   59.9270   27.2670   47.2740 C   0  0  0  0  0  0  0  0  0  0  0  0
   59.7350   27.8070   48.5570 C   0  0  0  0  0  0  0  0  0  0  0  0
   59.9600   29.1660   48.7890 C   0  0  0  0  0  0  0  0  0  0  0  0
   60.3940   30.0070   47.7530 C   0  0  0  0  0  0  0  0  0  0  0  0
   60.6230   31.4000   48.0300 N   0  0  0  0  0  0  0  0  0  0  0  0
   59.4470   32.6510   47.7690 S   0  0  0  0  0  0  0  0  0  0  0  0
   58.4420   32.6200   48.8860 O   0  0  0  0  0  0  0  0  0  0  0  0
   60.1380   33.9840   47.7660 O   0  0  0  0  0  0  0  0  0  0  0  0
   58.6470   32.4260   46.2160 C   0  0  0  0  0  0  0  0  0  0  0  0
   58.5360   33.4970   45.3200 C   0  0  0  0  0  0  0  0  0  0  0  0
   57.8880   33.3220   44.0950 C   0  0  0  0  0  0  0  0  0  0  0  0
   57.3480   32.0780   43.7560 C   0  0  0  0  0  0  0  0  0  0  0  0
   57.4620   30.9980   44.6440 C   0  0  0  0  0  0  0  0  0  0  0  0
   56.7710   29.4290   44.2490 S   0  0  0  0  0  0  0  0  0  0  0  0
   55.1560   29.3500   44.8630 N   0  0  0  0  0  0  0  0  0  0  0  0
   57.6040   28.3440   44.8720 O   0  0  0  0  0  0  0  0  0  0  0  0
   56.7430   29.2290   42.7600 O   0  0  0  0  0  0  0  0  0  0  0  0
   58.1170   31.1750   45.8690 C   0  0  0  0  0  0  0  0  0  0  0  0
   60.5990   29.4580   46.4730 C   0  0  0  0  0  0  0  0  0  0  0  0
   60.3750   28.0980   46.2420 C   0  0  0  0  0  0  0  0  0  0  0  0
   58.6730   24.2060   45.5740 C   0  0  0  0  0  0  0  0  0  0  0  0
   57.6667   21.5615   44.7959 H   0  0  0  0  0  0  0  0  0  0  0  0
   56.7122   22.3578   43.4992 H   0  0  0  0  0  0  0  0  0  0  0  0
   58.5044   22.4799   43.4992 H   0  0  0  0  0  0  0  0  0  0  0  0
   55.3711   23.8856   44.7345 H   0  0  0  0  0  0  0  0  0  0  0  0
   55.2237   25.9129   46.1805 H   0  0  0  0  0  0  0  0  0  0  0  0
   57.2775   26.8489   47.2395 H   0  0  0  0  0  0  0  0  0  0  0  0
   59.4064   27.1573   49.3815 H   0  0  0  0  0  0  0  0  0  0  0  0
   59.7952   29.5812   49.7942 H   0  0  0  0  0  0  0  0  0  0  0  0
   61.5740   31.7050   48.3390 H   0  0  0  0  0  0  0  0  0  0  0  0
   58.9599   34.4777   45.5816 H   0  0  0  0  0  0  0  0  0  0  0  0
   57.8023   34.1660   43.3947 H   0  0  0  0  0  0  0  0  0  0  0  0
   56.8336   31.9459   42.7927 H   0  0  0  0  0  0  0  0  0  0  0  0
   55.1530   28.6370   45.6270 H   0  0  0  0  0  0  0  0  0  0  0  0
   58.2164   30.3276   46.5632 H   0  0  0  0  0  0  0  0  0  0  0  0
   60.9377   30.1036   45.6493 H   0  0  0  0  0  0  0  0  0  0  0  0
   60.5524   27.6779   45.2410 H   0  0  0  0  0  0  0  0  0  0  0  0
   59.6427   23.7085   45.4253 H   0  0  0  0  0  0  0  0  0  0  0  0
  1  2  1  0
  2  3  2  0
  3  4  1  0
  4  5  2  0
  5  6  1  0
  6  7  1  0
  7  8  1  0
  8  9  2  0
  9 10  1  0
 10 11  2  0
 11 12  1  0
 12 13  1  0
 13 14  2  0
 13 15  2  0
 13 16  1  0
 16 17  2  0
 17 18  1  0
 18 19  2  0
 19 20  1  0
 20 21  1  0
 21 22  1  0
 21 23  2  0
 21 24  2  0
 20 25  2  0
 11 26  1  0
 26 27  2  0
  6 28  2  0
 28  2  1  0
 27  8  1  0
 25 16  1  0
  1 29  1  0
  1 30  1  0
  1 31  1  0
  3 32  1  0
  4 33  1  0
  5 34  1  0
  9 35  1  0
 10 36  1  0
 12 37  1  0
 17 38  1  0
 18 39  1  0
 19 40  1  0
 22 41  1  0
 25 42  1  0
 26 43  1  0
 27 44  1  0
 28 45  1  0
M  CHG  1  22  -1
M  END
>  <UniqueID>  (19) 
17

>  <SMILES>  (19) 
Cc1cccc(Oc2ccc(NS(=O)(=O)c3cccc(S([NH-])(=O)=O)c3)cc2)c1

>  <Energy>  (19) 
55.21634053623696

>  <Genealogy>  (19) 
Cc1cccc(Oc2ccc(NS(=O)(=O)c3cccc(S([NH-])(=O)=O)c3)cc2)c1 (protonated)
Cc1cccc(Oc2ccc(NS(=O)(=O)c3cccc(S([NH-])(=O)=O)c3)cc2)c1 (3D coordinates assigned)
Cc1cccc(Oc2ccc(NS(=O)(=O)c3cccc(S([NH-])(=O)=O)c3)cc2)c1 (optimized conformer: 55.21634053623696 kcal/mol)

>  <smiles>  (19) 
Cc1cccc(Oc2ccc(NS(=O)(=O)c3cccc(S(N)(=O)=O)c3)cc2)c1

>  <score_type>  (19) 
oracle

>  <origin>  (19) 
adg

>  <m_score__min__energy>  (19) 
-12.82

>  <m_primary>  (19) 
energy

$$$$
19:0
     RDKit          3D

 44 46  0  0  0  0  0  0  0  0999 V2000
   59.0362   35.3647   45.4753 H   0  0  0  0  0  0  0  0  0  0  0  0
   58.9770   34.5880   46.2520 C   0  0  0  0  0  0  0  0  0  0  0  0
   58.2190   33.4360   46.0300 C   0  0  0  0  0  0  0  0  0  0  0  0
   57.6855   33.3040   45.0771 H   0  0  0  0  0  0  0  0  0  0  0  0
   58.1380   32.4500   47.0190 C   0  0  0  0  0  0  0  0  0  0  0  0
   57.5474   31.5398   46.8382 H   0  0  0  0  0  0  0  0  0  0  0  0
   58.8080   32.6180   48.2420 C   0  0  0  0  0  0  0  0  0  0  0  0
   58.7530   31.5440   49.2890 C   0  0  0  0  0  0  0  0  0  0  0  0
   59.7729   31.3080   49.6268 H   0  0  0  0  0  0  0  0  0  0  0  0
   58.2902   30.6406   48.8652 H   0  0  0  0  0  0  0  0  0  0  0  0
   58.0100   28.7170   53.6400 N   0  0  0  0  0  0  0  0  0  0  0  0
   57.3450   29.5430   52.8920 C   0  0  0  0  0  0  0  0  0  0  0  0
   55.9800   31.2840   51.3170 N   0  0  0  0  0  0  0  0  0  0  0  0
   55.2970   30.4740   52.1700 C   0  0  0  0  0  0  0  0  0  0  0  0
   53.8170   30.5380   52.2450 C   0  0  0  0  0  0  0  0  0  0  0  0
   53.0890   29.5350   52.9140 C   0  0  0  0  0  0  0  0  0  0  0  0
   53.6221   28.6965   53.3859 H   0  0  0  0  0  0  0  0  0  0  0  0
   51.6930   29.5970   52.9830 C   0  0  0  0  0  0  0  0  0  0  0  0
   51.1340   28.8076   53.5067 H   0  0  0  0  0  0  0  0  0  0  0  0
   51.0080   30.6580   52.3890 C   0  0  0  0  0  0  0  0  0  0  0  0
   49.9105   30.7046   52.4460 H   0  0  0  0  0  0  0  0  0  0  0  0
   51.7160   31.6610   51.7220 C   0  0  0  0  0  0  0  0  0  0  0  0
   51.0340   32.7160   51.1300 O   0  0  0  0  0  0  0  0  0  0  0  0
   53.1130   31.6030   51.6490 C   0  0  0  0  0  0  0  0  0  0  0  0
   53.6653   32.3951   51.1222 H   0  0  0  0  0  0  0  0  0  0  0  0
   55.9870   29.6060   52.9560 N   0  0  0  0  0  0  0  0  0  0  0  0
   57.3330   31.2290   51.2460 C   0  0  0  0  0  0  0  0  0  0  0  0
   57.9600   32.0130   50.4230 N   0  0  0  0  0  0  0  0  0  0  0  0
   58.9780   27.7490   53.1290 C   0  0  0  0  0  0  0  0  0  0  0  0
   58.5943   27.3041   52.1990 H   0  0  0  0  0  0  0  0  0  0  0  0
   59.1345   26.9595   53.8788 H   0  0  0  0  0  0  0  0  0  0  0  0
   60.3050   28.4490   52.8470 C   0  0  0  0  0  0  0  0  0  0  0  0
   61.0029   28.2514   53.6740 H   0  0  0  0  0  0  0  0  0  0  0  0
   60.1276   29.5307   52.7554 H   0  0  0  0  0  0  0  0  0  0  0  0
   60.8640   27.9690   51.6390 O   0  0  0  0  0  0  0  0  0  0  0  0
   60.3800   28.7130   50.5410 C   0  0  0  0  0  0  0  0  0  0  0  0
   59.8145   29.5823   50.9078 H   0  0  0  0  0  0  0  0  0  0  0  0
   61.2271   29.0579   49.9299 H   0  0  0  0  0  0  0  0  0  0  0  0
   59.7213   28.0784   49.9299 H   0  0  0  0  0  0  0  0  0  0  0  0
   58.0120   30.3560   52.0370 N   0  0  0  0  0  0  0  0  0  0  0  0
   59.5820   33.7720   48.4500 C   0  0  0  0  0  0  0  0  0  0  0  0
   60.1284   33.9025   49.3957 H   0  0  0  0  0  0  0  0  0  0  0  0
   59.6600   34.7550   47.4590 C   0  0  0  0  0  0  0  0  0  0  0  0
   60.2599   35.6610   47.6299 H   0  0  0  0  0  0  0  0  0  0  0  0
  1  2  1  0
  2  3  2  0
  3  4  1  0
  3  5  1  0
  5  6  1  0
  5  7  2  0
  7  8  1  0
  8  9  1  0
  8 10  1  0
  8 11  1  0
 11 12  2  0
 12 13  1  0
 13 14  1  0
 14 15  1  0
 15 16  2  0
 16 17  1  0
 16 18  1  0
 18 19  1  0
 18 20  2  0
 20 21  1  0
 20 22  1  0
 22 23  1  0
 22 24  2  0
 24 25  1  0
 14 26  2  0
 26 27  1  0
 27 28  2  0
 28 29  1  0
 29 30  1  0
 29 31  1  0
 29 32  1  0
 32 33  1  0
 32 34  1  0
 32 35  1  0
 35 36  1  0
 36 37  1  0
 36 38  1  0
 36 39  1  0
 27 40  1  0
  7 41  1  0
 41 42  1  0
 41 43  2  0
 43 44  1  0
 43  2  1  0
 40 12  1  0
 24 15  1  0
M  CHG  3  13  -1  23  -1  40  -1
M  END
>  <UniqueID>  (20) 
18

>  <SMILES>  (20) 
COCC/N=c1\nc(-c2cccc([O-])c2)[n-]/c(=N/Cc2ccccc2)[n-]1

>  <Energy>  (20) 
45.84760227568647

>  <Genealogy>  (20) 
COCCN=c1nc(-c2cccc([O-])c2)[n-]c(=NCc2ccccc2)[n-]1 (protonated)
COCC/N=c1\nc(-c2cccc([O-])c2)[n-]/c(=N/Cc2ccccc2)[n-]1 (cis-trans isomerization)
COCC/N=c1\nc(-c2cccc([O-])c2)[n-]/c(=N/Cc2ccccc2)[n-]1 (3D coordinates assigned)
COCC/N=c1\nc(-c2cccc([O-])c2)[n-]/c(=N/Cc2ccccc2)[n-]1 (optimized conformer: 45.84760227568647 kcal/mol)

>  <smiles>  (20) 
COCCN=c1nc(-c2cccc(O)c2)[nH]c(=NCc2ccccc2)[nH]1

>  <score_type>  (20) 
oracle

>  <origin>  (20) 
adg

>  <m_score__min__energy>  (20) 
-12.26

>  <m_primary>  (20) 
energy

$$$$
20:0
     RDKit          3D

 36 38  0  0  0  0  0  0  0  0999 V2000
   56.0272   30.4960   42.7286 H   0  0  0  0  0  0  0  0  0  0  0  0
   56.5010   30.3840   43.7150 C   0  0  0  0  0  0  0  0  0  0  0  0
   56.6290   31.4140   44.4920 N   0  0  0  0  0  0  0  0  0  0  0  0
   57.7700   31.6920   45.3180 C   0  0  0  0  0  0  0  0  0  0  0  0
   58.1740   32.9550   45.6110 N   0  0  0  0  0  0  0  0  0  0  0  0
   57.5780   34.2110   45.1620 C   0  0  0  0  0  0  0  0  0  0  0  0
   57.2918   34.8142   46.0362 H   0  0  0  0  0  0  0  0  0  0  0  0
   58.3082   34.7673   44.5559 H   0  0  0  0  0  0  0  0  0  0  0  0
   56.6853   33.9972   44.5559 H   0  0  0  0  0  0  0  0  0  0  0  0
   59.2680   32.7810   46.3800 C   0  0  0  0  0  0  0  0  0  0  0  0
   60.1240   33.7130   46.9530 C   0  0  0  0  0  0  0  0  0  0  0  0
   59.9300   34.9480   46.7860 O   0  0  0  0  0  0  0  0  0  0  0  0
   61.1890   33.2520   47.6930 N   0  0  0  0  0  0  0  0  0  0  0  0
   62.1360   34.2100   48.2890 C   0  0  0  0  0  0  0  0  0  0  0  0
   62.0767   34.1500   49.3858 H   0  0  0  0  0  0  0  0  0  0  0  0
   63.1580   33.9663   47.9632 H   0  0  0  0  0  0  0  0  0  0  0  0
   61.8805   35.2291   47.9632 H   0  0  0  0  0  0  0  0  0  0  0  0
   61.4170   31.8900   47.8190 C   0  0  0  0  0  0  0  0  0  0  0  0
   62.4310   31.4830   48.4520 O   0  0  0  0  0  0  0  0  0  0  0  0
   60.5520   30.9740   47.2540 N   0  0  0  0  0  0  0  0  0  0  0  0
   60.7640   29.5250   47.3670 C   0  0  0  0  0  0  0  0  0  0  0  0
   60.8054   29.2422   48.4292 H   0  0  0  0  0  0  0  0  0  0  0  0
   59.9340   28.9938   46.8782 H   0  0  0  0  0  0  0  0  0  0  0  0
   61.7114   29.2538   46.8782 H   0  0  0  0  0  0  0  0  0  0  0  0
   59.4960   31.4550   46.5410 C   0  0  0  0  0  0  0  0  0  0  0  0
   58.5650   30.7420   45.8780 N   0  0  0  0  0  0  0  0  0  0  0  0
   58.4910   29.7040   45.8040 H   0  0  0  0  0  0  0  0  0  0  0  0
   56.9870   29.0690   44.1490 C   0  0  0  0  0  0  0  0  0  0  0  0
   57.7690   28.2210   43.3890 C   0  0  0  0  0  0  0  0  0  0  0  0
   58.1381   28.3996   42.3683 H   0  0  0  0  0  0  0  0  0  0  0  0
   57.9940   27.1040   44.1690 C   0  0  0  0  0  0  0  0  0  0  0  0
   58.5788   26.2150   43.8903 H   0  0  0  0  0  0  0  0  0  0  0  0
   57.3420   27.3200   45.3670 C   0  0  0  0  0  0  0  0  0  0  0  0
   57.3263   26.6155   46.2116 H   0  0  0  0  0  0  0  0  0  0  0  0
   56.7290   28.5170   45.3510 N   0  0  0  0  0  0  0  0  0  0  0  0
   56.1650   28.9320   46.1260 H   0  0  0  0  0  0  0  0  0  0  0  0
  1  2  1  0
  2  3  2  0
  3  4  1  0
  4  5  1  0
  5  6  1  0
  6  7  1  0
  6  8  1  0
  6  9  1  0
  5 10  1  0
 10 11  1  0
 11 12  2  0
 11 13  1  0
 13 14  1  0
 14 15  1  0
 14 16  1  0
 14 17  1  0
 13 18  1  0
 18 19  2  0
 18 20  1  0
 20 21  1  0
 21 22  1  0
 21 23  1  0
 21 24  1  0
 20 25  1  0
 25 26  1  0
 26 27  1  0
  2 28  1  0
 28 29  2  0
 29 30  1  0
 29 31  1  0
 31 32  1  0
 31 33  2  0
 33 34  1  0
 33 35  1  0
 35 36  1  0
 26  4  2  0
 35 28  1  0
 25 10  2  0
M  CHG  1  26   1
M  END
>  <UniqueID>  (21) 
19

>  <SMILES>  (21) 
Cn1c(=O)c2c([nH+]c(/N=C/c3ccc[nH]3)n2C)n(C)c1=O

>  <Energy>  (21) 
109.94903127003606

>  <Genealogy>  (21) 
Cn1c(=O)c2c([nH+]c(N=Cc3ccc[nH]3)n2C)n(C)c1=O (protonated)
Cn1c(=O)c2c([nH+]c(/N=C/c3ccc[nH]3)n2C)n(C)c1=O (cis-trans isomerization)
Cn1c(=O)c2c([nH+]c(/N=C/c3ccc[nH]3)n2C)n(C)c1=O (3D coordinates assigned)
Cn1c(=O)c2c([nH+]c(/N=C/c3ccc[nH]3)n2C)n(C)c1=O (optimized conformer: 109.94903127003606 kcal/mol)

>  <smiles>  (21) 
Cn1c(=O)c2c(nc(N=Cc3ccc[nH]3)n2C)n(C)c1=O

>  <score_type>  (21) 
oracle

>  <origin>  (21) 
adg

>  <m_score__min__energy>  (21) 
-5.0599999999999996

>  <m_primary>  (21) 
energy

$$$$
21:0
     RDKit          3D

 64 67  0  0  0  0  0  0  0  0999 V2000
   56.4000   30.5880   44.7430 O   0  0  0  0  0  0  0  0  0  0  0  0
   57.4910   31.0370   44.3070 C   0  0  0  0  0  0  0  0  0  0  0  0
   57.5920   32.4960   43.9560 C   0  0  0  0  0  0  0  0  0  0  0  0
   58.1240   33.3180   45.1020 C   0  0  0  0  0  0  0  0  0  0  0  0
   57.6530   33.0940   46.4060 C   0  0  0  0  0  0  0  0  0  0  0  0
   58.1890   33.8120   47.4790 C   0  0  0  0  0  0  0  0  0  0  0  0
   59.2010   34.7520   47.2600 C   0  0  0  0  0  0  0  0  0  0  0  0
   59.6810   34.9740   45.9650 C   0  0  0  0  0  0  0  0  0  0  0  0
   59.1520   34.2530   44.8900 C   0  0  0  0  0  0  0  0  0  0  0  0
   58.6450   30.1890   44.2230 N   0  0  0  0  0  0  0  0  0  0  0  0
   59.3600   29.6930   45.1960 C   0  0  0  0  0  0  0  0  0  0  0  0
   59.7730   28.2510   45.0880 C   0  0  0  0  0  0  0  0  0  0  0  0
   58.7010   27.3710   45.6730 C   0  0  0  0  0  0  0  0  0  0  0  0
   59.0500   26.1960   46.3550 C   0  0  0  0  0  0  0  0  0  0  0  0
   58.0590   25.3270   46.8200 C   0  0  0  0  0  0  0  0  0  0  0  0
   56.7000   25.6200   46.6020 C   0  0  0  0  0  0  0  0  0  0  0  0
   55.6630   24.7740   47.0320 O   0  0  0  0  0  0  0  0  0  0  0  0
   55.6090   23.3660   46.8020 C   0  0  0  0  0  0  0  0  0  0  0  0
   55.9960   23.0560   45.3790 C   0  0  0  0  0  0  0  0  0  0  0  0
   55.3110   23.6460   44.3060 C   0  0  0  0  0  0  0  0  0  0  0  0
   55.6370   23.3000   42.9880 C   0  0  0  0  0  0  0  0  0  0  0  0
   56.6570   22.3770   42.7320 C   0  0  0  0  0  0  0  0  0  0  0  0
   57.3520   21.7970   43.7960 C   0  0  0  0  0  0  0  0  0  0  0  0
   57.0180   22.1270   45.1150 C   0  0  0  0  0  0  0  0  0  0  0  0
   56.3570   26.8000   45.9380 C   0  0  0  0  0  0  0  0  0  0  0  0
   57.3460   27.6710   45.4750 C   0  0  0  0  0  0  0  0  0  0  0  0
   59.6180   30.4140   46.4670 C   0  0  0  0  0  0  0  0  0  0  0  0
   60.4730   31.3370   46.5210 O   0  0  0  0  0  0  0  0  0  0  0  0
   58.8300   30.1100   47.6230 N   0  0  0  0  0  0  0  0  0  0  0  0
   59.3810   29.9210   48.9620 C   0  0  0  0  0  0  0  0  0  0  0  0
   59.1840   31.1640   49.7890 C   0  0  0  0  0  0  0  0  0  0  0  0
   60.0720   32.2450   49.6690 C   0  0  0  0  0  0  0  0  0  0  0  0
   59.9290   33.3700   50.4890 C   0  0  0  0  0  0  0  0  0  0  0  0
   58.8960   33.4290   51.4320 C   0  0  0  0  0  0  0  0  0  0  0  0
   58.7450   34.5450   52.2520 O   0  0  0  0  0  0  0  0  0  0  0  0
   58.0040   32.3580   51.5490 C   0  0  0  0  0  0  0  0  0  0  0  0
   58.1450   31.2310   50.7330 C   0  0  0  0  0  0  0  0  0  0  0  0
   58.2676   32.6080   43.0952 H   0  0  0  0  0  0  0  0  0  0  0  0
   56.5810   32.8587   43.7189 H   0  0  0  0  0  0  0  0  0  0  0  0
   56.8606   32.3520   46.5834 H   0  0  0  0  0  0  0  0  0  0  0  0
   57.8138   33.6372   48.4982 H   0  0  0  0  0  0  0  0  0  0  0  0
   59.6195   35.3168   48.1061 H   0  0  0  0  0  0  0  0  0  0  0  0
   60.4747   35.7158   45.7923 H   0  0  0  0  0  0  0  0  0  0  0  0
   59.5417   34.4181   43.8747 H   0  0  0  0  0  0  0  0  0  0  0  0
   59.9217   27.9916   44.0294 H   0  0  0  0  0  0  0  0  0  0  0  0
   60.7115   28.0985   45.6411 H   0  0  0  0  0  0  0  0  0  0  0  0
   60.1102   25.9570   46.5249 H   0  0  0  0  0  0  0  0  0  0  0  0
   58.3424   24.4106   47.3584 H   0  0  0  0  0  0  0  0  0  0  0  0
   56.3050   22.8590   47.4865 H   0  0  0  0  0  0  0  0  0  0  0  0
   54.5828   23.0123   46.9801 H   0  0  0  0  0  0  0  0  0  0  0  0
   54.5165   24.3816   44.4999 H   0  0  0  0  0  0  0  0  0  0  0  0
   55.0885   23.7561   42.1506 H   0  0  0  0  0  0  0  0  0  0  0  0
   56.9109   22.1088   41.6958 H   0  0  0  0  0  0  0  0  0  0  0  0
   58.1625   21.0803   43.5973 H   0  0  0  0  0  0  0  0  0  0  0  0
   57.5583   21.6567   45.9498 H   0  0  0  0  0  0  0  0  0  0  0  0
   55.2969   27.0460   45.7780 H   0  0  0  0  0  0  0  0  0  0  0  0
   57.0604   28.5961   44.9529 H   0  0  0  0  0  0  0  0  0  0  0  0
   58.8705   29.0768   49.4486 H   0  0  0  0  0  0  0  0  0  0  0  0
   60.4581   29.7134   48.8795 H   0  0  0  0  0  0  0  0  0  0  0  0
   60.8835   32.2074   48.9273 H   0  0  0  0  0  0  0  0  0  0  0  0
   60.6311   34.2113   50.3922 H   0  0  0  0  0  0  0  0  0  0  0  0
   58.3040   35.3900   51.9140 H   0  0  0  0  0  0  0  0  0  0  0  0
   57.1884   32.4023   52.2857 H   0  0  0  0  0  0  0  0  0  0  0  0
   57.4392   30.3929   50.8305 H   0  0  0  0  0  0  0  0  0  0  0  0
  1  2  2  0
  2  3  1  0
  3  4  1  0
  4  5  2  0
  5  6  1  0
  6  7  2  0
  7  8  1  0
  8  9  2  0
  2 10  1  0
 10 11  2  3
 11 12  1  0
 12 13  1  0
 13 14  2  0
 14 15  1  0
 15 16  2  0
 16 17  1  0
 17 18  1  0
 18 19  1  0
 19 20  2  0
 20 21  1  0
 21 22  2  0
 22 23  1  0
 23 24  2  0
 16 25  1  0
 25 26  2  0
 11 27  1  0
 27 28  2  0
 27 29  1  0
 29 30  1  0
 30 31  1  0
 31 32  2  0
 32 33  1  0
 33 34  2  0
 34 35  1  0
 34 36  1  0
 36 37  2  0
  9  4  1  0
 26 13  1  0
 37 31  1  0
 24 19  1  0
  3 38  1  0
  3 39  1  0
  5 40  1  0
  6 41  1  0
  7 42  1  0
  8 43  1  0
  9 44  1  0
 12 45  1  0
 12 46  1  0
 14 47  1  0
 15 48  1  0
 18 49  1  0
 18 50  1  0
 20 51  1  0
 21 52  1  0
 22 53  1  0
 23 54  1  0
 24 55  1  0
 25 56  1  0
 26 57  1  0
 30 58  1  0
 30 59  1  0
 32 60  1  0
 33 61  1  0
 35 62  1  0
 36 63  1  0
 37 64  1  0
M  CHG  1  29  -1
M  END
>  <UniqueID>  (22) 
20

>  <SMILES>  (22) 
O=C(Cc1ccccc1)N=C(Cc1ccc(OCc2ccccc2)cc1)C(=O)[N-]Cc1ccc(O)cc1

>  <Energy>  (22) 
64.50466109993617

>  <Genealogy>  (22) 
O=C(Cc1ccccc1)N=C(Cc1ccc(OCc2ccccc2)cc1)C(=O)[N-]Cc1ccc(O)cc1 (protonated)
O=C(Cc1ccccc1)N=C(Cc1ccc(OCc2ccccc2)cc1)C(=O)[N-]Cc1ccc(O)cc1 (3D coordinates assigned)
O=C(Cc1ccccc1)N=C(Cc1ccc(OCc2ccccc2)cc1)C(=O)[N-]Cc1ccc(O)cc1 (optimized conformer: 64.50466109993617 kcal/mol)

>  <smiles>  (22) 
O=C(Cc1ccccc1)N=C(Cc1ccc(OCc2ccccc2)cc1)C(=O)NCc1ccc(O)cc1

>  <score_type>  (22) 
oracle

>  <origin>  (22) 
adg

>  <m_score__min__energy>  (22) 
-12.44

>  <m_primary>  (22) 
energy

$$$$
22:0
     RDKit          3D

 36 37  0  0  1  0  0  0  0  0999 V2000
   57.6150   32.2750   41.6050 C   0  0  0  0  0  0  0  0  0  0  0  0
   57.1100   31.2010   42.5200 C   0  0  0  0  0  0  0  0  0  0  0  0
   57.4730   31.1290   43.8440 C   0  0  0  0  0  0  0  0  0  0  0  0
   56.8170   30.0190   44.3650 C   0  0  0  0  0  0  0  0  0  0  0  0
   56.9360   29.6580   45.5920 N   0  0  0  0  0  0  0  0  0  0  0  0
   58.0840   28.8580   45.9980 C   0  0  0  0  0  0  0  0  0  0  0  0
   59.0150   29.8060   46.6720 C   0  0  0  0  0  0  0  0  0  0  0  0
   59.9960   29.3030   47.2630 O   0  0  0  0  0  0  0  0  0  0  0  0
   58.7730   31.1970   46.6260 N   0  0  0  0  0  0  0  0  0  0  0  0
   59.5630   32.2030   47.2120 C   0  0  0  0  0  0  0  0  0  0  0  0
   58.9170   33.1680   47.9720 C   0  0  0  0  0  0  0  0  0  0  0  0
   59.6240   34.1800   48.5750 C   0  0  0  0  0  0  0  0  0  0  0  0
   60.9930   34.3020   48.4680 C   0  0  0  0  0  0  0  0  0  0  0  0
   61.6440   33.3500   47.7160 C   0  0  0  0  0  0  0  0  0  0  0  0
   63.3820   33.4350   47.5320 S   0  0  0  0  0  0  0  0  0  0  0  0
   63.9030   31.8480   47.1030 N   0  0  0  0  0  0  0  0  0  0  0  0
   63.7310   34.4400   46.4750 O   0  0  0  0  0  0  0  0  0  0  0  0
   64.0150   33.8470   48.8420 O   0  0  0  0  0  0  0  0  0  0  0  0
   60.9240   32.3240   47.1050 C   0  0  0  0  0  0  0  0  0  0  0  0
   56.0970   29.4630   43.3780 N   0  0  0  0  0  0  0  0  0  0  0  0
   56.2820   30.1880   42.2670 N   0  0  0  0  0  0  0  0  0  0  0  0
   58.0080   33.1108   42.2025 H   0  0  0  0  0  0  0  0  0  0  0  0
   58.4166   31.8691   40.9705 H   0  0  0  0  0  0  0  0  0  0  0  0
   56.7911   32.6334   40.9705 H   0  0  0  0  0  0  0  0  0  0  0  0
   58.1466   31.8118   44.3827 H   0  0  0  0  0  0  0  0  0  0  0  0
   57.7727   28.0653   46.6943 H   0  0  0  0  0  0  0  0  0  0  0  0
   58.5593   28.3628   45.1385 H   0  0  0  0  0  0  0  0  0  0  0  0
   57.9030   31.4850   46.0880 H   0  0  0  0  0  0  0  0  0  0  0  0
   57.8247   33.1220   48.0932 H   0  0  0  0  0  0  0  0  0  0  0  0
   59.0740   34.9250   49.1687 H   0  0  0  0  0  0  0  0  0  0  0  0
   61.5390   35.1206   48.9598 H   0  0  0  0  0  0  0  0  0  0  0  0
   64.5220   31.4870   47.8660 H   0  0  0  0  0  0  0  0  0  0  0  0
   64.5240   31.9180   46.2650 H   0  0  0  0  0  0  0  0  0  0  0  0
   61.4728   31.5786   46.5107 H   0  0  0  0  0  0  0  0  0  0  0  0
   55.4970   28.6080   43.4780 H   0  0  0  0  0  0  0  0  0  0  0  0
   55.8490   30.0050   41.3170 H   0  0  0  0  0  0  0  0  0  0  0  0
  1  2  1  0
  2  3  2  0
  3  4  1  0
  4  5  2  0
  5  6  1  0
  6  7  1  0
  7  8  2  0
  7  9  1  0
  9 10  1  0
 10 11  2  0
 11 12  1  0
 12 13  2  0
 13 14  1  0
 14 15  1  0
 15 16  1  0
 15 17  2  0
 15 18  2  0
 14 19  2  0
  4 20  1  0
 20 21  1  0
 21  2  1  0
 19 10  1  0
  1 22  1  0
  1 23  1  0
  1 24  1  0
  3 25  1  0
  6 26  1  0
  6 27  1  0
  9 28  1  0
 11 29  1  0
 12 30  1  0
 13 31  1  0
 16 32  1  0
 16 33  1  0
 19 34  1  0
 20 35  1  0
 21 36  1  0
M  END
>  <smiles>  (23) 
Cc1cc(=NCC(=O)Nc2cccc(S(N)(=O)=O)c2)[nH][nH]1

>  <score_type>  (23) 
oracle

>  <origin>  (23) 
adg

>  <m_score__min__energy>  (23) 
-8.4900000000000002

>  <m_primary>  (23) 
energy

$$$$
23:0
     RDKit          3D

 44 46  0  0  0  0  0  0  0  0999 V2000
   64.5260   33.0700   49.0050 C   0  0  0  0  0  0  0  0  0  0  0  0
   63.1320   33.4770   48.6320 C   0  0  0  0  0  0  0  0  0  0  0  0
   62.7200   33.4440   47.2910 C   0  0  0  0  0  0  0  0  0  0  0  0
   61.4090   33.7860   46.9460 C   0  0  0  0  0  0  0  0  0  0  0  0
   60.4890   34.1570   47.9400 C   0  0  0  0  0  0  0  0  0  0  0  0
   59.0700   34.5000   47.5820 C   0  0  0  0  0  0  0  0  0  0  0  0
   58.5030   33.4680   46.7190 N   0  0  0  0  0  0  0  0  0  0  0  0
   58.3110   33.6640   45.3080 C   0  0  0  0  0  0  0  0  0  0  0  0
   58.5610   34.7870   44.7920 O   0  0  0  0  0  0  0  0  0  0  0  0
   57.8190   32.5580   44.4590 C   0  0  0  0  0  0  0  0  0  0  0  0
   57.7640   32.6780   43.0660 C   0  0  0  0  0  0  0  0  0  0  0  0
   57.2960   31.6070   42.3110 C   0  0  0  0  0  0  0  0  0  0  0  0
   56.8880   30.4400   42.9550 C   0  0  0  0  0  0  0  0  0  0  0  0
   56.4720   29.4690   42.2640 O   0  0  0  0  0  0  0  0  0  0  0  0
   56.9450   30.3630   44.3230 N   0  0  0  0  0  0  0  0  0  0  0  0
   56.5410   29.1540   45.0550 C   0  0  0  0  0  0  0  0  0  0  0  0
   57.7490   28.3050   45.3730 C   0  0  0  0  0  0  0  0  0  0  0  0
   59.0330   28.8750   45.2860 C   0  0  0  0  0  0  0  0  0  0  0  0
   60.1640   28.1250   45.6120 C   0  0  0  0  0  0  0  0  0  0  0  0
   60.0290   26.8030   46.0390 C   0  0  0  0  0  0  0  0  0  0  0  0
   58.7600   26.2300   46.1440 C   0  0  0  0  0  0  0  0  0  0  0  0
   57.6180   26.9720   45.8200 C   0  0  0  0  0  0  0  0  0  0  0  0
   56.0450   26.2030   45.9950 Cl  0  0  0  0  0  0  0  0  0  0  0  0
   57.4100   31.3960   45.0330 N   0  0  0  0  0  0  0  0  0  0  0  0
   60.8960   34.1670   49.2840 C   0  0  0  0  0  0  0  0  0  0  0  0
   62.2070   33.8250   49.6280 C   0  0  0  0  0  0  0  0  0  0  0  0
   64.6192   33.0428   50.1007 H   0  0  0  0  0  0  0  0  0  0  0  0
   64.7390   32.0722   48.5940 H   0  0  0  0  0  0  0  0  0  0  0  0
   65.2425   33.7965   48.5940 H   0  0  0  0  0  0  0  0  0  0  0  0
   63.4323   33.1475   46.5070 H   0  0  0  0  0  0  0  0  0  0  0  0
   61.0968   33.7644   45.8914 H   0  0  0  0  0  0  0  0  0  0  0  0
   58.4711   34.5736   48.5017 H   0  0  0  0  0  0  0  0  0  0  0  0
   59.0576   35.4611   47.0471 H   0  0  0  0  0  0  0  0  0  0  0  0
   58.2290   32.5590   47.1580 H   0  0  0  0  0  0  0  0  0  0  0  0
   58.0867   33.6074   42.5739 H   0  0  0  0  0  0  0  0  0  0  0  0
   57.2484   31.6807   41.2145 H   0  0  0  0  0  0  0  0  0  0  0  0
   56.0459   29.4462   45.9928 H   0  0  0  0  0  0  0  0  0  0  0  0
   55.8492   28.5714   44.4290 H   0  0  0  0  0  0  0  0  0  0  0  0
   59.1459   29.9191   44.9587 H   0  0  0  0  0  0  0  0  0  0  0  0
   61.1638   28.5767   45.5323 H   0  0  0  0  0  0  0  0  0  0  0  0
   60.9219   26.2128   46.2927 H   0  0  0  0  0  0  0  0  0  0  0  0
   58.6570   25.1888   46.4835 H   0  0  0  0  0  0  0  0  0  0  0  0
   60.1791   34.4455   50.0705 H   0  0  0  0  0  0  0  0  0  0  0  0
   62.5148   33.8287   50.6841 H   0  0  0  0  0  0  0  0  0  0  0  0
  1  2  1  0
  2  3  2  0
  3  4  1  0
  4  5  2  0
  5  6  1  0
  6  7  1  0
  7  8  1  0
  8  9  2  0
  8 10  1  0
 10 11  1  0
 11 12  2  0
 12 13  1  0
 13 14  2  0
 13 15  1  0
 15 16  1  0
 16 17  1  0
 17 18  2  0
 18 19  1  0
 19 20  2  0
 20 21  1  0
 21 22  2  0
 22 23  1  0
 15 24  1  0
  5 25  1  0
 25 26  2  0
 26  2  1  0
 24 10  2  0
 22 17  1  0
  1 27  1  0
  1 28  1  0
  1 29  1  0
  3 30  1  0
  4 31  1  0
  6 32  1  0
  6 33  1  0
  7 34  1  0
 11 35  1  0
 12 36  1  0
 16 37  1  0
 16 38  1  0
 18 39  1  0
 19 40  1  0
 20 41  1  0
 21 42  1  0
 25 43  1  0
 26 44  1  0
M  END
>  <UniqueID>  (24) 
21

>  <SMILES>  (24) 
Cc1ccc(CNC(=O)c2ccc(=O)n(Cc3ccccc3Cl)n2)cc1

>  <Energy>  (24) 
45.77735360459545

>  <Genealogy>  (24) 
Cc1ccc(CNC(=O)c2ccc(=O)n(Cc3ccccc3Cl)n2)cc1 (3D coordinates assigned)
Cc1ccc(CNC(=O)c2ccc(=O)n(Cc3ccccc3Cl)n2)cc1 (optimized conformer: 45.77735360459545 kcal/mol)

>  <smiles>  (24) 
Cc1ccc(CNC(=O)c2ccc(=O)n(Cc3ccccc3Cl)n2)cc1

>  <score_type>  (24) 
oracle

>  <origin>  (24) 
adg

>  <m_score__min__energy>  (24) 
-8.9700000000000006

>  <m_primary>  (24) 
energy

$$$$
24:0
     RDKit          3D

 67 71  0  0  0  0  0  0  0  0999 V2000
   60.7662   30.4092   44.7200 H   0  0  0  0  0  0  0  0  0  0  0  0
   60.6790   29.7080   45.5630 C   0  0  0  0  0  0  0  0  0  0  0  0
   60.8810   30.1480   46.8300 N   0  0  0  0  0  0  0  0  0  0  0  0
   60.7820   29.3170   47.9020 C   0  0  0  0  0  0  0  0  0  0  0  0
   61.0100   29.8190   49.1890 C   0  0  0  0  0  0  0  0  0  0  0  0
   61.2583   30.8817   49.3271 H   0  0  0  0  0  0  0  0  0  0  0  0
   60.9230   28.9730   50.3000 C   0  0  0  0  0  0  0  0  0  0  0  0
   61.2150   29.6060   51.9100 Cl  0  0  0  0  0  0  0  0  0  0  0  0
   60.6060   27.6230   50.1270 C   0  0  0  0  0  0  0  0  0  0  0  0
   60.5403   26.9599   51.0022 H   0  0  0  0  0  0  0  0  0  0  0  0
   60.3720   27.1110   48.8480 C   0  0  0  0  0  0  0  0  0  0  0  0
   60.1202   26.0476   48.7220 H   0  0  0  0  0  0  0  0  0  0  0  0
   60.4570   27.9510   47.7170 C   0  0  0  0  0  0  0  0  0  0  0  0
   60.2410   27.4690   46.4030 C   0  0  0  0  0  0  0  0  0  0  0  0
   59.9430   26.2100   46.2160 N   0  0  0  0  0  0  0  0  0  0  0  0
   58.7050   25.6930   45.6320 C   0  0  0  0  0  0  0  0  0  0  0  0
   58.7908   24.6033   45.5084 H   0  0  0  0  0  0  0  0  0  0  0  0
   58.5445   26.1746   44.6561 H   0  0  0  0  0  0  0  0  0  0  0  0
   57.5130   26.0040   46.5380 C   0  0  0  0  0  0  0  0  0  0  0  0
   57.7599   25.6972   47.5651 H   0  0  0  0  0  0  0  0  0  0  0  0
   56.6437   25.4517   46.1516 H   0  0  0  0  0  0  0  0  0  0  0  0
   57.1570   27.4970   46.5410 C   0  0  0  0  0  0  0  0  0  0  0  0
   57.9705   28.0613   47.0204 H   0  0  0  0  0  0  0  0  0  0  0  0
   56.2177   27.6356   47.0964 H   0  0  0  0  0  0  0  0  0  0  0  0
   56.9730   27.9860   45.1780 N   0  0  0  0  0  0  0  0  0  0  0  0
   56.3650   29.2420   44.8460 C   0  0  0  0  0  0  0  0  0  0  0  0
   55.1470   29.2840   44.5210 O   0  0  0  0  0  0  0  0  0  0  0  0
   57.1650   30.4870   44.8820 C   0  0  0  0  0  0  0  0  0  0  0  0
   57.7800   30.9070   46.0760 C   0  0  0  0  0  0  0  0  0  0  0  0
   57.6692   30.3036   46.9890 H   0  0  0  0  0  0  0  0  0  0  0  0
   58.5310   32.0860   46.1100 C   0  0  0  0  0  0  0  0  0  0  0  0
   59.0207   32.3950   47.0452 H   0  0  0  0  0  0  0  0  0  0  0  0
   58.6640   32.8770   44.9600 C   0  0  0  0  0  0  0  0  0  0  0  0
   59.4610   34.1550   44.9930 C   0  0  0  0  0  0  0  0  0  0  0  0
   60.3729   34.0279   44.3911 H   0  0  0  0  0  0  0  0  0  0  0  0
   58.8442   34.9681   44.5826 H   0  0  0  0  0  0  0  0  0  0  0  0
   59.8260   34.4860   46.3340 O   0  0  0  0  0  0  0  0  0  0  0  0
   60.9300   33.9660   47.0360 C   0  0  0  0  0  0  0  0  0  0  0  0
   62.0870   33.5130   46.3730 C   0  0  0  0  0  0  0  0  0  0  0  0
   62.1439   33.5679   45.2758 H   0  0  0  0  0  0  0  0  0  0  0  0
   63.1620   32.9950   47.0970 C   0  0  0  0  0  0  0  0  0  0  0  0
   64.0596   32.6406   46.5691 H   0  0  0  0  0  0  0  0  0  0  0  0
   63.1000   32.9260   48.4880 C   0  0  0  0  0  0  0  0  0  0  0  0
   63.9466   32.5121   49.0554 H   0  0  0  0  0  0  0  0  0  0  0  0
   61.9660   33.3810   49.1620 C   0  0  0  0  0  0  0  0  0  0  0  0
   61.9280   33.3331   50.2603 H   0  0  0  0  0  0  0  0  0  0  0  0
   60.8700   33.9010   48.4470 C   0  0  0  0  0  0  0  0  0  0  0  0
   59.7240   34.4100   49.1670 N   0  0  0  0  0  0  0  0  0  0  0  0
   58.9780   34.7010   48.4930 H   0  0  0  0  0  0  0  0  0  0  0  0
   59.9790   35.2670   49.7110 H   0  0  0  0  0  0  0  0  0  0  0  0
   59.2130   33.3910   50.0510 C   0  0  0  0  0  0  0  0  0  0  0  0
   58.6660   32.2030   49.5300 C   0  0  0  0  0  0  0  0  0  0  0  0
   58.5865   32.0706   48.4409 H   0  0  0  0  0  0  0  0  0  0  0  0
   58.2230   31.1900   50.3860 C   0  0  0  0  0  0  0  0  0  0  0  0
   57.7949   30.2662   49.9695 H   0  0  0  0  0  0  0  0  0  0  0  0
   58.3240   31.3510   51.7710 C   0  0  0  0  0  0  0  0  0  0  0  0
   57.9789   30.5524   52.4441 H   0  0  0  0  0  0  0  0  0  0  0  0
   58.8640   32.5280   52.3010 C   0  0  0  0  0  0  0  0  0  0  0  0
   58.9423   32.6545   53.3909 H   0  0  0  0  0  0  0  0  0  0  0  0
   59.3040   33.5430   51.4470 C   0  0  0  0  0  0  0  0  0  0  0  0
   59.7246   34.4676   51.8692 H   0  0  0  0  0  0  0  0  0  0  0  0
   58.0610   32.4580   43.7650 C   0  0  0  0  0  0  0  0  0  0  0  0
   58.1741   33.0634   42.8536 H   0  0  0  0  0  0  0  0  0  0  0  0
   57.3170   31.2750   43.7260 C   0  0  0  0  0  0  0  0  0  0  0  0
   56.8465   30.9575   42.7838 H   0  0  0  0  0  0  0  0  0  0  0  0
   60.3610   28.3700   45.3230 C   0  0  0  0  0  0  0  0  0  0  0  0
   60.2040   28.0180   44.2927 H   0  0  0  0  0  0  0  0  0  0  0  0
  1  2  1  0
  2  3  1  0
  3  4  1  0
  4  5  2  0
  5  6  1  0
  5  7  1  0
  7  8  1  0
  7  9  2  0
  9 10  1  0
  9 11  1  0
 11 12  1  0
 11 13  2  0
 13 14  1  0
 14 15  2  0
 15 16  1  0
 16 17  1  0
 16 18  1  0
 16 19  1  0
 19 20  1  0
 19 21  1  0
 19 22  1  0
 22 23  1  0
 22 24  1  0
 22 25  1  0
 25 26  1  0
 26 27  2  0
 26 28  1  0
 28 29  2  0
 29 30  1  0
 29 31  1  0
 31 32  1  0
 31 33  2  0
 33 34  1  0
 34 35  1  0
 34 36  1  0
 34 37  1  0
 37 38  1  0
 38 39  2  0
 39 40  1  0
 39 41  1  0
 41 42  1  0
 41 43  2  0
 43 44  1  0
 43 45  1  0
 45 46  1  0
 45 47  2  0
 47 48  1  0
 48 49  1  0
 48 50  1  0
 48 51  1  0
 51 52  2  0
 52 53  1  0
 52 54  1  0
 54 55  1  0
 54 56  2  0
 56 57  1  0
 56 58  1  0
 58 59  1  0
 58 60  2  0
 60 61  1  0
 33 62  1  0
 62 63  1  0
 62 64  2  0
 64 65  1  0
 14 66  1  0
 66 67  1  0
 66  2  2  0
 13  4  1  0
 64 28  1  0
 47 38  1  0
 60 51  1  0
M  CHG  3   3  -1  25  -1  48   1
M  END
>  <UniqueID>  (25) 
22

>  <SMILES>  (25) 
O=C([N-]CCC/N=c1\cc[n-]c2cc(Cl)ccc12)c1ccc(COc2ccccc2[NH2+]c2ccccc2)cc1

>  <Energy>  (25) 
77.44746521876819

>  <Genealogy>  (25) 
O=C([N-]CCCN=c1cc[n-]c2cc(Cl)ccc12)c1ccc(COc2ccccc2[NH2+]c2ccccc2)cc1 (protonated)
O=C([N-]CCC/N=c1\cc[n-]c2cc(Cl)ccc12)c1ccc(COc2ccccc2[NH2+]c2ccccc2)cc1 (cis-trans isomerization)
O=C([N-]CCC/N=c1\cc[n-]c2cc(Cl)ccc12)c1ccc(COc2ccccc2[NH2+]c2ccccc2)cc1 (3D coordinates assigned)
O=C([N-]CCC/N=c1\cc[n-]c2cc(Cl)ccc12)c1ccc(COc2ccccc2[NH2+]c2ccccc2)cc1 (optimized conformer: 77.44746521876819 kcal/mol)

>  <smiles>  (25) 
O=C(NCCCN=c1cc[nH]c2cc(Cl)ccc12)c1ccc(COc2ccccc2Nc2ccccc2)cc1

>  <score_type>  (25) 
oracle

>  <origin>  (25) 
adg

>  <m_score__min__energy>  (25) 
-10.41

>  <m_primary>  (25) 
energy

$$$$
25:0
     RDKit          3D

 74 77  0  0  0  0  0  0  0  0999 V2000
   57.7700   32.8630   46.8400 C   0  0  0  0  0  0  0  0  0  0  0  0
   57.6180   31.6300   46.1440 O   0  0  0  0  0  0  0  0  0  0  0  0
   57.4350   31.5120   44.7570 C   0  0  0  0  0  0  0  0  0  0  0  0
   58.0250   32.4120   43.8480 C   0  0  0  0  0  0  0  0  0  0  0  0
   57.8200   32.2620   42.4740 C   0  0  0  0  0  0  0  0  0  0  0  0
   57.0240   31.2220   41.9950 C   0  0  0  0  0  0  0  0  0  0  0  0
   56.4340   30.3230   42.8870 C   0  0  0  0  0  0  0  0  0  0  0  0
   56.6460   30.4560   44.2720 C   0  0  0  0  0  0  0  0  0  0  0  0
   56.0080   29.5810   45.2140 N   0  0  0  0  0  0  0  0  0  0  0  0
   56.4750   28.2840   45.6130 C   0  0  0  0  0  0  0  0  0  0  0  0
   55.6820   27.3060   45.5770 O   0  0  0  0  0  0  0  0  0  0  0  0
   57.9050   28.1040   46.0030 C   0  0  0  0  0  0  0  0  0  0  0  0
   58.4700   29.0420   46.8910 C   0  0  0  0  0  0  0  0  0  0  0  0
   59.7850   28.9050   47.3590 C   0  0  0  0  0  0  0  0  0  0  0  0
   60.3380   29.8370   48.3010 N   0  0  0  0  0  0  0  0  0  0  0  0
   59.6140   30.3440   49.4330 C   0  0  0  0  0  0  0  0  0  0  0  0
   58.4760   29.8760   49.7180 O   0  0  0  0  0  0  0  0  0  0  0  0
   60.2210   31.4280   50.2800 C   0  0  0  0  0  0  0  0  0  0  0  0
   61.6550   31.7340   49.8920 C   0  0  0  0  0  0  0  0  0  0  0  0
   62.6870   31.2640   50.7240 C   0  0  0  0  0  0  0  0  0  0  0  0
   64.0240   31.5110   50.4150 C   0  0  0  0  0  0  0  0  0  0  0  0
   64.3610   32.2230   49.2650 C   0  0  0  0  0  0  0  0  0  0  0  0
   63.3590   32.6920   48.4060 C   0  0  0  0  0  0  0  0  0  0  0  0
   63.7070   33.3940   47.2410 C   0  0  0  0  0  0  0  0  0  0  0  0
   62.7160   33.8530   46.3730 C   0  0  0  0  0  0  0  0  0  0  0  0
   61.3710   33.6190   46.6590 C   0  0  0  0  0  0  0  0  0  0  0  0
   61.0050   32.9260   47.8140 C   0  0  0  0  0  0  0  0  0  0  0  0
   61.9900   32.4510   48.7090 C   0  0  0  0  0  0  0  0  0  0  0  0
   60.5750   27.8600   46.8810 C   0  0  0  0  0  0  0  0  0  0  0  0
   60.0420   26.9190   46.0030 C   0  0  0  0  0  0  0  0  0  0  0  0
   58.7070   27.0080   45.5670 C   0  0  0  0  0  0  0  0  0  0  0  0
   58.1650   25.8720   44.7220 C   0  0  0  0  0  0  0  0  0  0  0  0
   58.1060   24.6150   45.5020 N   0  0  0  0  0  0  0  0  0  0  0  0
   56.9820   24.6630   46.4510 C   0  0  0  0  0  0  0  0  0  0  0  0
   58.0110   23.4190   44.6260 C   0  0  0  0  0  0  0  0  0  0  0  0
   56.6840   23.4450   43.8600 C   0  0  0  0  0  0  0  0  0  0  0  0
   56.1390   22.0760   43.7140 N   0  0  0  0  0  0  0  0  0  0  0  0
   57.0720   21.2170   42.9590 C   0  0  0  0  0  0  0  0  0  0  0  0
   55.8900   21.4780   45.0350 C   0  0  0  0  0  0  0  0  0  0  0  0
   57.7471   32.6774   47.9240 H   0  0  0  0  0  0  0  0  0  0  0  0
   58.7315   33.3221   46.5668 H   0  0  0  0  0  0  0  0  0  0  0  0
   56.9488   33.5419   46.5668 H   0  0  0  0  0  0  0  0  0  0  0  0
   58.6499   33.2366   44.2215 H   0  0  0  0  0  0  0  0  0  0  0  0
   58.2872   32.9654   41.7691 H   0  0  0  0  0  0  0  0  0  0  0  0
   56.8604   31.1093   40.9131 H   0  0  0  0  0  0  0  0  0  0  0  0
   55.8013   29.5081   42.5054 H   0  0  0  0  0  0  0  0  0  0  0  0
   57.8667   29.8995   47.2238 H   0  0  0  0  0  0  0  0  0  0  0  0
   61.3570   30.0600   48.2300 H   0  0  0  0  0  0  0  0  0  0  0  0
   59.6215   32.3430   50.1648 H   0  0  0  0  0  0  0  0  0  0  0  0
   60.2247   31.0754   51.3219 H   0  0  0  0  0  0  0  0  0  0  0  0
   62.4360   30.6939   51.6306 H   0  0  0  0  0  0  0  0  0  0  0  0
   64.8170   31.1421   51.0822 H   0  0  0  0  0  0  0  0  0  0  0  0
   65.4181   32.4173   49.0311 H   0  0  0  0  0  0  0  0  0  0  0  0
   64.7661   33.5830   47.0116 H   0  0  0  0  0  0  0  0  0  0  0  0
   62.9959   34.4007   45.4610 H   0  0  0  0  0  0  0  0  0  0  0  0
   60.5942   33.9827   45.9703 H   0  0  0  0  0  0  0  0  0  0  0  0
   59.9410   32.7481   48.0293 H   0  0  0  0  0  0  0  0  0  0  0  0
   61.6249   27.7783   47.1990 H   0  0  0  0  0  0  0  0  0  0  0  0
   60.6746   26.0934   45.6449 H   0  0  0  0  0  0  0  0  0  0  0  0
   57.1526   26.1303   44.3780 H   0  0  0  0  0  0  0  0  0  0  0  0
   58.8358   25.7216   43.8633 H   0  0  0  0  0  0  0  0  0  0  0  0
   57.3701   24.6464   47.4801 H   0  0  0  0  0  0  0  0  0  0  0  0
   56.4063   25.5866   46.2911 H   0  0  0  0  0  0  0  0  0  0  0  0
   56.3296   23.7919   46.2911 H   0  0  0  0  0  0  0  0  0  0  0  0
   58.8465   23.4223   43.9105 H   0  0  0  0  0  0  0  0  0  0  0  0
   58.0578   22.5100   45.2436 H   0  0  0  0  0  0  0  0  0  0  0  0
   55.9611   24.0650   44.4104 H   0  0  0  0  0  0  0  0  0  0  0  0
   56.8609   23.8647   42.8587 H   0  0  0  0  0  0  0  0  0  0  0  0
   57.6941   20.6443   43.6626 H   0  0  0  0  0  0  0  0  0  0  0  0
   56.5003   20.5225   42.3259 H   0  0  0  0  0  0  0  0  0  0  0  0
   57.7170   21.8440   42.3259 H   0  0  0  0  0  0  0  0  0  0  0  0
   56.1859   22.1886   45.8208 H   0  0  0  0  0  0  0  0  0  0  0  0
   54.8198   21.2444   45.1359 H   0  0  0  0  0  0  0  0  0  0  0  0
   56.4781   20.5539   45.1359 H   0  0  0  0  0  0  0  0  0  0  0  0
  1  2  1  0
  2  3  1  0
  3  4  2  0
  4  5  1  0
  5  6  2  0
  6  7  1  0
  7  8  2  0
  8  9  1  0
  9 10  1  0
 10 11  2  0
 10 12  1  0
 12 13  2  0
 13 14  1  0
 14 15  1  0
 15 16  1  0
 16 17  2  0
 16 18  1  0
 18 19  1  0
 19 20  2  0
 20 21  1  0
 21 22  2  0
 22 23  1  0
 23 24  2  0
 24 25  1  0
 25 26  2  0
 26 27  1  0
 27 28  2  0
 14 29  2  0
 29 30  1  0
 30 31  2  0
 31 32  1  0
 32 33  1  0
 33 34  1  0
 33 35  1  0
 35 36  1  0
 36 37  1  0
 37 38  1  0
 37 39  1  0
  8  3  1  0
 31 12  1  0
 28 19  1  0
 28 23  1  0
  1 40  1  0
  1 41  1  0
  1 42  1  0
  4 43  1  0
  5 44  1  0
  6 45  1  0
  7 46  1  0
 13 47  1  0
 15 48  1  0
 18 49  1  0
 18 50  1  0
 20 51  1  0
 21 52  1  0
 22 53  1  0
 24 54  1  0
 25 55  1  0
 26 56  1  0
 27 57  1  0
 29 58  1  0
 30 59  1  0
 32 60  1  0
 32 61  1  0
 34 62  1  0
 34 63  1  0
 34 64  1  0
 35 65  1  0
 35 66  1  0
 36 67  1  0
 36 68  1  0
 38 69  1  0
 38 70  1  0
 38 71  1  0
 39 72  1  0
 39 73  1  0
 39 74  1  0
M  CHG  1   9  -1
M  END
>  <UniqueID>  (26) 
23

>  <SMILES>  (26) 
COc1ccccc1[N-]C(=O)c1cc(NC(=O)Cc2cccc3ccccc23)ccc1CN(C)CCN(C)C

>  <Energy>  (26) 
93.8584669665083

>  <Genealogy>  (26) 
COc1ccccc1[N-]C(=O)c1cc(NC(=O)Cc2cccc3ccccc23)ccc1CN(C)CCN(C)C (protonated)
COc1ccccc1[N-]C(=O)c1cc(NC(=O)Cc2cccc3ccccc23)ccc1CN(C)CCN(C)C (3D coordinates assigned)
COc1ccccc1[N-]C(=O)c1cc(NC(=O)Cc2cccc3ccccc23)ccc1CN(C)CCN(C)C (optimized conformer: 93.8584669665083 kcal/mol)

>  <smiles>  (26) 
COc1ccccc1NC(=O)c1cc(NC(=O)Cc2cccc3ccccc23)ccc1CN(C)CCN(C)C

>  <score_type>  (26) 
oracle

>  <origin>  (26) 
adg

>  <m_score__min__energy>  (26) 
-11.81

>  <m_primary>  (26) 
energy

$$$$
26:0
     RDKit          3D

 58 62  0  0  0  0  0  0  0  0999 V2000
   58.0621   32.4440   42.7373 H   0  0  0  0  0  0  0  0  0  0  0  0
   57.6410   31.5620   43.2420 C   0  0  0  0  0  0  0  0  0  0  0  0
   57.9860   31.2840   44.5680 C   0  0  0  0  0  0  0  0  0  0  0  0
   58.6890   31.9405   45.1016 H   0  0  0  0  0  0  0  0  0  0  0  0
   57.4390   30.1730   45.2170 C   0  0  0  0  0  0  0  0  0  0  0  0
   57.7249   29.9495   46.2554 H   0  0  0  0  0  0  0  0  0  0  0  0
   56.7870   23.2370   45.0470 C   0  0  0  0  0  0  0  0  0  0  0  0
   56.9610   23.8590   46.3280 N   0  0  0  0  0  0  0  0  0  0  0  0
   57.1720   25.1280   46.5090 C   0  0  0  0  0  0  0  0  0  0  0  0
   58.1260   25.5630   47.3770 N   0  0  0  0  0  0  0  0  0  0  0  0
   58.3390   26.8900   47.5560 C   0  0  0  0  0  0  0  0  0  0  0  0
   59.2770   27.2830   48.3660 N   0  0  0  0  0  0  0  0  0  0  0  0
   60.0100   28.5120   48.2450 C   0  0  0  0  0  0  0  0  0  0  0  0
   60.2340   29.1020   46.9910 C   0  0  0  0  0  0  0  0  0  0  0  0
   59.8270   28.6310   46.0841 H   0  0  0  0  0  0  0  0  0  0  0  0
   60.9710   30.2840   46.8890 C   0  0  0  0  0  0  0  0  0  0  0  0
   61.1559   30.7298   45.9005 H   0  0  0  0  0  0  0  0  0  0  0  0
   61.4770   30.9060   48.0410 C   0  0  0  0  0  0  0  0  0  0  0  0
   62.2530   32.1140   47.9270 N   0  0  0  0  0  0  0  0  0  0  0  0
   63.0260   32.5960   49.0770 C   0  0  0  0  0  0  0  0  0  0  0  0
   62.3888   33.2378   49.7032 H   0  0  0  0  0  0  0  0  0  0  0  0
   63.3766   31.7365   49.6671 H   0  0  0  0  0  0  0  0  0  0  0  0
   64.2330   33.4010   48.5850 C   0  0  0  0  0  0  0  0  0  0  0  0
   64.7346   33.8632   49.4480 H   0  0  0  0  0  0  0  0  0  0  0  0
   64.9215   32.7211   48.0618 H   0  0  0  0  0  0  0  0  0  0  0  0
   63.8260   34.4160   47.6860 O   0  0  0  0  0  0  0  0  0  0  0  0
   63.2860   33.8310   46.5160 C   0  0  0  0  0  0  0  0  0  0  0  0
   63.0581   34.6240   45.7886 H   0  0  0  0  0  0  0  0  0  0  0  0
   64.0242   33.1298   46.0996 H   0  0  0  0  0  0  0  0  0  0  0  0
   62.0020   33.0590   46.8360 C   0  0  0  0  0  0  0  0  0  0  0  0
   61.2158   33.7664   47.1386 H   0  0  0  0  0  0  0  0  0  0  0  0
   61.6772   32.5058   45.9424 H   0  0  0  0  0  0  0  0  0  0  0  0
   61.2030   30.3420   49.3000 C   0  0  0  0  0  0  0  0  0  0  0  0
   61.5706   30.8352   50.2119 H   0  0  0  0  0  0  0  0  0  0  0  0
   60.4660   29.1580   49.3990 C   0  0  0  0  0  0  0  0  0  0  0  0
   60.2437   28.7325   50.3887 H   0  0  0  0  0  0  0  0  0  0  0  0
   57.6040   27.7850   46.8430 N   0  0  0  0  0  0  0  0  0  0  0  0
   56.6560   27.3620   45.9660 C   0  0  0  0  0  0  0  0  0  0  0  0
   55.9810   28.2070   45.2410 N   0  0  0  0  0  0  0  0  0  0  0  0
   56.5280   29.3430   44.5500 C   0  0  0  0  0  0  0  0  0  0  0  0
   56.2160   29.6050   43.2050 C   0  0  0  0  0  0  0  0  0  0  0  0
   55.5401   28.9309   42.6585 H   0  0  0  0  0  0  0  0  0  0  0  0
   56.7610   30.7190   42.5580 C   0  0  0  0  0  0  0  0  0  0  0  0
   56.4971   30.9313   41.5115 H   0  0  0  0  0  0  0  0  0  0  0  0
   56.3720   22.0800   42.5240 C   0  0  0  0  0  0  0  0  0  0  0  0
   56.2182   21.6413   41.5271 H   0  0  0  0  0  0  0  0  0  0  0  0
   57.4630   21.6820   43.3000 C   0  0  0  0  0  0  0  0  0  0  0  0
   58.1661   20.9317   42.9093 H   0  0  0  0  0  0  0  0  0  0  0  0
   57.6690   22.2330   44.5760 C   0  0  0  0  0  0  0  0  0  0  0  0
   58.8370   21.7560   45.3990 C   0  0  0  0  0  0  0  0  0  0  0  0
   58.5967   21.8541   46.4679 H   0  0  0  0  0  0  0  0  0  0  0  0
   59.0440   20.7013   45.1650 H   0  0  0  0  0  0  0  0  0  0  0  0
   59.7232   22.3643   45.1650 H   0  0  0  0  0  0  0  0  0  0  0  0
   56.4500   26.0310   45.7990 N   0  0  0  0  0  0  0  0  0  0  0  0
   55.6810   23.6060   44.2680 C   0  0  0  0  0  0  0  0  0  0  0  0
   54.9688   24.3523   44.6499 H   0  0  0  0  0  0  0  0  0  0  0  0
   55.4770   23.0330   43.0110 C   0  0  0  0  0  0  0  0  0  0  0  0
   54.6099   23.3333   42.4043 H   0  0  0  0  0  0  0  0  0  0  0  0
  1  2  1  0
  2  3  2  0
  3  4  1  0
  3  5  1  0
  5  6  1  0
  5  7  2  0
  7  8  1  0
  8  9  2  0
  9 10  1  0
 10 11  1  0
 11 12  2  3
 12 13  1  0
 13 14  2  0
 14 15  1  0
 14 16  1  0
 16 17  1  0
 16 18  2  0
 18 19  1  0
 19 20  1  0
 20 21  1  0
 20 22  1  0
 20 23  1  0
 23 24  1  0
 23 25  1  0
 23 26  1  0
 26 27  1  0
 27 28  1  0
 27 29  1  0
 27 30  1  0
 30 31  1  0
 30 32  1  0
 18 33  1  0
 33 34  1  0
 33 35  2  0
 35 36  1  0
 11 37  1  0
 37 38  1  0
 38 39  2  0
 39 40  1  0
 40 41  2  0
 41 42  1  0
 41 43  1  0
 43 44  1  0
 43 45  2  0
 45 46  1  0
 45 47  1  0
 47 48  1  0
 47 49  2  0
 49 50  1  0
 50 51  1  0
 50 52  1  0
 50 53  1  0
 38 54  1  0
  7 55  1  0
 55 56  1  0
 55 57  2  0
 57 58  1  0
 57  2  1  0
 54  9  1  0
 35 13  1  0
 49 40  1  0
 30 19  1  0
M  CHG  3  10  -1  37  -1  54  -1
M  END
>  <UniqueID>  (27) 
24

>  <SMILES>  (27) 
Cc1ccccc1/N=c1\[n-]c(=Nc2ccc(N3CCOCC3)cc2)[n-]/c(=N\c2ccccc2)[n-]1

>  <Energy>  (27) 
89.03233099963312

>  <Genealogy>  (27) 
Cc1ccccc1N=c1[n-]c(=Nc2ccccc2)[n-]c(=Nc2ccc(N3CCOCC3)cc2)[n-]1 (protonated)
Cc1ccccc1/N=c1\[n-]c(=Nc2ccc(N3CCOCC3)cc2)[n-]/c(=N\c2ccccc2)[n-]1 (cis-trans isomerization)
Cc1ccccc1/N=c1\[n-]c(=Nc2ccc(N3CCOCC3)cc2)[n-]/c(=N\c2ccccc2)[n-]1 (3D coordinates assigned)
Cc1ccccc1/N=c1\[n-]c(=Nc2ccc(N3CCOCC3)cc2)[n-]/c(=N\c2ccccc2)[n-]1 (nonaromatic ring conformer: 89.03233099963312 kcal/mol)

>  <smiles>  (27) 
Cc1ccccc1N=c1[nH]c(=Nc2ccccc2)[nH]c(=Nc2ccc(N3CCOCC3)cc2)[nH]1

>  <score_type>  (27) 
oracle

>  <origin>  (27) 
adg

>  <m_score__min__energy>  (27) 
-14.18

>  <m_primary>  (27) 
energy

$$$$
27:0
     RDKit          3D

 43 45  0  0  0  0  0  0  0  0999 V2000
   55.4860   26.3440   46.3810 O   0  0  0  0  0  0  0  0  0  0  0  0
   56.4410   26.6750   45.6310 C   0  0  0  0  0  0  0  0  0  0  0  0
   57.2450   25.7160   44.8490 C   0  0  0  0  0  0  0  0  0  0  0  0
   58.2170   26.6180   44.0710 C   0  0  0  0  0  0  0  0  0  0  0  0
   57.9670   28.0750   44.5410 C   0  0  2  0  0  0  0  0  0  0  0  0
   59.1900   28.7350   45.2080 C   0  0  0  0  0  0  0  0  0  0  0  0
   58.8090   29.6770   46.2750 N   0  0  0  0  0  0  0  0  0  0  0  0
   58.8030   29.2350   47.6790 C   0  0  0  0  0  0  0  0  0  0  0  0
   59.6250   30.1510   48.5520 C   0  0  0  0  0  0  0  0  0  0  0  0
   61.0260   30.1090   48.5040 C   0  0  0  0  0  0  0  0  0  0  0  0
   61.7840   30.9870   49.2830 C   0  0  0  0  0  0  0  0  0  0  0  0
   61.1540   31.9140   50.1190 C   0  0  0  0  0  0  0  0  0  0  0  0
   62.1420   33.0040   51.0810 Cl  0  0  0  0  0  0  0  0  0  0  0  0
   59.7500   31.9600   50.1760 C   0  0  0  0  0  0  0  0  0  0  0  0
   58.9170   33.1130   51.2090 Cl  0  0  0  0  0  0  0  0  0  0  0  0
   58.9930   31.0790   49.3950 C   0  0  0  0  0  0  0  0  0  0  0  0
   58.1380   30.9010   45.9260 C   0  0  0  0  0  0  0  0  0  0  0  0
   57.0200   30.8400   45.3490 O   0  0  0  0  0  0  0  0  0  0  0  0
   58.7400   32.2220   46.2280 C   0  0  0  0  0  0  0  0  0  0  0  0
   57.9340   33.3630   46.3970 C   0  0  0  0  0  0  0  0  0  0  0  0
   58.5120   34.6010   46.6880 C   0  0  0  0  0  0  0  0  0  0  0  0
   59.8960   34.7170   46.8170 C   0  0  0  0  0  0  0  0  0  0  0  0
   60.7090   33.5910   46.6580 C   0  0  0  0  0  0  0  0  0  0  0  0
   62.6050   33.7480   46.8370 Br  0  0  0  0  0  0  0  0  0  0  0  0
   60.1360   32.3480   46.3680 C   0  0  0  0  0  0  0  0  0  0  0  0
   56.8470   28.0140   45.4590 N   0  0  0  0  0  0  0  0  0  0  0  0
   57.7909   25.0278   45.5112 H   0  0  0  0  0  0  0  0  0  0  0  0
   56.6344   25.0768   44.1943 H   0  0  0  0  0  0  0  0  0  0  0  0
   59.2556   26.3259   44.2853 H   0  0  0  0  0  0  0  0  0  0  0  0
   58.0542   26.5241   42.9872 H   0  0  0  0  0  0  0  0  0  0  0  0
   57.7586   28.7090   43.6665 H   0  0  0  0  0  0  0  0  0  0  0  0
   59.8234   27.9473   45.6420 H   0  0  0  0  0  0  0  0  0  0  0  0
   59.7267   29.3041   44.4347 H   0  0  0  0  0  0  0  0  0  0  0  0
   57.7662   29.2268   48.0465 H   0  0  0  0  0  0  0  0  0  0  0  0
   59.2435   28.2281   47.7251 H   0  0  0  0  0  0  0  0  0  0  0  0
   61.5302   29.3819   47.8504 H   0  0  0  0  0  0  0  0  0  0  0  0
   62.8824   30.9487   49.2384 H   0  0  0  0  0  0  0  0  0  0  0  0
   57.8946   31.1140   49.4421 H   0  0  0  0  0  0  0  0  0  0  0  0
   56.8415   33.2795   46.2993 H   0  0  0  0  0  0  0  0  0  0  0  0
   57.8734   35.4875   46.8159 H   0  0  0  0  0  0  0  0  0  0  0  0
   60.3475   35.6941   47.0438 H   0  0  0  0  0  0  0  0  0  0  0  0
   60.7795   31.4639   46.2486 H   0  0  0  0  0  0  0  0  0  0  0  0
   56.3760   28.8440   45.8850 H   0  0  0  0  0  0  0  0  0  0  0  0
  1  2  2  0
  2  3  1  0
  3  4  1  0
  4  5  1  0
  5  6  1  0
  6  7  1  0
  7  8  1  0
  8  9  1  0
  9 10  2  0
 10 11  1  0
 11 12  2  0
 12 13  1  0
 12 14  1  0
 14 15  1  0
 14 16  2  0
  7 17  1  0
 17 18  2  0
 17 19  1  0
 19 20  2  0
 20 21  1  0
 21 22  2  0
 22 23  1  0
 23 24  1  0
 23 25  2  0
  5 26  1  0
 26  2  1  0
 16  9  1  0
 25 19  1  0
  3 27  1  0
  3 28  1  0
  4 29  1  0
  4 30  1  0
  5 31  1  6
  6 32  1  0
  6 33  1  0
  8 34  1  0
  8 35  1  0
 10 36  1  0
 11 37  1  0
 16 38  1  0
 20 39  1  0
 21 40  1  0
 22 41  1  0
 25 42  1  0
 26 43  1  0
M  END
>  <UniqueID>  (28) 
25

>  <SMILES>  (28) 
O=C1CC[C@H](CN(Cc2ccc(Cl)c(Cl)c2)C(=O)c2cccc(Br)c2)N1

>  <Energy>  (28) 
54.37185993558508

>  <Genealogy>  (28) 
O=C1CC[C@H](CN(Cc2ccc(Cl)c(Cl)c2)C(=O)c2cccc(Br)c2)N1 (chirality)
O=C1CC[C@H](CN(Cc2ccc(Cl)c(Cl)c2)C(=O)c2cccc(Br)c2)N1 (3D coordinates assigned)
O=C1CC[C@H](CN(Cc2ccc(Cl)c(Cl)c2)C(=O)c2cccc(Br)c2)N1 (nonaromatic ring conformer: 54.37185993558508 kcal/mol)

>  <smiles>  (28) 
O=C1CCC(CN(Cc2ccc(Cl)c(Cl)c2)C(=O)c2cccc(Br)c2)N1

>  <score_type>  (28) 
oracle

>  <origin>  (28) 
adg

>  <m_score__min__energy>  (28) 
-9.4399999999999995

>  <m_primary>  (28) 
energy

$$$$
28:0
     RDKit          3D

 48 50  0  0  0  0  0  0  0  0999 V2000
   57.7650   32.0920   42.5880 C   0  0  0  0  0  0  0  0  0  0  0  0
   57.4930   31.6250   43.9490 N   0  0  0  0  0  0  0  0  0  0  0  0
   56.5310   30.5720   44.1550 C   0  0  0  0  0  0  0  0  0  0  0  0
   55.3480   30.8620   44.4850 O   0  0  0  0  0  0  0  0  0  0  0  0
   56.8840   29.1310   43.9460 C   0  0  0  0  0  0  0  0  0  0  0  0
   56.6850   28.3960   45.1490 O   0  0  0  0  0  0  0  0  0  0  0  0
   57.6170   27.4660   45.6200 C   0  0  0  0  0  0  0  0  0  0  0  0
   58.8320   27.7930   45.7190 O   0  0  0  0  0  0  0  0  0  0  0  0
   57.1850   26.1040   46.0200 C   0  0  0  0  0  0  0  0  0  0  0  0
   58.1440   25.0990   46.2300 C   0  0  0  0  0  0  0  0  0  0  0  0
   57.7510   23.8220   46.6330 C   0  0  0  0  0  0  0  0  0  0  0  0
   56.3990   23.5480   46.8170 C   0  0  0  0  0  0  0  0  0  0  0  0
   56.0230   22.4040   47.1880 O   0  0  0  0  0  0  0  0  0  0  0  0
   55.4800   24.5180   46.5950 N   0  0  0  0  0  0  0  0  0  0  0  0
   55.8300   25.7750   46.2100 C   0  0  0  0  0  0  0  0  0  0  0  0
   54.8260   26.7110   46.0030 O   0  0  0  0  0  0  0  0  0  0  0  0
   58.0680   32.3460   45.0550 C   0  0  0  0  0  0  0  0  0  0  0  0
   58.8600   31.6860   46.0180 C   0  0  0  0  0  0  0  0  0  0  0  0
   59.2130   30.3120   45.7900 N   0  0  0  0  0  0  0  0  0  0  0  0
   59.2790   32.3600   47.1490 N   0  0  0  0  0  0  0  0  0  0  0  0
   60.0400   31.6850   48.2240 C   0  0  0  0  0  0  0  0  0  0  0  0
   61.4630   32.1760   48.2990 C   0  0  0  0  0  0  0  0  0  0  0  0
   62.1880   32.0720   49.5000 C   0  0  0  0  0  0  0  0  0  0  0  0
   63.5290   32.4620   49.5530 C   0  0  0  0  0  0  0  0  0  0  0  0
   64.1540   32.9830   48.4170 C   0  0  0  0  0  0  0  0  0  0  0  0
   63.4380   33.0990   47.2240 C   0  0  0  0  0  0  0  0  0  0  0  0
   62.1030   32.6870   47.1580 C   0  0  0  0  0  0  0  0  0  0  0  0
   58.9730   33.6950   47.2840 C   0  0  0  0  0  0  0  0  0  0  0  0
   59.3790   34.3570   48.2780 O   0  0  0  0  0  0  0  0  0  0  0  0
   58.2110   34.3250   46.3580 N   0  0  0  0  0  0  0  0  0  0  0  0
   57.7340   33.6810   45.2710 C   0  0  0  0  0  0  0  0  0  0  0  0
   56.9750   34.2910   44.4730 O   0  0  0  0  0  0  0  0  0  0  0  0
   58.3182   33.0418   42.6300 H   0  0  0  0  0  0  0  0  0  0  0  0
   58.3666   31.3404   42.0558 H   0  0  0  0  0  0  0  0  0  0  0  0
   56.8144   32.2445   42.0558 H   0  0  0  0  0  0  0  0  0  0  0  0
   56.2456   28.7118   43.1544 H   0  0  0  0  0  0  0  0  0  0  0  0
   57.9418   29.0597   43.6529 H   0  0  0  0  0  0  0  0  0  0  0  0
   59.2105   25.3199   46.0759 H   0  0  0  0  0  0  0  0  0  0  0  0
   58.5038   23.0383   46.8038 H   0  0  0  0  0  0  0  0  0  0  0  0
   60.2130   30.0240   45.7320 H   0  0  0  0  0  0  0  0  0  0  0  0
   58.5120   29.5730   45.5780 H   0  0  0  0  0  0  0  0  0  0  0  0
   59.5451   31.8807   49.1867 H   0  0  0  0  0  0  0  0  0  0  0  0
   60.0624   30.6080   48.0011 H   0  0  0  0  0  0  0  0  0  0  0  0
   61.6964   31.6813   50.4031 H   0  0  0  0  0  0  0  0  0  0  0  0
   64.0938   32.3586   50.4912 H   0  0  0  0  0  0  0  0  0  0  0  0
   65.2062   33.3006   48.4625 H   0  0  0  0  0  0  0  0  0  0  0  0
   63.9264   33.5166   46.3312 H   0  0  0  0  0  0  0  0  0  0  0  0
   61.5523   32.7635   46.2089 H   0  0  0  0  0  0  0  0  0  0  0  0
  1  2  1  0
  2  3  1  0
  3  4  2  0
  3  5  1  0
  5  6  1  0
  6  7  1  0
  7  8  2  0
  7  9  1  0
  9 10  1  0
 10 11  2  0
 11 12  1  0
 12 13  2  0
 12 14  1  0
 14 15  1  0
 15 16  1  0
  2 17  1  0
 17 18  2  0
 18 19  1  0
 18 20  1  0
 20 21  1  0
 21 22  1  0
 22 23  2  0
 23 24  1  0
 24 25  2  0
 25 26  1  0
 26 27  2  0
 20 28  1  0
 28 29  2  0
 28 30  1  0
 30 31  1  0
 31 32  2  0
 15  9  2  0
 31 17  1  0
 27 22  1  0
  1 33  1  0
  1 34  1  0
  1 35  1  0
  5 36  1  0
  5 37  1  0
 10 38  1  0
 11 39  1  0
 19 40  1  0
 19 41  1  0
 21 42  1  0
 21 43  1  0
 23 44  1  0
 24 45  1  0
 25 46  1  0
 26 47  1  0
 27 48  1  0
M  CHG  3  14  -1  16  -1  30  -1
M  END
>  <UniqueID>  (29) 
26

>  <SMILES>  (29) 
CN(C(=O)COC(=O)c1ccc(=O)[n-]c1[O-])c1c(N)n(Cc2ccccc2)c(=O)[n-]c1=O

>  <Energy>  (29) 
63.34253589929591

>  <Genealogy>  (29) 
CN(C(=O)COC(=O)c1ccc(=O)[n-]c1[O-])c1c(N)n(Cc2ccccc2)c(=O)[n-]c1=O (protonated)
CN(C(=O)COC(=O)c1ccc(=O)[n-]c1[O-])c1c(N)n(Cc2ccccc2)c(=O)[n-]c1=O (3D coordinates assigned)
CN(C(=O)COC(=O)c1ccc(=O)[n-]c1[O-])c1c(N)n(Cc2ccccc2)c(=O)[n-]c1=O (optimized conformer: 63.34253589929591 kcal/mol)

>  <smiles>  (29) 
CN(C(=O)COC(=O)c1ccc(=O)[nH]c1O)c1c(N)n(Cc2ccccc2)c(=O)[nH]c1=O

>  <score_type>  (29) 
oracle

>  <origin>  (29) 
adg

>  <m_score__min__energy>  (29) 
-16.420000000000002

>  <m_primary>  (29) 
energy

$$$$
29:0
     RDKit          3D

 71 75  0  0  0  0  0  0  0  0999 V2000
   56.0627   30.6651   42.4959 H   0  0  0  0  0  0  0  0  0  0  0  0
   55.9470   29.7190   43.0450 C   0  0  0  0  0  0  0  0  0  0  0  0
   55.1815   28.9928   42.7342 H   0  0  0  0  0  0  0  0  0  0  0  0
   56.7360   29.4520   44.0890 C   0  0  0  0  0  0  0  0  0  0  0  0
   57.7150   30.2870   44.6150 C   0  0  0  0  0  0  0  0  0  0  0  0
   58.1240   31.6110   44.1060 C   0  0  0  0  0  0  0  0  0  0  0  0
   58.4150   31.7330   42.8860 O   0  0  0  0  0  0  0  0  0  0  0  0
   58.2060   32.7520   44.9800 N   0  0  0  0  0  0  0  0  0  0  0  0
   59.2780   33.7370   44.7720 C   0  0  0  0  0  0  0  0  0  0  0  0
   60.2358   33.2888   45.0749 H   0  0  0  0  0  0  0  0  0  0  0  0
   59.2860   34.0106   43.7066 H   0  0  0  0  0  0  0  0  0  0  0  0
   59.0490   35.0190   45.5900 C   0  0  0  0  0  0  0  0  0  0  0  0
   59.9699   35.6198   45.5590 H   0  0  0  0  0  0  0  0  0  0  0  0
   58.1923   35.5400   45.1377 H   0  0  0  0  0  0  0  0  0  0  0  0
   58.6860   34.7550   47.0760 C   0  0  0  0  0  0  0  0  0  0  0  0
   57.9924   35.5668   47.3404 H   0  0  0  0  0  0  0  0  0  0  0  0
   59.8940   34.8970   48.0400 C   0  0  0  0  0  0  0  0  0  0  0  0
   60.2998   35.9136   47.9317 H   0  0  0  0  0  0  0  0  0  0  0  0
   59.5098   34.6866   49.0490 H   0  0  0  0  0  0  0  0  0  0  0  0
   61.0190   33.9140   47.8010 C   0  0  0  0  0  0  0  0  0  0  0  0
   61.0310   32.6700   48.4550 C   0  0  0  0  0  0  0  0  0  0  0  0
   60.2198   32.4102   49.1510 H   0  0  0  0  0  0  0  0  0  0  0  0
   62.0680   31.7610   48.2260 C   0  0  0  0  0  0  0  0  0  0  0  0
   62.0755   30.7942   48.7506 H   0  0  0  0  0  0  0  0  0  0  0  0
   63.0960   32.0770   47.3320 C   0  0  0  0  0  0  0  0  0  0  0  0
   64.0990   31.1900   47.1070 F   0  0  0  0  0  0  0  0  0  0  0  0
   63.0830   33.3010   46.6610 C   0  0  0  0  0  0  0  0  0  0  0  0
   63.8891   33.5491   45.9548 H   0  0  0  0  0  0  0  0  0  0  0  0
   62.0450   34.2130   46.8860 C   0  0  0  0  0  0  0  0  0  0  0  0
   62.0315   35.1699   46.3437 H   0  0  0  0  0  0  0  0  0  0  0  0
   57.8910   33.4430   47.3020 C   0  0  0  0  0  0  0  0  0  0  0  0
   58.5856   32.6603   47.6410 H   0  0  0  0  0  0  0  0  0  0  0  0
   57.1160   33.6399   48.0574 H   0  0  0  0  0  0  0  0  0  0  0  0
   57.1990   32.9700   46.0270 C   0  0  0  0  0  0  0  0  0  0  0  0
   56.6660   32.0285   46.2259 H   0  0  0  0  0  0  0  0  0  0  0  0
   56.4800   33.7327   45.6935 H   0  0  0  0  0  0  0  0  0  0  0  0
   58.2460   29.6210   45.7100 C   0  0  0  0  0  0  0  0  0  0  0  0
   59.3630   30.0920   46.5970 C   0  0  0  0  0  0  0  0  0  0  0  0
   59.0714   29.9690   47.6505 H   0  0  0  0  0  0  0  0  0  0  0  0
   60.2668   29.4984   46.3950 H   0  0  0  0  0  0  0  0  0  0  0  0
   59.5689   31.1535   46.3950 H   0  0  0  0  0  0  0  0  0  0  0  0
   57.5610   28.4140   45.8060 C   0  0  0  0  0  0  0  0  0  0  0  0
   57.7930   27.4620   46.7260 C   0  0  0  0  0  0  0  0  0  0  0  0
   57.6862   27.7318   47.7870 H   0  0  0  0  0  0  0  0  0  0  0  0
   58.1820   26.0780   46.3990 C   0  0  0  0  0  0  0  0  0  0  0  0
   59.4560   25.5190   46.3830 C   0  0  0  0  0  0  0  0  0  0  0  0
   60.6210   26.1840   46.7460 O   0  0  0  0  0  0  0  0  0  0  0  0
   59.4530   24.2480   45.9180 N   0  0  0  0  0  0  0  0  0  0  0  0
   58.1610   24.0130   45.6170 C   0  0  0  0  0  0  0  0  0  0  0  0
   57.6320   22.8390   45.0830 C   0  0  0  0  0  0  0  0  0  0  0  0
   58.2759   21.9718   44.8749 H   0  0  0  0  0  0  0  0  0  0  0  0
   56.2520   22.7950   44.8180 C   0  0  0  0  0  0  0  0  0  0  0  0
   55.8058   21.8806   44.4000 H   0  0  0  0  0  0  0  0  0  0  0  0
   55.4310   23.9190   45.0850 C   0  0  0  0  0  0  0  0  0  0  0  0
   53.6980   23.8540   44.7790 S   0  0  0  0  0  0  0  0  0  0  0  0
   53.4400   23.7220   43.3040 O   0  0  0  0  0  0  0  0  0  0  0  0
   53.0780   25.1370   45.2600 O   0  0  0  0  0  0  0  0  0  0  0  0
   52.9970   22.5040   45.6370 N   0  0  0  0  0  0  0  0  0  0  0  0
   51.5520   22.7160   45.7910 C   0  0  0  0  0  0  0  0  0  0  0  0
   51.2988   22.7531   46.8608 H   0  0  0  0  0  0  0  0  0  0  0  0
   51.2678   23.6655   45.3138 H   0  0  0  0  0  0  0  0  0  0  0  0
   51.0070   21.8882   45.3138 H   0  0  0  0  0  0  0  0  0  0  0  0
   53.6320   22.3830   46.9550 C   0  0  0  0  0  0  0  0  0  0  0  0
   52.8759   22.5271   47.7409 H   0  0  0  0  0  0  0  0  0  0  0  0
   54.0798   21.3834   47.0559 H   0  0  0  0  0  0  0  0  0  0  0  0
   54.4161   23.1479   47.0559 H   0  0  0  0  0  0  0  0  0  0  0  0
   55.9950   25.0900   45.6260 C   0  0  0  0  0  0  0  0  0  0  0  0
   55.3726   25.9707   45.8426 H   0  0  0  0  0  0  0  0  0  0  0  0
   57.3660   25.1000   45.8790 C   0  0  0  0  0  0  0  0  0  0  0  0
   56.6530   28.3170   44.8080 N   0  0  0  0  0  0  0  0  0  0  0  0
   56.0260   27.5090   44.6000 H   0  0  0  0  0  0  0  0  0  0  0  0
  1  2  1  0
  2  3  1  0
  2  4  2  0
  4  5  1  0
  5  6  1  0
  6  7  2  0
  6  8  1  0
  8  9  1  0
  9 10  1  0
  9 11  1  0
  9 12  1  0
 12 13  1  0
 12 14  1  0
 12 15  1  0
 15 16  1  0
 15 17  1  0
 17 18  1  0
 17 19  1  0
 17 20  1  0
 20 21  2  0
 21 22  1  0
 21 23  1  0
 23 24  1  0
 23 25  2  0
 25 26  1  0
 25 27  1  0
 27 28  1  0
 27 29  2  0
 29 30  1  0
 15 31  1  0
 31 32  1  0
 31 33  1  0
 31 34  1  0
 34 35  1  0
 34 36  1  0
  5 37  2  0
 37 38  1  0
 38 39  1  0
 38 40  1  0
 38 41  1  0
 37 42  1  0
 42 43  2  0
 43 44  1  0
 43 45  1  0
 45 46  2  0
 46 47  1  0
 46 48  1  0
 48 49  1  0
 49 50  2  0
 50 51  1  0
 50 52  1  0
 52 53  1  0
 52 54  2  0
 54 55  1  0
 55 56  2  0
 55 57  2  0
 55 58  1  0
 58 59  1  0
 59 60  1  0
 59 61  1  0
 59 62  1  0
 58 63  1  0
 63 64  1  0
 63 65  1  0
 63 66  1  0
 54 67  1  0
 67 68  1  0
 67 69  2  0
 42 70  1  0
 70 71  1  0
 70  4  1  0
 34  8  1  0
 69 45  1  0
 29 20  1  0
 69 49  1  0
M  CHG  2  47  -1  48  -1
M  END
>  <UniqueID>  (30) 
27

>  <SMILES>  (30) 
C=c1[nH]/c(=C\c2c([O-])[n-]c3ccc(S(=O)(=O)N(C)C)cc23)c(C)c1C(=O)N1CCC(Cc2ccc(F)cc2)CC1

>  <Energy>  (30) 
146.27806933794963

>  <Genealogy>  (30) 
C=c1[nH]c(=Cc2c([O-])[n-]c3ccc(S(=O)(=O)N(C)C)cc23)c(C)c1C(=O)N1CCC(Cc2ccc(F)cc2)CC1 (protonated)
C=c1[nH]/c(=C\c2c([O-])[n-]c3ccc(S(=O)(=O)N(C)C)cc23)c(C)c1C(=O)N1CCC(Cc2ccc(F)cc2)CC1 (cis-trans isomerization)
C=c1[nH]/c(=C\c2c([O-])[n-]c3ccc(S(=O)(=O)N(C)C)cc23)c(C)c1C(=O)N1CCC(Cc2ccc(F)cc2)CC1 (3D coordinates assigned)
C=c1[nH]/c(=C\c2c([O-])[n-]c3ccc(S(=O)(=O)N(C)C)cc23)c(C)c1C(=O)N1CCC(Cc2ccc(F)cc2)CC1 (nonaromatic ring conformer: 146.27806933794963 kcal/mol)

>  <smiles>  (30) 
C=c1[nH]c(=Cc2c(O)[nH]c3ccc(S(=O)(=O)N(C)C)cc23)c(C)c1C(=O)N1CCC(Cc2ccc(F)cc2)CC1

>  <score_type>  (30) 
oracle

>  <origin>  (30) 
adg

>  <m_score__min__energy>  (30) 
-13.91

>  <m_primary>  (30) 
energy

$$$$
30:0
     RDKit          3D

 28 29  0  0  0  0  0  0  0  0999 V2000
   55.9519   31.2208   44.1006 H   0  0  0  0  0  0  0  0  0  0  0  0
   56.9700   30.8510   44.2920 C   0  0  0  0  0  0  0  0  0  0  0  0
   58.0060   31.6710   44.0700 C   0  0  0  0  0  0  0  0  0  0  0  0
   58.5628   31.5730   43.1264 H   0  0  0  0  0  0  0  0  0  0  0  0
   58.4330   32.7040   45.0420 C   0  0  0  0  0  0  0  0  0  0  0  0
   58.8280   33.9560   44.5440 C   0  0  0  0  0  0  0  0  0  0  0  0
   58.8164   34.1390   43.4594 H   0  0  0  0  0  0  0  0  0  0  0  0
   59.2350   34.9700   45.4110 C   0  0  0  0  0  0  0  0  0  0  0  0
   59.5323   35.9502   45.0100 H   0  0  0  0  0  0  0  0  0  0  0  0
   59.2650   34.7410   46.7860 C   0  0  0  0  0  0  0  0  0  0  0  0
   59.5748   35.5452   47.4696 H   0  0  0  0  0  0  0  0  0  0  0  0
   58.9030   33.4940   47.2970 C   0  0  0  0  0  0  0  0  0  0  0  0
   58.9346   33.3192   48.3826 H   0  0  0  0  0  0  0  0  0  0  0  0
   58.4970   32.4560   46.4330 C   0  0  0  0  0  0  0  0  0  0  0  0
   58.1860   31.1760   46.9220 O   0  0  0  0  0  0  0  0  0  0  0  0
   59.0930   30.3330   47.6240 C   0  0  0  0  0  0  0  0  0  0  0  0
   58.9520   30.4641   48.7070 H   0  0  0  0  0  0  0  0  0  0  0  0
   58.9025   29.2839   47.3537 H   0  0  0  0  0  0  0  0  0  0  0  0
   60.1254   30.5996   47.3537 H   0  0  0  0  0  0  0  0  0  0  0  0
   57.1430   29.4720   44.7830 C   0  0  0  0  0  0  0  0  0  0  0  0
   58.3950   28.9420   44.8520 N   0  0  0  0  0  0  0  0  0  0  0  0
   58.5970   27.6750   45.2960 C   0  0  0  0  0  0  0  0  0  0  0  0
   59.7660   27.2090   45.3500 O   0  0  0  0  0  0  0  0  0  0  0  0
   57.5100   26.8940   45.6910 C   0  0  0  0  0  0  0  0  0  0  0  0
   57.6568   25.8658   46.0534 H   0  0  0  0  0  0  0  0  0  0  0  0
   56.2340   27.4490   45.6150 C   0  0  0  0  0  0  0  0  0  0  0  0
   55.1250   26.7060   45.9970 O   0  0  0  0  0  0  0  0  0  0  0  0
   56.0730   28.7200   45.1650 N   0  0  0  0  0  0  0  0  0  0  0  0
  1  2  1  0
  2  3  2  0
  3  4  1  0
  3  5  1  0
  5  6  2  0
  6  7  1  0
  6  8  1  0
  8  9  1  0
  8 10  2  0
 10 11  1  0
 10 12  1  0
 12 13  1  0
 12 14  2  0
 14 15  1  0
 15 16  1  0
 16 17  1  0
 16 18  1  0
 16 19  1  0
  2 20  1  0
 20 21  2  0
 21 22  1  0
 22 23  2  0
 22 24  1  0
 24 25  1  0
 24 26  2  0
 26 27  1  0
 26 28  1  0
 14  5  1  0
 28 20  1  0
M  CHG  2  27  -1  28  -1
M  END
>  <UniqueID>  (31) 
28

>  <SMILES>  (31) 
COc1ccccc1/C=C/c1nc(=O)cc([O-])[n-]1

>  <Energy>  (31) 
33.276292823230705

>  <Genealogy>  (31) 
COc1ccccc1C=Cc1nc(=O)cc([O-])[n-]1 (protonated)
COc1ccccc1/C=C/c1nc(=O)cc([O-])[n-]1 (cis-trans isomerization)
COc1ccccc1/C=C/c1nc(=O)cc([O-])[n-]1 (3D coordinates assigned)
COc1ccccc1/C=C/c1nc(=O)cc([O-])[n-]1 (optimized conformer: 33.276292823230705 kcal/mol)

>  <smiles>  (31) 
COc1ccccc1C=Cc1nc(=O)cc(O)[nH]1

>  <score_type>  (31) 
oracle

>  <origin>  (31) 
adg

>  <m_score__min__energy>  (31) 
-12.19

>  <m_primary>  (31) 
energy

$$$$
31:0
     RDKit          3D

 28 29  0  0  0  0  0  0  0  0999 V2000
   63.4470   33.5510   49.1960 C   0  0  0  0  0  0  0  0  0  0  0  0
   62.1930   33.7240   48.4570 N   0  0  0  0  0  0  0  0  0  0  0  0
   61.0460   34.0340   49.1320 C   0  0  0  0  0  0  0  0  0  0  0  0
   59.8490   34.2380   48.4430 C   0  0  0  0  0  0  0  0  0  0  0  0
   59.8300   34.1450   47.0450 C   0  0  0  0  0  0  0  0  0  0  0  0
   58.5430   34.3220   46.2870 C   0  0  0  0  0  0  0  0  0  0  0  0
   58.2810   33.1210   45.4200 C   0  0  0  0  0  0  0  0  0  0  0  0
   58.0870   31.8560   45.9990 C   0  0  0  0  0  0  0  0  0  0  0  0
   57.8080   30.7490   45.1930 C   0  0  0  0  0  0  0  0  0  0  0  0
   57.7120   30.8960   43.8070 C   0  0  0  0  0  0  0  0  0  0  0  0
   57.8910   32.1540   43.2230 C   0  0  0  0  0  0  0  0  0  0  0  0
   57.7600   32.3400   41.4830 Cl  0  0  0  0  0  0  0  0  0  0  0  0
   58.1710   33.2660   44.0260 C   0  0  0  0  0  0  0  0  0  0  0  0
   61.0160   33.8340   46.3680 C   0  0  0  0  0  0  0  0  0  0  0  0
   62.1940   33.6370   47.0930 C   0  0  0  0  0  0  0  0  0  0  0  0
   63.2427   33.5792   50.2765 H   0  0  0  0  0  0  0  0  0  0  0  0
   63.8969   32.5823   48.9330 H   0  0  0  0  0  0  0  0  0  0  0  0
   64.1424   34.3617   48.9330 H   0  0  0  0  0  0  0  0  0  0  0  0
   61.0660   34.1236   50.2282 H   0  0  0  0  0  0  0  0  0  0  0  0
   58.9260   34.4704   48.9945 H   0  0  0  0  0  0  0  0  0  0  0  0
   57.7147   34.4425   47.0007 H   0  0  0  0  0  0  0  0  0  0  0  0
   58.6222   35.2146   45.6491 H   0  0  0  0  0  0  0  0  0  0  0  0
   58.1549   31.7364   47.0904 H   0  0  0  0  0  0  0  0  0  0  0  0
   57.6636   29.7594   45.6510 H   0  0  0  0  0  0  0  0  0  0  0  0
   57.4956   30.0221   43.1750 H   0  0  0  0  0  0  0  0  0  0  0  0
   58.3053   34.2557   43.5651 H   0  0  0  0  0  0  0  0  0  0  0  0
   61.0200   33.7453   45.2716 H   0  0  0  0  0  0  0  0  0  0  0  0
   63.1300   33.4100   46.5616 H   0  0  0  0  0  0  0  0  0  0  0  0
  1  2  1  0
  2  3  2  0
  3  4  1  0
  4  5  2  0
  5  6  1  0
  6  7  1  0
  7  8  2  0
  8  9  1  0
  9 10  2  0
 10 11  1  0
 11 12  1  0
 11 13  2  0
  5 14  1  0
 14 15  2  0
 15  2  1  0
 13  7  1  0
  1 16  1  0
  1 17  1  0
  1 18  1  0
  3 19  1  0
  4 20  1  0
  6 21  1  0
  6 22  1  0
  8 23  1  0
  9 24  1  0
 10 25  1  0
 13 26  1  0
 14 27  1  0
 15 28  1  0
M  CHG  1   2   1
M  END
>  <UniqueID>  (32) 
29

>  <SMILES>  (32) 
C[n+]1ccc(Cc2cccc(Cl)c2)cc1

>  <Energy>  (32) 
27.016633779170032

>  <Genealogy>  (32) 
C[n+]1ccc(Cc2cccc(Cl)c2)cc1 (3D coordinates assigned)
C[n+]1ccc(Cc2cccc(Cl)c2)cc1 (optimized conformer: 27.016633779170032 kcal/mol)

>  <smiles>  (32) 
C[n+]1ccc(Cc2cccc(Cl)c2)cc1

>  <score_type>  (32) 
oracle

>  <origin>  (32) 
adg

>  <m_score__min__energy>  (32) 
-4.9100000000000001

>  <m_primary>  (32) 
energy

$$$$
32:0
     RDKit          3D

 64 68  0  0  0  0  0  0  0  0999 V2000
   58.9140   31.5390   45.2530 O   0  0  0  0  0  0  0  0  0  0  0  0
   58.4360   30.7230   46.0880 C   0  0  0  0  0  0  0  0  0  0  0  0
   57.3850   29.7500   45.6390 C   0  0  0  0  0  0  0  0  0  0  0  0
   57.9500   28.3900   45.5440 N   0  0  0  0  0  0  0  0  0  0  0  0
   58.0990   27.7950   46.8960 C   0  0  0  0  0  0  0  0  0  0  0  0
   59.0540   26.5970   46.8830 C   0  0  0  0  0  0  0  0  0  0  0  0
   60.4700   27.0230   46.4590 C   0  0  0  0  0  0  0  0  0  0  0  0
   60.4690   28.2760   45.5670 C   0  0  0  0  0  0  0  0  0  0  0  0
   59.1910   28.3530   44.7210 C   0  0  0  0  0  0  0  0  0  0  0  0
   58.9170   30.6970   47.4400 N   0  0  0  0  0  0  0  0  0  0  0  0
   59.8030   31.6930   47.9840 C   0  0  0  0  0  0  0  0  0  0  0  0
   60.0010   32.9060   47.2980 C   0  0  0  0  0  0  0  0  0  0  0  0
   60.8230   33.8990   47.8320 C   0  0  0  0  0  0  0  0  0  0  0  0
   61.4460   33.7010   49.0630 C   0  0  0  0  0  0  0  0  0  0  0  0
   61.2510   32.5100   49.7650 C   0  0  0  0  0  0  0  0  0  0  0  0
   60.4340   31.4950   49.2360 C   0  0  0  0  0  0  0  0  0  0  0  0
   60.2320   29.9800   50.1340 S   0  0  0  0  0  0  0  0  0  0  0  0
   61.4020   29.7840   51.0570 O   0  0  0  0  0  0  0  0  0  0  0  0
   60.1780   28.8310   49.1660 O   0  0  0  0  0  0  0  0  0  0  0  0
   58.7600   29.9910   51.1030 C   0  0  0  0  0  0  0  0  0  0  0  0
   58.5630   29.0260   52.1000 C   0  0  0  0  0  0  0  0  0  0  0  0
   57.3870   29.0230   52.8550 C   0  0  0  0  0  0  0  0  0  0  0  0
   56.3850   29.9780   52.6130 C   0  0  0  0  0  0  0  0  0  0  0  0
   55.1460   29.9970   53.4210 C   0  0  0  0  0  0  0  0  0  0  0  0
   55.1380   29.3680   54.5620 N   0  0  0  0  0  0  0  0  0  0  0  0
   53.9680   29.3250   55.4430 C   0  0  0  0  0  0  0  0  0  0  0  0
   52.6740   29.2220   54.6270 C   0  0  0  0  0  0  0  0  0  0  0  0
   52.6710   30.2640   53.5400 C   0  0  0  0  0  0  0  0  0  0  0  0
   51.4660   30.8270   53.0920 C   0  0  0  0  0  0  0  0  0  0  0  0
   51.4750   31.7850   52.0740 C   0  0  0  0  0  0  0  0  0  0  0  0
   50.2800   32.3450   51.6380 O   0  0  0  0  0  0  0  0  0  0  0  0
   52.6840   32.1820   51.4960 C   0  0  0  0  0  0  0  0  0  0  0  0
   53.8870   31.6160   51.9250 C   0  0  0  0  0  0  0  0  0  0  0  0
   53.8890   30.6330   52.9310 C   0  0  0  0  0  0  0  0  0  0  0  0
   56.5930   30.9510   51.6210 C   0  0  0  0  0  0  0  0  0  0  0  0
   57.7680   30.9500   50.8650 C   0  0  0  0  0  0  0  0  0  0  0  0
   56.5582   29.7491   46.3645 H   0  0  0  0  0  0  0  0  0  0  0  0
   57.0176   30.0538   44.6477 H   0  0  0  0  0  0  0  0  0  0  0  0
   58.4947   28.5595   47.5808 H   0  0  0  0  0  0  0  0  0  0  0  0
   57.1109   27.4437   47.2280 H   0  0  0  0  0  0  0  0  0  0  0  0
   59.0969   26.1607   47.8918 H   0  0  0  0  0  0  0  0  0  0  0  0
   58.6793   25.8589   46.1585 H   0  0  0  0  0  0  0  0  0  0  0  0
   61.0597   27.2348   47.3631 H   0  0  0  0  0  0  0  0  0  0  0  0
   60.9047   26.1987   45.8747 H   0  0  0  0  0  0  0  0  0  0  0  0
   60.5320   29.1703   46.2043 H   0  0  0  0  0  0  0  0  0  0  0  0
   61.3333   28.2218   44.8888 H   0  0  0  0  0  0  0  0  0  0  0  0
   59.2316   29.2646   44.1067 H   0  0  0  0  0  0  0  0  0  0  0  0
   59.1496   27.4435   44.1036 H   0  0  0  0  0  0  0  0  0  0  0  0
   58.6420   29.8900   48.0420 H   0  0  0  0  0  0  0  0  0  0  0  0
   59.5029   33.0727   46.3315 H   0  0  0  0  0  0  0  0  0  0  0  0
   60.9794   34.8383   47.2813 H   0  0  0  0  0  0  0  0  0  0  0  0
   62.0931   34.4853   49.4826 H   0  0  0  0  0  0  0  0  0  0  0  0
   61.7402   32.3645   50.7394 H   0  0  0  0  0  0  0  0  0  0  0  0
   59.3372   28.2678   52.2890 H   0  0  0  0  0  0  0  0  0  0  0  0
   57.2449   28.2689   53.6431 H   0  0  0  0  0  0  0  0  0  0  0  0
   54.0473   28.4501   56.1050 H   0  0  0  0  0  0  0  0  0  0  0  0
   53.9384   30.2520   56.0345 H   0  0  0  0  0  0  0  0  0  0  0  0
   52.6068   28.2218   54.1740 H   0  0  0  0  0  0  0  0  0  0  0  0
   51.8125   29.3876   55.2906 H   0  0  0  0  0  0  0  0  0  0  0  0
   50.5127   30.5139   53.5427 H   0  0  0  0  0  0  0  0  0  0  0  0
   52.6883   32.9423   50.7010 H   0  0  0  0  0  0  0  0  0  0  0  0
   54.8365   31.9404   51.4742 H   0  0  0  0  0  0  0  0  0  0  0  0
   55.8261   31.7182   51.4384 H   0  0  0  0  0  0  0  0  0  0  0  0
   57.9144   31.7059   50.0794 H   0  0  0  0  0  0  0  0  0  0  0  0
  1  2  2  0
  2  3  1  0
  3  4  1  0
  4  5  1  0
  5  6  1  0
  6  7  1  0
  7  8  1  0
  8  9  1  0
  2 10  1  0
 10 11  1  0
 11 12  2  0
 12 13  1  0
 13 14  2  0
 14 15  1  0
 15 16  2  0
 16 17  1  0
 17 18  2  0
 17 19  2  0
 17 20  1  0
 20 21  2  0
 21 22  1  0
 22 23  2  0
 23 24  1  0
 24 25  2  0
 25 26  1  0
 26 27  1  0
 27 28  1  0
 28 29  2  0
 29 30  1  0
 30 31  1  0
 30 32  2  0
 32 33  1  0
 33 34  2  0
 23 35  1  0
 35 36  2  0
  9  4  1  0
 16 11  1  0
 36 20  1  0
 34 24  1  0
 34 28  1  0
  3 37  1  0
  3 38  1  0
  5 39  1  0
  5 40  1  0
  6 41  1  0
  6 42  1  0
  7 43  1  0
  7 44  1  0
  8 45  1  0
  8 46  1  0
  9 47  1  0
  9 48  1  0
 10 49  1  0
 12 50  1  0
 13 51  1  0
 14 52  1  0
 15 53  1  0
 21 54  1  0
 22 55  1  0
 26 56  1  0
 26 57  1  0
 27 58  1  0
 27 59  1  0
 29 60  1  0
 32 61  1  0
 33 62  1  0
 35 63  1  0
 36 64  1  0
M  CHG  1  31  -1
M  END
>  <UniqueID>  (33) 
30

>  <SMILES>  (33) 
O=C(CN1CCCCC1)Nc1ccccc1S(=O)(=O)c1ccc(C2=NCCc3cc([O-])ccc32)cc1

>  <Energy>  (33) 
89.80318489311155

>  <Genealogy>  (33) 
O=C(CN1CCCCC1)Nc1ccccc1S(=O)(=O)c1ccc(C2=NCCc3cc([O-])ccc32)cc1 (protonated)
O=C(CN1CCCCC1)Nc1ccccc1S(=O)(=O)c1ccc(C2=NCCc3cc([O-])ccc32)cc1 (3D coordinates assigned)
O=C(CN1CCCCC1)Nc1ccccc1S(=O)(=O)c1ccc(C2=NCCc3cc([O-])ccc32)cc1 (nonaromatic ring conformer: 89.80318489311155 kcal/mol)

>  <smiles>  (33) 
O=C(CN1CCCCC1)Nc1ccccc1S(=O)(=O)c1ccc(C2=NCCc3cc(O)ccc32)cc1

>  <score_type>  (33) 
oracle

>  <origin>  (33) 
adg

>  <m_score__min__energy>  (33) 
-11.970000000000001

>  <m_primary>  (33) 
energy

$$$$
33:0
     RDKit          3D

 51 54  0  0  1  0  0  0  0  0999 V2000
   59.5290   33.3680   49.3440 O   0  0  0  0  0  0  0  0  0  0  0  0
   59.1450   32.1550   49.1990 C   0  0  0  0  0  0  0  0  0  0  0  0
   59.2390   31.2850   50.3820 C   0  0  0  0  0  0  0  0  0  0  0  0
   58.6980   29.9530   50.1890 N   0  0  0  0  0  0  0  0  0  0  0  0
   59.1230   29.1300   49.2910 C   0  0  0  0  0  0  0  0  0  0  0  0
   58.4630   29.0150   48.1340 N   0  0  0  0  0  0  0  0  0  0  0  0
   58.8010   28.2060   47.1180 C   0  0  0  0  0  0  0  0  0  0  0  0
   58.1010   28.1040   45.8960 N   0  0  0  0  0  0  0  0  0  0  0  0
   57.8550   29.1740   45.0010 C   0  0  0  0  0  0  0  0  0  0  0  0
   58.7840   30.1070   44.6140 C   0  0  0  0  0  0  0  0  0  0  0  0
   58.4910   31.1460   43.7530 C   0  0  0  0  0  0  0  0  0  0  0  0
   57.2300   31.3000   43.2300 C   0  0  0  0  0  0  0  0  0  0  0  0
   56.2770   30.3740   43.6020 C   0  0  0  0  0  0  0  0  0  0  0  0
   56.5720   29.3450   44.4580 C   0  0  0  0  0  0  0  0  0  0  0  0
   57.5620   26.8270   45.5140 C   0  0  0  0  0  0  0  0  0  0  0  0
   56.6260   26.1810   46.3300 C   0  0  0  0  0  0  0  0  0  0  0  0
   56.0910   24.9670   46.0500 C   0  0  0  0  0  0  0  0  0  0  0  0
   56.4810   24.3020   44.8870 C   0  0  0  0  0  0  0  0  0  0  0  0
   57.4060   24.9320   44.0740 C   0  0  0  0  0  0  0  0  0  0  0  0
   57.9460   26.1710   44.3680 C   0  0  0  0  0  0  0  0  0  0  0  0
   59.9490   27.4370   47.3410 C   0  0  0  0  0  0  0  0  0  0  0  0
   60.6260   27.5670   48.5510 C   0  0  0  0  0  0  0  0  0  0  0  0
   60.2270   28.4000   49.5230 N   0  0  0  0  0  0  0  0  0  0  0  0
   58.6700   31.7520   47.9300 N   0  0  0  0  0  0  0  0  0  0  0  0
   58.6510   32.7330   46.8980 C   0  0  0  0  0  0  0  0  0  0  0  0
   59.7960   33.3070   46.3890 C   0  0  0  0  0  0  0  0  0  0  0  0
   59.7030   34.2540   45.3830 C   0  0  0  0  0  0  0  0  0  0  0  0
   58.4780   34.6450   44.8720 C   0  0  0  0  0  0  0  0  0  0  0  0
   57.3210   34.0670   45.3860 C   0  0  0  0  0  0  0  0  0  0  0  0
   57.4000   33.1090   46.3990 C   0  0  0  0  0  0  0  0  0  0  0  0
   60.3001   31.1893   50.6556 H   0  0  0  0  0  0  0  0  0  0  0  0
   58.6349   31.7588   51.1697 H   0  0  0  0  0  0  0  0  0  0  0  0
   59.8079   30.0234   45.0073 H   0  0  0  0  0  0  0  0  0  0  0  0
   59.2804   31.8623   43.4813 H   0  0  0  0  0  0  0  0  0  0  0  0
   56.9903   32.1260   42.5442 H   0  0  0  0  0  0  0  0  0  0  0  0
   55.2562   30.4638   43.2020 H   0  0  0  0  0  0  0  0  0  0  0  0
   55.7793   28.6316   44.7276 H   0  0  0  0  0  0  0  0  0  0  0  0
   56.3058   26.6878   47.2523 H   0  0  0  0  0  0  0  0  0  0  0  0
   55.3578   24.5115   46.7319 H   0  0  0  0  0  0  0  0  0  0  0  0
   56.0692   23.3157   44.6269 H   0  0  0  0  0  0  0  0  0  0  0  0
   57.7266   24.4247   43.1521 H   0  0  0  0  0  0  0  0  0  0  0  0
   58.6793   26.6295   43.6882 H   0  0  0  0  0  0  0  0  0  0  0  0
   60.3114   26.7397   46.5713 H   0  0  0  0  0  0  0  0  0  0  0  0
   61.5279   26.9595   48.7167 H   0  0  0  0  0  0  0  0  0  0  0  0
   60.7550   28.4740   50.4190 H   0  0  0  0  0  0  0  0  0  0  0  0
   58.3560   30.7660   47.8010 H   0  0  0  0  0  0  0  0  0  0  0  0
   60.7811   33.0136   46.7809 H   0  0  0  0  0  0  0  0  0  0  0  0
   60.6225   34.7050   44.9816 H   0  0  0  0  0  0  0  0  0  0  0  0
   58.4197   35.3994   44.0736 H   0  0  0  0  0  0  0  0  0  0  0  0
   56.3386   34.3665   44.9920 H   0  0  0  0  0  0  0  0  0  0  0  0
   56.4837   32.6529   46.8020 H   0  0  0  0  0  0  0  0  0  0  0  0
  1  2  2  0
  2  3  1  0
  3  4  1  0
  4  5  2  0
  5  6  1  0
  6  7  2  0
  7  8  1  0
  8  9  1  0
  9 10  2  0
 10 11  1  0
 11 12  2  0
 12 13  1  0
 13 14  2  0
  8 15  1  0
 15 16  2  0
 16 17  1  0
 17 18  2  0
 18 19  1  0
 19 20  2  0
  7 21  1  0
 21 22  2  0
 22 23  1  0
  2 24  1  0
 24 25  1  0
 25 26  2  0
 26 27  1  0
 27 28  2  0
 28 29  1  0
 29 30  2  0
 23  5  1  0
 30 25  1  0
 14  9  1  0
 20 15  1  0
  3 31  1  0
  3 32  1  0
 10 33  1  0
 11 34  1  0
 12 35  1  0
 13 36  1  0
 14 37  1  0
 16 38  1  0
 17 39  1  0
 18 40  1  0
 19 41  1  0
 20 42  1  0
 21 43  1  0
 22 44  1  0
 23 45  1  0
 24 46  1  0
 26 47  1  0
 27 48  1  0
 28 49  1  0
 29 50  1  0
 30 51  1  0
M  END
>  <smiles>  (34) 
O=C(CN=c1nc(N(c2ccccc2)c2ccccc2)cc[nH]1)Nc1ccccc1

>  <score_type>  (34) 
oracle

>  <origin>  (34) 
adg

>  <m_score__min__energy>  (34) 
-9.1699999999999999

>  <m_primary>  (34) 
energy

$$$$
34:0
     RDKit          3D

 36 37  0  0  0  0  0  0  0  0999 V2000
   57.2340   34.5820   44.8770 C   0  0  0  0  0  0  0  0  0  0  0  0
   58.1130   33.6830   45.6840 C   0  0  0  0  0  0  0  0  0  0  0  0
   58.8010   34.1780   46.7950 C   0  0  0  0  0  0  0  0  0  0  0  0
   59.6330   33.3300   47.5360 C   0  0  0  0  0  0  0  0  0  0  0  0
   60.3520   33.8540   48.6660 N   0  0  0  0  0  0  0  0  0  0  0  0
   61.8030   34.0060   48.5830 C   0  0  0  0  0  0  0  0  0  0  0  0
   59.7310   33.7860   49.9880 C   0  0  0  0  0  0  0  0  0  0  0  0
   59.7620   31.9770   47.1520 C   0  0  0  0  0  0  0  0  0  0  0  0
   60.5590   31.0760   47.8790 C   0  0  0  0  0  0  0  0  0  0  0  0
   60.6670   29.7470   47.4700 C   0  0  0  0  0  0  0  0  0  0  0  0
   59.9820   29.2970   46.3410 C   0  0  0  0  0  0  0  0  0  0  0  0
   59.1600   30.1710   45.6040 C   0  0  0  0  0  0  0  0  0  0  0  0
   58.4510   29.7150   44.4350 N   0  0  0  0  0  0  0  0  0  0  0  0
   56.7200   29.6940   44.2990 S   0  0  0  0  0  0  0  0  0  0  0  0
   56.2370   29.3990   42.6120 C   0  0  0  0  0  0  0  0  0  0  0  0
   56.1490   30.9950   44.7890 O   0  0  0  0  0  0  0  0  0  0  0  0
   56.1810   28.5780   45.1490 O   0  0  0  0  0  0  0  0  0  0  0  0
   59.0560   31.5180   46.0140 C   0  0  0  0  0  0  0  0  0  0  0  0
   58.2600   32.3810   45.3240 N   0  0  0  0  0  0  0  0  0  0  0  0
   56.6266   35.2032   45.5517 H   0  0  0  0  0  0  0  0  0  0  0  0
   57.8563   35.2303   44.2426 H   0  0  0  0  0  0  0  0  0  0  0  0
   56.5719   33.9745   44.2426 H   0  0  0  0  0  0  0  0  0  0  0  0
   58.6891   35.2326   47.0871 H   0  0  0  0  0  0  0  0  0  0  0  0
   62.2257   34.0503   49.5976 H   0  0  0  0  0  0  0  0  0  0  0  0
   62.2314   33.1478   48.0445 H   0  0  0  0  0  0  0  0  0  0  0  0
   62.0442   34.9343   48.0445 H   0  0  0  0  0  0  0  0  0  0  0  0
   60.5074   33.8710   50.7626 H   0  0  0  0  0  0  0  0  0  0  0  0
   59.0115   34.6107   50.0980 H   0  0  0  0  0  0  0  0  0  0  0  0
   59.2070   32.8251   50.0980 H   0  0  0  0  0  0  0  0  0  0  0  0
   61.0992   31.4201   48.7733 H   0  0  0  0  0  0  0  0  0  0  0  0
   61.2965   29.0490   48.0414 H   0  0  0  0  0  0  0  0  0  0  0  0
   60.0851   28.2489   46.0234 H   0  0  0  0  0  0  0  0  0  0  0  0
   58.9840   29.4770   43.5690 H   0  0  0  0  0  0  0  0  0  0  0  0
   55.2984   28.8257   42.5942 H   0  0  0  0  0  0  0  0  0  0  0  0
   56.0889   30.3609   42.0994 H   0  0  0  0  0  0  0  0  0  0  0  0
   57.0252   28.8280   42.0994 H   0  0  0  0  0  0  0  0  0  0  0  0
  1  2  1  0
  2  3  2  0
  3  4  1  0
  4  5  1  0
  5  6  1  0
  5  7  1  0
  4  8  2  0
  8  9  1  0
  9 10  2  0
 10 11  1  0
 11 12  2  0
 12 13  1  0
 13 14  1  0
 14 15  1  0
 14 16  2  0
 14 17  2  0
 12 18  1  0
 18 19  2  0
 19  2  1  0
 18  8  1  0
  1 20  1  0
  1 21  1  0
  1 22  1  0
  3 23  1  0
  6 24  1  0
  6 25  1  0
  6 26  1  0
  7 27  1  0
  7 28  1  0
  7 29  1  0
  9 30  1  0
 10 31  1  0
 11 32  1  0
 13 33  1  0
 15 34  1  0
 15 35  1  0
 15 36  1  0
M  END
>  <UniqueID>  (35) 
31

>  <SMILES>  (35) 
Cc1cc(N(C)C)c2cccc(NS(C)(=O)=O)c2n1

>  <Energy>  (35) 
42.28929970567698

>  <Genealogy>  (35) 
Cc1cc(N(C)C)c2cccc(NS(C)(=O)=O)c2n1 (3D coordinates assigned)
Cc1cc(N(C)C)c2cccc(NS(C)(=O)=O)c2n1 (optimized conformer: 42.28929970567698 kcal/mol)

>  <smiles>  (35) 
Cc1cc(N(C)C)c2cccc(NS(C)(=O)=O)c2n1

>  <score_type>  (35) 
oracle

>  <origin>  (35) 
adg

>  <m_score__min__energy>  (35) 
-7.1200000000000001

>  <m_primary>  (35) 
energy

$$$$
35:0
     RDKit          3D

 59 62  0  0  0  0  0  0  0  0999 V2000
   60.8960   26.7700   48.4200 C   0  0  0  0  0  0  0  0  0  0  0  0
   60.2700   27.9420   49.1180 C   0  0  0  0  0  0  0  0  0  0  0  0
   60.7580   28.3690   50.3620 C   0  0  0  0  0  0  0  0  0  0  0  0
   60.1450   29.4340   51.0310 C   0  0  0  0  0  0  0  0  0  0  0  0
   59.0320   30.0730   50.4680 C   0  0  0  0  0  0  0  0  0  0  0  0
   58.2510   31.3930   51.3330 S   0  0  0  0  0  0  0  0  0  0  0  0
   57.1180   31.9390   50.5120 O   0  0  0  0  0  0  0  0  0  0  0  0
   57.6920   30.8960   52.6370 O   0  0  0  0  0  0  0  0  0  0  0  0
   59.4120   32.6350   51.6570 N   0  0  0  0  0  0  0  0  0  0  0  0
   60.2130   33.2390   50.6390 C   0  0  0  0  0  0  0  0  0  0  0  0
   59.9930   34.4280   50.2810 O   0  0  0  0  0  0  0  0  0  0  0  0
   61.2860   32.4900   50.0550 N   0  0  0  0  0  0  0  0  0  0  0  0
   62.0350   32.9270   48.9070 C   0  0  0  0  0  0  0  0  0  0  0  0
   63.4410   32.9440   48.9410 C   0  0  0  0  0  0  0  0  0  0  0  0
   64.1720   33.4430   47.8610 C   0  0  0  0  0  0  0  0  0  0  0  0
   63.5100   33.9470   46.7420 C   0  0  0  0  0  0  0  0  0  0  0  0
   62.1150   33.9560   46.7010 C   0  0  0  0  0  0  0  0  0  0  0  0
   61.3680   33.4370   47.7680 C   0  0  0  0  0  0  0  0  0  0  0  0
   59.9340   33.4520   47.6820 N   0  0  0  0  0  0  0  0  0  0  0  0
   59.1740   32.5560   46.8520 C   0  0  0  0  0  0  0  0  0  0  0  0
   59.4910   31.1890   46.7700 C   0  0  0  0  0  0  0  0  0  0  0  0
   58.7390   30.3380   45.9550 C   0  0  0  0  0  0  0  0  0  0  0  0
   57.6610   30.8400   45.2150 C   0  0  0  0  0  0  0  0  0  0  0  0
   56.7070   29.7450   44.2190 S   0  0  0  0  0  0  0  0  0  0  0  0
   55.6770   30.5130   43.4400 O   0  0  0  0  0  0  0  0  0  0  0  0
   57.6090   29.0340   43.2500 O   0  0  0  0  0  0  0  0  0  0  0  0
   55.8970   28.6090   45.2430 N   0  0  0  0  0  0  0  0  0  0  0  0
   56.5240   27.3960   45.6620 C   0  0  0  0  0  0  0  0  0  0  0  0
   57.9210   27.3420   45.7530 C   0  0  0  0  0  0  0  0  0  0  0  0
   58.5530   26.1550   46.1350 C   0  0  0  0  0  0  0  0  0  0  0  0
   57.7920   25.0240   46.4430 C   0  0  0  0  0  0  0  0  0  0  0  0
   56.3970   25.0790   46.3770 C   0  0  0  0  0  0  0  0  0  0  0  0
   55.7590   26.2640   45.9940 C   0  0  0  0  0  0  0  0  0  0  0  0
   54.3710   26.3140   45.9590 O   0  0  0  0  0  0  0  0  0  0  0  0
   57.3530   32.2060   45.2800 C   0  0  0  0  0  0  0  0  0  0  0  0
   58.1110   33.0590   46.0870 C   0  0  0  0  0  0  0  0  0  0  0  0
   58.5300   29.6330   49.2360 C   0  0  0  0  0  0  0  0  0  0  0  0
   59.1430   28.5690   48.5660 C   0  0  0  0  0  0  0  0  0  0  0  0
   61.2762   26.0583   49.1676 H   0  0  0  0  0  0  0  0  0  0  0  0
   60.1431   26.2732   47.7904 H   0  0  0  0  0  0  0  0  0  0  0  0
   61.7275   27.1195   47.7904 H   0  0  0  0  0  0  0  0  0  0  0  0
   61.6254   27.8648   50.8130 H   0  0  0  0  0  0  0  0  0  0  0  0
   60.5378   29.7707   52.0017 H   0  0  0  0  0  0  0  0  0  0  0  0
   61.5580   31.5930   50.5170 H   0  0  0  0  0  0  0  0  0  0  0  0
   63.9695   32.5608   49.8263 H   0  0  0  0  0  0  0  0  0  0  0  0
   65.2715   33.4385   47.8930 H   0  0  0  0  0  0  0  0  0  0  0  0
   64.0875   34.3377   45.8912 H   0  0  0  0  0  0  0  0  0  0  0  0
   61.5975   34.3735   45.8247 H   0  0  0  0  0  0  0  0  0  0  0  0
   59.4230   34.2000   48.2040 H   0  0  0  0  0  0  0  0  0  0  0  0
   60.3349   30.7870   47.3499 H   0  0  0  0  0  0  0  0  0  0  0  0
   58.9949   29.2699   45.8946 H   0  0  0  0  0  0  0  0  0  0  0  0
   58.5213   28.2347   45.5236 H   0  0  0  0  0  0  0  0  0  0  0  0
   59.6506   26.1112   46.1932 H   0  0  0  0  0  0  0  0  0  0  0  0
   58.2916   24.0894   46.7377 H   0  0  0  0  0  0  0  0  0  0  0  0
   55.7998   24.1895   46.6265 H   0  0  0  0  0  0  0  0  0  0  0  0
   56.5128   32.6075   44.6945 H   0  0  0  0  0  0  0  0  0  0  0  0
   57.8724   34.1322   46.1226 H   0  0  0  0  0  0  0  0  0  0  0  0
   57.6513   30.1257   48.7944 H   0  0  0  0  0  0  0  0  0  0  0  0
   58.7399   28.2227   47.6029 H   0  0  0  0  0  0  0  0  0  0  0  0
  1  2  1  0
  2  3  2  0
  3  4  1  0
  4  5  2  0
  5  6  1  0
  6  7  2  0
  6  8  2  0
  6  9  1  0
  9 10  1  0
 10 11  2  0
 10 12  1  0
 12 13  1  0
 13 14  2  0
 14 15  1  0
 15 16  2  0
 16 17  1  0
 17 18  2  0
 18 19  1  0
 19 20  1  0
 20 21  2  0
 21 22  1  0
 22 23  2  0
 23 24  1  0
 24 25  2  0
 24 26  2  0
 24 27  1  0
 27 28  1  0
 28 29  2  0
 29 30  1  0
 30 31  2  0
 31 32  1  0
 32 33  2  0
 33 34  1  0
 23 35  1  0
 35 36  2  0
  5 37  1  0
 37 38  2  0
 38  2  1  0
 18 13  1  0
 36 20  1  0
 33 28  1  0
  1 39  1  0
  1 40  1  0
  1 41  1  0
  3 42  1  0
  4 43  1  0
 12 44  1  0
 14 45  1  0
 15 46  1  0
 16 47  1  0
 17 48  1  0
 19 49  1  0
 21 50  1  0
 22 51  1  0
 29 52  1  0
 30 53  1  0
 31 54  1  0
 32 55  1  0
 35 56  1  0
 36 57  1  0
 37 58  1  0
 38 59  1  0
M  CHG  3   9  -1  27  -1  34  -1
M  END
>  <UniqueID>  (36) 
32

>  <SMILES>  (36) 
Cc1ccc(S(=O)(=O)[N-]C(=O)Nc2ccccc2Nc2ccc(S(=O)(=O)[N-]c3ccccc3[O-])cc2)cc1

>  <Energy>  (36) 
82.98507630529909

>  <Genealogy>  (36) 
Cc1ccc(S(=O)(=O)[N-]C(=O)Nc2ccccc2Nc2ccc(S(=O)(=O)[N-]c3ccccc3[O-])cc2)cc1 (protonated)
Cc1ccc(S(=O)(=O)[N-]C(=O)Nc2ccccc2Nc2ccc(S(=O)(=O)[N-]c3ccccc3[O-])cc2)cc1 (3D coordinates assigned)
Cc1ccc(S(=O)(=O)[N-]C(=O)Nc2ccccc2Nc2ccc(S(=O)(=O)[N-]c3ccccc3[O-])cc2)cc1 (optimized conformer: 82.98507630529909 kcal/mol)

>  <smiles>  (36) 
Cc1ccc(S(=O)(=O)NC(=O)Nc2ccccc2Nc2ccc(S(=O)(=O)Nc3ccccc3O)cc2)cc1

>  <score_type>  (36) 
oracle

>  <origin>  (36) 
adg

>  <m_score__min__energy>  (36) 
-17.210000000000001

>  <m_primary>  (36) 
energy

$$$$
36:0
     RDKit          3D

 35 37  0  0  0  0  0  0  0  0999 V2000
   55.6450   24.5690   46.4760 O   0  0  0  0  0  0  0  0  0  0  0  0
   56.0160   25.7450   46.2200 C   0  0  0  0  0  0  0  0  0  0  0  0
   55.0480   26.7160   45.9940 O   0  0  0  0  0  0  0  0  0  0  0  0
   57.4590   26.0960   46.1600 C   0  0  0  0  0  0  0  0  0  0  0  0
   57.8310   27.4280   45.8950 C   0  0  0  0  0  0  0  0  0  0  0  0
   59.1860   27.8000   45.8320 C   0  0  0  0  0  0  0  0  0  0  0  0
   59.5810   29.1510   45.5680 N   0  0  0  0  0  0  0  0  0  0  0  0
   59.2820   30.1040   46.3570 N   0  0  0  0  0  0  0  0  0  0  0  0
   58.5870   31.2910   45.9410 C   0  0  0  0  0  0  0  0  0  0  0  0
   59.1170   32.5530   46.2730 C   0  0  0  0  0  0  0  0  0  0  0  0
   60.3950   32.6850   47.0090 C   0  0  0  0  0  0  0  0  0  0  0  0
   61.5020   33.2830   46.3780 C   0  0  0  0  0  0  0  0  0  0  0  0
   62.7170   33.4170   47.0540 C   0  0  0  0  0  0  0  0  0  0  0  0
   62.8410   32.9650   48.3690 C   0  0  0  0  0  0  0  0  0  0  0  0
   64.3690   33.1330   49.2140 Cl  0  0  0  0  0  0  0  0  0  0  0  0
   61.7470   32.3780   49.0110 C   0  0  0  0  0  0  0  0  0  0  0  0
   60.5240   32.2370   48.3420 C   0  0  0  0  0  0  0  0  0  0  0  0
   59.1980   31.4430   49.1860 Cl  0  0  0  0  0  0  0  0  0  0  0  0
   58.4470   33.6800   45.9100 N   0  0  0  0  0  0  0  0  0  0  0  0
   57.2760   33.6170   45.2280 C   0  0  0  0  0  0  0  0  0  0  0  0
   56.6800   34.6770   44.9050 O   0  0  0  0  0  0  0  0  0  0  0  0
   56.7480   32.4130   44.8920 N   0  0  0  0  0  0  0  0  0  0  0  0
   57.3700   31.2540   45.2290 C   0  0  0  0  0  0  0  0  0  0  0  0
   56.8410   30.1600   44.8980 O   0  0  0  0  0  0  0  0  0  0  0  0
   60.1740   26.8340   46.0350 C   0  0  0  0  0  0  0  0  0  0  0  0
   59.8220   25.5100   46.2970 C   0  0  0  0  0  0  0  0  0  0  0  0
   58.4740   25.1310   46.3620 C   0  0  0  0  0  0  0  0  0  0  0  0
   58.1500   23.8000   46.6260 O   0  0  0  0  0  0  0  0  0  0  0  0
   57.0516   28.1876   45.7351 H   0  0  0  0  0  0  0  0  0  0  0  0
   61.4096   33.6477   45.3443 H   0  0  0  0  0  0  0  0  0  0  0  0
   63.5779   33.8796   46.5492 H   0  0  0  0  0  0  0  0  0  0  0  0
   61.8468   32.0245   50.0479 H   0  0  0  0  0  0  0  0  0  0  0  0
   61.2354   27.1188   45.9880 H   0  0  0  0  0  0  0  0  0  0  0  0
   60.6085   24.7572   46.4539 H   0  0  0  0  0  0  0  0  0  0  0  0
   57.1930   23.4700   46.6030 H   0  0  0  0  0  0  0  0  0  0  0  0
  1  2  2  0
  2  3  1  0
  2  4  1  0
  4  5  2  0
  5  6  1  0
  6  7  1  0
  7  8  2  3
  8  9  1  0
  9 10  2  0
 10 11  1  0
 11 12  2  0
 12 13  1  0
 13 14  2  0
 14 15  1  0
 14 16  1  0
 16 17  2  0
 17 18  1  0
 10 19  1  0
 19 20  1  0
 20 21  2  0
 20 22  1  0
 22 23  1  0
 23 24  2  0
  6 25  2  0
 25 26  1  0
 26 27  2  0
 27 28  1  0
 27  4  1  0
 23  9  1  0
 17 11  1  0
  5 29  1  0
 12 30  1  0
 13 31  1  0
 16 32  1  0
 25 33  1  0
 26 34  1  0
 28 35  1  0
M  CHG  3   3  -1  19  -1  22  -1
M  END
>  <UniqueID>  (37) 
33

>  <SMILES>  (37) 
O=C([O-])c1cc(N=Nc2c(-c3ccc(Cl)cc3Cl)[n-]c(=O)[n-]c2=O)ccc1O

>  <Energy>  (37) 
50.05873233577314

>  <Genealogy>  (37) 
O=C([O-])c1cc(N=Nc2c(-c3ccc(Cl)cc3Cl)[n-]c(=O)[n-]c2=O)ccc1O (protonated)
O=C([O-])c1cc(N=Nc2c(-c3ccc(Cl)cc3Cl)[n-]c(=O)[n-]c2=O)ccc1O (3D coordinates assigned)
O=C([O-])c1cc(N=Nc2c(-c3ccc(Cl)cc3Cl)[n-]c(=O)[n-]c2=O)ccc1O (optimized conformer: 50.05873233577314 kcal/mol)

>  <smiles>  (37) 
O=C(O)c1cc(N=Nc2c(-c3ccc(Cl)cc3Cl)[nH]c(=O)[nH]c2=O)ccc1O

>  <score_type>  (37) 
oracle

>  <origin>  (37) 
adg

>  <m_score__min__energy>  (37) 
-13.09

>  <m_primary>  (37) 
energy

$$$$
37:0
     RDKit          3D

 22 23  0  0  0  0  0  0  0  0999 V2000
   54.6020   30.4850   44.6000 H   0  0  0  0  0  0  0  0  0  0  0  0
   55.6420   30.5040   44.4920 N   0  0  0  0  0  0  0  0  0  0  0  0
   56.4050   29.7040   45.1620 C   0  0  0  0  0  0  0  0  0  0  0  0
   56.2420   28.3620   45.0440 N   0  0  0  0  0  0  0  0  0  0  0  0
   57.0220   27.4850   45.7340 C   0  0  0  0  0  0  0  0  0  0  0  0
   56.7750   26.0340   45.5590 C   0  0  0  0  0  0  0  0  0  0  0  0
   57.8440   25.1600   45.2890 C   0  0  0  0  0  0  0  0  0  0  0  0
   58.8640   25.5590   45.1876 H   0  0  0  0  0  0  0  0  0  0  0  0
   57.6180   23.7890   45.1490 C   0  0  0  0  0  0  0  0  0  0  0  0
   58.4578   23.1132   44.9299 H   0  0  0  0  0  0  0  0  0  0  0  0
   56.3260   23.2750   45.2870 C   0  0  0  0  0  0  0  0  0  0  0  0
   56.1490   22.1954   45.1727 H   0  0  0  0  0  0  0  0  0  0  0  0
   55.2590   24.1310   45.5700 C   0  0  0  0  0  0  0  0  0  0  0  0
   54.2439   23.7230   45.6847 H   0  0  0  0  0  0  0  0  0  0  0  0
   55.4780   25.5060   45.7080 C   0  0  0  0  0  0  0  0  0  0  0  0
   54.3980   26.3400   45.9820 O   0  0  0  0  0  0  0  0  0  0  0  0
   58.0340   27.9850   46.5830 C   0  0  0  0  0  0  0  0  0  0  0  0
   58.9380   27.1040   47.2880 C   0  0  0  0  0  0  0  0  0  0  0  0
   59.6620   26.3990   47.8540 N   0  0  0  0  0  0  0  0  0  0  0  0
   58.1810   29.3770   46.6900 C   0  0  0  0  0  0  0  0  0  0  0  0
   59.0680   29.8750   47.4340 O   0  0  0  0  0  0  0  0  0  0  0  0
   57.3660   30.2010   45.9830 N   0  0  0  0  0  0  0  0  0  0  0  0
  1  2  1  0
  2  3  2  0
  3  4  1  0
  4  5  1  0
  5  6  1  0
  6  7  2  0
  7  8  1  0
  7  9  1  0
  9 10  1  0
  9 11  2  0
 11 12  1  0
 11 13  1  0
 13 14  1  0
 13 15  2  0
 15 16  1  0
  5 17  2  0
 17 18  1  0
 18 19  3  0
 17 20  1  0
 20 21  2  0
 20 22  1  0
 22  3  1  0
 15  6  1  0
M  CHG  3   4  -1  16  -1  22  -1
M  END
>  <UniqueID>  (38) 
34

>  <SMILES>  (38) 
[H]/N=c1/[n-]c(-c2ccccc2[O-])c(C#N)c(=O)[n-]1

>  <Energy>  (38) 
31.76894541343009

>  <Genealogy>  (38) 
N#Cc1c(-c2ccccc2[O-])[n-]c(=N)[n-]c1=O (protonated)
[H]/N=c1/[n-]c(-c2ccccc2[O-])c(C#N)c(=O)[n-]1 (cis-trans isomerization)
[H]/N=c1/[n-]c(-c2ccccc2[O-])c(C#N)c(=O)[n-]1 (3D coordinates assigned)
[H]/N=c1/[n-]c(-c2ccccc2[O-])c(C#N)c(=O)[n-]1 (optimized conformer: 31.76894541343009 kcal/mol)

>  <smiles>  (38) 
N#Cc1c(-c2ccccc2O)[nH]c(=N)[nH]c1=O

>  <score_type>  (38) 
oracle

>  <origin>  (38) 
adg

>  <m_score__min__energy>  (38) 
-13.84

>  <m_primary>  (38) 
energy

$$$$
38:0
     RDKit          3D

 39 41  0  0  0  0  0  0  0  0999 V2000
   58.6400   34.0600   46.0510 O   0  0  0  0  0  0  0  0  0  0  0  0
   59.2370   32.9640   46.2360 C   0  0  0  0  0  0  0  0  0  0  0  0
   60.6150   32.9680   46.6390 N   0  0  0  0  0  0  0  0  0  0  0  0
   61.2910   34.2110   47.0120 C   0  0  0  0  0  0  0  0  0  0  0  0
   62.3460   33.9480   48.0530 C   0  0  0  0  0  0  0  0  0  0  0  0
   62.1180   34.2920   49.3950 C   0  0  0  0  0  0  0  0  0  0  0  0
   63.0820   34.0130   50.3690 C   0  0  0  0  0  0  0  0  0  0  0  0
   64.2750   33.3790   50.0100 C   0  0  0  0  0  0  0  0  0  0  0  0
   65.2090   33.1070   50.9550 F   0  0  0  0  0  0  0  0  0  0  0  0
   64.5030   33.0190   48.6780 C   0  0  0  0  0  0  0  0  0  0  0  0
   63.5400   33.2970   47.7030 C   0  0  0  0  0  0  0  0  0  0  0  0
   58.5070   31.6920   46.0130 C   0  0  0  0  0  0  0  0  0  0  0  0
   58.8250   30.5280   46.7310 C   0  0  0  0  0  0  0  0  0  0  0  0
   58.1170   29.3470   46.5060 C   0  0  0  0  0  0  0  0  0  0  0  0
   57.0870   29.3290   45.5520 C   0  0  0  0  0  0  0  0  0  0  0  0
   56.3320   28.1740   45.2990 O   0  0  0  0  0  0  0  0  0  0  0  0
   56.7090   26.8650   45.6370 C   0  0  0  0  0  0  0  0  0  0  0  0
   58.0540   26.4490   45.6070 C   0  0  0  0  0  0  0  0  0  0  0  0
   58.3910   25.1320   45.9330 C   0  0  0  0  0  0  0  0  0  0  0  0
   57.3920   24.2180   46.2780 C   0  0  0  0  0  0  0  0  0  0  0  0
   56.0540   24.6190   46.2920 C   0  0  0  0  0  0  0  0  0  0  0  0
   55.7100   25.9360   45.9670 C   0  0  0  0  0  0  0  0  0  0  0  0
   54.3750   26.3220   45.9770 O   0  0  0  0  0  0  0  0  0  0  0  0
   56.7730   30.4730   44.8880 N   0  0  0  0  0  0  0  0  0  0  0  0
   57.4470   31.6360   45.0920 C   0  0  0  0  0  0  0  0  0  0  0  0
   61.1610   32.0770   46.6150 H   0  0  0  0  0  0  0  0  0  0  0  0
   61.7641   34.6471   46.1198 H   0  0  0  0  0  0  0  0  0  0  0  0
   60.5483   34.9079   47.4277 H   0  0  0  0  0  0  0  0  0  0  0  0
   61.1765   34.7834   49.6817 H   0  0  0  0  0  0  0  0  0  0  0  0
   62.9015   34.2924   51.4175 H   0  0  0  0  0  0  0  0  0  0  0  0
   65.4405   32.5168   48.3971 H   0  0  0  0  0  0  0  0  0  0  0  0
   63.7185   33.0046   46.6577 H   0  0  0  0  0  0  0  0  0  0  0  0
   59.6358   30.5473   47.4741 H   0  0  0  0  0  0  0  0  0  0  0  0
   58.3640   28.4366   47.0719 H   0  0  0  0  0  0  0  0  0  0  0  0
   58.8423   27.1629   45.3260 H   0  0  0  0  0  0  0  0  0  0  0  0
   59.4442   24.8148   45.9179 H   0  0  0  0  0  0  0  0  0  0  0  0
   57.6591   23.1832   46.5384 H   0  0  0  0  0  0  0  0  0  0  0  0
   55.2682   23.8972   46.5594 H   0  0  0  0  0  0  0  0  0  0  0  0
   57.1608   32.5389   44.5326 H   0  0  0  0  0  0  0  0  0  0  0  0
  1  2  2  0
  2  3  1  0
  3  4  1  0
  4  5  1  0
  5  6  2  0
  6  7  1  0
  7  8  2  0
  8  9  1  0
  8 10  1  0
 10 11  2  0
  2 12  1  0
 12 13  2  0
 13 14  1  0
 14 15  2  0
 15 16  1  0
 16 17  1  0
 17 18  2  0
 18 19  1  0
 19 20  2  0
 20 21  1  0
 21 22  2  0
 22 23  1  0
 15 24  1  0
 24 25  2  0
 11  5  1  0
 25 12  1  0
 22 17  1  0
  3 26  1  0
  4 27  1  0
  4 28  1  0
  6 29  1  0
  7 30  1  0
 10 31  1  0
 11 32  1  0
 13 33  1  0
 14 34  1  0
 18 35  1  0
 19 36  1  0
 20 37  1  0
 21 38  1  0
 25 39  1  0
M  CHG  1  23  -1
M  END
>  <UniqueID>  (39) 
35

>  <SMILES>  (39) 
O=C(NCc1ccc(F)cc1)c1ccc(Oc2ccccc2[O-])nc1

>  <Energy>  (39) 
49.87796180295541

>  <Genealogy>  (39) 
O=C(NCc1ccc(F)cc1)c1ccc(Oc2ccccc2[O-])nc1 (protonated)
O=C(NCc1ccc(F)cc1)c1ccc(Oc2ccccc2[O-])nc1 (3D coordinates assigned)
O=C(NCc1ccc(F)cc1)c1ccc(Oc2ccccc2[O-])nc1 (optimized conformer: 49.87796180295541 kcal/mol)

>  <smiles>  (39) 
O=C(NCc1ccc(F)cc1)c1ccc(Oc2ccccc2O)nc1

>  <score_type>  (39) 
oracle

>  <origin>  (39) 
adg

>  <m_score__min__energy>  (39) 
-11.75

>  <m_primary>  (39) 
energy

$$$$
39:0
     RDKit          3D

 59 62  0  0  0  0  0  0  0  0999 V2000
   59.1350   25.9640   47.6130 N   0  0  0  0  0  0  0  0  0  0  0  0
   59.6580   27.6130   47.5850 S   0  0  0  0  0  0  0  0  0  0  0  0
   58.4810   28.4950   47.2800 O   0  0  0  0  0  0  0  0  0  0  0  0
   60.6820   27.7530   46.4930 O   0  0  0  0  0  0  0  0  0  0  0  0
   60.3670   28.0890   49.1420 C   0  0  0  0  0  0  0  0  0  0  0  0
   60.7680   27.0890   50.0430 C   0  0  0  0  0  0  0  0  0  0  0  0
   61.3660   27.4250   51.2600 C   0  0  0  0  0  0  0  0  0  0  0  0
   61.5700   28.7630   51.5930 C   0  0  0  0  0  0  0  0  0  0  0  0
   61.1660   29.7710   50.7170 C   0  0  0  0  0  0  0  0  0  0  0  0
   60.5500   29.4510   49.4970 C   0  0  0  0  0  0  0  0  0  0  0  0
   60.1020   30.5570   48.6300 C   0  0  0  0  0  0  0  0  0  0  0  0
   58.8020   31.0680   48.7560 C   0  0  0  0  0  0  0  0  0  0  0  0
   58.3700   32.1090   47.9280 C   0  0  0  0  0  0  0  0  0  0  0  0
   59.2290   32.6350   46.9440 C   0  0  0  0  0  0  0  0  0  0  0  0
   58.8340   33.7160   46.0870 N   0  0  0  0  0  0  0  0  0  0  0  0
   57.6820   33.7540   45.2360 C   0  0  0  0  0  0  0  0  0  0  0  0
   56.6040   34.2750   45.6310 O   0  0  0  0  0  0  0  0  0  0  0  0
   57.7280   33.0700   43.9080 C   0  0  0  0  0  0  0  0  0  0  0  0
   57.7260   31.5780   44.0950 C   0  0  0  0  0  0  0  0  0  0  0  0
   58.8970   30.9140   44.4960 C   0  0  0  0  0  0  0  0  0  0  0  0
   58.9040   29.5230   44.6360 C   0  0  0  0  0  0  0  0  0  0  0  0
   57.7480   28.7790   44.3690 C   0  0  0  0  0  0  0  0  0  0  0  0
   57.7680   27.0310   44.5760 S   0  0  0  0  0  0  0  0  0  0  0  0
   57.5130   26.3490   43.2610 O   0  0  0  0  0  0  0  0  0  0  0  0
   59.1120   26.5900   45.0860 O   0  0  0  0  0  0  0  0  0  0  0  0
   56.5220   26.5750   45.6890 N   0  0  0  0  0  0  0  0  0  0  0  0
   56.4120   25.2670   46.2570 C   0  0  0  0  0  0  0  0  0  0  0  0
   56.0830   25.1300   47.4660 O   0  0  0  0  0  0  0  0  0  0  0  0
   56.7330   24.0710   45.4480 C   0  0  0  0  0  0  0  0  0  0  0  0
   58.0680   23.6290   45.3940 C   0  0  0  0  0  0  0  0  0  0  0  0
   58.4190   22.5170   44.6250 C   0  0  0  0  0  0  0  0  0  0  0  0
   57.4430   21.8250   43.9090 C   0  0  0  0  0  0  0  0  0  0  0  0
   56.1110   22.2380   43.9670 C   0  0  0  0  0  0  0  0  0  0  0  0
   55.7450   23.3530   44.7320 C   0  0  0  0  0  0  0  0  0  0  0  0
   53.8730   23.7750   44.8260 Br  0  0  0  0  0  0  0  0  0  0  0  0
   56.5820   29.4390   43.9570 C   0  0  0  0  0  0  0  0  0  0  0  0
   56.5730   30.8300   43.8140 C   0  0  0  0  0  0  0  0  0  0  0  0
   60.5290   32.1290   46.8280 C   0  0  0  0  0  0  0  0  0  0  0  0
   60.9620   31.0900   47.6570 C   0  0  0  0  0  0  0  0  0  0  0  0
   58.1390   25.9460   47.2980 H   0  0  0  0  0  0  0  0  0  0  0  0
   59.6990   25.4400   46.9090 H   0  0  0  0  0  0  0  0  0  0  0  0
   60.6096   26.0308   49.7879 H   0  0  0  0  0  0  0  0  0  0  0  0
   61.6764   26.6323   51.9566 H   0  0  0  0  0  0  0  0  0  0  0  0
   62.0501   29.0245   52.5475 H   0  0  0  0  0  0  0  0  0  0  0  0
   61.3316   30.8250   50.9846 H   0  0  0  0  0  0  0  0  0  0  0  0
   58.1192   30.6482   49.5094 H   0  0  0  0  0  0  0  0  0  0  0  0
   57.3558   32.5183   48.0458 H   0  0  0  0  0  0  0  0  0  0  0  0
   56.8482   33.3638   43.3168 H   0  0  0  0  0  0  0  0  0  0  0  0
   58.6479   33.3658   43.3823 H   0  0  0  0  0  0  0  0  0  0  0  0
   59.8114   31.4902   44.7005 H   0  0  0  0  0  0  0  0  0  0  0  0
   59.8225   29.0102   44.9576 H   0  0  0  0  0  0  0  0  0  0  0  0
   58.8425   24.1643   45.9628 H   0  0  0  0  0  0  0  0  0  0  0  0
   59.4674   22.1866   44.5842 H   0  0  0  0  0  0  0  0  0  0  0  0
   57.7227   20.9537   43.2985 H   0  0  0  0  0  0  0  0  0  0  0  0
   55.3428   21.6838   43.4078 H   0  0  0  0  0  0  0  0  0  0  0  0
   55.6706   28.8605   43.7454 H   0  0  0  0  0  0  0  0  0  0  0  0
   55.6576   31.3400   43.4796 H   0  0  0  0  0  0  0  0  0  0  0  0
   61.2148   32.5520   46.0791 H   0  0  0  0  0  0  0  0  0  0  0  0
   61.9802   30.6887   47.5465 H   0  0  0  0  0  0  0  0  0  0  0  0
  1  2  1  0
  2  3  2  0
  2  4  2  0
  2  5  1  0
  5  6  2  0
  6  7  1  0
  7  8  2  0
  8  9  1  0
  9 10  2  0
 10 11  1  0
 11 12  2  0
 12 13  1  0
 13 14  2  0
 14 15  1  0
 15 16  1  0
 16 17  2  0
 16 18  1  0
 18 19  1  0
 19 20  2  0
 20 21  1  0
 21 22  2  0
 22 23  1  0
 23 24  2  0
 23 25  2  0
 23 26  1  0
 26 27  1  0
 27 28  2  0
 27 29  1  0
 29 30  2  0
 30 31  1  0
 31 32  2  0
 32 33  1  0
 33 34  2  0
 34 35  1  0
 22 36  1  0
 36 37  2  0
 14 38  1  0
 38 39  2  0
 10  5  1  0
 39 11  1  0
 37 19  1  0
 34 29  1  0
  1 40  1  0
  1 41  1  0
  6 42  1  0
  7 43  1  0
  8 44  1  0
  9 45  1  0
 12 46  1  0
 13 47  1  0
 18 48  1  0
 18 49  1  0
 20 50  1  0
 21 51  1  0
 30 52  1  0
 31 53  1  0
 32 54  1  0
 33 55  1  0
 36 56  1  0
 37 57  1  0
 38 58  1  0
 39 59  1  0
M  CHG  2  15  -1  26  -1
M  END
>  <UniqueID>  (40) 
36

>  <SMILES>  (40) 
NS(=O)(=O)c1ccccc1-c1ccc([N-]C(=O)Cc2ccc(S(=O)(=O)[N-]C(=O)c3ccccc3Br)cc2)cc1

>  <Energy>  (40) 
80.59622676301805

>  <Genealogy>  (40) 
NS(=O)(=O)c1ccccc1-c1ccc([N-]C(=O)Cc2ccc(S(=O)(=O)[N-]C(=O)c3ccccc3Br)cc2)cc1 (protonated)
NS(=O)(=O)c1ccccc1-c1ccc([N-]C(=O)Cc2ccc(S(=O)(=O)[N-]C(=O)c3ccccc3Br)cc2)cc1 (3D coordinates assigned)
NS(=O)(=O)c1ccccc1-c1ccc([N-]C(=O)Cc2ccc(S(=O)(=O)[N-]C(=O)c3ccccc3Br)cc2)cc1 (optimized conformer: 80.59622676301805 kcal/mol)

>  <smiles>  (40) 
NS(=O)(=O)c1ccccc1-c1ccc(NC(=O)Cc2ccc(S(=O)(=O)NC(=O)c3ccccc3Br)cc2)cc1

>  <score_type>  (40) 
oracle

>  <origin>  (40) 
adg

>  <m_score__min__energy>  (40) 
-13.869999999999999

>  <m_primary>  (40) 
energy

$$$$
40:0
     RDKit          3D

 60 62  0  0  0  0  0  0  0  0999 V2000
   66.3810   32.9230   50.1150 C   0  0  0  0  0  0  0  0  0  0  0  0
   65.0050   31.8050   50.5180 S   0  0  0  0  0  0  0  0  0  0  0  0
   63.8980   32.5390   49.3140 C   0  0  0  0  0  0  0  0  0  0  0  0
   63.1470   33.6710   49.6510 C   0  0  0  0  0  0  0  0  0  0  0  0
   62.2730   34.2360   48.7190 C   0  0  0  0  0  0  0  0  0  0  0  0
   62.1300   33.6630   47.4440 C   0  0  0  0  0  0  0  0  0  0  0  0
   61.1360   34.2230   46.4540 C   0  0  0  0  0  0  0  0  0  0  0  0
   59.7400   33.9830   46.8910 N   0  0  1  0  0  0  0  0  0  0  0  0
   59.3090   34.9530   47.9120 C   0  0  0  0  0  0  0  0  0  0  0  0
   58.8310   34.0450   45.7630 C   0  0  0  0  0  0  0  0  0  0  0  0
   59.1180   34.7030   44.7710 O   0  0  0  0  0  0  0  0  0  0  0  0
   57.5140   33.3140   45.8000 C   0  0  0  0  0  0  0  0  0  0  0  0
   57.6820   31.8690   45.3910 C   0  0  0  0  0  0  0  0  0  0  0  0
   57.0180   31.4080   44.2460 C   0  0  0  0  0  0  0  0  0  0  0  0
   57.1270   30.0710   43.8340 C   0  0  0  0  0  0  0  0  0  0  0  0
   56.3910   29.6160   42.6010 C   0  0  0  0  0  0  0  0  0  0  0  0
   57.9210   29.1770   44.5840 C   0  0  0  0  0  0  0  0  0  0  0  0
   58.0440   27.7260   44.1960 C   0  0  0  0  0  0  0  0  0  0  0  0
   58.5940   29.6420   45.7260 C   0  0  0  0  0  0  0  0  0  0  0  0
   58.5030   30.9860   46.1220 C   0  0  0  0  0  0  0  0  0  0  0  0
   59.2150   31.4720   47.2700 N   0  0  0  0  0  0  0  0  0  0  0  0
   59.3820   30.6690   48.8000 S   0  0  0  0  0  0  0  0  0  0  0  0
   58.5220   29.4390   48.8250 O   0  0  0  0  0  0  0  0  0  0  0  0
   60.8210   30.2930   49.0220 O   0  0  0  0  0  0  0  0  0  0  0  0
   58.8970   31.7700   50.0860 C   0  0  0  0  0  0  0  0  0  0  0  0
   57.7570   31.4870   50.8530 C   0  0  0  0  0  0  0  0  0  0  0  0
   57.4030   32.3210   51.9180 C   0  0  0  0  0  0  0  0  0  0  0  0
   58.1850   33.4370   52.2240 C   0  0  0  0  0  0  0  0  0  0  0  0
   59.3130   33.7300   51.4540 C   0  0  0  0  0  0  0  0  0  0  0  0
   59.6640   32.9070   50.3810 C   0  0  0  0  0  0  0  0  0  0  0  0
   62.8830   32.5260   47.1130 C   0  0  0  0  0  0  0  0  0  0  0  0
   63.7670   31.9700   48.0430 C   0  0  0  0  0  0  0  0  0  0  0  0
   66.8369   33.2934   51.0450 H   0  0  0  0  0  0  0  0  0  0  0  0
   67.1357   32.3789   49.5281 H   0  0  0  0  0  0  0  0  0  0  0  0
   66.0029   33.7731   49.5281 H   0  0  0  0  0  0  0  0  0  0  0  0
   63.2452   34.1167   50.6518 H   0  0  0  0  0  0  0  0  0  0  0  0
   61.6944   35.1331   48.9844 H   0  0  0  0  0  0  0  0  0  0  0  0
   61.2991   35.3066   46.3578 H   0  0  0  0  0  0  0  0  0  0  0  0
   61.2874   33.7170   45.4891 H   0  0  0  0  0  0  0  0  0  0  0  0
   59.6810   33.0300   47.3130 H   0  0  0  0  0  0  0  0  0  0  0  0
   59.4936   34.5375   48.9136 H   0  0  0  0  0  0  0  0  0  0  0  0
   59.8765   35.8877   47.7925 H   0  0  0  0  0  0  0  0  0  0  0  0
   58.2350   35.1583   47.7925 H   0  0  0  0  0  0  0  0  0  0  0  0
   57.1099   33.3533   46.8223 H   0  0  0  0  0  0  0  0  0  0  0  0
   56.8251   33.7993   45.0930 H   0  0  0  0  0  0  0  0  0  0  0  0
   56.4012   32.1058   43.6606 H   0  0  0  0  0  0  0  0  0  0  0  0
   55.4898   29.0589   42.8966 H   0  0  0  0  0  0  0  0  0  0  0  0
   56.1006   30.4924   42.0030 H   0  0  0  0  0  0  0  0  0  0  0  0
   57.0452   28.9645   42.0030 H   0  0  0  0  0  0  0  0  0  0  0  0
   58.0965   27.1069   45.1037 H   0  0  0  0  0  0  0  0  0  0  0  0
   57.1677   27.4301   43.6005 H   0  0  0  0  0  0  0  0  0  0  0  0
   58.9576   27.5818   43.6005 H   0  0  0  0  0  0  0  0  0  0  0  0
   59.2015   28.9426   46.3190 H   0  0  0  0  0  0  0  0  0  0  0  0
   57.1405   30.6074   50.6161 H   0  0  0  0  0  0  0  0  0  0  0  0
   56.5071   32.0978   52.5159 H   0  0  0  0  0  0  0  0  0  0  0  0
   57.9129   34.0846   53.0705 H   0  0  0  0  0  0  0  0  0  0  0  0
   59.9266   34.6111   51.6931 H   0  0  0  0  0  0  0  0  0  0  0  0
   60.5432   33.1509   49.7665 H   0  0  0  0  0  0  0  0  0  0  0  0
   62.7774   32.0701   46.1175 H   0  0  0  0  0  0  0  0  0  0  0  0
   64.3604   31.0836   47.7745 H   0  0  0  0  0  0  0  0  0  0  0  0
  1  2  1  0
  2  3  1  0
  3  4  2  0
  4  5  1  0
  5  6  2  0
  6  7  1  0
  7  8  1  0
  8  9  1  0
  8 10  1  0
 10 11  2  0
 10 12  1  0
 12 13  1  0
 13 14  2  0
 14 15  1  0
 15 16  1  0
 15 17  2  0
 17 18  1  0
 17 19  1  0
 19 20  2  0
 20 21  1  0
 21 22  1  0
 22 23  2  0
 22 24  2  0
 22 25  1  0
 25 26  2  0
 26 27  1  0
 27 28  2  0
 28 29  1  0
 29 30  2  0
  6 31  1  0
 31 32  2  0
 32  3  1  0
 20 13  1  0
 30 25  1  0
  1 33  1  0
  1 34  1  0
  1 35  1  0
  4 36  1  0
  5 37  1  0
  7 38  1  0
  7 39  1  0
  8 40  1  1
  9 41  1  0
  9 42  1  0
  9 43  1  0
 12 44  1  0
 12 45  1  0
 14 46  1  0
 16 47  1  0
 16 48  1  0
 16 49  1  0
 18 50  1  0
 18 51  1  0
 18 52  1  0
 19 53  1  0
 26 54  1  0
 27 55  1  0
 28 56  1  0
 29 57  1  0
 30 58  1  0
 31 59  1  0
 32 60  1  0
M  CHG  2   8   1  21  -1
M  END
>  <UniqueID>  (41) 
37

>  <SMILES>  (41) 
CSc1ccc(C[N@@H+](C)C(=O)Cc2cc(C)c(C)cc2[N-]S(=O)(=O)c2ccccc2)cc1

>  <Energy>  (41) 
55.722154458483885

>  <Genealogy>  (41) 
CSc1ccc(C[NH+](C)C(=O)Cc2cc(C)c(C)cc2[N-]S(=O)(=O)c2ccccc2)cc1 (protonated)
CSc1ccc(C[N@@H+](C)C(=O)Cc2cc(C)c(C)cc2[N-]S(=O)(=O)c2ccccc2)cc1 (chirality)
CSc1ccc(C[N@@H+](C)C(=O)Cc2cc(C)c(C)cc2[N-]S(=O)(=O)c2ccccc2)cc1 (3D coordinates assigned)
CSc1ccc(C[N@@H+](C)C(=O)Cc2cc(C)c(C)cc2[N-]S(=O)(=O)c2ccccc2)cc1 (optimized conformer: 55.722154458483885 kcal/mol)

>  <smiles>  (41) 
CSc1ccc(CN(C)C(=O)Cc2cc(C)c(C)cc2NS(=O)(=O)c2ccccc2)cc1

>  <score_type>  (41) 
oracle

>  <origin>  (41) 
adg

>  <m_score__min__energy>  (41) 
-8.7300000000000004

>  <m_primary>  (41) 
energy

$$$$
41:0
     RDKit          3D

 70 74  0  0  0  0  0  0  0  0999 V2000
   58.8650   34.0470   53.0930 C   0  0  0  0  0  0  0  0  0  0  0  0
   58.8490   33.0120   53.7100 C   0  0  0  0  0  0  0  0  0  0  0  0
   58.8270   31.7500   54.4570 C   0  0  0  0  0  0  0  0  0  0  0  0
   58.5780   30.6170   53.5480 N   0  0  0  0  0  0  0  0  0  0  0  0
   59.2310   30.5830   52.2620 C   0  0  0  0  0  0  0  0  0  0  0  0
   60.6290   30.6470   52.1260 C   0  0  0  0  0  0  0  0  0  0  0  0
   61.4560   30.5180   53.2460 O   0  0  0  0  0  0  0  0  0  0  0  0
   61.2120   30.7810   50.8450 C   0  0  0  0  0  0  0  0  0  0  0  0
   62.7260   30.8000   50.7550 C   0  0  0  0  0  0  0  0  0  0  0  0
   60.3870   30.7370   49.6740 C   0  0  0  0  0  0  0  0  0  0  0  0
   61.0270   30.9240   48.2790 C   0  0  1  0  0  0  0  0  0  0  0  0
   60.2750   30.2860   47.1210 C   0  0  0  0  0  0  0  0  0  0  0  0
   59.6480   31.0910   46.1510 C   0  0  0  0  0  0  0  0  0  0  0  0
   58.9560   30.5030   45.0920 C   0  0  0  0  0  0  0  0  0  0  0  0
   58.3470   31.3090   44.1360 O   0  0  0  0  0  0  0  0  0  0  0  0
   58.8700   29.1120   44.9830 C   0  0  0  0  0  0  0  0  0  0  0  0
   58.1960   28.5940   43.9610 O   0  0  0  0  0  0  0  0  0  0  0  0
   58.0580   27.2910   43.7750 C   0  0  0  0  0  0  0  0  0  0  0  0
   57.4060   26.8690   42.7850 O   0  0  0  0  0  0  0  0  0  0  0  0
   58.6290   26.3880   44.6680 C   0  0  0  0  0  0  0  0  0  0  0  0
   59.3550   26.8650   45.7690 C   0  0  0  0  0  0  0  0  0  0  0  0
   59.9530   25.8490   46.7090 C   0  0  0  0  0  0  0  0  0  0  0  0
   59.4900   28.2720   45.9450 C   0  0  0  0  0  0  0  0  0  0  0  0
   60.1970   28.8780   47.0170 C   0  0  0  0  0  0  0  0  0  0  0  0
   60.8230   28.1090   47.9930 O   0  0  0  0  0  0  0  0  0  0  0  0
   59.7220   32.4880   46.2030 O   0  0  0  0  0  0  0  0  0  0  0  0
   60.2540   33.2250   47.3040 C   0  0  0  0  0  0  0  0  0  0  0  0
   59.1180   33.5060   48.3100 C   0  0  0  0  0  0  0  0  0  0  0  0
   60.7190   34.5940   46.7650 C   0  0  0  0  0  0  0  0  0  0  0  0
   61.4270   32.4160   47.9760 C   0  0  2  0  0  0  0  0  0  0  0  0
   62.7320   32.4360   47.1230 C   0  0  0  0  0  0  0  0  0  0  0  0
   63.6880   33.3950   47.6650 N   0  0  0  0  0  0  0  0  0  0  0  0
   64.1100   33.3820   49.0310 C   0  0  0  0  0  0  0  0  0  0  0  0
   63.2940   34.0860   50.0610 C   0  0  0  0  0  0  0  0  0  0  0  0
   65.1420   32.7460   49.3750 O   0  0  0  0  0  0  0  0  0  0  0  0
   58.9980   30.4750   49.8490 C   0  0  0  0  0  0  0  0  0  0  0  0
   58.1460   30.2710   48.7690 O   0  0  0  0  0  0  0  0  0  0  0  0
   58.4380   30.4120   51.1240 C   0  0  0  0  0  0  0  0  0  0  0  0
   57.0670   30.1370   51.2640 O   0  0  0  0  0  0  0  0  0  0  0  0
   56.3930   30.1710   52.5240 C   0  0  0  0  0  0  0  0  0  0  0  0
   57.3590   29.7970   53.6640 C   0  0  2  0  0  0  0  0  0  0  0  0
   56.7520   29.9180   54.9290 O   0  0  0  0  0  0  0  0  0  0  0  0
   58.8796   34.9918   52.5298 H   0  0  0  0  0  0  0  0  0  0  0  0
   59.7970   31.6076   54.9559 H   0  0  0  0  0  0  0  0  0  0  0  0
   58.0197   31.7919   55.2030 H   0  0  0  0  0  0  0  0  0  0  0  0
   61.6330   31.2820   53.8860 H   0  0  0  0  0  0  0  0  0  0  0  0
   63.1535   30.8054   51.7685 H   0  0  0  0  0  0  0  0  0  0  0  0
   63.0725   29.9061   50.2156 H   0  0  0  0  0  0  0  0  0  0  0  0
   63.0500   31.7023   50.2156 H   0  0  0  0  0  0  0  0  0  0  0  0
   61.9587   30.3438   48.3524 H   0  0  0  0  0  0  0  0  0  0  0  0
   58.5112   25.3057   44.5106 H   0  0  0  0  0  0  0  0  0  0  0  0
   59.7705   26.1591   47.7485 H   0  0  0  0  0  0  0  0  0  0  0  0
   59.4884   24.8678   46.5321 H   0  0  0  0  0  0  0  0  0  0  0  0
   61.0364   25.7789   46.5321 H   0  0  0  0  0  0  0  0  0  0  0  0
   59.5044   33.4104   49.3355 H   0  0  0  0  0  0  0  0  0  0  0  0
   58.7356   34.5258   48.1558 H   0  0  0  0  0  0  0  0  0  0  0  0
   58.3043   32.7821   48.1558 H   0  0  0  0  0  0  0  0  0  0  0  0
   60.9460   35.2623   47.6087 H   0  0  0  0  0  0  0  0  0  0  0  0
   61.6217   34.4589   46.1510 H   0  0  0  0  0  0  0  0  0  0  0  0
   59.9208   35.0367   46.1510 H   0  0  0  0  0  0  0  0  0  0  0  0
   61.6241   32.9299   48.9284 H   0  0  0  0  0  0  0  0  0  0  0  0
   63.1834   31.4329   47.1302 H   0  0  0  0  0  0  0  0  0  0  0  0
   62.4777   32.7330   46.0948 H   0  0  0  0  0  0  0  0  0  0  0  0
   63.6358   33.7911   51.0641 H   0  0  0  0  0  0  0  0  0  0  0  0
   63.4087   35.1732   49.9395 H   0  0  0  0  0  0  0  0  0  0  0  0
   62.2353   33.8132   49.9395 H   0  0  0  0  0  0  0  0  0  0  0  0
   56.0028   31.1846   52.6983 H   0  0  0  0  0  0  0  0  0  0  0  0
   55.5674   29.4443   52.5051 H   0  0  0  0  0  0  0  0  0  0  0  0
   57.6357   28.7366   53.5688 H   0  0  0  0  0  0  0  0  0  0  0  0
   56.1850   30.7330   54.9260 H   0  0  0  0  0  0  0  0  0  0  0  0
  1  2  3  0
  2  3  1  0
  3  4  1  0
  4  5  1  0
  5  6  2  0
  6  7  1  0
  6  8  1  0
  8  9  1  0
  8 10  2  0
 10 11  1  0
 11 12  1  0
 12 13  1  0
 13 14  2  0
 14 15  1  0
 14 16  1  0
 16 17  1  0
 17 18  1  0
 18 19  2  0
 18 20  1  0
 20 21  2  0
 21 22  1  0
 21 23  1  0
 23 24  1  0
 24 25  1  0
 13 26  1  0
 26 27  1  0
 27 28  1  0
 27 29  1  0
 27 30  1  0
 30 31  1  0
 31 32  1  0
 32 33  1  0
 33 34  1  0
 33 35  2  0
 10 36  1  0
 36 37  1  0
 36 38  2  0
 38 39  1  0
 39 40  1  0
 40 41  1  0
 41 42  1  0
 41  4  1  0
 38  5  1  0
 30 11  1  0
 24 12  2  0
 23 16  2  0
  1 43  1  0
  3 44  1  0
  3 45  1  0
  7 46  1  0
  9 47  1  0
  9 48  1  0
  9 49  1  0
 11 50  1  1
 20 51  1  0
 22 52  1  0
 22 53  1  0
 22 54  1  0
 28 55  1  0
 28 56  1  0
 28 57  1  0
 29 58  1  0
 29 59  1  0
 29 60  1  0
 30 61  1  1
 31 62  1  0
 31 63  1  0
 34 64  1  0
 34 65  1  0
 34 66  1  0
 40 67  1  0
 40 68  1  0
 41 69  1  6
 42 70  1  0
M  CHG  4  15  -1  25  -1  32  -1  37  -1
M  END
>  <UniqueID>  (42) 
38

>  <SMILES>  (42) 
C#CCN1c2c(O)c(C)c([C@H]3c4c(c([O-])c5oc(=O)cc(C)c5c4[O-])OC(C)(C)[C@@H]3C[N-]C(C)=O)c([O-])c2OCC1O

>  <Energy>  (42) 
106.97794497459154

>  <Genealogy>  (42) 
C#CCN1c2c(O)c(C)c(C3c4c(c([O-])c5oc(=O)cc(C)c5c4[O-])OC(C)(C)C3C[N-]C(C)=O)c([O-])c2OCC1O (protonated)
C#CCN1c2c(O)c(C)c([C@H]3c4c(c([O-])c5oc(=O)cc(C)c5c4[O-])OC(C)(C)[C@@H]3C[N-]C(C)=O)c([O-])c2OCC1O (chirality)
C#CCN1c2c(O)c(C)c([C@H]3c4c(c([O-])c5oc(=O)cc(C)c5c4[O-])OC(C)(C)[C@@H]3C[N-]C(C)=O)c([O-])c2OCC1O (3D coordinates assigned)
C#CCN1c2c(O)c(C)c([C@H]3c4c(c([O-])c5oc(=O)cc(C)c5c4[O-])OC(C)(C)[C@@H]3C[N-]C(C)=O)c([O-])c2OCC1O (nonaromatic ring conformer: 106.97794497459154 kcal/mol)

>  <smiles>  (42) 
C#CCN1c2c(O)c(C)c(C3c4c(c(O)c5oc(=O)cc(C)c5c4O)OC(C)(C)C3CNC(C)=O)c(O)c2OCC1O

>  <score_type>  (42) 
oracle

>  <origin>  (42) 
adg

>  <m_score__min__energy>  (42) 
-10.98

>  <m_primary>  (42) 
energy

$$$$
42:0
     RDKit          3D

 54 58  0  0  0  0  0  0  0  0999 V2000
   60.1885   30.7275   51.1104 H   0  0  0  0  0  0  0  0  0  0  0  0
   60.0380   29.9980   50.3010 C   0  0  0  0  0  0  0  0  0  0  0  0
   59.1190   30.2640   49.2820 C   0  0  0  0  0  0  0  0  0  0  0  0
   58.5544   31.2081   49.2836 H   0  0  0  0  0  0  0  0  0  0  0  0
   58.9170   29.3310   48.2610 C   0  0  0  0  0  0  0  0  0  0  0  0
   58.2045   29.5518   47.4526 H   0  0  0  0  0  0  0  0  0  0  0  0
   59.6160   28.1160   48.2600 C   0  0  0  0  0  0  0  0  0  0  0  0
   59.4010   27.2010   47.1730 N   0  0  0  0  0  0  0  0  0  0  0  0
   58.3110   26.5360   46.9060 C   0  0  0  0  0  0  0  0  0  0  0  0
   57.9670   25.4400   47.6370 N   0  0  0  0  0  0  0  0  0  0  0  0
   56.8470   24.7230   47.3640 C   0  0  0  0  0  0  0  0  0  0  0  0
   56.5150   23.5990   48.1280 C   0  0  0  0  0  0  0  0  0  0  0  0
   57.1606   23.2895   48.9631 H   0  0  0  0  0  0  0  0  0  0  0  0
   55.3600   22.8700   47.8270 C   0  0  0  0  0  0  0  0  0  0  0  0
   55.0959   21.9875   48.4282 H   0  0  0  0  0  0  0  0  0  0  0  0
   54.5390   23.2610   46.7620 C   0  0  0  0  0  0  0  0  0  0  0  0
   53.6321   22.6840   46.5282 H   0  0  0  0  0  0  0  0  0  0  0  0
   54.8690   24.3840   45.9940 C   0  0  0  0  0  0  0  0  0  0  0  0
   54.2251   24.6881   45.1556 H   0  0  0  0  0  0  0  0  0  0  0  0
   56.0210   25.1180   46.2970 C   0  0  0  0  0  0  0  0  0  0  0  0
   56.3500   26.2190   45.5750 N   0  0  0  0  0  0  0  0  0  0  0  0
   57.4610   26.9560   45.8560 C   0  0  0  0  0  0  0  0  0  0  0  0
   57.7400   28.1320   45.0710 N   0  0  0  0  0  0  0  0  0  0  0  0
   59.1230   28.5660   44.8310 C   0  0  0  0  0  0  0  0  0  0  0  0
   59.4682   28.1663   43.8661 H   0  0  0  0  0  0  0  0  0  0  0  0
   59.7655   28.1905   45.6410 H   0  0  0  0  0  0  0  0  0  0  0  0
   59.1930   30.0960   44.8010 C   0  0  0  0  0  0  0  0  0  0  0  0
   60.2307   30.4002   44.5994 H   0  0  0  0  0  0  0  0  0  0  0  0
   58.8511   30.4712   45.7769 H   0  0  0  0  0  0  0  0  0  0  0  0
   58.3110   30.6730   43.7520 N   0  0  0  0  0  0  0  0  0  0  0  0
   58.8340   30.6400   42.8460 H   0  0  0  0  0  0  0  0  0  0  0  0
   58.0300   32.0610   44.0730 C   0  0  0  0  0  0  0  0  0  0  0  0
   57.3930   32.7700   43.2450 O   0  0  0  0  0  0  0  0  0  0  0  0
   58.4410   32.6710   45.3660 C   0  0  0  0  0  0  0  0  0  0  0  0
   59.4860   33.6140   45.3900 C   0  0  0  0  0  0  0  0  0  0  0  0
   59.9971   33.8851   44.4544 H   0  0  0  0  0  0  0  0  0  0  0  0
   59.8800   34.2090   46.5920 C   0  0  0  0  0  0  0  0  0  0  0  0
   60.7015   34.9405   46.5993 H   0  0  0  0  0  0  0  0  0  0  0  0
   59.2320   33.8760   47.7840 C   0  0  0  0  0  0  0  0  0  0  0  0
   59.5450   34.3431   48.7294 H   0  0  0  0  0  0  0  0  0  0  0  0
   58.1880   32.9510   47.7750 C   0  0  0  0  0  0  0  0  0  0  0  0
   57.6764   32.6919   48.7137 H   0  0  0  0  0  0  0  0  0  0  0  0
   57.7900   32.3520   46.5750 C   0  0  0  0  0  0  0  0  0  0  0  0
   56.9630   31.6267   46.5749 H   0  0  0  0  0  0  0  0  0  0  0  0
   57.0480   29.9120   43.5210 C   0  0  0  0  0  0  0  0  0  0  0  0
   57.1861   29.2645   42.6426 H   0  0  0  0  0  0  0  0  0  0  0  0
   56.2460   30.6495   43.3699 H   0  0  0  0  0  0  0  0  0  0  0  0
   56.6410   29.0350   44.7140 C   0  0  0  0  0  0  0  0  0  0  0  0
   55.7550   28.4415   44.4443 H   0  0  0  0  0  0  0  0  0  0  0  0
   56.4101   29.6804   45.5743 H   0  0  0  0  0  0  0  0  0  0  0  0
   60.5660   27.8690   49.2700 C   0  0  0  0  0  0  0  0  0  0  0  0
   61.1523   26.9383   49.2559 H   0  0  0  0  0  0  0  0  0  0  0  0
   60.7660   28.8040   50.2910 C   0  0  0  0  0  0  0  0  0  0  0  0
   61.4970   28.5998   51.0872 H   0  0  0  0  0  0  0  0  0  0  0  0
  1  2  1  0
  2  3  2  0
  3  4  1  0
  3  5  1  0
  5  6  1  0
  5  7  2  0
  7  8  1  0
  8  9  2  0
  9 10  1  0
 10 11  1  0
 11 12  2  0
 12 13  1  0
 12 14  1  0
 14 15  1  0
 14 16  2  0
 16 17  1  0
 16 18  1  0
 18 19  1  0
 18 20  2  0
 20 21  1  0
 21 22  2  0
 22 23  1  0
 23 24  1  0
 24 25  1  0
 24 26  1  0
 24 27  1  0
 27 28  1  0
 27 29  1  0
 27 30  1  0
 30 31  1  0
 30 32  1  0
 32 33  2  0
 32 34  1  0
 34 35  2  0
 35 36  1  0
 35 37  1  0
 37 38  1  0
 37 39  2  0
 39 40  1  0
 39 41  1  0
 41 42  1  0
 41 43  2  0
 43 44  1  0
 30 45  1  0
 45 46  1  0
 45 47  1  0
 45 48  1  0
 48 49  1  0
 48 50  1  0
  7 51  1  0
 51 52  1  0
 51 53  2  0
 53 54  1  0
 53  2  1  0
 22  9  1  0
 48 23  1  0
 20 11  1  0
 43 34  1  0
M  CHG  2  10  -1  30   1
M  END
>  <UniqueID>  (43) 
39

>  <SMILES>  (43) 
O=C(c1ccccc1)[NH+]1CCN(c2nc3ccccc3[n-]/c2=N\c2ccccc2)CC1

>  <Energy>  (43) 
85.67950455425553

>  <Genealogy>  (43) 
O=C(c1ccccc1)[NH+]1CCN(c2nc3ccccc3[n-]c2=Nc2ccccc2)CC1 (protonated)
O=C(c1ccccc1)[NH+]1CCN(c2nc3ccccc3[n-]/c2=N\c2ccccc2)CC1 (cis-trans isomerization)
O=C(c1ccccc1)[NH+]1CCN(c2nc3ccccc3[n-]/c2=N\c2ccccc2)CC1 (3D coordinates assigned)
O=C(c1ccccc1)[NH+]1CCN(c2nc3ccccc3[n-]/c2=N\c2ccccc2)CC1 (nonaromatic ring conformer: 85.67950455425553 kcal/mol)

>  <smiles>  (43) 
O=C(c1ccccc1)N1CCN(c2nc3ccccc3[nH]c2=Nc2ccccc2)CC1

>  <score_type>  (43) 
oracle

>  <origin>  (43) 
adg

>  <m_score__min__energy>  (43) 
-9.2300000000000004

>  <m_primary>  (43) 
energy

$$$$
43:0
     RDKit          3D

 52 55  0  0  0  0  0  0  0  0999 V2000
   51.6610   22.1220   46.3900 C   0  0  0  0  0  0  0  0  0  0  0  0
   52.4610   22.5370   45.2870 O   0  0  0  0  0  0  0  0  0  0  0  0
   52.9590   23.8390   45.1770 C   0  0  0  0  0  0  0  0  0  0  0  0
   52.1730   24.8270   45.1350 O   0  0  0  0  0  0  0  0  0  0  0  0
   54.4420   24.0660   45.1130 C   0  0  2  0  0  0  0  0  0  0  0  0
   55.1780   22.9870   45.9230 C   0  0  0  0  0  0  0  0  0  0  0  0
   56.4860   22.5910   45.2790 C   0  0  0  0  0  0  0  0  0  0  0  0
   56.5030   21.8540   44.0800 C   0  0  0  0  0  0  0  0  0  0  0  0
   57.7210   21.4850   43.4970 C   0  0  0  0  0  0  0  0  0  0  0  0
   58.9260   21.8490   44.1090 C   0  0  0  0  0  0  0  0  0  0  0  0
   58.9160   22.6010   45.2880 C   0  0  0  0  0  0  0  0  0  0  0  0
   57.7030   22.9810   45.8660 C   0  0  0  0  0  0  0  0  0  0  0  0
   54.7670   25.4020   45.6290 N   0  0  0  0  0  0  0  0  0  0  0  0
   56.0600   25.7360   46.1440 C   0  0  0  0  0  0  0  0  0  0  0  0
   56.3140   25.6030   47.3600 O   0  0  0  0  0  0  0  0  0  0  0  0
   57.1110   26.2880   45.2340 C   0  0  0  0  0  0  0  0  0  0  0  0
   57.8650   27.3830   45.8970 N   0  0  0  0  0  0  0  0  0  0  0  0
   58.7660   27.0750   46.8910 C   0  0  0  0  0  0  0  0  0  0  0  0
   58.9470   25.8820   47.2580 O   0  0  0  0  0  0  0  0  0  0  0  0
   59.4820   28.0490   47.5030 N   0  0  0  0  0  0  0  0  0  0  0  0
   59.3720   29.3510   47.1590 C   0  0  0  0  0  0  0  0  0  0  0  0
   60.0660   30.2010   47.7760 O   0  0  0  0  0  0  0  0  0  0  0  0
   58.4940   29.7230   46.1290 C   0  0  0  0  0  0  0  0  0  0  0  0
   58.3540   31.0450   45.6540 C   0  0  0  0  0  0  0  0  0  0  0  0
   59.0290   32.1650   45.9950 N   0  0  0  0  0  0  0  0  0  0  0  0
   58.5760   33.1570   45.2360 N   0  0  0  0  0  0  0  0  0  0  0  0
   59.1120   34.5150   45.2500 C   0  0  0  0  0  0  0  0  0  0  0  0
   57.6250   32.6970   44.3920 C   0  0  0  0  0  0  0  0  0  0  0  0
   57.4720   31.3530   44.6510 C   0  0  0  0  0  0  0  0  0  0  0  0
   56.6560   30.4060   44.0590 C   0  0  0  0  0  0  0  0  0  0  0  0
   56.7620   29.0820   44.5020 C   0  0  0  0  0  0  0  0  0  0  0  0
   57.7010   28.7040   45.5140 C   0  0  0  0  0  0  0  0  0  0  0  0
   52.1680   22.3850   47.3301 H   0  0  0  0  0  0  0  0  0  0  0  0
   50.6850   22.6275   46.3458 H   0  0  0  0  0  0  0  0  0  0  0  0
   51.5122   21.0330   46.3458 H   0  0  0  0  0  0  0  0  0  0  0  0
   54.7691   24.0017   44.0647 H   0  0  0  0  0  0  0  0  0  0  0  0
   55.3820   23.3769   46.9312 H   0  0  0  0  0  0  0  0  0  0  0  0
   54.5354   22.0952   45.9643 H   0  0  0  0  0  0  0  0  0  0  0  0
   55.5560   21.5670   43.5995 H   0  0  0  0  0  0  0  0  0  0  0  0
   57.7311   20.9099   42.5594 H   0  0  0  0  0  0  0  0  0  0  0  0
   59.8831   21.5428   43.6615 H   0  0  0  0  0  0  0  0  0  0  0  0
   59.8651   22.8936   45.7608 H   0  0  0  0  0  0  0  0  0  0  0  0
   57.6993   23.5875   46.7837 H   0  0  0  0  0  0  0  0  0  0  0  0
   57.8098   25.4835   44.9612 H   0  0  0  0  0  0  0  0  0  0  0  0
   56.6210   26.6925   44.3361 H   0  0  0  0  0  0  0  0  0  0  0  0
   59.7960   32.2750   46.6920 H   0  0  0  0  0  0  0  0  0  0  0  0
   59.2430   34.8468   46.2906 H   0  0  0  0  0  0  0  0  0  0  0  0
   60.0839   34.5309   44.7350 H   0  0  0  0  0  0  0  0  0  0  0  0
   58.4130   35.1904   44.7350 H   0  0  0  0  0  0  0  0  0  0  0  0
   57.0773   33.2849   43.6408 H   0  0  0  0  0  0  0  0  0  0  0  0
   55.9466   30.6841   43.2657 H   0  0  0  0  0  0  0  0  0  0  0  0
   56.1084   28.3144   44.0620 H   0  0  0  0  0  0  0  0  0  0  0  0
  1  2  1  0
  2  3  1  0
  3  4  2  0
  3  5  1  0
  5  6  1  0
  6  7  1  0
  7  8  2  0
  8  9  1  0
  9 10  2  0
 10 11  1  0
 11 12  2  0
  5 13  1  0
 13 14  1  0
 14 15  2  0
 14 16  1  0
 16 17  1  0
 17 18  1  0
 18 19  2  0
 18 20  1  0
 20 21  1  0
 21 22  2  0
 21 23  1  0
 23 24  1  0
 24 25  2  0
 25 26  1  0
 26 27  1  0
 26 28  1  0
 28 29  2  0
 29 30  1  0
 30 31  2  0
 31 32  1  0
 12  7  1  0
 32 17  1  0
 32 23  2  0
 29 24  1  0
  1 33  1  0
  1 34  1  0
  1 35  1  0
  5 36  1  6
  6 37  1  0
  6 38  1  0
  8 39  1  0
  9 40  1  0
 10 41  1  0
 11 42  1  0
 12 43  1  0
 16 44  1  0
 16 45  1  0
 25 46  1  0
 27 47  1  0
 27 48  1  0
 27 49  1  0
 28 50  1  0
 30 51  1  0
 31 52  1  0
M  CHG  3  13  -1  20  -1  25   1
M  END
>  <UniqueID>  (44) 
40

>  <SMILES>  (44) 
COC(=O)[C@H](Cc1ccccc1)[N-]C(=O)Cn1c(=O)[n-]c(=O)c2c3[nH+]n(C)cc3ccc21

>  <Energy>  (44) 
95.38424217990189

>  <Genealogy>  (44) 
COC(=O)C(Cc1ccccc1)[N-]C(=O)Cn1c(=O)[n-]c(=O)c2c3[nH+]n(C)cc3ccc21 (protonated)
COC(=O)[C@H](Cc1ccccc1)[N-]C(=O)Cn1c(=O)[n-]c(=O)c2c3[nH+]n(C)cc3ccc21 (chirality)
COC(=O)[C@H](Cc1ccccc1)[N-]C(=O)Cn1c(=O)[n-]c(=O)c2c3[nH+]n(C)cc3ccc21 (3D coordinates assigned)
COC(=O)[C@H](Cc1ccccc1)[N-]C(=O)Cn1c(=O)[n-]c(=O)c2c3[nH+]n(C)cc3ccc21 (optimized conformer: 95.38424217990189 kcal/mol)

>  <smiles>  (44) 
COC(=O)C(Cc1ccccc1)NC(=O)Cn1c(=O)[nH]c(=O)c2c3nn(C)cc3ccc21

>  <score_type>  (44) 
oracle

>  <origin>  (44) 
adg

>  <m_score__min__energy>  (44) 
-11.050000000000001

>  <m_primary>  (44) 
energy

$$$$
44:0
     RDKit          3D

 55 59  0  0  0  0  0  0  0  0999 V2000
   59.6400   26.4550   47.6340 O   0  0  0  0  0  0  0  0  0  0  0  0
   58.9460   26.6900   46.6090 C   0  0  0  0  0  0  0  0  0  0  0  0
   58.7650   28.0390   46.1460 N   0  0  0  0  0  0  0  0  0  0  0  0
   59.3700   29.1890   46.7590 C   0  0  0  0  0  0  0  0  0  0  0  0
   60.0410   30.1210   45.9550 C   0  0  0  0  0  0  0  0  0  0  0  0
   60.6180   31.2620   46.5210 C   0  0  0  0  0  0  0  0  0  0  0  0
   60.5220   31.4960   47.9020 C   0  0  0  0  0  0  0  0  0  0  0  0
   61.1000   32.6800   48.4830 N   0  0  0  0  0  0  0  0  0  0  0  0
   62.1380   33.4350   47.7730 C   0  0  0  0  0  0  0  0  0  0  0  0
   63.3870   33.5340   48.6520 C   0  0  0  0  0  0  0  0  0  0  0  0
   63.0410   33.9080   50.0350 N   0  0  0  0  0  0  0  0  0  0  0  0
   64.0930   34.2160   50.9670 C   0  0  0  0  0  0  0  0  0  0  0  0
   63.9390   35.1510   51.7990 O   0  0  0  0  0  0  0  0  0  0  0  0
   65.3700   33.4730   50.9540 C   0  0  0  0  0  0  0  0  0  0  0  0
   66.5770   34.1860   51.0290 C   0  0  0  0  0  0  0  0  0  0  0  0
   67.8000   33.5130   51.0070 C   0  0  0  0  0  0  0  0  0  0  0  0
   67.8300   32.1200   50.9210 C   0  0  0  0  0  0  0  0  0  0  0  0
   66.6360   31.3960   50.8690 C   0  0  0  0  0  0  0  0  0  0  0  0
   65.4050   32.0620   50.8910 C   0  0  0  0  0  0  0  0  0  0  0  0
   63.9320   31.0930   50.9060 Cl  0  0  0  0  0  0  0  0  0  0  0  0
   61.6420   34.1760   50.3980 C   0  0  0  0  0  0  0  0  0  0  0  0
   60.7280   33.0680   49.8540 C   0  0  0  0  0  0  0  0  0  0  0  0
   59.8210   30.5790   48.7020 C   0  0  0  0  0  0  0  0  0  0  0  0
   59.2460   29.4390   48.1360 C   0  0  0  0  0  0  0  0  0  0  0  0
   58.3120   25.5580   45.9120 C   0  0  0  0  0  0  0  0  0  0  0  0
   58.0510   24.0490   46.6310 S   0  0  0  0  0  0  0  0  0  0  0  0
   57.3630   23.3450   45.2740 C   0  0  0  0  0  0  0  0  0  0  0  0
   56.8860   22.0440   45.1300 C   0  0  0  0  0  0  0  0  0  0  0  0
   56.3640   21.6630   43.8850 C   0  0  0  0  0  0  0  0  0  0  0  0
   55.8910   20.4050   43.7090 F   0  0  0  0  0  0  0  0  0  0  0  0
   56.3350   22.5800   42.8160 C   0  0  0  0  0  0  0  0  0  0  0  0
   56.8250   23.8860   42.9860 C   0  0  0  0  0  0  0  0  0  0  0  0
   57.3380   24.2620   44.2330 C   0  0  0  0  0  0  0  0  0  0  0  0
   57.8770   25.5130   44.5780 C   0  0  0  0  0  0  0  0  0  0  0  0
   58.0960   26.8160   43.4130 Cl  0  0  0  0  0  0  0  0  0  0  0  0
   58.1990   28.2020   45.2840 H   0  0  0  0  0  0  0  0  0  0  0  0
   60.1142   29.9534   44.8703 H   0  0  0  0  0  0  0  0  0  0  0  0
   61.1503   31.9806   45.8804 H   0  0  0  0  0  0  0  0  0  0  0  0
   62.3898   32.9191   46.8347 H   0  0  0  0  0  0  0  0  0  0  0  0
   61.7671   34.4457   47.5472 H   0  0  0  0  0  0  0  0  0  0  0  0
   63.8966   32.5592   48.6614 H   0  0  0  0  0  0  0  0  0  0  0  0
   64.0432   34.3126   48.2359 H   0  0  0  0  0  0  0  0  0  0  0  0
   66.5590   35.2832   51.1057 H   0  0  0  0  0  0  0  0  0  0  0  0
   68.7407   34.0809   51.0575 H   0  0  0  0  0  0  0  0  0  0  0  0
   68.7945   31.5918   50.8941 H   0  0  0  0  0  0  0  0  0  0  0  0
   66.6635   30.2979   50.8105 H   0  0  0  0  0  0  0  0  0  0  0  0
   61.5525   34.2147   51.4937 H   0  0  0  0  0  0  0  0  0  0  0  0
   61.3370   35.1381   49.9605 H   0  0  0  0  0  0  0  0  0  0  0  0
   60.8075   32.1870   50.5079 H   0  0  0  0  0  0  0  0  0  0  0  0
   59.6974   33.4522   49.8342 H   0  0  0  0  0  0  0  0  0  0  0  0
   59.7241   30.7600   49.7827 H   0  0  0  0  0  0  0  0  0  0  0  0
   58.6927   28.7325   48.7722 H   0  0  0  0  0  0  0  0  0  0  0  0
   56.9179   21.3346   45.9701 H   0  0  0  0  0  0  0  0  0  0  0  0
   55.9263   22.2719   41.8423 H   0  0  0  0  0  0  0  0  0  0  0  0
   56.8057   24.6023   42.1514 H   0  0  0  0  0  0  0  0  0  0  0  0
  1  2  2  0
  2  3  1  0
  3  4  1  0
  4  5  2  0
  5  6  1  0
  6  7  2  0
  7  8  1  0
  8  9  1  0
  9 10  1  0
 10 11  1  0
 11 12  1  0
 12 13  2  0
 12 14  1  0
 14 15  2  0
 15 16  1  0
 16 17  2  0
 17 18  1  0
 18 19  2  0
 19 20  1  0
 11 21  1  0
 21 22  1  0
  7 23  1  0
 23 24  2  0
  2 25  1  0
 25 26  1  0
 26 27  1  0
 27 28  2  0
 28 29  1  0
 29 30  1  0
 29 31  2  0
 31 32  1  0
 32 33  2  0
 33 34  1  0
 34 35  1  0
 24  4  1  0
 34 25  2  0
 22  8  1  0
 33 27  1  0
 19 14  1  0
  3 36  1  0
  5 37  1  0
  6 38  1  0
  9 39  1  0
  9 40  1  0
 10 41  1  0
 10 42  1  0
 15 43  1  0
 16 44  1  0
 17 45  1  0
 18 46  1  0
 21 47  1  0
 21 48  1  0
 22 49  1  0
 22 50  1  0
 23 51  1  0
 24 52  1  0
 28 53  1  0
 31 54  1  0
 32 55  1  0
M  END
>  <UniqueID>  (45) 
41

>  <SMILES>  (45) 
O=C(Nc1ccc(N2CCN(C(=O)c3ccccc3Cl)CC2)cc1)c1sc2cc(F)ccc2c1Cl

>  <Energy>  (45) 
111.01280097429118

>  <Genealogy>  (45) 
O=C(Nc1ccc(N2CCN(C(=O)c3ccccc3Cl)CC2)cc1)c1sc2cc(F)ccc2c1Cl (3D coordinates assigned)
O=C(Nc1ccc(N2CCN(C(=O)c3ccccc3Cl)CC2)cc1)c1sc2cc(F)ccc2c1Cl (nonaromatic ring conformer: 111.01280097429118 kcal/mol)

>  <smiles>  (45) 
O=C(Nc1ccc(N2CCN(C(=O)c3ccccc3Cl)CC2)cc1)c1sc2cc(F)ccc2c1Cl

>  <score_type>  (45) 
oracle

>  <origin>  (45) 
adg

>  <m_score__min__energy>  (45) 
-7.8799999999999999

>  <m_primary>  (45) 
energy

$$$$
45:0
     RDKit          3D

 48 50  0  0  0  0  0  0  0  0999 V2000
   56.9300   23.5950   48.0430 C   0  0  0  0  0  0  0  0  0  0  0  0
   57.7530   23.5040   46.8830 O   0  0  0  0  0  0  0  0  0  0  0  0
   57.2870   23.1680   45.6020 C   0  0  0  0  0  0  0  0  0  0  0  0
   57.7610   22.0380   44.9080 C   0  0  0  0  0  0  0  0  0  0  0  0
   57.2680   21.7310   43.6380 C   0  0  0  0  0  0  0  0  0  0  0  0
   56.2920   22.5380   43.0530 C   0  0  0  0  0  0  0  0  0  0  0  0
   55.8130   23.6610   43.7310 C   0  0  0  0  0  0  0  0  0  0  0  0
   56.3200   23.9950   45.0000 C   0  0  0  0  0  0  0  0  0  0  0  0
   55.8310   25.1300   45.7310 N   0  0  0  0  0  0  0  0  0  0  0  0
   56.4690   26.4080   45.8510 C   0  0  0  0  0  0  0  0  0  0  0  0
   55.8230   27.4670   45.6310 O   0  0  0  0  0  0  0  0  0  0  0  0
   57.8550   26.4640   46.2140 N   0  0  0  0  0  0  0  0  0  0  0  0
   58.6580   27.6550   46.1670 C   0  0  0  0  0  0  0  0  0  0  0  0
   59.7690   27.7020   45.3120 C   0  0  0  0  0  0  0  0  0  0  0  0
   60.5510   28.8550   45.2290 C   0  0  0  0  0  0  0  0  0  0  0  0
   60.2230   29.9810   45.9880 C   0  0  0  0  0  0  0  0  0  0  0  0
   59.1030   29.9620   46.8330 C   0  0  0  0  0  0  0  0  0  0  0  0
   58.7200   31.1960   47.6070 C   0  0  0  0  0  0  0  0  0  0  0  0
   58.7170   32.3760   46.7290 N   0  0  0  0  0  0  0  0  0  0  0  0
   59.8060   33.3550   46.8640 C   0  0  0  0  0  0  0  0  0  0  0  0
   59.4080   34.7250   46.3120 C   0  0  0  0  0  0  0  0  0  0  0  0
   58.9000   34.5870   44.8770 C   0  0  0  0  0  0  0  0  0  0  0  0
   57.6420   33.7210   44.8310 C   0  0  0  0  0  0  0  0  0  0  0  0
   57.8200   32.4410   45.5990 C   0  0  0  0  0  0  0  0  0  0  0  0
   57.1050   31.4480   45.2930 O   0  0  0  0  0  0  0  0  0  0  0  0
   58.3170   28.8010   46.9110 C   0  0  0  0  0  0  0  0  0  0  0  0
   57.5573   23.5256   48.9440 H   0  0  0  0  0  0  0  0  0  0  0  0
   56.3975   24.5575   48.0402 H   0  0  0  0  0  0  0  0  0  0  0  0
   56.2001   22.7721   48.0402 H   0  0  0  0  0  0  0  0  0  0  0  0
   58.5240   21.3935   45.3689 H   0  0  0  0  0  0  0  0  0  0  0  0
   57.6497   20.8518   43.0983 H   0  0  0  0  0  0  0  0  0  0  0  0
   55.8991   22.2894   42.0561 H   0  0  0  0  0  0  0  0  0  0  0  0
   55.0352   24.2877   43.2703 H   0  0  0  0  0  0  0  0  0  0  0  0
   58.2780   25.6000   46.6240 H   0  0  0  0  0  0  0  0  0  0  0  0
   60.0259   26.8233   44.7022 H   0  0  0  0  0  0  0  0  0  0  0  0
   61.4274   28.8772   44.5646 H   0  0  0  0  0  0  0  0  0  0  0  0
   60.8451   30.8859   45.9230 H   0  0  0  0  0  0  0  0  0  0  0  0
   57.7148   31.0589   48.0322 H   0  0  0  0  0  0  0  0  0  0  0  0
   59.4542   31.3532   48.4109 H   0  0  0  0  0  0  0  0  0  0  0  0
   60.0606   33.4602   47.9289 H   0  0  0  0  0  0  0  0  0  0  0  0
   60.6681   32.9902   46.2863 H   0  0  0  0  0  0  0  0  0  0  0  0
   58.6125   35.1528   46.9398 H   0  0  0  0  0  0  0  0  0  0  0  0
   60.2878   35.3853   46.3200 H   0  0  0  0  0  0  0  0  0  0  0  0
   58.6659   35.5854   44.4791 H   0  0  0  0  0  0  0  0  0  0  0  0
   59.6818   34.1080   44.2693 H   0  0  0  0  0  0  0  0  0  0  0  0
   56.8046   34.2852   45.2675 H   0  0  0  0  0  0  0  0  0  0  0  0
   57.4398   33.4654   43.7804 H   0  0  0  0  0  0  0  0  0  0  0  0
   57.4278   28.7866   47.5584 H   0  0  0  0  0  0  0  0  0  0  0  0
  1  2  1  0
  2  3  1  0
  3  4  2  0
  4  5  1  0
  5  6  2  0
  6  7  1  0
  7  8  2  0
  8  9  1  0
  9 10  1  0
 10 11  2  0
 10 12  1  0
 12 13  1  0
 13 14  2  0
 14 15  1  0
 15 16  2  0
 16 17  1  0
 17 18  1  0
 18 19  1  0
 19 20  1  0
 20 21  1  0
 21 22  1  0
 22 23  1  0
 23 24  1  0
 24 25  2  0
 17 26  2  0
  8  3  1  0
 26 13  1  0
 24 19  1  0
  1 27  1  0
  1 28  1  0
  1 29  1  0
  4 30  1  0
  5 31  1  0
  6 32  1  0
  7 33  1  0
 12 34  1  0
 14 35  1  0
 15 36  1  0
 16 37  1  0
 18 38  1  0
 18 39  1  0
 20 40  1  0
 20 41  1  0
 21 42  1  0
 21 43  1  0
 22 44  1  0
 22 45  1  0
 23 46  1  0
 23 47  1  0
 26 48  1  0
M  CHG  1   9  -1
M  END
>  <UniqueID>  (46) 
42

>  <SMILES>  (46) 
COc1ccccc1[N-]C(=O)Nc1cccc(CN2CCCCC2=O)c1

>  <Energy>  (46) 
51.17362304792043

>  <Genealogy>  (46) 
COc1ccccc1[N-]C(=O)Nc1cccc(CN2CCCCC2=O)c1 (protonated)
COc1ccccc1[N-]C(=O)Nc1cccc(CN2CCCCC2=O)c1 (3D coordinates assigned)
COc1ccccc1[N-]C(=O)Nc1cccc(CN2CCCCC2=O)c1 (nonaromatic ring conformer: 51.17362304792043 kcal/mol)

>  <smiles>  (46) 
COc1ccccc1NC(=O)Nc1cccc(CN2CCCCC2=O)c1

>  <score_type>  (46) 
oracle

>  <origin>  (46) 
adg

>  <m_score__min__energy>  (46) 
-10.869999999999999

>  <m_primary>  (46) 
energy

$$$$
46:0
     RDKit          3D

 44 46  0  0  0  0  0  0  0  0999 V2000
   58.8220   33.3710   45.8040 C   0  0  0  0  0  0  0  0  0  0  0  0
   58.1310   32.4640   44.8300 C   0  0  0  0  0  0  0  0  0  0  0  0
   58.1410   32.7610   43.4590 C   0  0  0  0  0  0  0  0  0  0  0  0
   57.4770   31.9280   42.5470 C   0  0  0  0  0  0  0  0  0  0  0  0
   57.4720   32.2620   41.0840 C   0  0  0  0  0  0  0  0  0  0  0  0
   56.7610   30.8180   43.0180 C   0  0  0  0  0  0  0  0  0  0  0  0
   56.7210   30.5260   44.3900 C   0  0  0  0  0  0  0  0  0  0  0  0
   55.9830   29.3130   44.8900 C   0  0  0  0  0  0  0  0  0  0  0  0
   56.9530   28.2060   45.2200 C   0  0  0  0  0  0  0  0  0  0  0  0
   58.3190   28.3890   44.9880 C   0  0  0  0  0  0  0  0  0  0  0  0
   59.2160   27.3620   45.2570 C   0  0  0  0  0  0  0  0  0  0  0  0
   58.7450   26.1440   45.7520 C   0  0  0  0  0  0  0  0  0  0  0  0
   59.5780   25.2270   45.9890 O   0  0  0  0  0  0  0  0  0  0  0  0
   57.4010   25.9510   45.9700 N   0  0  0  0  0  0  0  0  0  0  0  0
   56.9100   24.6710   46.5180 C   0  0  0  0  0  0  0  0  0  0  0  0
   56.9220   23.6030   45.4550 C   0  0  0  0  0  0  0  0  0  0  0  0
   57.6410   22.4100   45.6500 C   0  0  0  0  0  0  0  0  0  0  0  0
   57.6700   21.4330   44.6500 C   0  0  0  0  0  0  0  0  0  0  0  0
   56.9880   21.6390   43.4490 C   0  0  0  0  0  0  0  0  0  0  0  0
   56.2730   22.8220   43.2450 C   0  0  0  0  0  0  0  0  0  0  0  0
   56.2410   23.8010   44.2420 C   0  0  0  0  0  0  0  0  0  0  0  0
   56.5080   26.9630   45.7100 C   0  0  0  0  0  0  0  0  0  0  0  0
   55.1460   26.7670   45.9280 O   0  0  0  0  0  0  0  0  0  0  0  0
   57.4120   31.3520   45.2910 C   0  0  0  0  0  0  0  0  0  0  0  0
   58.5827   33.0570   46.8307 H   0  0  0  0  0  0  0  0  0  0  0  0
   59.9095   33.3164   45.6479 H   0  0  0  0  0  0  0  0  0  0  0  0
   58.4806   34.4050   45.6479 H   0  0  0  0  0  0  0  0  0  0  0  0
   58.6731   33.6531   43.0970 H   0  0  0  0  0  0  0  0  0  0  0  0
   57.4556   33.3546   40.9574 H   0  0  0  0  0  0  0  0  0  0  0  0
   58.3764   31.8516   40.6111 H   0  0  0  0  0  0  0  0  0  0  0  0
   56.5803   31.8247   40.6111 H   0  0  0  0  0  0  0  0  0  0  0  0
   56.2266   30.1713   42.3065 H   0  0  0  0  0  0  0  0  0  0  0  0
   55.4170   29.5805   45.7945 H   0  0  0  0  0  0  0  0  0  0  0  0
   55.2971   28.9637   44.1042 H   0  0  0  0  0  0  0  0  0  0  0  0
   58.6849   29.3477   44.5917 H   0  0  0  0  0  0  0  0  0  0  0  0
   60.2920   27.5079   45.0808 H   0  0  0  0  0  0  0  0  0  0  0  0
   57.5589   24.3608   47.3503 H   0  0  0  0  0  0  0  0  0  0  0  0
   55.8779   24.8083   46.8729 H   0  0  0  0  0  0  0  0  0  0  0  0
   58.1827   22.2448   46.5930 H   0  0  0  0  0  0  0  0  0  0  0  0
   58.2311   20.5004   44.8097 H   0  0  0  0  0  0  0  0  0  0  0  0
   57.0137   20.8696   42.6632 H   0  0  0  0  0  0  0  0  0  0  0  0
   55.7350   22.9829   42.2992 H   0  0  0  0  0  0  0  0  0  0  0  0
   55.6793   24.7321   44.0761 H   0  0  0  0  0  0  0  0  0  0  0  0
   57.3891   31.1249   46.3671 H   0  0  0  0  0  0  0  0  0  0  0  0
  1  2  1  0
  2  3  2  0
  3  4  1  0
  4  5  1  0
  4  6  2  0
  6  7  1  0
  7  8  1  0
  8  9  1  0
  9 10  1  0
 10 11  2  0
 11 12  1  0
 12 13  2  0
 12 14  1  0
 14 15  1  0
 15 16  1  0
 16 17  2  0
 17 18  1  0
 18 19  2  0
 19 20  1  0
 20 21  2  0
 14 22  1  0
 22 23  1  0
  7 24  2  0
 24  2  1  0
 22  9  2  0
 21 16  1  0
  1 25  1  0
  1 26  1  0
  1 27  1  0
  3 28  1  0
  5 29  1  0
  5 30  1  0
  5 31  1  0
  6 32  1  0
  8 33  1  0
  8 34  1  0
 10 35  1  0
 11 36  1  0
 15 37  1  0
 15 38  1  0
 17 39  1  0
 18 40  1  0
 19 41  1  0
 20 42  1  0
 21 43  1  0
 24 44  1  0
M  CHG  1  23  -1
M  END
>  <UniqueID>  (47) 
43

>  <SMILES>  (47) 
Cc1cc(C)cc(Cc2ccc(=O)n(Cc3ccccc3)c2[O-])c1

>  <Energy>  (47) 
47.14008776984222

>  <Genealogy>  (47) 
Cc1cc(C)cc(Cc2ccc(=O)n(Cc3ccccc3)c2[O-])c1 (protonated)
Cc1cc(C)cc(Cc2ccc(=O)n(Cc3ccccc3)c2[O-])c1 (3D coordinates assigned)
Cc1cc(C)cc(Cc2ccc(=O)n(Cc3ccccc3)c2[O-])c1 (optimized conformer: 47.14008776984222 kcal/mol)

>  <smiles>  (47) 
Cc1cc(C)cc(Cc2ccc(=O)n(Cc3ccccc3)c2O)c1

>  <score_type>  (47) 
oracle

>  <origin>  (47) 
adg

>  <m_score__min__energy>  (47) 
-12.140000000000001

>  <m_primary>  (47) 
energy

$$$$
47:0
     RDKit          3D

 43 45  0  0  0  0  0  0  0  0999 V2000
   56.8300   25.9870   46.4500 C   0  0  0  0  0  0  0  0  0  0  0  0
   57.1410   27.3090   45.8110 C   0  0  0  0  0  0  0  0  0  0  0  0
   58.4690   27.7150   45.6600 C   0  0  0  0  0  0  0  0  0  0  0  0
   58.7680   28.9330   45.0320 C   0  0  0  0  0  0  0  0  0  0  0  0
   60.2140   29.3270   44.8700 C   0  0  0  0  0  0  0  0  0  0  0  0
   57.7070   29.7400   44.5500 C   0  0  0  0  0  0  0  0  0  0  0  0
   57.9480   31.0770   43.8730 C   0  0  0  0  0  0  0  0  0  0  0  0
   57.0860   32.1060   44.4480 N   0  0  0  0  0  0  0  0  0  0  0  0
   57.4080   32.8550   45.6260 C   0  0  0  0  0  0  0  0  0  0  0  0
   56.6430   33.7890   45.9920 O   0  0  0  0  0  0  0  0  0  0  0  0
   58.6310   32.5450   46.4240 C   0  0  0  0  0  0  0  0  0  0  0  0
   58.6000   31.4740   47.3240 C   0  0  0  0  0  0  0  0  0  0  0  0
   59.7200   31.1530   48.0870 C   0  0  0  0  0  0  0  0  0  0  0  0
   59.6690   30.0740   48.9860 C   0  0  0  0  0  0  0  0  0  0  0  0
   60.7840   29.7460   49.7560 C   0  0  0  0  0  0  0  0  0  0  0  0
   60.7130   28.3970   50.8760 Cl  0  0  0  0  0  0  0  0  0  0  0  0
   61.9550   30.4920   49.6380 C   0  0  0  0  0  0  0  0  0  0  0  0
   62.0200   31.5650   48.7470 C   0  0  0  0  0  0  0  0  0  0  0  0
   60.9020   31.9190   47.9500 C   0  0  0  0  0  0  0  0  0  0  0  0
   60.9370   32.9760   47.0590 N   0  0  0  0  0  0  0  0  0  0  0  0
   62.1730   33.7730   46.9060 C   0  0  0  0  0  0  0  0  0  0  0  0
   59.8250   33.2950   46.3090 C   0  0  0  0  0  0  0  0  0  0  0  0
   59.8650   34.2700   45.5090 O   0  0  0  0  0  0  0  0  0  0  0  0
   56.3840   29.2700   44.6970 C   0  0  0  0  0  0  0  0  0  0  0  0
   55.4160   29.9470   44.2550 O   0  0  0  0  0  0  0  0  0  0  0  0
   56.1370   28.0820   45.3130 N   0  0  0  0  0  0  0  0  0  0  0  0
   56.8551   26.0938   47.5445 H   0  0  0  0  0  0  0  0  0  0  0  0
   55.8292   25.6548   46.1369 H   0  0  0  0  0  0  0  0  0  0  0  0
   57.5778   25.2435   46.1369 H   0  0  0  0  0  0  0  0  0  0  0  0
   59.2831   27.0773   46.0349 H   0  0  0  0  0  0  0  0  0  0  0  0
   60.6733   29.4521   45.8617 H   0  0  0  0  0  0  0  0  0  0  0  0
   60.7481   28.5416   44.3151 H   0  0  0  0  0  0  0  0  0  0  0  0
   60.2758   30.2747   44.3151 H   0  0  0  0  0  0  0  0  0  0  0  0
   58.9999   31.3678   44.0109 H   0  0  0  0  0  0  0  0  0  0  0  0
   57.7180   30.9791   42.8018 H   0  0  0  0  0  0  0  0  0  0  0  0
   57.6809   30.8790   47.4300 H   0  0  0  0  0  0  0  0  0  0  0  0
   58.7448   29.4853   49.0826 H   0  0  0  0  0  0  0  0  0  0  0  0
   62.8322   30.2344   50.2496 H   0  0  0  0  0  0  0  0  0  0  0  0
   62.9516   32.1438   48.6622 H   0  0  0  0  0  0  0  0  0  0  0  0
   62.5697   34.0288   47.8996 H   0  0  0  0  0  0  0  0  0  0  0  0
   62.9211   33.1867   46.3523 H   0  0  0  0  0  0  0  0  0  0  0  0
   61.9477   34.6964   46.3523 H   0  0  0  0  0  0  0  0  0  0  0  0
   55.1470   27.7570   45.4020 H   0  0  0  0  0  0  0  0  0  0  0  0
  1  2  1  0
  2  3  2  0
  3  4  1  0
  4  5  1  0
  4  6  2  0
  6  7  1  0
  7  8  1  0
  8  9  1  0
  9 10  2  0
  9 11  1  0
 11 12  2  0
 12 13  1  0
 13 14  2  0
 14 15  1  0
 15 16  1  0
 15 17  2  0
 17 18  1  0
 18 19  2  0
 19 20  1  0
 20 21  1  0
 20 22  1  0
 22 23  2  0
  6 24  1  0
 24 25  2  0
 24 26  1  0
 26  2  1  0
 22 11  1  0
 19 13  1  0
  1 27  1  0
  1 28  1  0
  1 29  1  0
  3 30  1  0
  5 31  1  0
  5 32  1  0
  5 33  1  0
  7 34  1  0
  7 35  1  0
 12 36  1  0
 14 37  1  0
 17 38  1  0
 18 39  1  0
 21 40  1  0
 21 41  1  0
 21 42  1  0
 26 43  1  0
M  CHG  1   8  -1
M  END
>  <UniqueID>  (48) 
44

>  <SMILES>  (48) 
Cc1cc(C)c(C[N-]C(=O)c2cc3cc(Cl)ccc3n(C)c2=O)c(=O)[nH]1

>  <Energy>  (48) 
58.827908049026554

>  <Genealogy>  (48) 
Cc1cc(C)c(C[N-]C(=O)c2cc3cc(Cl)ccc3n(C)c2=O)c(=O)[nH]1 (protonated)
Cc1cc(C)c(C[N-]C(=O)c2cc3cc(Cl)ccc3n(C)c2=O)c(=O)[nH]1 (3D coordinates assigned)
Cc1cc(C)c(C[N-]C(=O)c2cc3cc(Cl)ccc3n(C)c2=O)c(=O)[nH]1 (optimized conformer: 58.827908049026554 kcal/mol)

>  <smiles>  (48) 
Cc1cc(C)c(CNC(=O)c2cc3cc(Cl)ccc3n(C)c2=O)c(=O)[nH]1

>  <score_type>  (48) 
oracle

>  <origin>  (48) 
adg

>  <m_score__min__energy>  (48) 
-10.48

>  <m_primary>  (48) 
energy

$$$$
48:0
     RDKit          3D

 52 54  0  0  0  0  0  0  0  0999 V2000
   61.4650   30.3530   50.2270 C   0  0  0  0  0  0  0  0  0  0  0  0
   61.9650   31.1850   51.1440 C   0  0  0  0  0  0  0  0  0  0  0  0
   62.0690   32.6600   50.8780 C   0  0  0  0  0  0  0  0  0  0  0  0
   62.4260   32.9190   49.4640 N   0  0  0  0  0  0  0  0  0  0  0  0
   63.7520   32.8490   49.0740 C   0  0  0  0  0  0  0  0  0  0  0  0
   64.8440   32.3820   50.0100 C   0  0  0  0  0  0  0  0  0  0  0  0
   64.1310   33.2580   47.7910 C   0  0  0  0  0  0  0  0  0  0  0  0
   63.1790   33.7290   46.9020 C   0  0  0  0  0  0  0  0  0  0  0  0
   63.5350   34.1400   45.7650 O   0  0  0  0  0  0  0  0  0  0  0  0
   61.8350   33.7480   47.2640 C   0  0  0  0  0  0  0  0  0  0  0  0
   60.9140   34.2770   46.3520 O   0  0  0  0  0  0  0  0  0  0  0  0
   61.4480   33.2490   48.5360 C   0  0  0  0  0  0  0  0  0  0  0  0
   59.9620   33.0780   48.8370 C   0  0  0  0  0  0  0  0  0  0  0  0
   59.2940   32.3430   47.7670 N   0  0  0  0  0  0  0  0  0  0  0  0
   58.3790   32.9330   46.8360 C   0  0  0  0  0  0  0  0  0  0  0  0
   57.8520   34.0460   47.1040 O   0  0  0  0  0  0  0  0  0  0  0  0
   58.0470   32.2250   45.5710 C   0  0  0  0  0  0  0  0  0  0  0  0
   57.4130   30.9680   45.6260 C   0  0  0  0  0  0  0  0  0  0  0  0
   57.0700   30.2810   44.4510 C   0  0  0  0  0  0  0  0  0  0  0  0
   56.3430   28.9640   44.5280 C   0  0  0  0  0  0  0  0  0  0  0  0
   57.1490   27.9660   45.3210 C   0  0  0  0  0  0  0  0  0  0  0  0
   58.5520   28.0630   45.3390 C   0  0  0  0  0  0  0  0  0  0  0  0
   59.3160   27.1260   46.0400 C   0  0  0  0  0  0  0  0  0  0  0  0
   58.6900   26.0800   46.7200 C   0  0  0  0  0  0  0  0  0  0  0  0
   57.2990   25.9660   46.7000 C   0  0  0  0  0  0  0  0  0  0  0  0
   56.5250   26.9010   46.0020 C   0  0  0  0  0  0  0  0  0  0  0  0
   55.1410   26.7630   45.9920 O   0  0  0  0  0  0  0  0  0  0  0  0
   57.3530   30.8590   43.2080 C   0  0  0  0  0  0  0  0  0  0  0  0
   57.9850   32.1010   43.1380 C   0  0  0  0  0  0  0  0  0  0  0  0
   58.3340   32.7860   44.3050 C   0  0  0  0  0  0  0  0  0  0  0  0
   58.9640   34.0200   44.1900 O   0  0  0  0  0  0  0  0  0  0  0  0
   61.3970   29.2760   50.4403 H   0  0  0  0  0  0  0  0  0  0  0  0
   61.1212   30.7446   49.2583 H   0  0  0  0  0  0  0  0  0  0  0  0
   62.3063   30.7839   52.1098 H   0  0  0  0  0  0  0  0  0  0  0  0
   61.1012   33.1345   51.0977 H   0  0  0  0  0  0  0  0  0  0  0  0
   62.8572   33.0781   51.5214 H   0  0  0  0  0  0  0  0  0  0  0  0
   64.5186   32.5212   51.0515 H   0  0  0  0  0  0  0  0  0  0  0  0
   65.0507   31.3168   49.8297 H   0  0  0  0  0  0  0  0  0  0  0  0
   65.7571   32.9684   49.8297 H   0  0  0  0  0  0  0  0  0  0  0  0
   65.1870   33.2054   47.4876 H   0  0  0  0  0  0  0  0  0  0  0  0
   59.9900   33.8940   46.2030 H   0  0  0  0  0  0  0  0  0  0  0  0
   59.8472   32.5240   49.7804 H   0  0  0  0  0  0  0  0  0  0  0  0
   59.5033   34.0745   48.9178 H   0  0  0  0  0  0  0  0  0  0  0  0
   57.1836   30.5187   46.6035 H   0  0  0  0  0  0  0  0  0  0  0  0
   55.3696   29.1151   45.0176 H   0  0  0  0  0  0  0  0  0  0  0  0
   56.1966   28.5764   43.5090 H   0  0  0  0  0  0  0  0  0  0  0  0
   59.0507   28.8809   44.7983 H   0  0  0  0  0  0  0  0  0  0  0  0
   60.4124   27.2129   46.0559 H   0  0  0  0  0  0  0  0  0  0  0  0
   59.2936   25.3447   47.2723 H   0  0  0  0  0  0  0  0  0  0  0  0
   56.8091   25.1387   47.2345 H   0  0  0  0  0  0  0  0  0  0  0  0
   57.0761   30.3321   42.2829 H   0  0  0  0  0  0  0  0  0  0  0  0
   58.2102   32.5443   42.1568 H   0  0  0  0  0  0  0  0  0  0  0  0
  1  2  2  0
  2  3  1  0
  3  4  1  0
  4  5  1  0
  5  6  1  0
  5  7  2  0
  7  8  1  0
  8  9  2  0
  8 10  1  0
 10 11  1  0
 10 12  2  0
 12 13  1  0
 13 14  1  0
 14 15  1  0
 15 16  2  0
 15 17  1  0
 17 18  2  0
 18 19  1  0
 19 20  1  0
 20 21  1  0
 21 22  2  0
 22 23  1  0
 23 24  2  0
 24 25  1  0
 25 26  2  0
 26 27  1  0
 19 28  2  0
 28 29  1  0
 29 30  2  0
 30 31  1  0
 12  4  1  0
 30 17  1  0
 26 21  1  0
  1 32  1  0
  1 33  1  0
  2 34  1  0
  3 35  1  0
  3 36  1  0
  6 37  1  0
  6 38  1  0
  6 39  1  0
  7 40  1  0
 11 41  1  0
 13 42  1  0
 13 43  1  0
 18 44  1  0
 20 45  1  0
 20 46  1  0
 22 47  1  0
 23 48  1  0
 24 49  1  0
 25 50  1  0
 28 51  1  0
 29 52  1  0
M  CHG  3  14  -1  27  -1  31  -1
M  END
>  <UniqueID>  (49) 
45

>  <SMILES>  (49) 
C=CCn1c(C)cc(=O)c(O)c1C[N-]C(=O)c1cc(Cc2ccccc2[O-])ccc1[O-]

>  <Energy>  (49) 
62.87915190391803

>  <Genealogy>  (49) 
C=CCn1c(C)cc(=O)c(O)c1C[N-]C(=O)c1cc(Cc2ccccc2[O-])ccc1[O-] (protonated)
C=CCn1c(C)cc(=O)c(O)c1C[N-]C(=O)c1cc(Cc2ccccc2[O-])ccc1[O-] (3D coordinates assigned)
C=CCn1c(C)cc(=O)c(O)c1C[N-]C(=O)c1cc(Cc2ccccc2[O-])ccc1[O-] (optimized conformer: 62.87915190391803 kcal/mol)

>  <smiles>  (49) 
C=CCn1c(C)cc(=O)c(O)c1CNC(=O)c1cc(Cc2ccccc2O)ccc1O

>  <score_type>  (49) 
oracle

>  <origin>  (49) 
adg

>  <m_score__min__energy>  (49) 
-13.65

>  <m_primary>  (49) 
energy

$$$$
49:0
     RDKit          3D

 69 72  0  0  0  0  0  0  0  0999 V2000
   57.9740   30.5020   46.2470 O   0  0  0  0  0  0  0  0  0  0  0  0
   58.8650   30.2450   45.3890 C   0  0  0  0  0  0  0  0  0  0  0  0
   58.5200   30.2700   43.9920 N   0  0  0  0  0  0  0  0  0  0  0  0
   57.2590   30.8400   43.5110 C   0  0  0  0  0  0  0  0  0  0  0  0
   57.4140   32.3390   43.2230 C   0  0  0  0  0  0  0  0  0  0  0  0
   57.8350   33.1130   44.4480 C   0  0  0  0  0  0  0  0  0  0  0  0
   59.0210   33.8660   44.4380 C   0  0  0  0  0  0  0  0  0  0  0  0
   59.4020   34.5940   45.5710 C   0  0  0  0  0  0  0  0  0  0  0  0
   58.6060   34.5720   46.7190 C   0  0  0  0  0  0  0  0  0  0  0  0
   57.4230   33.8290   46.7360 C   0  0  0  0  0  0  0  0  0  0  0  0
   57.0370   33.1010   45.6050 C   0  0  0  0  0  0  0  0  0  0  0  0
   60.2150   29.9760   45.8400 N   0  0  0  0  0  0  0  0  0  0  0  0
   60.9580   28.8630   45.2260 C   0  0  0  0  0  0  0  0  0  0  0  0
   60.7740   27.5860   46.0500 C   0  0  0  0  0  0  0  0  0  0  0  0
   59.3390   27.1380   46.0430 C   0  0  0  0  0  0  0  0  0  0  0  0
   58.6970   26.7940   47.2430 C   0  0  0  0  0  0  0  0  0  0  0  0
   57.3590   26.3920   47.2350 C   0  0  0  0  0  0  0  0  0  0  0  0
   56.6380   26.3600   46.0320 C   0  0  0  0  0  0  0  0  0  0  0  0
   55.2720   25.9400   46.0000 N   0  0  0  0  0  0  0  0  0  0  0  0
   54.7810   24.3080   45.6770 S   0  0  0  0  0  0  0  0  0  0  0  0
   54.3390   23.6640   46.9620 O   0  0  0  0  0  0  0  0  0  0  0  0
   53.6120   24.3320   44.7330 O   0  0  0  0  0  0  0  0  0  0  0  0
   56.0780   23.3610   44.9530 C   0  0  0  0  0  0  0  0  0  0  0  0
   55.8760   22.7080   43.7290 C   0  0  0  0  0  0  0  0  0  0  0  0
   56.9190   21.9850   43.1400 C   0  0  0  0  0  0  0  0  0  0  0  0
   58.1650   21.9130   43.7680 C   0  0  0  0  0  0  0  0  0  0  0  0
   58.3710   22.5650   44.9880 C   0  0  0  0  0  0  0  0  0  0  0  0
   59.6120   22.4990   45.6100 O   0  0  0  0  0  0  0  0  0  0  0  0
   57.3310   23.2870   45.5810 C   0  0  0  0  0  0  0  0  0  0  0  0
   57.2820   26.6860   44.8330 C   0  0  0  0  0  0  0  0  0  0  0  0
   58.6220   27.0860   44.8380 C   0  0  0  0  0  0  0  0  0  0  0  0
   60.8840   30.7750   46.8800 C   0  0  0  0  0  0  0  0  0  0  0  0
   60.0410   30.8180   48.1310 C   0  0  0  0  0  0  0  0  0  0  0  0
   59.7290   29.6320   48.8140 C   0  0  0  0  0  0  0  0  0  0  0  0
   58.8720   29.6550   49.9170 C   0  0  0  0  0  0  0  0  0  0  0  0
   58.3070   30.8630   50.3580 C   0  0  0  0  0  0  0  0  0  0  0  0
   57.4150   30.8820   51.4880 N   0  0  0  0  0  0  0  0  0  0  0  0
   56.8820   29.8300   51.8960 O   0  0  0  0  0  0  0  0  0  0  0  0
   57.1380   32.0610   52.1410 O   0  0  0  0  0  0  0  0  0  0  0  0
   58.6290   32.0510   49.6770 C   0  0  0  0  0  0  0  0  0  0  0  0
   59.4890   32.0280   48.5770 C   0  0  0  0  0  0  0  0  0  0  0  0
   59.2210   30.0310   43.2640 H   0  0  0  0  0  0  0  0  0  0  0  0
   56.9593   30.3242   42.5868 H   0  0  0  0  0  0  0  0  0  0  0  0
   56.4926   30.7076   44.2889 H   0  0  0  0  0  0  0  0  0  0  0  0
   58.1752   32.4727   42.4403 H   0  0  0  0  0  0  0  0  0  0  0  0
   56.4358   32.7241   42.8992 H   0  0  0  0  0  0  0  0  0  0  0  0
   59.6520   33.8835   43.5371 H   0  0  0  0  0  0  0  0  0  0  0  0
   60.3299   35.1846   45.5576 H   0  0  0  0  0  0  0  0  0  0  0  0
   58.9110   35.1401   47.6102 H   0  0  0  0  0  0  0  0  0  0  0  0
   56.7947   33.8163   47.6388 H   0  0  0  0  0  0  0  0  0  0  0  0
   56.1051   32.5168   45.6215 H   0  0  0  0  0  0  0  0  0  0  0  0
   60.5825   28.6944   44.2059 H   0  0  0  0  0  0  0  0  0  0  0  0
   62.0273   29.1192   45.1951 H   0  0  0  0  0  0  0  0  0  0  0  0
   61.4009   26.7895   45.6226 H   0  0  0  0  0  0  0  0  0  0  0  0
   61.0690   27.7956   47.0888 H   0  0  0  0  0  0  0  0  0  0  0  0
   59.2494   26.8411   48.1931 H   0  0  0  0  0  0  0  0  0  0  0  0
   56.8691   26.0995   48.1754 H   0  0  0  0  0  0  0  0  0  0  0  0
   54.8967   22.7641   43.2313 H   0  0  0  0  0  0  0  0  0  0  0  0
   56.7577   21.4721   42.1804 H   0  0  0  0  0  0  0  0  0  0  0  0
   58.9835   21.3438   43.3031 H   0  0  0  0  0  0  0  0  0  0  0  0
   57.4950   23.7979   46.5413 H   0  0  0  0  0  0  0  0  0  0  0  0
   56.7317   26.6273   43.8824 H   0  0  0  0  0  0  0  0  0  0  0  0
   59.1156   27.3608   43.8941 H   0  0  0  0  0  0  0  0  0  0  0  0
   61.8586   30.3221   47.1146 H   0  0  0  0  0  0  0  0  0  0  0  0
   61.0247   31.8006   46.5080 H   0  0  0  0  0  0  0  0  0  0  0  0
   60.1622   28.6782   48.4785 H   0  0  0  0  0  0  0  0  0  0  0  0
   58.6376   28.7188   50.4448 H   0  0  0  0  0  0  0  0  0  0  0  0
   58.1998   33.0062   50.0138 H   0  0  0  0  0  0  0  0  0  0  0  0
   59.7353   32.9653   48.0566 H   0  0  0  0  0  0  0  0  0  0  0  0
  1  2  2  0
  2  3  1  0
  3  4  1  0
  4  5  1  0
  5  6  1  0
  6  7  2  0
  7  8  1  0
  8  9  2  0
  9 10  1  0
 10 11  2  0
  2 12  1  0
 12 13  1  0
 13 14  1  0
 14 15  1  0
 15 16  2  0
 16 17  1  0
 17 18  2  0
 18 19  1  0
 19 20  1  0
 20 21  2  0
 20 22  2  0
 20 23  1  0
 23 24  2  0
 24 25  1  0
 25 26  2  0
 26 27  1  0
 27 28  1  0
 27 29  2  0
 18 30  1  0
 30 31  2  0
 12 32  1  0
 32 33  1  0
 33 34  2  0
 34 35  1  0
 35 36  2  0
 36 37  1  0
 37 38  2  0
 37 39  1  0
 36 40  1  0
 40 41  2  0
 11  6  1  0
 31 15  1  0
 41 33  1  0
 29 23  1  0
  3 42  1  0
  4 43  1  0
  4 44  1  0
  5 45  1  0
  5 46  1  0
  7 47  1  0
  8 48  1  0
  9 49  1  0
 10 50  1  0
 11 51  1  0
 13 52  1  0
 13 53  1  0
 14 54  1  0
 14 55  1  0
 16 56  1  0
 17 57  1  0
 24 58  1  0
 25 59  1  0
 26 60  1  0
 29 61  1  0
 30 62  1  0
 31 63  1  0
 32 64  1  0
 32 65  1  0
 34 66  1  0
 35 67  1  0
 40 68  1  0
 41 69  1  0
M  CHG  4  19  -1  28  -1  37   1  39  -1
M  END
>  <UniqueID>  (50) 
46

>  <SMILES>  (50) 
O=C(NCCc1ccccc1)N(CCc1ccc([N-]S(=O)(=O)c2cccc([O-])c2)cc1)Cc1ccc([N+](=O)[O-])cc1

>  <Energy>  (50) 
71.27909942013667

>  <Genealogy>  (50) 
O=C(NCCc1ccccc1)N(CCc1ccc([N-]S(=O)(=O)c2cccc([O-])c2)cc1)Cc1ccc([N+](=O)[O-])cc1 (protonated)
O=C(NCCc1ccccc1)N(CCc1ccc([N-]S(=O)(=O)c2cccc([O-])c2)cc1)Cc1ccc([N+](=O)[O-])cc1 (3D coordinates assigned)
O=C(NCCc1ccccc1)N(CCc1ccc([N-]S(=O)(=O)c2cccc([O-])c2)cc1)Cc1ccc([N+](=O)[O-])cc1 (optimized conformer: 71.27909942013667 kcal/mol)

>  <smiles>  (50) 
O=C(NCCc1ccccc1)N(CCc1ccc(NS(=O)(=O)c2cccc(O)c2)cc1)Cc1ccc([N+](=O)[O-])cc1

>  <score_type>  (50) 
oracle

>  <origin>  (50) 
adg

>  <m_score__min__energy>  (50) 
-15.449999999999999

>  <m_primary>  (50) 
energy

$$$$
50:0
     RDKit          3D

 40 41  0  0  0  0  0  0  0  0999 V2000
   54.3530   25.9720   45.9810 N   0  0  0  0  0  0  0  0  0  0  0  0
   54.8490   24.3700   45.5620 S   0  0  0  0  0  0  0  0  0  0  0  0
   55.8160   24.4330   44.4120 O   0  0  0  0  0  0  0  0  0  0  0  0
   53.6450   23.5730   45.1450 O   0  0  0  0  0  0  0  0  0  0  0  0
   55.6150   23.5790   46.9720 C   0  0  0  0  0  0  0  0  0  0  0  0
   56.8370   24.3570   47.4720 C   0  0  0  0  0  0  0  0  0  0  0  0
   57.1060   25.5320   46.6430 N   0  0  0  0  0  0  0  0  0  0  0  0
   58.4500   25.9620   46.3740 C   0  0  0  0  0  0  0  0  0  0  0  0
   59.4170   25.2090   46.6810 O   0  0  0  0  0  0  0  0  0  0  0  0
   58.7210   27.2710   45.7370 C   0  0  0  0  0  0  0  0  0  0  0  0
   60.0400   27.7240   45.5430 C   0  0  0  0  0  0  0  0  0  0  0  0
   60.2820   28.9580   44.9330 C   0  0  0  0  0  0  0  0  0  0  0  0
   59.2160   29.7530   44.5100 C   0  0  0  0  0  0  0  0  0  0  0  0
   57.8980   29.3150   44.6920 C   0  0  0  0  0  0  0  0  0  0  0  0
   56.5410   30.3220   44.1940 S   0  0  0  0  0  0  0  0  0  0  0  0
   56.5330   30.5150   42.7040 O   0  0  0  0  0  0  0  0  0  0  0  0
   55.2610   29.6500   44.6050 O   0  0  0  0  0  0  0  0  0  0  0  0
   56.6470   31.8700   44.9680 N   0  0  0  0  0  0  0  0  0  0  0  0
   57.7950   32.3640   45.6710 C   0  0  0  0  0  0  0  0  0  0  0  0
   58.1560   31.7500   46.8760 C   0  0  0  0  0  0  0  0  0  0  0  0
   59.2740   32.1950   47.5910 C   0  0  0  0  0  0  0  0  0  0  0  0
   60.0410   33.2570   47.1020 C   0  0  0  0  0  0  0  0  0  0  0  0
   61.5680   33.8640   48.0780 Br  0  0  0  0  0  0  0  0  0  0  0  0
   59.6850   33.8780   45.9020 C   0  0  0  0  0  0  0  0  0  0  0  0
   58.5660   33.4380   45.1890 C   0  0  0  0  0  0  0  0  0  0  0  0
   57.6550   28.0740   45.2950 C   0  0  0  0  0  0  0  0  0  0  0  0
   54.7970   26.6200   45.2910 H   0  0  0  0  0  0  0  0  0  0  0  0
   54.8782   23.5132   47.7861 H   0  0  0  0  0  0  0  0  0  0  0  0
   55.9525   22.5797   46.6596 H   0  0  0  0  0  0  0  0  0  0  0  0
   56.6526   24.6846   48.5058 H   0  0  0  0  0  0  0  0  0  0  0  0
   57.7120   23.6924   47.4195 H   0  0  0  0  0  0  0  0  0  0  0  0
   56.3120   26.0330   46.1840 H   0  0  0  0  0  0  0  0  0  0  0  0
   60.8854   27.1027   45.8737 H   0  0  0  0  0  0  0  0  0  0  0  0
   61.3159   29.3036   44.7859 H   0  0  0  0  0  0  0  0  0  0  0  0
   59.4110   30.7249   44.0330 H   0  0  0  0  0  0  0  0  0  0  0  0
   57.5573   30.9125   47.2635 H   0  0  0  0  0  0  0  0  0  0  0  0
   59.5495   31.7088   48.5385 H   0  0  0  0  0  0  0  0  0  0  0  0
   60.2865   34.7149   45.5176 H   0  0  0  0  0  0  0  0  0  0  0  0
   58.2870   33.9333   44.2473 H   0  0  0  0  0  0  0  0  0  0  0  0
   56.6200   27.7245   45.4239 H   0  0  0  0  0  0  0  0  0  0  0  0
  1  2  1  0
  2  3  2  0
  2  4  2  0
  2  5  1  0
  5  6  1  0
  6  7  1  0
  7  8  1  0
  8  9  2  0
  8 10  1  0
 10 11  2  0
 11 12  1  0
 12 13  2  0
 13 14  1  0
 14 15  1  0
 15 16  2  0
 15 17  2  0
 15 18  1  0
 18 19  1  0
 19 20  2  0
 20 21  1  0
 21 22  2  0
 22 23  1  0
 22 24  1  0
 24 25  2  0
 14 26  2  0
 26 10  1  0
 25 19  1  0
  1 27  1  0
  5 28  1  0
  5 29  1  0
  6 30  1  0
  6 31  1  0
  7 32  1  0
 11 33  1  0
 12 34  1  0
 13 35  1  0
 20 36  1  0
 21 37  1  0
 24 38  1  0
 25 39  1  0
 26 40  1  0
M  CHG  2   1  -1  18  -1
M  END
>  <UniqueID>  (51) 
47

>  <SMILES>  (51) 
[NH-]S(=O)(=O)CCNC(=O)c1cccc(S(=O)(=O)[N-]c2ccc(Br)cc2)c1

>  <Energy>  (51) 
36.903162123804854

>  <Genealogy>  (51) 
[NH-]S(=O)(=O)CCNC(=O)c1cccc(S(=O)(=O)[N-]c2ccc(Br)cc2)c1 (protonated)
[NH-]S(=O)(=O)CCNC(=O)c1cccc(S(=O)(=O)[N-]c2ccc(Br)cc2)c1 (3D coordinates assigned)
[NH-]S(=O)(=O)CCNC(=O)c1cccc(S(=O)(=O)[N-]c2ccc(Br)cc2)c1 (optimized conformer: 36.903162123804854 kcal/mol)

>  <smiles>  (51) 
NS(=O)(=O)CCNC(=O)c1cccc(S(=O)(=O)Nc2ccc(Br)cc2)c1

>  <score_type>  (51) 
oracle

>  <origin>  (51) 
adg

>  <m_score__min__energy>  (51) 
-13.15

>  <m_primary>  (51) 
energy

$$$$
51:0
     RDKit          3D

 51 52  0  0  0  0  0  0  0  0999 V2000
   57.8150   25.5520   47.1800 C   0  0  0  0  0  0  0  0  0  0  0  0
   58.9660   26.3270   46.7370 N   0  0  0  0  0  0  0  0  0  0  0  0
   58.4570   27.7640   45.8970 S   0  0  0  0  0  0  0  0  0  0  0  0
   59.6020   28.7220   45.7040 O   0  0  0  0  0  0  0  0  0  0  0  0
   57.3880   28.4420   46.7060 O   0  0  0  0  0  0  0  0  0  0  0  0
   57.7740   27.3160   44.3090 C   0  0  0  0  0  0  0  0  0  0  0  0
   57.5600   28.5580   43.4370 C   0  0  0  0  0  0  0  0  0  0  0  0
   56.5100   29.5120   44.0260 C   0  0  0  0  0  0  0  0  0  0  0  0
   57.1190   30.4940   44.9430 N   0  0  0  0  0  0  0  0  0  0  0  0
   57.7340   31.6330   44.2410 C   0  0  0  0  0  0  0  0  0  0  0  0
   58.3070   32.6270   45.2270 C   0  0  0  0  0  0  0  0  0  0  0  0
   58.2160   33.9900   44.9050 C   0  0  0  0  0  0  0  0  0  0  0  0
   58.8080   34.9540   45.7150 C   0  0  0  0  0  0  0  0  0  0  0  0
   59.4980   34.5750   46.8610 C   0  0  0  0  0  0  0  0  0  0  0  0
   59.6060   33.2220   47.2200 C   0  0  0  0  0  0  0  0  0  0  0  0
   60.2940   32.8980   48.5300 C   0  0  0  0  0  0  0  0  0  0  0  0
   59.6260   31.7740   49.1860 N   0  0  0  0  0  0  0  0  0  0  0  0
   60.3430   30.6820   49.7890 C   0  0  0  0  0  0  0  0  0  0  0  0
   61.3120   30.9330   50.7790 C   0  0  0  0  0  0  0  0  0  0  0  0
   61.9940   29.8780   51.3870 C   0  0  0  0  0  0  0  0  0  0  0  0
   61.7150   28.5600   51.0230 C   0  0  0  0  0  0  0  0  0  0  0  0
   60.7550   28.2930   50.0430 C   0  0  0  0  0  0  0  0  0  0  0  0
   60.5020   27.0090   49.6840 F   0  0  0  0  0  0  0  0  0  0  0  0
   60.0720   29.3440   49.4140 C   0  0  0  0  0  0  0  0  0  0  0  0
   59.1570   29.0290   48.4050 O   0  0  0  0  0  0  0  0  0  0  0  0
   59.0030   32.2320   46.4010 C   0  0  0  0  0  0  0  0  0  0  0  0
   59.1220   30.8430   46.7360 N   0  0  0  0  0  0  0  0  0  0  0  0
   57.7869   25.5331   48.2795 H   0  0  0  0  0  0  0  0  0  0  0  0
   56.8928   26.0138   46.7975 H   0  0  0  0  0  0  0  0  0  0  0  0
   57.8961   24.5238   46.7975 H   0  0  0  0  0  0  0  0  0  0  0  0
   58.4680   26.6323   43.7982 H   0  0  0  0  0  0  0  0  0  0  0  0
   56.8019   26.8268   44.4693 H   0  0  0  0  0  0  0  0  0  0  0  0
   58.5154   29.0958   43.3474 H   0  0  0  0  0  0  0  0  0  0  0  0
   57.1944   28.2206   42.4560 H   0  0  0  0  0  0  0  0  0  0  0  0
   56.0163   30.0505   43.2036 H   0  0  0  0  0  0  0  0  0  0  0  0
   55.7846   28.9136   44.5967 H   0  0  0  0  0  0  0  0  0  0  0  0
   57.8840   30.0050   45.4630 H   0  0  0  0  0  0  0  0  0  0  0  0
   58.5413   31.2630   43.5918 H   0  0  0  0  0  0  0  0  0  0  0  0
   56.9609   32.1367   43.6422 H   0  0  0  0  0  0  0  0  0  0  0  0
   57.6702   34.2998   44.0016 H   0  0  0  0  0  0  0  0  0  0  0  0
   58.7300   36.0183   45.4481 H   0  0  0  0  0  0  0  0  0  0  0  0
   59.9648   35.3442   47.4938 H   0  0  0  0  0  0  0  0  0  0  0  0
   61.3433   32.6329   48.3336 H   0  0  0  0  0  0  0  0  0  0  0  0
   60.2463   33.7781   49.1882 H   0  0  0  0  0  0  0  0  0  0  0  0
   58.5820   31.7400   49.1420 H   0  0  0  0  0  0  0  0  0  0  0  0
   61.5333   31.9689   51.0757 H   0  0  0  0  0  0  0  0  0  0  0  0
   62.7534   30.0859   52.1551 H   0  0  0  0  0  0  0  0  0  0  0  0
   62.2510   27.7307   51.5077 H   0  0  0  0  0  0  0  0  0  0  0  0
   59.2750   28.2450   47.7770 H   0  0  0  0  0  0  0  0  0  0  0  0
   60.0450   30.4250   46.9870 H   0  0  0  0  0  0  0  0  0  0  0  0
   58.2890   30.2150   46.7370 H   0  0  0  0  0  0  0  0  0  0  0  0
  1  2  1  0
  2  3  1  0
  3  4  2  0
  3  5  2  0
  3  6  1  0
  6  7  1  0
  7  8  1  0
  8  9  1  0
  9 10  1  0
 10 11  1  0
 11 12  2  0
 12 13  1  0
 13 14  2  0
 14 15  1  0
 15 16  1  0
 16 17  1  0
 17 18  1  0
 18 19  2  0
 19 20  1  0
 20 21  2  0
 21 22  1  0
 22 23  1  0
 22 24  2  0
 24 25  1  0
 15 26  2  0
 26 27  1  0
 26 11  1  0
 24 18  1  0
  1 28  1  0
  1 29  1  0
  1 30  1  0
  6 31  1  0
  6 32  1  0
  7 33  1  0
  7 34  1  0
  8 35  1  0
  8 36  1  0
  9 37  1  0
 10 38  1  0
 10 39  1  0
 12 40  1  0
 13 41  1  0
 14 42  1  0
 16 43  1  0
 16 44  1  0
 17 45  1  0
 19 46  1  0
 20 47  1  0
 21 48  1  0
 25 49  1  0
 27 50  1  0
 27 51  1  0
M  CHG  1   2  -1
M  END
>  <UniqueID>  (52) 
48

>  <SMILES>  (52) 
C[N-]S(=O)(=O)CCCNCc1cccc(CNc2cccc(F)c2O)c1N

>  <Energy>  (52) 
48.26723619808393

>  <Genealogy>  (52) 
C[N-]S(=O)(=O)CCCNCc1cccc(CNc2cccc(F)c2O)c1N (protonated)
C[N-]S(=O)(=O)CCCNCc1cccc(CNc2cccc(F)c2O)c1N (3D coordinates assigned)
C[N-]S(=O)(=O)CCCNCc1cccc(CNc2cccc(F)c2O)c1N (optimized conformer: 48.26723619808393 kcal/mol)

>  <smiles>  (52) 
CNS(=O)(=O)CCCNCc1cccc(CNc2cccc(F)c2O)c1N

>  <score_type>  (52) 
oracle

>  <origin>  (52) 
adg

>  <m_score__min__energy>  (52) 
-7.5099999999999998

>  <m_primary>  (52) 
energy

$$$$
52:0
     RDKit          3D

 37 39  0  0  0  0  0  0  0  0999 V2000
   57.9620   32.8030   43.8110 C   0  0  0  0  0  0  0  0  0  0  0  0
   58.1830   32.0640   45.0620 C   0  0  0  0  0  0  0  0  0  0  0  0
   58.7160   32.6560   46.2130 C   0  0  0  0  0  0  0  0  0  0  0  0
   59.0550   34.0870   46.1210 C   0  0  0  0  0  0  0  0  0  0  0  0
   59.8150   34.4580   47.2930 N   0  0  0  0  0  0  0  0  0  0  0  0
   61.1360   33.9960   47.5390 C   0  0  0  0  0  0  0  0  0  0  0  0
   62.0340   33.8560   46.4920 C   0  0  0  0  0  0  0  0  0  0  0  0
   63.3180   33.4070   46.7200 C   0  0  0  0  0  0  0  0  0  0  0  0
   63.7590   33.0820   47.9860 C   0  0  0  0  0  0  0  0  0  0  0  0
   62.8720   33.2180   49.0470 C   0  0  0  0  0  0  0  0  0  0  0  0
   61.6050   33.6640   48.7930 C   0  0  0  0  0  0  0  0  0  0  0  0
   60.4880   33.8340   50.1340 Cl  0  0  0  0  0  0  0  0  0  0  0  0
   58.9040   31.9140   47.3670 C   0  0  0  0  0  0  0  0  0  0  0  0
   58.5930   30.6090   47.4530 N   0  0  0  0  0  0  0  0  0  0  0  0
   58.0800   30.0210   46.3570 C   0  0  0  0  0  0  0  0  0  0  0  0
   57.7670   28.7030   46.4470 N   0  0  0  0  0  0  0  0  0  0  0  0
   57.2420   28.0560   45.3660 C   0  0  0  0  0  0  0  0  0  0  0  0
   56.9310   26.8060   45.4040 N   0  0  0  0  0  0  0  0  0  0  0  0
   57.0390   28.7300   44.2170 N   0  0  0  0  0  0  0  0  0  0  0  0
   57.3340   30.0240   44.0910 C   0  0  0  0  0  0  0  0  0  0  0  0
   57.1230   30.6170   42.9870 N   0  0  0  0  0  0  0  0  0  0  0  0
   57.8720   30.7240   45.1710 C   0  0  0  0  0  0  0  0  0  0  0  0
   57.6539   33.8331   44.0432 H   0  0  0  0  0  0  0  0  0  0  0  0
   58.8938   32.8218   43.2267 H   0  0  0  0  0  0  0  0  0  0  0  0
   57.1728   32.3072   43.2267 H   0  0  0  0  0  0  0  0  0  0  0  0
   59.6556   34.2680   45.2174 H   0  0  0  0  0  0  0  0  0  0  0  0
   58.1353   34.6878   46.0643 H   0  0  0  0  0  0  0  0  0  0  0  0
   59.4070   35.1040   48.0340 H   0  0  0  0  0  0  0  0  0  0  0  0
   61.7189   34.1058   45.4681 H   0  0  0  0  0  0  0  0  0  0  0  0
   64.0086   33.3054   45.8699 H   0  0  0  0  0  0  0  0  0  0  0  0
   64.7861   32.7245   48.1513 H   0  0  0  0  0  0  0  0  0  0  0  0
   63.1837   32.9712   50.0726 H   0  0  0  0  0  0  0  0  0  0  0  0
   59.3260   32.4139   48.2513 H   0  0  0  0  0  0  0  0  0  0  0  0
   57.9090   28.1600   47.3050 H   0  0  0  0  0  0  0  0  0  0  0  0
   56.4870   26.2740   44.6470 H   0  0  0  0  0  0  0  0  0  0  0  0
   56.6450   28.2260   43.4160 H   0  0  0  0  0  0  0  0  0  0  0  0
   57.7890   30.4570   42.1990 H   0  0  0  0  0  0  0  0  0  0  0  0
  1  2  1  0
  2  3  2  0
  3  4  1  0
  4  5  1  0
  5  6  1  0
  6  7  2  0
  7  8  1  0
  8  9  2  0
  9 10  1  0
 10 11  2  0
 11 12  1  0
  3 13  1  0
 13 14  2  0
 14 15  1  0
 15 16  1  0
 16 17  1  0
 17 18  2  3
 17 19  1  0
 19 20  1  0
 20 21  2  3
 20 22  1  0
 22  2  1  0
 11  6  1  0
 22 15  2  0
  1 23  1  0
  1 24  1  0
  1 25  1  0
  4 26  1  0
  4 27  1  0
  5 28  1  0
  7 29  1  0
  8 30  1  0
  9 31  1  0
 10 32  1  0
 13 33  1  0
 16 34  1  0
 18 35  1  0
 19 36  1  0
 21 37  1  0
M  END
>  <smiles>  (53) 
Cc1c(CNc2ccccc2Cl)cnc2[nH]c(=N)[nH]c(=N)c12

>  <score_type>  (53) 
oracle

>  <origin>  (53) 
adg

>  <m_score__min__energy>  (53) 
-7.5300000000000002

>  <m_primary>  (53) 
energy

$$$$
53:0
     RDKit          3D

 42 44  0  0  0  0  0  0  0  0999 V2000
   58.5310   28.5250   46.3950 O   0  0  0  0  0  0  0  0  0  0  0  0
   57.4100   28.2510   45.8910 C   0  0  0  0  0  0  0  0  0  0  0  0
   56.7120   27.0880   46.3520 N   0  0  0  0  0  0  0  0  0  0  0  0
   56.5310   25.8700   45.6170 C   0  0  0  0  0  0  0  0  0  0  0  0
   55.3530   25.1100   45.7240 C   0  0  0  0  0  0  0  0  0  0  0  0
   55.2190   23.9130   45.0150 C   0  0  0  0  0  0  0  0  0  0  0  0
   56.2660   23.4450   44.2000 C   0  0  0  0  0  0  0  0  0  0  0  0
   56.1320   22.2130   43.4680 N   0  0  0  0  0  0  0  0  0  0  0  0
   55.8810   22.2230   42.2440 O   0  0  0  0  0  0  0  0  0  0  0  0
   56.2830   21.0020   44.1030 O   0  0  0  0  0  0  0  0  0  0  0  0
   57.4510   24.1960   44.1180 C   0  0  0  0  0  0  0  0  0  0  0  0
   57.5830   25.3930   44.8280 C   0  0  0  0  0  0  0  0  0  0  0  0
   56.8950   29.0340   44.8020 N   0  0  0  0  0  0  0  0  0  0  0  0
   57.3280   30.3730   44.5060 C   0  0  0  0  0  0  0  0  0  0  0  0
   57.3690   30.8050   43.1730 C   0  0  0  0  0  0  0  0  0  0  0  0
   57.7640   32.1090   42.8640 C   0  0  0  0  0  0  0  0  0  0  0  0
   58.1220   32.9930   43.8850 C   0  0  0  0  0  0  0  0  0  0  0  0
   58.0880   32.5800   45.2210 C   0  0  0  0  0  0  0  0  0  0  0  0
   58.4420   33.5200   46.2470 N   0  0  0  0  0  0  0  0  0  0  0  0
   59.5700   34.4060   46.2300 C   0  0  0  0  0  0  0  0  0  0  0  0
   59.5270   35.4220   45.4870 O   0  0  0  0  0  0  0  0  0  0  0  0
   60.7940   34.1370   47.0220 C   0  0  0  0  0  0  0  0  0  0  0  0
   62.0120   33.8370   46.3860 C   0  0  0  0  0  0  0  0  0  0  0  0
   63.1590   33.5760   47.1440 C   0  0  0  0  0  0  0  0  0  0  0  0
   63.1020   33.6220   48.5390 C   0  0  0  0  0  0  0  0  0  0  0  0
   64.2150   33.3670   49.2710 F   0  0  0  0  0  0  0  0  0  0  0  0
   61.9010   33.9370   49.1790 C   0  0  0  0  0  0  0  0  0  0  0  0
   60.7520   34.1980   48.4260 C   0  0  0  0  0  0  0  0  0  0  0  0
   57.6590   31.2770   45.5300 C   0  0  0  0  0  0  0  0  0  0  0  0
   54.5330   25.4591   46.3687 H   0  0  0  0  0  0  0  0  0  0  0  0
   54.2880   23.3325   45.0948 H   0  0  0  0  0  0  0  0  0  0  0  0
   58.2810   23.8393   43.4904 H   0  0  0  0  0  0  0  0  0  0  0  0
   58.5211   25.9640   44.7658 H   0  0  0  0  0  0  0  0  0  0  0  0
   56.2360   28.5700   44.1380 H   0  0  0  0  0  0  0  0  0  0  0  0
   57.0884   30.1130   42.3653 H   0  0  0  0  0  0  0  0  0  0  0  0
   57.7932   32.4402   41.8154 H   0  0  0  0  0  0  0  0  0  0  0  0
   58.4321   34.0188   43.6370 H   0  0  0  0  0  0  0  0  0  0  0  0
   62.0633   33.8074   45.2876 H   0  0  0  0  0  0  0  0  0  0  0  0
   64.1068   33.3343   46.6407 H   0  0  0  0  0  0  0  0  0  0  0  0
   61.8590   33.9798   50.2774 H   0  0  0  0  0  0  0  0  0  0  0  0
   59.8105   34.4523   48.9347 H   0  0  0  0  0  0  0  0  0  0  0  0
   57.5819   30.9628   46.5813 H   0  0  0  0  0  0  0  0  0  0  0  0
  1  2  2  0
  2  3  1  0
  3  4  1  0
  4  5  2  0
  5  6  1  0
  6  7  2  0
  7  8  1  0
  8  9  2  0
  8 10  1  0
  7 11  1  0
 11 12  2  0
  2 13  1  0
 13 14  1  0
 14 15  2  0
 15 16  1  0
 16 17  2  0
 17 18  1  0
 18 19  1  0
 19 20  1  0
 20 21  2  0
 20 22  1  0
 22 23  2  0
 23 24  1  0
 24 25  2  0
 25 26  1  0
 25 27  1  0
 27 28  2  0
 18 29  2  0
 12  4  1  0
 29 14  1  0
 28 22  1  0
  5 30  1  0
  6 31  1  0
 11 32  1  0
 12 33  1  0
 13 34  1  0
 15 35  1  0
 16 36  1  0
 17 37  1  0
 23 38  1  0
 24 39  1  0
 27 40  1  0
 28 41  1  0
 29 42  1  0
M  CHG  4   3  -1   8   1  10  -1  19  -1
M  END
>  <UniqueID>  (54) 
49

>  <SMILES>  (54) 
O=C([N-]c1ccc([N+](=O)[O-])cc1)Nc1cccc([N-]C(=O)c2ccc(F)cc2)c1

>  <Energy>  (54) 
58.84327066855938

>  <Genealogy>  (54) 
O=C([N-]c1ccc([N+](=O)[O-])cc1)Nc1cccc([N-]C(=O)c2ccc(F)cc2)c1 (protonated)
O=C([N-]c1ccc([N+](=O)[O-])cc1)Nc1cccc([N-]C(=O)c2ccc(F)cc2)c1 (3D coordinates assigned)
O=C([N-]c1ccc([N+](=O)[O-])cc1)Nc1cccc([N-]C(=O)c2ccc(F)cc2)c1 (optimized conformer: 58.84327066855938 kcal/mol)

>  <smiles>  (54) 
O=C(Nc1ccc([N+](=O)[O-])cc1)Nc1cccc(NC(=O)c2ccc(F)cc2)c1

>  <score_type>  (54) 
oracle

>  <origin>  (54) 
adg

>  <m_score__min__energy>  (54) 
-12.050000000000001

>  <m_primary>  (54) 
energy

$$$$
54:0
     RDKit          3D

 53 55  0  0  0  0  0  0  0  0999 V2000
   60.0777   36.5046   45.8232 H   0  0  0  0  0  0  0  0  0  0  0  0
   59.6450   35.5050   45.9770 C   0  0  0  0  0  0  0  0  0  0  0  0
   59.0640   34.8250   44.9050 C   0  0  0  0  0  0  0  0  0  0  0  0
   59.0389   35.2889   43.9079 H   0  0  0  0  0  0  0  0  0  0  0  0
   58.5140   33.5540   45.0990 C   0  0  0  0  0  0  0  0  0  0  0  0
   57.7840   32.7020   43.7510 Cl  0  0  0  0  0  0  0  0  0  0  0  0
   58.5450   32.9620   46.3670 C   0  0  0  0  0  0  0  0  0  0  0  0
   58.1110   31.9621   46.5150 H   0  0  0  0  0  0  0  0  0  0  0  0
   59.1290   33.6400   47.4540 C   0  0  0  0  0  0  0  0  0  0  0  0
   59.1770   33.0190   48.7960 C   0  0  0  0  0  0  0  0  0  0  0  0
   59.4050   33.7220   49.8170 O   0  0  0  0  0  0  0  0  0  0  0  0
   58.9620   31.6490   48.9300 O   0  0  0  0  0  0  0  0  0  0  0  0
   59.9680   30.7380   48.6930 N   0  0  0  0  0  0  0  0  0  0  0  0
   60.4880   30.5820   47.5120 C   0  0  0  0  0  0  0  0  0  0  0  0
   59.7540   29.8700   46.4390 C   0  0  0  0  0  0  0  0  0  0  0  0
   60.4460   29.0710   45.5190 C   0  0  0  0  0  0  0  0  0  0  0  0
   61.5407   28.9845   45.5840 H   0  0  0  0  0  0  0  0  0  0  0  0
   59.7530   28.3840   44.5200 C   0  0  0  0  0  0  0  0  0  0  0  0
   60.3054   27.7562   43.8053 H   0  0  0  0  0  0  0  0  0  0  0  0
   58.3530   28.4890   44.4210 C   0  0  0  0  0  0  0  0  0  0  0  0
   57.6240   27.8170   43.4280 O   0  0  0  0  0  0  0  0  0  0  0  0
   58.1400   26.7620   42.6230 C   0  0  0  0  0  0  0  0  0  0  0  0
   58.5305   25.9636   43.2711 H   0  0  0  0  0  0  0  0  0  0  0  0
   57.3373   26.3591   41.9880 H   0  0  0  0  0  0  0  0  0  0  0  0
   58.9509   27.1483   41.9880 H   0  0  0  0  0  0  0  0  0  0  0  0
   57.6530   29.2860   45.3390 C   0  0  0  0  0  0  0  0  0  0  0  0
   56.2570   29.3780   45.2150 O   0  0  0  0  0  0  0  0  0  0  0  0
   55.5810   29.9490   44.0980 C   0  0  0  0  0  0  0  0  0  0  0  0
   54.7860   30.6205   44.4546 H   0  0  0  0  0  0  0  0  0  0  0  0
   56.2971   30.5198   43.4886 H   0  0  0  0  0  0  0  0  0  0  0  0
   55.1380   29.1475   43.4886 H   0  0  0  0  0  0  0  0  0  0  0  0
   58.3570   29.9660   46.3510 C   0  0  0  0  0  0  0  0  0  0  0  0
   57.8063   30.5787   47.0800 H   0  0  0  0  0  0  0  0  0  0  0  0
   61.9090   31.0170   47.2900 C   0  0  0  0  0  0  0  0  0  0  0  0
   62.5891   30.1945   47.5564 H   0  0  0  0  0  0  0  0  0  0  0  0
   62.0475   31.2827   46.2316 H   0  0  0  0  0  0  0  0  0  0  0  0
   62.2040   32.1810   48.1240 N   0  0  0  0  0  0  0  0  0  0  0  0
   62.8130   33.3320   47.7510 C   0  0  0  0  0  0  0  0  0  0  0  0
   63.2940   33.6610   46.3720 C   0  0  0  0  0  0  0  0  0  0  0  0
   64.2003   34.2809   46.4380 H   0  0  0  0  0  0  0  0  0  0  0  0
   63.5246   32.7306   45.8324 H   0  0  0  0  0  0  0  0  0  0  0  0
   62.5105   34.2132   45.8324 H   0  0  0  0  0  0  0  0  0  0  0  0
   62.9890   34.1290   48.8690 C   0  0  0  0  0  0  0  0  0  0  0  0
   63.4449   35.1288   48.9195 H   0  0  0  0  0  0  0  0  0  0  0  0
   62.4620   33.3840   49.9080 C   0  0  0  0  0  0  0  0  0  0  0  0
   62.3610   33.8110   51.3350 C   0  0  0  0  0  0  0  0  0  0  0  0
   62.5644   32.9512   51.9903 H   0  0  0  0  0  0  0  0  0  0  0  0
   63.0961   34.6049   51.5331 H   0  0  0  0  0  0  0  0  0  0  0  0
   61.3481   34.1915   51.5331 H   0  0  0  0  0  0  0  0  0  0  0  0
   61.9910   32.2180   49.4300 N   0  0  0  0  0  0  0  0  0  0  0  0
   61.5450   31.4530   49.9850 H   0  0  0  0  0  0  0  0  0  0  0  0
   59.6780   34.9180   47.2460 C   0  0  0  0  0  0  0  0  0  0  0  0
   60.1363   35.4594   48.0868 H   0  0  0  0  0  0  0  0  0  0  0  0
  1  2  1  0
  2  3  2  0
  3  4  1  0
  3  5  1  0
  5  6  1  0
  5  7  2  0
  7  8  1  0
  7  9  1  0
  9 10  1  0
 10 11  2  0
 10 12  1  0
 12 13  1  0
 13 14  2  0
 14 15  1  0
 15 16  2  0
 16 17  1  0
 16 18  1  0
 18 19  1  0
 18 20  2  0
 20 21  1  0
 21 22  1  0
 22 23  1  0
 22 24  1  0
 22 25  1  0
 20 26  1  0
 26 27  1  0
 27 28  1  0
 28 29  1  0
 28 30  1  0
 28 31  1  0
 26 32  2  0
 32 33  1  0
 14 34  1  0
 34 35  1  0
 34 36  1  0
 34 37  1  0
 37 38  1  0
 38 39  1  0
 39 40  1  0
 39 41  1  0
 39 42  1  0
 38 43  2  0
 43 44  1  0
 43 45  1  0
 45 46  1  0
 46 47  1  0
 46 48  1  0
 46 49  1  0
 45 50  2  0
 50 51  1  0
  9 52  2  0
 52 53  1  0
 52  2  1  0
 32 15  1  0
 50 37  1  0
M  CHG  1  50   1
M  END
>  <UniqueID>  (55) 
50

>  <SMILES>  (55) 
COc1ccc(/C(Cn2[nH+]c(C)cc2C)=N\OC(=O)c2cccc(Cl)c2)cc1OC

>  <Energy>  (55) 
81.58336865033372

>  <Genealogy>  (55) 
COc1ccc(C(Cn2[nH+]c(C)cc2C)=NOC(=O)c2cccc(Cl)c2)cc1OC (protonated)
COc1ccc(/C(Cn2[nH+]c(C)cc2C)=N\OC(=O)c2cccc(Cl)c2)cc1OC (cis-trans isomerization)
COc1ccc(/C(Cn2[nH+]c(C)cc2C)=N\OC(=O)c2cccc(Cl)c2)cc1OC (3D coordinates assigned)
COc1ccc(/C(Cn2[nH+]c(C)cc2C)=N\OC(=O)c2cccc(Cl)c2)cc1OC (optimized conformer: 81.58336865033372 kcal/mol)

>  <smiles>  (55) 
COc1ccc(C(Cn2nc(C)cc2C)=NOC(=O)c2cccc(Cl)c2)cc1OC

>  <score_type>  (55) 
oracle

>  <origin>  (55) 
adg

>  <m_score__min__energy>  (55) 
-7.2699999999999996

>  <m_primary>  (55) 
energy

$$$$
55:0
     RDKit          3D

 33 34  0  0  0  0  0  0  0  0999 V2000
   54.9880   25.3220   45.6260 C   0  0  0  0  0  0  0  0  0  0  0  0
   55.3520   26.6870   45.9770 N   0  0  0  0  0  0  0  0  0  0  0  0
   56.6860   27.1890   45.8510 C   0  0  0  0  0  0  0  0  0  0  0  0
   57.6020   26.7350   46.5940 O   0  0  0  0  0  0  0  0  0  0  0  0
   56.9740   28.2310   44.8930 N   0  0  0  0  0  0  0  0  0  0  0  0
   58.2890   28.8700   45.1690 C   0  0  0  0  0  0  0  0  0  0  0  0
   58.1450   30.2120   45.9060 C   0  0  0  0  0  0  0  0  0  0  0  0
   57.3180   31.1860   45.1470 N   0  0  0  0  0  0  0  0  0  0  0  0
   58.1610   32.1330   44.3870 C   0  0  0  0  0  0  0  0  0  0  0  0
   58.6580   33.2360   45.2720 C   0  0  0  0  0  0  0  0  0  0  0  0
   59.3730   34.3530   44.8620 C   0  0  0  0  0  0  0  0  0  0  0  0
   59.6510   35.2430   45.9060 C   0  0  0  0  0  0  0  0  0  0  0  0
   59.1480   34.8340   47.1350 C   0  0  0  0  0  0  0  0  0  0  0  0
   58.3560   33.3660   46.9210 S   0  0  0  0  0  0  0  0  0  0  0  0
   56.3020   30.5430   44.2770 C   0  0  0  0  0  0  0  0  0  0  0  0
   55.8460   29.1930   44.8430 C   0  0  0  0  0  0  0  0  0  0  0  0
   54.8319   24.7365   46.5441 H   0  0  0  0  0  0  0  0  0  0  0  0
   54.0607   25.3304   45.0343 H   0  0  0  0  0  0  0  0  0  0  0  0
   55.7963   24.8676   45.0343 H   0  0  0  0  0  0  0  0  0  0  0  0
   57.0420   27.7800   43.9490 H   0  0  0  0  0  0  0  0  0  0  0  0
   58.8896   28.1887   45.7896 H   0  0  0  0  0  0  0  0  0  0  0  0
   58.7751   29.0685   44.2024 H   0  0  0  0  0  0  0  0  0  0  0  0
   57.6713   30.0306   46.8821 H   0  0  0  0  0  0  0  0  0  0  0  0
   59.1507   30.6423   46.0215 H   0  0  0  0  0  0  0  0  0  0  0  0
   59.0221   31.5920   43.9677 H   0  0  0  0  0  0  0  0  0  0  0  0
   57.5553   32.5744   43.5818 H   0  0  0  0  0  0  0  0  0  0  0  0
   59.6891   34.5216   43.8220 H   0  0  0  0  0  0  0  0  0  0  0  0
   60.2142   36.1775   45.7667 H   0  0  0  0  0  0  0  0  0  0  0  0
   59.2504   35.3777   48.0857 H   0  0  0  0  0  0  0  0  0  0  0  0
   55.4299   31.2084   44.1949 H   0  0  0  0  0  0  0  0  0  0  0  0
   56.7562   30.3665   43.2908 H   0  0  0  0  0  0  0  0  0  0  0  0
   55.4551   29.3427   45.8603 H   0  0  0  0  0  0  0  0  0  0  0  0
   55.0639   28.7833   44.1869 H   0  0  0  0  0  0  0  0  0  0  0  0
  1  2  1  0
  2  3  1  0
  3  4  2  0
  3  5  1  0
  5  6  1  0
  6  7  1  0
  7  8  1  0
  8  9  1  0
  9 10  1  0
 10 11  2  0
 11 12  1  0
 12 13  2  0
 13 14  1  0
  8 15  1  0
 15 16  1  0
 16  5  1  0
 14 10  1  0
  1 17  1  0
  1 18  1  0
  1 19  1  0
  5 20  1  0
  6 21  1  0
  6 22  1  0
  7 23  1  0
  7 24  1  0
  9 25  1  0
  9 26  1  0
 11 27  1  0
 12 28  1  0
 13 29  1  0
 15 30  1  0
 15 31  1  0
 16 32  1  0
 16 33  1  0
M  CHG  2   2  -1   5   1
M  END
>  <UniqueID>  (56) 
51

>  <SMILES>  (56) 
C[N-]C(=O)[NH+]1CCN(Cc2cccs2)CC1

>  <Energy>  (56) 
68.70794853736352

>  <Genealogy>  (56) 
C[N-]C(=O)[NH+]1CCN(Cc2cccs2)CC1 (protonated)
C[N-]C(=O)[NH+]1CCN(Cc2cccs2)CC1 (3D coordinates assigned)
C[N-]C(=O)[NH+]1CCN(Cc2cccs2)CC1 (nonaromatic ring conformer: 68.70794853736352 kcal/mol)

>  <smiles>  (56) 
CNC(=O)N1CCN(Cc2cccs2)CC1

>  <score_type>  (56) 
oracle

>  <origin>  (56) 
adg

>  <m_score__min__energy>  (56) 
-6.7000000000000002

>  <m_primary>  (56) 
energy

$$$$
56:0
     RDKit          3D

 33 36  0  0  0  0  0  0  0  0999 V2000
   55.1370   29.6980   43.1000 O   0  0  0  0  0  0  0  0  0  0  0  0
   55.8580   29.8610   44.1190 C   0  0  0  0  0  0  0  0  0  0  0  0
   55.7570   28.9140   45.1910 N   0  0  0  0  0  0  0  0  0  0  0  0
   56.7600   27.9630   45.5750 C   0  0  0  0  0  0  0  0  0  0  0  0
   56.4160   26.6560   46.0180 C   0  0  0  0  0  0  0  0  0  0  0  0
   57.4180   25.7470   46.4020 C   0  0  0  0  0  0  0  0  0  0  0  0
   58.7410   26.1770   46.3490 C   0  0  0  0  0  0  0  0  0  0  0  0
   59.0730   27.4280   45.9460 C   0  0  0  0  0  0  0  0  0  0  0  0
   58.1120   28.3580   45.5570 C   0  0  0  0  0  0  0  0  0  0  0  0
   60.4450   27.5800   45.9990 O   0  0  0  0  0  0  0  0  0  0  0  0
   61.0100   26.3460   46.4640 C   0  0  0  0  0  0  0  0  0  0  0  0
   59.8860   25.4780   46.6760 O   0  0  0  0  0  0  0  0  0  0  0  0
   56.7430   31.0420   44.1900 C   0  0  0  0  0  0  0  0  0  0  0  0
   57.3310   31.5910   43.0380 C   0  0  0  0  0  0  0  0  0  0  0  0
   58.1670   32.7030   43.1500 C   0  0  0  0  0  0  0  0  0  0  0  0
   58.4270   33.2560   44.4080 C   0  0  0  0  0  0  0  0  0  0  0  0
   59.2640   34.3720   44.5570 C   0  0  0  0  0  0  0  0  0  0  0  0
   59.5080   34.8980   45.8300 C   0  0  0  0  0  0  0  0  0  0  0  0
   58.9220   34.3130   46.9570 C   0  0  0  0  0  0  0  0  0  0  0  0
   58.0870   33.2000   46.8180 C   0  0  0  0  0  0  0  0  0  0  0  0
   57.8350   32.6680   45.5470 C   0  0  0  0  0  0  0  0  0  0  0  0
   57.0220   31.5870   45.4080 N   0  0  0  0  0  0  0  0  0  0  0  0
   55.3591   26.3541   46.0606 H   0  0  0  0  0  0  0  0  0  0  0  0
   57.1646   24.7292   46.7335 H   0  0  0  0  0  0  0  0  0  0  0  0
   58.4006   29.3724   45.2445 H   0  0  0  0  0  0  0  0  0  0  0  0
   61.6882   25.9226   45.7085 H   0  0  0  0  0  0  0  0  0  0  0  0
   61.6040   26.4832   47.3796 H   0  0  0  0  0  0  0  0  0  0  0  0
   57.1332   31.1461   42.0516 H   0  0  0  0  0  0  0  0  0  0  0  0
   58.6207   33.1438   42.2501 H   0  0  0  0  0  0  0  0  0  0  0  0
   59.7283   34.8333   43.6729 H   0  0  0  0  0  0  0  0  0  0  0  0
   60.1628   35.7744   45.9449 H   0  0  0  0  0  0  0  0  0  0  0  0
   59.1185   34.7297   47.9559 H   0  0  0  0  0  0  0  0  0  0  0  0
   57.6281   32.7423   47.7067 H   0  0  0  0  0  0  0  0  0  0  0  0
  1  2  2  0
  2  3  1  0
  3  4  1  0
  4  5  2  0
  5  6  1  0
  6  7  2  0
  7  8  1  0
  8  9  2  0
  8 10  1  0
 10 11  1  0
 11 12  1  0
  2 13  1  0
 13 14  2  0
 14 15  1  0
 15 16  2  0
 16 17  1  0
 17 18  2  0
 18 19  1  0
 19 20  2  0
 20 21  1  0
 21 22  2  0
  9  4  1  0
 22 13  1  0
 12  7  1  0
 21 16  1  0
  5 23  1  0
  6 24  1  0
  9 25  1  0
 11 26  1  0
 11 27  1  0
 14 28  1  0
 15 29  1  0
 17 30  1  0
 18 31  1  0
 19 32  1  0
 20 33  1  0
M  CHG  1   3  -1
M  END
>  <UniqueID>  (57) 
52

>  <SMILES>  (57) 
O=C([N-]c1ccc2c(c1)OCO2)c1ccc2ccccc2n1

>  <Energy>  (57) 
74.55661684379203

>  <Genealogy>  (57) 
O=C([N-]c1ccc2c(c1)OCO2)c1ccc2ccccc2n1 (protonated)
O=C([N-]c1ccc2c(c1)OCO2)c1ccc2ccccc2n1 (3D coordinates assigned)
O=C([N-]c1ccc2c(c1)OCO2)c1ccc2ccccc2n1 (nonaromatic ring conformer: 74.55661684379203 kcal/mol)

>  <smiles>  (57) 
O=C(Nc1ccc2c(c1)OCO2)c1ccc2ccccc2n1

>  <score_type>  (57) 
oracle

>  <origin>  (57) 
adg

>  <m_score__min__energy>  (57) 
-9.8499999999999996

>  <m_primary>  (57) 
energy

$$$$
57:0
     RDKit          3D

 49 51  0  0  0  0  0  0  0  0999 V2000
   60.4700   26.6110   47.4560 C   0  0  0  0  0  0  0  0  0  0  0  0
   60.3330   27.8460   48.3400 C   0  0  0  0  0  0  0  0  0  0  0  0
   59.7040   28.9740   47.5770 C   0  0  0  0  0  0  0  0  0  0  0  0
   60.2310   30.2190   47.6660 N   0  0  0  0  0  0  0  0  0  0  0  0
   59.6880   31.2800   47.0100 C   0  0  0  0  0  0  0  0  0  0  0  0
   58.5450   31.0880   46.2050 C   0  0  0  0  0  0  0  0  0  0  0  0
   58.0080   29.7730   46.1240 C   0  0  0  0  0  0  0  0  0  0  0  0
   56.5860   29.3340   45.0990 S   0  0  0  0  0  0  0  0  0  0  0  0
   57.0700   27.5830   44.8910 C   0  0  0  0  0  0  0  0  0  0  0  0
   56.4040   26.7140   45.9100 C   0  0  0  0  0  0  0  0  0  0  0  0
   55.1460   26.7030   45.9960 O   0  0  0  0  0  0  0  0  0  0  0  0
   57.1950   25.8510   46.7350 N   0  0  0  0  0  0  0  0  0  0  0  0
   57.5500   24.5140   46.3680 C   0  0  0  0  0  0  0  0  0  0  0  0
   58.7140   24.3150   45.6150 C   0  0  0  0  0  0  0  0  0  0  0  0
   59.0850   23.0320   45.2090 C   0  0  0  0  0  0  0  0  0  0  0  0
   58.2990   21.9340   45.5610 C   0  0  0  0  0  0  0  0  0  0  0  0
   57.1500   22.1140   46.3360 C   0  0  0  0  0  0  0  0  0  0  0  0
   56.7750   23.3980   46.7670 C   0  0  0  0  0  0  0  0  0  0  0  0
   55.5500   23.5490   47.6270 C   0  0  0  0  0  0  0  0  0  0  0  0
   58.5910   28.7650   46.8310 N   0  0  0  0  0  0  0  0  0  0  0  0
   58.0190   32.2120   45.5330 C   0  0  0  0  0  0  0  0  0  0  0  0
   56.9640   32.1090   44.8490 O   0  0  0  0  0  0  0  0  0  0  0  0
   58.6460   33.4260   45.6240 N   0  0  0  0  0  0  0  0  0  0  0  0
   58.0890   34.5920   44.9110 C   0  0  0  0  0  0  0  0  0  0  0  0
   59.7420   33.5830   46.4310 C   0  0  0  0  0  0  0  0  0  0  0  0
   60.2900   34.7190   46.5270 O   0  0  0  0  0  0  0  0  0  0  0  0
   60.2490   32.5230   47.1370 N   0  0  0  0  0  0  0  0  0  0  0  0
   61.4480   32.7010   47.9790 C   0  0  0  0  0  0  0  0  0  0  0  0
   60.5692   25.7165   48.0885 H   0  0  0  0  0  0  0  0  0  0  0  0
   59.5771   26.5138   46.8209 H   0  0  0  0  0  0  0  0  0  0  0  0
   61.3625   26.7118   46.8209 H   0  0  0  0  0  0  0  0  0  0  0  0
   59.7033   27.6012   49.2081 H   0  0  0  0  0  0  0  0  0  0  0  0
   61.3344   28.1573   48.6722 H   0  0  0  0  0  0  0  0  0  0  0  0
   56.7769   27.2465   43.8856 H   0  0  0  0  0  0  0  0  0  0  0  0
   58.1591   27.5041   45.0237 H   0  0  0  0  0  0  0  0  0  0  0  0
   59.3408   25.1765   45.3414 H   0  0  0  0  0  0  0  0  0  0  0  0
   59.9970   22.8865   44.6115 H   0  0  0  0  0  0  0  0  0  0  0  0
   58.5842   20.9252   45.2280 H   0  0  0  0  0  0  0  0  0  0  0  0
   56.5348   21.2445   46.6106 H   0  0  0  0  0  0  0  0  0  0  0  0
   55.8399   23.5133   48.6875 H   0  0  0  0  0  0  0  0  0  0  0  0
   55.0671   24.5135   47.4112 H   0  0  0  0  0  0  0  0  0  0  0  0
   54.8473   22.7307   47.4112 H   0  0  0  0  0  0  0  0  0  0  0  0
   58.1800   27.8060   46.7840 H   0  0  0  0  0  0  0  0  0  0  0  0
   57.7347   35.3338   45.6419 H   0  0  0  0  0  0  0  0  0  0  0  0
   58.8690   35.0428   44.2798 H   0  0  0  0  0  0  0  0  0  0  0  0
   57.2482   34.2685   44.2798 H   0  0  0  0  0  0  0  0  0  0  0  0
   61.1606   32.6583   49.0399 H   0  0  0  0  0  0  0  0  0  0  0  0
   62.1704   31.9003   47.7623 H   0  0  0  0  0  0  0  0  0  0  0  0
   61.9066   33.6771   47.7623 H   0  0  0  0  0  0  0  0  0  0  0  0
  1  2  1  0
  2  3  1  0
  3  4  2  0
  4  5  1  0
  5  6  2  0
  6  7  1  0
  7  8  1  0
  8  9  1  0
  9 10  1  0
 10 11  2  0
 10 12  1  0
 12 13  1  0
 13 14  2  0
 14 15  1  0
 15 16  2  0
 16 17  1  0
 17 18  2  0
 18 19  1  0
  7 20  2  0
  6 21  1  0
 21 22  2  0
 21 23  1  0
 23 24  1  0
 23 25  1  0
 25 26  2  0
 25 27  1  0
 27 28  1  0
 20  3  1  0
 27  5  1  0
 18 13  1  0
  1 29  1  0
  1 30  1  0
  1 31  1  0
  2 32  1  0
  2 33  1  0
  9 34  1  0
  9 35  1  0
 14 36  1  0
 15 37  1  0
 16 38  1  0
 17 39  1  0
 19 40  1  0
 19 41  1  0
 19 42  1  0
 20 43  1  0
 24 44  1  0
 24 45  1  0
 24 46  1  0
 28 47  1  0
 28 48  1  0
 28 49  1  0
M  CHG  2  12  -1  20   1
M  END
>  <UniqueID>  (58) 
53

>  <SMILES>  (58) 
CCc1nc2c(c(SCC(=O)[N-]c3ccccc3C)[nH+]1)c(=O)n(C)c(=O)n2C

>  <Energy>  (58) 
63.430383704920175

>  <Genealogy>  (58) 
CCc1nc2c(c(SCC(=O)[N-]c3ccccc3C)[nH+]1)c(=O)n(C)c(=O)n2C (protonated)
CCc1nc2c(c(SCC(=O)[N-]c3ccccc3C)[nH+]1)c(=O)n(C)c(=O)n2C (3D coordinates assigned)
CCc1nc2c(c(SCC(=O)[N-]c3ccccc3C)[nH+]1)c(=O)n(C)c(=O)n2C (optimized conformer: 63.430383704920175 kcal/mol)

>  <smiles>  (58) 
CCc1nc(SCC(=O)Nc2ccccc2C)c2c(=O)n(C)c(=O)n(C)c2n1

>  <score_type>  (58) 
oracle

>  <origin>  (58) 
adg

>  <m_score__min__energy>  (58) 
-8.6799999999999997

>  <m_primary>  (58) 
energy

$$$$
58:0
     RDKit          3D

 21 21  0  0  0  0  0  0  0  0999 V2000
   58.1890   26.8280   44.0400 C   0  0  0  0  0  0  0  0  0  0  0  0
   58.1710   25.5030   44.5610 O   0  0  0  0  0  0  0  0  0  0  0  0
   57.1360   24.5740   44.3530 C   0  0  0  0  0  0  0  0  0  0  0  0
   57.2350   23.5740   43.3750 C   0  0  0  0  0  0  0  0  0  0  0  0
   56.1930   22.6630   43.2250 C   0  0  0  0  0  0  0  0  0  0  0  0
   56.2710   21.7550   42.3550 O   0  0  0  0  0  0  0  0  0  0  0  0
   55.1140   22.7450   43.9910 O   0  0  0  0  0  0  0  0  0  0  0  0
   54.9570   23.6740   44.9310 C   0  0  0  0  0  0  0  0  0  0  0  0
   53.6590   23.6590   45.6970 C   0  0  0  0  0  0  0  0  0  0  0  0
   52.8670   22.5700   45.3100 O   0  0  0  0  0  0  0  0  0  0  0  0
   55.9780   24.6360   45.1560 C   0  0  0  0  0  0  0  0  0  0  0  0
   55.8570   25.6970   46.1900 C   0  0  0  0  0  0  0  0  0  0  0  0
   55.1440   26.7150   45.9910 O   0  0  0  0  0  0  0  0  0  0  0  0
   56.5180   25.5700   47.4060 O   0  0  0  0  0  0  0  0  0  0  0  0
   58.1988   27.5486   44.8710 H   0  0  0  0  0  0  0  0  0  0  0  0
   59.0891   26.9673   43.4232 H   0  0  0  0  0  0  0  0  0  0  0  0
   57.2930   26.9917   43.4232 H   0  0  0  0  0  0  0  0  0  0  0  0
   58.1262   23.5100   42.7334 H   0  0  0  0  0  0  0  0  0  0  0  0
   53.8757   23.5834   46.7728 H   0  0  0  0  0  0  0  0  0  0  0  0
   53.1112   24.5883   45.4818 H   0  0  0  0  0  0  0  0  0  0  0  0
   53.4780   21.9060   44.8970 H   0  0  0  0  0  0  0  0  0  0  0  0
  1  2  1  0
  2  3  1  0
  3  4  2  0
  4  5  1  0
  5  6  2  0
  5  7  1  0
  7  8  1  0
  8  9  1  0
  9 10  1  0
  8 11  2  0
 11 12  1  0
 12 13  2  0
 12 14  1  0
 11  3  1  0
  1 15  1  0
  1 16  1  0
  1 17  1  0
  4 18  1  0
  9 19  1  0
  9 20  1  0
 10 21  1  0
M  CHG  1  14  -1
M  END
>  <UniqueID>  (59) 
54

>  <SMILES>  (59) 
COc1cc(=O)oc(CO)c1C(=O)[O-]

>  <Energy>  (59) 
26.257212795615633

>  <Genealogy>  (59) 
COc1cc(=O)oc(CO)c1C(=O)[O-] (protonated)
COc1cc(=O)oc(CO)c1C(=O)[O-] (3D coordinates assigned)
COc1cc(=O)oc(CO)c1C(=O)[O-] (optimized conformer: 26.257212795615633 kcal/mol)

>  <smiles>  (59) 
COc1cc(=O)oc(CO)c1C(=O)O

>  <score_type>  (59) 
oracle

>  <origin>  (59) 
adg

>  <m_score__min__energy>  (59) 
-7.4500000000000002

>  <m_primary>  (59) 
energy

$$$$
59:0
     RDKit          3D

 48 50  0  0  0  0  0  0  0  0999 V2000
   56.4210   22.8650   48.1750 C   0  0  0  0  0  0  0  0  0  0  0  0
   57.3910   22.9070   47.1680 O   0  0  0  0  0  0  0  0  0  0  0  0
   57.1390   22.9020   45.8110 C   0  0  0  0  0  0  0  0  0  0  0  0
   57.3260   21.7550   45.0350 C   0  0  0  0  0  0  0  0  0  0  0  0
   57.0710   21.7730   43.6930 C   0  0  0  0  0  0  0  0  0  0  0  0
   56.6180   22.9320   43.0560 C   0  0  0  0  0  0  0  0  0  0  0  0
   56.4440   24.0420   43.8470 C   0  0  0  0  0  0  0  0  0  0  0  0
   56.6940   24.0560   45.2150 C   0  0  0  0  0  0  0  0  0  0  0  0
   56.4450   25.3370   45.9140 C   0  0  0  0  0  0  0  0  0  0  0  0
   57.1380   26.4460   45.2680 N   0  0  0  0  0  0  0  0  0  0  0  0
   58.3270   26.9060   45.9010 C   0  0  0  0  0  0  0  0  0  0  0  0
   58.7110   26.3520   46.9670 O   0  0  0  0  0  0  0  0  0  0  0  0
   59.1090   28.0170   45.3170 C   0  0  0  0  0  0  0  0  0  0  0  0
   58.2790   29.2170   45.0480 C   0  0  0  0  0  0  0  0  0  0  0  0
   57.1200   28.9940   44.3810 N   0  0  0  0  0  0  0  0  0  0  0  0
   56.2550   29.9590   44.0950 C   0  0  0  0  0  0  0  0  0  0  0  0
   55.1980   29.6920   43.4740 O   0  0  0  0  0  0  0  0  0  0  0  0
   56.5610   31.2370   44.5010 C   0  0  0  0  0  0  0  0  0  0  0  0
   57.7620   31.4530   45.1900 C   0  0  0  0  0  0  0  0  0  0  0  0
   57.9820   32.7960   45.6130 N   0  0  0  0  0  0  0  0  0  0  0  0
   58.3020   33.8440   44.6260 C   0  0  0  0  0  0  0  0  0  0  0  0
   59.2820   34.7820   45.2970 C   0  0  0  0  0  0  0  0  0  0  0  0
   60.0510   34.1560   46.2530 O   0  0  0  0  0  0  0  0  0  0  0  0
   59.3540   33.6580   47.3340 C   0  0  0  0  0  0  0  0  0  0  0  0
   57.9300   33.2280   46.9940 C   0  0  0  0  0  0  0  0  0  0  0  0
   58.6070   30.4440   45.4550 N   0  0  0  0  0  0  0  0  0  0  0  0
   56.9126   22.8863   49.1588 H   0  0  0  0  0  0  0  0  0  0  0  0
   55.7549   23.7351   48.0790 H   0  0  0  0  0  0  0  0  0  0  0  0
   55.8326   21.9405   48.0790 H   0  0  0  0  0  0  0  0  0  0  0  0
   57.6820   20.8286   45.5094 H   0  0  0  0  0  0  0  0  0  0  0  0
   57.2251   20.8579   43.1023 H   0  0  0  0  0  0  0  0  0  0  0  0
   56.4112   22.9543   41.9758 H   0  0  0  0  0  0  0  0  0  0  0  0
   56.0881   24.9687   43.3731 H   0  0  0  0  0  0  0  0  0  0  0  0
   55.3641   25.5411   45.9104 H   0  0  0  0  0  0  0  0  0  0  0  0
   56.8250   25.2467   46.9423 H   0  0  0  0  0  0  0  0  0  0  0  0
   56.7790   26.8770   44.3940 H   0  0  0  0  0  0  0  0  0  0  0  0
   59.9095   28.2922   46.0195 H   0  0  0  0  0  0  0  0  0  0  0  0
   59.5157   27.6699   44.3557 H   0  0  0  0  0  0  0  0  0  0  0  0
   55.8772   32.0722   44.2893 H   0  0  0  0  0  0  0  0  0  0  0  0
   58.7572   33.3961   43.7303 H   0  0  0  0  0  0  0  0  0  0  0  0
   57.3956   34.3786   44.3057 H   0  0  0  0  0  0  0  0  0  0  0  0
   59.9486   35.2017   44.5293 H   0  0  0  0  0  0  0  0  0  0  0  0
   58.6978   35.5650   45.8026 H   0  0  0  0  0  0  0  0  0  0  0  0
   59.8969   32.7855   47.7264 H   0  0  0  0  0  0  0  0  0  0  0  0
   59.2794   34.4696   48.0727 H   0  0  0  0  0  0  0  0  0  0  0  0
   57.6113   32.4006   47.6450 H   0  0  0  0  0  0  0  0  0  0  0  0
   57.2081   34.0447   47.1418 H   0  0  0  0  0  0  0  0  0  0  0  0
   59.4960   30.6280   45.9690 H   0  0  0  0  0  0  0  0  0  0  0  0
  1  2  1  0
  2  3  1  0
  3  4  2  0
  4  5  1  0
  5  6  2  0
  6  7  1  0
  7  8  2  0
  8  9  1  0
  9 10  1  0
 10 11  1  0
 11 12  2  0
 11 13  1  0
 13 14  1  0
 14 15  2  0
 15 16  1  0
 16 17  2  0
 16 18  1  0
 18 19  2  0
 19 20  1  0
 20 21  1  0
 21 22  1  0
 22 23  1  0
 23 24  1  0
 24 25  1  0
 19 26  1  0
  8  3  1  0
 26 14  1  0
 25 20  1  0
  1 27  1  0
  1 28  1  0
  1 29  1  0
  4 30  1  0
  5 31  1  0
  6 32  1  0
  7 33  1  0
  9 34  1  0
  9 35  1  0
 10 36  1  0
 13 37  1  0
 13 38  1  0
 18 39  1  0
 21 40  1  0
 21 41  1  0
 22 42  1  0
 22 43  1  0
 24 44  1  0
 24 45  1  0
 25 46  1  0
 25 47  1  0
 26 48  1  0
M  END
>  <smiles>  (60) 
COc1ccccc1CNC(=O)Cc1nc(=O)cc(N2CCOCC2)[nH]1

>  <score_type>  (60) 
oracle

>  <origin>  (60) 
adg

>  <m_score__min__energy>  (60) 
-7.4299999999999997

>  <m_primary>  (60) 
energy

$$$$
60:0
     RDKit          3D

 50 52  0  0  0  0  0  0  0  0999 V2000
   51.2480   32.6440   51.4590 N   0  0  0  0  0  0  0  0  0  0  0  0
   51.6740   30.9740   51.4820 S   0  0  0  0  0  0  0  0  0  0  0  0
   51.7090   30.4540   50.0670 O   0  0  0  0  0  0  0  0  0  0  0  0
   50.6390   30.2040   52.2560 O   0  0  0  0  0  0  0  0  0  0  0  0
   53.2550   30.7620   52.2280 C   0  0  0  0  0  0  0  0  0  0  0  0
   53.3650   30.4510   53.5930 C   0  0  0  0  0  0  0  0  0  0  0  0
   54.6250   30.2540   54.1680 C   0  0  0  0  0  0  0  0  0  0  0  0
   55.7790   30.3600   53.3850 C   0  0  0  0  0  0  0  0  0  0  0  0
   55.6870   30.6570   52.0180 C   0  0  0  0  0  0  0  0  0  0  0  0
   56.9000   30.7810   51.2580 N   0  0  0  0  0  0  0  0  0  0  0  0
   57.9410   31.7450   51.4650 C   0  0  0  0  0  0  0  0  0  0  0  0
   58.1810   32.1900   52.6180 O   0  0  0  0  0  0  0  0  0  0  0  0
   58.6650   32.3110   50.2850 C   0  0  0  0  0  0  0  0  0  0  0  0
   58.6430   31.3490   49.1840 N   0  0  0  0  0  0  0  0  0  0  0  0
   59.7320   30.4450   48.9440 C   0  0  0  0  0  0  0  0  0  0  0  0
   60.9080   30.7810   49.2630 O   0  0  0  0  0  0  0  0  0  0  0  0
   59.4940   29.1290   48.3090 C   0  0  0  0  0  0  0  0  0  0  0  0
   60.1870   27.9880   48.7450 C   0  0  0  0  0  0  0  0  0  0  0  0
   59.9460   26.7420   48.1520 C   0  0  0  0  0  0  0  0  0  0  0  0
   58.9890   26.6210   47.1420 C   0  0  0  0  0  0  0  0  0  0  0  0
   58.2590   27.7410   46.7260 C   0  0  0  0  0  0  0  0  0  0  0  0
   56.9320   27.5450   45.5690 S   0  0  0  0  0  0  0  0  0  0  0  0
   55.9000   26.6450   46.1960 O   0  0  0  0  0  0  0  0  0  0  0  0
   57.4050   26.9150   44.2800 O   0  0  0  0  0  0  0  0  0  0  0  0
   56.2070   29.0860   45.2250 N   0  0  0  0  0  0  0  0  0  0  0  0
   56.7970   30.1360   44.4390 C   0  0  0  0  0  0  0  0  0  0  0  0
   56.5820   30.1420   43.0530 C   0  0  0  0  0  0  0  0  0  0  0  0
   57.0310   31.2150   42.2690 C   0  0  0  0  0  0  0  0  0  0  0  0
   57.7030   32.2890   42.8650 C   0  0  0  0  0  0  0  0  0  0  0  0
   57.9600   32.2660   44.2400 C   0  0  0  0  0  0  0  0  0  0  0  0
   58.5940   33.3100   44.8250 F   0  0  0  0  0  0  0  0  0  0  0  0
   57.5370   31.1810   45.0210 C   0  0  0  0  0  0  0  0  0  0  0  0
   58.5280   28.9960   47.2960 C   0  0  0  0  0  0  0  0  0  0  0  0
   54.4190   30.8830   51.4470 C   0  0  0  0  0  0  0  0  0  0  0  0
   50.2160   32.6990   51.6160 H   0  0  0  0  0  0  0  0  0  0  0  0
   52.4593   30.3622   54.2109 H   0  0  0  0  0  0  0  0  0  0  0  0
   54.7083   30.0152   55.2385 H   0  0  0  0  0  0  0  0  0  0  0  0
   56.7666   30.2091   53.8454 H   0  0  0  0  0  0  0  0  0  0  0  0
   58.1732   33.2420   49.9667 H   0  0  0  0  0  0  0  0  0  0  0  0
   59.7081   32.5204   50.5644 H   0  0  0  0  0  0  0  0  0  0  0  0
   57.7700   31.2620   48.6100 H   0  0  0  0  0  0  0  0  0  0  0  0
   60.9238   28.0733   49.5574 H   0  0  0  0  0  0  0  0  0  0  0  0
   60.5111   25.8579   48.4822 H   0  0  0  0  0  0  0  0  0  0  0  0
   58.8083   25.6430   46.6720 H   0  0  0  0  0  0  0  0  0  0  0  0
   56.0579   29.2998   42.5777 H   0  0  0  0  0  0  0  0  0  0  0  0
   56.8547   31.2126   41.1832 H   0  0  0  0  0  0  0  0  0  0  0  0
   58.0269   33.1457   42.2558 H   0  0  0  0  0  0  0  0  0  0  0  0
   57.7847   31.1470   46.0922 H   0  0  0  0  0  0  0  0  0  0  0  0
   57.9783   29.8825   46.9470 H   0  0  0  0  0  0  0  0  0  0  0  0
   54.3386   31.1556   50.3844 H   0  0  0  0  0  0  0  0  0  0  0  0
  1  2  1  0
  2  3  2  0
  2  4  2  0
  2  5  1  0
  5  6  2  0
  6  7  1  0
  7  8  2  0
  8  9  1  0
  9 10  1  0
 10 11  1  0
 11 12  2  0
 11 13  1  0
 13 14  1  0
 14 15  1  0
 15 16  2  0
 15 17  1  0
 17 18  2  0
 18 19  1  0
 19 20  2  0
 20 21  1  0
 21 22  1  0
 22 23  2  0
 22 24  2  0
 22 25  1  0
 25 26  1  0
 26 27  2  0
 27 28  1  0
 28 29  2  0
 29 30  1  0
 30 31  1  0
 30 32  2  0
 21 33  2  0
  9 34  2  0
 34  5  1  0
 33 17  1  0
 32 26  1  0
  1 35  1  0
  6 36  1  0
  7 37  1  0
  8 38  1  0
 13 39  1  0
 13 40  1  0
 14 41  1  0
 18 42  1  0
 19 43  1  0
 20 44  1  0
 27 45  1  0
 28 46  1  0
 29 47  1  0
 32 48  1  0
 33 49  1  0
 34 50  1  0
M  CHG  3   1  -1  10  -1  25  -1
M  END
>  <UniqueID>  (61) 
55

>  <SMILES>  (61) 
[NH-]S(=O)(=O)c1cccc([N-]C(=O)CNC(=O)c2cccc(S(=O)(=O)[N-]c3cccc(F)c3)c2)c1

>  <Energy>  (61) 
58.23186757227248

>  <Genealogy>  (61) 
[NH-]S(=O)(=O)c1cccc([N-]C(=O)CNC(=O)c2cccc(S(=O)(=O)[N-]c3cccc(F)c3)c2)c1 (protonated)
[NH-]S(=O)(=O)c1cccc([N-]C(=O)CNC(=O)c2cccc(S(=O)(=O)[N-]c3cccc(F)c3)c2)c1 (3D coordinates assigned)
[NH-]S(=O)(=O)c1cccc([N-]C(=O)CNC(=O)c2cccc(S(=O)(=O)[N-]c3cccc(F)c3)c2)c1 (optimized conformer: 58.23186757227248 kcal/mol)

>  <smiles>  (61) 
NS(=O)(=O)c1cccc(NC(=O)CNC(=O)c2cccc(S(=O)(=O)Nc3cccc(F)c3)c2)c1

>  <score_type>  (61) 
oracle

>  <origin>  (61) 
adg

>  <m_score__min__energy>  (61) 
-15.68

>  <m_primary>  (61) 
energy

$$$$
61:0
     RDKit          3D

 42 44  0  0  0  0  0  0  0  0999 V2000
   57.7650   19.4490   48.5250 C   0  0  0  0  0  0  0  0  0  0  0  0
   57.5930   20.7190   47.8150 N   0  0  0  0  0  0  0  0  0  0  0  0
   56.2610   20.8280   47.2020 C   0  0  0  0  0  0  0  0  0  0  0  0
   55.9290   22.2490   46.8070 C   0  0  0  0  0  0  0  0  0  0  0  0
   54.6320   22.5760   46.3870 C   0  0  0  0  0  0  0  0  0  0  0  0
   54.3230   23.8810   46.0010 C   0  0  0  0  0  0  0  0  0  0  0  0
   55.3070   24.8730   46.0240 C   0  0  0  0  0  0  0  0  0  0  0  0
   54.9960   26.1410   45.6490 N   0  0  0  0  0  0  0  0  0  0  0  0
   55.9150   27.1410   45.6480 C   0  0  0  0  0  0  0  0  0  0  0  0
   55.5260   28.4110   45.2360 O   0  0  0  0  0  0  0  0  0  0  0  0
   57.2430   26.8870   46.0420 C   0  0  0  0  0  0  0  0  0  0  0  0
   58.2410   27.9830   46.0360 C   0  0  0  0  0  0  0  0  0  0  0  0
   59.1320   28.0150   46.9290 O   0  0  0  0  0  0  0  0  0  0  0  0
   58.1920   29.0140   45.0380 N   0  0  0  0  0  0  0  0  0  0  0  0
   59.1820   30.0870   44.9710 C   0  0  0  0  0  0  0  0  0  0  0  0
   58.5400   31.4080   45.2930 C   0  0  0  0  0  0  0  0  0  0  0  0
   58.4980   31.8640   46.6210 C   0  0  0  0  0  0  0  0  0  0  0  0
   57.9220   33.1010   46.9240 C   0  0  0  0  0  0  0  0  0  0  0  0
   57.3870   33.8930   45.9040 C   0  0  0  0  0  0  0  0  0  0  0  0
   57.4290   33.4480   44.5800 C   0  0  0  0  0  0  0  0  0  0  0  0
   58.0040   32.2110   44.2720 C   0  0  0  0  0  0  0  0  0  0  0  0
   57.5900   25.5820   46.4520 C   0  0  0  0  0  0  0  0  0  0  0  0
   58.7600   25.3350   46.8540 O   0  0  0  0  0  0  0  0  0  0  0  0
   56.6190   24.5610   46.4390 C   0  0  0  0  0  0  0  0  0  0  0  0
   56.9220   23.2420   46.8300 C   0  0  0  0  0  0  0  0  0  0  0  0
   57.7406   19.6292   49.6099 H   0  0  0  0  0  0  0  0  0  0  0  0
   56.9518   18.7616   48.2491 H   0  0  0  0  0  0  0  0  0  0  0  0
   58.7318   19.0027   48.2491 H   0  0  0  0  0  0  0  0  0  0  0  0
   57.7300   21.5040   48.4970 H   0  0  0  0  0  0  0  0  0  0  0  0
   56.2317   20.1944   46.3033 H   0  0  0  0  0  0  0  0  0  0  0  0
   55.5191   20.5020   47.9459 H   0  0  0  0  0  0  0  0  0  0  0  0
   53.8534   21.7994   46.3616 H   0  0  0  0  0  0  0  0  0  0  0  0
   53.3015   24.1296   45.6776 H   0  0  0  0  0  0  0  0  0  0  0  0
   57.3920   29.0420   44.3650 H   0  0  0  0  0  0  0  0  0  0  0  0
   59.9843   29.8867   45.6964 H   0  0  0  0  0  0  0  0  0  0  0  0
   59.5971   30.1288   43.9532 H   0  0  0  0  0  0  0  0  0  0  0  0
   58.9203   31.2448   47.4261 H   0  0  0  0  0  0  0  0  0  0  0  0
   57.8897   33.4516   47.9661 H   0  0  0  0  0  0  0  0  0  0  0  0
   56.9332   34.8660   46.1434 H   0  0  0  0  0  0  0  0  0  0  0  0
   57.0086   34.0724   43.7779 H   0  0  0  0  0  0  0  0  0  0  0  0
   58.0368   31.8658   43.2281 H   0  0  0  0  0  0  0  0  0  0  0  0
   57.9418   22.9884   47.1551 H   0  0  0  0  0  0  0  0  0  0  0  0
  1  2  1  0
  2  3  1  0
  3  4  1  0
  4  5  2  0
  5  6  1  0
  6  7  2  0
  7  8  1  0
  8  9  1  0
  9 10  1  0
  9 11  2  0
 11 12  1  0
 12 13  2  0
 12 14  1  0
 14 15  1  0
 15 16  1  0
 16 17  2  0
 17 18  1  0
 18 19  2  0
 19 20  1  0
 20 21  2  0
 11 22  1  0
 22 23  2  0
 22 24  1  0
 24 25  2  0
 25  4  1  0
 24  7  1  0
 21 16  1  0
  1 26  1  0
  1 27  1  0
  1 28  1  0
  2 29  1  0
  3 30  1  0
  3 31  1  0
  5 32  1  0
  6 33  1  0
 14 34  1  0
 15 35  1  0
 15 36  1  0
 17 37  1  0
 18 38  1  0
 19 39  1  0
 20 40  1  0
 21 41  1  0
 25 42  1  0
M  CHG  2   8  -1  10  -1
M  END
>  <UniqueID>  (62) 
56

>  <SMILES>  (62) 
CNCc1ccc2[n-]c([O-])c(C(=O)NCc3ccccc3)c(=O)c2c1

>  <Energy>  (62) 
51.55933461708972

>  <Genealogy>  (62) 
CNCc1ccc2[n-]c([O-])c(C(=O)NCc3ccccc3)c(=O)c2c1 (protonated)
CNCc1ccc2[n-]c([O-])c(C(=O)NCc3ccccc3)c(=O)c2c1 (3D coordinates assigned)
CNCc1ccc2[n-]c([O-])c(C(=O)NCc3ccccc3)c(=O)c2c1 (optimized conformer: 51.55933461708972 kcal/mol)

>  <smiles>  (62) 
CNCc1ccc2[nH]c(O)c(C(=O)NCc3ccccc3)c(=O)c2c1

>  <score_type>  (62) 
oracle

>  <origin>  (62) 
adg

>  <m_score__min__energy>  (62) 
-13.130000000000001

>  <m_primary>  (62) 
energy

$$$$
62:0
     RDKit          3D

 56 59  0  0  0  0  0  0  0  0999 V2000
   49.8960   22.1470   48.9980 C   0  0  0  0  0  0  0  0  0  0  0  0
   50.1320   21.8650   47.6220 O   0  0  0  0  0  0  0  0  0  0  0  0
   51.1430   22.4590   46.8550 C   0  0  0  0  0  0  0  0  0  0  0  0
   50.7710   23.3140   45.8110 C   0  0  0  0  0  0  0  0  0  0  0  0
   51.7420   23.9340   45.0190 C   0  0  0  0  0  0  0  0  0  0  0  0
   53.1070   23.7120   45.2700 C   0  0  0  0  0  0  0  0  0  0  0  0
   54.1110   24.3000   44.4860 O   0  0  0  0  0  0  0  0  0  0  0  0
   55.4460   23.8670   44.4210 C   0  0  0  0  0  0  0  0  0  0  0  0
   55.8620   22.9510   43.4380 C   0  0  0  0  0  0  0  0  0  0  0  0
   57.1890   22.5240   43.3840 C   0  0  0  0  0  0  0  0  0  0  0  0
   58.1190   23.0180   44.2990 C   0  0  0  0  0  0  0  0  0  0  0  0
   57.7260   23.9450   45.2660 C   0  0  0  0  0  0  0  0  0  0  0  0
   56.3900   24.3800   45.3370 C   0  0  0  0  0  0  0  0  0  0  0  0
   55.9880   25.3630   46.3720 C   0  0  0  0  0  0  0  0  0  0  0  0
   55.9010   25.0000   47.5750 O   0  0  0  0  0  0  0  0  0  0  0  0
   55.6380   26.7120   46.0350 N   0  0  0  0  0  0  0  0  0  0  0  0
   56.5510   27.7340   45.6090 C   0  0  0  0  0  0  0  0  0  0  0  0
   57.9120   27.5800   45.8980 C   0  0  0  0  0  0  0  0  0  0  0  0
   58.8370   28.5590   45.5130 C   0  0  0  0  0  0  0  0  0  0  0  0
   60.5370   28.3640   45.9310 S   0  0  0  0  0  0  0  0  0  0  0  0
   61.3770   28.4190   44.6860 O   0  0  0  0  0  0  0  0  0  0  0  0
   60.7240   27.0320   46.6000 O   0  0  0  0  0  0  0  0  0  0  0  0
   61.0000   29.6430   47.0080 N   0  0  0  0  0  0  0  0  0  0  0  0
   60.6780   29.6700   48.2700 C   0  0  0  0  0  0  0  0  0  0  0  0
   60.6430   30.9140   49.0710 C   0  0  0  0  0  0  0  0  0  0  0  0
   60.1450   30.4430   50.4460 C   0  0  0  0  0  0  0  0  0  0  0  0
   60.0460   28.9070   50.3960 C   0  0  0  0  0  0  0  0  0  0  0  0
   60.3340   28.5260   49.0280 N   0  0  0  0  0  0  0  0  0  0  0  0
   58.3950   29.6980   44.8270 C   0  0  0  0  0  0  0  0  0  0  0  0
   57.0440   29.8420   44.5040 C   0  0  0  0  0  0  0  0  0  0  0  0
   56.1210   28.8600   44.8770 C   0  0  0  0  0  0  0  0  0  0  0  0
   54.7920   29.0010   44.4950 O   0  0  0  0  0  0  0  0  0  0  0  0
   53.4810   22.8440   46.3000 C   0  0  0  0  0  0  0  0  0  0  0  0
   52.5110   22.2250   47.0940 C   0  0  0  0  0  0  0  0  0  0  0  0
   50.4783   21.4512   49.6200 H   0  0  0  0  0  0  0  0  0  0  0  0
   50.2025   23.1802   49.2184 H   0  0  0  0  0  0  0  0  0  0  0  0
   48.8250   22.0274   49.2184 H   0  0  0  0  0  0  0  0  0  0  0  0
   49.7052   23.4997   45.6120 H   0  0  0  0  0  0  0  0  0  0  0  0
   51.4367   24.5978   44.1967 H   0  0  0  0  0  0  0  0  0  0  0  0
   55.1354   22.5684   42.7062 H   0  0  0  0  0  0  0  0  0  0  0  0
   57.5021   21.7975   42.6197 H   0  0  0  0  0  0  0  0  0  0  0  0
   59.1639   22.6765   44.2585 H   0  0  0  0  0  0  0  0  0  0  0  0
   58.4666   24.3383   45.9779 H   0  0  0  0  0  0  0  0  0  0  0  0
   58.2580   26.6827   46.4319 H   0  0  0  0  0  0  0  0  0  0  0  0
   61.5590   30.4300   46.6080 H   0  0  0  0  0  0  0  0  0  0  0  0
   61.6455   31.3602   49.1479 H   0  0  0  0  0  0  0  0  0  0  0  0
   60.0030   31.6908   48.6272 H   0  0  0  0  0  0  0  0  0  0  0  0
   60.8549   30.7491   51.2285 H   0  0  0  0  0  0  0  0  0  0  0  0
   59.1668   30.8888   50.6794 H   0  0  0  0  0  0  0  0  0  0  0  0
   60.7798   28.4554   51.0798 H   0  0  0  0  0  0  0  0  0  0  0  0
   59.0495   28.5599   50.7067 H   0  0  0  0  0  0  0  0  0  0  0  0
   60.3320   27.5380   48.6930 H   0  0  0  0  0  0  0  0  0  0  0  0
   59.1138   30.4805   44.5422 H   0  0  0  0  0  0  0  0  0  0  0  0
   56.7044   30.7319   43.9537 H   0  0  0  0  0  0  0  0  0  0  0  0
   54.5468   22.6465   46.4872 H   0  0  0  0  0  0  0  0  0  0  0  0
   52.8175   21.5525   47.9087 H   0  0  0  0  0  0  0  0  0  0  0  0
  1  2  1  0
  2  3  1  0
  3  4  2  0
  4  5  1  0
  5  6  2  0
  6  7  1  0
  7  8  1  0
  8  9  2  0
  9 10  1  0
 10 11  2  0
 11 12  1  0
 12 13  2  0
 13 14  1  0
 14 15  2  0
 14 16  1  0
 16 17  1  0
 17 18  2  0
 18 19  1  0
 19 20  1  0
 20 21  2  0
 20 22  2  0
 20 23  1  0
 23 24  2  3
 24 25  1  0
 25 26  1  0
 26 27  1  0
 27 28  1  0
 19 29  2  0
 29 30  1  0
 30 31  2  0
 31 32  1  0
  6 33  1  0
 33 34  2  0
 34  3  1  0
 13  8  1  0
 31 17  1  0
 28 24  1  0
  1 35  1  0
  1 36  1  0
  1 37  1  0
  4 38  1  0
  5 39  1  0
  9 40  1  0
 10 41  1  0
 11 42  1  0
 12 43  1  0
 18 44  1  0
 23 45  1  0
 25 46  1  0
 25 47  1  0
 26 48  1  0
 26 49  1  0
 27 50  1  0
 27 51  1  0
 28 52  1  0
 29 53  1  0
 30 54  1  0
 33 55  1  0
 34 56  1  0
M  CHG  3  16  -1  23   1  32  -1
M  END
>  <UniqueID>  (63) 
57

>  <SMILES>  (63) 
COc1ccc(Oc2ccccc2C(=O)[N-]c2cc(S(=O)(=O)[NH+]=C3CCCN3)ccc2[O-])cc1

>  <Energy>  (63) 
83.17656896316672

>  <Genealogy>  (63) 
COc1ccc(Oc2ccccc2C(=O)[N-]c2cc(S(=O)(=O)[NH+]=C3CCCN3)ccc2[O-])cc1 (protonated)
COc1ccc(Oc2ccccc2C(=O)[N-]c2cc(S(=O)(=O)[NH+]=C3CCCN3)ccc2[O-])cc1 (3D coordinates assigned)
COc1ccc(Oc2ccccc2C(=O)[N-]c2cc(S(=O)(=O)[NH+]=C3CCCN3)ccc2[O-])cc1 (nonaromatic ring conformer: 83.17656896316672 kcal/mol)

>  <smiles>  (63) 
COc1ccc(Oc2ccccc2C(=O)Nc2cc(S(=O)(=O)N=C3CCCN3)ccc2O)cc1

>  <score_type>  (63) 
oracle

>  <origin>  (63) 
adg

>  <m_score__min__energy>  (63) 
-12.460000000000001

>  <m_primary>  (63) 
energy

$$$$
63:0
     RDKit          3D

 50 53  0  0  0  0  0  0  0  0999 V2000
   59.6120   35.3930   45.1750 N   0  0  0  0  0  0  0  0  0  0  0  0
   59.1020   34.3550   45.1960 C   0  0  0  0  0  0  0  0  0  0  0  0
   58.4670   33.0630   45.2220 C   0  0  0  0  0  0  0  0  0  0  0  0
   57.3430   32.8240   44.4440 C   0  0  0  0  0  0  0  0  0  0  0  0
   56.7550   31.5640   44.4590 C   0  0  0  0  0  0  0  0  0  0  0  0
   57.2580   30.5480   45.2380 N   0  0  0  0  0  0  0  0  0  0  0  0
   56.6560   29.3090   45.1930 C   0  0  0  0  0  0  0  0  0  0  0  0
   55.6490   29.1210   44.4530 O   0  0  0  0  0  0  0  0  0  0  0  0
   57.1510   28.2400   45.9620 C   0  0  0  0  0  0  0  0  0  0  0  0
   56.5370   26.8830   45.9200 C   0  0  0  0  0  0  0  0  0  0  0  0
   57.2630   25.8580   45.8100 O   0  0  0  0  0  0  0  0  0  0  0  0
   55.1600   26.7140   46.0000 O   0  0  0  0  0  0  0  0  0  0  0  0
   58.2520   28.4690   46.7880 C   0  0  0  0  0  0  0  0  0  0  0  0
   58.8590   29.7240   46.8680 C   0  0  0  0  0  0  0  0  0  0  0  0
   60.2210   29.8740   48.0130 S   0  0  0  0  0  0  0  0  0  0  0  0
   60.3370   28.6780   48.9170 O   0  0  0  0  0  0  0  0  0  0  0  0
   61.4960   29.9510   47.2210 O   0  0  0  0  0  0  0  0  0  0  0  0
   60.0820   31.3350   48.9470 N   0  0  0  0  0  0  0  0  0  0  0  0
   60.3020   31.0620   50.3670 C   0  0  0  0  0  0  0  0  0  0  0  0
   59.0630   31.4070   51.1440 C   0  0  0  0  0  0  0  0  0  0  0  0
   58.9360   32.6600   51.7640 C   0  0  0  0  0  0  0  0  0  0  0  0
   57.7650   32.9890   52.4510 C   0  0  0  0  0  0  0  0  0  0  0  0
   56.7130   32.0720   52.5230 C   0  0  0  0  0  0  0  0  0  0  0  0
   56.8240   30.8160   51.9140 C   0  0  0  0  0  0  0  0  0  0  0  0
   55.7400   29.9300   51.9920 O   0  0  0  0  0  0  0  0  0  0  0  0
   54.4000   30.3000   52.1870 C   0  0  0  0  0  0  0  0  0  0  0  0
   53.8070   30.0490   53.4300 C   0  0  0  0  0  0  0  0  0  0  0  0
   52.4720   30.3950   53.6590 C   0  0  0  0  0  0  0  0  0  0  0  0
   51.7160   30.9830   52.6410 C   0  0  0  0  0  0  0  0  0  0  0  0
   52.2930   31.2170   51.3910 C   0  0  0  0  0  0  0  0  0  0  0  0
   53.6280   30.8730   51.1580 C   0  0  0  0  0  0  0  0  0  0  0  0
   57.9950   30.4970   51.2030 C   0  0  0  0  0  0  0  0  0  0  0  0
   58.3630   30.7730   46.0470 C   0  0  0  0  0  0  0  0  0  0  0  0
   58.9800   32.0440   46.0210 C   0  0  0  0  0  0  0  0  0  0  0  0
   56.9203   33.6253   43.8201 H   0  0  0  0  0  0  0  0  0  0  0  0
   55.8690   31.3758   43.8348 H   0  0  0  0  0  0  0  0  0  0  0  0
   58.6517   27.6404   47.3911 H   0  0  0  0  0  0  0  0  0  0  0  0
   60.8410   31.9760   48.6180 H   0  0  0  0  0  0  0  0  0  0  0  0
   60.5345   29.9955   50.5031 H   0  0  0  0  0  0  0  0  0  0  0  0
   61.1428   31.6712   50.7303 H   0  0  0  0  0  0  0  0  0  0  0  0
   59.7613   33.3852   51.7087 H   0  0  0  0  0  0  0  0  0  0  0  0
   57.6708   33.9717   52.9362 H   0  0  0  0  0  0  0  0  0  0  0  0
   55.7917   32.3386   53.0616 H   0  0  0  0  0  0  0  0  0  0  0  0
   54.3948   29.5769   54.2310 H   0  0  0  0  0  0  0  0  0  0  0  0
   52.0159   30.2042   54.6417 H   0  0  0  0  0  0  0  0  0  0  0  0
   50.6676   31.2611   52.8243 H   0  0  0  0  0  0  0  0  0  0  0  0
   51.6957   31.6731   50.5877 H   0  0  0  0  0  0  0  0  0  0  0  0
   54.0761   31.0503   50.1692 H   0  0  0  0  0  0  0  0  0  0  0  0
   58.0748   29.5276   50.6894 H   0  0  0  0  0  0  0  0  0  0  0  0
   59.8724   32.2301   46.6366 H   0  0  0  0  0  0  0  0  0  0  0  0
  1  2  3  0
  2  3  1  0
  3  4  1  0
  4  5  2  0
  5  6  1  0
  6  7  1  0
  7  8  2  0
  7  9  1  0
  9 10  1  0
 10 11  2  0
 10 12  1  0
  9 13  2  0
 13 14  1  0
 14 15  1  0
 15 16  2  0
 15 17  2  0
 15 18  1  0
 18 19  1  0
 19 20  1  0
 20 21  2  0
 21 22  1  0
 22 23  2  0
 23 24  1  0
 24 25  1  0
 25 26  1  0
 26 27  2  0
 27 28  1  0
 28 29  2  0
 29 30  1  0
 30 31  2  0
 24 32  2  0
 14 33  2  0
 33 34  1  0
 34  3  2  0
 33  6  1  0
 32 20  1  0
 31 26  1  0
  4 35  1  0
  5 36  1  0
 13 37  1  0
 18 38  1  0
 19 39  1  0
 19 40  1  0
 21 41  1  0
 22 42  1  0
 23 43  1  0
 27 44  1  0
 28 45  1  0
 29 46  1  0
 30 47  1  0
 31 48  1  0
 32 49  1  0
 34 50  1  0
M  CHG  1  12  -1
M  END
>  <UniqueID>  (64) 
58

>  <SMILES>  (64) 
N#Cc1ccn2c(=O)c(C(=O)[O-])cc(S(=O)(=O)NCc3cccc(Oc4ccccc4)c3)c2c1

>  <Energy>  (64) 
72.6397117518958

>  <Genealogy>  (64) 
N#Cc1ccn2c(=O)c(C(=O)[O-])cc(S(=O)(=O)NCc3cccc(Oc4ccccc4)c3)c2c1 (protonated)
N#Cc1ccn2c(=O)c(C(=O)[O-])cc(S(=O)(=O)NCc3cccc(Oc4ccccc4)c3)c2c1 (3D coordinates assigned)
N#Cc1ccn2c(=O)c(C(=O)[O-])cc(S(=O)(=O)NCc3cccc(Oc4ccccc4)c3)c2c1 (optimized conformer: 72.6397117518958 kcal/mol)

>  <smiles>  (64) 
N#Cc1ccn2c(=O)c(C(=O)O)cc(S(=O)(=O)NCc3cccc(Oc4ccccc4)c3)c2c1

>  <score_type>  (64) 
oracle

>  <origin>  (64) 
adg

>  <m_score__min__energy>  (64) 
-12.390000000000001

>  <m_primary>  (64) 
energy

$$$$
64:0
     RDKit          3D

 65 68  0  0  0  0  0  0  0  0999 V2000
   64.5250   33.0690   48.8700 C   0  0  0  0  0  0  0  0  0  0  0  0
   63.7210   32.9220   50.1580 C   0  0  0  0  0  0  0  0  0  0  0  0
   62.4830   32.0980   49.9230 C   0  0  0  0  0  0  0  0  0  0  0  0
   62.2350   30.9440   50.6930 C   0  0  0  0  0  0  0  0  0  0  0  0
   61.0670   30.1850   50.4910 C   0  0  0  0  0  0  0  0  0  0  0  0
   60.1280   30.5650   49.5220 C   0  0  0  0  0  0  0  0  0  0  0  0
   60.3610   31.7230   48.7750 C   0  0  0  0  0  0  0  0  0  0  0  0
   59.5190   32.2540   47.7910 C   0  0  0  0  0  0  0  0  0  0  0  0
   58.3200   31.6450   47.4100 O   0  0  0  0  0  0  0  0  0  0  0  0
   58.1350   31.0070   46.1750 C   0  0  0  0  0  0  0  0  0  0  0  0
   57.9360   31.7930   45.0360 C   0  0  0  0  0  0  0  0  0  0  0  0
   57.7400   31.1920   43.7910 C   0  0  0  0  0  0  0  0  0  0  0  0
   57.7460   29.7990   43.6740 C   0  0  0  0  0  0  0  0  0  0  0  0
   57.9480   28.9920   44.8060 C   0  0  0  0  0  0  0  0  0  0  0  0
   57.9710   27.5170   44.6850 C   0  0  0  0  0  0  0  0  0  0  0  0
   57.5410   26.9630   43.6370 O   0  0  0  0  0  0  0  0  0  0  0  0
   58.4980   26.7010   45.7450 N   0  0  0  0  0  0  0  0  0  0  0  0
   57.5960   25.7590   46.4250 C   0  0  0  0  0  0  0  0  0  0  0  0
   57.1400   24.6710   45.4710 C   0  0  0  0  0  0  0  0  0  0  0  0
   58.1200   23.8090   44.9400 C   0  0  0  0  0  0  0  0  0  0  0  0
   57.7680   22.7440   44.1130 C   0  0  0  0  0  0  0  0  0  0  0  0
   56.4290   22.5090   43.8100 C   0  0  0  0  0  0  0  0  0  0  0  0
   56.0800   21.4660   42.9610 O   0  0  0  0  0  0  0  0  0  0  0  0
   55.4370   23.3290   44.3470 C   0  0  0  0  0  0  0  0  0  0  0  0
   55.7700   24.4230   45.1650 C   0  0  0  0  0  0  0  0  0  0  0  0
   54.6580   25.2650   45.6540 C   0  0  0  0  0  0  0  0  0  0  0  0
   54.8580   26.4500   46.0330 O   0  0  0  0  0  0  0  0  0  0  0  0
   53.3590   24.7740   45.6340 O   0  0  0  0  0  0  0  0  0  0  0  0
   59.9640   26.6280   45.8940 C   0  0  0  0  0  0  0  0  0  0  0  0
   60.3480   26.4520   47.3660 C   0  0  0  0  0  0  0  0  0  0  0  0
   60.6640   27.8450   45.2770 C   0  0  0  0  0  0  0  0  0  0  0  0
   58.1230   29.6050   46.0570 C   0  0  0  0  0  0  0  0  0  0  0  0
   60.0050   33.4450   47.2450 C   0  0  0  0  0  0  0  0  0  0  0  0
   59.1490   34.5100   46.1390 S   0  0  0  0  0  0  0  0  0  0  0  0
   59.6230   36.1470   46.4310 N   0  0  0  0  0  0  0  0  0  0  0  0
   57.6650   34.3710   46.3200 O   0  0  0  0  0  0  0  0  0  0  0  0
   59.5020   34.1450   44.7250 O   0  0  0  0  0  0  0  0  0  0  0  0
   61.4850   33.8160   47.9660 S   0  0  0  0  0  0  0  0  0  0  0  0
   61.5140   32.4700   48.9800 C   0  0  0  0  0  0  0  0  0  0  0  0
   65.5796   33.2618   49.1161 H   0  0  0  0  0  0  0  0  0  0  0  0
   64.4491   32.1421   48.2826 H   0  0  0  0  0  0  0  0  0  0  0  0
   64.1260   33.9091   48.2826 H   0  0  0  0  0  0  0  0  0  0  0  0
   64.3443   32.4282   50.9181 H   0  0  0  0  0  0  0  0  0  0  0  0
   63.4193   33.9223   50.5020 H   0  0  0  0  0  0  0  0  0  0  0  0
   62.9609   30.6336   51.4589 H   0  0  0  0  0  0  0  0  0  0  0  0
   60.8894   29.2856   51.0989 H   0  0  0  0  0  0  0  0  0  0  0  0
   59.2236   29.9623   49.3525 H   0  0  0  0  0  0  0  0  0  0  0  0
   57.9338   32.8897   45.1210 H   0  0  0  0  0  0  0  0  0  0  0  0
   57.5804   31.8165   42.8996 H   0  0  0  0  0  0  0  0  0  0  0  0
   57.5917   29.3321   42.6900 H   0  0  0  0  0  0  0  0  0  0  0  0
   58.1263   25.2983   47.2715 H   0  0  0  0  0  0  0  0  0  0  0  0
   56.7132   26.3094   46.7822 H   0  0  0  0  0  0  0  0  0  0  0  0
   59.1794   23.9794   45.1820 H   0  0  0  0  0  0  0  0  0  0  0  0
   58.5483   22.0884   43.6992 H   0  0  0  0  0  0  0  0  0  0  0  0
   54.3801   23.1171   44.1277 H   0  0  0  0  0  0  0  0  0  0  0  0
   60.3116   25.7445   45.3384 H   0  0  0  0  0  0  0  0  0  0  0  0
   59.5337   26.8252   48.0045 H   0  0  0  0  0  0  0  0  0  0  0  0
   60.5188   25.3857   47.5754 H   0  0  0  0  0  0  0  0  0  0  0  0
   61.2673   27.0187   47.5754 H   0  0  0  0  0  0  0  0  0  0  0  0
   61.0394   28.4977   46.0789 H   0  0  0  0  0  0  0  0  0  0  0  0
   61.5059   27.5073   44.6548 H   0  0  0  0  0  0  0  0  0  0  0  0
   59.9488   28.4029   44.6548 H   0  0  0  0  0  0  0  0  0  0  0  0
   58.2521   28.9824   46.9546 H   0  0  0  0  0  0  0  0  0  0  0  0
   58.9250   36.5530   47.0930 H   0  0  0  0  0  0  0  0  0  0  0  0
   60.5340   36.1160   46.9390 H   0  0  0  0  0  0  0  0  0  0  0  0
  1  2  1  0
  2  3  1  0
  3  4  2  0
  4  5  1  0
  5  6  2  0
  6  7  1  0
  7  8  1  0
  8  9  1  0
  9 10  1  0
 10 11  2  0
 11 12  1  0
 12 13  2  0
 13 14  1  0
 14 15  1  0
 15 16  2  0
 15 17  1  0
 17 18  1  0
 18 19  1  0
 19 20  2  0
 20 21  1  0
 21 22  2  0
 22 23  1  0
 22 24  1  0
 24 25  2  0
 25 26  1  0
 26 27  2  0
 26 28  1  0
 17 29  1  0
 29 30  1  0
 29 31  1  0
 14 32  2  0
  8 33  2  0
 33 34  1  0
 34 35  1  0
 34 36  2  0
 34 37  2  0
 33 38  1  0
 38 39  1  0
 39  3  1  0
 39  7  2  0
 32 10  1  0
 25 19  1  0
  1 40  1  0
  1 41  1  0
  1 42  1  0
  2 43  1  0
  2 44  1  0
  4 45  1  0
  5 46  1  0
  6 47  1  0
 11 48  1  0
 12 49  1  0
 13 50  1  0
 18 51  1  0
 18 52  1  0
 20 53  1  0
 21 54  1  0
 24 55  1  0
 29 56  1  0
 30 57  1  0
 30 58  1  0
 30 59  1  0
 31 60  1  0
 31 61  1  0
 31 62  1  0
 32 63  1  0
 35 64  1  0
 35 65  1  0
M  CHG  2  23  -1  28  -1
M  END
>  <UniqueID>  (65) 
59

>  <SMILES>  (65) 
CCc1cccc2c(Oc3cccc(C(=O)N(Cc4ccc([O-])cc4C(=O)[O-])C(C)C)c3)c(S(N)(=O)=O)sc12

>  <Energy>  (65) 
102.68260677470863

>  <Genealogy>  (65) 
CCc1cccc2c(Oc3cccc(C(=O)N(Cc4ccc([O-])cc4C(=O)[O-])C(C)C)c3)c(S(N)(=O)=O)sc12 (protonated)
CCc1cccc2c(Oc3cccc(C(=O)N(Cc4ccc([O-])cc4C(=O)[O-])C(C)C)c3)c(S(N)(=O)=O)sc12 (3D coordinates assigned)
CCc1cccc2c(Oc3cccc(C(=O)N(Cc4ccc([O-])cc4C(=O)[O-])C(C)C)c3)c(S(N)(=O)=O)sc12 (optimized conformer: 102.68260677470863 kcal/mol)

>  <smiles>  (65) 
CCc1cccc2c(Oc3cccc(C(=O)N(Cc4ccc(O)cc4C(=O)O)C(C)C)c3)c(S(N)(=O)=O)sc12

>  <score_type>  (65) 
oracle

>  <origin>  (65) 
adg

>  <m_score__min__energy>  (65) 
-15.74

>  <m_primary>  (65) 
energy

$$$$
65:0
     RDKit          3D

 41 42  0  0  0  0  0  0  0  0999 V2000
   57.4380   25.4960   44.6110 C   0  0  0  0  0  0  0  0  0  0  0  0
   56.5390   26.1390   46.0040 S   0  0  0  0  0  0  0  0  0  0  0  0
   57.4740   26.2730   47.1730 O   0  0  0  0  0  0  0  0  0  0  0  0
   55.4220   25.1950   46.3450 O   0  0  0  0  0  0  0  0  0  0  0  0
   55.8910   27.6910   45.5850 N   0  0  0  0  0  0  0  0  0  0  0  0
   56.6690   28.8470   45.2430 C   0  0  0  0  0  0  0  0  0  0  0  0
   56.4890   29.5360   44.0300 C   0  0  0  0  0  0  0  0  0  0  0  0
   57.2820   30.6460   43.7290 C   0  0  0  0  0  0  0  0  0  0  0  0
   58.2520   31.0830   44.6360 C   0  0  0  0  0  0  0  0  0  0  0  0
   58.4270   30.4240   45.8600 C   0  0  0  0  0  0  0  0  0  0  0  0
   59.4450   30.8810   46.7660 N   0  0  0  0  0  0  0  0  0  0  0  0
   60.8090   30.4390   46.7340 C   0  0  0  0  0  0  0  0  0  0  0  0
   61.1460   29.4450   46.0350 O   0  0  0  0  0  0  0  0  0  0  0  0
   61.7810   31.1080   47.5440 N   0  0  0  0  0  0  0  0  0  0  0  0
   62.2300   32.4740   47.3000 C   0  0  0  0  0  0  0  0  0  0  0  0
   61.5610   33.4410   48.2800 C   0  0  0  0  0  0  0  0  0  0  0  0
   60.1400   33.3610   48.1750 O   0  0  0  0  0  0  0  0  0  0  0  0
   59.3780   33.7720   47.0680 C   0  0  0  0  0  0  0  0  0  0  0  0
   59.9380   34.4580   45.9700 C   0  0  0  0  0  0  0  0  0  0  0  0
   59.1330   34.8430   44.8930 C   0  0  0  0  0  0  0  0  0  0  0  0
   57.7670   34.5460   44.8990 C   0  0  0  0  0  0  0  0  0  0  0  0
   57.2060   33.8640   45.9800 C   0  0  0  0  0  0  0  0  0  0  0  0
   58.0080   33.4780   47.0590 C   0  0  0  0  0  0  0  0  0  0  0  0
   57.4490   32.8160   48.1040 F   0  0  0  0  0  0  0  0  0  0  0  0
   57.6420   29.2920   46.1480 C   0  0  0  0  0  0  0  0  0  0  0  0
   58.2842   24.8908   44.9684 H   0  0  0  0  0  0  0  0  0  0  0  0
   56.7705   24.8692   44.0015 H   0  0  0  0  0  0  0  0  0  0  0  0
   57.8155   26.3302   44.0015 H   0  0  0  0  0  0  0  0  0  0  0  0
   55.7220   29.2000   43.3167 H   0  0  0  0  0  0  0  0  0  0  0  0
   57.1429   31.1775   42.7760 H   0  0  0  0  0  0  0  0  0  0  0  0
   58.8819   31.9498   44.3871 H   0  0  0  0  0  0  0  0  0  0  0  0
   59.1650   31.5120   47.5490 H   0  0  0  0  0  0  0  0  0  0  0  0
   63.3212   32.5249   47.4291 H   0  0  0  0  0  0  0  0  0  0  0  0
   61.9559   32.7608   46.2740 H   0  0  0  0  0  0  0  0  0  0  0  0
   61.8627   33.1822   49.3057 H   0  0  0  0  0  0  0  0  0  0  0  0
   61.8769   34.4663   48.0372 H   0  0  0  0  0  0  0  0  0  0  0  0
   61.0129   34.6913   45.9608 H   0  0  0  0  0  0  0  0  0  0  0  0
   59.5750   35.3798   44.0407 H   0  0  0  0  0  0  0  0  0  0  0  0
   57.1343   34.8497   44.0520 H   0  0  0  0  0  0  0  0  0  0  0  0
   56.1313   33.6297   45.9833 H   0  0  0  0  0  0  0  0  0  0  0  0
   57.7938   28.7508   47.0935 H   0  0  0  0  0  0  0  0  0  0  0  0
  1  2  1  0
  2  3  2  0
  2  4  2  0
  2  5  1  0
  5  6  1  0
  6  7  2  0
  7  8  1  0
  8  9  2  0
  9 10  1  0
 10 11  1  0
 11 12  1  0
 12 13  2  0
 12 14  1  0
 14 15  1  0
 15 16  1  0
 16 17  1  0
 17 18  1  0
 18 19  2  0
 19 20  1  0
 20 21  2  0
 21 22  1  0
 22 23  2  0
 23 24  1  0
 10 25  2  0
 25  6  1  0
 23 18  1  0
  1 26  1  0
  1 27  1  0
  1 28  1  0
  7 29  1  0
  8 30  1  0
  9 31  1  0
 11 32  1  0
 15 33  1  0
 15 34  1  0
 16 35  1  0
 16 36  1  0
 19 37  1  0
 20 38  1  0
 21 39  1  0
 22 40  1  0
 25 41  1  0
M  CHG  2   5  -1  14  -1
M  END
>  <UniqueID>  (66) 
60

>  <SMILES>  (66) 
CS(=O)(=O)[N-]c1cccc(NC(=O)[N-]CCOc2ccccc2F)c1

>  <Energy>  (66) 
39.91088262987679

>  <Genealogy>  (66) 
CS(=O)(=O)[N-]c1cccc(NC(=O)[N-]CCOc2ccccc2F)c1 (protonated)
CS(=O)(=O)[N-]c1cccc(NC(=O)[N-]CCOc2ccccc2F)c1 (3D coordinates assigned)
CS(=O)(=O)[N-]c1cccc(NC(=O)[N-]CCOc2ccccc2F)c1 (optimized conformer: 39.91088262987679 kcal/mol)

>  <smiles>  (66) 
CS(=O)(=O)Nc1cccc(NC(=O)NCCOc2ccccc2F)c1

>  <score_type>  (66) 
oracle

>  <origin>  (66) 
adg

>  <m_score__min__energy>  (66) 
-11.17

>  <m_primary>  (66) 
energy

$$$$
66:0
     RDKit          3D

 58 61  0  0  0  0  0  0  0  0999 V2000
   64.3010   31.3090   50.2390 C   0  0  0  0  0  0  0  0  0  0  0  0
   63.1160   32.1340   49.9420 N   0  0  0  0  0  0  0  0  0  0  0  0
   62.3080   32.5660   50.9560 C   0  0  0  0  0  0  0  0  0  0  0  0
   62.5680   32.2370   52.1470 O   0  0  0  0  0  0  0  0  0  0  0  0
   61.2210   33.3550   50.6890 N   0  0  0  0  0  0  0  0  0  0  0  0
   60.3590   33.8410   51.7870 C   0  0  0  0  0  0  0  0  0  0  0  0
   59.1170   32.9930   51.8980 C   0  0  0  0  0  0  0  0  0  0  0  0
   58.4750   32.8360   53.1360 C   0  0  0  0  0  0  0  0  0  0  0  0
   57.3060   32.0760   53.2350 C   0  0  0  0  0  0  0  0  0  0  0  0
   56.7530   31.4640   52.0970 C   0  0  0  0  0  0  0  0  0  0  0  0
   55.5100   30.6580   52.2020 C   0  0  0  0  0  0  0  0  0  0  0  0
   55.5170   29.4200   52.8700 C   0  0  0  0  0  0  0  0  0  0  0  0
   54.3500   28.6570   52.9610 C   0  0  0  0  0  0  0  0  0  0  0  0
   53.1620   29.1220   52.3930 C   0  0  0  0  0  0  0  0  0  0  0  0
   53.1300   30.3610   51.7380 C   0  0  0  0  0  0  0  0  0  0  0  0
   51.8580   30.8480   51.0990 C   0  0  0  0  0  0  0  0  0  0  0  0
   51.9740   32.2060   50.7730 O   0  0  0  0  0  0  0  0  0  0  0  0
   54.3080   31.1180   51.6330 C   0  0  0  0  0  0  0  0  0  0  0  0
   57.3970   31.6260   50.8580 C   0  0  0  0  0  0  0  0  0  0  0  0
   58.5670   32.3850   50.7600 C   0  0  0  0  0  0  0  0  0  0  0  0
   60.9630   33.7280   49.3980 C   0  0  0  0  0  0  0  0  0  0  0  0
   59.9660   34.4630   49.1460 O   0  0  0  0  0  0  0  0  0  0  0  0
   61.7770   33.3170   48.3760 N   0  0  0  0  0  0  0  0  0  0  0  0
   61.4890   33.7530   46.9890 C   0  0  0  0  0  0  0  0  0  0  0  0
   60.0520   33.4450   46.5900 C   0  0  0  0  0  0  0  0  0  0  0  0
   59.2340   34.5080   46.1490 C   0  0  0  0  0  0  0  0  0  0  0  0
   59.7040   35.7800   46.1120 F   0  0  0  0  0  0  0  0  0  0  0  0
   57.9190   34.2770   45.7460 C   0  0  0  0  0  0  0  0  0  0  0  0
   57.3890   32.9920   45.7890 C   0  0  0  0  0  0  0  0  0  0  0  0
   58.1610   31.9320   46.2590 C   0  0  0  0  0  0  0  0  0  0  0  0
   59.4900   32.1350   46.6880 C   0  0  0  0  0  0  0  0  0  0  0  0
   60.2720   30.9580   47.2450 C   0  0  0  0  0  0  0  0  0  0  0  0
   61.5510   30.9510   46.7150 F   0  0  0  0  0  0  0  0  0  0  0  0
   60.3900   31.0220   48.6240 F   0  0  0  0  0  0  0  0  0  0  0  0
   59.6330   29.7740   46.9270 F   0  0  0  0  0  0  0  0  0  0  0  0
   62.8680   32.5390   48.6590 C   0  0  0  0  0  0  0  0  0  0  0  0
   63.6510   32.1890   47.7310 O   0  0  0  0  0  0  0  0  0  0  0  0
   64.4243   31.2232   51.3287 H   0  0  0  0  0  0  0  0  0  0  0  0
   64.1683   30.3070   49.8050 H   0  0  0  0  0  0  0  0  0  0  0  0
   65.1947   31.7812   49.8050 H   0  0  0  0  0  0  0  0  0  0  0  0
   60.9167   33.7919   52.7339 H   0  0  0  0  0  0  0  0  0  0  0  0
   60.0633   34.8790   51.5745 H   0  0  0  0  0  0  0  0  0  0  0  0
   58.8942   33.3138   54.0338 H   0  0  0  0  0  0  0  0  0  0  0  0
   56.8147   31.9559   54.2118 H   0  0  0  0  0  0  0  0  0  0  0  0
   56.4481   29.0499   53.3240 H   0  0  0  0  0  0  0  0  0  0  0  0
   54.3671   27.6879   53.4812 H   0  0  0  0  0  0  0  0  0  0  0  0
   52.2479   28.5138   52.4598 H   0  0  0  0  0  0  0  0  0  0  0  0
   51.6654   30.2690   50.1838 H   0  0  0  0  0  0  0  0  0  0  0  0
   51.0257   30.7166   51.8061 H   0  0  0  0  0  0  0  0  0  0  0  0
   52.7460   32.2840   50.1540 H   0  0  0  0  0  0  0  0  0  0  0  0
   54.2910   32.0804   51.1005 H   0  0  0  0  0  0  0  0  0  0  0  0
   56.9771   31.1519   49.9586 H   0  0  0  0  0  0  0  0  0  0  0  0
   59.0595   32.5061   49.7839 H   0  0  0  0  0  0  0  0  0  0  0  0
   61.6552   34.8378   46.9143 H   0  0  0  0  0  0  0  0  0  0  0  0
   62.1589   33.2045   46.3105 H   0  0  0  0  0  0  0  0  0  0  0  0
   57.2989   35.1141   45.3929 H   0  0  0  0  0  0  0  0  0  0  0  0
   56.3577   32.8122   45.4511 H   0  0  0  0  0  0  0  0  0  0  0  0
   57.7281   30.9214   46.2963 H   0  0  0  0  0  0  0  0  0  0  0  0
  1  2  1  0
  2  3  1  0
  3  4  2  0
  3  5  1  0
  5  6  1  0
  6  7  1  0
  7  8  2  0
  8  9  1  0
  9 10  2  0
 10 11  1  0
 11 12  2  0
 12 13  1  0
 13 14  2  0
 14 15  1  0
 15 16  1  0
 16 17  1  0
 15 18  2  0
 10 19  1  0
 19 20  2  0
  5 21  1  0
 21 22  2  0
 21 23  1  0
 23 24  1  0
 24 25  1  0
 25 26  2  0
 26 27  1  0
 26 28  1  0
 28 29  2  0
 29 30  1  0
 30 31  2  0
 31 32  1  0
 32 33  1  0
 32 34  1  0
 32 35  1  0
 23 36  1  0
 36 37  2  0
 36  2  1  0
 20  7  1  0
 31 25  1  0
 18 11  1  0
  1 38  1  0
  1 39  1  0
  1 40  1  0
  6 41  1  0
  6 42  1  0
  8 43  1  0
  9 44  1  0
 12 45  1  0
 13 46  1  0
 14 47  1  0
 16 48  1  0
 16 49  1  0
 17 50  1  0
 18 51  1  0
 19 52  1  0
 20 53  1  0
 24 54  1  0
 24 55  1  0
 28 56  1  0
 29 57  1  0
 30 58  1  0
M  END
>  <UniqueID>  (67) 
61

>  <SMILES>  (67) 
Cn1c(=O)n(Cc2ccc(-c3cccc(CO)c3)cc2)c(=O)n(Cc2c(F)cccc2C(F)(F)F)c1=O

>  <Energy>  (67) 
83.29617854384037

>  <Genealogy>  (67) 
Cn1c(=O)n(Cc2ccc(-c3cccc(CO)c3)cc2)c(=O)n(Cc2c(F)cccc2C(F)(F)F)c1=O (3D coordinates assigned)
Cn1c(=O)n(Cc2ccc(-c3cccc(CO)c3)cc2)c(=O)n(Cc2c(F)cccc2C(F)(F)F)c1=O (optimized conformer: 83.29617854384037 kcal/mol)

>  <smiles>  (67) 
Cn1c(=O)n(Cc2ccc(-c3cccc(CO)c3)cc2)c(=O)n(Cc2c(F)cccc2C(F)(F)F)c1=O

>  <score_type>  (67) 
oracle

>  <origin>  (67) 
adg

>  <m_score__min__energy>  (67) 
-8.9100000000000001

>  <m_primary>  (67) 
energy

$$$$
67:0
     RDKit          3D

 39 41  0  0  0  0  0  0  0  0999 V2000
   55.4090   29.1990   44.8680 N   0  0  0  0  0  0  0  0  0  0  0  0
   56.7640   29.6310   45.0100 C   0  0  0  0  0  0  0  0  0  0  0  0
   57.0480   30.8390   44.7900 O   0  0  0  0  0  0  0  0  0  0  0  0
   57.8410   28.6780   45.3640 C   0  0  0  0  0  0  0  0  0  0  0  0
   59.1800   29.0680   45.1770 C   0  0  0  0  0  0  0  0  0  0  0  0
   60.2230   28.1920   45.4840 C   0  0  0  0  0  0  0  0  0  0  0  0
   59.9440   26.9250   45.9930 C   0  0  0  0  0  0  0  0  0  0  0  0
   58.6220   26.5320   46.2010 C   0  0  0  0  0  0  0  0  0  0  0  0
   57.5580   27.3940   45.8840 C   0  0  0  0  0  0  0  0  0  0  0  0
   56.2030   27.0270   46.1910 N   0  0  0  0  0  0  0  0  0  0  0  0
   55.4810   25.8750   45.7300 C   0  0  0  0  0  0  0  0  0  0  0  0
   54.2280   25.9620   45.6290 O   0  0  0  0  0  0  0  0  0  0  0  0
   56.1640   24.6400   45.2590 C   0  0  0  0  0  0  0  0  0  0  0  0
   56.3700   24.4540   43.8790 C   0  0  0  0  0  0  0  0  0  0  0  0
   56.9120   23.2620   43.3930 C   0  0  0  0  0  0  0  0  0  0  0  0
   57.2270   22.2270   44.2720 C   0  0  0  0  0  0  0  0  0  0  0  0
   57.0120   22.3850   45.6420 C   0  0  0  0  0  0  0  0  0  0  0  0
   56.5090   23.5880   46.1500 C   0  0  0  0  0  0  0  0  0  0  0  0
   56.3290   23.7010   47.5680 N   0  0  0  0  0  0  0  0  0  0  0  0
   56.2970   22.5950   48.4780 C   0  0  0  0  0  0  0  0  0  0  0  0
   57.3310   21.8930   48.6200 O   0  0  0  0  0  0  0  0  0  0  0  0
   55.1040   22.2750   49.2800 C   0  0  0  0  0  0  0  0  0  0  0  0
   54.9840   21.2640   50.2160 C   0  0  0  0  0  0  0  0  0  0  0  0
   53.6900   21.3390   50.6820 C   0  0  0  0  0  0  0  0  0  0  0  0
   53.0980   22.3830   50.0020 C   0  0  0  0  0  0  0  0  0  0  0  0
   53.9630   22.9170   49.1710 O   0  0  0  0  0  0  0  0  0  0  0  0
   55.1620   28.1840   44.8740 H   0  0  0  0  0  0  0  0  0  0  0  0
   54.6560   29.8930   44.6670 H   0  0  0  0  0  0  0  0  0  0  0  0
   59.4068   30.0708   44.7859 H   0  0  0  0  0  0  0  0  0  0  0  0
   61.2661   28.5023   45.3239 H   0  0  0  0  0  0  0  0  0  0  0  0
   60.7667   26.2346   46.2308 H   0  0  0  0  0  0  0  0  0  0  0  0
   58.4097   25.5364   46.6178 H   0  0  0  0  0  0  0  0  0  0  0  0
   56.1012   25.2560   43.1758 H   0  0  0  0  0  0  0  0  0  0  0  0
   57.0906   23.1397   42.3145 H   0  0  0  0  0  0  0  0  0  0  0  0
   57.6451   21.2856   43.8859 H   0  0  0  0  0  0  0  0  0  0  0  0
   57.2400   21.5564   46.3286 H   0  0  0  0  0  0  0  0  0  0  0  0
   55.7606   20.5486   50.5243 H   0  0  0  0  0  0  0  0  0  0  0  0
   53.2230   20.6962   51.4427 H   0  0  0  0  0  0  0  0  0  0  0  0
   52.0587   22.7175   50.1357 H   0  0  0  0  0  0  0  0  0  0  0  0
  1  2  1  0
  2  3  2  0
  2  4  1  0
  4  5  2  0
  5  6  1  0
  6  7  2  0
  7  8  1  0
  8  9  2  0
  9 10  1  0
 10 11  1  0
 11 12  2  0
 11 13  1  0
 13 14  2  0
 14 15  1  0
 15 16  2  0
 16 17  1  0
 17 18  2  0
 18 19  1  0
 19 20  1  0
 20 21  2  0
 20 22  1  0
 22 23  2  0
 23 24  1  0
 24 25  2  0
 25 26  1  0
  9  4  1  0
 18 13  1  0
 26 22  1  0
  1 27  1  0
  1 28  1  0
  5 29  1  0
  6 30  1  0
  7 31  1  0
  8 32  1  0
 14 33  1  0
 15 34  1  0
 16 35  1  0
 17 36  1  0
 23 37  1  0
 24 38  1  0
 25 39  1  0
M  CHG  2  10  -1  19  -1
M  END
>  <UniqueID>  (68) 
62

>  <SMILES>  (68) 
NC(=O)c1ccccc1[N-]C(=O)c1ccccc1[N-]C(=O)c1ccco1

>  <Energy>  (68) 
86.48529133366115

>  <Genealogy>  (68) 
NC(=O)c1ccccc1[N-]C(=O)c1ccccc1[N-]C(=O)c1ccco1 (protonated)
NC(=O)c1ccccc1[N-]C(=O)c1ccccc1[N-]C(=O)c1ccco1 (3D coordinates assigned)
NC(=O)c1ccccc1[N-]C(=O)c1ccccc1[N-]C(=O)c1ccco1 (optimized conformer: 86.48529133366115 kcal/mol)

>  <smiles>  (68) 
NC(=O)c1ccccc1NC(=O)c1ccccc1NC(=O)c1ccco1

>  <score_type>  (68) 
oracle

>  <origin>  (68) 
adg

>  <m_score__min__energy>  (68) 
-11.4

>  <m_primary>  (68) 
energy

$$$$
68:0
     RDKit          3D

 49 51  0  0  0  0  0  0  0  0999 V2000
   55.9410   21.8090   47.3460 C   0  0  0  0  0  0  0  0  0  0  0  0
   57.0830   22.4990   46.8480 O   0  0  0  0  0  0  0  0  0  0  0  0
   57.0790   23.8360   46.4170 C   0  0  0  0  0  0  0  0  0  0  0  0
   55.9140   24.6220   46.4310 C   0  0  0  0  0  0  0  0  0  0  0  0
   55.9440   25.9500   45.9970 C   0  0  0  0  0  0  0  0  0  0  0  0
   54.7770   26.7030   46.0700 O   0  0  0  0  0  0  0  0  0  0  0  0
   57.1440   26.5120   45.5210 C   0  0  0  0  0  0  0  0  0  0  0  0
   57.2190   27.9120   45.0350 C   0  0  0  0  0  0  0  0  0  0  0  0
   56.1580   28.5880   44.9440 O   0  0  0  0  0  0  0  0  0  0  0  0
   58.5240   28.5460   44.6390 C   0  0  0  0  0  0  0  0  0  0  0  0
   59.0140   29.4150   45.7050 N   0  0  0  0  0  0  0  0  0  0  0  0
   58.3710   29.7230   46.8470 C   0  0  0  0  0  0  0  0  0  0  0  0
   59.1820   30.6160   47.5150 C   0  0  0  0  0  0  0  0  0  0  0  0
   58.8970   31.2970   48.8160 C   0  0  0  0  0  0  0  0  0  0  0  0
   58.5880   32.6750   48.6060 O   0  0  0  0  0  0  0  0  0  0  0  0
   58.5340   33.3150   47.3540 C   0  0  0  0  0  0  0  0  0  0  0  0
   57.4110   33.2080   46.5060 C   0  0  0  0  0  0  0  0  0  0  0  0
   57.3940   33.8620   45.2720 C   0  0  0  0  0  0  0  0  0  0  0  0
   58.4880   34.6250   44.8670 C   0  0  0  0  0  0  0  0  0  0  0  0
   59.6070   34.7370   45.6950 C   0  0  0  0  0  0  0  0  0  0  0  0
   59.6400   34.0840   46.9390 C   0  0  0  0  0  0  0  0  0  0  0  0
   60.8440   34.2160   47.8270 C   0  0  0  0  0  0  0  0  0  0  0  0
   60.2700   30.8320   46.7490 N   0  0  0  0  0  0  0  0  0  0  0  0
   60.1480   30.0970   45.6560 N   0  0  0  0  0  0  0  0  0  0  0  0
   58.3120   25.7290   45.5250 C   0  0  0  0  0  0  0  0  0  0  0  0
   58.2840   24.3930   45.9660 C   0  0  0  0  0  0  0  0  0  0  0  0
   59.4340   23.5860   45.9700 O   0  0  0  0  0  0  0  0  0  0  0  0
   59.6690   22.5080   45.0690 C   0  0  0  0  0  0  0  0  0  0  0  0
   55.9574   21.8189   48.4458 H   0  0  0  0  0  0  0  0  0  0  0  0
   55.0273   22.3063   46.9884 H   0  0  0  0  0  0  0  0  0  0  0  0
   55.9563   20.7689   46.9884 H   0  0  0  0  0  0  0  0  0  0  0  0
   54.9685   24.1872   46.7874 H   0  0  0  0  0  0  0  0  0  0  0  0
   59.2657   27.7571   44.4452 H   0  0  0  0  0  0  0  0  0  0  0  0
   58.3663   29.1488   43.7325 H   0  0  0  0  0  0  0  0  0  0  0  0
   57.3953   29.3396   47.1801 H   0  0  0  0  0  0  0  0  0  0  0  0
   58.0415   30.8048   49.3016 H   0  0  0  0  0  0  0  0  0  0  0  0
   59.7896   31.2276   49.4551 H   0  0  0  0  0  0  0  0  0  0  0  0
   56.5447   32.6065   46.8185 H   0  0  0  0  0  0  0  0  0  0  0  0
   56.5143   33.7747   44.6175 H   0  0  0  0  0  0  0  0  0  0  0  0
   58.4699   35.1392   43.8947 H   0  0  0  0  0  0  0  0  0  0  0  0
   60.4681   35.3402   45.3714 H   0  0  0  0  0  0  0  0  0  0  0  0
   60.5284   34.1814   48.8802 H   0  0  0  0  0  0  0  0  0  0  0  0
   61.5406   33.3888   47.6256 H   0  0  0  0  0  0  0  0  0  0  0  0
   61.3448   35.1744   47.6256 H   0  0  0  0  0  0  0  0  0  0  0  0
   61.0710   31.4690   46.9550 H   0  0  0  0  0  0  0  0  0  0  0  0
   59.2600   26.1666   45.1789 H   0  0  0  0  0  0  0  0  0  0  0  0
   59.8692   21.5896   45.6404 H   0  0  0  0  0  0  0  0  0  0  0  0
   58.7821   22.3597   44.4354 H   0  0  0  0  0  0  0  0  0  0  0  0
   60.5372   22.7423   44.4354 H   0  0  0  0  0  0  0  0  0  0  0  0
  1  2  1  0
  2  3  1  0
  3  4  2  0
  4  5  1  0
  5  6  1  0
  5  7  2  0
  7  8  1  0
  8  9  2  0
  8 10  1  0
 10 11  1  0
 11 12  1  0
 12 13  2  0
 13 14  1  0
 14 15  1  0
 15 16  1  0
 16 17  2  0
 17 18  1  0
 18 19  2  0
 19 20  1  0
 20 21  2  0
 21 22  1  0
 13 23  1  0
 23 24  2  0
  7 25  1  0
 25 26  2  0
 26 27  1  0
 27 28  1  0
 26  3  1  0
 24 11  1  0
 21 16  1  0
  1 29  1  0
  1 30  1  0
  1 31  1  0
  4 32  1  0
 10 33  1  0
 10 34  1  0
 12 35  1  0
 14 36  1  0
 14 37  1  0
 17 38  1  0
 18 39  1  0
 19 40  1  0
 20 41  1  0
 22 42  1  0
 22 43  1  0
 22 44  1  0
 23 45  1  0
 25 46  1  0
 28 47  1  0
 28 48  1  0
 28 49  1  0
M  CHG  2   6  -1  23   1
M  END
>  <UniqueID>  (69) 
63

>  <SMILES>  (69) 
COc1cc([O-])c(C(=O)Cn2cc(COc3ccccc3C)[nH+]n2)cc1OC

>  <Energy>  (69) 
88.1098824759301

>  <Genealogy>  (69) 
COc1cc([O-])c(C(=O)Cn2cc(COc3ccccc3C)[nH+]n2)cc1OC (protonated)
COc1cc([O-])c(C(=O)Cn2cc(COc3ccccc3C)[nH+]n2)cc1OC (3D coordinates assigned)
COc1cc([O-])c(C(=O)Cn2cc(COc3ccccc3C)[nH+]n2)cc1OC (optimized conformer: 88.1098824759301 kcal/mol)

>  <smiles>  (69) 
COc1cc(O)c(C(=O)Cn2cc(COc3ccccc3C)nn2)cc1OC

>  <score_type>  (69) 
oracle

>  <origin>  (69) 
adg

>  <m_score__min__energy>  (69) 
-10.31

>  <m_primary>  (69) 
energy

$$$$
69:0
     RDKit          3D

 47 49  0  0  0  0  0  0  0  0999 V2000
   55.7070   23.6680   47.3780 C   0  0  0  0  0  0  0  0  0  0  0  0
   56.0300   23.5410   45.9130 C   0  0  0  0  0  0  0  0  0  0  0  0
   56.0360   22.2670   45.3230 C   0  0  0  0  0  0  0  0  0  0  0  0
   56.3300   22.1130   43.9660 C   0  0  0  0  0  0  0  0  0  0  0  0
   56.3120   20.8420   43.3990 O   0  0  0  0  0  0  0  0  0  0  0  0
   56.6390   23.2360   43.1900 C   0  0  0  0  0  0  0  0  0  0  0  0
   56.6570   24.5050   43.7700 C   0  0  0  0  0  0  0  0  0  0  0  0
   56.3570   24.6720   45.1350 C   0  0  0  0  0  0  0  0  0  0  0  0
   56.3820   25.9690   45.7510 N   0  0  0  0  0  0  0  0  0  0  0  0
   57.8200   26.8420   46.1760 S   0  0  0  0  0  0  0  0  0  0  0  0
   57.8910   26.9780   47.6710 O   0  0  0  0  0  0  0  0  0  0  0  0
   59.0280   26.0870   45.6960 O   0  0  0  0  0  0  0  0  0  0  0  0
   57.7470   28.4480   45.4610 C   0  0  0  0  0  0  0  0  0  0  0  0
   58.7140   29.3990   45.8080 C   0  0  0  0  0  0  0  0  0  0  0  0
   58.6150   30.7090   45.3320 C   0  0  0  0  0  0  0  0  0  0  0  0
   57.5360   31.0870   44.5250 C   0  0  0  0  0  0  0  0  0  0  0  0
   57.4040   32.4640   44.1560 N   0  0  0  0  0  0  0  0  0  0  0  0
   57.4240   33.7850   45.2780 S   0  0  0  0  0  0  0  0  0  0  0  0
   56.3790   34.7810   44.8660 O   0  0  0  0  0  0  0  0  0  0  0  0
   57.1070   33.2880   46.6580 O   0  0  0  0  0  0  0  0  0  0  0  0
   59.0220   34.5920   45.2660 C   0  0  0  0  0  0  0  0  0  0  0  0
   59.8080   34.2290   46.4960 C   0  0  0  0  0  0  0  0  0  0  0  0
   60.9930   33.4810   46.3810 C   0  0  0  0  0  0  0  0  0  0  0  0
   61.7030   33.1060   47.5260 C   0  0  0  0  0  0  0  0  0  0  0  0
   61.2340   33.4680   48.7930 C   0  0  0  0  0  0  0  0  0  0  0  0
   60.0560   34.2100   48.9160 C   0  0  0  0  0  0  0  0  0  0  0  0
   59.3480   34.5940   47.7740 C   0  0  0  0  0  0  0  0  0  0  0  0
   56.5890   30.1210   44.1420 C   0  0  0  0  0  0  0  0  0  0  0  0
   56.6950   28.8090   44.6090 C   0  0  0  0  0  0  0  0  0  0  0  0
   56.5675   23.3297   47.9739 H   0  0  0  0  0  0  0  0  0  0  0  0
   55.4874   24.7194   47.6153 H   0  0  0  0  0  0  0  0  0  0  0  0
   54.8301   23.0477   47.6153 H   0  0  0  0  0  0  0  0  0  0  0  0
   55.8071   21.3820   45.9349 H   0  0  0  0  0  0  0  0  0  0  0  0
   57.0300   20.1570   43.6100 H   0  0  0  0  0  0  0  0  0  0  0  0
   56.8682   23.1180   42.1206 H   0  0  0  0  0  0  0  0  0  0  0  0
   56.9077   25.3821   43.1554 H   0  0  0  0  0  0  0  0  0  0  0  0
   59.5547   29.1140   46.4576 H   0  0  0  0  0  0  0  0  0  0  0  0
   59.3885   31.4463   45.5927 H   0  0  0  0  0  0  0  0  0  0  0  0
   59.5806   34.2743   44.3732 H   0  0  0  0  0  0  0  0  0  0  0  0
   58.8690   35.6812   45.2517 H   0  0  0  0  0  0  0  0  0  0  0  0
   61.3629   33.1897   45.3869 H   0  0  0  0  0  0  0  0  0  0  0  0
   62.6322   32.5252   47.4300 H   0  0  0  0  0  0  0  0  0  0  0  0
   61.7922   33.1688   49.6924 H   0  0  0  0  0  0  0  0  0  0  0  0
   59.6858   34.4920   49.9127 H   0  0  0  0  0  0  0  0  0  0  0  0
   58.4258   35.1850   47.8752 H   0  0  0  0  0  0  0  0  0  0  0  0
   55.7619   30.3994   43.4724 H   0  0  0  0  0  0  0  0  0  0  0  0
   55.9508   28.0573   44.3072 H   0  0  0  0  0  0  0  0  0  0  0  0
  1  2  1  0
  2  3  2  0
  3  4  1  0
  4  5  1  0
  4  6  2  0
  6  7  1  0
  7  8  2  0
  8  9  1  0
  9 10  1  0
 10 11  2  0
 10 12  2  0
 10 13  1  0
 13 14  2  0
 14 15  1  0
 15 16  2  0
 16 17  1  0
 17 18  1  0
 18 19  2  0
 18 20  2  0
 18 21  1  0
 21 22  1  0
 22 23  2  0
 23 24  1  0
 24 25  2  0
 25 26  1  0
 26 27  2  0
 16 28  1  0
 28 29  2  0
  8  2  1  0
 29 13  1  0
 27 22  1  0
  1 30  1  0
  1 31  1  0
  1 32  1  0
  3 33  1  0
  5 34  1  0
  6 35  1  0
  7 36  1  0
 14 37  1  0
 15 38  1  0
 21 39  1  0
 21 40  1  0
 23 41  1  0
 24 42  1  0
 25 43  1  0
 26 44  1  0
 27 45  1  0
 28 46  1  0
 29 47  1  0
M  CHG  2   9  -1  17  -1
M  END
>  <UniqueID>  (70) 
64

>  <SMILES>  (70) 
Cc1cc(O)ccc1[N-]S(=O)(=O)c1ccc([N-]S(=O)(=O)Cc2ccccc2)cc1

>  <Energy>  (70) 
47.777937467722644

>  <Genealogy>  (70) 
Cc1cc(O)ccc1[N-]S(=O)(=O)c1ccc([N-]S(=O)(=O)Cc2ccccc2)cc1 (protonated)
Cc1cc(O)ccc1[N-]S(=O)(=O)c1ccc([N-]S(=O)(=O)Cc2ccccc2)cc1 (3D coordinates assigned)
Cc1cc(O)ccc1[N-]S(=O)(=O)c1ccc([N-]S(=O)(=O)Cc2ccccc2)cc1 (optimized conformer: 47.777937467722644 kcal/mol)

>  <smiles>  (70) 
Cc1cc(O)ccc1NS(=O)(=O)c1ccc(NS(=O)(=O)Cc2ccccc2)cc1

>  <score_type>  (70) 
oracle

>  <origin>  (70) 
adg

>  <m_score__min__energy>  (70) 
-12.460000000000001

>  <m_primary>  (70) 
energy

$$$$
70:0
     RDKit          3D

 42 43  0  0  0  0  0  0  0  0999 V2000
   57.3930   29.4860   51.2580 O   0  0  0  0  0  0  0  0  0  0  0  0
   57.9550   29.6180   52.3800 C   0  0  0  0  0  0  0  0  0  0  0  0
   59.1630   30.4900   52.5070 C   0  0  0  0  0  0  0  0  0  0  0  0
   58.8620   31.6910   53.4040 C   0  0  0  0  0  0  0  0  0  0  0  0
   58.1070   33.0110   52.4680 S   0  0  0  0  0  0  0  0  0  0  0  0
   56.6290   32.7680   52.3400 O   0  0  0  0  0  0  0  0  0  0  0  0
   58.3220   34.3230   53.1700 O   0  0  0  0  0  0  0  0  0  0  0  0
   58.8370   33.0690   50.8680 C   0  0  0  0  0  0  0  0  0  0  0  0
   59.9560   33.8800   50.6320 C   0  0  0  0  0  0  0  0  0  0  0  0
   60.5250   33.9380   49.3560 C   0  0  0  0  0  0  0  0  0  0  0  0
   59.9750   33.1920   48.3080 C   0  0  0  0  0  0  0  0  0  0  0  0
   60.7520   33.2750   46.5640 Br  0  0  0  0  0  0  0  0  0  0  0  0
   58.8520   32.3880   48.5370 C   0  0  0  0  0  0  0  0  0  0  0  0
   58.2830   32.3280   49.8130 C   0  0  0  0  0  0  0  0  0  0  0  0
   57.4780   28.8990   53.5210 N   0  0  0  0  0  0  0  0  0  0  0  0
   56.1910   29.1560   54.1570 C   0  0  0  0  0  0  0  0  0  0  0  0
   55.0650   28.4550   53.3930 C   0  0  0  0  0  0  0  0  0  0  0  0
   54.0780   29.4620   52.8640 C   0  0  0  0  0  0  0  0  0  0  0  0
   54.5230   30.5590   52.1120 C   0  0  0  0  0  0  0  0  0  0  0  0
   53.6060   31.4770   51.5910 C   0  0  0  0  0  0  0  0  0  0  0  0
   52.2270   31.3080   51.8080 C   0  0  0  0  0  0  0  0  0  0  0  0
   51.2590   32.2800   51.2530 C   0  0  0  0  0  0  0  0  0  0  0  0
   50.6490   33.0800   52.0110 O   0  0  0  0  0  0  0  0  0  0  0  0
   51.0080   32.3230   49.8870 O   0  0  0  0  0  0  0  0  0  0  0  0
   51.7850   30.2000   52.5520 C   0  0  0  0  0  0  0  0  0  0  0  0
   52.7030   29.2830   53.0720 C   0  0  0  0  0  0  0  0  0  0  0  0
   59.9861   29.9071   52.9460 H   0  0  0  0  0  0  0  0  0  0  0  0
   59.4473   30.8531   51.5083 H   0  0  0  0  0  0  0  0  0  0  0  0
   58.1758   31.3793   54.2052 H   0  0  0  0  0  0  0  0  0  0  0  0
   59.8076   32.0579   53.8296 H   0  0  0  0  0  0  0  0  0  0  0  0
   60.3874   34.4721   51.4526 H   0  0  0  0  0  0  0  0  0  0  0  0
   61.4063   34.5711   49.1760 H   0  0  0  0  0  0  0  0  0  0  0  0
   58.4171   31.8033   47.7130 H   0  0  0  0  0  0  0  0  0  0  0  0
   57.3987   31.6982   49.9902 H   0  0  0  0  0  0  0  0  0  0  0  0
   56.2163   28.7793   55.1902 H   0  0  0  0  0  0  0  0  0  0  0  0
   56.0025   30.2397   54.1525 H   0  0  0  0  0  0  0  0  0  0  0  0
   55.4947   27.8928   52.5508 H   0  0  0  0  0  0  0  0  0  0  0  0
   54.5424   27.7718   54.0787 H   0  0  0  0  0  0  0  0  0  0  0  0
   55.5991   30.6979   51.9311 H   0  0  0  0  0  0  0  0  0  0  0  0
   53.9658   32.3372   51.0074 H   0  0  0  0  0  0  0  0  0  0  0  0
   50.7088   30.0536   52.7262 H   0  0  0  0  0  0  0  0  0  0  0  0
   52.3448   28.4166   53.6473 H   0  0  0  0  0  0  0  0  0  0  0  0
  1  2  2  0
  2  3  1  0
  3  4  1  0
  4  5  1  0
  5  6  2  0
  5  7  2  0
  5  8  1  0
  8  9  2  0
  9 10  1  0
 10 11  2  0
 11 12  1  0
 11 13  1  0
 13 14  2  0
  2 15  1  0
 15 16  1  0
 16 17  1  0
 17 18  1  0
 18 19  2  0
 19 20  1  0
 20 21  2  0
 21 22  1  0
 22 23  2  0
 22 24  1  0
 21 25  1  0
 25 26  2  0
 14  8  1  0
 26 18  1  0
  3 27  1  0
  3 28  1  0
  4 29  1  0
  4 30  1  0
  9 31  1  0
 10 32  1  0
 13 33  1  0
 14 34  1  0
 16 35  1  0
 16 36  1  0
 17 37  1  0
 17 38  1  0
 19 39  1  0
 20 40  1  0
 25 41  1  0
 26 42  1  0
M  CHG  2  15  -1  24  -1
M  END
>  <UniqueID>  (71) 
65

>  <SMILES>  (71) 
O=C(CCS(=O)(=O)c1ccc(Br)cc1)[N-]CCc1ccc(C(=O)[O-])cc1

>  <Energy>  (71) 
32.324655961054575

>  <Genealogy>  (71) 
O=C(CCS(=O)(=O)c1ccc(Br)cc1)[N-]CCc1ccc(C(=O)[O-])cc1 (protonated)
O=C(CCS(=O)(=O)c1ccc(Br)cc1)[N-]CCc1ccc(C(=O)[O-])cc1 (3D coordinates assigned)
O=C(CCS(=O)(=O)c1ccc(Br)cc1)[N-]CCc1ccc(C(=O)[O-])cc1 (optimized conformer: 32.324655961054575 kcal/mol)

>  <smiles>  (71) 
O=C(CCS(=O)(=O)c1ccc(Br)cc1)NCCc1ccc(C(=O)O)cc1

>  <score_type>  (71) 
oracle

>  <origin>  (71) 
adg

>  <m_score__min__energy>  (71) 
-12.9

>  <m_primary>  (71) 
energy

$$$$
71:0
     RDKit          3D

 50 53  0  0  0  0  0  0  0  0999 V2000
   58.9230   33.7630   46.7100 H   0  0  0  0  0  0  0  0  0  0  0  0
   58.9480   34.6990   46.3800 O   0  0  0  0  0  0  0  0  0  0  0  0
   58.8170   34.6230   44.9870 C   0  0  0  0  0  0  0  0  0  0  0  0
   59.7722   34.2975   44.5492 H   0  0  0  0  0  0  0  0  0  0  0  0
   58.5444   35.6148   44.5970 H   0  0  0  0  0  0  0  0  0  0  0  0
   57.7190   33.6180   44.6130 C   0  0  2  0  0  0  0  0  0  0  0  0
   56.7981   34.1792   44.3959 H   0  0  0  0  0  0  0  0  0  0  0  0
   57.4990   32.6930   45.7260 N   0  0  0  0  0  0  0  0  0  0  0  0
   58.2000   31.6210   45.9580 C   0  0  0  0  0  0  0  0  0  0  0  0
   59.4310   31.6830   46.5450 N   0  0  0  0  0  0  0  0  0  0  0  0
   60.1470   30.5380   46.7890 C   0  0  0  0  0  0  0  0  0  0  0  0
   61.3080   30.5880   47.3710 N   0  0  0  0  0  0  0  0  0  0  0  0
   61.5420   31.0210   48.7490 C   0  0  0  0  0  0  0  0  0  0  0  0
   61.7774   32.0955   48.7537 H   0  0  0  0  0  0  0  0  0  0  0  0
   62.3812   30.4416   49.1614 H   0  0  0  0  0  0  0  0  0  0  0  0
   60.3240   30.7790   49.6040 C   0  0  0  0  0  0  0  0  0  0  0  0
   59.3020   31.7410   49.6590 C   0  0  0  0  0  0  0  0  0  0  0  0
   59.3984   32.6742   49.0847 H   0  0  0  0  0  0  0  0  0  0  0  0
   58.1630   31.5200   50.4390 C   0  0  0  0  0  0  0  0  0  0  0  0
   57.3670   32.2784   50.4724 H   0  0  0  0  0  0  0  0  0  0  0  0
   58.0300   30.3330   51.1810 C   0  0  0  0  0  0  0  0  0  0  0  0
   56.9110   30.0710   51.9870 O   0  0  0  0  0  0  0  0  0  0  0  0
   55.9240   31.0390   52.3300 C   0  0  0  0  0  0  0  0  0  0  0  0
   55.8482   31.1133   53.4249 H   0  0  0  0  0  0  0  0  0  0  0  0
   56.2097   32.0168   51.9150 H   0  0  0  0  0  0  0  0  0  0  0  0
   54.9519   30.7344   51.9150 H   0  0  0  0  0  0  0  0  0  0  0  0
   59.0440   29.3710   51.1200 C   0  0  0  0  0  0  0  0  0  0  0  0
   58.9449   28.4377   51.6937 H   0  0  0  0  0  0  0  0  0  0  0  0
   60.1830   29.5850   50.3360 C   0  0  0  0  0  0  0  0  0  0  0  0
   61.1690   28.6040   50.2860 O   0  0  0  0  0  0  0  0  0  0  0  0
   59.6360   29.3250   46.4340 N   0  0  0  0  0  0  0  0  0  0  0  0
   58.4130   29.2890   45.8520 C   0  0  0  0  0  0  0  0  0  0  0  0
   57.6930   28.1970   45.4170 C   0  0  0  0  0  0  0  0  0  0  0  0
   58.0820   26.9120   45.4730 C   0  0  0  0  0  0  0  0  0  0  0  0
   58.9968   26.6352   44.9285 H   0  0  0  0  0  0  0  0  0  0  0  0
   57.3770   25.8410   46.2090 C   0  0  0  0  0  0  0  0  0  0  0  0
   57.9490   24.7560   46.7620 N   0  0  0  0  0  0  0  0  0  0  0  0
   56.9030   24.0810   47.2870 C   0  0  0  0  0  0  0  0  0  0  0  0
   57.0400   22.9930   47.9030 O   0  0  0  0  0  0  0  0  0  0  0  0
   55.7010   24.6650   47.1000 N   0  0  0  0  0  0  0  0  0  0  0  0
   56.0190   25.7750   46.4140 C   0  0  0  0  0  0  0  0  0  0  0  0
   55.0850   26.7120   45.9890 O   0  0  0  0  0  0  0  0  0  0  0  0
   56.5160   28.7640   44.9160 C   0  0  0  0  0  0  0  0  0  0  0  0
   55.6812   28.2004   44.4738 H   0  0  0  0  0  0  0  0  0  0  0  0
   56.5580   30.1130   45.0570 N   0  0  0  0  0  0  0  0  0  0  0  0
   57.7150   30.4010   45.6280 N   0  0  0  0  0  0  0  0  0  0  0  0
   58.1180   32.8130   43.3750 C   0  0  0  0  0  0  0  0  0  0  0  0
   58.5864   31.8680   43.6874 H   0  0  0  0  0  0  0  0  0  0  0  0
   57.2225   32.5972   42.7737 H   0  0  0  0  0  0  0  0  0  0  0  0
   58.8320   33.3949   42.7737 H   0  0  0  0  0  0  0  0  0  0  0  0
  1  2  1  0
  2  3  1  0
  3  4  1  0
  3  5  1  0
  3  6  1  0
  6  7  1  6
  6  8  1  0
  8  9  2  3
  9 10  1  0
 10 11  1  0
 11 12  2  0
 12 13  1  0
 13 14  1  0
 13 15  1  0
 13 16  1  0
 16 17  2  0
 17 18  1  0
 17 19  1  0
 19 20  1  0
 19 21  2  0
 21 22  1  0
 22 23  1  0
 23 24  1  0
 23 25  1  0
 23 26  1  0
 21 27  1  0
 27 28  1  0
 27 29  2  0
 29 30  1  0
 11 31  1  0
 31 32  2  0
 32 33  1  0
 33 34  2  3
 34 35  1  0
 34 36  1  0
 36 37  1  0
 37 38  1  0
 38 39  2  0
 38 40  1  0
 40 41  1  0
 41 42  1  0
 33 43  1  0
 43 44  1  0
 43 45  2  0
 45 46  1  0
  6 47  1  0
 47 48  1  0
 47 49  1  0
 47 50  1  0
 46  9  1  0
 29 16  1  0
 46 32  1  0
 41 36  2  0
M  CHG  5  10  -1  30  -1  37  -1  40  -1  42  -1
M  END
>  <UniqueID>  (72) 
66

>  <SMILES>  (72) 
COc1ccc(C/N=c2/nc3c(=Cc4[n-]c(=O)[n-]c4[O-])cnn3c(=N[C@H](C)CO)[n-]2)c([O-])c1

>  <Energy>  (72) 
117.69615827837313

>  <Genealogy>  (72) 
COc1ccc(CN=c2nc3c(=Cc4[n-]c(=O)[n-]c4[O-])cnn3c(=NC(C)CO)[n-]2)c([O-])c1 (protonated)
COc1ccc(CN=c2nc3c(=Cc4[n-]c(=O)[n-]c4[O-])cnn3c(=N[C@H](C)CO)[n-]2)c([O-])c1 (chirality)
COc1ccc(C/N=c2/nc3c(=Cc4[n-]c(=O)[n-]c4[O-])cnn3c(=N[C@H](C)CO)[n-]2)c([O-])c1 (cis-trans isomerization)
COc1ccc(C/N=c2/nc3c(=Cc4[n-]c(=O)[n-]c4[O-])cnn3c(=N[C@H](C)CO)[n-]2)c([O-])c1 (3D coordinates assigned)
COc1ccc(C/N=c2/nc3c(=Cc4[n-]c(=O)[n-]c4[O-])cnn3c(=N[C@H](C)CO)[n-]2)c([O-])c1 (optimized conformer: 117.69615827837313 kcal/mol)

>  <smiles>  (72) 
COc1ccc(CN=c2nc3c(=Cc4[nH]c(=O)[nH]c4O)cnn3c(=NC(C)CO)[nH]2)c(O)c1

>  <score_type>  (72) 
oracle

>  <origin>  (72) 
adg

>  <m_score__min__energy>  (72) 
-17.859999999999999

>  <m_primary>  (72) 
energy

$$$$
72:0
     RDKit          3D

 48 52  0  0  0  0  0  0  0  0999 V2000
   67.1400   32.6750   53.3000 H   0  0  0  0  0  0  0  0  0  0  0  0
   67.4550   31.7860   52.8520 N   0  0  0  0  0  0  0  0  0  0  0  0
   67.1660   31.9430   51.1560 S   0  0  0  0  0  0  0  0  0  0  0  0
   68.2520   32.7790   50.5380 O   0  0  0  0  0  0  0  0  0  0  0  0
   67.1780   30.5840   50.5150 O   0  0  0  0  0  0  0  0  0  0  0  0
   65.6030   32.7100   50.8980 C   0  0  0  0  0  0  0  0  0  0  0  0
   65.3410   33.9770   51.4370 C   0  0  0  0  0  0  0  0  0  0  0  0
   66.1208   34.5024   52.0078 H   0  0  0  0  0  0  0  0  0  0  0  0
   64.0920   34.5740   51.2510 C   0  0  0  0  0  0  0  0  0  0  0  0
   63.8893   35.5672   51.6783 H   0  0  0  0  0  0  0  0  0  0  0  0
   63.0990   33.9120   50.5230 C   0  0  0  0  0  0  0  0  0  0  0  0
   62.1136   34.3820   50.3884 H   0  0  0  0  0  0  0  0  0  0  0  0
   63.3540   32.6480   49.9620 C   0  0  0  0  0  0  0  0  0  0  0  0
   62.3410   31.9310   49.2370 N   0  0  0  0  0  0  0  0  0  0  0  0
   62.2970   30.8990   49.3840 H   0  0  0  0  0  0  0  0  0  0  0  0
   61.4490   32.5450   48.2850 C   0  0  0  0  0  0  0  0  0  0  0  0
   61.5890   33.7620   47.9860 O   0  0  0  0  0  0  0  0  0  0  0  0
   60.3650   31.7690   47.6360 C   0  0  0  0  0  0  0  0  0  0  0  0
   59.5590   32.3840   46.6620 C   0  0  0  0  0  0  0  0  0  0  0  0
   59.7393   33.4351   46.3926 H   0  0  0  0  0  0  0  0  0  0  0  0
   58.5320   31.6770   46.0320 C   0  0  0  0  0  0  0  0  0  0  0  0
   57.9060   32.1750   45.2770 H   0  0  0  0  0  0  0  0  0  0  0  0
   58.2970   30.3330   46.3600 C   0  0  0  0  0  0  0  0  0  0  0  0
   57.2740   29.5770   45.7490 C   0  0  0  0  0  0  0  0  0  0  0  0
   56.5160   30.0860   44.8790 O   0  0  0  0  0  0  0  0  0  0  0  0
   57.1170   28.2780   46.1180 N   0  0  0  0  0  0  0  0  0  0  0  0
   56.1970   27.4570   45.6170 N   0  0  0  0  0  0  0  0  0  0  0  0
   56.2660   26.2210   46.1700 C   0  0  0  0  0  0  0  0  0  0  0  0
   55.5050   25.2230   45.8310 N   0  0  0  0  0  0  0  0  0  0  0  0
   55.9040   24.0490   45.1050 C   0  0  0  0  0  0  0  0  0  0  0  0
   55.8630   22.8100   45.7580 C   0  0  0  0  0  0  0  0  0  0  0  0
   55.5519   22.7579   46.8118 H   0  0  0  0  0  0  0  0  0  0  0  0
   56.2150   21.6390   45.0790 C   0  0  0  0  0  0  0  0  0  0  0  0
   56.1942   20.6725   45.6038 H   0  0  0  0  0  0  0  0  0  0  0  0
   56.5930   21.6950   43.7350 C   0  0  0  0  0  0  0  0  0  0  0  0
   56.8785   20.7746   43.2046 H   0  0  0  0  0  0  0  0  0  0  0  0
   56.6080   22.9220   43.0650 C   0  0  0  0  0  0  0  0  0  0  0  0
   56.8971   22.9653   42.0046 H   0  0  0  0  0  0  0  0  0  0  0  0
   56.2560   24.0940   43.7410 C   0  0  0  0  0  0  0  0  0  0  0  0
   56.2538   25.0552   43.2061 H   0  0  0  0  0  0  0  0  0  0  0  0
   57.5150   26.0930   47.3090 S   0  0  0  0  0  0  0  0  0  0  0  0
   57.9150   27.7050   47.0440 C   0  0  0  0  0  0  0  0  0  0  0  0
   58.9090   28.3910   47.6540 N   0  0  0  0  0  0  0  0  0  0  0  0
   59.1150   29.6990   47.3320 C   0  0  0  0  0  0  0  0  0  0  0  0
   60.1410   30.4180   47.9570 C   0  0  0  0  0  0  0  0  0  0  0  0
   60.7771   29.9223   48.7051 H   0  0  0  0  0  0  0  0  0  0  0  0
   64.6030   32.0440   50.1760 C   0  0  0  0  0  0  0  0  0  0  0  0
   64.7987   31.0392   49.7735 H   0  0  0  0  0  0  0  0  0  0  0  0
  1  2  1  0
  2  3  1  0
  3  4  2  0
  3  5  2  0
  3  6  1  0
  6  7  2  0
  7  8  1  0
  7  9  1  0
  9 10  1  0
  9 11  2  0
 11 12  1  0
 11 13  1  0
 13 14  1  0
 14 15  1  0
 14 16  1  0
 16 17  2  0
 16 18  1  0
 18 19  2  0
 19 20  1  0
 19 21  1  0
 21 22  1  0
 21 23  2  0
 23 24  1  0
 24 25  2  0
 24 26  1  0
 26 27  1  0
 27 28  1  0
 28 29  2  0
 29 30  1  0
 30 31  2  0
 31 32  1  0
 31 33  1  0
 33 34  1  0
 33 35  2  0
 35 36  1  0
 35 37  1  0
 37 38  1  0
 37 39  2  0
 39 40  1  0
 28 41  1  0
 41 42  1  0
 42 43  2  0
 43 44  1  0
 44 45  2  0
 45 46  1  0
 13 47  2  0
 47 48  1  0
 47  6  1  0
 45 18  1  0
 44 23  1  0
 42 26  1  0
 39 30  1  0
M  CHG  2   2  -1  27  -1
M  END
>  <UniqueID>  (73) 
67

>  <SMILES>  (73) 
[NH-]S(=O)(=O)c1cccc(NC(=O)c2ccc3c(=O)n4[n-]/c(=N\c5ccccc5)sc4nc3c2)c1

>  <Energy>  (73) 
109.84236484433201

>  <Genealogy>  (73) 
[NH-]S(=O)(=O)c1cccc(NC(=O)c2ccc3c(=O)n4[n-]c(=Nc5ccccc5)sc4nc3c2)c1 (protonated)
[NH-]S(=O)(=O)c1cccc(NC(=O)c2ccc3c(=O)n4[n-]/c(=N\c5ccccc5)sc4nc3c2)c1 (cis-trans isomerization)
[NH-]S(=O)(=O)c1cccc(NC(=O)c2ccc3c(=O)n4[n-]/c(=N\c5ccccc5)sc4nc3c2)c1 (3D coordinates assigned)
[NH-]S(=O)(=O)c1cccc(NC(=O)c2ccc3c(=O)n4[n-]/c(=N\c5ccccc5)sc4nc3c2)c1 (optimized conformer: 109.84236484433201 kcal/mol)

>  <smiles>  (73) 
NS(=O)(=O)c1cccc(NC(=O)c2ccc3c(=O)n4[nH]c(=Nc5ccccc5)sc4nc3c2)c1

>  <score_type>  (73) 
oracle

>  <origin>  (73) 
adg

>  <m_score__min__energy>  (73) 
-10.94

>  <m_primary>  (73) 
energy

$$$$
73:0
     RDKit          3D

 43 46  0  0  0  0  0  0  0  0999 V2000
   50.9743   33.0986   53.7216 H   0  0  0  0  0  0  0  0  0  0  0  0
   51.1900   32.3950   52.9040 C   0  0  0  0  0  0  0  0  0  0  0  0
   51.0310   32.7860   51.6160 N   0  0  0  0  0  0  0  0  0  0  0  0
   51.2940   31.9470   50.5800 C   0  0  0  0  0  0  0  0  0  0  0  0
   51.1585   32.2991   49.5467 H   0  0  0  0  0  0  0  0  0  0  0  0
   51.7360   30.6380   50.8140 C   0  0  0  0  0  0  0  0  0  0  0  0
   52.1630   29.6990   49.3850 Cl  0  0  0  0  0  0  0  0  0  0  0  0
   51.8850   30.1940   52.1600 C   0  0  0  0  0  0  0  0  0  0  0  0
   52.2560   28.9910   52.5100 N   0  0  0  0  0  0  0  0  0  0  0  0
   53.4340   28.5820   53.2120 C   0  0  0  0  0  0  0  0  0  0  0  0
   53.3400   27.6640   54.0720 O   0  0  0  0  0  0  0  0  0  0  0  0
   54.7620   29.1610   52.8840 C   0  0  0  0  0  0  0  0  0  0  0  0
   55.9430   28.5860   53.3860 C   0  0  0  0  0  0  0  0  0  0  0  0
   55.8845   27.7025   54.0387 H   0  0  0  0  0  0  0  0  0  0  0  0
   57.1900   29.1270   53.0630 C   0  0  0  0  0  0  0  0  0  0  0  0
   58.1050   28.6717   53.4697 H   0  0  0  0  0  0  0  0  0  0  0  0
   57.2830   30.2490   52.2220 C   0  0  0  0  0  0  0  0  0  0  0  0
   58.5530   30.8380   51.8920 N   0  0  0  0  0  0  0  0  0  0  0  0
   59.4100   30.2640   52.0610 H   0  0  0  0  0  0  0  0  0  0  0  0
   58.7190   32.2010   51.4660 C   0  0  0  0  0  0  0  0  0  0  0  0
   57.7840   33.0310   51.6330 O   0  0  0  0  0  0  0  0  0  0  0  0
   59.9950   32.6440   50.8640 C   0  0  0  0  0  0  0  0  0  0  0  0
   60.1330   32.6550   49.5090 N   0  0  0  0  0  0  0  0  0  0  0  0
   61.2800   33.0560   48.9000 C   0  0  0  0  0  0  0  0  0  0  0  0
   61.3750   33.0480   47.5030 C   0  0  0  0  0  0  0  0  0  0  0  0
   60.5200   32.7172   46.8951 H   0  0  0  0  0  0  0  0  0  0  0  0
   62.5580   33.4610   46.8810 C   0  0  0  0  0  0  0  0  0  0  0  0
   62.6313   33.4547   45.7835 H   0  0  0  0  0  0  0  0  0  0  0  0
   63.6480   33.8820   47.6500 C   0  0  0  0  0  0  0  0  0  0  0  0
   64.5756   34.2049   47.1548 H   0  0  0  0  0  0  0  0  0  0  0  0
   63.5630   33.8940   49.0470 C   0  0  0  0  0  0  0  0  0  0  0  0
   64.4217   34.2262   49.6489 H   0  0  0  0  0  0  0  0  0  0  0  0
   62.3790   33.4810   49.6780 C   0  0  0  0  0  0  0  0  0  0  0  0
   62.2610   33.4800   51.0730 C   0  0  0  0  0  0  0  0  0  0  0  0
   63.1051   33.8069   51.6980 H   0  0  0  0  0  0  0  0  0  0  0  0
   61.0690   33.0630   51.6690 C   0  0  0  0  0  0  0  0  0  0  0  0
   60.9706   33.0623   52.7646 H   0  0  0  0  0  0  0  0  0  0  0  0
   56.1060   30.8410   51.7440 C   0  0  0  0  0  0  0  0  0  0  0  0
   56.1648   31.7384   51.1105 H   0  0  0  0  0  0  0  0  0  0  0  0
   54.8580   30.3000   52.0660 C   0  0  0  0  0  0  0  0  0  0  0  0
   53.9431   30.7697   51.6758 H   0  0  0  0  0  0  0  0  0  0  0  0
   51.6260   31.1040   53.1950 C   0  0  0  0  0  0  0  0  0  0  0  0
   51.7677   30.7971   54.2418 H   0  0  0  0  0  0  0  0  0  0  0  0
  1  2  1  0
  2  3  1  0
  3  4  1  0
  4  5  1  0
  4  6  2  0
  6  7  1  0
  6  8  1  0
  8  9  2  0
  9 10  1  0
 10 11  2  0
 10 12  1  0
 12 13  2  0
 13 14  1  0
 13 15  1  0
 15 16  1  0
 15 17  2  0
 17 18  1  0
 18 19  1  0
 18 20  1  0
 20 21  2  0
 20 22  1  0
 22 23  2  0
 23 24  1  0
 24 25  2  0
 25 26  1  0
 25 27  1  0
 27 28  1  0
 27 29  2  0
 29 30  1  0
 29 31  1  0
 31 32  1  0
 31 33  2  0
 33 34  1  0
 34 35  1  0
 34 36  2  0
 36 37  1  0
 17 38  1  0
 38 39  1  0
 38 40  2  0
 40 41  1  0
  8 42  1  0
 42 43  1  0
 42  2  2  0
 40 12  1  0
 36 22  1  0
 33 24  1  0
M  CHG  1   3  -1
M  END
>  <UniqueID>  (74) 
68

>  <SMILES>  (74) 
O=C(/N=c1/cc[n-]cc1Cl)c1ccc(NC(=O)c2ccc3ccccc3n2)cc1

>  <Energy>  (74) 
72.99256660135599

>  <Genealogy>  (74) 
O=C(N=c1cc[n-]cc1Cl)c1ccc(NC(=O)c2ccc3ccccc3n2)cc1 (protonated)
O=C(/N=c1/cc[n-]cc1Cl)c1ccc(NC(=O)c2ccc3ccccc3n2)cc1 (cis-trans isomerization)
O=C(/N=c1/cc[n-]cc1Cl)c1ccc(NC(=O)c2ccc3ccccc3n2)cc1 (3D coordinates assigned)
O=C(/N=c1/cc[n-]cc1Cl)c1ccc(NC(=O)c2ccc3ccccc3n2)cc1 (optimized conformer: 72.99256660135599 kcal/mol)

>  <smiles>  (74) 
O=C(N=c1cc[nH]cc1Cl)c1ccc(NC(=O)c2ccc3ccccc3n2)cc1

>  <score_type>  (74) 
oracle

>  <origin>  (74) 
adg

>  <m_score__min__energy>  (74) 
-10.68

>  <m_primary>  (74) 
energy

$$$$
74:0
     RDKit          3D

 72 75  0  0  0  0  0  0  0  0999 V2000
   65.0850   34.6410   51.8290 C   0  0  0  0  0  0  0  0  0  0  0  0
   64.9580   33.1540   51.6380 C   0  0  0  0  0  0  0  0  0  0  0  0
   66.0680   32.4220   51.1780 C   0  0  0  0  0  0  0  0  0  0  0  0
   65.9770   31.0330   50.9840 C   0  0  0  0  0  0  0  0  0  0  0  0
   67.1020   30.2500   50.5630 N   0  0  0  0  0  0  0  0  0  0  0  0
   67.5060   28.9990   51.1240 C   0  0  0  0  0  0  0  0  0  0  0  0
   67.0330   28.6490   52.2400 O   0  0  0  0  0  0  0  0  0  0  0  0
   68.3700   28.1520   50.4200 O   0  0  0  0  0  0  0  0  0  0  0  0
   67.9390   26.9600   49.7630 C   0  0  0  0  0  0  0  0  0  0  0  0
   66.7340   26.3600   50.4930 C   0  0  0  0  0  0  0  0  0  0  0  0
   69.0970   25.9670   49.7320 C   0  0  0  0  0  0  0  0  0  0  0  0
   64.7770   30.3790   51.2770 C   0  0  0  0  0  0  0  0  0  0  0  0
   63.6640   31.0990   51.7070 C   0  0  0  0  0  0  0  0  0  0  0  0
   63.7370   32.4870   51.8700 C   0  0  0  0  0  0  0  0  0  0  0  0
   62.5800   33.2000   52.3160 N   0  0  0  0  0  0  0  0  0  0  0  0
   61.0620   33.0450   51.4980 S   0  0  0  0  0  0  0  0  0  0  0  0
   60.4340   31.7320   51.8700 O   0  0  0  0  0  0  0  0  0  0  0  0
   60.1700   34.1640   51.9600 O   0  0  0  0  0  0  0  0  0  0  0  0
   61.3040   33.1050   49.7420 C   0  0  0  0  0  0  0  0  0  0  0  0
   62.5920   33.3970   49.2710 C   0  0  0  0  0  0  0  0  0  0  0  0
   62.8290   33.5750   47.9130 C   0  0  0  0  0  0  0  0  0  0  0  0
   61.7800   33.4780   47.0020 C   0  0  0  0  0  0  0  0  0  0  0  0
   60.4830   33.1530   47.4340 C   0  0  0  0  0  0  0  0  0  0  0  0
   59.3870   33.1780   46.4310 C   0  0  0  0  0  0  0  0  0  0  0  0
   59.3080   34.2210   45.4950 C   0  0  0  0  0  0  0  0  0  0  0  0
   58.3250   34.2060   44.5040 C   0  0  0  0  0  0  0  0  0  0  0  0
   57.4330   33.1350   44.4160 C   0  0  0  0  0  0  0  0  0  0  0  0
   57.5150   32.0690   45.3280 C   0  0  0  0  0  0  0  0  0  0  0  0
   56.6440   30.9320   45.2430 N   0  0  0  0  0  0  0  0  0  0  0  0
   56.4360   29.9510   43.8280 S   0  0  0  0  0  0  0  0  0  0  0  0
   55.0480   29.3680   43.8080 O   0  0  0  0  0  0  0  0  0  0  0  0
   56.6590   30.7880   42.5970 O   0  0  0  0  0  0  0  0  0  0  0  0
   57.6370   28.6300   43.8650 C   0  0  0  0  0  0  0  0  0  0  0  0
   58.5510   28.7790   45.0500 C   0  0  0  0  0  0  0  0  0  0  0  0
   59.8560   29.2760   44.8780 C   0  0  0  0  0  0  0  0  0  0  0  0
   60.7190   29.3870   45.9730 C   0  0  0  0  0  0  0  0  0  0  0  0
   60.2890   28.9990   47.2440 C   0  0  0  0  0  0  0  0  0  0  0  0
   58.9980   28.4910   47.4220 C   0  0  0  0  0  0  0  0  0  0  0  0
   58.1320   28.3750   46.3290 C   0  0  0  0  0  0  0  0  0  0  0  0
   58.4810   32.1060   46.3420 C   0  0  0  0  0  0  0  0  0  0  0  0
   60.2510   32.8890   48.8120 C   0  0  0  0  0  0  0  0  0  0  0  0
   58.9110   32.3640   49.2750 C   0  0  0  0  0  0  0  0  0  0  0  0
   65.1047   34.8722   52.9042 H   0  0  0  0  0  0  0  0  0  0  0  0
   66.0164   34.9925   51.3612 H   0  0  0  0  0  0  0  0  0  0  0  0
   64.2267   35.1454   51.3612 H   0  0  0  0  0  0  0  0  0  0  0  0
   67.0149   32.9411   50.9685 H   0  0  0  0  0  0  0  0  0  0  0  0
   67.6312   27.1934   48.7331 H   0  0  0  0  0  0  0  0  0  0  0  0
   66.8880   26.4367   51.5795 H   0  0  0  0  0  0  0  0  0  0  0  0
   65.8239   26.9101   50.2120 H   0  0  0  0  0  0  0  0  0  0  0  0
   66.6245   25.3022   50.2120 H   0  0  0  0  0  0  0  0  0  0  0  0
   69.3913   25.7147   50.7614 H   0  0  0  0  0  0  0  0  0  0  0  0
   68.7826   25.0534   49.2061 H   0  0  0  0  0  0  0  0  0  0  0  0
   69.9519   26.4170   49.2061 H   0  0  0  0  0  0  0  0  0  0  0  0
   64.7105   29.2865   51.1672 H   0  0  0  0  0  0  0  0  0  0  0  0
   62.7218   30.5728   51.9197 H   0  0  0  0  0  0  0  0  0  0  0  0
   63.4245   33.4862   49.9844 H   0  0  0  0  0  0  0  0  0  0  0  0
   63.8468   33.7929   47.5572 H   0  0  0  0  0  0  0  0  0  0  0  0
   61.9688   33.6577   45.9333 H   0  0  0  0  0  0  0  0  0  0  0  0
   60.0243   35.0544   45.5426 H   0  0  0  0  0  0  0  0  0  0  0  0
   58.2528   35.0400   43.7904 H   0  0  0  0  0  0  0  0  0  0  0  0
   56.6635   33.1258   43.6300 H   0  0  0  0  0  0  0  0  0  0  0  0
   57.1119   27.6658   43.9324 H   0  0  0  0  0  0  0  0  0  0  0  0
   58.2389   28.6719   42.9452 H   0  0  0  0  0  0  0  0  0  0  0  0
   60.1991   29.5787   43.8777 H   0  0  0  0  0  0  0  0  0  0  0  0
   61.7368   29.7800   45.8332 H   0  0  0  0  0  0  0  0  0  0  0  0
   60.9662   29.0930   48.1057 H   0  0  0  0  0  0  0  0  0  0  0  0
   58.6628   28.1821   48.4231 H   0  0  0  0  0  0  0  0  0  0  0  0
   57.1206   27.9665   46.4714 H   0  0  0  0  0  0  0  0  0  0  0  0
   58.5314   31.2883   47.0760 H   0  0  0  0  0  0  0  0  0  0  0  0
   58.8817   32.3525   50.3746 H   0  0  0  0  0  0  0  0  0  0  0  0
   58.1105   33.0150   48.8937 H   0  0  0  0  0  0  0  0  0  0  0  0
   58.7658   31.3425   48.8937 H   0  0  0  0  0  0  0  0  0  0  0  0
  1  2  1  0
  2  3  2  0
  3  4  1  0
  4  5  1  0
  5  6  1  0
  6  7  2  0
  6  8  1  0
  8  9  1  0
  9 10  1  0
  9 11  1  0
  4 12  2  0
 12 13  1  0
 13 14  2  0
 14 15  1  0
 15 16  1  0
 16 17  2  0
 16 18  2  0
 16 19  1  0
 19 20  2  0
 20 21  1  0
 21 22  2  0
 22 23  1  0
 23 24  1  0
 24 25  2  0
 25 26  1  0
 26 27  2  0
 27 28  1  0
 28 29  1  0
 29 30  1  0
 30 31  2  0
 30 32  2  0
 30 33  1  0
 33 34  1  0
 34 35  2  0
 35 36  1  0
 36 37  2  0
 37 38  1  0
 38 39  2  0
 28 40  2  0
 23 41  2  0
 41 42  1  0
 14  2  1  0
 41 19  1  0
 40 24  1  0
 39 34  1  0
  1 43  1  0
  1 44  1  0
  1 45  1  0
  3 46  1  0
  9 47  1  0
 10 48  1  0
 10 49  1  0
 10 50  1  0
 11 51  1  0
 11 52  1  0
 11 53  1  0
 12 54  1  0
 13 55  1  0
 20 56  1  0
 21 57  1  0
 22 58  1  0
 25 59  1  0
 26 60  1  0
 27 61  1  0
 33 62  1  0
 33 63  1  0
 35 64  1  0
 36 65  1  0
 37 66  1  0
 38 67  1  0
 39 68  1  0
 40 69  1  0
 42 70  1  0
 42 71  1  0
 42 72  1  0
M  CHG  3   5  -1  15  -1  29  -1
M  END
>  <UniqueID>  (75) 
69

>  <SMILES>  (75) 
Cc1cc([N-]C(=O)OC(C)C)ccc1[N-]S(=O)(=O)c1cccc(-c2cccc([N-]S(=O)(=O)Cc3ccccc3)c2)c1C

>  <Energy>  (75) 
93.33571439562321

>  <Genealogy>  (75) 
Cc1cc([N-]C(=O)OC(C)C)ccc1[N-]S(=O)(=O)c1cccc(-c2cccc([N-]S(=O)(=O)Cc3ccccc3)c2)c1C (protonated)
Cc1cc([N-]C(=O)OC(C)C)ccc1[N-]S(=O)(=O)c1cccc(-c2cccc([N-]S(=O)(=O)Cc3ccccc3)c2)c1C (3D coordinates assigned)
Cc1cc([N-]C(=O)OC(C)C)ccc1[N-]S(=O)(=O)c1cccc(-c2cccc([N-]S(=O)(=O)Cc3ccccc3)c2)c1C (optimized conformer: 93.33571439562321 kcal/mol)

>  <smiles>  (75) 
Cc1cc(NC(=O)OC(C)C)ccc1NS(=O)(=O)c1cccc(-c2cccc(NS(=O)(=O)Cc3ccccc3)c2)c1C

>  <score_type>  (75) 
oracle

>  <origin>  (75) 
adg

>  <m_score__min__energy>  (75) 
-15.16

>  <m_primary>  (75) 
energy

$$$$
75:0
     RDKit          3D

 50 52  0  0  0  0  0  0  0  0999 V2000
   59.6250   33.7010   50.4840 C   0  0  0  0  0  0  0  0  0  0  0  0
   59.0160   32.7050   50.7840 C   0  0  0  0  0  0  0  0  0  0  0  0
   58.2720   31.4920   51.1500 C   0  0  0  0  0  0  0  0  0  0  0  0
   59.1920   30.4480   51.6290 N   0  0  0  0  0  0  0  0  0  0  0  0
   59.3380   29.3510   50.6580 C   0  0  0  0  0  0  0  0  0  0  0  0
   59.9210   29.8290   49.3500 C   0  0  0  0  0  0  0  0  0  0  0  0
   61.1870   30.4320   49.3180 C   0  0  0  0  0  0  0  0  0  0  0  0
   61.6990   30.9290   48.1190 C   0  0  0  0  0  0  0  0  0  0  0  0
   60.9490   30.8370   46.9440 C   0  0  0  0  0  0  0  0  0  0  0  0
   59.6780   30.2380   46.9560 C   0  0  0  0  0  0  0  0  0  0  0  0
   58.8860   30.1920   45.7500 N   0  0  0  0  0  0  0  0  0  0  0  0
   58.9670   29.0390   44.8400 C   0  0  0  0  0  0  0  0  0  0  0  0
   58.2450   27.8460   45.4160 C   0  0  0  0  0  0  0  0  0  0  0  0
   58.9640   26.7520   45.9260 C   0  0  0  0  0  0  0  0  0  0  0  0
   58.2900   25.6610   46.4860 C   0  0  0  0  0  0  0  0  0  0  0  0
   56.8940   25.6490   46.5290 C   0  0  0  0  0  0  0  0  0  0  0  0
   56.1680   26.7220   46.0030 C   0  0  0  0  0  0  0  0  0  0  0  0
   54.7780   26.7020   46.0330 O   0  0  0  0  0  0  0  0  0  0  0  0
   56.8390   27.8140   45.4450 C   0  0  0  0  0  0  0  0  0  0  0  0
   58.0430   31.3090   45.4090 C   0  0  0  0  0  0  0  0  0  0  0  0
   56.9200   31.0990   44.8760 O   0  0  0  0  0  0  0  0  0  0  0  0
   58.4740   32.7000   45.6840 C   0  0  0  0  0  0  0  0  0  0  0  0
   58.5230   33.1800   47.0050 C   0  0  0  0  0  0  0  0  0  0  0  0
   58.9300   34.4930   47.2640 C   0  0  0  0  0  0  0  0  0  0  0  0
   59.2980   35.3340   46.2110 C   0  0  0  0  0  0  0  0  0  0  0  0
   59.2670   34.8620   44.8970 C   0  0  0  0  0  0  0  0  0  0  0  0
   58.8620   33.5510   44.6330 C   0  0  0  0  0  0  0  0  0  0  0  0
   59.1740   29.7310   48.1650 C   0  0  0  0  0  0  0  0  0  0  0  0
   60.1808   34.6099   50.2102 H   0  0  0  0  0  0  0  0  0  0  0  0
   57.5534   31.7346   51.9467 H   0  0  0  0  0  0  0  0  0  0  0  0
   57.7414   31.1184   50.2618 H   0  0  0  0  0  0  0  0  0  0  0  0
   60.1310   30.8670   51.8310 H   0  0  0  0  0  0  0  0  0  0  0  0
   58.8150   30.0410   52.5180 H   0  0  0  0  0  0  0  0  0  0  0  0
   60.0025   28.5851   51.0844 H   0  0  0  0  0  0  0  0  0  0  0  0
   58.3377   28.9408   50.4550 H   0  0  0  0  0  0  0  0  0  0  0  0
   61.7785   30.5134   50.2418 H   0  0  0  0  0  0  0  0  0  0  0  0
   62.6955   31.3943   48.0989 H   0  0  0  0  0  0  0  0  0  0  0  0
   61.3561   31.2361   46.0033 H   0  0  0  0  0  0  0  0  0  0  0  0
   58.5078   29.3073   43.8771 H   0  0  0  0  0  0  0  0  0  0  0  0
   60.0258   28.7752   44.7008 H   0  0  0  0  0  0  0  0  0  0  0  0
   60.0632   26.7531   45.8848 H   0  0  0  0  0  0  0  0  0  0  0  0
   58.8599   24.8125   46.8925 H   0  0  0  0  0  0  0  0  0  0  0  0
   56.3653   24.7947   46.9770 H   0  0  0  0  0  0  0  0  0  0  0  0
   56.2642   28.6531   45.0262 H   0  0  0  0  0  0  0  0  0  0  0  0
   58.2400   32.5200   47.8383 H   0  0  0  0  0  0  0  0  0  0  0  0
   58.9604   34.8641   48.2991 H   0  0  0  0  0  0  0  0  0  0  0  0
   59.6122   36.3679   46.4168 H   0  0  0  0  0  0  0  0  0  0  0  0
   59.5618   35.5232   44.0688 H   0  0  0  0  0  0  0  0  0  0  0  0
   58.8464   33.1820   43.5969 H   0  0  0  0  0  0  0  0  0  0  0  0
   58.1838   29.2522   48.1838 H   0  0  0  0  0  0  0  0  0  0  0  0
  1  2  3  0
  2  3  1  0
  3  4  1  0
  4  5  1  0
  5  6  1  0
  6  7  2  0
  7  8  1  0
  8  9  2  0
  9 10  1  0
 10 11  1  0
 11 12  1  0
 12 13  1  0
 13 14  2  0
 14 15  1  0
 15 16  2  0
 16 17  1  0
 17 18  1  0
 17 19  2  0
 11 20  1  0
 20 21  2  0
 20 22  1  0
 22 23  2  0
 23 24  1  0
 24 25  2  0
 25 26  1  0
 26 27  2  0
 10 28  2  0
 28  6  1  0
 19 13  1  0
 27 22  1  0
  1 29  1  0
  3 30  1  0
  3 31  1  0
  4 32  1  0
  4 33  1  0
  5 34  1  0
  5 35  1  0
  7 36  1  0
  8 37  1  0
  9 38  1  0
 12 39  1  0
 12 40  1  0
 14 41  1  0
 15 42  1  0
 16 43  1  0
 19 44  1  0
 23 45  1  0
 24 46  1  0
 25 47  1  0
 26 48  1  0
 27 49  1  0
 28 50  1  0
M  CHG  2   4   1  18  -1
M  END
>  <UniqueID>  (76) 
70

>  <SMILES>  (76) 
C#CC[NH2+]Cc1cccc(N(Cc2cccc([O-])c2)C(=O)c2ccccc2)c1

>  <Energy>  (76) 
56.14710120074196

>  <Genealogy>  (76) 
C#CC[NH2+]Cc1cccc(N(Cc2cccc([O-])c2)C(=O)c2ccccc2)c1 (protonated)
C#CC[NH2+]Cc1cccc(N(Cc2cccc([O-])c2)C(=O)c2ccccc2)c1 (3D coordinates assigned)
C#CC[NH2+]Cc1cccc(N(Cc2cccc([O-])c2)C(=O)c2ccccc2)c1 (optimized conformer: 56.14710120074196 kcal/mol)

>  <smiles>  (76) 
C#CCNCc1cccc(N(Cc2cccc(O)c2)C(=O)c2ccccc2)c1

>  <score_type>  (76) 
oracle

>  <origin>  (76) 
adg

>  <m_score__min__energy>  (76) 
-11.800000000000001

>  <m_primary>  (76) 
energy

$$$$
76:0
     RDKit          3D

 45 47  0  0  0  0  0  0  0  0999 V2000
   57.7580   22.5970   47.5330 H   0  0  0  0  0  0  0  0  0  0  0  0
   57.7650   22.9630   46.5880 O   0  0  0  0  0  0  0  0  0  0  0  0
   57.5910   24.3220   46.3340 C   0  0  0  0  0  0  0  0  0  0  0  0
   58.6920   25.1570   46.1240 C   0  0  0  0  0  0  0  0  0  0  0  0
   59.7098   24.7413   46.1588 H   0  0  0  0  0  0  0  0  0  0  0  0
   58.5040   26.5180   45.8700 C   0  0  0  0  0  0  0  0  0  0  0  0
   59.3774   27.1670   45.7089 H   0  0  0  0  0  0  0  0  0  0  0  0
   57.2090   27.0680   45.8180 C   0  0  0  0  0  0  0  0  0  0  0  0
   57.0450   28.5200   45.5390 C   0  0  0  0  0  0  0  0  0  0  0  0
   55.9180   28.9630   45.1870 O   0  0  0  0  0  0  0  0  0  0  0  0
   58.1670   29.4100   45.6230 N   0  0  0  0  0  0  0  0  0  0  0  0
   58.8950   29.7710   46.8060 C   0  0  0  0  0  0  0  0  0  0  0  0
   58.6660   29.1430   48.0450 C   0  0  0  0  0  0  0  0  0  0  0  0
   57.9039   28.3542   48.1289 H   0  0  0  0  0  0  0  0  0  0  0  0
   59.4060   29.5210   49.1680 C   0  0  0  0  0  0  0  0  0  0  0  0
   59.2115   29.0419   50.1389 H   0  0  0  0  0  0  0  0  0  0  0  0
   60.3920   30.5050   49.0630 C   0  0  0  0  0  0  0  0  0  0  0  0
   60.9540   30.8166   49.9558 H   0  0  0  0  0  0  0  0  0  0  0  0
   60.6670   31.0970   47.8200 C   0  0  0  0  0  0  0  0  0  0  0  0
   61.6580   32.1250   47.6800 N   0  0  0  0  0  0  0  0  0  0  0  0
   61.4300   33.4740   47.2550 C   0  0  0  0  0  0  0  0  0  0  0  0
   62.1930   33.9590   46.3790 O   0  0  0  0  0  0  0  0  0  0  0  0
   60.3370   34.2890   47.8470 C   0  0  0  0  0  0  0  0  0  0  0  0
   60.5705   34.8502   48.7638 H   0  0  0  0  0  0  0  0  0  0  0  0
   59.0900   34.4010   47.3620 C   0  0  0  0  0  0  0  0  0  0  0  0
   58.3768   35.0065   47.9406 H   0  0  0  0  0  0  0  0  0  0  0  0
   58.5960   33.7800   46.1180 C   0  0  0  0  0  0  0  0  0  0  0  0
   57.5610   32.8320   46.1480 C   0  0  0  0  0  0  0  0  0  0  0  0
   57.0791   32.5775   47.1035 H   0  0  0  0  0  0  0  0  0  0  0  0
   57.1400   32.2100   44.9690 C   0  0  0  0  0  0  0  0  0  0  0  0
   56.3204   31.4771   45.0011 H   0  0  0  0  0  0  0  0  0  0  0  0
   57.7560   32.5140   43.7430 C   0  0  0  0  0  0  0  0  0  0  0  0
   57.3170   31.8740   42.5300 N   0  0  0  0  0  0  0  0  0  0  0  0
   56.6760   30.8030   42.5690 O   0  0  0  0  0  0  0  0  0  0  0  0
   57.6060   32.4280   41.3040 O   0  0  0  0  0  0  0  0  0  0  0  0
   58.8120   33.4430   43.7230 C   0  0  0  0  0  0  0  0  0  0  0  0
   59.3085   33.6851   42.7718 H   0  0  0  0  0  0  0  0  0  0  0  0
   59.2350   34.0610   44.9040 C   0  0  0  0  0  0  0  0  0  0  0  0
   60.0742   34.7717   44.8792 H   0  0  0  0  0  0  0  0  0  0  0  0
   59.9030   30.7380   46.7030 C   0  0  0  0  0  0  0  0  0  0  0  0
   60.0966   31.2208   45.7337 H   0  0  0  0  0  0  0  0  0  0  0  0
   56.1010   26.2170   46.0370 C   0  0  0  0  0  0  0  0  0  0  0  0
   54.7970   26.7030   46.0220 O   0  0  0  0  0  0  0  0  0  0  0  0
   56.3000   24.8540   46.2890 C   0  0  0  0  0  0  0  0  0  0  0  0
   55.4330   24.1971   46.4528 H   0  0  0  0  0  0  0  0  0  0  0  0
  1  2  1  0
  2  3  1  0
  3  4  2  0
  4  5  1  0
  4  6  1  0
  6  7  1  0
  6  8  2  0
  8  9  1  0
  9 10  2  0
  9 11  1  0
 11 12  1  0
 12 13  2  0
 13 14  1  0
 13 15  1  0
 15 16  1  0
 15 17  2  0
 17 18  1  0
 17 19  1  0
 19 20  1  0
 20 21  1  0
 21 22  2  0
 21 23  1  0
 23 24  1  0
 23 25  2  0
 25 26  1  0
 25 27  1  0
 27 28  2  0
 28 29  1  0
 28 30  1  0
 30 31  1  0
 30 32  2  0
 32 33  1  0
 33 34  2  0
 33 35  1  0
 32 36  1  0
 36 37  1  0
 36 38  2  0
 38 39  1  0
 19 40  2  0
 40 41  1  0
  8 42  1  0
 42 43  1  0
 42 44  2  0
 44 45  1  0
 44  3  1  0
 40 12  1  0
 38 27  1  0
M  CHG  5  11  -1  20  -1  33   1  35  -1  43  -1
M  END
>  <UniqueID>  (77) 
71

>  <SMILES>  (77) 
O=C(/C=C\c1ccc([N+](=O)[O-])cc1)[N-]c1cccc([N-]C(=O)c2ccc(O)cc2[O-])c1

>  <Energy>  (77) 
69.1112587853263

>  <Genealogy>  (77) 
O=C(C=Cc1ccc([N+](=O)[O-])cc1)[N-]c1cccc([N-]C(=O)c2ccc(O)cc2[O-])c1 (protonated)
O=C(/C=C\c1ccc([N+](=O)[O-])cc1)[N-]c1cccc([N-]C(=O)c2ccc(O)cc2[O-])c1 (cis-trans isomerization)
O=C(/C=C\c1ccc([N+](=O)[O-])cc1)[N-]c1cccc([N-]C(=O)c2ccc(O)cc2[O-])c1 (3D coordinates assigned)
O=C(/C=C\c1ccc([N+](=O)[O-])cc1)[N-]c1cccc([N-]C(=O)c2ccc(O)cc2[O-])c1 (optimized conformer: 69.1112587853263 kcal/mol)

>  <smiles>  (77) 
O=C(C=Cc1ccc([N+](=O)[O-])cc1)Nc1cccc(NC(=O)c2ccc(O)cc2O)c1

>  <score_type>  (77) 
oracle

>  <origin>  (77) 
adg

>  <m_score__min__energy>  (77) 
-15.18

>  <m_primary>  (77) 
energy

$$$$
77:0
     RDKit          3D

 33 35  0  0  0  0  0  0  0  0999 V2000
   61.4120   29.0250   44.7610 O   0  0  0  0  0  0  0  0  0  0  0  0
   60.4630   28.7060   45.8820 S   0  0  0  0  0  0  0  0  0  0  0  0
   60.6650   27.2770   46.3030 O   0  0  0  0  0  0  0  0  0  0  0  0
   60.8050   29.7460   47.2280 N   0  0  0  0  0  0  0  0  0  0  0  0
   61.3150   31.0860   47.1390 C   0  0  0  0  0  0  0  0  0  0  0  0
   62.6960   31.3480   47.2290 C   0  0  0  0  0  0  0  0  0  0  0  0
   63.1810   32.6530   47.1340 C   0  0  0  0  0  0  0  0  0  0  0  0
   62.3020   33.7200   46.9510 C   0  0  0  0  0  0  0  0  0  0  0  0
   60.9230   33.4890   46.8620 C   0  0  0  0  0  0  0  0  0  0  0  0
   60.0380   34.5630   46.6790 C   0  0  0  0  0  0  0  0  0  0  0  0
   58.6630   34.3350   46.5890 C   0  0  0  0  0  0  0  0  0  0  0  0
   58.1610   33.0360   46.6800 C   0  0  0  0  0  0  0  0  0  0  0  0
   59.0280   31.9560   46.8630 C   0  0  0  0  0  0  0  0  0  0  0  0
   60.4190   32.1650   46.9570 C   0  0  0  0  0  0  0  0  0  0  0  0
   58.7930   28.9150   45.3640 C   0  0  0  0  0  0  0  0  0  0  0  0
   58.4440   30.0010   44.5500 C   0  0  0  0  0  0  0  0  0  0  0  0
   57.1230   30.1660   44.1270 C   0  0  0  0  0  0  0  0  0  0  0  0
   56.1380   29.2510   44.5170 C   0  0  0  0  0  0  0  0  0  0  0  0
   54.8260   29.4380   44.0820 O   0  0  0  0  0  0  0  0  0  0  0  0
   56.4840   28.1650   45.3390 C   0  0  0  0  0  0  0  0  0  0  0  0
   55.5200   27.2470   45.7390 O   0  0  0  0  0  0  0  0  0  0  0  0
   57.8080   28.0020   45.7600 C   0  0  0  0  0  0  0  0  0  0  0  0
   63.3995   30.5152   47.3757 H   0  0  0  0  0  0  0  0  0  0  0  0
   64.2626   32.8411   47.2038 H   0  0  0  0  0  0  0  0  0  0  0  0
   62.6923   34.7457   46.8763 H   0  0  0  0  0  0  0  0  0  0  0  0
   60.4290   35.5886   46.6062 H   0  0  0  0  0  0  0  0  0  0  0  0
   57.9745   35.1809   46.4461 H   0  0  0  0  0  0  0  0  0  0  0  0
   57.0773   32.8617   46.6073 H   0  0  0  0  0  0  0  0  0  0  0  0
   58.6227   30.9359   46.9342 H   0  0  0  0  0  0  0  0  0  0  0  0
   59.2126   30.7257   44.2432 H   0  0  0  0  0  0  0  0  0  0  0  0
   56.8557   31.0182   43.4849 H   0  0  0  0  0  0  0  0  0  0  0  0
   54.0470   28.9370   44.4930 H   0  0  0  0  0  0  0  0  0  0  0  0
   58.0766   27.1526   46.4052 H   0  0  0  0  0  0  0  0  0  0  0  0
  1  2  2  0
  2  3  2  0
  2  4  1  0
  4  5  1  0
  5  6  2  0
  6  7  1  0
  7  8  2  0
  8  9  1  0
  9 10  2  0
 10 11  1  0
 11 12  2  0
 12 13  1  0
 13 14  2  0
  2 15  1  0
 15 16  2  0
 16 17  1  0
 17 18  2  0
 18 19  1  0
 18 20  1  0
 20 21  1  0
 20 22  2  0
 14  5  1  0
 22 15  1  0
 14  9  1  0
  6 23  1  0
  7 24  1  0
  8 25  1  0
 10 26  1  0
 11 27  1  0
 12 28  1  0
 13 29  1  0
 16 30  1  0
 17 31  1  0
 19 32  1  0
 22 33  1  0
M  CHG  2   4  -1  21  -1
M  END
>  <UniqueID>  (78) 
72

>  <SMILES>  (78) 
O=S(=O)([N-]c1cccc2ccccc12)c1ccc(O)c([O-])c1

>  <Energy>  (78) 
43.48651347143684

>  <Genealogy>  (78) 
O=S(=O)([N-]c1cccc2ccccc12)c1ccc(O)c([O-])c1 (protonated)
O=S(=O)([N-]c1cccc2ccccc12)c1ccc(O)c([O-])c1 (3D coordinates assigned)
O=S(=O)([N-]c1cccc2ccccc12)c1ccc(O)c([O-])c1 (optimized conformer: 43.48651347143684 kcal/mol)

>  <smiles>  (78) 
O=S(=O)(Nc1cccc2ccccc12)c1ccc(O)c(O)c1

>  <score_type>  (78) 
oracle

>  <origin>  (78) 
adg

>  <m_score__min__energy>  (78) 
-12.74

>  <m_primary>  (78) 
energy

$$$$
78:0
     RDKit          3D

 43 45  0  0  0  0  0  0  0  0999 V2000
   54.7530   27.1020   45.9430 H   0  0  0  0  0  0  0  0  0  0  0  0
   55.7590   26.9910   45.9730 O   0  0  0  0  0  0  0  0  0  0  0  0
   56.6280   28.0270   45.6370 C   0  0  0  0  0  0  0  0  0  0  0  0
   57.9570   27.9710   46.0750 C   0  0  0  0  0  0  0  0  0  0  0  0
   58.3033   27.1084   46.6632 H   0  0  0  0  0  0  0  0  0  0  0  0
   58.8480   29.0080   45.7680 C   0  0  0  0  0  0  0  0  0  0  0  0
   60.2430   28.9350   46.2330 C   0  0  0  0  0  0  0  0  0  0  0  0
   60.7055   27.9392   46.3004 H   0  0  0  0  0  0  0  0  0  0  0  0
   60.9930   29.9930   46.5810 C   0  0  0  0  0  0  0  0  0  0  0  0
   61.7722   30.3066   45.8707 H   0  0  0  0  0  0  0  0  0  0  0  0
   60.8700   30.7760   47.8290 C   0  0  0  0  0  0  0  0  0  0  0  0
   61.7770   30.6710   48.6990 O   0  0  0  0  0  0  0  0  0  0  0  0
   59.7590   31.6470   48.0670 N   0  0  0  0  0  0  0  0  0  0  0  0
   59.3160   32.6540   47.1520 C   0  0  0  0  0  0  0  0  0  0  0  0
   58.0050   32.5870   46.6660 C   0  0  0  0  0  0  0  0  0  0  0  0
   57.3341   31.7871   47.0125 H   0  0  0  0  0  0  0  0  0  0  0  0
   57.5430   33.5290   45.7440 C   0  0  0  0  0  0  0  0  0  0  0  0
   56.5156   33.4616   45.3567 H   0  0  0  0  0  0  0  0  0  0  0  0
   58.3850   34.5560   45.3140 C   0  0  0  0  0  0  0  0  0  0  0  0
   58.0255   35.2888   44.5766 H   0  0  0  0  0  0  0  0  0  0  0  0
   59.6830   34.6540   45.8190 C   0  0  0  0  0  0  0  0  0  0  0  0
   60.3381   35.4720   45.4847 H   0  0  0  0  0  0  0  0  0  0  0  0
   60.1590   33.7170   46.7500 C   0  0  0  0  0  0  0  0  0  0  0  0
   61.4520   33.9140   47.3480 N   0  0  0  0  0  0  0  0  0  0  0  0
   61.5660   34.2140   48.7810 C   0  0  0  0  0  0  0  0  0  0  0  0
   61.7789   35.2860   48.9059 H   0  0  0  0  0  0  0  0  0  0  0  0
   60.6167   33.9440   49.2666 H   0  0  0  0  0  0  0  0  0  0  0  0
   62.7010   33.3950   49.4440 C   0  0  0  0  0  0  0  0  0  0  0  0
   63.3347   34.0859   50.0194 H   0  0  0  0  0  0  0  0  0  0  0  0
   62.2168   32.6360   50.0761 H   0  0  0  0  0  0  0  0  0  0  0  0
   63.5250   32.6960   48.5240 O   0  0  0  0  0  0  0  0  0  0  0  0
   63.8770   33.5350   47.4460 C   0  0  0  0  0  0  0  0  0  0  0  0
   64.2018   34.5129   47.8310 H   0  0  0  0  0  0  0  0  0  0  0  0
   64.6994   33.0795   46.8749 H   0  0  0  0  0  0  0  0  0  0  0  0
   62.6620   33.7200   46.5400 C   0  0  0  0  0  0  0  0  0  0  0  0
   62.8167   34.6012   45.9001 H   0  0  0  0  0  0  0  0  0  0  0  0
   62.5379   32.8213   45.9180 H   0  0  0  0  0  0  0  0  0  0  0  0
   58.4140   30.0880   44.9840 C   0  0  0  0  0  0  0  0  0  0  0  0
   59.1180   30.8891   44.7146 H   0  0  0  0  0  0  0  0  0  0  0  0
   57.0880   30.1470   44.5450 C   0  0  0  0  0  0  0  0  0  0  0  0
   56.7476   31.0009   43.9409 H   0  0  0  0  0  0  0  0  0  0  0  0
   56.1930   29.1230   44.8720 C   0  0  0  0  0  0  0  0  0  0  0  0
   54.8770   29.1970   44.4320 O   0  0  0  0  0  0  0  0  0  0  0  0
  1  2  1  0
  2  3  1  0
  3  4  2  0
  4  5  1  0
  4  6  1  0
  6  7  1  0
  7  8  1  0
  7  9  2  0
  9 10  1  0
  9 11  1  0
 11 12  2  0
 11 13  1  0
 13 14  1  0
 14 15  2  0
 15 16  1  0
 15 17  1  0
 17 18  1  0
 17 19  2  0
 19 20  1  0
 19 21  1  0
 21 22  1  0
 21 23  2  0
 23 24  1  0
 24 25  1  0
 25 26  1  0
 25 27  1  0
 25 28  1  0
 28 29  1  0
 28 30  1  0
 28 31  1  0
 31 32  1  0
 32 33  1  0
 32 34  1  0
 32 35  1  0
 35 36  1  0
 35 37  1  0
  6 38  2  0
 38 39  1  0
 38 40  1  0
 40 41  1  0
 40 42  2  0
 42 43  1  0
 42  3  1  0
 23 14  1  0
 35 24  1  0
M  CHG  2  13  -1  43  -1
M  END
>  <UniqueID>  (79) 
73

>  <SMILES>  (79) 
O=C(/C=C\c1ccc([O-])c(O)c1)[N-]c1ccccc1N1CCOCC1

>  <Energy>  (79) 
68.95861641187383

>  <Genealogy>  (79) 
O=C(C=Cc1ccc([O-])c(O)c1)[N-]c1ccccc1N1CCOCC1 (protonated)
O=C(/C=C\c1ccc([O-])c(O)c1)[N-]c1ccccc1N1CCOCC1 (cis-trans isomerization)
O=C(/C=C\c1ccc([O-])c(O)c1)[N-]c1ccccc1N1CCOCC1 (3D coordinates assigned)
O=C(/C=C\c1ccc([O-])c(O)c1)[N-]c1ccccc1N1CCOCC1 (nonaromatic ring conformer: 68.95861641187383 kcal/mol)

>  <smiles>  (79) 
O=C(C=Cc1ccc(O)c(O)c1)Nc1ccccc1N1CCOCC1

>  <score_type>  (79) 
oracle

>  <origin>  (79) 
adg

>  <m_score__min__energy>  (79) 
-13.24

>  <m_primary>  (79) 
energy

$$$$
79:0
     RDKit          3D

 40 42  0  0  0  0  0  0  0  0999 V2000
   59.2250   35.1660   44.8810 C   0  0  0  0  0  0  0  0  0  0  0  0
   59.1000   34.1250   45.9540 C   0  0  0  0  0  0  0  0  0  0  0  0
   57.8540   33.8700   46.5480 C   0  0  0  0  0  0  0  0  0  0  0  0
   57.7280   32.8730   47.5190 C   0  0  0  0  0  0  0  0  0  0  0  0
   58.8400   32.1160   47.8960 C   0  0  0  0  0  0  0  0  0  0  0  0
   60.0900   32.3530   47.3030 C   0  0  0  0  0  0  0  0  0  0  0  0
   61.2860   31.5200   47.6780 C   0  0  0  0  0  0  0  0  0  0  0  0
   61.0550   30.1190   47.3290 N   0  0  0  0  0  0  0  0  0  0  0  0
   60.4130   29.1990   48.2210 C   0  0  0  0  0  0  0  0  0  0  0  0
   60.0840   29.5600   49.3830 O   0  0  0  0  0  0  0  0  0  0  0  0
   60.1690   27.7890   47.7890 C   0  0  0  0  0  0  0  0  0  0  0  0
   60.3520   27.6740   45.9810 S   0  0  0  0  0  0  0  0  0  0  0  0
   58.5990   27.9230   45.6710 C   0  0  0  0  0  0  0  0  0  0  0  0
   57.7320   26.9570   46.0750 N   0  0  0  0  0  0  0  0  0  0  0  0
   56.3950   27.0740   45.8740 C   0  0  0  0  0  0  0  0  0  0  0  0
   55.6200   26.1600   46.2580 O   0  0  0  0  0  0  0  0  0  0  0  0
   55.8910   28.1730   45.2570 N   0  0  0  0  0  0  0  0  0  0  0  0
   56.7070   29.1720   44.8320 C   0  0  0  0  0  0  0  0  0  0  0  0
   56.1620   30.2960   44.2000 C   0  0  0  0  0  0  0  0  0  0  0  0
   56.9970   31.3260   43.7620 C   0  0  0  0  0  0  0  0  0  0  0  0
   58.3790   31.2400   43.9530 C   0  0  0  0  0  0  0  0  0  0  0  0
   58.9350   30.1200   44.5800 C   0  0  0  0  0  0  0  0  0  0  0  0
   58.1040   29.0750   45.0270 C   0  0  0  0  0  0  0  0  0  0  0  0
   60.2110   33.3510   46.3230 C   0  0  0  0  0  0  0  0  0  0  0  0
   59.3440   36.1569   45.3436 H   0  0  0  0  0  0  0  0  0  0  0  0
   60.1031   34.9451   44.2563 H   0  0  0  0  0  0  0  0  0  0  0  0
   58.3196   35.1593   44.2563 H   0  0  0  0  0  0  0  0  0  0  0  0
   56.9735   34.4572   46.2480 H   0  0  0  0  0  0  0  0  0  0  0  0
   56.7510   32.6838   47.9876 H   0  0  0  0  0  0  0  0  0  0  0  0
   58.7356   31.3316   48.6601 H   0  0  0  0  0  0  0  0  0  0  0  0
   62.1697   31.8884   47.1364 H   0  0  0  0  0  0  0  0  0  0  0  0
   61.4513   31.5971   48.7628 H   0  0  0  0  0  0  0  0  0  0  0  0
   61.3770   29.7800   46.3950 H   0  0  0  0  0  0  0  0  0  0  0  0
   60.8981   27.1242   48.2752 H   0  0  0  0  0  0  0  0  0  0  0  0
   59.1514   27.4861   48.0766 H   0  0  0  0  0  0  0  0  0  0  0  0
   55.0749   30.3679   44.0483 H   0  0  0  0  0  0  0  0  0  0  0  0
   56.5659   32.2077   43.2652 H   0  0  0  0  0  0  0  0  0  0  0  0
   59.0316   32.0559   43.6090 H   0  0  0  0  0  0  0  0  0  0  0  0
   60.0236   30.0555   44.7241 H   0  0  0  0  0  0  0  0  0  0  0  0
   61.1838   33.5276   45.8408 H   0  0  0  0  0  0  0  0  0  0  0  0
  1  2  1  0
  2  3  2  0
  3  4  1  0
  4  5  2  0
  5  6  1  0
  6  7  1  0
  7  8  1  0
  8  9  1  0
  9 10  2  0
  9 11  1  0
 11 12  1  0
 12 13  1  0
 13 14  1  0
 14 15  1  0
 15 16  2  0
 15 17  1  0
 17 18  2  0
 18 19  1  0
 19 20  2  0
 20 21  1  0
 21 22  2  0
 22 23  1  0
  6 24  2  0
 24  2  1  0
 23 13  2  0
 23 18  1  0
  1 25  1  0
  1 26  1  0
  1 27  1  0
  3 28  1  0
  4 29  1  0
  5 30  1  0
  7 31  1  0
  7 32  1  0
  8 33  1  0
 11 34  1  0
 11 35  1  0
 19 36  1  0
 20 37  1  0
 21 38  1  0
 22 39  1  0
 24 40  1  0
M  CHG  1  14  -1
M  END
>  <UniqueID>  (80) 
74

>  <SMILES>  (80) 
Cc1cccc(CNC(=O)CSc2[n-]c(=O)nc3ccccc23)c1

>  <Energy>  (80) 
38.340613149767854

>  <Genealogy>  (80) 
Cc1cccc(CNC(=O)CSc2[n-]c(=O)nc3ccccc23)c1 (protonated)
Cc1cccc(CNC(=O)CSc2[n-]c(=O)nc3ccccc23)c1 (3D coordinates assigned)
Cc1cccc(CNC(=O)CSc2[n-]c(=O)nc3ccccc23)c1 (optimized conformer: 38.340613149767854 kcal/mol)

>  <smiles>  (80) 
Cc1cccc(CNC(=O)CSc2[nH]c(=O)nc3ccccc23)c1

>  <score_type>  (80) 
oracle

>  <origin>  (80) 
adg

>  <m_score__min__energy>  (80) 
-10.35

>  <m_primary>  (80) 
energy

$$$$
80:0
     RDKit          3D

 50 52  0  0  0  0  0  0  0  0999 V2000
   55.4870   29.3170   44.8700 N   0  0  0  0  0  0  0  0  0  0  0  0
   57.0780   29.6020   44.2630 S   0  0  0  0  0  0  0  0  0  0  0  0
   57.1110   30.9110   43.5270 O   0  0  0  0  0  0  0  0  0  0  0  0
   57.4570   28.5020   43.3100 O   0  0  0  0  0  0  0  0  0  0  0  0
   58.2140   29.6510   45.6080 C   0  0  0  0  0  0  0  0  0  0  0  0
   58.1500   30.6820   46.5550 C   0  0  0  0  0  0  0  0  0  0  0  0
   59.0540   30.7170   47.6210 C   0  0  0  0  0  0  0  0  0  0  0  0
   60.0400   29.7250   47.7460 C   0  0  0  0  0  0  0  0  0  0  0  0
   60.9720   29.7230   48.9330 C   0  0  0  0  0  0  0  0  0  0  0  0
   60.3450   29.0140   50.1420 C   0  0  0  0  0  0  0  0  0  0  0  0
   58.9450   29.4000   50.3190 N   0  0  0  0  0  0  0  0  0  0  0  0
   58.5320   30.3340   51.3300 C   0  0  0  0  0  0  0  0  0  0  0  0
   59.3820   31.1160   51.8380 O   0  0  0  0  0  0  0  0  0  0  0  0
   57.1410   30.3440   51.8420 C   0  0  0  0  0  0  0  0  0  0  0  0
   56.4040   31.5430   51.8320 C   0  0  0  0  0  0  0  0  0  0  0  0
   55.1190   31.5930   52.3740 C   0  0  0  0  0  0  0  0  0  0  0  0
   54.5470   30.4450   52.9380 C   0  0  0  0  0  0  0  0  0  0  0  0
   53.2040   30.5090   53.5470 C   0  0  0  0  0  0  0  0  0  0  0  0
   53.0900   30.3430   54.9370 C   0  0  0  0  0  0  0  0  0  0  0  0
   51.8430   30.4170   55.5590 C   0  0  0  0  0  0  0  0  0  0  0  0
   50.6970   30.6580   54.8000 C   0  0  0  0  0  0  0  0  0  0  0  0
   50.7930   30.8140   53.4160 C   0  0  0  0  0  0  0  0  0  0  0  0
   52.0380   30.7310   52.7720 C   0  0  0  0  0  0  0  0  0  0  0  0
   52.0990   30.8800   51.0070 S   0  0  0  0  0  0  0  0  0  0  0  0
   51.2800   32.3200   50.5150 N   0  0  0  0  0  0  0  0  0  0  0  0
   51.4290   29.6940   50.3700 O   0  0  0  0  0  0  0  0  0  0  0  0
   53.5270   30.9230   50.5420 O   0  0  0  0  0  0  0  0  0  0  0  0
   55.2550   29.2380   52.9150 C   0  0  0  0  0  0  0  0  0  0  0  0
   56.5420   29.1860   52.3720 C   0  0  0  0  0  0  0  0  0  0  0  0
   60.1050   28.6970   46.7910 C   0  0  0  0  0  0  0  0  0  0  0  0
   59.1990   28.6630   45.7270 C   0  0  0  0  0  0  0  0  0  0  0  0
   55.1820   28.3880   44.5020 H   0  0  0  0  0  0  0  0  0  0  0  0
   57.3854   31.4670   46.4593 H   0  0  0  0  0  0  0  0  0  0  0  0
   58.9926   31.5250   48.3649 H   0  0  0  0  0  0  0  0  0  0  0  0
   61.9012   29.2032   48.6566 H   0  0  0  0  0  0  0  0  0  0  0  0
   61.1748   30.7672   49.2133 H   0  0  0  0  0  0  0  0  0  0  0  0
   60.3997   27.9263   49.9873 H   0  0  0  0  0  0  0  0  0  0  0  0
   60.9023   29.3080   51.0437 H   0  0  0  0  0  0  0  0  0  0  0  0
   58.2370   28.8720   49.7650 H   0  0  0  0  0  0  0  0  0  0  0  0
   56.8453   32.4497   51.3926 H   0  0  0  0  0  0  0  0  0  0  0  0
   54.5535   32.5364   52.3584 H   0  0  0  0  0  0  0  0  0  0  0  0
   53.9903   30.1533   55.5398 H   0  0  0  0  0  0  0  0  0  0  0  0
   51.7633   30.2853   56.6482 H   0  0  0  0  0  0  0  0  0  0  0  0
   49.7161   30.7252   55.2932 H   0  0  0  0  0  0  0  0  0  0  0  0
   49.8851   31.0037   52.8246 H   0  0  0  0  0  0  0  0  0  0  0  0
   51.8100   32.7110   49.7030 H   0  0  0  0  0  0  0  0  0  0  0  0
   54.7967   28.3264   53.3260 H   0  0  0  0  0  0  0  0  0  0  0  0
   57.0908   28.2328   52.3588 H   0  0  0  0  0  0  0  0  0  0  0  0
   60.8729   27.9146   46.8809 H   0  0  0  0  0  0  0  0  0  0  0  0
   59.2601   27.8573   44.9806 H   0  0  0  0  0  0  0  0  0  0  0  0
  1  2  1  0
  2  3  2  0
  2  4  2  0
  2  5  1  0
  5  6  2  0
  6  7  1  0
  7  8  2  0
  8  9  1  0
  9 10  1  0
 10 11  1  0
 11 12  1  0
 12 13  2  0
 12 14  1  0
 14 15  2  0
 15 16  1  0
 16 17  2  0
 17 18  1  0
 18 19  2  0
 19 20  1  0
 20 21  2  0
 21 22  1  0
 22 23  2  0
 23 24  1  0
 24 25  1  0
 24 26  2  0
 24 27  2  0
 17 28  1  0
 28 29  2  0
  8 30  1  0
 30 31  2  0
 31  5  1  0
 29 14  1  0
 23 18  1  0
  1 32  1  0
  6 33  1  0
  7 34  1  0
  9 35  1  0
  9 36  1  0
 10 37  1  0
 10 38  1  0
 11 39  1  0
 15 40  1  0
 16 41  1  0
 19 42  1  0
 20 43  1  0
 21 44  1  0
 22 45  1  0
 25 46  1  0
 28 47  1  0
 29 48  1  0
 30 49  1  0
 31 50  1  0
M  CHG  2   1  -1  25  -1
M  END
>  <UniqueID>  (81) 
75

>  <SMILES>  (81) 
[NH-]S(=O)(=O)c1ccc(CCNC(=O)c2ccc(-c3ccccc3S([NH-])(=O)=O)cc2)cc1

>  <Energy>  (81) 
57.29273219491944

>  <Genealogy>  (81) 
[NH-]S(=O)(=O)c1ccc(CCNC(=O)c2ccc(-c3ccccc3S([NH-])(=O)=O)cc2)cc1 (protonated)
[NH-]S(=O)(=O)c1ccc(CCNC(=O)c2ccc(-c3ccccc3S([NH-])(=O)=O)cc2)cc1 (3D coordinates assigned)
[NH-]S(=O)(=O)c1ccc(CCNC(=O)c2ccc(-c3ccccc3S([NH-])(=O)=O)cc2)cc1 (optimized conformer: 57.29273219491944 kcal/mol)

>  <smiles>  (81) 
NS(=O)(=O)c1ccc(CCNC(=O)c2ccc(-c3ccccc3S(N)(=O)=O)cc2)cc1

>  <score_type>  (81) 
oracle

>  <origin>  (81) 
adg

>  <m_score__min__energy>  (81) 
-13.51

>  <m_primary>  (81) 
energy

$$$$
81:0
     RDKit          3D

 76 78  0  0  0  0  0  0  0  0999 V2000
   59.0030   25.5800   47.3100 C   0  0  0  0  0  0  0  0  0  0  0  0
   58.5980   26.9100   46.8440 N   0  0  0  0  0  0  0  0  0  0  0  0
   57.1940   27.1610   46.4950 C   0  0  0  0  0  0  0  0  0  0  0  0
   56.3120   25.9490   46.7950 C   0  0  0  0  0  0  0  0  0  0  0  0
   55.1100   25.9680   45.9690 N   0  0  0  0  0  0  0  0  0  0  0  0
   54.5350   24.7660   45.4510 C   0  0  0  0  0  0  0  0  0  0  0  0
   53.5210   24.2680   46.0070 O   0  0  0  0  0  0  0  0  0  0  0  0
   55.1010   24.1720   44.3130 O   0  0  0  0  0  0  0  0  0  0  0  0
   56.3290   23.4250   44.2780 C   0  0  0  0  0  0  0  0  0  0  0  0
   57.5400   24.3780   44.2720 C   0  0  0  0  0  0  0  0  0  0  0  0
   56.3650   22.4910   43.0520 C   0  0  0  0  0  0  0  0  0  0  0  0
   56.3850   22.5680   45.5520 C   0  0  0  0  0  0  0  0  0  0  0  0
   59.5890   27.9590   46.8190 C   0  0  0  0  0  0  0  0  0  0  0  0
   60.0880   28.4540   48.0360 C   0  0  0  0  0  0  0  0  0  0  0  0
   60.9440   29.5560   48.0600 C   0  0  0  0  0  0  0  0  0  0  0  0
   61.2810   30.2030   46.8730 C   0  0  0  0  0  0  0  0  0  0  0  0
   60.7970   29.7240   45.6550 C   0  0  0  0  0  0  0  0  0  0  0  0
   60.0020   28.5660   45.6050 C   0  0  0  0  0  0  0  0  0  0  0  0
   59.5710   28.0420   44.3350 N   0  0  0  0  0  0  0  0  0  0  0  0
   58.2440   28.1790   43.7810 C   0  0  0  0  0  0  0  0  0  0  0  0
   57.7850   27.1480   42.5950 S   0  0  0  0  0  0  0  0  0  0  0  0
   57.2920   29.1570   44.2460 N   0  0  0  0  0  0  0  0  0  0  0  0
   57.6400   30.3890   44.8930 C   0  0  0  0  0  0  0  0  0  0  0  0
   57.9310   31.5360   44.1500 C   0  0  0  0  0  0  0  0  0  0  0  0
   58.4560   32.6670   44.7780 C   0  0  0  0  0  0  0  0  0  0  0  0
   58.6820   32.6700   46.1680 C   0  0  0  0  0  0  0  0  0  0  0  0
   59.2560   33.7730   46.8170 O   0  0  0  0  0  0  0  0  0  0  0  0
   60.2820   34.5950   46.2710 C   0  0  0  0  0  0  0  0  0  0  0  0
   61.5550   33.7710   46.0890 C   0  0  0  0  0  0  0  0  0  0  0  0
   62.2170   33.4980   47.4140 C   0  0  0  0  0  0  0  0  0  0  0  0
   61.6680   34.0140   48.6010 C   0  0  0  0  0  0  0  0  0  0  0  0
   62.3030   33.7870   49.8250 C   0  0  0  0  0  0  0  0  0  0  0  0
   63.4920   33.0540   49.8740 C   0  0  0  0  0  0  0  0  0  0  0  0
   64.0490   32.5460   48.6960 C   0  0  0  0  0  0  0  0  0  0  0  0
   63.4170   32.7710   47.4690 C   0  0  0  0  0  0  0  0  0  0  0  0
   58.3090   31.5420   46.9310 C   0  0  0  0  0  0  0  0  0  0  0  0
   58.5200   31.4930   48.3950 C   0  0  0  0  0  0  0  0  0  0  0  0
   58.8990   32.6610   49.1250 N   0  0  0  0  0  0  0  0  0  0  0  0
   58.4000   30.3980   49.0040 O   0  0  0  0  0  0  0  0  0  0  0  0
   57.7580   30.4230   46.2870 C   0  0  0  0  0  0  0  0  0  0  0  0
   59.0083   25.5627   48.4099 H   0  0  0  0  0  0  0  0  0  0  0  0
   58.2931   24.8281   46.9349 H   0  0  0  0  0  0  0  0  0  0  0  0
   60.0115   25.3514   46.9349 H   0  0  0  0  0  0  0  0  0  0  0  0
   56.8298   28.0200   47.0777 H   0  0  0  0  0  0  0  0  0  0  0  0
   57.1401   27.3658   45.4156 H   0  0  0  0  0  0  0  0  0  0  0  0
   56.8788   25.0296   46.5864 H   0  0  0  0  0  0  0  0  0  0  0  0
   56.0140   25.9822   47.8533 H   0  0  0  0  0  0  0  0  0  0  0  0
   57.8313   24.6072   45.3077 H   0  0  0  0  0  0  0  0  0  0  0  0
   58.3820   23.8977   43.7520 H   0  0  0  0  0  0  0  0  0  0  0  0
   57.2711   25.3093   43.7520 H   0  0  0  0  0  0  0  0  0  0  0  0
   56.4053   21.4447   43.3892 H   0  0  0  0  0  0  0  0  0  0  0  0
   55.4602   22.6463   42.4460 H   0  0  0  0  0  0  0  0  0  0  0  0
   57.2552   22.7155   42.4460 H   0  0  0  0  0  0  0  0  0  0  0  0
   56.3423   23.2216   46.4357 H   0  0  0  0  0  0  0  0  0  0  0  0
   55.5302   21.8759   45.5662 H   0  0  0  0  0  0  0  0  0  0  0  0
   57.3226   21.9930   45.5662 H   0  0  0  0  0  0  0  0  0  0  0  0
   59.8008   27.9676   48.9799 H   0  0  0  0  0  0  0  0  0  0  0  0
   61.3528   29.9139   49.0165 H   0  0  0  0  0  0  0  0  0  0  0  0
   61.9288   31.0917   46.8960 H   0  0  0  0  0  0  0  0  0  0  0  0
   61.0401   30.2581   44.7246 H   0  0  0  0  0  0  0  0  0  0  0  0
   60.2670   27.4960   43.7800 H   0  0  0  0  0  0  0  0  0  0  0  0
   56.2740   28.9300   44.1570 H   0  0  0  0  0  0  0  0  0  0  0  0
   57.7457   31.5479   43.0658 H   0  0  0  0  0  0  0  0  0  0  0  0
   58.6946   33.5612   44.1834 H   0  0  0  0  0  0  0  0  0  0  0  0
   59.9571   34.9872   45.2960 H   0  0  0  0  0  0  0  0  0  0  0  0
   60.4830   35.4321   46.9557 H   0  0  0  0  0  0  0  0  0  0  0  0
   61.2984   32.8139   45.6114 H   0  0  0  0  0  0  0  0  0  0  0  0
   62.2540   34.3414   45.4597 H   0  0  0  0  0  0  0  0  0  0  0  0
   60.7364   34.5978   48.5662 H   0  0  0  0  0  0  0  0  0  0  0  0
   61.8660   34.1862   50.7522 H   0  0  0  0  0  0  0  0  0  0  0  0
   63.9896   32.8767   50.8389 H   0  0  0  0  0  0  0  0  0  0  0  0
   64.9848   31.9691   48.7347 H   0  0  0  0  0  0  0  0  0  0  0  0
   63.8617   32.3769   46.5433 H   0  0  0  0  0  0  0  0  0  0  0  0
   58.9960   32.6200   50.1640 H   0  0  0  0  0  0  0  0  0  0  0  0
   59.1660   33.5420   48.6350 H   0  0  0  0  0  0  0  0  0  0  0  0
   57.4157   29.5647   46.8838 H   0  0  0  0  0  0  0  0  0  0  0  0
  1  2  1  0
  2  3  1  0
  3  4  1  0
  4  5  1  0
  5  6  1  0
  6  7  2  0
  6  8  1  0
  8  9  1  0
  9 10  1  0
  9 11  1  0
  9 12  1  0
  2 13  1  0
 13 14  2  0
 14 15  1  0
 15 16  2  0
 16 17  1  0
 17 18  2  0
 18 19  1  0
 19 20  1  0
 20 21  2  0
 20 22  1  0
 22 23  1  0
 23 24  2  0
 24 25  1  0
 25 26  2  0
 26 27  1  0
 27 28  1  0
 28 29  1  0
 29 30  1  0
 30 31  2  0
 31 32  1  0
 32 33  2  0
 33 34  1  0
 34 35  2  0
 26 36  1  0
 36 37  1  0
 37 38  1  0
 37 39  2  0
 36 40  2  0
 18 13  1  0
 40 23  1  0
 35 30  1  0
  1 41  1  0
  1 42  1  0
  1 43  1  0
  3 44  1  0
  3 45  1  0
  4 46  1  0
  4 47  1  0
 10 48  1  0
 10 49  1  0
 10 50  1  0
 11 51  1  0
 11 52  1  0
 11 53  1  0
 12 54  1  0
 12 55  1  0
 12 56  1  0
 14 57  1  0
 15 58  1  0
 16 59  1  0
 17 60  1  0
 19 61  1  0
 22 62  1  0
 24 63  1  0
 25 64  1  0
 28 65  1  0
 28 66  1  0
 29 67  1  0
 29 68  1  0
 31 69  1  0
 32 70  1  0
 33 71  1  0
 34 72  1  0
 35 73  1  0
 38 74  1  0
 38 75  1  0
 40 76  1  0
M  CHG  1   5  -1
M  END
>  <UniqueID>  (82) 
76

>  <SMILES>  (82) 
CN(CC[N-]C(=O)OC(C)(C)C)c1ccccc1NC(=S)Nc1ccc(OCCc2ccccc2)c(C(N)=O)c1

>  <Energy>  (82) 
77.21516443840831

>  <Genealogy>  (82) 
CN(CC[N-]C(=O)OC(C)(C)C)c1ccccc1NC(=S)Nc1ccc(OCCc2ccccc2)c(C(N)=O)c1 (protonated)
CN(CC[N-]C(=O)OC(C)(C)C)c1ccccc1NC(=S)Nc1ccc(OCCc2ccccc2)c(C(N)=O)c1 (3D coordinates assigned)
CN(CC[N-]C(=O)OC(C)(C)C)c1ccccc1NC(=S)Nc1ccc(OCCc2ccccc2)c(C(N)=O)c1 (optimized conformer: 77.21516443840831 kcal/mol)

>  <smiles>  (82) 
CN(CCNC(=O)OC(C)(C)C)c1ccccc1NC(=S)Nc1ccc(OCCc2ccccc2)c(C(N)=O)c1

>  <score_type>  (82) 
oracle

>  <origin>  (82) 
adg

>  <m_score__min__energy>  (82) 
-10.07

>  <m_primary>  (82) 
energy

$$$$
82:0
     RDKit          3D

 71 75  0  0  1  0  0  0  0  0999 V2000
   61.0610   30.6040   50.6610 C   0  0  0  0  0  0  0  0  0  0  0  0
   60.4090   29.6440   49.7280 C   0  0  0  0  0  0  0  0  0  0  0  0
   61.0590   28.5130   49.3460 C   0  0  0  0  0  0  0  0  0  0  0  0
   60.4330   27.6320   48.4740 C   0  0  0  0  0  0  0  0  0  0  0  0
   59.1630   27.8710   47.9820 C   0  0  0  0  0  0  0  0  0  0  0  0
   58.6110   26.8750   47.0760 C   0  0  0  0  0  0  0  0  0  0  0  0
   59.2760   25.8340   46.8400 O   0  0  0  0  0  0  0  0  0  0  0  0
   57.3530   27.0060   46.4320 N   0  0  0  0  0  0  0  0  0  0  0  0
   56.9560   25.9400   45.5750 C   0  0  0  0  0  0  0  0  0  0  0  0
   57.7390   25.7120   44.4650 C   0  0  0  0  0  0  0  0  0  0  0  0
   57.3950   24.6900   43.6000 C   0  0  0  0  0  0  0  0  0  0  0  0
   56.2770   23.9230   43.8710 C   0  0  0  0  0  0  0  0  0  0  0  0
   55.8660   22.8120   42.9750 C   0  0  0  0  0  0  0  0  0  0  0  0
   56.3900   21.5380   43.4300 N   0  0  0  0  0  0  0  0  0  0  0  0
   55.9350   21.2570   44.7990 C   0  0  0  0  0  0  0  0  0  0  0  0
   57.8360   21.6300   43.4830 C   0  0  0  0  0  0  0  0  0  0  0  0
   55.4870   24.1590   44.9980 C   0  0  0  0  0  0  0  0  0  0  0  0
   55.8250   25.1760   45.8600 C   0  0  0  0  0  0  0  0  0  0  0  0
   58.5140   29.0000   48.3630 C   0  0  0  0  0  0  0  0  0  0  0  0
   59.1300   29.8810   49.2290 C   0  0  0  0  0  0  0  0  0  0  0  0
   58.5100   31.0890   49.6740 N   0  0  0  0  0  0  0  0  0  0  0  0
   59.0520   32.2100   49.3290 C   0  0  0  0  0  0  0  0  0  0  0  0
   59.4890   33.1060   50.2330 N   0  0  0  0  0  0  0  0  0  0  0  0
   60.0550   34.2770   49.8920 C   0  0  0  0  0  0  0  0  0  0  0  0
   60.1840   34.5490   48.5660 N   0  0  0  0  0  0  0  0  0  0  0  0
   59.7640   33.6850   47.6240 C   0  0  0  0  0  0  0  0  0  0  0  0
   59.9240   34.0230   46.2990 C   0  0  0  0  0  0  0  0  0  0  0  0
   59.4900   33.1310   45.3610 N   0  0  0  0  0  0  0  0  0  0  0  0
   58.9230   31.9600   45.7320 C   0  0  0  0  0  0  0  0  0  0  0  0
   58.4760   31.0420   44.7350 N   0  0  0  0  0  0  0  0  0  0  0  0
   58.7370   29.6190   44.8470 C   0  0  0  0  0  0  0  0  0  0  0  0
   57.7760   28.8210   43.9950 C   0  0  0  0  0  0  0  0  0  0  0  0
   56.3950   29.4280   43.9630 C   0  0  0  0  0  0  0  0  0  0  0  0
   55.6860   29.2370   45.2080 N   0  0  0  0  0  0  0  0  0  0  0  0
   56.3610   30.8690   43.5830 C   0  0  0  0  0  0  0  0  0  0  0  0
   57.7400   31.4820   43.5650 C   0  0  0  0  0  0  0  0  0  0  0  0
   58.7630   31.6240   47.0240 N   0  0  0  0  0  0  0  0  0  0  0  0
   59.1790   32.4770   47.9840 C   0  0  0  0  0  0  0  0  0  0  0  0
   60.8565   30.3028   51.6990 H   0  0  0  0  0  0  0  0  0  0  0  0
   62.1471   30.6046   50.4866 H   0  0  0  0  0  0  0  0  0  0  0  0
   60.6611   31.6138   50.4866 H   0  0  0  0  0  0  0  0  0  0  0  0
   62.0696   28.2980   49.7234 H   0  0  0  0  0  0  0  0  0  0  0  0
   60.9623   26.7183   48.1660 H   0  0  0  0  0  0  0  0  0  0  0  0
   56.7730   27.8560   46.6050 H   0  0  0  0  0  0  0  0  0  0  0  0
   58.6250   26.3340   44.2697 H   0  0  0  0  0  0  0  0  0  0  0  0
   58.0039   24.4893   42.7062 H   0  0  0  0  0  0  0  0  0  0  0  0
   54.7675   22.7589   42.9528 H   0  0  0  0  0  0  0  0  0  0  0  0
   56.2697   23.0117   41.9714 H   0  0  0  0  0  0  0  0  0  0  0  0
   56.6434   21.6945   45.5179 H   0  0  0  0  0  0  0  0  0  0  0  0
   54.9386   21.6973   44.9519 H   0  0  0  0  0  0  0  0  0  0  0  0
   55.8825   20.1689   44.9519 H   0  0  0  0  0  0  0  0  0  0  0  0
   58.1638   21.6509   44.5328 H   0  0  0  0  0  0  0  0  0  0  0  0
   58.2776   20.7581   42.9782 H   0  0  0  0  0  0  0  0  0  0  0  0
   58.1636   22.5508   42.9782 H   0  0  0  0  0  0  0  0  0  0  0  0
   54.6016   23.5366   45.1947 H   0  0  0  0  0  0  0  0  0  0  0  0
   55.2172   25.3819   46.7534 H   0  0  0  0  0  0  0  0  0  0  0  0
   57.5033   29.2119   47.9842 H   0  0  0  0  0  0  0  0  0  0  0  0
   59.3990   32.9160   51.2650 H   0  0  0  0  0  0  0  0  0  0  0  0
   60.4006   34.9881   50.6568 H   0  0  0  0  0  0  0  0  0  0  0  0
   60.3852   34.9779   46.0065 H   0  0  0  0  0  0  0  0  0  0  0  0
   59.7658   29.4152   44.5152 H   0  0  0  0  0  0  0  0  0  0  0  0
   58.6034   29.3207   45.8973 H   0  0  0  0  0  0  0  0  0  0  0  0
   58.1668   28.7780   42.9677 H   0  0  0  0  0  0  0  0  0  0  0  0
   57.6908   27.8170   44.4364 H   0  0  0  0  0  0  0  0  0  0  0  0
   55.8818   28.8761   43.1617 H   0  0  0  0  0  0  0  0  0  0  0  0
   54.7700   29.7360   45.2370 H   0  0  0  0  0  0  0  0  0  0  0  0
   56.2780   29.3760   46.0470 H   0  0  0  0  0  0  0  0  0  0  0  0
   55.9182   30.9614   42.5803 H   0  0  0  0  0  0  0  0  0  0  0  0
   55.7612   31.4042   44.3339 H   0  0  0  0  0  0  0  0  0  0  0  0
   58.2714   31.1643   42.6558 H   0  0  0  0  0  0  0  0  0  0  0  0
   57.6557   32.5787   43.5739 H   0  0  0  0  0  0  0  0  0  0  0  0
  1  2  1  0
  2  3  2  0
  3  4  1  0
  4  5  2  0
  5  6  1  0
  6  7  2  0
  6  8  1  0
  8  9  1  0
  9 10  2  0
 10 11  1  0
 11 12  2  0
 12 13  1  0
 13 14  1  0
 14 15  1  0
 14 16  1  0
 12 17  1  0
 17 18  2  0
  5 19  1  0
 19 20  2  0
 20 21  1  0
 21 22  2  0
 22 23  1  0
 23 24  1  0
 24 25  2  0
 25 26  1  0
 26 27  2  0
 27 28  1  0
 28 29  2  0
 29 30  1  0
 30 31  1  0
 31 32  1  0
 32 33  1  0
 33 34  1  0
 33 35  1  0
 35 36  1  0
 29 37  1  0
 37 38  2  0
 20  2  1  0
 38 22  1  0
 18  9  1  0
 38 26  1  0
 36 30  1  0
  1 39  1  0
  1 40  1  0
  1 41  1  0
  3 42  1  0
  4 43  1  0
  8 44  1  0
 10 45  1  0
 11 46  1  0
 13 47  1  0
 13 48  1  0
 15 49  1  0
 15 50  1  0
 15 51  1  0
 16 52  1  0
 16 53  1  0
 16 54  1  0
 17 55  1  0
 18 56  1  0
 19 57  1  0
 23 58  1  0
 24 59  1  0
 27 60  1  0
 31 61  1  0
 31 62  1  0
 32 63  1  0
 32 64  1  0
 33 65  1  0
 34 66  1  0
 34 67  1  0
 35 68  1  0
 35 69  1  0
 36 70  1  0
 36 71  1  0
M  END
>  <smiles>  (83) 
Cc1ccc(C(=O)Nc2ccc(CN(C)C)cc2)cc1N=c1[nH]cnc2cnc(N3CCC(N)CC3)nc12

>  <score_type>  (83) 
oracle

>  <origin>  (83) 
adg

>  <m_score__min__energy>  (83) 
-10.02

>  <m_primary>  (83) 
energy

$$$$
83:0
     RDKit          3D

 55 57  0  0  0  0  0  0  0  0999 V2000
   58.9961   25.5644   47.8619 H   0  0  0  0  0  0  0  0  0  0  0  0
   58.4750   26.3550   47.3020 C   0  0  0  0  0  0  0  0  0  0  0  0
   57.0160   26.1880   46.4830 S   0  0  0  0  0  0  0  0  0  0  0  0
   56.9880   27.8030   45.9940 C   0  0  0  0  0  0  0  0  0  0  0  0
   56.0940   28.3600   45.2320 N   0  0  0  0  0  0  0  0  0  0  0  0
   56.2240   29.6190   44.5610 C   0  0  0  0  0  0  0  0  0  0  0  0
   55.2220   30.3780   44.4890 O   0  0  0  0  0  0  0  0  0  0  0  0
   57.4920   30.0050   43.8450 C   0  0  0  0  0  0  0  0  0  0  0  0
   58.3474   29.5594   44.3739 H   0  0  0  0  0  0  0  0  0  0  0  0
   57.4235   29.6338   42.8118 H   0  0  0  0  0  0  0  0  0  0  0  0
   57.6840   31.5280   43.7880 C   0  0  0  0  0  0  0  0  0  0  0  0
   58.7628   31.7420   43.8079 H   0  0  0  0  0  0  0  0  0  0  0  0
   57.2012   31.8761   42.8629 H   0  0  0  0  0  0  0  0  0  0  0  0
   57.0190   32.2840   44.9500 C   0  0  0  0  0  0  0  0  0  0  0  0
   56.1887   32.8853   44.5512 H   0  0  0  0  0  0  0  0  0  0  0  0
   56.6636   31.5380   45.6761 H   0  0  0  0  0  0  0  0  0  0  0  0
   57.9800   33.1990   45.6640 C   0  0  0  0  0  0  0  0  0  0  0  0
   58.6710   34.1950   44.9530 C   0  0  0  0  0  0  0  0  0  0  0  0
   58.5274   34.2926   43.8668 H   0  0  0  0  0  0  0  0  0  0  0  0
   59.5410   35.0630   45.6220 C   0  0  0  0  0  0  0  0  0  0  0  0
   60.0852   35.8365   45.0602 H   0  0  0  0  0  0  0  0  0  0  0  0
   59.7190   34.9480   47.0030 C   0  0  0  0  0  0  0  0  0  0  0  0
   60.4015   35.6330   47.5274 H   0  0  0  0  0  0  0  0  0  0  0  0
   59.0320   33.9650   47.7190 C   0  0  0  0  0  0  0  0  0  0  0  0
   59.1706   33.8791   48.8069 H   0  0  0  0  0  0  0  0  0  0  0  0
   58.1680   33.0900   47.0530 C   0  0  0  0  0  0  0  0  0  0  0  0
   57.6330   32.3129   47.6185 H   0  0  0  0  0  0  0  0  0  0  0  0
   58.0760   28.4720   46.4250 N   0  0  0  0  0  0  0  0  0  0  0  0
   58.9090   27.6720   47.1470 C   0  0  0  0  0  0  0  0  0  0  0  0
   60.1600   28.1930   47.7910 C   0  0  0  0  0  0  0  0  0  0  0  0
   60.9508   28.2617   47.0295 H   0  0  0  0  0  0  0  0  0  0  0  0
   60.4460   27.4991   48.5952 H   0  0  0  0  0  0  0  0  0  0  0  0
   59.9490   29.5520   48.3980 C   0  0  0  0  0  0  0  0  0  0  0  0
   60.2990   30.5820   47.7580 O   0  0  0  0  0  0  0  0  0  0  0  0
   59.3770   29.6700   49.7120 N   0  0  0  0  0  0  0  0  0  0  0  0
   58.9580   28.8200   50.1510 H   0  0  0  0  0  0  0  0  0  0  0  0
   59.1910   30.9270   50.3810 C   0  0  0  0  0  0  0  0  0  0  0  0
   60.0980   31.9660   50.1360 C   0  0  0  0  0  0  0  0  0  0  0  0
   60.9375   31.8001   49.4448 H   0  0  0  0  0  0  0  0  0  0  0  0
   59.9530   33.2100   50.7560 C   0  0  0  0  0  0  0  0  0  0  0  0
   60.8930   34.2080   50.4710 O   0  0  0  0  0  0  0  0  0  0  0  0
   61.9810   34.0510   49.5660 C   0  0  0  0  0  0  0  0  0  0  0  0
   62.9136   33.9164   50.1336 H   0  0  0  0  0  0  0  0  0  0  0  0
   61.8067   33.1687   48.9326 H   0  0  0  0  0  0  0  0  0  0  0  0
   62.0632   34.9466   48.9326 H   0  0  0  0  0  0  0  0  0  0  0  0
   58.8740   33.4160   51.6370 C   0  0  0  0  0  0  0  0  0  0  0  0
   58.7565   34.3862   52.1420 H   0  0  0  0  0  0  0  0  0  0  0  0
   57.9530   32.3940   51.8720 C   0  0  0  0  0  0  0  0  0  0  0  0
   57.1150   32.5632   52.5642 H   0  0  0  0  0  0  0  0  0  0  0  0
   58.0880   31.1480   51.2300 C   0  0  0  0  0  0  0  0  0  0  0  0
   57.1390   30.1270   51.3900 O   0  0  0  0  0  0  0  0  0  0  0  0
   56.1580   30.0890   52.4210 C   0  0  0  0  0  0  0  0  0  0  0  0
   56.6558   30.1083   53.4017 H   0  0  0  0  0  0  0  0  0  0  0  0
   55.4953   30.9621   52.3290 H   0  0  0  0  0  0  0  0  0  0  0  0
   55.5649   29.1672   52.3290 H   0  0  0  0  0  0  0  0  0  0  0  0
  1  2  1  0
  2  3  1  0
  3  4  1  0
  4  5  2  0
  5  6  1  0
  6  7  2  0
  6  8  1  0
  8  9  1  0
  8 10  1  0
  8 11  1  0
 11 12  1  0
 11 13  1  0
 11 14  1  0
 14 15  1  0
 14 16  1  0
 14 17  1  0
 17 18  2  0
 18 19  1  0
 18 20  1  0
 20 21  1  0
 20 22  2  0
 22 23  1  0
 22 24  1  0
 24 25  1  0
 24 26  2  0
 26 27  1  0
  4 28  1  0
 28 29  1  0
 29 30  1  0
 30 31  1  0
 30 32  1  0
 30 33  1  0
 33 34  2  0
 33 35  1  0
 35 36  1  0
 35 37  1  0
 37 38  2  0
 38 39  1  0
 38 40  1  0
 40 41  1  0
 41 42  1  0
 42 43  1  0
 42 44  1  0
 42 45  1  0
 40 46  2  0
 46 47  1  0
 46 48  1  0
 48 49  1  0
 48 50  2  0
 50 51  1  0
 51 52  1  0
 52 53  1  0
 52 54  1  0
 52 55  1  0
 29  2  2  0
 50 37  1  0
 26 17  1  0
M  CHG  1  28  -1
M  END
>  <UniqueID>  (84) 
77

>  <SMILES>  (84) 
COc1ccc(OC)c(NC(=O)Cc2cs/c(=N\C(=O)CCCc3ccccc3)[n-]2)c1

>  <Energy>  (84) 
90.90110336368923

>  <Genealogy>  (84) 
COc1ccc(OC)c(NC(=O)Cc2csc(=NC(=O)CCCc3ccccc3)[n-]2)c1 (protonated)
COc1ccc(OC)c(NC(=O)Cc2cs/c(=N\C(=O)CCCc3ccccc3)[n-]2)c1 (cis-trans isomerization)
COc1ccc(OC)c(NC(=O)Cc2cs/c(=N\C(=O)CCCc3ccccc3)[n-]2)c1 (3D coordinates assigned)
COc1ccc(OC)c(NC(=O)Cc2cs/c(=N\C(=O)CCCc3ccccc3)[n-]2)c1 (optimized conformer: 90.90110336368923 kcal/mol)

>  <smiles>  (84) 
COc1ccc(OC)c(NC(=O)Cc2csc(=NC(=O)CCCc3ccccc3)[nH]2)c1

>  <score_type>  (84) 
oracle

>  <origin>  (84) 
adg

>  <m_score__min__energy>  (84) 
-9.9600000000000009

>  <m_primary>  (84) 
energy

$$$$
84:0
     RDKit          3D

 51 53  0  0  0  0  0  0  0  0999 V2000
   59.4920   33.1490   50.1220 C   0  0  0  0  0  0  0  0  0  0  0  0
   58.9010   32.8500   48.8240 N   0  0  0  0  0  0  0  0  0  0  0  0
   59.0870   33.7180   47.6930 C   0  0  0  0  0  0  0  0  0  0  0  0
   59.6540   34.8340   47.8540 O   0  0  0  0  0  0  0  0  0  0  0  0
   58.6040   33.3340   46.3460 C   0  0  0  0  0  0  0  0  0  0  0  0
   59.2520   33.8200   45.1980 C   0  0  0  0  0  0  0  0  0  0  0  0
   58.8060   33.4560   43.9260 C   0  0  0  0  0  0  0  0  0  0  0  0
   57.7040   32.6100   43.7830 C   0  0  0  0  0  0  0  0  0  0  0  0
   57.0350   32.1240   44.9120 C   0  0  0  0  0  0  0  0  0  0  0  0
   55.9150   31.2470   44.7280 N   0  0  0  0  0  0  0  0  0  0  0  0
   55.9860   29.8840   44.2960 C   0  0  0  0  0  0  0  0  0  0  0  0
   56.0790   29.6370   43.0650 O   0  0  0  0  0  0  0  0  0  0  0  0
   55.9170   28.8150   45.2510 N   0  0  0  0  0  0  0  0  0  0  0  0
   56.9910   27.8760   45.6060 C   0  0  0  0  0  0  0  0  0  0  0  0
   56.3980   26.5320   46.0020 C   0  0  0  0  0  0  0  0  0  0  0  0
   55.1450   26.3920   46.0610 O   0  0  0  0  0  0  0  0  0  0  0  0
   57.2660   25.4210   46.2850 N   0  0  0  0  0  0  0  0  0  0  0  0
   57.4670   24.3400   45.5830 C   0  0  0  0  0  0  0  0  0  0  0  0
   56.6950   24.0030   44.4500 C   0  0  0  0  0  0  0  0  0  0  0  0
   56.9860   22.8320   43.7440 C   0  0  0  0  0  0  0  0  0  0  0  0
   58.0370   22.0140   44.1540 C   0  0  0  0  0  0  0  0  0  0  0  0
   58.7950   22.3850   45.2640 C   0  0  0  0  0  0  0  0  0  0  0  0
   58.4990   23.5260   45.9410 N   0  0  0  0  0  0  0  0  0  0  0  0
   57.8370   28.4860   46.7750 C   0  0  0  0  0  0  0  0  0  0  0  0
   58.9340   29.4170   46.2490 C   0  0  0  0  0  0  0  0  0  0  0  0
   59.9510   28.6520   45.3770 C   0  0  0  0  0  0  0  0  0  0  0  0
   59.3400   27.4370   44.6530 C   0  0  0  0  0  0  0  0  0  0  0  0
   57.8590   27.6660   44.3270 C   0  0  0  0  0  0  0  0  0  0  0  0
   57.5100   32.4620   46.1920 C   0  0  0  0  0  0  0  0  0  0  0  0
   58.8164   32.8072   50.9200 H   0  0  0  0  0  0  0  0  0  0  0  0
   60.4583   32.6313   50.2129 H   0  0  0  0  0  0  0  0  0  0  0  0
   59.6474   34.2342   50.2129 H   0  0  0  0  0  0  0  0  0  0  0  0
   58.2930   32.0050   48.7440 H   0  0  0  0  0  0  0  0  0  0  0  0
   60.1167   34.4919   45.3021 H   0  0  0  0  0  0  0  0  0  0  0  0
   59.3243   33.8368   43.0336 H   0  0  0  0  0  0  0  0  0  0  0  0
   57.3602   32.3243   42.7779 H   0  0  0  0  0  0  0  0  0  0  0  0
   55.8716   24.6562   44.1255 H   0  0  0  0  0  0  0  0  0  0  0  0
   56.3853   22.5563   42.8647 H   0  0  0  0  0  0  0  0  0  0  0  0
   58.2659   21.0866   43.6085 H   0  0  0  0  0  0  0  0  0  0  0  0
   59.6337   21.7535   45.5923 H   0  0  0  0  0  0  0  0  0  0  0  0
   57.1707   29.0577   47.4377 H   0  0  0  0  0  0  0  0  0  0  0  0
   58.3177   27.6602   47.3200 H   0  0  0  0  0  0  0  0  0  0  0  0
   58.4704   30.2109   45.6450 H   0  0  0  0  0  0  0  0  0  0  0  0
   59.4685   29.8437   47.1105 H   0  0  0  0  0  0  0  0  0  0  0  0
   60.3527   29.3431   44.6214 H   0  0  0  0  0  0  0  0  0  0  0  0
   60.7347   28.2712   46.0484 H   0  0  0  0  0  0  0  0  0  0  0  0
   59.8902   27.2649   43.7161 H   0  0  0  0  0  0  0  0  0  0  0  0
   59.4171   26.5636   45.3173 H   0  0  0  0  0  0  0  0  0  0  0  0
   57.7719   28.5593   43.6910 H   0  0  0  0  0  0  0  0  0  0  0  0
   57.4868   26.7666   43.8146 H   0  0  0  0  0  0  0  0  0  0  0  0
   57.0211   32.0402   47.0825 H   0  0  0  0  0  0  0  0  0  0  0  0
  1  2  1  0
  2  3  1  0
  3  4  2  0
  3  5  1  0
  5  6  2  0
  6  7  1  0
  7  8  2  0
  8  9  1  0
  9 10  1  0
 10 11  1  0
 11 12  2  0
 11 13  1  0
 13 14  1  0
 14 15  1  0
 15 16  2  0
 15 17  1  0
 17 18  2  3
 18 19  1  0
 19 20  2  0
 20 21  1  0
 21 22  2  0
 22 23  1  0
 14 24  1  0
 24 25  1  0
 25 26  1  0
 26 27  1  0
 27 28  1  0
  9 29  2  0
 29  5  1  0
 28 14  1  0
 23 18  1  0
  1 30  1  0
  1 31  1  0
  1 32  1  0
  2 33  1  0
  6 34  1  0
  7 35  1  0
  8 36  1  0
 19 37  1  0
 20 38  1  0
 21 39  1  0
 22 40  1  0
 24 41  1  0
 24 42  1  0
 25 43  1  0
 25 44  1  0
 26 45  1  0
 26 46  1  0
 27 47  1  0
 27 48  1  0
 28 49  1  0
 28 50  1  0
 29 51  1  0
M  CHG  3  10  -1  13  -1  23  -1
M  END
>  <UniqueID>  (85) 
78

>  <SMILES>  (85) 
CNC(=O)c1cccc([N-]C(=O)[N-]C2(C(=O)N=c3cccc[n-]3)CCCCC2)c1

>  <Energy>  (85) 
67.2181168613489

>  <Genealogy>  (85) 
CNC(=O)c1cccc([N-]C(=O)[N-]C2(C(=O)N=c3cccc[n-]3)CCCCC2)c1 (protonated)
CNC(=O)c1cccc([N-]C(=O)[N-]C2(C(=O)N=c3cccc[n-]3)CCCCC2)c1 (3D coordinates assigned)
CNC(=O)c1cccc([N-]C(=O)[N-]C2(C(=O)N=c3cccc[n-]3)CCCCC2)c1 (nonaromatic ring conformer: 67.2181168613489 kcal/mol)

>  <smiles>  (85) 
CNC(=O)c1cccc(NC(=O)NC2(C(=O)N=c3cccc[nH]3)CCCCC2)c1

>  <score_type>  (85) 
oracle

>  <origin>  (85) 
adg

>  <m_score__min__energy>  (85) 
-13.970000000000001

>  <m_primary>  (85) 
energy

$$$$
85:0
     RDKit          3D

 48 51  0  0  0  0  0  0  0  0999 V2000
   59.2808   28.2509   49.4051 H   0  0  0  0  0  0  0  0  0  0  0  0
   59.6370   28.6330   48.4370 C   0  0  0  0  0  0  0  0  0  0  0  0
   59.3210   27.9650   47.3260 C   0  0  0  0  0  0  0  0  0  0  0  0
   59.1840   26.6180   47.3320 N   0  0  0  0  0  0  0  0  0  0  0  0
   59.0370   26.2810   46.0380 C   0  0  0  0  0  0  0  0  0  0  0  0
   58.8800   25.0150   45.6320 C   0  0  0  0  0  0  0  0  0  0  0  0
   59.7778   24.3940   45.4963 H   0  0  0  0  0  0  0  0  0  0  0  0
   57.5970   24.4280   45.3650 N   0  0  0  0  0  0  0  0  0  0  0  0
   56.5010   24.7120   46.3040 C   0  0  0  0  0  0  0  0  0  0  0  0
   56.8989   24.7146   47.3295 H   0  0  0  0  0  0  0  0  0  0  0  0
   55.7326   23.9335   46.1878 H   0  0  0  0  0  0  0  0  0  0  0  0
   55.8640   26.0650   46.0150 C   0  0  0  0  0  0  0  0  0  0  0  0
   55.6268   26.5687   46.9637 H   0  0  0  0  0  0  0  0  0  0  0  0
   56.5652   26.6843   45.4363 H   0  0  0  0  0  0  0  0  0  0  0  0
   54.9400   25.9191   45.4363 H   0  0  0  0  0  0  0  0  0  0  0  0
   57.5570   23.2180   44.5300 C   0  0  0  0  0  0  0  0  0  0  0  0
   58.5740   22.9910   44.1778 H   0  0  0  0  0  0  0  0  0  0  0  0
   57.1631   22.3887   45.1359 H   0  0  0  0  0  0  0  0  0  0  0  0
   56.6450   23.4120   43.3250 C   0  0  0  0  0  0  0  0  0  0  0  0
   55.6233   23.6293   43.6697 H   0  0  0  0  0  0  0  0  0  0  0  0
   57.0135   24.2518   42.7177 H   0  0  0  0  0  0  0  0  0  0  0  0
   56.6398   22.4949   42.7177 H   0  0  0  0  0  0  0  0  0  0  0  0
   59.0720   27.4340   45.2800 C   0  0  0  0  0  0  0  0  0  0  0  0
   58.9890   27.4980   44.0240 O   0  0  0  0  0  0  0  0  0  0  0  0
   59.2220   28.5080   46.0870 N   0  0  0  0  0  0  0  0  0  0  0  0
   58.8670   29.8730   45.7750 C   0  0  0  0  0  0  0  0  0  0  0  0
   57.8820   30.1270   44.7920 C   0  0  0  0  0  0  0  0  0  0  0  0
   57.4381   29.2842   44.2419 H   0  0  0  0  0  0  0  0  0  0  0  0
   57.4640   31.4250   44.5080 C   0  0  0  0  0  0  0  0  0  0  0  0
   56.7144   31.6015   43.7225 H   0  0  0  0  0  0  0  0  0  0  0  0
   57.9930   32.4970   45.2160 C   0  0  0  0  0  0  0  0  0  0  0  0
   57.4470   34.1300   44.8770 Cl  0  0  0  0  0  0  0  0  0  0  0  0
   58.9440   32.2700   46.2100 C   0  0  0  0  0  0  0  0  0  0  0  0
   59.3428   33.1216   46.7807 H   0  0  0  0  0  0  0  0  0  0  0  0
   59.4040   30.9670   46.4970 C   0  0  0  0  0  0  0  0  0  0  0  0
   60.4360   30.8090   47.5590 C   0  0  0  0  0  0  0  0  0  0  0  0
   61.4790   31.8520   47.7410 C   0  0  0  0  0  0  0  0  0  0  0  0
   62.7440   31.7100   47.1400 C   0  0  0  0  0  0  0  0  0  0  0  0
   62.9671   30.8153   46.5402 H   0  0  0  0  0  0  0  0  0  0  0  0
   63.7190   32.7000   47.3010 C   0  0  0  0  0  0  0  0  0  0  0  0
   64.7081   32.5771   46.8356 H   0  0  0  0  0  0  0  0  0  0  0  0
   63.4390   33.8450   48.0520 C   0  0  0  0  0  0  0  0  0  0  0  0
   64.2082   34.6210   48.1791 H   0  0  0  0  0  0  0  0  0  0  0  0
   62.1830   34.0040   48.6410 C   0  0  0  0  0  0  0  0  0  0  0  0
   61.9623   34.9070   49.2291 H   0  0  0  0  0  0  0  0  0  0  0  0
   61.2050   33.0160   48.4840 C   0  0  0  0  0  0  0  0  0  0  0  0
   60.2149   33.1496   48.9444 H   0  0  0  0  0  0  0  0  0  0  0  0
   60.4230   29.8290   48.4140 N   0  0  0  0  0  0  0  0  0  0  0  0
  1  2  1  0
  2  3  2  0
  3  4  1  0
  4  5  1  0
  5  6  2  0
  6  7  1  0
  6  8  1  0
  8  9  1  0
  9 10  1  0
  9 11  1  0
  9 12  1  0
 12 13  1  0
 12 14  1  0
 12 15  1  0
  8 16  1  0
 16 17  1  0
 16 18  1  0
 16 19  1  0
 19 20  1  0
 19 21  1  0
 19 22  1  0
  5 23  1  0
 23 24  2  0
 23 25  1  0
 25 26  1  0
 26 27  2  0
 27 28  1  0
 27 29  1  0
 29 30  1  0
 29 31  2  0
 31 32  1  0
 31 33  1  0
 33 34  1  0
 33 35  2  0
 35 36  1  0
 36 37  1  0
 37 38  2  0
 38 39  1  0
 38 40  1  0
 40 41  1  0
 40 42  2  0
 42 43  1  0
 42 44  1  0
 44 45  1  0
 44 46  2  0
 46 47  1  0
 36 48  2  0
 48  2  1  0
 25  3  1  0
 35 26  1  0
 46 37  1  0
M  CHG  1   4  -1
M  END
>  <UniqueID>  (86) 
79

>  <SMILES>  (86) 
CCN(/C=c1/[n-]c2n(c1=O)-c1ccc(Cl)cc1C(c1ccccc1)=NC=2)CC

>  <Energy>  (86) 
117.42994865901349

>  <Genealogy>  (86) 
CCN(C=c1[n-]c2n(c1=O)-c1ccc(Cl)cc1C(c1ccccc1)=NC=2)CC (protonated)
CCN(/C=c1/[n-]c2n(c1=O)-c1ccc(Cl)cc1C(c1ccccc1)=NC=2)CC (cis-trans isomerization)
CCN(/C=c1/[n-]c2n(c1=O)-c1ccc(Cl)cc1C(c1ccccc1)=NC=2)CC (3D coordinates assigned)
CCN(/C=c1/[n-]c2n(c1=O)-c1ccc(Cl)cc1C(c1ccccc1)=NC=2)CC (nonaromatic ring conformer: 117.42994865901349 kcal/mol)

>  <smiles>  (86) 
CCN(C=c1[nH]c2n(c1=O)-c1ccc(Cl)cc1C(c1ccccc1)=NC=2)CC

>  <score_type>  (86) 
oracle

>  <origin>  (86) 
adg

>  <m_score__min__energy>  (86) 
-8.9800000000000004

>  <m_primary>  (86) 
energy

$$$$
86:0
     RDKit          3D

 41 43  0  0  0  0  0  0  0  0999 V2000
   61.2210   31.1710   51.7190 C   0  0  0  0  0  0  0  0  0  0  0  0
   60.6050   30.2920   50.6660 C   0  0  0  0  0  0  0  0  0  0  0  0
   61.2330   29.0770   50.3420 C   0  0  0  0  0  0  0  0  0  0  0  0
   60.6980   28.2420   49.3580 C   0  0  0  0  0  0  0  0  0  0  0  0
   59.5350   28.6120   48.6830 C   0  0  0  0  0  0  0  0  0  0  0  0
   58.9090   29.8240   48.9810 C   0  0  0  0  0  0  0  0  0  0  0  0
   59.4440   30.6790   49.9550 C   0  0  0  0  0  0  0  0  0  0  0  0
   58.6100   32.2470   50.2610 S   0  0  0  0  0  0  0  0  0  0  0  0
   59.2720   33.0100   48.7790 C   0  0  0  0  0  0  0  0  0  0  0  0
   60.5420   33.5960   48.7980 C   0  0  0  0  0  0  0  0  0  0  0  0
   61.0680   34.1640   47.6360 C   0  0  0  0  0  0  0  0  0  0  0  0
   60.3290   34.1480   46.4500 C   0  0  0  0  0  0  0  0  0  0  0  0
   59.0490   33.5670   46.4200 C   0  0  0  0  0  0  0  0  0  0  0  0
   58.2630   33.5350   45.1660 C   0  0  0  0  0  0  0  0  0  0  0  0
   57.6090   34.5550   44.8200 O   0  0  0  0  0  0  0  0  0  0  0  0
   58.2570   32.3890   44.3050 N   0  0  0  0  0  0  0  0  0  0  0  0
   57.8690   31.0580   44.6800 C   0  0  0  0  0  0  0  0  0  0  0  0
   58.7460   30.1980   45.3590 C   0  0  0  0  0  0  0  0  0  0  0  0
   58.3350   28.9130   45.7200 C   0  0  0  0  0  0  0  0  0  0  0  0
   57.0330   28.4660   45.4230 C   0  0  0  0  0  0  0  0  0  0  0  0
   56.6130   27.0970   45.8120 C   0  0  0  0  0  0  0  0  0  0  0  0
   57.4730   26.1900   45.9810 O   0  0  0  0  0  0  0  0  0  0  0  0
   55.2710   26.7870   45.9960 O   0  0  0  0  0  0  0  0  0  0  0  0
   56.1490   29.3430   44.7630 C   0  0  0  0  0  0  0  0  0  0  0  0
   54.8790   28.9690   44.4620 F   0  0  0  0  0  0  0  0  0  0  0  0
   56.5670   30.6290   44.4040 C   0  0  0  0  0  0  0  0  0  0  0  0
   58.5180   33.0180   47.5990 C   0  0  0  0  0  0  0  0  0  0  0  0
   60.9544   30.7906   52.7161 H   0  0  0  0  0  0  0  0  0  0  0  0
   62.3151   31.1673   51.6056 H   0  0  0  0  0  0  0  0  0  0  0  0
   60.8441   32.1982   51.6056 H   0  0  0  0  0  0  0  0  0  0  0  0
   62.1530   28.7812   50.8674 H   0  0  0  0  0  0  0  0  0  0  0  0
   61.1949   27.2911   49.1152 H   0  0  0  0  0  0  0  0  0  0  0  0
   59.1105   27.9484   47.9152 H   0  0  0  0  0  0  0  0  0  0  0  0
   57.9901   30.1099   48.4482 H   0  0  0  0  0  0  0  0  0  0  0  0
   61.1270   33.6094   49.7295 H   0  0  0  0  0  0  0  0  0  0  0  0
   62.0665   34.6252   47.6541 H   0  0  0  0  0  0  0  0  0  0  0  0
   60.7505   34.5918   45.5360 H   0  0  0  0  0  0  0  0  0  0  0  0
   59.7621   30.5378   45.6081 H   0  0  0  0  0  0  0  0  0  0  0  0
   59.0350   28.2436   46.2414 H   0  0  0  0  0  0  0  0  0  0  0  0
   55.8647   31.3091   43.8998 H   0  0  0  0  0  0  0  0  0  0  0  0
   57.5039   32.5919   47.5953 H   0  0  0  0  0  0  0  0  0  0  0  0
  1  2  1  0
  2  3  2  0
  3  4  1  0
  4  5  2  0
  5  6  1  0
  6  7  2  0
  7  8  1  0
  8  9  1  0
  9 10  2  0
 10 11  1  0
 11 12  2  0
 12 13  1  0
 13 14  1  0
 14 15  2  0
 14 16  1  0
 16 17  1  0
 17 18  2  0
 18 19  1  0
 19 20  2  0
 20 21  1  0
 21 22  2  0
 21 23  1  0
 20 24  1  0
 24 25  1  0
 24 26  2  0
 13 27  2  0
  7  2  1  0
 27  9  1  0
 26 17  1  0
  1 28  1  0
  1 29  1  0
  1 30  1  0
  3 31  1  0
  4 32  1  0
  5 33  1  0
  6 34  1  0
 10 35  1  0
 11 36  1  0
 12 37  1  0
 18 38  1  0
 19 39  1  0
 26 40  1  0
 27 41  1  0
M  CHG  2  16  -1  23  -1
M  END
>  <UniqueID>  (87) 
80

>  <SMILES>  (87) 
Cc1ccccc1Sc1cccc(C(=O)[N-]c2ccc(C(=O)[O-])c(F)c2)c1

>  <Energy>  (87) 
48.17458657283572

>  <Genealogy>  (87) 
Cc1ccccc1Sc1cccc(C(=O)[N-]c2ccc(C(=O)[O-])c(F)c2)c1 (protonated)
Cc1ccccc1Sc1cccc(C(=O)[N-]c2ccc(C(=O)[O-])c(F)c2)c1 (3D coordinates assigned)
Cc1ccccc1Sc1cccc(C(=O)[N-]c2ccc(C(=O)[O-])c(F)c2)c1 (optimized conformer: 48.17458657283572 kcal/mol)

>  <smiles>  (87) 
Cc1ccccc1Sc1cccc(C(=O)Nc2ccc(C(=O)O)c(F)c2)c1

>  <score_type>  (87) 
oracle

>  <origin>  (87) 
adg

>  <m_score__min__energy>  (87) 
-12.460000000000001

>  <m_primary>  (87) 
energy

$$$$
87:0
     RDKit          3D

 47 50  0  0  0  0  0  0  0  0999 V2000
   55.3090   23.3820   43.7880 C   0  0  0  0  0  0  0  0  0  0  0  0
   54.5050   23.7840   44.7710 C   0  0  0  0  0  0  0  0  0  0  0  0
   54.8320   24.9310   45.6430 C   0  0  0  0  0  0  0  0  0  0  0  0
   54.1150   25.9660   45.6200 O   0  0  0  0  0  0  0  0  0  0  0  0
   55.9130   24.8660   46.5820 N   0  0  0  0  0  0  0  0  0  0  0  0
   57.2270   25.4140   46.4070 C   0  0  0  0  0  0  0  0  0  0  0  0
   58.3680   24.5960   46.3840 C   0  0  0  0  0  0  0  0  0  0  0  0
   59.6300   25.1560   46.1720 C   0  0  0  0  0  0  0  0  0  0  0  0
   59.7630   26.5320   45.9710 C   0  0  0  0  0  0  0  0  0  0  0  0
   58.6310   27.3620   45.9830 C   0  0  0  0  0  0  0  0  0  0  0  0
   58.7550   28.8140   45.7380 C   0  0  0  0  0  0  0  0  0  0  0  0
   59.6010   29.6830   46.4090 C   0  0  0  0  0  0  0  0  0  0  0  0
   59.4370   30.9430   45.9400 N   0  0  0  0  0  0  0  0  0  0  0  0
   58.4960   30.8030   44.9830 C   0  0  0  0  0  0  0  0  0  0  0  0
   57.9880   31.8190   44.1710 C   0  0  0  0  0  0  0  0  0  0  0  0
   58.3960   33.0460   44.3210 N   0  0  0  0  0  0  0  0  0  0  0  0
   58.2070   33.8860   45.4730 C   0  0  0  0  0  0  0  0  0  0  0  0
   57.1630   34.5860   45.5920 O   0  0  0  0  0  0  0  0  0  0  0  0
   59.2460   33.9300   46.5310 C   0  0  0  0  0  0  0  0  0  0  0  0
   58.8920   34.1750   47.8690 C   0  0  0  0  0  0  0  0  0  0  0  0
   59.8700   34.2000   48.8650 C   0  0  0  0  0  0  0  0  0  0  0  0
   61.2110   33.9930   48.5420 C   0  0  0  0  0  0  0  0  0  0  0  0
   61.5930   33.7740   47.2080 C   0  0  0  0  0  0  0  0  0  0  0  0
   63.0360   33.5000   46.8610 C   0  0  0  0  0  0  0  0  0  0  0  0
   63.2370   32.1340   46.7970 F   0  0  0  0  0  0  0  0  0  0  0  0
   63.8810   34.0350   47.8170 F   0  0  0  0  0  0  0  0  0  0  0  0
   63.3580   34.0610   45.6370 F   0  0  0  0  0  0  0  0  0  0  0  0
   60.6010   33.7210   46.2110 C   0  0  0  0  0  0  0  0  0  0  0  0
   57.0640   31.4730   43.2230 N   0  0  0  0  0  0  0  0  0  0  0  0
   56.6490   30.1820   43.0580 C   0  0  0  0  0  0  0  0  0  0  0  0
   57.1710   29.1740   43.8810 C   0  0  0  0  0  0  0  0  0  0  0  0
   58.0690   29.5370   44.8330 N   0  0  0  0  0  0  0  0  0  0  0  0
   57.3620   26.7880   46.1760 C   0  0  0  0  0  0  0  0  0  0  0  0
   55.0259   22.5225   43.1626 H   0  0  0  0  0  0  0  0  0  0  0  0
   56.2561   23.9095   43.6016 H   0  0  0  0  0  0  0  0  0  0  0  0
   53.5628   23.2420   44.9398 H   0  0  0  0  0  0  0  0  0  0  0  0
   58.2678   23.5108   46.5334 H   0  0  0  0  0  0  0  0  0  0  0  0
   60.5215   24.5117   46.1633 H   0  0  0  0  0  0  0  0  0  0  0  0
   60.7592   26.9670   45.8026 H   0  0  0  0  0  0  0  0  0  0  0  0
   60.3022   29.3922   47.2051 H   0  0  0  0  0  0  0  0  0  0  0  0
   57.8382   34.3480   48.1329 H   0  0  0  0  0  0  0  0  0  0  0  0
   59.5814   34.3840   49.9104 H   0  0  0  0  0  0  0  0  0  0  0  0
   61.9729   34.0013   49.3354 H   0  0  0  0  0  0  0  0  0  0  0  0
   60.8878   33.5138   45.1694 H   0  0  0  0  0  0  0  0  0  0  0  0
   55.9087   29.9344   42.2830 H   0  0  0  0  0  0  0  0  0  0  0  0
   56.8636   28.1248   43.7597 H   0  0  0  0  0  0  0  0  0  0  0  0
   56.4660   27.4253   46.1451 H   0  0  0  0  0  0  0  0  0  0  0  0
  1  2  2  0
  2  3  1  0
  3  4  2  0
  3  5  1  0
  5  6  1  0
  6  7  2  0
  7  8  1  0
  8  9  2  0
  9 10  1  0
 10 11  1  0
 11 12  2  0
 12 13  1  0
 13 14  2  0
 14 15  1  0
 15 16  2  3
 16 17  1  0
 17 18  2  0
 17 19  1  0
 19 20  2  0
 20 21  1  0
 21 22  2  0
 22 23  1  0
 23 24  1  0
 24 25  1  0
 24 26  1  0
 24 27  1  0
 23 28  2  0
 15 29  1  0
 29 30  1  0
 30 31  2  0
 31 32  1  0
 10 33  2  0
 33  6  1  0
 32 11  1  0
 32 14  1  0
 28 19  1  0
  1 34  1  0
  1 35  1  0
  2 36  1  0
  7 37  1  0
  8 38  1  0
  9 39  1  0
 12 40  1  0
 20 41  1  0
 21 42  1  0
 22 43  1  0
 28 44  1  0
 30 45  1  0
 31 46  1  0
 33 47  1  0
M  CHG  2   5  -1  29  -1
M  END
>  <UniqueID>  (88) 
81

>  <SMILES>  (88) 
C=CC(=O)[N-]c1cccc(-c2cnc3c(=NC(=O)c4cccc(C(F)(F)F)c4)[n-]ccn23)c1

>  <Energy>  (88) 
100.91213778382564

>  <Genealogy>  (88) 
C=CC(=O)[N-]c1cccc(-c2cnc3c(=NC(=O)c4cccc(C(F)(F)F)c4)[n-]ccn23)c1 (protonated)
C=CC(=O)[N-]c1cccc(-c2cnc3c(=NC(=O)c4cccc(C(F)(F)F)c4)[n-]ccn23)c1 (3D coordinates assigned)
C=CC(=O)[N-]c1cccc(-c2cnc3c(=NC(=O)c4cccc(C(F)(F)F)c4)[n-]ccn23)c1 (optimized conformer: 100.91213778382564 kcal/mol)

>  <smiles>  (88) 
C=CC(=O)Nc1cccc(-c2cnc3c(=NC(=O)c4cccc(C(F)(F)F)c4)[nH]ccn23)c1

>  <score_type>  (88) 
oracle

>  <origin>  (88) 
adg

>  <m_score__min__energy>  (88) 
-12.35

>  <m_primary>  (88) 
energy

$$$$
88:0
     RDKit          3D

 50 53  0  0  0  0  0  0  0  0999 V2000
   58.5780   34.3423   43.9110 H   0  0  0  0  0  0  0  0  0  0  0  0
   58.6550   34.0990   44.9810 C   0  0  0  0  0  0  0  0  0  0  0  0
   58.0820   32.9250   45.4820 C   0  0  0  0  0  0  0  0  0  0  0  0
   57.3400   31.9950   44.5760 C   0  0  0  0  0  0  0  0  0  0  0  0
   56.7662   31.2758   45.1789 H   0  0  0  0  0  0  0  0  0  0  0  0
   56.6519   32.5727   43.9413 H   0  0  0  0  0  0  0  0  0  0  0  0
   58.0561   31.4524   43.9413 H   0  0  0  0  0  0  0  0  0  0  0  0
   58.1700   32.6460   46.8120 N   0  0  0  0  0  0  0  0  0  0  0  0
   58.8200   33.4670   47.6860 C   0  0  0  0  0  0  0  0  0  0  0  0
   58.9060   33.1800   48.9540 N   0  0  0  0  0  0  0  0  0  0  0  0
   58.9330   31.8720   49.5560 C   0  0  0  0  0  0  0  0  0  0  0  0
   59.4370   30.8040   48.8790 N   0  0  0  0  0  0  0  0  0  0  0  0
   59.4680   29.5590   49.4220 C   0  0  0  0  0  0  0  0  0  0  0  0
   59.9820   28.4090   48.6180 C   0  0  0  0  0  0  0  0  0  0  0  0
   59.6744   27.4654   49.0924 H   0  0  0  0  0  0  0  0  0  0  0  0
   61.0798   28.4601   48.5719 H   0  0  0  0  0  0  0  0  0  0  0  0
   59.4230   28.4720   47.2230 C   0  0  0  0  0  0  0  0  0  0  0  0
   60.1440   29.1070   46.2000 C   0  0  0  0  0  0  0  0  0  0  0  0
   61.1344   29.5356   46.4129 H   0  0  0  0  0  0  0  0  0  0  0  0
   59.6100   29.1970   44.9140 C   0  0  0  0  0  0  0  0  0  0  0  0
   60.1870   29.6824   44.1131 H   0  0  0  0  0  0  0  0  0  0  0  0
   58.3440   28.6720   44.6410 C   0  0  0  0  0  0  0  0  0  0  0  0
   57.9341   28.7336   43.6221 H   0  0  0  0  0  0  0  0  0  0  0  0
   57.5910   28.0650   45.6630 C   0  0  0  0  0  0  0  0  0  0  0  0
   56.2920   27.5040   45.4060 N   0  0  0  0  0  0  0  0  0  0  0  0
   55.7210   27.9380   44.6480 H   0  0  0  0  0  0  0  0  0  0  0  0
   55.7950   26.3120   46.0380 C   0  0  0  0  0  0  0  0  0  0  0  0
   56.5850   25.5320   46.6340 O   0  0  0  0  0  0  0  0  0  0  0  0
   54.4070   25.9680   45.9750 N   0  0  0  0  0  0  0  0  0  0  0  0
   53.9090   24.6500   45.6110 C   0  0  0  0  0  0  0  0  0  0  0  0
   53.6918   24.0752   46.5234 H   0  0  0  0  0  0  0  0  0  0  0  0
   52.9892   24.7567   45.0172 H   0  0  0  0  0  0  0  0  0  0  0  0
   54.6695   24.1218   45.0172 H   0  0  0  0  0  0  0  0  0  0  0  0
   58.1450   27.9580   46.9480 C   0  0  0  0  0  0  0  0  0  0  0  0
   57.5724   27.4664   47.7483 H   0  0  0  0  0  0  0  0  0  0  0  0
   58.9680   29.3520   50.6690 N   0  0  0  0  0  0  0  0  0  0  0  0
   58.4550   30.3770   51.3960 C   0  0  0  0  0  0  0  0  0  0  0  0
   57.9530   30.1400   52.6810 C   0  0  0  0  0  0  0  0  0  0  0  0
   57.9771   29.1239   53.1018 H   0  0  0  0  0  0  0  0  0  0  0  0
   57.4210   31.1940   53.4300 C   0  0  0  0  0  0  0  0  0  0  0  0
   57.0282   31.0056   54.4400 H   0  0  0  0  0  0  0  0  0  0  0  0
   57.3870   32.4860   52.8990 C   0  0  0  0  0  0  0  0  0  0  0  0
   56.9670   33.3116   53.4923 H   0  0  0  0  0  0  0  0  0  0  0  0
   57.8850   32.7330   51.6160 C   0  0  0  0  0  0  0  0  0  0  0  0
   57.8553   33.7519   51.2024 H   0  0  0  0  0  0  0  0  0  0  0  0
   58.4240   31.6810   50.8530 C   0  0  0  0  0  0  0  0  0  0  0  0
   59.4130   34.6440   47.2110 C   0  0  0  0  0  0  0  0  0  0  0  0
   59.9434   35.3152   47.9025 H   0  0  0  0  0  0  0  0  0  0  0  0
   59.3260   34.9590   45.8540 C   0  0  0  0  0  0  0  0  0  0  0  0
   59.7851   35.8830   45.4725 H   0  0  0  0  0  0  0  0  0  0  0  0
  1  2  1  0
  2  3  2  0
  3  4  1  0
  4  5  1  0
  4  6  1  0
  4  7  1  0
  3  8  1  0
  8  9  1  0
  9 10  2  0
 10 11  1  0
 11 12  2  0
 12 13  1  0
 13 14  1  0
 14 15  1  0
 14 16  1  0
 14 17  1  0
 17 18  2  0
 18 19  1  0
 18 20  1  0
 20 21  1  0
 20 22  2  0
 22 23  1  0
 22 24  1  0
 24 25  1  0
 25 26  1  0
 25 27  1  0
 27 28  2  0
 27 29  1  0
 29 30  1  0
 30 31  1  0
 30 32  1  0
 30 33  1  0
 24 34  2  0
 34 35  1  0
 13 36  2  0
 36 37  1  0
 37 38  2  0
 38 39  1  0
 38 40  1  0
 40 41  1  0
 40 42  2  0
 42 43  1  0
 42 44  1  0
 44 45  1  0
 44 46  2  0
  9 47  1  0
 47 48  1  0
 47 49  2  0
 49 50  1  0
 49  2  1  0
 46 11  1  0
 34 17  1  0
 46 37  1  0
M  CHG  2   8  -1  29  -1
M  END
>  <UniqueID>  (89) 
82

>  <SMILES>  (89) 
C[N-]C(=O)Nc1cccc(Cc2nc(/N=c3/cccc(C)[n-]3)c3ccccc3n2)c1

>  <Energy>  (89) 
58.776118299353534

>  <Genealogy>  (89) 
C[N-]C(=O)Nc1cccc(Cc2nc(N=c3cccc(C)[n-]3)c3ccccc3n2)c1 (protonated)
C[N-]C(=O)Nc1cccc(Cc2nc(/N=c3/cccc(C)[n-]3)c3ccccc3n2)c1 (cis-trans isomerization)
C[N-]C(=O)Nc1cccc(Cc2nc(/N=c3/cccc(C)[n-]3)c3ccccc3n2)c1 (3D coordinates assigned)
C[N-]C(=O)Nc1cccc(Cc2nc(/N=c3/cccc(C)[n-]3)c3ccccc3n2)c1 (optimized conformer: 58.776118299353534 kcal/mol)

>  <smiles>  (89) 
CNC(=O)Nc1cccc(Cc2nc(N=c3cccc(C)[nH]3)c3ccccc3n2)c1

>  <score_type>  (89) 
oracle

>  <origin>  (89) 
adg

>  <m_score__min__energy>  (89) 
-12.630000000000001

>  <m_primary>  (89) 
energy

$$$$
89:0
     RDKit          3D

 55 57  0  0  0  0  0  0  0  0999 V2000
   63.6650   32.9170   49.8860 C   0  0  0  0  0  0  0  0  0  0  0  0
   62.2510   33.0870   49.8870 O   0  0  0  0  0  0  0  0  0  0  0  0
   61.5090   33.5470   48.7900 C   0  0  0  0  0  0  0  0  0  0  0  0
   60.2470   34.1570   48.9330 C   0  0  0  0  0  0  0  0  0  0  0  0
   59.5490   34.6040   47.8070 C   0  0  0  0  0  0  0  0  0  0  0  0
   60.0960   34.4490   46.5240 C   0  0  0  0  0  0  0  0  0  0  0  0
   59.3650   34.9510   45.3090 C   0  0  0  0  0  0  0  0  0  0  0  0
   58.8380   33.8570   44.5630 O   0  0  0  0  0  0  0  0  0  0  0  0
   57.6290   33.2220   44.8760 C   0  0  0  0  0  0  0  0  0  0  0  0
   56.6410   33.9020   45.2680 O   0  0  0  0  0  0  0  0  0  0  0  0
   57.5120   31.7530   44.7380 C   0  0  0  0  0  0  0  0  0  0  0  0
   57.0700   31.1800   43.5330 C   0  0  0  0  0  0  0  0  0  0  0  0
   56.9690   29.7930   43.4060 C   0  0  0  0  0  0  0  0  0  0  0  0
   57.3170   28.9620   44.4730 C   0  0  0  0  0  0  0  0  0  0  0  0
   57.7780   29.5170   45.6780 C   0  0  0  0  0  0  0  0  0  0  0  0
   58.1190   28.6930   46.8010 N   0  0  0  0  0  0  0  0  0  0  0  0
   59.0320   27.5920   46.7740 C   0  0  0  0  0  0  0  0  0  0  0  0
   60.2660   27.8240   46.8640 O   0  0  0  0  0  0  0  0  0  0  0  0
   58.5440   26.2600   46.5450 N   0  0  0  0  0  0  0  0  0  0  0  0
   57.3310   25.8940   46.2430 C   0  0  0  0  0  0  0  0  0  0  0  0
   56.9110   24.6790   45.7260 C   0  0  0  0  0  0  0  0  0  0  0  0
   55.5350   24.8330   45.6240 C   0  0  0  0  0  0  0  0  0  0  0  0
   54.5450   23.7920   45.1390 C   0  0  0  0  0  0  0  0  0  0  0  0
   54.6230   22.5390   46.0330 C   0  0  0  0  0  0  0  0  0  0  0  0
   53.1240   24.3840   45.1960 C   0  0  0  0  0  0  0  0  0  0  0  0
   54.8690   23.3920   43.6850 C   0  0  0  0  0  0  0  0  0  0  0  0
   55.2090   26.0330   46.0580 O   0  0  0  0  0  0  0  0  0  0  0  0
   56.2650   26.6880   46.4350 N   0  0  0  0  0  0  0  0  0  0  0  0
   57.8530   30.9100   45.8110 C   0  0  0  0  0  0  0  0  0  0  0  0
   61.3510   33.8370   46.3830 C   0  0  0  0  0  0  0  0  0  0  0  0
   62.0490   33.3920   47.5090 C   0  0  0  0  0  0  0  0  0  0  0  0
   64.0298   32.8731   50.9228 H   0  0  0  0  0  0  0  0  0  0  0  0
   63.9215   31.9816   49.3672 H   0  0  0  0  0  0  0  0  0  0  0  0
   64.1359   33.7650   49.3672 H   0  0  0  0  0  0  0  0  0  0  0  0
   59.8092   34.2820   49.9343 H   0  0  0  0  0  0  0  0  0  0  0  0
   58.5648   35.0802   47.9276 H   0  0  0  0  0  0  0  0  0  0  0  0
   58.5396   35.6052   45.6264 H   0  0  0  0  0  0  0  0  0  0  0  0
   60.0672   35.5120   44.6748 H   0  0  0  0  0  0  0  0  0  0  0  0
   56.8021   31.8278   42.6853 H   0  0  0  0  0  0  0  0  0  0  0  0
   56.6141   29.3535   42.4622 H   0  0  0  0  0  0  0  0  0  0  0  0
   57.2299   27.8704   44.3695 H   0  0  0  0  0  0  0  0  0  0  0  0
   57.5211   23.8031   45.4603 H   0  0  0  0  0  0  0  0  0  0  0  0
   54.6042   22.8413   47.0905 H   0  0  0  0  0  0  0  0  0  0  0  0
   53.7638   21.8849   45.8233 H   0  0  0  0  0  0  0  0  0  0  0  0
   55.5567   21.9965   45.8233 H   0  0  0  0  0  0  0  0  0  0  0  0
   52.8212   24.5102   46.2459 H   0  0  0  0  0  0  0  0  0  0  0  0
   53.1135   25.3614   44.6914 H   0  0  0  0  0  0  0  0  0  0  0  0
   52.4227   23.7032   44.6914 H   0  0  0  0  0  0  0  0  0  0  0  0
   55.5614   22.5372   43.6855 H   0  0  0  0  0  0  0  0  0  0  0  0
   53.9404   23.1114   43.1663 H   0  0  0  0  0  0  0  0  0  0  0  0
   55.3363   24.2421   43.1663 H   0  0  0  0  0  0  0  0  0  0  0  0
   56.2630   27.6590   46.8170 H   0  0  0  0  0  0  0  0  0  0  0  0
   58.1820   31.3487   46.7645 H   0  0  0  0  0  0  0  0  0  0  0  0
   61.7873   33.7070   45.3816 H   0  0  0  0  0  0  0  0  0  0  0  0
   63.0327   32.9152   47.3867 H   0  0  0  0  0  0  0  0  0  0  0  0
  1  2  1  0
  2  3  1  0
  3  4  2  0
  4  5  1  0
  5  6  2  0
  6  7  1  0
  7  8  1  0
  8  9  1  0
  9 10  2  0
  9 11  1  0
 11 12  2  0
 12 13  1  0
 13 14  2  0
 14 15  1  0
 15 16  1  0
 16 17  1  0
 17 18  2  0
 17 19  1  0
 19 20  2  3
 20 21  1  0
 21 22  2  0
 22 23  1  0
 23 24  1  0
 23 25  1  0
 23 26  1  0
 22 27  1  0
 27 28  1  0
 15 29  2  0
  6 30  1  0
 30 31  2  0
 31  3  1  0
 29 11  1  0
 28 20  1  0
  1 32  1  0
  1 33  1  0
  1 34  1  0
  4 35  1  0
  5 36  1  0
  7 37  1  0
  7 38  1  0
 12 39  1  0
 13 40  1  0
 14 41  1  0
 21 42  1  0
 24 43  1  0
 24 44  1  0
 24 45  1  0
 25 46  1  0
 25 47  1  0
 25 48  1  0
 26 49  1  0
 26 50  1  0
 26 51  1  0
 28 52  1  0
 29 53  1  0
 30 54  1  0
 31 55  1  0
M  CHG  1  16  -1
M  END
>  <UniqueID>  (90) 
83

>  <SMILES>  (90) 
COc1ccc(COC(=O)c2cccc([N-]C(=O)N=c3cc(C(C)(C)C)o[nH]3)c2)cc1

>  <Energy>  (90) 
89.53375799825227

>  <Genealogy>  (90) 
COc1ccc(COC(=O)c2cccc([N-]C(=O)N=c3cc(C(C)(C)C)o[nH]3)c2)cc1 (protonated)
COc1ccc(COC(=O)c2cccc([N-]C(=O)N=c3cc(C(C)(C)C)o[nH]3)c2)cc1 (3D coordinates assigned)
COc1ccc(COC(=O)c2cccc([N-]C(=O)N=c3cc(C(C)(C)C)o[nH]3)c2)cc1 (optimized conformer: 89.53375799825227 kcal/mol)

>  <smiles>  (90) 
COc1ccc(COC(=O)c2cccc(NC(=O)N=c3cc(C(C)(C)C)o[nH]3)c2)cc1

>  <score_type>  (90) 
oracle

>  <origin>  (90) 
adg

>  <m_score__min__energy>  (90) 
-10.279999999999999

>  <m_primary>  (90) 
energy

$$$$
90:0
     RDKit          3D

 40 43  0  0  0  0  0  0  0  0999 V2000
   59.7130   36.2850   45.7220 O   0  0  0  0  0  0  0  0  0  0  0  0
   59.9100   35.0890   46.0630 C   0  0  0  0  0  0  0  0  0  0  0  0
   58.8980   34.1400   45.8910 C   0  0  0  0  0  0  0  0  0  0  0  0
   59.1340   32.8110   46.2540 C   0  0  0  0  0  0  0  0  0  0  0  0
   58.0900   31.8430   46.0550 N   0  0  0  0  0  0  0  0  0  0  0  0
   57.6590   31.3790   44.7590 C   0  0  0  0  0  0  0  0  0  0  0  0
   57.8720   32.1600   43.6050 C   0  0  0  0  0  0  0  0  0  0  0  0
   57.3740   31.7460   42.3670 C   0  0  0  0  0  0  0  0  0  0  0  0
   56.6430   30.5640   42.2650 C   0  0  0  0  0  0  0  0  0  0  0  0
   56.4180   29.7810   43.4000 C   0  0  0  0  0  0  0  0  0  0  0  0
   56.9380   30.1660   44.6410 C   0  0  0  0  0  0  0  0  0  0  0  0
   56.7100   29.3350   45.7460 O   0  0  0  0  0  0  0  0  0  0  0  0
   57.4160   28.1500   45.9970 C   0  0  0  0  0  0  0  0  0  0  0  0
   58.7960   28.2270   46.2270 C   0  0  0  0  0  0  0  0  0  0  0  0
   59.5400   27.0660   46.4580 C   0  0  0  0  0  0  0  0  0  0  0  0
   58.9080   25.8210   46.4750 C   0  0  0  0  0  0  0  0  0  0  0  0
   57.5270   25.7360   46.2740 C   0  0  0  0  0  0  0  0  0  0  0  0
   56.7780   26.8930   46.0440 C   0  0  0  0  0  0  0  0  0  0  0  0
   55.4300   26.7920   45.9170 F   0  0  0  0  0  0  0  0  0  0  0  0
   60.3780   32.4720   46.8290 C   0  0  0  0  0  0  0  0  0  0  0  0
   60.6770   31.1750   47.2870 C   0  0  0  0  0  0  0  0  0  0  0  0
   61.9280   30.8960   47.8440 C   0  0  0  0  0  0  0  0  0  0  0  0
   62.8890   31.9030   47.9560 C   0  0  0  0  0  0  0  0  0  0  0  0
   62.6010   33.1990   47.5220 C   0  0  0  0  0  0  0  0  0  0  0  0
   61.3500   33.4930   46.9680 C   0  0  0  0  0  0  0  0  0  0  0  0
   61.0810   34.7360   46.5810 O   0  0  0  0  0  0  0  0  0  0  0  0
   57.9244   34.4366   45.4736 H   0  0  0  0  0  0  0  0  0  0  0  0
   57.4690   31.6540   46.8740 H   0  0  0  0  0  0  0  0  0  0  0  0
   58.4345   33.1024   43.6797 H   0  0  0  0  0  0  0  0  0  0  0  0
   57.5595   32.3550   41.4700 H   0  0  0  0  0  0  0  0  0  0  0  0
   56.2430   30.2473   41.2905 H   0  0  0  0  0  0  0  0  0  0  0  0
   55.8284   28.8560   43.3177 H   0  0  0  0  0  0  0  0  0  0  0  0
   59.2969   29.2064   46.2258 H   0  0  0  0  0  0  0  0  0  0  0  0
   60.6249   27.1335   46.6266 H   0  0  0  0  0  0  0  0  0  0  0  0
   59.4964   24.9075   46.6464 H   0  0  0  0  0  0  0  0  0  0  0  0
   57.0287   24.7556   46.2970 H   0  0  0  0  0  0  0  0  0  0  0  0
   59.9231   30.3780   47.2062 H   0  0  0  0  0  0  0  0  0  0  0  0
   62.1566   29.8791   48.1956 H   0  0  0  0  0  0  0  0  0  0  0  0
   63.8750   31.6750   48.3870 H   0  0  0  0  0  0  0  0  0  0  0  0
   63.3593   33.9904   47.6159 H   0  0  0  0  0  0  0  0  0  0  0  0
  1  2  2  0
  2  3  1  0
  3  4  2  0
  4  5  1  0
  5  6  1  0
  6  7  2  0
  7  8  1  0
  8  9  2  0
  9 10  1  0
 10 11  2  0
 11 12  1  0
 12 13  1  0
 13 14  2  0
 14 15  1  0
 15 16  2  0
 16 17  1  0
 17 18  2  0
 18 19  1  0
  4 20  1  0
 20 21  2  0
 21 22  1  0
 22 23  2  0
 23 24  1  0
 24 25  2  0
 25 26  1  0
 26  2  1  0
 11  6  1  0
 18 13  1  0
 25 20  1  0
  3 27  1  0
  5 28  1  0
  7 29  1  0
  8 30  1  0
  9 31  1  0
 10 32  1  0
 14 33  1  0
 15 34  1  0
 16 35  1  0
 17 36  1  0
 21 37  1  0
 22 38  1  0
 23 39  1  0
 24 40  1  0
M  END
>  <UniqueID>  (91) 
84

>  <SMILES>  (91) 
O=c1cc(Nc2ccccc2Oc2ccccc2F)c2ccccc2o1

>  <Energy>  (91) 
66.04851960091159

>  <Genealogy>  (91) 
O=c1cc(Nc2ccccc2Oc2ccccc2F)c2ccccc2o1 (3D coordinates assigned)
O=c1cc(Nc2ccccc2Oc2ccccc2F)c2ccccc2o1 (optimized conformer: 66.04851960091159 kcal/mol)

>  <smiles>  (91) 
O=c1cc(Nc2ccccc2Oc2ccccc2F)c2ccccc2o1

>  <score_type>  (91) 
oracle

>  <origin>  (91) 
adg

>  <m_score__min__energy>  (91) 
-8.3200000000000003

>  <m_primary>  (91) 
energy

$$$$
91:0
     RDKit          3D

 34 35  0  0  0  0  0  0  0  0999 V2000
   56.1595   31.8641   44.8455 H   0  0  0  0  0  0  0  0  0  0  0  0
   57.2540   31.7680   44.8980 C   0  0  0  0  0  0  0  0  0  0  0  0
   57.8030   30.6630   44.3680 C   0  0  0  0  0  0  0  0  0  0  0  0
   58.2663   30.7370   43.3731 H   0  0  0  0  0  0  0  0  0  0  0  0
   57.8170   29.3840   45.0350 N   0  0  0  0  0  0  0  0  0  0  0  0
   58.9770   28.8750   45.5710 C   0  0  0  0  0  0  0  0  0  0  0  0
   60.2870   29.6220   45.5200 C   0  0  0  0  0  0  0  0  0  0  0  0
   60.6358   29.8209   46.5441 H   0  0  0  0  0  0  0  0  0  0  0  0
   61.0350   29.0146   44.9894 H   0  0  0  0  0  0  0  0  0  0  0  0
   60.1452   30.5751   44.9894 H   0  0  0  0  0  0  0  0  0  0  0  0
   58.9570   27.6050   46.1540 C   0  0  0  0  0  0  0  0  0  0  0  0
   59.8897   27.1531   46.5226 H   0  0  0  0  0  0  0  0  0  0  0  0
   57.7890   26.9330   46.2640 N   0  0  0  0  0  0  0  0  0  0  0  0
   56.6130   27.4450   45.8250 C   0  0  0  0  0  0  0  0  0  0  0  0
   55.5380   26.7230   46.0040 N   0  0  0  0  0  0  0  0  0  0  0  0
   55.3810   25.2980   45.9950 C   0  0  0  0  0  0  0  0  0  0  0  0
   54.7210   24.7310   45.0810 O   0  0  0  0  0  0  0  0  0  0  0  0
   55.8770   24.5370   47.0970 N   0  0  0  0  0  0  0  0  0  0  0  0
   57.1600   23.8510   47.0660 C   0  0  0  0  0  0  0  0  0  0  0  0
   57.5028   23.6677   48.0950 H   0  0  0  0  0  0  0  0  0  0  0  0
   57.0500   22.8913   46.5398 H   0  0  0  0  0  0  0  0  0  0  0  0
   57.8970   24.4754   46.5398 H   0  0  0  0  0  0  0  0  0  0  0  0
   56.6320   28.7010   45.1640 C   0  0  0  0  0  0  0  0  0  0  0  0
   55.5850   29.1710   44.6400 O   0  0  0  0  0  0  0  0  0  0  0  0
   58.0020   32.8650   45.5460 C   0  0  0  0  0  0  0  0  0  0  0  0
   58.5530   33.8270   44.7550 N   0  0  0  0  0  0  0  0  0  0  0  0
   59.2680   34.8630   45.2690 C   0  0  0  0  0  0  0  0  0  0  0  0
   59.6894   35.6259   44.5978 H   0  0  0  0  0  0  0  0  0  0  0  0
   59.4680   34.9600   46.6460 C   0  0  0  0  0  0  0  0  0  0  0  0
   60.0350   35.8027   47.0683 H   0  0  0  0  0  0  0  0  0  0  0  0
   58.9400   33.9750   47.4810 C   0  0  0  0  0  0  0  0  0  0  0  0
   59.0964   34.0329   48.5683 H   0  0  0  0  0  0  0  0  0  0  0  0
   58.2130   32.9160   46.9350 C   0  0  0  0  0  0  0  0  0  0  0  0
   57.8083   32.1274   47.5864 H   0  0  0  0  0  0  0  0  0  0  0  0
  1  2  1  0
  2  3  2  3
  3  4  1  0
  3  5  1  0
  5  6  1  0
  6  7  1  0
  7  8  1  0
  7  9  1  0
  7 10  1  0
  6 11  2  0
 11 12  1  0
 11 13  1  0
 13 14  1  0
 14 15  2  0
 15 16  1  0
 16 17  2  0
 16 18  1  0
 18 19  1  0
 19 20  1  0
 19 21  1  0
 19 22  1  0
 14 23  1  0
 23 24  2  0
  2 25  1  0
 25 26  2  0
 26 27  1  0
 27 28  1  0
 27 29  2  0
 29 30  1  0
 29 31  1  0
 31 32  1  0
 31 33  2  0
 33 34  1  0
 23  5  1  0
 33 25  1  0
M  CHG  2  13  -1  18  -1
M  END
>  <UniqueID>  (92) 
85

>  <SMILES>  (92) 
C[N-]C(=O)/N=c1/[n-]cc(C)n(C=Cc2ccccn2)c1=O

>  <Energy>  (92) 
59.2972603161996

>  <Genealogy>  (92) 
C[N-]C(=O)N=c1[n-]cc(C)n(C=Cc2ccccn2)c1=O (protonated)
C[N-]C(=O)/N=c1/[n-]cc(C)n(C=Cc2ccccn2)c1=O (cis-trans isomerization)
C[N-]C(=O)/N=c1/[n-]cc(C)n(C=Cc2ccccn2)c1=O (3D coordinates assigned)
C[N-]C(=O)/N=c1/[n-]cc(C)n(C=Cc2ccccn2)c1=O (optimized conformer: 59.2972603161996 kcal/mol)

>  <smiles>  (92) 
CNC(=O)N=c1[nH]cc(C)n(C=Cc2ccccn2)c1=O

>  <score_type>  (92) 
oracle

>  <origin>  (92) 
adg

>  <m_score__min__energy>  (92) 
-9.6099999999999994

>  <m_primary>  (92) 
energy

$$$$
92:0
     RDKit          3D

 73 78  0  0  0  0  0  0  0  0999 V2000
   55.5260   28.9530   44.8560 O   0  0  0  0  0  0  0  0  0  0  0  0
   56.7860   28.9740   44.8740 C   0  0  0  0  0  0  0  0  0  0  0  0
   57.5040   27.7900   44.5050 N   0  0  0  0  0  0  0  0  0  0  0  0
   57.5180   26.5670   45.2570 C   0  0  0  0  0  0  0  0  0  0  0  0
   56.5790   25.5530   44.9990 C   0  0  0  0  0  0  0  0  0  0  0  0
   56.5700   24.3800   45.7620 C   0  0  0  0  0  0  0  0  0  0  0  0
   55.3830   23.1260   45.4080 S   0  0  0  0  0  0  0  0  0  0  0  0
   55.9200   22.2750   44.2900 O   0  0  0  0  0  0  0  0  0  0  0  0
   54.0980   23.7550   44.9460 O   0  0  0  0  0  0  0  0  0  0  0  0
   55.1120   22.1190   46.8180 N   0  0  0  0  0  0  0  0  0  0  0  0
   53.9790   22.6020   47.6310 C   0  0  0  0  0  0  0  0  0  0  0  0
   52.6130   22.3160   46.9640 C   0  0  0  0  0  0  0  0  0  0  0  0
   52.6750   21.3340   45.9460 O   0  0  0  0  0  0  0  0  0  0  0  0
   53.4830   20.2560   46.3540 C   0  0  0  0  0  0  0  0  0  0  0  0
   54.9610   20.6910   46.4460 C   0  0  0  0  0  0  0  0  0  0  0  0
   57.5180   24.2050   46.7760 C   0  0  0  0  0  0  0  0  0  0  0  0
   58.4640   25.2020   47.0300 C   0  0  0  0  0  0  0  0  0  0  0  0
   58.4790   26.3770   46.2680 C   0  0  0  0  0  0  0  0  0  0  0  0
   59.4200   27.4100   46.5820 N   0  0  0  0  0  0  0  0  0  0  0  0
   59.5200   27.9990   47.9040 C   0  0  0  0  0  0  0  0  0  0  0  0
   60.5890   29.0790   47.7850 C   0  0  0  0  0  0  0  0  0  0  0  0
   60.7910   29.3090   46.2860 C   0  0  0  0  0  0  0  0  0  0  0  0
   60.2640   28.0600   45.5970 C   0  0  0  0  0  0  0  0  0  0  0  0
   57.4930   30.2230   45.2390 C   0  0  0  0  0  0  0  0  0  0  0  0
   57.9230   30.4410   46.5590 C   0  0  0  0  0  0  0  0  0  0  0  0
   58.5760   31.6280   46.9030 C   0  0  0  0  0  0  0  0  0  0  0  0
   58.8030   32.6160   45.9340 C   0  0  0  0  0  0  0  0  0  0  0  0
   59.6320   34.1050   46.3680 S   0  0  0  0  0  0  0  0  0  0  0  0
   58.8050   34.8710   47.3640 O   0  0  0  0  0  0  0  0  0  0  0  0
   59.8140   34.9710   45.1540 O   0  0  0  0  0  0  0  0  0  0  0  0
   61.1670   33.7220   47.0770 N   0  0  0  0  0  0  0  0  0  0  0  0
   62.4310   33.8450   46.3530 C   0  0  0  0  0  0  0  0  0  0  0  0
   63.5470   33.7420   47.4190 C   0  0  0  0  0  0  0  0  0  0  0  0
   62.7930   33.6290   48.6980 C   0  0  0  0  0  0  0  0  0  0  0  0
   63.3070   33.5540   49.9950 C   0  0  0  0  0  0  0  0  0  0  0  0
   62.4080   33.4750   51.0690 C   0  0  0  0  0  0  0  0  0  0  0  0
   61.0210   33.4670   50.8310 C   0  0  0  0  0  0  0  0  0  0  0  0
   60.5270   33.5420   49.5190 C   0  0  0  0  0  0  0  0  0  0  0  0
   61.4450   33.6270   48.4650 C   0  0  0  0  0  0  0  0  0  0  0  0
   58.3920   32.3950   44.6130 C   0  0  0  0  0  0  0  0  0  0  0  0
   57.7480   31.2030   44.2660 C   0  0  0  0  0  0  0  0  0  0  0  0
   55.8449   25.6828   44.1902 H   0  0  0  0  0  0  0  0  0  0  0  0
   55.9760   22.2070   47.4040 H   0  0  0  0  0  0  0  0  0  0  0  0
   54.0067   22.1003   48.6095 H   0  0  0  0  0  0  0  0  0  0  0  0
   54.0806   23.6923   47.7352 H   0  0  0  0  0  0  0  0  0  0  0  0
   51.9130   21.9702   47.7389 H   0  0  0  0  0  0  0  0  0  0  0  0
   52.2826   23.2521   46.4902 H   0  0  0  0  0  0  0  0  0  0  0  0
   53.1470   19.9054   47.3410 H   0  0  0  0  0  0  0  0  0  0  0  0
   53.3963   19.4470   45.6137 H   0  0  0  0  0  0  0  0  0  0  0  0
   55.4635   20.0739   47.2053 H   0  0  0  0  0  0  0  0  0  0  0  0
   55.4111   20.5558   45.4515 H   0  0  0  0  0  0  0  0  0  0  0  0
   57.5188   23.2817   47.3740 H   0  0  0  0  0  0  0  0  0  0  0  0
   59.2018   25.0629   47.8339 H   0  0  0  0  0  0  0  0  0  0  0  0
   58.5579   28.4408   48.2025 H   0  0  0  0  0  0  0  0  0  0  0  0
   59.7776   27.2502   48.6675 H   0  0  0  0  0  0  0  0  0  0  0  0
   60.2517   30.0059   48.2719 H   0  0  0  0  0  0  0  0  0  0  0  0
   61.5253   28.7749   48.2758 H   0  0  0  0  0  0  0  0  0  0  0  0
   60.2280   30.1944   45.9556 H   0  0  0  0  0  0  0  0  0  0  0  0
   61.8492   29.4872   46.0441 H   0  0  0  0  0  0  0  0  0  0  0  0
   59.6791   28.3291   44.7051 H   0  0  0  0  0  0  0  0  0  0  0  0
   61.0783   27.4038   45.2560 H   0  0  0  0  0  0  0  0  0  0  0  0
   57.7446   29.6730   47.3260 H   0  0  0  0  0  0  0  0  0  0  0  0
   58.9131   31.7878   47.9378 H   0  0  0  0  0  0  0  0  0  0  0  0
   62.5300   33.0336   45.6169 H   0  0  0  0  0  0  0  0  0  0  0  0
   62.4879   34.7953   45.8018 H   0  0  0  0  0  0  0  0  0  0  0  0
   64.1716   32.8524   47.2503 H   0  0  0  0  0  0  0  0  0  0  0  0
   64.2377   34.5980   47.4018 H   0  0  0  0  0  0  0  0  0  0  0  0
   64.3930   33.5568   50.1702 H   0  0  0  0  0  0  0  0  0  0  0  0
   62.7881   33.4192   52.0997 H   0  0  0  0  0  0  0  0  0  0  0  0
   60.3207   33.4017   51.6768 H   0  0  0  0  0  0  0  0  0  0  0  0
   59.4445   33.5342   49.3236 H   0  0  0  0  0  0  0  0  0  0  0  0
   58.5765   33.1617   43.8461 H   0  0  0  0  0  0  0  0  0  0  0  0
   57.4392   31.0320   43.2242 H   0  0  0  0  0  0  0  0  0  0  0  0
  1  2  2  0
  2  3  1  0
  3  4  1  0
  4  5  2  0
  5  6  1  0
  6  7  1  0
  7  8  2  0
  7  9  2  0
  7 10  1  0
 10 11  1  0
 11 12  1  0
 12 13  1  0
 13 14  1  0
 14 15  1  0
  6 16  2  0
 16 17  1  0
 17 18  2  0
 18 19  1  0
 19 20  1  0
 20 21  1  0
 21 22  1  0
 22 23  1  0
  2 24  1  0
 24 25  2  0
 25 26  1  0
 26 27  2  0
 27 28  1  0
 28 29  2  0
 28 30  2  0
 28 31  1  0
 31 32  1  0
 32 33  1  0
 33 34  1  0
 34 35  2  0
 35 36  1  0
 36 37  2  0
 37 38  1  0
 38 39  2  0
 27 40  1  0
 40 41  2  0
 18  4  1  0
 23 19  1  0
 41 24  1  0
 15 10  1  0
 39 31  1  0
 39 34  1  0
  5 42  1  0
 10 43  1  0
 11 44  1  0
 11 45  1  0
 12 46  1  0
 12 47  1  0
 14 48  1  0
 14 49  1  0
 15 50  1  0
 15 51  1  0
 16 52  1  0
 17 53  1  0
 20 54  1  0
 20 55  1  0
 21 56  1  0
 21 57  1  0
 22 58  1  0
 22 59  1  0
 23 60  1  0
 23 61  1  0
 25 62  1  0
 26 63  1  0
 32 64  1  0
 32 65  1  0
 33 66  1  0
 33 67  1  0
 35 68  1  0
 36 69  1  0
 37 70  1  0
 38 71  1  0
 40 72  1  0
 41 73  1  0
M  CHG  2   3  -1  10   1
M  END
>  <UniqueID>  (93) 
86

>  <SMILES>  (93) 
O=C([N-]c1cc(S(=O)(=O)[NH+]2CCOCC2)ccc1N1CCCC1)c1ccc(S(=O)(=O)N2CCc3ccccc32)cc1

>  <Energy>  (93) 
116.81564441671544

>  <Genealogy>  (93) 
O=C([N-]c1cc(S(=O)(=O)[NH+]2CCOCC2)ccc1N1CCCC1)c1ccc(S(=O)(=O)N2CCc3ccccc32)cc1 (protonated)
O=C([N-]c1cc(S(=O)(=O)[NH+]2CCOCC2)ccc1N1CCCC1)c1ccc(S(=O)(=O)N2CCc3ccccc32)cc1 (3D coordinates assigned)
O=C([N-]c1cc(S(=O)(=O)[NH+]2CCOCC2)ccc1N1CCCC1)c1ccc(S(=O)(=O)N2CCc3ccccc32)cc1 (nonaromatic ring conformer: 116.81564441671544 kcal/mol)

>  <smiles>  (93) 
O=C(Nc1cc(S(=O)(=O)N2CCOCC2)ccc1N1CCCC1)c1ccc(S(=O)(=O)N2CCc3ccccc32)cc1

>  <score_type>  (93) 
oracle

>  <origin>  (93) 
adg

>  <m_score__min__energy>  (93) 
-10.970000000000001

>  <m_primary>  (93) 
energy

$$$$
