0:0
     RDKit          3D

 45 47  0  0  0  0  0  0  0  0999 V2000
   54.4310   25.7110   45.8730 O   0  0  0  0  0  0  0  0  0  0  0  0
   55.5010   25.1010   45.6150 C   0  0  0  0  0  0  0  0  0  0  0  0
   55.4320   23.6830   45.1320 C   0  0  0  0  0  0  0  0  0  0  0  0
   54.1100   23.3610   44.8040 O   0  0  0  0  0  0  0  0  0  0  0  0
   56.7540   25.7300   45.9260 N   0  0  0  0  0  0  0  0  0  0  0  0
   57.0990   26.9720   45.7230 C   0  0  0  0  0  0  0  0  0  0  0  0
   58.4340   27.4100   45.8250 C   0  0  0  0  0  0  0  0  0  0  0  0
   58.7420   28.7490   45.5860 C   0  0  0  0  0  0  0  0  0  0  0  0
   57.7330   29.6570   45.2350 C   0  0  0  0  0  0  0  0  0  0  0  0
   58.0480   31.0860   44.9810 C   0  0  0  0  0  0  0  0  0  0  0  0
   57.6930   31.6910   43.7620 C   0  0  0  0  0  0  0  0  0  0  0  0
   57.9910   33.0350   43.5280 C   0  0  0  0  0  0  0  0  0  0  0  0
   58.6490   33.7900   44.5010 C   0  0  0  0  0  0  0  0  0  0  0  0
   59.0190   33.2010   45.7180 C   0  0  0  0  0  0  0  0  0  0  0  0
   59.8780   34.1470   46.9380 S   0  0  0  0  0  0  0  0  0  0  0  0
   60.3750   35.4220   46.3150 O   0  0  0  0  0  0  0  0  0  0  0  0
   58.9260   34.5110   48.0430 O   0  0  0  0  0  0  0  0  0  0  0  0
   61.2330   33.2640   47.6030 N   0  0  0  0  0  0  0  0  0  0  0  0
   62.4670   33.5700   46.8550 C   0  0  0  0  0  0  0  0  0  0  0  0
   63.7070   33.2350   47.6970 C   0  0  0  0  0  0  0  0  0  0  0  0
   63.7910   33.9570   48.9210 O   0  0  0  0  0  0  0  0  0  0  0  0
   62.5360   34.4260   49.3960 C   0  0  0  0  0  0  0  0  0  0  0  0
   61.3670   33.4840   49.0600 C   0  0  0  0  0  0  0  0  0  0  0  0
   58.7090   31.8540   45.9570 C   0  0  0  0  0  0  0  0  0  0  0  0
   56.4190   29.1770   45.1220 C   0  0  0  0  0  0  0  0  0  0  0  0
   56.1370   27.8670   45.3570 N   0  0  0  0  0  0  0  0  0  0  0  0
   56.0680   23.5684   44.2419 H   0  0  0  0  0  0  0  0  0  0  0  0
   55.7849   23.0095   45.9269 H   0  0  0  0  0  0  0  0  0  0  0  0
   53.5780   24.1820   44.9720 H   0  0  0  0  0  0  0  0  0  0  0  0
   59.2299   26.6991   46.0919 H   0  0  0  0  0  0  0  0  0  0  0  0
   59.7826   29.0948   45.6734 H   0  0  0  0  0  0  0  0  0  0  0  0
   57.1778   31.1023   42.9887 H   0  0  0  0  0  0  0  0  0  0  0  0
   57.7062   33.5009   42.5731 H   0  0  0  0  0  0  0  0  0  0  0  0
   58.8775   34.8493   44.3121 H   0  0  0  0  0  0  0  0  0  0  0  0
   62.4863   32.9744   45.9304 H   0  0  0  0  0  0  0  0  0  0  0  0
   62.4799   34.6438   46.6165 H   0  0  0  0  0  0  0  0  0  0  0  0
   63.6858   32.1603   47.9307 H   0  0  0  0  0  0  0  0  0  0  0  0
   64.5839   33.5225   47.0984 H   0  0  0  0  0  0  0  0  0  0  0  0
   62.5946   34.5335   50.4892 H   0  0  0  0  0  0  0  0  0  0  0  0
   62.3359   35.3847   48.8951 H   0  0  0  0  0  0  0  0  0  0  0  0
   61.5395   32.5149   49.5510 H   0  0  0  0  0  0  0  0  0  0  0  0
   60.4391   33.9528   49.4194 H   0  0  0  0  0  0  0  0  0  0  0  0
   58.9854   31.3936   46.9170 H   0  0  0  0  0  0  0  0  0  0  0  0
   55.6094   29.8666   44.8408 H   0  0  0  0  0  0  0  0  0  0  0  0
   55.1470   27.5480   45.2580 H   0  0  0  0  0  0  0  0  0  0  0  0
  1  2  2  0
  2  3  1  0
  3  4  1  0
  2  5  1  0
  5  6  2  3
  6  7  1  0
  7  8  2  0
  8  9  1  0
  9 10  1  0
 10 11  2  0
 11 12  1  0
 12 13  2  0
 13 14  1  0
 14 15  1  0
 15 16  2  0
 15 17  2  0
 15 18  1  0
 18 19  1  0
 19 20  1  0
 20 21  1  0
 21 22  1  0
 22 23  1  0
 14 24  2  0
  9 25  2  0
 25 26  1  0
 26  6  1  0
 24 10  1  0
 23 18  1  0
  3 27  1  0
  3 28  1  0
  4 29  1  0
  7 30  1  0
  8 31  1  0
 11 32  1  0
 12 33  1  0
 13 34  1  0
 19 35  1  0
 19 36  1  0
 20 37  1  0
 20 38  1  0
 22 39  1  0
 22 40  1  0
 23 41  1  0
 23 42  1  0
 24 43  1  0
 25 44  1  0
 26 45  1  0
M  END
>  <UniqueID>  (1) 
1

>  <SMILES>  (1) 
O=C(CO)N=c1ccc(-c2cccc(S(=O)(=O)N3CCOCC3)c2)c[nH]1

>  <Energy>  (1) 
71.2500191848957

>  <Genealogy>  (1) 
O=C(CO)N=c1ccc(-c2cccc(S(=O)(=O)N3CCOCC3)c2)c[nH]1 (3D coordinates assigned)
O=C(CO)N=c1ccc(-c2cccc(S(=O)(=O)N3CCOCC3)c2)c[nH]1 (nonaromatic ring conformer: 71.2500191848957 kcal/mol)

>  <smiles>  (1) 
O=C(CO)N=c1ccc(-c2cccc(S(=O)(=O)N3CCOCC3)c2)c[nH]1

>  <score_type>  (1) 
oracle

>  <origin>  (1) 
adg

>  <m_score__min__energy>  (1) 
-8.9600000000000009

>  <m_primary>  (1) 
energy

$$$$
1:0
     RDKit          3D

 50 52  0  0  0  0  0  0  0  0999 V2000
   54.6800   28.5860   44.4960 H   0  0  0  0  0  0  0  0  0  0  0  0
   55.5850   28.7300   44.9280 O   0  0  0  0  0  0  0  0  0  0  0  0
   56.2420   27.7000   45.5930 C   0  0  0  0  0  0  0  0  0  0  0  0
   55.6060   26.6630   46.1640 N   0  0  0  0  0  0  0  0  0  0  0  0
   56.6210   25.9460   46.6940 C   0  0  0  0  0  0  0  0  0  0  0  0
   56.4340   24.8770   47.3320 O   0  0  0  0  0  0  0  0  0  0  0  0
   57.8490   26.4710   46.4970 N   0  0  0  0  0  0  0  0  0  0  0  0
   57.6020   27.5770   45.7710 C   0  0  0  0  0  0  0  0  0  0  0  0
   58.6200   28.5760   45.4060 C   0  0  0  0  0  0  0  0  0  0  0  0
   59.4524   28.2375   44.7715 H   0  0  0  0  0  0  0  0  0  0  0  0
   58.6190   29.8700   45.7830 C   0  0  0  0  0  0  0  0  0  0  0  0
   59.3020   30.3220   46.8970 C   0  0  0  0  0  0  0  0  0  0  0  0
   59.8561   29.7041   47.6189 H   0  0  0  0  0  0  0  0  0  0  0  0
   59.1580   31.6940   46.9330 C   0  0  0  0  0  0  0  0  0  0  0  0
   59.7490   32.5530   47.9850 C   0  0  0  0  0  0  0  0  0  0  0  0
   60.4740   33.5310   47.6580 O   0  0  0  0  0  0  0  0  0  0  0  0
   59.4460   32.3310   49.3730 N   0  0  0  0  0  0  0  0  0  0  0  0
   59.3460   33.4810   50.2790 C   0  0  0  0  0  0  0  0  0  0  0  0
   60.3412   33.9344   50.3969 H   0  0  0  0  0  0  0  0  0  0  0  0
   58.6417   34.2080   49.8484 H   0  0  0  0  0  0  0  0  0  0  0  0
   58.8250   33.0490   51.6540 C   0  0  0  0  0  0  0  0  0  0  0  0
   59.6454   32.6022   52.2347 H   0  0  0  0  0  0  0  0  0  0  0  0
   58.4336   33.9244   52.1930 H   0  0  0  0  0  0  0  0  0  0  0  0
   57.7490   32.0550   51.4740 N   0  0  0  0  0  0  0  0  0  0  0  0
   57.0270   31.8370   52.7460 C   0  0  0  0  0  0  0  0  0  0  0  0
   57.7516   31.5511   53.5227 H   0  0  0  0  0  0  0  0  0  0  0  0
   56.5118   32.7717   53.0123 H   0  0  0  0  0  0  0  0  0  0  0  0
   55.9740   30.7310   52.6180 C   0  0  0  0  0  0  0  0  0  0  0  0
   56.4645   29.7511   52.7141 H   0  0  0  0  0  0  0  0  0  0  0  0
   55.2246   30.8592   53.4130 H   0  0  0  0  0  0  0  0  0  0  0  0
   55.3330   30.8060   51.3740 O   0  0  0  0  0  0  0  0  0  0  0  0
   55.7060   31.6060   50.9210 H   0  0  0  0  0  0  0  0  0  0  0  0
   58.2740   30.7820   50.9140 C   0  0  0  0  0  0  0  0  0  0  0  0
   58.6089   30.1469   51.7473 H   0  0  0  0  0  0  0  0  0  0  0  0
   57.4576   30.3199   50.3396 H   0  0  0  0  0  0  0  0  0  0  0  0
   59.4580   30.9790   49.9430 C   0  0  0  0  0  0  0  0  0  0  0  0
   60.4009   30.8261   50.4885 H   0  0  0  0  0  0  0  0  0  0  0  0
   59.3667   30.2506   49.1238 H   0  0  0  0  0  0  0  0  0  0  0  0
   58.3840   32.1130   45.9010 N   0  0  0  0  0  0  0  0  0  0  0  0
   57.9920   33.5030   45.6150 C   0  0  0  0  0  0  0  0  0  0  0  0
   57.1072   33.5011   44.9615 H   0  0  0  0  0  0  0  0  0  0  0  0
   57.7646   34.0081   46.5654 H   0  0  0  0  0  0  0  0  0  0  0  0
   59.1250   34.2530   44.9210 C   0  0  0  0  0  0  0  0  0  0  0  0
   59.7906   34.6936   45.6778 H   0  0  0  0  0  0  0  0  0  0  0  0
   59.6964   33.5541   44.2924 H   0  0  0  0  0  0  0  0  0  0  0  0
   58.7048   35.0520   44.2924 H   0  0  0  0  0  0  0  0  0  0  0  0
   58.0130   30.9990   45.2100 C   0  0  0  0  0  0  0  0  0  0  0  0
   57.0940   31.0060   44.2310 C   0  0  0  0  0  0  0  0  0  0  0  0
   56.6903   31.9606   43.8624 H   0  0  0  0  0  0  0  0  0  0  0  0
   56.7448   30.0572   43.7976 H   0  0  0  0  0  0  0  0  0  0  0  0
  1  2  1  0
  2  3  1  0
  3  4  1  0
  4  5  1  0
  5  6  2  0
  5  7  1  0
  7  8  1  0
  8  9  1  0
  9 10  1  0
  9 11  2  0
 11 12  1  0
 12 13  1  0
 12 14  2  0
 14 15  1  0
 15 16  2  0
 15 17  1  0
 17 18  1  0
 18 19  1  0
 18 20  1  0
 18 21  1  0
 21 22  1  0
 21 23  1  0
 21 24  1  0
 24 25  1  0
 25 26  1  0
 25 27  1  0
 25 28  1  0
 28 29  1  0
 28 30  1  0
 28 31  1  0
 31 32  1  0
 24 33  1  0
 33 34  1  0
 33 35  1  0
 33 36  1  0
 36 37  1  0
 36 38  1  0
 14 39  1  0
 39 40  1  0
 40 41  1  0
 40 42  1  0
 40 43  1  0
 43 44  1  0
 43 45  1  0
 43 46  1  0
 39 47  1  0
 47 48  2  0
 48 49  1  0
 48 50  1  0
  8  3  2  0
 47 11  1  0
 36 17  1  0
M  CHG  2   4  -1   7  -1
M  END
>  <UniqueID>  (2) 
2

>  <SMILES>  (2) 
C=c1/c(=C\c2[n-]c(=O)[n-]c2O)cc(C(=O)N2CCN(CCO)CC2)n1CC

>  <Energy>  (2) 
126.16878390920778

>  <Genealogy>  (2) 
C=c1c(=Cc2[n-]c(=O)[n-]c2O)cc(C(=O)N2CCN(CCO)CC2)n1CC (protonated)
C=c1/c(=C\c2[n-]c(=O)[n-]c2O)cc(C(=O)N2CCN(CCO)CC2)n1CC (cis-trans isomerization)
C=c1/c(=C\c2[n-]c(=O)[n-]c2O)cc(C(=O)N2CCN(CCO)CC2)n1CC (3D coordinates assigned)
C=c1/c(=C\c2[n-]c(=O)[n-]c2O)cc(C(=O)N2CCN(CCO)CC2)n1CC (nonaromatic ring conformer: 126.16878390920778 kcal/mol)

>  <smiles>  (2) 
C=c1c(=Cc2[nH]c(=O)[nH]c2O)cc(C(=O)N2CCN(CCO)CC2)n1CC

>  <score_type>  (2) 
oracle

>  <origin>  (2) 
adg

>  <m_score__min__energy>  (2) 
-12.029999999999999

>  <m_primary>  (2) 
energy

$$$$
2:0
     RDKit          3D

 50 53  0  0  0  0  0  0  0  0999 V2000
   55.8150   26.2390   46.6200 O   0  0  0  0  0  0  0  0  0  0  0  0
   56.6190   26.9320   45.9450 C   0  0  0  0  0  0  0  0  0  0  0  0
   56.2310   28.1190   45.2510 N   0  0  0  0  0  0  0  0  0  0  0  0
   57.2940   28.5210   44.6250 C   0  0  0  0  0  0  0  0  0  0  0  0
   57.3450   29.7770   43.8140 C   0  0  0  0  0  0  0  0  0  0  0  0
   57.6850   30.9450   44.6960 C   0  0  0  0  0  0  0  0  0  0  0  0
   58.1410   30.7340   46.0070 C   0  0  0  0  0  0  0  0  0  0  0  0
   58.4990   31.8160   46.8140 C   0  0  0  0  0  0  0  0  0  0  0  0
   58.4170   33.1320   46.3180 C   0  0  0  0  0  0  0  0  0  0  0  0
   58.7710   34.2550   47.0830 O   0  0  0  0  0  0  0  0  0  0  0  0
   59.9770   35.0050   46.9380 C   0  0  0  0  0  0  0  0  0  0  0  0
   61.1640   34.2050   47.4050 C   0  0  0  0  0  0  0  0  0  0  0  0
   62.1700   33.8380   46.4950 C   0  0  0  0  0  0  0  0  0  0  0  0
   63.2780   33.1020   46.9270 C   0  0  0  0  0  0  0  0  0  0  0  0
   63.3940   32.7370   48.2720 C   0  0  0  0  0  0  0  0  0  0  0  0
   62.4060   33.1100   49.1860 C   0  0  0  0  0  0  0  0  0  0  0  0
   61.2960   33.8460   48.7580 C   0  0  0  0  0  0  0  0  0  0  0  0
   57.9660   33.3380   45.0090 C   0  0  0  0  0  0  0  0  0  0  0  0
   57.6080   32.2560   44.1990 C   0  0  0  0  0  0  0  0  0  0  0  0
   58.4170   27.6330   44.9000 C   0  0  0  0  0  0  0  0  0  0  0  0
   59.5780   27.7330   44.4220 O   0  0  0  0  0  0  0  0  0  0  0  0
   57.9980   26.6060   45.7850 N   0  0  0  0  0  0  0  0  0  0  0  0
   58.6110   25.2910   45.9500 C   0  0  0  0  0  0  0  0  0  0  0  0
   57.9290   24.2810   45.0690 C   0  0  0  0  0  0  0  0  0  0  0  0
   57.9530   22.9160   45.4030 C   0  0  0  0  0  0  0  0  0  0  0  0
   57.2850   21.9830   44.6050 C   0  0  0  0  0  0  0  0  0  0  0  0
   56.5800   22.4020   43.4730 C   0  0  0  0  0  0  0  0  0  0  0  0
   55.9180   21.4600   42.6880 O   0  0  0  0  0  0  0  0  0  0  0  0
   56.5430   23.7620   43.1400 C   0  0  0  0  0  0  0  0  0  0  0  0
   57.2110   24.6980   43.9360 C   0  0  0  0  0  0  0  0  0  0  0  0
   58.1125   29.6751   43.0326 H   0  0  0  0  0  0  0  0  0  0  0  0
   56.3618   29.9482   43.3513 H   0  0  0  0  0  0  0  0  0  0  0  0
   58.2168   29.7098   46.4010 H   0  0  0  0  0  0  0  0  0  0  0  0
   58.8469   31.6398   47.8425 H   0  0  0  0  0  0  0  0  0  0  0  0
   60.1133   35.2673   45.8785 H   0  0  0  0  0  0  0  0  0  0  0  0
   59.9020   35.9150   47.5514 H   0  0  0  0  0  0  0  0  0  0  0  0
   62.0856   34.1309   45.4381 H   0  0  0  0  0  0  0  0  0  0  0  0
   64.0583   32.8102   46.2087 H   0  0  0  0  0  0  0  0  0  0  0  0
   64.2643   32.1555   48.6104 H   0  0  0  0  0  0  0  0  0  0  0  0
   62.5008   32.8246   50.2441 H   0  0  0  0  0  0  0  0  0  0  0  0
   60.5240   34.1448   49.4823 H   0  0  0  0  0  0  0  0  0  0  0  0
   57.8925   34.3618   44.6134 H   0  0  0  0  0  0  0  0  0  0  0  0
   57.2649   32.4324   43.1689 H   0  0  0  0  0  0  0  0  0  0  0  0
   59.6750   25.3502   45.6773 H   0  0  0  0  0  0  0  0  0  0  0  0
   58.5069   24.9777   46.9993 H   0  0  0  0  0  0  0  0  0  0  0  0
   58.5000   22.5805   46.2964 H   0  0  0  0  0  0  0  0  0  0  0  0
   57.3141   20.9155   44.8686 H   0  0  0  0  0  0  0  0  0  0  0  0
   55.5370   20.6100   43.0880 H   0  0  0  0  0  0  0  0  0  0  0  0
   55.9875   24.0945   42.2507 H   0  0  0  0  0  0  0  0  0  0  0  0
   57.1740   25.7656   43.6736 H   0  0  0  0  0  0  0  0  0  0  0  0
  1  2  2  0
  2  3  1  0
  3  4  2  0
  4  5  1  0
  5  6  1  0
  6  7  2  0
  7  8  1  0
  8  9  2  0
  9 10  1  0
 10 11  1  0
 11 12  1  0
 12 13  2  0
 13 14  1  0
 14 15  2  0
 15 16  1  0
 16 17  2  0
  9 18  1  0
 18 19  2  0
  4 20  1  0
 20 21  2  0
 20 22  1  0
 22 23  1  0
 23 24  1  0
 24 25  2  0
 25 26  1  0
 26 27  2  0
 27 28  1  0
 27 29  1  0
 29 30  2  0
 22  2  1  0
 30 24  1  0
 19  6  1  0
 17 12  1  0
  5 31  1  0
  5 32  1  0
  7 33  1  0
  8 34  1  0
 11 35  1  0
 11 36  1  0
 13 37  1  0
 14 38  1  0
 15 39  1  0
 16 40  1  0
 17 41  1  0
 18 42  1  0
 19 43  1  0
 23 44  1  0
 23 45  1  0
 25 46  1  0
 26 47  1  0
 28 48  1  0
 29 49  1  0
 30 50  1  0
M  END
>  <UniqueID>  (3) 
3

>  <SMILES>  (3) 
O=C1N=C(Cc2ccc(OCc3ccccc3)cc2)C(=O)N1Cc1ccc(O)cc1

>  <Energy>  (3) 
78.97124460703236

>  <Genealogy>  (3) 
O=C1N=C(Cc2ccc(OCc3ccccc3)cc2)C(=O)N1Cc1ccc(O)cc1 (3D coordinates assigned)
O=C1N=C(Cc2ccc(OCc3ccccc3)cc2)C(=O)N1Cc1ccc(O)cc1 (nonaromatic ring conformer: 78.97124460703236 kcal/mol)

>  <smiles>  (3) 
O=C1N=C(Cc2ccc(OCc3ccccc3)cc2)C(=O)N1Cc1ccc(O)cc1

>  <score_type>  (3) 
oracle

>  <origin>  (3) 
adg

>  <m_score__min__energy>  (3) 
-9.9700000000000006

>  <m_primary>  (3) 
energy

$$$$
3:0
     RDKit          3D

 49 51  0  0  0  0  0  0  0  0999 V2000
   55.9560   20.5310   46.8020 C   0  0  0  0  0  0  0  0  0  0  0  0
   56.5550   19.9910   45.7360 C   0  0  0  0  0  0  0  0  0  0  0  0
   55.8050   19.7160   44.4680 C   0  0  0  0  0  0  0  0  0  0  0  0
   55.9620   20.8390   43.5500 N   0  0  0  0  0  0  0  0  0  0  0  0
   56.8030   21.9750   43.7880 C   0  0  0  0  0  0  0  0  0  0  0  0
   58.0030   21.9280   43.4110 O   0  0  0  0  0  0  0  0  0  0  0  0
   56.2980   23.2050   44.4270 C   0  0  0  0  0  0  0  0  0  0  0  0
   54.9330   23.3240   44.7320 C   0  0  0  0  0  0  0  0  0  0  0  0
   54.4420   24.4920   45.3200 C   0  0  0  0  0  0  0  0  0  0  0  0
   55.3040   25.5570   45.5970 C   0  0  0  0  0  0  0  0  0  0  0  0
   54.7930   26.7150   46.1720 O   0  0  0  0  0  0  0  0  0  0  0  0
   56.6690   25.4560   45.2850 C   0  0  0  0  0  0  0  0  0  0  0  0
   57.7570   26.8140   45.5870 S   0  0  0  0  0  0  0  0  0  0  0  0
   57.0020   27.8720   46.3430 O   0  0  0  0  0  0  0  0  0  0  0  0
   58.9120   26.3610   46.4370 O   0  0  0  0  0  0  0  0  0  0  0  0
   58.3130   27.4730   44.0630 N   0  0  0  0  0  0  0  0  0  0  0  0
   59.6750   28.0080   44.1180 C   0  0  0  0  0  0  0  0  0  0  0  0
   59.7950   29.2380   45.0200 C   0  0  0  0  0  0  0  0  0  0  0  0
   58.6460   30.1660   44.9490 N   0  0  0  0  0  0  0  0  0  0  0  0
   58.7110   31.4250   45.6920 C   0  0  0  0  0  0  0  0  0  0  0  0
   59.4070   31.5200   46.9220 C   0  0  0  0  0  0  0  0  0  0  0  0
   59.4690   32.7260   47.6260 C   0  0  0  0  0  0  0  0  0  0  0  0
   58.8410   33.8650   47.1230 C   0  0  0  0  0  0  0  0  0  0  0  0
   58.9050   35.0610   47.8270 O   0  0  0  0  0  0  0  0  0  0  0  0
   58.1520   33.8000   45.9140 C   0  0  0  0  0  0  0  0  0  0  0  0
   58.0870   32.5990   45.2030 C   0  0  0  0  0  0  0  0  0  0  0  0
   57.3820   29.8030   44.2700 C   0  0  0  0  0  0  0  0  0  0  0  0
   57.3960   28.4690   43.5040 C   0  0  0  0  0  0  0  0  0  0  0  0
   57.1570   24.2840   44.6870 C   0  0  0  0  0  0  0  0  0  0  0  0
   56.5326   20.7214   47.7192 H   0  0  0  0  0  0  0  0  0  0  0  0
   54.8865   20.7850   46.7620 H   0  0  0  0  0  0  0  0  0  0  0  0
   57.6251   19.7423   45.7908 H   0  0  0  0  0  0  0  0  0  0  0  0
   56.2011   18.8029   43.9997 H   0  0  0  0  0  0  0  0  0  0  0  0
   54.7380   19.5803   44.6982 H   0  0  0  0  0  0  0  0  0  0  0  0
   54.2471   22.4940   44.5070 H   0  0  0  0  0  0  0  0  0  0  0  0
   53.3730   24.5741   45.5660 H   0  0  0  0  0  0  0  0  0  0  0  0
   60.3448   27.2244   44.5019 H   0  0  0  0  0  0  0  0  0  0  0  0
   59.9496   28.3177   43.0989 H   0  0  0  0  0  0  0  0  0  0  0  0
   59.8940   28.8930   46.0598 H   0  0  0  0  0  0  0  0  0  0  0  0
   60.6725   29.7997   44.6673 H   0  0  0  0  0  0  0  0  0  0  0  0
   59.9073   30.6295   47.3302 H   0  0  0  0  0  0  0  0  0  0  0  0
   60.0148   32.7768   48.5797 H   0  0  0  0  0  0  0  0  0  0  0  0
   57.6568   34.6985   45.5172 H   0  0  0  0  0  0  0  0  0  0  0  0
   57.5424   32.5645   44.2479 H   0  0  0  0  0  0  0  0  0  0  0  0
   56.5923   29.7460   45.0336 H   0  0  0  0  0  0  0  0  0  0  0  0
   57.2140   30.5824   43.5122 H   0  0  0  0  0  0  0  0  0  0  0  0
   56.3789   28.0503   43.5191 H   0  0  0  0  0  0  0  0  0  0  0  0
   57.7469   28.6897   42.4851 H   0  0  0  0  0  0  0  0  0  0  0  0
   58.2215   24.2104   44.4198 H   0  0  0  0  0  0  0  0  0  0  0  0
  1  2  2  0
  2  3  1  0
  3  4  1  0
  4  5  1  0
  5  6  2  0
  5  7  1  0
  7  8  2  0
  8  9  1  0
  9 10  2  0
 10 11  1  0
 10 12  1  0
 12 13  1  0
 13 14  2  0
 13 15  2  0
 13 16  1  0
 16 17  1  0
 17 18  1  0
 18 19  1  0
 19 20  1  0
 20 21  2  0
 21 22  1  0
 22 23  2  0
 23 24  1  0
 23 25  1  0
 25 26  2  0
 19 27  1  0
 27 28  1  0
 12 29  2  0
 29  7  1  0
 28 16  1  0
 26 20  1  0
  1 30  1  0
  1 31  1  0
  2 32  1  0
  3 33  1  0
  3 34  1  0
  8 35  1  0
  9 36  1  0
 17 37  1  0
 17 38  1  0
 18 39  1  0
 18 40  1  0
 21 41  1  0
 22 42  1  0
 25 43  1  0
 26 44  1  0
 27 45  1  0
 27 46  1  0
 28 47  1  0
 28 48  1  0
 29 49  1  0
M  CHG  3   4  -1  11  -1  24  -1
M  END
>  <UniqueID>  (4) 
4

>  <SMILES>  (4) 
C=CC[N-]C(=O)c1ccc([O-])c(S(=O)(=O)N2CCN(c3ccc([O-])cc3)CC2)c1

>  <Energy>  (4) 
62.269669797621724

>  <Genealogy>  (4) 
C=CC[N-]C(=O)c1ccc([O-])c(S(=O)(=O)N2CCN(c3ccc([O-])cc3)CC2)c1 (protonated)
C=CC[N-]C(=O)c1ccc([O-])c(S(=O)(=O)N2CCN(c3ccc([O-])cc3)CC2)c1 (3D coordinates assigned)
C=CC[N-]C(=O)c1ccc([O-])c(S(=O)(=O)N2CCN(c3ccc([O-])cc3)CC2)c1 (nonaromatic ring conformer: 62.269669797621724 kcal/mol)

>  <smiles>  (4) 
C=CCNC(=O)c1ccc(O)c(S(=O)(=O)N2CCN(c3ccc(O)cc3)CC2)c1

>  <score_type>  (4) 
oracle

>  <origin>  (4) 
adg

>  <m_score__min__energy>  (4) 
-13.33

>  <m_primary>  (4) 
energy

$$$$
4:0
     RDKit          3D

 42 44  0  0  0  0  0  0  0  0999 V2000
   64.5180   33.3260   47.9040 N   0  0  0  0  0  0  0  0  0  0  0  0
   63.1750   33.3910   48.9910 S   0  0  0  0  0  0  0  0  0  0  0  0
   63.1050   32.1130   49.7770 O   0  0  0  0  0  0  0  0  0  0  0  0
   63.3600   34.5360   49.9480 O   0  0  0  0  0  0  0  0  0  0  0  0
   61.6860   33.6130   48.0770 C   0  0  0  0  0  0  0  0  0  0  0  0
   61.6350   33.2710   46.7200 C   0  0  0  0  0  0  0  0  0  0  0  0
   60.4560   33.4570   45.9910 C   0  0  0  0  0  0  0  0  0  0  0  0
   59.3190   34.0000   46.6090 C   0  0  0  0  0  0  0  0  0  0  0  0
   58.0400   34.1610   45.8380 C   0  0  0  0  0  0  0  0  0  0  0  0
   57.7590   32.9210   45.0520 C   0  0  0  0  0  0  0  0  0  0  0  0
   57.3380   31.7660   45.6090 N   0  0  0  0  0  0  0  0  0  0  0  0
   57.2320   30.7670   44.6900 C   0  0  0  0  0  0  0  0  0  0  0  0
   56.7580   29.4230   45.0690 C   0  0  0  0  0  0  0  0  0  0  0  0
   55.5510   29.1230   44.8680 O   0  0  0  0  0  0  0  0  0  0  0  0
   57.6440   28.4470   45.6430 N   0  0  0  0  0  0  0  0  0  0  0  0
   58.4050   28.7720   46.8600 C   0  0  0  0  0  0  0  0  0  0  0  0
   59.8070   28.1570   46.7980 C   0  0  0  0  0  0  0  0  0  0  0  0
   59.7480   26.7180   46.3640 C   0  0  0  0  0  0  0  0  0  0  0  0
   60.7680   26.0460   46.3490 O   0  0  0  0  0  0  0  0  0  0  0  0
   58.4330   26.0970   45.9820 C   0  0  0  0  0  0  0  0  0  0  0  0
   57.6070   27.0680   45.1260 C   0  0  0  0  0  0  0  0  0  0  0  0
   57.5680   31.1310   43.3860 C   0  0  0  0  0  0  0  0  0  0  0  0
   58.0300   32.7470   43.4020 S   0  0  0  0  0  0  0  0  0  0  0  0
   59.3720   34.3350   47.9710 C   0  0  0  0  0  0  0  0  0  0  0  0
   60.5510   34.1500   48.6990 C   0  0  0  0  0  0  0  0  0  0  0  0
   64.4380   32.4290   47.3740 H   0  0  0  0  0  0  0  0  0  0  0  0
   65.3800   33.2540   48.4890 H   0  0  0  0  0  0  0  0  0  0  0  0
   62.5252   32.8547   46.2258 H   0  0  0  0  0  0  0  0  0  0  0  0
   60.4197   33.1763   44.9280 H   0  0  0  0  0  0  0  0  0  0  0  0
   57.2123   34.3436   46.5391 H   0  0  0  0  0  0  0  0  0  0  0  0
   58.1383   35.0121   45.1481 H   0  0  0  0  0  0  0  0  0  0  0  0
   58.4930   29.8647   46.9506 H   0  0  0  0  0  0  0  0  0  0  0  0
   57.8746   28.3601   47.7312 H   0  0  0  0  0  0  0  0  0  0  0  0
   60.4168   28.7243   46.0794 H   0  0  0  0  0  0  0  0  0  0  0  0
   60.2528   28.2011   47.8027 H   0  0  0  0  0  0  0  0  0  0  0  0
   58.6203   25.1778   45.4076 H   0  0  0  0  0  0  0  0  0  0  0  0
   57.8705   25.8643   46.8982 H   0  0  0  0  0  0  0  0  0  0  0  0
   58.0082   27.0643   44.1018 H   0  0  0  0  0  0  0  0  0  0  0  0
   56.5608   26.7293   45.1516 H   0  0  0  0  0  0  0  0  0  0  0  0
   57.5362   30.4759   42.5029 H   0  0  0  0  0  0  0  0  0  0  0  0
   58.4808   34.7454   48.4684 H   0  0  0  0  0  0  0  0  0  0  0  0
   60.5878   34.4267   49.7630 H   0  0  0  0  0  0  0  0  0  0  0  0
  1  2  1  0
  2  3  2  0
  2  4  2  0
  2  5  1  0
  5  6  2  0
  6  7  1  0
  7  8  2  0
  8  9  1  0
  9 10  1  0
 10 11  2  0
 11 12  1  0
 12 13  1  0
 13 14  2  0
 13 15  1  0
 15 16  1  0
 16 17  1  0
 17 18  1  0
 18 19  2  0
 18 20  1  0
 20 21  1  0
 12 22  2  0
 22 23  1  0
  8 24  1  0
 24 25  2  0
 25  5  1  0
 23 10  1  0
 21 15  1  0
  1 26  1  0
  1 27  1  0
  6 28  1  0
  7 29  1  0
  9 30  1  0
  9 31  1  0
 16 32  1  0
 16 33  1  0
 17 34  1  0
 17 35  1  0
 20 36  1  0
 20 37  1  0
 21 38  1  0
 21 39  1  0
 22 40  1  0
 24 41  1  0
 25 42  1  0
M  END
>  <UniqueID>  (5) 
5

>  <SMILES>  (5) 
NS(=O)(=O)c1ccc(Cc2nc(C(=O)N3CCC(=O)CC3)cs2)cc1

>  <Energy>  (5) 
71.11798383839943

>  <Genealogy>  (5) 
NS(=O)(=O)c1ccc(Cc2nc(C(=O)N3CCC(=O)CC3)cs2)cc1 (3D coordinates assigned)
NS(=O)(=O)c1ccc(Cc2nc(C(=O)N3CCC(=O)CC3)cs2)cc1 (nonaromatic ring conformer: 71.11798383839943 kcal/mol)

>  <smiles>  (5) 
NS(=O)(=O)c1ccc(Cc2nc(C(=O)N3CCC(=O)CC3)cs2)cc1

>  <score_type>  (5) 
oracle

>  <origin>  (5) 
adg

>  <m_score__min__energy>  (5) 
-9.3699999999999992

>  <m_primary>  (5) 
energy

$$$$
5:0
     RDKit          3D

 39 41  0  0  0  0  0  0  0  0999 V2000
   57.5320   31.6520   43.0700 O   0  0  0  0  0  0  0  0  0  0  0  0
   57.2630   31.5590   44.5460 S   0  0  0  0  0  0  0  0  0  0  0  0
   55.9000   30.9500   44.7300 O   0  0  0  0  0  0  0  0  0  0  0  0
   58.4740   30.5120   45.2920 C   0  0  0  0  0  0  0  0  0  0  0  0
   58.5870   30.4510   46.6890 C   0  0  0  0  0  0  0  0  0  0  0  0
   59.5430   29.6190   47.2810 C   0  0  0  0  0  0  0  0  0  0  0  0
   60.3870   28.8430   46.4820 C   0  0  0  0  0  0  0  0  0  0  0  0
   60.2780   28.8990   45.0900 C   0  0  0  0  0  0  0  0  0  0  0  0
   59.3260   29.7320   44.4950 C   0  0  0  0  0  0  0  0  0  0  0  0
   57.2880   33.1660   45.2400 N   0  0  0  0  0  0  0  0  0  0  0  0
   58.2870   34.0230   44.5650 C   0  0  0  0  0  0  0  0  0  0  0  0
   59.6530   33.8630   45.1650 C   0  0  0  0  0  0  0  0  0  0  0  0
   59.7790   33.8300   46.4960 C   0  0  0  0  0  0  0  0  0  0  0  0
   61.1070   33.6880   47.1470 C   0  0  0  0  0  0  0  0  0  0  0  0
   62.2940   33.7570   46.3910 C   0  0  0  0  0  0  0  0  0  0  0  0
   63.5390   33.6050   47.0080 C   0  0  0  0  0  0  0  0  0  0  0  0
   63.6190   33.3850   48.3860 C   0  0  0  0  0  0  0  0  0  0  0  0
   64.8680   33.2360   48.9860 O   0  0  0  0  0  0  0  0  0  0  0  0
   62.4460   33.3170   49.1480 C   0  0  0  0  0  0  0  0  0  0  0  0
   61.1990   33.4650   48.5330 C   0  0  0  0  0  0  0  0  0  0  0  0
   58.5230   33.9850   47.3140 C   0  0  0  0  0  0  0  0  0  0  0  0
   57.3890   33.1230   46.7260 C   0  0  0  0  0  0  0  0  0  0  0  0
   57.9222   31.0589   47.3203 H   0  0  0  0  0  0  0  0  0  0  0  0
   59.6305   29.5755   48.3766 H   0  0  0  0  0  0  0  0  0  0  0  0
   61.1373   28.1880   46.9489 H   0  0  0  0  0  0  0  0  0  0  0  0
   60.9420   28.2870   44.4618 H   0  0  0  0  0  0  0  0  0  0  0  0
   59.2445   29.7762   43.3989 H   0  0  0  0  0  0  0  0  0  0  0  0
   58.3309   33.7485   43.5007 H   0  0  0  0  0  0  0  0  0  0  0  0
   57.9788   35.0716   44.6898 H   0  0  0  0  0  0  0  0  0  0  0  0
   60.5388   33.7741   44.5188 H   0  0  0  0  0  0  0  0  0  0  0  0
   62.2405   33.9319   45.3063 H   0  0  0  0  0  0  0  0  0  0  0  0
   64.4588   33.6587   46.4071 H   0  0  0  0  0  0  0  0  0  0  0  0
   65.6970   33.0340   48.4400 H   0  0  0  0  0  0  0  0  0  0  0  0
   62.5058   33.1467   50.2331 H   0  0  0  0  0  0  0  0  0  0  0  0
   60.2822   33.4066   49.1380 H   0  0  0  0  0  0  0  0  0  0  0  0
   58.7220   33.6659   48.3477 H   0  0  0  0  0  0  0  0  0  0  0  0
   58.2142   35.0406   47.2970 H   0  0  0  0  0  0  0  0  0  0  0  0
   57.5583   32.0792   47.0289 H   0  0  0  0  0  0  0  0  0  0  0  0
   56.4471   33.5363   47.1160 H   0  0  0  0  0  0  0  0  0  0  0  0
  1  2  2  0
  2  3  2  0
  2  4  1  0
  4  5  2  0
  5  6  1  0
  6  7  2  0
  7  8  1  0
  8  9  2  0
  2 10  1  0
 10 11  1  0
 11 12  1  0
 12 13  2  0
 13 14  1  0
 14 15  2  0
 15 16  1  0
 16 17  2  0
 17 18  1  0
 17 19  1  0
 19 20  2  0
 13 21  1  0
 21 22  1  0
  9  4  1  0
 22 10  1  0
 20 14  1  0
  5 23  1  0
  6 24  1  0
  7 25  1  0
  8 26  1  0
  9 27  1  0
 11 28  1  0
 11 29  1  0
 12 30  1  0
 15 31  1  0
 16 32  1  0
 18 33  1  0
 19 34  1  0
 20 35  1  0
 21 36  1  0
 21 37  1  0
 22 38  1  0
 22 39  1  0
M  END
>  <UniqueID>  (6) 
6

>  <SMILES>  (6) 
O=S(=O)(c1ccccc1)N1CC=C(c2ccc(O)cc2)CC1

>  <Energy>  (6) 
49.457592385594005

>  <Genealogy>  (6) 
O=S(=O)(c1ccccc1)N1CC=C(c2ccc(O)cc2)CC1 (3D coordinates assigned)
O=S(=O)(c1ccccc1)N1CC=C(c2ccc(O)cc2)CC1 (nonaromatic ring conformer: 49.457592385594005 kcal/mol)

>  <smiles>  (6) 
O=S(=O)(c1ccccc1)N1CC=C(c2ccc(O)cc2)CC1

>  <score_type>  (6) 
oracle

>  <origin>  (6) 
adg

>  <m_score__min__energy>  (6) 
-8.5

>  <m_primary>  (6) 
energy

$$$$
6:0
     RDKit          3D

 52 54  0  0  0  0  0  0  0  0999 V2000
   54.2930   25.5290   46.3720 H   0  0  0  0  0  0  0  0  0  0  0  0
   54.7630   26.2960   45.9070 O   0  0  0  0  0  0  0  0  0  0  0  0
   56.1460   26.4530   45.9690 C   0  0  0  0  0  0  0  0  0  0  0  0
   56.7560   27.6200   45.4880 C   0  0  0  0  0  0  0  0  0  0  0  0
   56.1407   28.4231   45.0563 H   0  0  0  0  0  0  0  0  0  0  0  0
   58.1450   27.7650   45.5560 C   0  0  0  0  0  0  0  0  0  0  0  0
   58.6190   28.6830   45.1785 H   0  0  0  0  0  0  0  0  0  0  0  0
   58.9370   26.7440   46.1040 C   0  0  0  0  0  0  0  0  0  0  0  0
   60.4270   26.9280   46.2180 C   0  0  0  0  0  0  0  0  0  0  0  0
   60.7765   27.5713   45.3970 H   0  0  0  0  0  0  0  0  0  0  0  0
   60.9134   25.9431   46.1601 H   0  0  0  0  0  0  0  0  0  0  0  0
   60.7670   27.5490   47.4930 N   0  0  0  0  0  0  0  0  0  0  0  0
   59.9550   28.5390   48.1300 C   0  0  0  0  0  0  0  0  0  0  0  0
   59.2740   28.2380   49.1480 O   0  0  0  0  0  0  0  0  0  0  0  0
   59.8750   29.9040   47.5570 C   0  0  0  0  0  0  0  0  0  0  0  0
   58.7650   30.5920   47.5260 N   0  0  0  0  0  0  0  0  0  0  0  0
   58.6050   31.9850   47.8420 C   0  0  0  0  0  0  0  0  0  0  0  0
   58.2870   32.3070   49.0180 O   0  0  0  0  0  0  0  0  0  0  0  0
   58.7320   33.0350   46.8030 C   0  0  0  0  0  0  0  0  0  0  0  0
   59.4570   34.2030   47.0830 C   0  0  0  0  0  0  0  0  0  0  0  0
   59.9486   34.3280   48.0590 H   0  0  0  0  0  0  0  0  0  0  0  0
   59.5510   35.2040   46.1180 C   0  0  0  0  0  0  0  0  0  0  0  0
   60.1182   36.1216   46.3331 H   0  0  0  0  0  0  0  0  0  0  0  0
   58.9450   35.0500   44.9140 N   0  0  0  0  0  0  0  0  0  0  0  0
   58.2310   33.9340   44.6100 C   0  0  0  0  0  0  0  0  0  0  0  0
   57.7560   33.8408   43.6222 H   0  0  0  0  0  0  0  0  0  0  0  0
   58.0960   32.8970   45.5520 C   0  0  0  0  0  0  0  0  0  0  0  0
   57.3310   31.7460   45.2980 O   0  0  0  0  0  0  0  0  0  0  0  0
   57.5550   30.8170   44.2380 C   0  0  0  0  0  0  0  0  0  0  0  0
   58.1313   29.9625   44.6224 H   0  0  0  0  0  0  0  0  0  0  0  0
   58.1122   31.3231   43.4359 H   0  0  0  0  0  0  0  0  0  0  0  0
   56.2300   30.3140   43.6730 C   0  0  0  0  0  0  0  0  0  0  0  0
   55.5525   30.0568   44.5006 H   0  0  0  0  0  0  0  0  0  0  0  0
   55.7723   31.1009   43.0555 H   0  0  0  0  0  0  0  0  0  0  0  0
   56.4099   29.4216   43.0555 H   0  0  0  0  0  0  0  0  0  0  0  0
   61.0910   30.4840   46.8890 C   0  0  0  0  0  0  0  0  0  0  0  0
   61.8063   29.6761   46.6752 H   0  0  0  0  0  0  0  0  0  0  0  0
   60.7826   30.9754   45.9544 H   0  0  0  0  0  0  0  0  0  0  0  0
   61.7480   31.5040   47.7810 C   0  0  0  0  0  0  0  0  0  0  0  0
   62.4470   32.5930   47.2360 C   0  0  0  0  0  0  0  0  0  0  0  0
   62.5565   32.6836   46.1452 H   0  0  0  0  0  0  0  0  0  0  0  0
   62.9890   33.5360   48.0520 N   0  0  0  0  0  0  0  0  0  0  0  0
   62.8770   33.4600   49.4050 C   0  0  0  0  0  0  0  0  0  0  0  0
   63.3246   34.2401   50.0383 H   0  0  0  0  0  0  0  0  0  0  0  0
   62.1940   32.3920   49.9910 C   0  0  0  0  0  0  0  0  0  0  0  0
   62.1047   32.3233   51.0852 H   0  0  0  0  0  0  0  0  0  0  0  0
   61.6260   31.4130   49.1750 C   0  0  0  0  0  0  0  0  0  0  0  0
   61.0823   30.5695   49.6254 H   0  0  0  0  0  0  0  0  0  0  0  0
   58.3220   25.5780   46.5860 C   0  0  0  0  0  0  0  0  0  0  0  0
   58.9352   24.7744   47.0197 H   0  0  0  0  0  0  0  0  0  0  0  0
   56.9330   25.4340   46.5170 C   0  0  0  0  0  0  0  0  0  0  0  0
   56.4574   24.5168   46.8947 H   0  0  0  0  0  0  0  0  0  0  0  0
  1  2  1  0
  2  3  1  0
  3  4  2  0
  4  5  1  0
  4  6  1  0
  6  7  1  0
  6  8  2  0
  8  9  1  0
  9 10  1  0
  9 11  1  0
  9 12  1  0
 12 13  1  0
 13 14  2  0
 13 15  1  0
 15 16  2  0
 16 17  1  0
 17 18  2  0
 17 19  1  0
 19 20  2  0
 20 21  1  0
 20 22  1  0
 22 23  1  0
 22 24  2  0
 24 25  1  0
 25 26  1  0
 25 27  2  0
 27 28  1  0
 28 29  1  0
 29 30  1  0
 29 31  1  0
 29 32  1  0
 32 33  1  0
 32 34  1  0
 32 35  1  0
 15 36  1  0
 36 37  1  0
 36 38  1  0
 36 39  1  0
 39 40  2  0
 40 41  1  0
 40 42  1  0
 42 43  2  0
 43 44  1  0
 43 45  1  0
 45 46  1  0
 45 47  2  0
 47 48  1  0
  8 49  1  0
 49 50  1  0
 49 51  2  0
 51 52  1  0
 51  3  1  0
 27 19  1  0
 47 39  1  0
M  CHG  1  12  -1
M  END
>  <UniqueID>  (7) 
7

>  <SMILES>  (7) 
CCOc1cnccc1C(=O)/N=C(/Cc1cccnc1)C(=O)[N-]Cc1ccc(O)cc1

>  <Energy>  (7) 
59.02671558746583

>  <Genealogy>  (7) 
CCOc1cnccc1C(=O)N=C(Cc1cccnc1)C(=O)[N-]Cc1ccc(O)cc1 (protonated)
CCOc1cnccc1C(=O)/N=C(/Cc1cccnc1)C(=O)[N-]Cc1ccc(O)cc1 (cis-trans isomerization)
CCOc1cnccc1C(=O)/N=C(/Cc1cccnc1)C(=O)[N-]Cc1ccc(O)cc1 (3D coordinates assigned)
CCOc1cnccc1C(=O)/N=C(/Cc1cccnc1)C(=O)[N-]Cc1ccc(O)cc1 (optimized conformer: 59.02671558746583 kcal/mol)

>  <smiles>  (7) 
CCOc1cnccc1C(=O)N=C(Cc1cccnc1)C(=O)NCc1ccc(O)cc1

>  <score_type>  (7) 
oracle

>  <origin>  (7) 
adg

>  <m_score__min__energy>  (7) 
-10.1

>  <m_primary>  (7) 
energy

$$$$
7:0
     RDKit          3D

 45 47  0  0  0  0  0  0  0  0999 V2000
   55.4170   31.1660   52.4840 C   0  0  0  0  0  0  0  0  0  0  0  0
   56.5350   30.2680   52.0530 C   0  0  0  0  0  0  0  0  0  0  0  0
   56.5060   29.0490   52.3690 O   0  0  0  0  0  0  0  0  0  0  0  0
   57.6660   30.7880   51.2660 C   0  0  0  0  0  0  0  0  0  0  0  0
   58.7880   30.0710   50.8560 C   0  0  0  0  0  0  0  0  0  0  0  0
   59.6950   30.8380   50.1140 C   0  0  0  0  0  0  0  0  0  0  0  0
   59.2820   32.1520   49.9310 C   0  0  0  0  0  0  0  0  0  0  0  0
   59.9980   33.2030   49.1910 C   0  0  0  0  0  0  0  0  0  0  0  0
   59.4880   34.3510   49.1200 O   0  0  0  0  0  0  0  0  0  0  0  0
   61.2290   32.9490   48.4980 N   0  0  0  0  0  0  0  0  0  0  0  0
   61.3580   32.4540   47.1270 C   0  0  0  0  0  0  0  0  0  0  0  0
   60.0930   31.7610   46.6730 C   0  0  0  0  0  0  0  0  0  0  0  0
   60.0380   30.3570   46.6620 C   0  0  0  0  0  0  0  0  0  0  0  0
   58.8980   29.6810   46.1980 C   0  0  0  0  0  0  0  0  0  0  0  0
   58.8880   28.1990   46.1600 C   0  0  0  0  0  0  0  0  0  0  0  0
   60.0940   27.4780   46.1200 C   0  0  0  0  0  0  0  0  0  0  0  0
   60.0800   26.0810   46.0940 C   0  0  0  0  0  0  0  0  0  0  0  0
   58.8670   25.3900   46.1180 C   0  0  0  0  0  0  0  0  0  0  0  0
   57.6580   26.0960   46.1750 C   0  0  0  0  0  0  0  0  0  0  0  0
   56.1270   25.2260   46.1940 S   0  0  0  0  0  0  0  0  0  0  0  0
   54.8280   26.3490   46.0030 N   0  0  0  0  0  0  0  0  0  0  0  0
   55.9720   24.4960   47.4990 O   0  0  0  0  0  0  0  0  0  0  0  0
   56.0960   24.2250   45.0730 O   0  0  0  0  0  0  0  0  0  0  0  0
   57.6710   27.4970   46.1920 C   0  0  0  0  0  0  0  0  0  0  0  0
   57.7830   30.4290   45.7730 C   0  0  0  0  0  0  0  0  0  0  0  0
   56.6220   29.7960   45.3400 O   0  0  0  0  0  0  0  0  0  0  0  0
   57.8220   31.8250   45.8050 C   0  0  0  0  0  0  0  0  0  0  0  0
   58.9650   32.4970   46.2560 C   0  0  0  0  0  0  0  0  0  0  0  0
   58.9790   33.8910   46.2900 O   0  0  0  0  0  0  0  0  0  0  0  0
   57.8100   32.3710   50.7120 S   0  0  0  0  0  0  0  0  0  0  0  0
   55.3760   31.1990   53.5827 H   0  0  0  0  0  0  0  0  0  0  0  0
   55.5893   32.1796   52.0929 H   0  0  0  0  0  0  0  0  0  0  0  0
   54.4644   30.7791   52.0929 H   0  0  0  0  0  0  0  0  0  0  0  0
   58.9458   29.0082   51.0916 H   0  0  0  0  0  0  0  0  0  0  0  0
   60.6400   30.4399   49.7158 H   0  0  0  0  0  0  0  0  0  0  0  0
   61.5622   33.3024   46.4572 H   0  0  0  0  0  0  0  0  0  0  0  0
   62.1830   31.7271   47.0960 H   0  0  0  0  0  0  0  0  0  0  0  0
   60.9013   29.7785   47.0224 H   0  0  0  0  0  0  0  0  0  0  0  0
   61.0533   28.0161   46.1091 H   0  0  0  0  0  0  0  0  0  0  0  0
   61.0277   25.5239   46.0545 H   0  0  0  0  0  0  0  0  0  0  0  0
   58.8605   24.2903   46.0921 H   0  0  0  0  0  0  0  0  0  0  0  0
   55.1400   27.0620   45.3070 H   0  0  0  0  0  0  0  0  0  0  0  0
   56.7217   28.0514   46.2307 H   0  0  0  0  0  0  0  0  0  0  0  0
   56.9465   32.4021   45.4727 H   0  0  0  0  0  0  0  0  0  0  0  0
   59.4830   34.4010   47.0060 H   0  0  0  0  0  0  0  0  0  0  0  0
  1  2  1  0
  2  3  2  0
  2  4  1  0
  4  5  2  0
  5  6  1  0
  6  7  2  0
  7  8  1  0
  8  9  2  0
  8 10  1  0
 10 11  1  0
 11 12  1  0
 12 13  2  0
 13 14  1  0
 14 15  1  0
 15 16  2  0
 16 17  1  0
 17 18  2  0
 18 19  1  0
 19 20  1  0
 20 21  1  0
 20 22  2  0
 20 23  2  0
 19 24  2  0
 14 25  2  0
 25 26  1  0
 25 27  1  0
 27 28  2  0
 28 29  1  0
  7 30  1  0
 30  4  1  0
 28 12  1  0
 24 15  1  0
  1 31  1  0
  1 32  1  0
  1 33  1  0
  5 34  1  0
  6 35  1  0
 11 36  1  0
 11 37  1  0
 13 38  1  0
 16 39  1  0
 17 40  1  0
 18 41  1  0
 21 42  1  0
 24 43  1  0
 27 44  1  0
 29 45  1  0
M  CHG  3  10  -1  21  -1  26  -1
M  END
>  <UniqueID>  (8) 
8

>  <SMILES>  (8) 
CC(=O)c1ccc(C(=O)[N-]Cc2cc(-c3cccc(S([NH-])(=O)=O)c3)c([O-])cc2O)s1

>  <Energy>  (8) 
79.5174948903797

>  <Genealogy>  (8) 
CC(=O)c1ccc(C(=O)[N-]Cc2cc(-c3cccc(S([NH-])(=O)=O)c3)c([O-])cc2O)s1 (protonated)
CC(=O)c1ccc(C(=O)[N-]Cc2cc(-c3cccc(S([NH-])(=O)=O)c3)c([O-])cc2O)s1 (3D coordinates assigned)
CC(=O)c1ccc(C(=O)[N-]Cc2cc(-c3cccc(S([NH-])(=O)=O)c3)c([O-])cc2O)s1 (optimized conformer: 79.5174948903797 kcal/mol)

>  <smiles>  (8) 
CC(=O)c1ccc(C(=O)NCc2cc(-c3cccc(S(N)(=O)=O)c3)c(O)cc2O)s1

>  <score_type>  (8) 
oracle

>  <origin>  (8) 
adg

>  <m_score__min__energy>  (8) 
-14.25

>  <m_primary>  (8) 
energy

$$$$
8:0
     RDKit          3D

 32 34  0  0  0  0  0  0  0  0999 V2000
   56.4350   29.9080   55.3280 C   0  0  0  0  0  0  0  0  0  0  0  0
   55.6110   30.2990   54.3540 C   0  0  0  0  0  0  0  0  0  0  0  0
   54.2760   30.4320   54.5400 N   0  0  0  0  0  0  0  0  0  0  0  0
   53.8030   30.8030   53.3300 C   0  0  0  0  0  0  0  0  0  0  0  0
   52.5140   31.0450   53.0500 C   0  0  0  0  0  0  0  0  0  0  0  0
   51.9790   31.1310   51.6770 C   0  0  0  0  0  0  0  0  0  0  0  0
   52.0630   30.1530   50.7420 N   0  0  0  0  0  0  0  0  0  0  0  0
   51.4410   30.6850   49.6650 C   0  0  0  0  0  0  0  0  0  0  0  0
   51.3090   30.0740   48.5730 O   0  0  0  0  0  0  0  0  0  0  0  0
   50.9810   31.9280   49.8800 N   0  0  0  0  0  0  0  0  0  0  0  0
   50.3090   32.7350   48.9930 O   0  0  0  0  0  0  0  0  0  0  0  0
   51.3150   32.2160   51.1430 C   0  0  0  0  0  0  0  0  0  0  0  0
   51.0280   33.4160   51.7820 O   0  0  0  0  0  0  0  0  0  0  0  0
   54.8560   30.8830   52.4440 C   0  0  0  0  0  0  0  0  0  0  0  0
   54.7840   31.1920   51.2230 O   0  0  0  0  0  0  0  0  0  0  0  0
   55.9980   30.5820   53.0840 N   0  0  0  0  0  0  0  0  0  0  0  0
   57.3100   30.4930   52.5050 C   0  0  0  0  0  0  0  0  0  0  0  0
   57.7630   29.2420   52.0590 C   0  0  0  0  0  0  0  0  0  0  0  0
   59.0510   29.0960   51.5440 C   0  0  0  0  0  0  0  0  0  0  0  0
   59.9010   30.1980   51.4700 C   0  0  0  0  0  0  0  0  0  0  0  0
   59.4620   31.4530   51.8980 C   0  0  0  0  0  0  0  0  0  0  0  0
   58.1620   31.6250   52.4090 C   0  0  0  0  0  0  0  0  0  0  0  0
   57.7220   32.9880   52.8000 C   0  0  0  0  0  0  0  0  0  0  0  0
   56.6240   33.4560   52.4010 O   0  0  0  0  0  0  0  0  0  0  0  0
   58.5420   33.7850   53.5910 O   0  0  0  0  0  0  0  0  0  0  0  0
   57.5132   29.8137   55.1315 H   0  0  0  0  0  0  0  0  0  0  0  0
   56.0361   29.6800   56.3274 H   0  0  0  0  0  0  0  0  0  0  0  0
   51.8174   31.1872   53.8894 H   0  0  0  0  0  0  0  0  0  0  0  0
   57.0965   28.3688   52.1160 H   0  0  0  0  0  0  0  0  0  0  0  0
   59.3959   28.1111   51.1962 H   0  0  0  0  0  0  0  0  0  0  0  0
   60.9202   30.0791   51.0735 H   0  0  0  0  0  0  0  0  0  0  0  0
   60.1401   32.3168   51.8349 H   0  0  0  0  0  0  0  0  0  0  0  0
  1  2  2  0
  2  3  1  0
  3  4  1  0
  4  5  2  3
  5  6  1  0
  6  7  1  0
  7  8  1  0
  8  9  2  0
  8 10  1  0
 10 11  1  0
 10 12  1  0
 12 13  1  0
  4 14  1  0
 14 15  2  0
 14 16  1  0
 16 17  1  0
 17 18  2  0
 18 19  1  0
 19 20  2  0
 20 21  1  0
 21 22  2  0
 22 23  1  0
 23 24  2  0
 23 25  1  0
 16  2  1  0
 22 17  1  0
 12  6  2  0
  1 26  1  0
  1 27  1  0
  5 28  1  0
 18 29  1  0
 19 30  1  0
 20 31  1  0
 21 32  1  0
M  CHG  5   3  -1   7  -1  11  -1  13  -1  25  -1
M  END
>  <UniqueID>  (9) 
9

>  <SMILES>  (9) 
C=c1[n-]c(=Cc2[n-]c(=O)n([O-])c2[O-])c(=O)n1-c1ccccc1C(=O)[O-]

>  <Energy>  (9) 
112.43766337970929

>  <Genealogy>  (9) 
C=c1[n-]c(=Cc2[n-]c(=O)n([O-])c2[O-])c(=O)n1-c1ccccc1C(=O)[O-] (protonated)
C=c1[n-]c(=Cc2[n-]c(=O)n([O-])c2[O-])c(=O)n1-c1ccccc1C(=O)[O-] (3D coordinates assigned)
C=c1[n-]c(=Cc2[n-]c(=O)n([O-])c2[O-])c(=O)n1-c1ccccc1C(=O)[O-] (optimized conformer: 112.43766337970929 kcal/mol)

>  <smiles>  (9) 
C=c1[nH]c(=Cc2[nH]c(=O)n(O)c2O)c(=O)n1-c1ccccc1C(=O)O

>  <score_type>  (9) 
oracle

>  <origin>  (9) 
adg

>  <m_score__min__energy>  (9) 
-19.550000000000001

>  <m_primary>  (9) 
energy

$$$$
9:0
     RDKit          3D

 39 41  0  0  0  0  0  0  0  0999 V2000
   61.0210   34.5940   48.3050 O   0  0  0  0  0  0  0  0  0  0  0  0
   61.0010   33.6630   47.4540 C   0  0  0  0  0  0  0  0  0  0  0  0
   62.1160   32.7580   47.3630 N   0  0  0  0  0  0  0  0  0  0  0  0
   63.0500   32.5320   48.4330 C   0  0  0  0  0  0  0  0  0  0  0  0
   62.8390   31.5250   49.3910 C   0  0  0  0  0  0  0  0  0  0  0  0
   63.7730   31.3090   50.4090 C   0  0  0  0  0  0  0  0  0  0  0  0
   64.9430   32.0890   50.4770 C   0  0  0  0  0  0  0  0  0  0  0  0
   65.9130   31.9170   51.4780 O   0  0  0  0  0  0  0  0  0  0  0  0
   66.6620   30.7250   51.7050 C   0  0  0  0  0  0  0  0  0  0  0  0
   67.1820   30.2540   50.5120 F   0  0  0  0  0  0  0  0  0  0  0  0
   67.6850   30.9680   52.6030 F   0  0  0  0  0  0  0  0  0  0  0  0
   65.8230   29.7630   52.2350 F   0  0  0  0  0  0  0  0  0  0  0  0
   65.1600   33.0770   49.5100 C   0  0  0  0  0  0  0  0  0  0  0  0
   64.2270   33.2920   48.4920 C   0  0  0  0  0  0  0  0  0  0  0  0
   59.8500   33.5470   46.5260 C   0  0  0  0  0  0  0  0  0  0  0  0
   59.3990   34.6600   45.7950 C   0  0  0  0  0  0  0  0  0  0  0  0
   58.3180   34.5400   44.9180 C   0  0  0  0  0  0  0  0  0  0  0  0
   57.6780   33.3110   44.7540 C   0  0  0  0  0  0  0  0  0  0  0  0
   58.1160   32.1820   45.4660 C   0  0  0  0  0  0  0  0  0  0  0  0
   57.4410   30.8780   45.2890 C   0  0  0  0  0  0  0  0  0  0  0  0
   57.9630   29.7010   45.6910 N   0  0  0  0  0  0  0  0  0  0  0  0
   57.0040   28.8310   45.3160 C   0  0  0  0  0  0  0  0  0  0  0  0
   57.0660   27.3630   45.5870 C   0  0  0  0  0  0  0  0  0  0  0  0
   55.7720   26.8370   45.6780 O   0  0  0  0  0  0  0  0  0  0  0  0
   55.9530   29.4390   44.7370 N   0  0  0  0  0  0  0  0  0  0  0  0
   56.2320   30.7310   44.7150 N   0  0  0  0  0  0  0  0  0  0  0  0
   59.2050   32.3080   46.3470 C   0  0  0  0  0  0  0  0  0  0  0  0
   62.3240   32.3290   46.4340 H   0  0  0  0  0  0  0  0  0  0  0  0
   61.9333   30.9029   49.3394 H   0  0  0  0  0  0  0  0  0  0  0  0
   63.5927   30.5259   51.1602 H   0  0  0  0  0  0  0  0  0  0  0  0
   66.0727   33.6896   49.5515 H   0  0  0  0  0  0  0  0  0  0  0  0
   64.4174   34.0633   47.7312 H   0  0  0  0  0  0  0  0  0  0  0  0
   59.9005   35.6317   45.9143 H   0  0  0  0  0  0  0  0  0  0  0  0
   57.9700   35.4182   44.3544 H   0  0  0  0  0  0  0  0  0  0  0  0
   56.8260   33.2257   44.0635 H   0  0  0  0  0  0  0  0  0  0  0  0
   57.6051   26.8640   44.7682 H   0  0  0  0  0  0  0  0  0  0  0  0
   57.5919   27.1937   46.5382 H   0  0  0  0  0  0  0  0  0  0  0  0
   55.1460   27.5880   45.5080 H   0  0  0  0  0  0  0  0  0  0  0  0
   59.5576   31.4271   46.9036 H   0  0  0  0  0  0  0  0  0  0  0  0
  1  2  2  0
  2  3  1  0
  3  4  1  0
  4  5  2  0
  5  6  1  0
  6  7  2  0
  7  8  1  0
  8  9  1  0
  9 10  1  0
  9 11  1  0
  9 12  1  0
  7 13  1  0
 13 14  2  0
  2 15  1  0
 15 16  2  0
 16 17  1  0
 17 18  2  0
 18 19  1  0
 19 20  1  0
 20 21  2  0
 21 22  1  0
 22 23  1  0
 23 24  1  0
 22 25  2  0
 25 26  1  0
 19 27  2  0
 14  4  1  0
 27 15  1  0
 26 20  1  0
  3 28  1  0
  5 29  1  0
  6 30  1  0
 13 31  1  0
 14 32  1  0
 16 33  1  0
 17 34  1  0
 18 35  1  0
 23 36  1  0
 23 37  1  0
 24 38  1  0
 27 39  1  0
M  CHG  1  26  -1
M  END
>  <UniqueID>  (10) 
10

>  <SMILES>  (10) 
O=C(Nc1ccc(OC(F)(F)F)cc1)c1cccc(-c2nc(CO)n[n-]2)c1

>  <Energy>  (10) 
78.32327388779119

>  <Genealogy>  (10) 
O=C(Nc1ccc(OC(F)(F)F)cc1)c1cccc(-c2nc(CO)n[n-]2)c1 (protonated)
O=C(Nc1ccc(OC(F)(F)F)cc1)c1cccc(-c2nc(CO)n[n-]2)c1 (3D coordinates assigned)
O=C(Nc1ccc(OC(F)(F)F)cc1)c1cccc(-c2nc(CO)n[n-]2)c1 (optimized conformer: 78.32327388779119 kcal/mol)

>  <smiles>  (10) 
O=C(Nc1ccc(OC(F)(F)F)cc1)c1cccc(-c2nc(CO)n[nH]2)c1

>  <score_type>  (10) 
oracle

>  <origin>  (10) 
adg

>  <m_score__min__energy>  (10) 
-10.029999999999999

>  <m_primary>  (10) 
energy

$$$$
10:0
     RDKit          3D

 43 45  0  0  0  0  0  0  0  0999 V2000
   54.5800   29.4510   54.5560 C   0  0  0  0  0  0  0  0  0  0  0  0
   55.0850   29.9310   53.4090 C   0  0  0  0  0  0  0  0  0  0  0  0
   54.4520   30.8010   52.5070 C   0  0  0  0  0  0  0  0  0  0  0  0
   53.1730   31.2160   52.4270 C   0  0  0  0  0  0  0  0  0  0  0  0
   52.3620   31.2680   51.2010 C   0  0  0  0  0  0  0  0  0  0  0  0
   52.3580   30.2980   50.2700 N   0  0  0  0  0  0  0  0  0  0  0  0
   51.3980   30.6960   49.4080 C   0  0  0  0  0  0  0  0  0  0  0  0
   51.1040   30.0420   48.3730 O   0  0  0  0  0  0  0  0  0  0  0  0
   50.7710   31.8430   49.7460 N   0  0  0  0  0  0  0  0  0  0  0  0
   51.3810   32.1840   50.8910 C   0  0  0  0  0  0  0  0  0  0  0  0
   51.0300   33.2930   51.6510 O   0  0  0  0  0  0  0  0  0  0  0  0
   55.4290   31.2160   51.6200 C   0  0  0  0  0  0  0  0  0  0  0  0
   56.5890   30.5460   51.9540 C   0  0  0  0  0  0  0  0  0  0  0  0
   57.9080   30.7580   51.2650 C   0  0  0  0  0  0  0  0  0  0  0  0
   58.1310   32.2230   51.0200 C   0  0  0  0  0  0  0  0  0  0  0  0
   57.7810   33.0520   51.9040 O   0  0  0  0  0  0  0  0  0  0  0  0
   58.8190   32.6840   49.8440 N   0  0  0  0  0  0  0  0  0  0  0  0
   58.4700   32.1160   48.5390 C   0  0  0  0  0  0  0  0  0  0  0  0
   58.5720   33.1680   47.4760 C   0  0  0  0  0  0  0  0  0  0  0  0
   57.8280   33.1000   46.4600 O   0  0  0  0  0  0  0  0  0  0  0  0
   59.5320   34.2330   47.6100 N   0  0  0  0  0  0  0  0  0  0  0  0
   59.5960   35.2850   46.5950 C   0  0  0  0  0  0  0  0  0  0  0  0
   60.5200   34.1950   48.6940 C   0  0  0  0  0  0  0  0  0  0  0  0
   59.9380   33.5860   49.9370 C   0  0  0  0  0  0  0  0  0  0  0  0
   60.4820   33.8210   51.0500 O   0  0  0  0  0  0  0  0  0  0  0  0
   56.3790   29.7510   53.0310 N   0  0  0  0  0  0  0  0  0  0  0  0
   57.3940   28.9630   53.7430 C   0  0  0  0  0  0  0  0  0  0  0  0
   55.1801   28.7719   55.1795 H   0  0  0  0  0  0  0  0  0  0  0  0
   53.5660   29.7367   54.8726 H   0  0  0  0  0  0  0  0  0  0  0  0
   52.6929   31.5449   53.3605 H   0  0  0  0  0  0  0  0  0  0  0  0
   55.3051   31.9423   50.8032 H   0  0  0  0  0  0  0  0  0  0  0  0
   58.7172   30.3677   51.8997 H   0  0  0  0  0  0  0  0  0  0  0  0
   57.9007   30.2281   50.3011 H   0  0  0  0  0  0  0  0  0  0  0  0
   59.1608   31.2929   48.3039 H   0  0  0  0  0  0  0  0  0  0  0  0
   57.4373   31.7389   48.5748 H   0  0  0  0  0  0  0  0  0  0  0  0
   59.6557   36.2667   47.0877 H   0  0  0  0  0  0  0  0  0  0  0  0
   60.4867   35.1350   45.9671 H   0  0  0  0  0  0  0  0  0  0  0  0
   58.6937   35.2441   45.9671 H   0  0  0  0  0  0  0  0  0  0  0  0
   61.3841   33.5956   48.3713 H   0  0  0  0  0  0  0  0  0  0  0  0
   60.8273   35.2263   48.9220 H   0  0  0  0  0  0  0  0  0  0  0  0
   57.2503   29.0746   54.8279 H   0  0  0  0  0  0  0  0  0  0  0  0
   57.2951   27.9028   53.4671 H   0  0  0  0  0  0  0  0  0  0  0  0
   58.3966   29.3216   53.4671 H   0  0  0  0  0  0  0  0  0  0  0  0
  1  2  2  0
  2  3  1  0
  3  4  2  3
  4  5  1  0
  5  6  1  0
  6  7  1  0
  7  8  2  0
  7  9  1  0
  9 10  1  0
 10 11  1  0
  3 12  1  0
 12 13  2  0
 13 14  1  0
 14 15  1  0
 15 16  2  0
 15 17  1  0
 17 18  1  0
 18 19  1  0
 19 20  2  0
 19 21  1  0
 21 22  1  0
 21 23  1  0
 23 24  1  0
 24 25  2  0
 13 26  1  0
 26 27  1  0
 26  2  1  0
 10  5  2  0
 24 17  1  0
  1 28  1  0
  1 29  1  0
  4 30  1  0
 12 31  1  0
 14 32  1  0
 14 33  1  0
 18 34  1  0
 18 35  1  0
 22 36  1  0
 22 37  1  0
 22 38  1  0
 23 39  1  0
 23 40  1  0
 27 41  1  0
 27 42  1  0
 27 43  1  0
M  CHG  3   6  -1   9  -1  11  -1
M  END
>  <UniqueID>  (11) 
11

>  <SMILES>  (11) 
C=c1c(=Cc2[n-]c(=O)[n-]c2[O-])cc(CC(=O)N2CC(=O)N(C)CC2=O)n1C

>  <Energy>  (11) 
114.60793565556784

>  <Genealogy>  (11) 
C=c1c(=Cc2[n-]c(=O)[n-]c2[O-])cc(CC(=O)N2CC(=O)N(C)CC2=O)n1C (protonated)
C=c1c(=Cc2[n-]c(=O)[n-]c2[O-])cc(CC(=O)N2CC(=O)N(C)CC2=O)n1C (3D coordinates assigned)
C=c1c(=Cc2[n-]c(=O)[n-]c2[O-])cc(CC(=O)N2CC(=O)N(C)CC2=O)n1C (nonaromatic ring conformer: 114.60793565556784 kcal/mol)

>  <smiles>  (11) 
C=c1c(=Cc2[nH]c(=O)[nH]c2O)cc(CC(=O)N2CC(=O)N(C)CC2=O)n1C

>  <score_type>  (11) 
oracle

>  <origin>  (11) 
adg

>  <m_score__min__energy>  (11) 
-16.84

>  <m_primary>  (11) 
energy

$$$$
11:0
     RDKit          3D

 56 59  0  0  0  0  0  0  0  0999 V2000
   61.4040   30.8660   49.7800 C   0  0  0  0  0  0  0  0  0  0  0  0
   62.7970   31.4310   49.8320 C   0  0  0  0  0  0  0  0  0  0  0  0
   63.7450   30.8290   50.6720 C   0  0  0  0  0  0  0  0  0  0  0  0
   65.0420   31.3410   50.7570 C   0  0  0  0  0  0  0  0  0  0  0  0
   65.4010   32.4660   50.0160 C   0  0  0  0  0  0  0  0  0  0  0  0
   64.4630   33.0870   49.1890 C   0  0  0  0  0  0  0  0  0  0  0  0
   63.1580   32.5850   49.0990 C   0  0  0  0  0  0  0  0  0  0  0  0
   62.2250   33.2390   48.2300 N   0  0  0  0  0  0  0  0  0  0  0  0
   62.3910   33.1400   46.7780 C   0  0  0  0  0  0  0  0  0  0  0  0
   61.2420   33.8440   46.0570 C   0  0  0  0  0  0  0  0  0  0  0  0
   59.9660   33.4150   46.6480 N   0  0  0  0  0  0  0  0  0  0  0  0
   58.6330   34.0390   45.7090 S   0  0  0  0  0  0  0  0  0  0  0  0
   59.0870   35.2280   44.9080 O   0  0  0  0  0  0  0  0  0  0  0  0
   57.5290   34.4780   46.6280 O   0  0  0  0  0  0  0  0  0  0  0  0
   58.0100   32.7950   44.6280 C   0  0  0  0  0  0  0  0  0  0  0  0
   58.1510   32.9380   43.2450 C   0  0  0  0  0  0  0  0  0  0  0  0
   57.6540   31.9570   42.3840 C   0  0  0  0  0  0  0  0  0  0  0  0
   57.0050   30.8250   42.8910 C   0  0  0  0  0  0  0  0  0  0  0  0
   56.4790   29.9100   41.9790 O   0  0  0  0  0  0  0  0  0  0  0  0
   56.8730   30.6630   44.2920 C   0  0  0  0  0  0  0  0  0  0  0  0
   56.2610   29.4650   44.9030 C   0  0  0  0  0  0  0  0  0  0  0  0
   55.1400   29.0480   44.5020 O   0  0  0  0  0  0  0  0  0  0  0  0
   56.9550   28.7750   45.9490 N   0  0  0  0  0  0  0  0  0  0  0  0
   57.2820   27.3810   45.9490 C   0  0  0  0  0  0  0  0  0  0  0  0
   58.6290   27.0070   45.8480 C   0  0  0  0  0  0  0  0  0  0  0  0
   58.9890   25.6560   45.8240 C   0  0  0  0  0  0  0  0  0  0  0  0
   58.0030   24.6690   45.8840 C   0  0  0  0  0  0  0  0  0  0  0  0
   56.6560   25.0290   45.9510 C   0  0  0  0  0  0  0  0  0  0  0  0
   56.2880   26.3800   45.9770 C   0  0  0  0  0  0  0  0  0  0  0  0
   54.9380   26.7130   46.0030 O   0  0  0  0  0  0  0  0  0  0  0  0
   57.3650   31.6650   45.1460 C   0  0  0  0  0  0  0  0  0  0  0  0
   59.8180   33.8180   48.0690 C   0  0  0  0  0  0  0  0  0  0  0  0
   61.1540   34.0590   48.7990 C   0  0  0  0  0  0  0  0  0  0  0  0
   61.0312   30.7148   50.8038 H   0  0  0  0  0  0  0  0  0  0  0  0
   60.7435   31.5673   49.2491 H   0  0  0  0  0  0  0  0  0  0  0  0
   61.4186   29.9027   49.2491 H   0  0  0  0  0  0  0  0  0  0  0  0
   63.4654   29.9477   51.2680 H   0  0  0  0  0  0  0  0  0  0  0  0
   65.7819   30.8553   51.4102 H   0  0  0  0  0  0  0  0  0  0  0  0
   66.4240   32.8647   50.0829 H   0  0  0  0  0  0  0  0  0  0  0  0
   64.7498   33.9743   48.6055 H   0  0  0  0  0  0  0  0  0  0  0  0
   63.3420   33.6117   46.4897 H   0  0  0  0  0  0  0  0  0  0  0  0
   62.3917   32.0777   46.4923 H   0  0  0  0  0  0  0  0  0  0  0  0
   61.3508   34.9331   46.1670 H   0  0  0  0  0  0  0  0  0  0  0  0
   61.2609   33.5833   44.9885 H   0  0  0  0  0  0  0  0  0  0  0  0
   58.6546   33.8252   42.8336 H   0  0  0  0  0  0  0  0  0  0  0  0
   57.7737   32.0750   41.2969 H   0  0  0  0  0  0  0  0  0  0  0  0
   55.7150   29.2820   42.1980 H   0  0  0  0  0  0  0  0  0  0  0  0
   59.4080   27.7812   45.7872 H   0  0  0  0  0  0  0  0  0  0  0  0
   60.0493   25.3706   45.7578 H   0  0  0  0  0  0  0  0  0  0  0  0
   58.2881   23.6066   45.8785 H   0  0  0  0  0  0  0  0  0  0  0  0
   55.8810   24.2490   45.9835 H   0  0  0  0  0  0  0  0  0  0  0  0
   57.2420   31.5604   46.2341 H   0  0  0  0  0  0  0  0  0  0  0  0
   59.2325   34.7485   48.1046 H   0  0  0  0  0  0  0  0  0  0  0  0
   59.3218   32.9827   48.5848 H   0  0  0  0  0  0  0  0  0  0  0  0
   61.4271   35.1205   48.7059 H   0  0  0  0  0  0  0  0  0  0  0  0
   61.0278   33.7816   49.8559 H   0  0  0  0  0  0  0  0  0  0  0  0
  1  2  1  0
  2  3  2  0
  3  4  1  0
  4  5  2  0
  5  6  1  0
  6  7  2  0
  7  8  1  0
  8  9  1  0
  9 10  1  0
 10 11  1  0
 11 12  1  0
 12 13  2  0
 12 14  2  0
 12 15  1  0
 15 16  2  0
 16 17  1  0
 17 18  2  0
 18 19  1  0
 18 20  1  0
 20 21  1  0
 21 22  2  0
 21 23  1  0
 23 24  1  0
 24 25  2  0
 25 26  1  0
 26 27  2  0
 27 28  1  0
 28 29  2  0
 29 30  1  0
 20 31  2  0
 11 32  1  0
 32 33  1  0
  7  2  1  0
 33  8  1  0
 31 15  1  0
 29 24  1  0
  1 34  1  0
  1 35  1  0
  1 36  1  0
  3 37  1  0
  4 38  1  0
  5 39  1  0
  6 40  1  0
  9 41  1  0
  9 42  1  0
 10 43  1  0
 10 44  1  0
 16 45  1  0
 17 46  1  0
 19 47  1  0
 25 48  1  0
 26 49  1  0
 27 50  1  0
 28 51  1  0
 31 52  1  0
 32 53  1  0
 32 54  1  0
 33 55  1  0
 33 56  1  0
M  CHG  2  23  -1  30  -1
M  END
>  <UniqueID>  (12) 
12

>  <SMILES>  (12) 
Cc1ccccc1N1CCN(S(=O)(=O)c2ccc(O)c(C(=O)[N-]c3ccccc3[O-])c2)CC1

>  <Energy>  (12) 
80.71325200976715

>  <Genealogy>  (12) 
Cc1ccccc1N1CCN(S(=O)(=O)c2ccc(O)c(C(=O)[N-]c3ccccc3[O-])c2)CC1 (protonated)
Cc1ccccc1N1CCN(S(=O)(=O)c2ccc(O)c(C(=O)[N-]c3ccccc3[O-])c2)CC1 (3D coordinates assigned)
Cc1ccccc1N1CCN(S(=O)(=O)c2ccc(O)c(C(=O)[N-]c3ccccc3[O-])c2)CC1 (nonaromatic ring conformer: 80.71325200976715 kcal/mol)

>  <smiles>  (12) 
Cc1ccccc1N1CCN(S(=O)(=O)c2ccc(O)c(C(=O)Nc3ccccc3O)c2)CC1

>  <score_type>  (12) 
oracle

>  <origin>  (12) 
adg

>  <m_score__min__energy>  (12) 
-16.23

>  <m_primary>  (12) 
energy

$$$$
12:0
     RDKit          3D

 49 51  0  0  0  0  0  0  0  0999 V2000
   55.5310   29.3930   45.1430 N   0  0  0  0  0  0  0  0  0  0  0  0
   56.4280   30.1840   44.3670 C   0  0  0  0  0  0  0  0  0  0  0  0
   56.2100   30.3570   43.1380 O   0  0  0  0  0  0  0  0  0  0  0  0
   57.6540   30.7660   45.0020 C   0  0  0  0  0  0  0  0  0  0  0  0
   57.3870   32.1810   45.5300 C   0  0  0  0  0  0  0  0  0  0  0  0
   58.6150   32.7760   46.1010 N   0  0  0  0  0  0  0  0  0  0  0  0
   59.0390   33.9630   45.3200 C   0  0  0  0  0  0  0  0  0  0  0  0
   60.0680   34.8320   46.0750 C   0  0  0  0  0  0  0  0  0  0  0  0
   60.6960   34.0650   47.1560 N   0  0  0  0  0  0  0  0  0  0  0  0
   62.1060   33.7670   47.1130 C   0  0  0  0  0  0  0  0  0  0  0  0
   62.6800   33.6330   45.9990 O   0  0  0  0  0  0  0  0  0  0  0  0
   62.8970   33.5930   48.3460 C   0  0  0  0  0  0  0  0  0  0  0  0
   62.4640   33.8770   49.6300 C   0  0  0  0  0  0  0  0  0  0  0  0
   63.5140   33.5010   50.4470 C   0  0  0  0  0  0  0  0  0  0  0  0
   64.5110   33.0240   49.6730 N   0  0  0  0  0  0  0  0  0  0  0  0
   65.7390   32.4400   50.1280 C   0  0  0  0  0  0  0  0  0  0  0  0
   66.8140   33.0820   49.9840 O   0  0  0  0  0  0  0  0  0  0  0  0
   65.7620   31.1470   50.7580 N   0  0  0  0  0  0  0  0  0  0  0  0
   66.9790   30.3640   50.8950 C   0  0  0  0  0  0  0  0  0  0  0  0
   66.6830   29.3170   51.9600 C   0  0  0  0  0  0  0  0  0  0  0  0
   65.1670   29.3050   52.1330 C   0  0  0  0  0  0  0  0  0  0  0  0
   64.6710   30.6300   51.5690 C   0  0  0  0  0  0  0  0  0  0  0  0
   64.1310   33.0600   48.4050 N   0  0  0  0  0  0  0  0  0  0  0  0
   59.8230   33.4060   48.1390 C   0  0  0  0  0  0  0  0  0  0  0  0
   58.4460   33.1160   47.5270 C   0  0  0  0  0  0  0  0  0  0  0  0
   54.5120   29.3570   44.9140 H   0  0  0  0  0  0  0  0  0  0  0  0
   57.9640   30.1233   45.8391 H   0  0  0  0  0  0  0  0  0  0  0  0
   58.4468   30.8220   44.2416 H   0  0  0  0  0  0  0  0  0  0  0  0
   57.0330   32.8127   44.7020 H   0  0  0  0  0  0  0  0  0  0  0  0
   56.6264   32.1209   46.3224 H   0  0  0  0  0  0  0  0  0  0  0  0
   59.4903   33.6216   44.3767 H   0  0  0  0  0  0  0  0  0  0  0  0
   58.1469   34.5813   45.1416 H   0  0  0  0  0  0  0  0  0  0  0  0
   60.8441   35.1671   45.3712 H   0  0  0  0  0  0  0  0  0  0  0  0
   59.5493   35.6991   46.5099 H   0  0  0  0  0  0  0  0  0  0  0  0
   61.4979   34.3069   49.9332 H   0  0  0  0  0  0  0  0  0  0  0  0
   63.5334   33.5778   51.5441 H   0  0  0  0  0  0  0  0  0  0  0  0
   67.2312   29.8785   49.9407 H   0  0  0  0  0  0  0  0  0  0  0  0
   67.8358   30.9944   51.1751 H   0  0  0  0  0  0  0  0  0  0  0  0
   67.0375   28.3286   51.6324 H   0  0  0  0  0  0  0  0  0  0  0  0
   67.1932   29.5511   52.9060 H   0  0  0  0  0  0  0  0  0  0  0  0
   64.7254   28.4640   51.5783 H   0  0  0  0  0  0  0  0  0  0  0  0
   64.8823   29.1840   53.1886 H   0  0  0  0  0  0  0  0  0  0  0  0
   63.7751   30.4720   50.9505 H   0  0  0  0  0  0  0  0  0  0  0  0
   64.3922   31.3321   52.3686 H   0  0  0  0  0  0  0  0  0  0  0  0
   64.6920   32.6840   47.6090 H   0  0  0  0  0  0  0  0  0  0  0  0
   60.2848   32.4592   48.4558 H   0  0  0  0  0  0  0  0  0  0  0  0
   59.6941   34.0735   49.0037 H   0  0  0  0  0  0  0  0  0  0  0  0
   57.9786   32.2714   48.0545 H   0  0  0  0  0  0  0  0  0  0  0  0
   57.8026   34.0030   47.6235 H   0  0  0  0  0  0  0  0  0  0  0  0
  1  2  1  0
  2  3  2  0
  2  4  1  0
  4  5  1  0
  5  6  1  0
  6  7  1  0
  7  8  1  0
  8  9  1  0
  9 10  1  0
 10 11  2  0
 10 12  1  0
 12 13  1  0
 13 14  2  0
 14 15  1  0
 15 16  1  0
 16 17  2  0
 16 18  1  0
 18 19  1  0
 19 20  1  0
 20 21  1  0
 21 22  1  0
 15 23  1  0
  9 24  1  0
 24 25  1  0
 25  6  1  0
 23 12  2  0
 22 18  1  0
  1 26  1  0
  4 27  1  0
  4 28  1  0
  5 29  1  0
  5 30  1  0
  7 31  1  0
  7 32  1  0
  8 33  1  0
  8 34  1  0
 13 35  1  0
 14 36  1  0
 19 37  1  0
 19 38  1  0
 20 39  1  0
 20 40  1  0
 21 41  1  0
 21 42  1  0
 22 43  1  0
 22 44  1  0
 23 45  1  0
 24 46  1  0
 24 47  1  0
 25 48  1  0
 25 49  1  0
M  CHG  2   1  -1  23   1
M  END
>  <UniqueID>  (13) 
13

>  <SMILES>  (13) 
[NH-]C(=O)CCN1CCN(C(=O)c2ccn(C(=O)N3CCCC3)[nH+]2)CC1

>  <Energy>  (13) 
88.9153894855442

>  <Genealogy>  (13) 
[NH-]C(=O)CCN1CCN(C(=O)c2ccn(C(=O)N3CCCC3)[nH+]2)CC1 (protonated)
[NH-]C(=O)CCN1CCN(C(=O)c2ccn(C(=O)N3CCCC3)[nH+]2)CC1 (3D coordinates assigned)
[NH-]C(=O)CCN1CCN(C(=O)c2ccn(C(=O)N3CCCC3)[nH+]2)CC1 (nonaromatic ring conformer: 88.9153894855442 kcal/mol)

>  <smiles>  (13) 
NC(=O)CCN1CCN(C(=O)c2ccn(C(=O)N3CCCC3)n2)CC1

>  <score_type>  (13) 
oracle

>  <origin>  (13) 
adg

>  <m_score__min__energy>  (13) 
-10.34

>  <m_primary>  (13) 
energy

$$$$
13:0
     RDKit          3D

 63 66  0  0  0  0  0  0  0  0999 V2000
   55.1800   26.6470   46.0780 N   0  0  0  0  0  0  0  0  0  0  0  0
   56.0770   25.1800   46.2560 S   0  0  0  0  0  0  0  0  0  0  0  0
   55.5400   24.3980   47.4220 O   0  0  0  0  0  0  0  0  0  0  0  0
   55.9350   24.3490   45.0100 O   0  0  0  0  0  0  0  0  0  0  0  0
   57.7730   25.5640   46.5320 C   0  0  0  0  0  0  0  0  0  0  0  0
   58.7700   24.9830   45.7360 C   0  0  0  0  0  0  0  0  0  0  0  0
   60.1140   25.2960   45.9560 C   0  0  0  0  0  0  0  0  0  0  0  0
   60.4680   26.2030   46.9600 C   0  0  0  0  0  0  0  0  0  0  0  0
   59.4800   26.8150   47.7390 C   0  0  0  0  0  0  0  0  0  0  0  0
   59.8760   27.7470   48.7580 N   0  0  0  0  0  0  0  0  0  0  0  0
   60.4050   27.4130   50.0490 C   0  0  0  0  0  0  0  0  0  0  0  0
   61.1780   26.4220   50.1450 O   0  0  0  0  0  0  0  0  0  0  0  0
   60.1040   28.2200   51.2550 C   0  0  0  0  0  0  0  0  0  0  0  0
   59.9440   27.6080   52.5100 C   0  0  0  0  0  0  0  0  0  0  0  0
   59.6670   28.3770   53.6440 C   0  0  0  0  0  0  0  0  0  0  0  0
   59.5370   29.7630   53.5350 C   0  0  0  0  0  0  0  0  0  0  0  0
   59.6820   30.3870   52.2900 C   0  0  0  0  0  0  0  0  0  0  0  0
   59.4820   32.1340   52.1610 S   0  0  0  0  0  0  0  0  0  0  0  0
   60.5620   32.8340   52.9390 O   0  0  0  0  0  0  0  0  0  0  0  0
   58.1480   32.5100   52.7460 O   0  0  0  0  0  0  0  0  0  0  0  0
   59.5440   32.6060   50.4820 N   0  0  0  0  0  0  0  0  0  0  0  0
   60.7390   32.0270   49.8440 C   0  0  0  0  0  0  0  0  0  0  0  0
   60.8010   32.4140   48.3500 C   0  0  0  0  0  0  0  0  0  0  0  0
   59.7490   33.3870   48.0090 N   0  0  0  0  0  0  0  0  0  0  0  0
   59.9280   33.9180   46.3540 S   0  0  0  0  0  0  0  0  0  0  0  0
   61.3720   33.8080   45.9490 O   0  0  0  0  0  0  0  0  0  0  0  0
   59.5240   35.3630   46.2490 O   0  0  0  0  0  0  0  0  0  0  0  0
   58.9420   32.9580   45.2470 C   0  0  0  0  0  0  0  0  0  0  0  0
   58.5670   33.4810   44.0010 C   0  0  0  0  0  0  0  0  0  0  0  0
   57.7850   32.7210   43.1270 C   0  0  0  0  0  0  0  0  0  0  0  0
   57.3780   31.4350   43.4900 C   0  0  0  0  0  0  0  0  0  0  0  0
   57.7520   30.9010   44.7300 C   0  0  0  0  0  0  0  0  0  0  0  0
   57.2250   29.2840   45.1860 S   0  0  0  0  0  0  0  0  0  0  0  0
   55.5290   29.1290   44.8880 N   0  0  0  0  0  0  0  0  0  0  0  0
   57.9760   28.2630   44.3770 O   0  0  0  0  0  0  0  0  0  0  0  0
   57.5010   29.0440   46.6430 O   0  0  0  0  0  0  0  0  0  0  0  0
   58.5310   31.6670   45.6080 C   0  0  0  0  0  0  0  0  0  0  0  0
   59.7990   34.5360   48.9250 C   0  0  0  0  0  0  0  0  0  0  0  0
   59.5660   34.0780   50.3800 C   0  0  0  0  0  0  0  0  0  0  0  0
   59.9540   29.6140   51.1520 C   0  0  0  0  0  0  0  0  0  0  0  0
   58.1300   26.4740   47.5360 C   0  0  0  0  0  0  0  0  0  0  0  0
   55.8600   27.4340   46.1660 H   0  0  0  0  0  0  0  0  0  0  0  0
   58.4939   24.2794   44.9368 H   0  0  0  0  0  0  0  0  0  0  0  0
   60.8949   24.8282   45.3384 H   0  0  0  0  0  0  0  0  0  0  0  0
   61.5281   26.4363   47.1380 H   0  0  0  0  0  0  0  0  0  0  0  0
   60.0374   26.5157   52.6006 H   0  0  0  0  0  0  0  0  0  0  0  0
   59.5513   27.8897   54.6234 H   0  0  0  0  0  0  0  0  0  0  0  0
   59.3202   30.3659   54.4292 H   0  0  0  0  0  0  0  0  0  0  0  0
   61.6385   32.4042   50.3525 H   0  0  0  0  0  0  0  0  0  0  0  0
   60.6871   30.9311   49.9239 H   0  0  0  0  0  0  0  0  0  0  0  0
   61.7841   32.8579   48.1346 H   0  0  0  0  0  0  0  0  0  0  0  0
   60.6455   31.5067   47.7478 H   0  0  0  0  0  0  0  0  0  0  0  0
   58.8892   34.4920   43.7109 H   0  0  0  0  0  0  0  0  0  0  0  0
   57.4896   33.1360   42.1520 H   0  0  0  0  0  0  0  0  0  0  0  0
   56.7619   30.8397   42.8000 H   0  0  0  0  0  0  0  0  0  0  0  0
   55.1220   28.6160   45.7030 H   0  0  0  0  0  0  0  0  0  0  0  0
   58.8213   31.2533   46.5850 H   0  0  0  0  0  0  0  0  0  0  0  0
   60.7860   35.0158   48.8502 H   0  0  0  0  0  0  0  0  0  0  0  0
   59.0088   35.2483   48.6455 H   0  0  0  0  0  0  0  0  0  0  0  0
   60.3764   34.4689   51.0128 H   0  0  0  0  0  0  0  0  0  0  0  0
   58.5913   34.4636   50.7134 H   0  0  0  0  0  0  0  0  0  0  0  0
   60.0507   30.1022   50.1711 H   0  0  0  0  0  0  0  0  0  0  0  0
   57.3509   26.9241   48.1687 H   0  0  0  0  0  0  0  0  0  0  0  0
  1  2  1  0
  2  3  2  0
  2  4  2  0
  2  5  1  0
  5  6  2  0
  6  7  1  0
  7  8  2  0
  8  9  1  0
  9 10  1  0
 10 11  1  0
 11 12  2  0
 11 13  1  0
 13 14  2  0
 14 15  1  0
 15 16  2  0
 16 17  1  0
 17 18  1  0
 18 19  2  0
 18 20  2  0
 18 21  1  0
 21 22  1  0
 22 23  1  0
 23 24  1  0
 24 25  1  0
 25 26  2  0
 25 27  2  0
 25 28  1  0
 28 29  2  0
 29 30  1  0
 30 31  2  0
 31 32  1  0
 32 33  1  0
 33 34  1  0
 33 35  2  0
 33 36  2  0
 32 37  2  0
 24 38  1  0
 38 39  1  0
 17 40  2  0
  9 41  2  0
 41  5  1  0
 40 13  1  0
 39 21  1  0
 37 28  1  0
  1 42  1  0
  6 43  1  0
  7 44  1  0
  8 45  1  0
 14 46  1  0
 15 47  1  0
 16 48  1  0
 22 49  1  0
 22 50  1  0
 23 51  1  0
 23 52  1  0
 29 53  1  0
 30 54  1  0
 31 55  1  0
 34 56  1  0
 37 57  1  0
 38 58  1  0
 38 59  1  0
 39 60  1  0
 39 61  1  0
 40 62  1  0
 41 63  1  0
M  CHG  3   1  -1  10  -1  34  -1
M  END
>  <UniqueID>  (14) 
14

>  <SMILES>  (14) 
[NH-]S(=O)(=O)c1cccc([N-]C(=O)c2cccc(S(=O)(=O)N3CCN(S(=O)(=O)c4cccc(S([NH-])(=O)=O)c4)CC3)c2)c1

>  <Energy>  (14) 
76.59241518487379

>  <Genealogy>  (14) 
[NH-]S(=O)(=O)c1cccc([N-]C(=O)c2cccc(S(=O)(=O)N3CCN(S(=O)(=O)c4cccc(S([NH-])(=O)=O)c4)CC3)c2)c1 (protonated)
[NH-]S(=O)(=O)c1cccc([N-]C(=O)c2cccc(S(=O)(=O)N3CCN(S(=O)(=O)c4cccc(S([NH-])(=O)=O)c4)CC3)c2)c1 (3D coordinates assigned)
[NH-]S(=O)(=O)c1cccc([N-]C(=O)c2cccc(S(=O)(=O)N3CCN(S(=O)(=O)c4cccc(S([NH-])(=O)=O)c4)CC3)c2)c1 (nonaromatic ring conformer: 76.59241518487379 kcal/mol)

>  <smiles>  (14) 
NS(=O)(=O)c1cccc(NC(=O)c2cccc(S(=O)(=O)N3CCN(S(=O)(=O)c4cccc(S(N)(=O)=O)c4)CC3)c2)c1

>  <score_type>  (14) 
oracle

>  <origin>  (14) 
adg

>  <m_score__min__energy>  (14) 
-17.210000000000001

>  <m_primary>  (14) 
energy

$$$$
14:0
     RDKit          3D

 47 50  0  0  0  0  0  0  0  0999 V2000
   60.0520   30.1350   50.6780 C   0  0  0  0  0  0  0  0  0  0  0  0
   59.8260   29.3550   49.6260 C   0  0  0  0  0  0  0  0  0  0  0  0
   60.6510   28.3450   49.2690 N   0  0  0  0  0  0  0  0  0  0  0  0
   60.0500   27.8380   48.1800 C   0  0  0  0  0  0  0  0  0  0  0  0
   60.5050   26.8650   47.5230 O   0  0  0  0  0  0  0  0  0  0  0  0
   58.8930   28.5300   47.9060 C   0  0  0  0  0  0  0  0  0  0  0  0
   58.0600   28.3090   46.8800 C   0  0  0  0  0  0  0  0  0  0  0  0
   57.5280   29.3870   46.0250 C   0  0  0  0  0  0  0  0  0  0  0  0
   56.3600   29.3350   45.2780 C   0  0  0  0  0  0  0  0  0  0  0  0
   55.5290   28.2250   45.1900 O   0  0  0  0  0  0  0  0  0  0  0  0
   56.1080   30.4960   44.6300 N   0  0  0  0  0  0  0  0  0  0  0  0
   57.1290   31.2980   44.9890 C   0  0  0  0  0  0  0  0  0  0  0  0
   57.3070   32.6260   44.6080 C   0  0  0  0  0  0  0  0  0  0  0  0
   58.4040   33.3260   45.1380 C   0  0  0  0  0  0  0  0  0  0  0  0
   59.2830   32.6990   46.0550 C   0  0  0  0  0  0  0  0  0  0  0  0
   60.6320   33.6060   46.7430 S   0  0  0  0  0  0  0  0  0  0  0  0
   60.3540   33.8180   48.2050 O   0  0  0  0  0  0  0  0  0  0  0  0
   60.6880   34.9600   46.0890 O   0  0  0  0  0  0  0  0  0  0  0  0
   62.1810   32.7970   46.5900 N   0  0  0  0  0  0  0  0  0  0  0  0
   62.2790   31.5110   47.3010 C   0  0  0  0  0  0  0  0  0  0  0  0
   62.5930   31.6840   48.7870 C   0  0  0  0  0  0  0  0  0  0  0  0
   63.7620   32.5520   48.9650 N   0  0  0  0  0  0  0  0  0  0  0  0
   64.6600   32.3150   50.0730 C   0  0  0  0  0  0  0  0  0  0  0  0
   65.5570   33.3910   50.6120 C   0  0  0  0  0  0  0  0  0  0  0  0
   64.7210   31.1700   50.6000 O   0  0  0  0  0  0  0  0  0  0  0  0
   63.7580   33.8410   48.2620 C   0  0  0  0  0  0  0  0  0  0  0  0
   63.3470   33.6770   46.7870 C   0  0  0  0  0  0  0  0  0  0  0  0
   59.0860   31.3490   46.4080 C   0  0  0  0  0  0  0  0  0  0  0  0
   58.0040   30.6710   45.8420 C   0  0  0  0  0  0  0  0  0  0  0  0
   58.7500   29.5060   48.8200 N   0  0  0  0  0  0  0  0  0  0  0  0
   59.3480   30.9435   50.9246 H   0  0  0  0  0  0  0  0  0  0  0  0
   60.9430   29.9721   51.3022 H   0  0  0  0  0  0  0  0  0  0  0  0
   57.7582   27.2733   46.6648 H   0  0  0  0  0  0  0  0  0  0  0  0
   56.6084   33.1130   43.9118 H   0  0  0  0  0  0  0  0  0  0  0  0
   58.5817   34.3694   44.8384 H   0  0  0  0  0  0  0  0  0  0  0  0
   61.3206   30.9801   47.2028 H   0  0  0  0  0  0  0  0  0  0  0  0
   63.1055   30.9425   46.8495 H   0  0  0  0  0  0  0  0  0  0  0  0
   61.7258   32.1362   49.2904 H   0  0  0  0  0  0  0  0  0  0  0  0
   62.8112   30.6978   49.2227 H   0  0  0  0  0  0  0  0  0  0  0  0
   65.5377   33.3678   51.7116 H   0  0  0  0  0  0  0  0  0  0  0  0
   66.5852   33.2218   50.2597 H   0  0  0  0  0  0  0  0  0  0  0  0
   65.2055   34.3720   50.2597 H   0  0  0  0  0  0  0  0  0  0  0  0
   63.0463   34.5169   48.7585 H   0  0  0  0  0  0  0  0  0  0  0  0
   64.7768   34.2546   48.2929 H   0  0  0  0  0  0  0  0  0  0  0  0
   63.1044   34.6705   46.3818 H   0  0  0  0  0  0  0  0  0  0  0  0
   64.1952   33.2070   46.2678 H   0  0  0  0  0  0  0  0  0  0  0  0
   59.7655   30.8433   47.1098 H   0  0  0  0  0  0  0  0  0  0  0  0
  1  2  2  0
  2  3  1  0
  3  4  1  0
  4  5  2  0
  4  6  1  0
  6  7  2  3
  7  8  1  0
  8  9  2  0
  9 10  1  0
  9 11  1  0
 11 12  1  0
 12 13  2  0
 13 14  1  0
 14 15  2  0
 15 16  1  0
 16 17  2  0
 16 18  2  0
 16 19  1  0
 19 20  1  0
 20 21  1  0
 21 22  1  0
 22 23  1  0
 23 24  1  0
 23 25  2  0
 22 26  1  0
 26 27  1  0
 15 28  1  0
 28 29  2  0
  6 30  1  0
 30  2  1  0
 29  8  1  0
 29 12  1  0
 27 19  1  0
  1 31  1  0
  1 32  1  0
  7 33  1  0
 13 34  1  0
 14 35  1  0
 20 36  1  0
 20 37  1  0
 21 38  1  0
 21 39  1  0
 24 40  1  0
 24 41  1  0
 24 42  1  0
 26 43  1  0
 26 44  1  0
 27 45  1  0
 27 46  1  0
 28 47  1  0
M  CHG  4   3  -1  10  -1  11  -1  30  -1
M  END
>  <UniqueID>  (15) 
15

>  <SMILES>  (15) 
C=c1[n-]c(=O)c(=Cc2c([O-])[n-]c3ccc(S(=O)(=O)N4CCN(C(C)=O)CC4)cc23)[n-]1

>  <Energy>  (15) 
120.77061499507101

>  <Genealogy>  (15) 
C=c1[n-]c(=O)c(=Cc2c([O-])[n-]c3ccc(S(=O)(=O)N4CCN(C(C)=O)CC4)cc23)[n-]1 (protonated)
C=c1[n-]c(=O)c(=Cc2c([O-])[n-]c3ccc(S(=O)(=O)N4CCN(C(C)=O)CC4)cc23)[n-]1 (3D coordinates assigned)
C=c1[n-]c(=O)c(=Cc2c([O-])[n-]c3ccc(S(=O)(=O)N4CCN(C(C)=O)CC4)cc23)[n-]1 (nonaromatic ring conformer: 120.77061499507101 kcal/mol)

>  <smiles>  (15) 
C=c1[nH]c(=O)c(=Cc2c(O)[nH]c3ccc(S(=O)(=O)N4CCN(C(C)=O)CC4)cc23)[nH]1

>  <score_type>  (15) 
oracle

>  <origin>  (15) 
adg

>  <m_score__min__energy>  (15) 
-17.039999999999999

>  <m_primary>  (15) 
energy

$$$$
15:0
     RDKit          3D

 38 40  0  0  0  0  0  0  0  0999 V2000
   57.9100   24.9705   45.9084 H   0  0  0  0  0  0  0  0  0  0  0  0
   57.6780   26.0360   45.7640 C   0  0  0  0  0  0  0  0  0  0  0  0
   58.6950   26.9630   45.5450 C   0  0  0  0  0  0  0  0  0  0  0  0
   59.7419   26.6267   45.5142 H   0  0  0  0  0  0  0  0  0  0  0  0
   58.4030   28.2870   45.3680 N   0  0  0  0  0  0  0  0  0  0  0  0
   59.4930   29.2440   45.1300 C   0  0  0  0  0  0  0  0  0  0  0  0
   59.8911   29.5935   46.0940 H   0  0  0  0  0  0  0  0  0  0  0  0
   60.2944   28.7524   44.5589 H   0  0  0  0  0  0  0  0  0  0  0  0
   59.1092   30.1023   44.5589 H   0  0  0  0  0  0  0  0  0  0  0  0
   57.0960   28.7100   45.4020 C   0  0  0  0  0  0  0  0  0  0  0  0
   56.8110   29.9700   45.2310 N   0  0  0  0  0  0  0  0  0  0  0  0
   56.8280   30.6720   43.9470 C   0  0  0  0  0  0  0  0  0  0  0  0
   55.8003   30.9632   43.6840 H   0  0  0  0  0  0  0  0  0  0  0  0
   57.2472   29.9962   43.1870 H   0  0  0  0  0  0  0  0  0  0  0  0
   57.7020   31.9290   44.0120 C   0  0  0  0  0  0  0  0  0  0  0  0
   57.7628   32.3729   43.0074 H   0  0  0  0  0  0  0  0  0  0  0  0
   58.6979   31.6350   44.3748 H   0  0  0  0  0  0  0  0  0  0  0  0
   57.0190   33.1710   45.1680 S   0  0  0  0  0  0  0  0  0  0  0  0
   58.6200   33.7380   45.7510 C   0  0  0  0  0  0  0  0  0  0  0  0
   59.1630   34.9190   45.4010 N   0  0  0  0  0  0  0  0  0  0  0  0
   60.3180   35.0170   46.0430 N   0  0  0  0  0  0  0  0  0  0  0  0
   60.4530   33.9000   46.7850 C   0  0  0  0  0  0  0  0  0  0  0  0
   61.6420   33.6150   47.6540 C   0  0  0  0  0  0  0  0  0  0  0  0
   61.1811   33.9430   48.5974 H   0  0  0  0  0  0  0  0  0  0  0  0
   62.9840   33.8280   46.9690 C   0  0  0  0  0  0  0  0  0  0  0  0
   63.0208   34.2197   45.9418 H   0  0  0  0  0  0  0  0  0  0  0  0
   63.9022   34.3821   47.2137 H   0  0  0  0  0  0  0  0  0  0  0  0
   62.4810   32.4190   47.2260 C   0  0  0  0  0  0  0  0  0  0  0  0
   62.1533   31.7902   46.3850 H   0  0  0  0  0  0  0  0  0  0  0  0
   62.8838   31.5303   47.7338 H   0  0  0  0  0  0  0  0  0  0  0  0
   59.4120   33.0630   46.6050 N   0  0  0  0  0  0  0  0  0  0  0  0
   59.1420   31.7940   47.2760 C   0  0  0  0  0  0  0  0  0  0  0  0
   59.1734   31.9414   48.3656 H   0  0  0  0  0  0  0  0  0  0  0  0
   58.1462   31.4294   46.9839 H   0  0  0  0  0  0  0  0  0  0  0  0
   59.9031   31.0555   46.9839 H   0  0  0  0  0  0  0  0  0  0  0  0
   56.1000   27.8050   45.6170 N   0  0  0  0  0  0  0  0  0  0  0  0
   56.3630   26.4880   45.7960 C   0  0  0  0  0  0  0  0  0  0  0  0
   55.4190   25.6790   45.9920 O   0  0  0  0  0  0  0  0  0  0  0  0
  1  2  1  0
  2  3  2  0
  3  4  1  0
  3  5  1  0
  5  6  1  0
  6  7  1  0
  6  8  1  0
  6  9  1  0
  5 10  1  0
 10 11  2  0
 11 12  1  0
 12 13  1  0
 12 14  1  0
 12 15  1  0
 15 16  1  0
 15 17  1  0
 15 18  1  0
 18 19  1  0
 19 20  2  0
 20 21  1  0
 21 22  2  0
 22 23  1  0
 23 24  1  0
 23 25  1  0
 25 26  1  0
 25 27  1  0
 25 28  1  0
 28 29  1  0
 28 30  1  0
 22 31  1  0
 31 32  1  0
 32 33  1  0
 32 34  1  0
 32 35  1  0
 10 36  1  0
 36 37  1  0
 37 38  2  0
 37  2  1  0
 31 19  1  0
 28 23  1  0
M  CHG  1  36  -1
M  END
>  <UniqueID>  (16) 
16

>  <SMILES>  (16) 
Cn1c(SCC/N=c2\[n-]c(=O)ccn2C)nnc1C1CC1

>  <Energy>  (16) 
333.25426280187423

>  <Genealogy>  (16) 
Cn1c(SCCN=c2[n-]c(=O)ccn2C)nnc1C1CC1 (protonated)
Cn1c(SCC/N=c2\[n-]c(=O)ccn2C)nnc1C1CC1 (cis-trans isomerization)
Cn1c(SCC/N=c2\[n-]c(=O)ccn2C)nnc1C1CC1 (3D coordinates assigned)
Cn1c(SCC/N=c2\[n-]c(=O)ccn2C)nnc1C1CC1 (nonaromatic ring conformer: 333.25426280187423 kcal/mol)

>  <smiles>  (16) 
Cn1c(SCCN=c2[nH]c(=O)ccn2C)nnc1C1CC1

>  <score_type>  (16) 
oracle

>  <origin>  (16) 
adg

>  <m_score__min__energy>  (16) 
-9.0199999999999996

>  <m_primary>  (16) 
energy

$$$$
16:0
     RDKit          3D

 51 54  0  0  0  0  0  0  0  0999 V2000
   56.7240   30.2520   43.7690 C   0  0  0  0  0  0  0  0  0  0  0  0
   57.2300   29.6020   44.8190 C   0  0  0  0  0  0  0  0  0  0  0  0
   57.0510   28.2720   44.9970 N   0  0  0  0  0  0  0  0  0  0  0  0
   57.7500   27.9850   46.1170 C   0  0  0  0  0  0  0  0  0  0  0  0
   57.8310   26.7710   46.6770 C   0  0  0  0  0  0  0  0  0  0  0  0
   57.1850   25.5710   46.0960 C   0  0  0  0  0  0  0  0  0  0  0  0
   55.8000   25.5550   45.8280 C   0  0  0  0  0  0  0  0  0  0  0  0
   54.9920   26.6720   46.0490 O   0  0  0  0  0  0  0  0  0  0  0  0
   55.2270   24.4310   45.3250 N   0  0  0  0  0  0  0  0  0  0  0  0
   55.9560   23.3150   45.0770 C   0  0  0  0  0  0  0  0  0  0  0  0
   55.3970   22.2910   44.6060 O   0  0  0  0  0  0  0  0  0  0  0  0
   57.2860   23.2990   45.3410 N   0  0  0  0  0  0  0  0  0  0  0  0
   57.9140   24.3910   45.8480 C   0  0  0  0  0  0  0  0  0  0  0  0
   59.1440   24.3230   46.1130 O   0  0  0  0  0  0  0  0  0  0  0  0
   58.3290   29.1420   46.5910 C   0  0  0  0  0  0  0  0  0  0  0  0
   59.0340   29.2480   47.6320 O   0  0  0  0  0  0  0  0  0  0  0  0
   58.0050   30.1670   45.7820 N   0  0  0  0  0  0  0  0  0  0  0  0
   58.3890   31.5440   45.9470 C   0  0  0  0  0  0  0  0  0  0  0  0
   57.4400   32.5670   45.8070 C   0  0  0  0  0  0  0  0  0  0  0  0
   57.8110   33.9000   45.9900 C   0  0  0  0  0  0  0  0  0  0  0  0
   59.1290   34.2240   46.3180 C   0  0  0  0  0  0  0  0  0  0  0  0
   60.0950   33.2120   46.4620 C   0  0  0  0  0  0  0  0  0  0  0  0
   61.4910   33.5480   46.8260 C   0  0  0  0  0  0  0  0  0  0  0  0
   62.1980   34.2130   46.0200 O   0  0  0  0  0  0  0  0  0  0  0  0
   62.0660   33.1050   48.0680 N   0  0  0  0  0  0  0  0  0  0  0  0
   61.3720   33.3520   49.3380 C   0  0  0  0  0  0  0  0  0  0  0  0
   61.5510   32.1660   50.3120 C   0  0  0  0  0  0  0  0  0  0  0  0
   62.6840   31.2840   49.9480 N   0  0  0  0  0  0  0  0  0  0  0  0
   63.0830   30.4600   51.0990 C   0  0  0  0  0  0  0  0  0  0  0  0
   63.8300   32.0630   49.4480 C   0  0  0  0  0  0  0  0  0  0  0  0
   63.4660   32.6650   48.0880 C   0  0  0  0  0  0  0  0  0  0  0  0
   59.7100   31.8710   46.2890 C   0  0  0  0  0  0  0  0  0  0  0  0
   56.8910   31.3337   43.6591 H   0  0  0  0  0  0  0  0  0  0  0  0
   56.1399   29.7061   43.0135 H   0  0  0  0  0  0  0  0  0  0  0  0
   58.4028   26.6600   47.6101 H   0  0  0  0  0  0  0  0  0  0  0  0
   55.1450   27.5620   45.5920 H   0  0  0  0  0  0  0  0  0  0  0  0
   56.3994   32.3179   45.5520 H   0  0  0  0  0  0  0  0  0  0  0  0
   57.0626   34.6980   45.8755 H   0  0  0  0  0  0  0  0  0  0  0  0
   59.4133   35.2765   46.4646 H   0  0  0  0  0  0  0  0  0  0  0  0
   61.7830   34.2615   49.8006 H   0  0  0  0  0  0  0  0  0  0  0  0
   60.2986   33.4737   49.1306 H   0  0  0  0  0  0  0  0  0  0  0  0
   61.7279   32.5652   51.3216 H   0  0  0  0  0  0  0  0  0  0  0  0
   60.6341   31.5602   50.2648 H   0  0  0  0  0  0  0  0  0  0  0  0
   62.8287   30.9851   52.0315 H   0  0  0  0  0  0  0  0  0  0  0  0
   62.5510   29.4979   51.0632 H   0  0  0  0  0  0  0  0  0  0  0  0
   64.1677   30.2807   51.0632 H   0  0  0  0  0  0  0  0  0  0  0  0
   64.0657   32.8698   50.1576 H   0  0  0  0  0  0  0  0  0  0  0  0
   64.7077   31.4083   49.3425 H   0  0  0  0  0  0  0  0  0  0  0  0
   64.1179   33.5287   47.8904 H   0  0  0  0  0  0  0  0  0  0  0  0
   63.6035   31.8950   47.3146 H   0  0  0  0  0  0  0  0  0  0  0  0
   60.4519   31.0700   46.4231 H   0  0  0  0  0  0  0  0  0  0  0  0
  1  2  2  0
  2  3  1  0
  3  4  1  0
  4  5  2  3
  5  6  1  0
  6  7  2  0
  7  8  1  0
  7  9  1  0
  9 10  1  0
 10 11  2  0
 10 12  1  0
 12 13  1  0
 13 14  2  0
  4 15  1  0
 15 16  2  0
 15 17  1  0
 17 18  1  0
 18 19  2  0
 19 20  1  0
 20 21  2  0
 21 22  1  0
 22 23  1  0
 23 24  2  0
 23 25  1  0
 25 26  1  0
 26 27  1  0
 27 28  1  0
 28 29  1  0
 28 30  1  0
 30 31  1  0
 22 32  2  0
 17  2  1  0
 32 18  1  0
 13  6  1  0
 31 25  1  0
  1 33  1  0
  1 34  1  0
  5 35  1  0
  8 36  1  0
 19 37  1  0
 20 38  1  0
 21 39  1  0
 26 40  1  0
 26 41  1  0
 27 42  1  0
 27 43  1  0
 29 44  1  0
 29 45  1  0
 29 46  1  0
 30 47  1  0
 30 48  1  0
 31 49  1  0
 31 50  1  0
 32 51  1  0
M  CHG  3   3  -1   9  -1  12  -1
M  END
>  <UniqueID>  (17) 
17

>  <SMILES>  (17) 
C=c1[n-]c(=Cc2c(O)[n-]c(=O)[n-]c2=O)c(=O)n1-c1cccc(C(=O)N2CCN(C)CC2)c1

>  <Energy>  (17) 
112.08181109233662

>  <Genealogy>  (17) 
C=c1[n-]c(=Cc2c(O)[n-]c(=O)[n-]c2=O)c(=O)n1-c1cccc(C(=O)N2CCN(C)CC2)c1 (protonated)
C=c1[n-]c(=Cc2c(O)[n-]c(=O)[n-]c2=O)c(=O)n1-c1cccc(C(=O)N2CCN(C)CC2)c1 (3D coordinates assigned)
C=c1[n-]c(=Cc2c(O)[n-]c(=O)[n-]c2=O)c(=O)n1-c1cccc(C(=O)N2CCN(C)CC2)c1 (nonaromatic ring conformer: 112.08181109233662 kcal/mol)

>  <smiles>  (17) 
C=c1[nH]c(=Cc2c(O)[nH]c(=O)[nH]c2=O)c(=O)n1-c1cccc(C(=O)N2CCN(C)CC2)c1

>  <score_type>  (17) 
oracle

>  <origin>  (17) 
adg

>  <m_score__min__energy>  (17) 
-15.07

>  <m_primary>  (17) 
energy

$$$$
17:0
     RDKit          3D

 77 81  0  0  0  0  0  0  0  0999 V2000
   54.8820   30.0800   52.6310 C   0  0  0  0  0  0  0  0  0  0  0  0
   56.1530   30.6940   52.1520 C   0  0  0  0  0  0  0  0  0  0  0  0
   56.4580   31.9980   52.2920 N   0  0  0  0  0  0  0  0  0  0  0  0
   57.6860   32.0400   51.7330 C   0  0  0  0  0  0  0  0  0  0  0  0
   58.5090   33.2920   51.6100 C   0  0  1  0  0  0  0  0  0  0  0  0
   59.2360   33.6090   52.9220 C   0  0  0  0  0  0  0  0  0  0  0  0
   60.6770   33.1460   52.7160 C   0  0  0  0  0  0  0  0  0  0  0  0
   60.8990   33.1600   51.2100 C   0  0  0  0  0  0  0  0  0  0  0  0
   59.5670   33.1050   50.6300 N   0  0  0  0  0  0  0  0  0  0  0  0
   59.3450   33.1560   49.2160 C   0  0  0  0  0  0  0  0  0  0  0  0
   58.2330   32.5210   48.6530 C   0  0  0  0  0  0  0  0  0  0  0  0
   57.9880   32.6180   47.2780 C   0  0  0  0  0  0  0  0  0  0  0  0
   58.8510   33.3590   46.4490 C   0  0  0  0  0  0  0  0  0  0  0  0
   58.5520   33.5300   45.0070 C   0  0  0  0  0  0  0  0  0  0  0  0
   59.2480   34.3150   44.3070 O   0  0  0  0  0  0  0  0  0  0  0  0
   57.4830   32.7800   44.4050 N   0  0  0  0  0  0  0  0  0  0  0  0
   57.4380   31.3550   44.2210 C   0  0  0  0  0  0  0  0  0  0  0  0
   56.6050   30.7600   43.2590 C   0  0  0  0  0  0  0  0  0  0  0  0
   56.6530   29.3780   43.0430 C   0  0  0  0  0  0  0  0  0  0  0  0
   57.5410   28.5840   43.7690 C   0  0  0  0  0  0  0  0  0  0  0  0
   58.3740   29.1670   44.7330 C   0  0  0  0  0  0  0  0  0  0  0  0
   59.2860   28.3220   45.5180 C   0  0  0  0  0  0  0  0  0  0  0  0
   60.4390   28.0740   45.0700 O   0  0  0  0  0  0  0  0  0  0  0  0
   58.8820   27.7890   46.7920 N   0  0  0  0  0  0  0  0  0  0  0  0
   59.0720   28.6290   47.9830 C   0  0  0  0  0  0  0  0  0  0  0  0
   58.1180   26.5280   46.8530 C   0  0  0  0  0  0  0  0  0  0  0  0
   56.6660   26.7320   46.3580 C   0  0  0  0  0  0  0  0  0  0  0  0
   55.9680   25.3950   46.1050 C   0  0  0  0  0  0  0  0  0  0  0  0
   56.7410   24.5530   45.1780 N   0  0  0  0  0  0  0  0  0  0  0  0
   56.0700   23.5580   44.3880 C   0  0  0  0  0  0  0  0  0  0  0  0
   54.8820   23.7460   44.0070 O   0  0  0  0  0  0  0  0  0  0  0  0
   56.7390   22.3370   44.0410 N   0  0  0  0  0  0  0  0  0  0  0  0
   56.7310   21.8970   42.6470 C   0  0  0  0  0  0  0  0  0  0  0  0
   56.9320   21.3380   45.0940 C   0  0  0  0  0  0  0  0  0  0  0  0
   58.1460   24.8720   44.8760 C   0  0  0  0  0  0  0  0  0  0  0  0
   58.8730   25.3850   46.1240 C   0  0  0  0  0  0  0  0  0  0  0  0
   58.3220   30.5510   44.9540 C   0  0  0  0  0  0  0  0  0  0  0  0
   59.9770   33.9740   47.0220 C   0  0  0  0  0  0  0  0  0  0  0  0
   60.2240   33.8710   48.3950 C   0  0  0  0  0  0  0  0  0  0  0  0
   58.0880   30.8390   51.2720 N   0  0  0  0  0  0  0  0  0  0  0  0
   57.1100   30.0320   51.5520 O   0  0  0  0  0  0  0  0  0  0  0  0
   54.8694   30.0739   53.7309 H   0  0  0  0  0  0  0  0  0  0  0  0
   54.0286   30.6652   52.2578 H   0  0  0  0  0  0  0  0  0  0  0  0
   54.8100   29.0478   52.2578 H   0  0  0  0  0  0  0  0  0  0  0  0
   57.8123   34.0956   51.3292 H   0  0  0  0  0  0  0  0  0  0  0  0
   59.2054   34.6894   53.1265 H   0  0  0  0  0  0  0  0  0  0  0  0
   58.7657   33.1057   53.7796 H   0  0  0  0  0  0  0  0  0  0  0  0
   61.3764   33.8338   53.2138 H   0  0  0  0  0  0  0  0  0  0  0  0
   60.8493   32.1474   53.1440 H   0  0  0  0  0  0  0  0  0  0  0  0
   61.4154   34.0819   50.9044 H   0  0  0  0  0  0  0  0  0  0  0  0
   61.5278   32.3205   50.8784 H   0  0  0  0  0  0  0  0  0  0  0  0
   57.5490   31.9437   49.2925 H   0  0  0  0  0  0  0  0  0  0  0  0
   57.1144   32.1112   46.8422 H   0  0  0  0  0  0  0  0  0  0  0  0
   55.9125   31.3825   42.6734 H   0  0  0  0  0  0  0  0  0  0  0  0
   55.9882   28.9163   42.2981 H   0  0  0  0  0  0  0  0  0  0  0  0
   57.5872   27.5005   43.5847 H   0  0  0  0  0  0  0  0  0  0  0  0
   58.9340   28.0189   48.8878 H   0  0  0  0  0  0  0  0  0  0  0  0
   60.0881   29.0503   47.9763 H   0  0  0  0  0  0  0  0  0  0  0  0
   58.3361   29.4465   47.9763 H   0  0  0  0  0  0  0  0  0  0  0  0
   58.0345   26.2123   47.9034 H   0  0  0  0  0  0  0  0  0  0  0  0
   56.1034   27.2905   47.1206 H   0  0  0  0  0  0  0  0  0  0  0  0
   56.6992   27.2892   45.4102 H   0  0  0  0  0  0  0  0  0  0  0  0
   55.8548   24.8637   47.0615 H   0  0  0  0  0  0  0  0  0  0  0  0
   54.9860   25.5972   45.6524 H   0  0  0  0  0  0  0  0  0  0  0  0
   56.7110   20.7978   42.6096 H   0  0  0  0  0  0  0  0  0  0  0  0
   55.8400   22.2974   42.1412 H   0  0  0  0  0  0  0  0  0  0  0  0
   57.6360   22.2647   42.1412 H   0  0  0  0  0  0  0  0  0  0  0  0
   56.8389   21.8201   46.0783 H   0  0  0  0  0  0  0  0  0  0  0  0
   56.1692   20.5513   44.9974 H   0  0  0  0  0  0  0  0  0  0  0  0
   57.9329   20.8921   44.9974 H   0  0  0  0  0  0  0  0  0  0  0  0
   58.6509   23.9647   44.5130 H   0  0  0  0  0  0  0  0  0  0  0  0
   58.1695   25.6593   44.1081 H   0  0  0  0  0  0  0  0  0  0  0  0
   58.9960   24.5462   46.8250 H   0  0  0  0  0  0  0  0  0  0  0  0
   59.8380   25.7949   45.7912 H   0  0  0  0  0  0  0  0  0  0  0  0
   58.9795   31.0088   45.7078 H   0  0  0  0  0  0  0  0  0  0  0  0
   60.6709   34.5419   46.3848 H   0  0  0  0  0  0  0  0  0  0  0  0
   61.1116   34.3533   48.8304 H   0  0  0  0  0  0  0  0  0  0  0  0
  1  2  1  0
  2  3  2  0
  3  4  1  0
  4  5  1  0
  5  6  1  0
  6  7  1  0
  7  8  1  0
  8  9  1  0
  9 10  1  0
 10 11  2  0
 11 12  1  0
 12 13  2  0
 13 14  1  0
 14 15  2  0
 14 16  1  0
 16 17  1  0
 17 18  2  0
 18 19  1  0
 19 20  2  0
 20 21  1  0
 21 22  1  0
 22 23  2  0
 22 24  1  0
 24 25  1  0
 24 26  1  0
 26 27  1  0
 27 28  1  0
 28 29  1  0
 29 30  1  0
 30 31  2  0
 30 32  1  0
 32 33  1  0
 32 34  1  0
 29 35  1  0
 35 36  1  0
 21 37  2  0
 13 38  1  0
 38 39  2  0
  4 40  2  0
 40 41  1  0
 41  2  1  0
  9  5  1  0
 39 10  1  0
 37 17  1  0
 36 26  1  0
  1 42  1  0
  1 43  1  0
  1 44  1  0
  5 45  1  6
  6 46  1  0
  6 47  1  0
  7 48  1  0
  7 49  1  0
  8 50  1  0
  8 51  1  0
 11 52  1  0
 12 53  1  0
 18 54  1  0
 19 55  1  0
 20 56  1  0
 25 57  1  0
 25 58  1  0
 25 59  1  0
 26 60  1  0
 27 61  1  0
 27 62  1  0
 28 63  1  0
 28 64  1  0
 33 65  1  0
 33 66  1  0
 33 67  1  0
 34 68  1  0
 34 69  1  0
 34 70  1  0
 35 71  1  0
 35 72  1  0
 36 73  1  0
 36 74  1  0
 37 75  1  0
 38 76  1  0
 39 77  1  0
M  CHG  1  16  -1
M  END
>  <UniqueID>  (18) 
18

>  <SMILES>  (18) 
Cc1nc([C@H]2CCCN2c2ccc(C(=O)[N-]c3cccc(C(=O)N(C)C4CCN(C(=O)N(C)C)CC4)c3)cc2)no1

>  <Energy>  (18) 
136.77683471097015

>  <Genealogy>  (18) 
Cc1nc(C2CCCN2c2ccc(C(=O)[N-]c3cccc(C(=O)N(C)C4CCN(C(=O)N(C)C)CC4)c3)cc2)no1 (protonated)
Cc1nc([C@H]2CCCN2c2ccc(C(=O)[N-]c3cccc(C(=O)N(C)C4CCN(C(=O)N(C)C)CC4)c3)cc2)no1 (chirality)
Cc1nc([C@H]2CCCN2c2ccc(C(=O)[N-]c3cccc(C(=O)N(C)C4CCN(C(=O)N(C)C)CC4)c3)cc2)no1 (3D coordinates assigned)
Cc1nc([C@H]2CCCN2c2ccc(C(=O)[N-]c3cccc(C(=O)N(C)C4CCN(C(=O)N(C)C)CC4)c3)cc2)no1 (nonaromatic ring conformer: 136.77683471097015 kcal/mol)

>  <smiles>  (18) 
Cc1nc(C2CCCN2c2ccc(C(=O)Nc3cccc(C(=O)N(C)C4CCN(C(=O)N(C)C)CC4)c3)cc2)no1

>  <score_type>  (18) 
oracle

>  <origin>  (18) 
adg

>  <m_score__min__energy>  (18) 
-11.33

>  <m_primary>  (18) 
energy

$$$$
18:0
     RDKit          3D

 65 68  0  0  0  0  0  0  0  0999 V2000
   57.7570   33.8690   46.7160 C   0  0  0  0  0  0  0  0  0  0  0  0
   57.2890   32.9190   45.6040 C   0  0  1  0  0  0  0  0  0  0  0  0
   57.6180   33.4920   44.2000 C   0  0  0  0  0  0  0  0  0  0  0  0
   58.1340   32.4340   43.2080 C   0  0  0  0  0  0  0  0  0  0  0  0
   57.3900   31.1010   43.3430 C   0  0  0  0  0  0  0  0  0  0  0  0
   57.3840   30.6190   44.7340 N   0  0  0  0  0  0  0  0  0  0  0  0
   56.8500   29.3160   45.0620 C   0  0  0  0  0  0  0  0  0  0  0  0
   55.6270   29.0700   44.8770 O   0  0  0  0  0  0  0  0  0  0  0  0
   57.7060   28.2330   45.5790 C   0  0  0  0  0  0  0  0  0  0  0  0
   57.3790   26.9020   45.2850 C   0  0  0  0  0  0  0  0  0  0  0  0
   58.1260   25.8570   45.8360 C   0  0  0  0  0  0  0  0  0  0  0  0
   59.1920   26.1340   46.6940 C   0  0  0  0  0  0  0  0  0  0  0  0
   59.5390   27.4580   46.9850 C   0  0  0  0  0  0  0  0  0  0  0  0
   60.5990   27.7140   47.9140 N   0  0  0  0  0  0  0  0  0  0  0  0
   60.5330   27.5140   49.3300 C   0  0  0  0  0  0  0  0  0  0  0  0
   60.7810   26.3680   49.7870 O   0  0  0  0  0  0  0  0  0  0  0  0
   60.2860   28.6460   50.2500 C   0  0  0  0  0  0  0  0  0  0  0  0
   59.2370   29.4680   50.1010 C   0  0  0  0  0  0  0  0  0  0  0  0
   59.3640   30.9420   50.0680 C   0  0  0  0  0  0  0  0  0  0  0  0
   58.8200   31.7580   51.0770 C   0  0  0  0  0  0  0  0  0  0  0  0
   58.9520   33.1460   51.0100 C   0  0  0  0  0  0  0  0  0  0  0  0
   59.6190   33.7360   49.9340 C   0  0  0  0  0  0  0  0  0  0  0  0
   60.1700   32.9370   48.9220 C   0  0  0  0  0  0  0  0  0  0  0  0
   60.9650   33.6870   47.5370 S   0  0  0  0  0  0  0  0  0  0  0  0
   60.7820   32.8000   46.3390 O   0  0  0  0  0  0  0  0  0  0  0  0
   60.3010   35.0020   47.2380 O   0  0  0  0  0  0  0  0  0  0  0  0
   62.6790   33.9420   47.8010 N   0  0  0  0  0  0  0  0  0  0  0  0
   62.9710   34.5160   49.1270 C   0  0  0  0  0  0  0  0  0  0  0  0
   63.0240   33.4520   50.2500 C   0  0  0  0  0  0  0  0  0  0  0  0
   62.9570   32.1250   49.7650 O   0  0  0  0  0  0  0  0  0  0  0  0
   63.9020   31.9510   48.7360 C   0  0  0  0  0  0  0  0  0  0  0  0
   63.4910   32.7460   47.4850 C   0  0  0  0  0  0  0  0  0  0  0  0
   60.0620   31.5430   49.0060 C   0  0  0  0  0  0  0  0  0  0  0  0
   58.7830   28.5090   46.4370 C   0  0  0  0  0  0  0  0  0  0  0  0
   57.8690   31.5060   45.8080 C   0  0  0  0  0  0  0  0  0  0  0  0
   57.5369   33.4221   47.6967 H   0  0  0  0  0  0  0  0  0  0  0  0
   58.8404   34.0358   46.6239 H   0  0  0  0  0  0  0  0  0  0  0  0
   57.2290   34.8296   46.6239 H   0  0  0  0  0  0  0  0  0  0  0  0
   56.1940   32.8320   45.6632 H   0  0  0  0  0  0  0  0  0  0  0  0
   56.7038   33.9414   43.7848 H   0  0  0  0  0  0  0  0  0  0  0  0
   58.4234   34.2293   44.3331 H   0  0  0  0  0  0  0  0  0  0  0  0
   57.9988   32.8128   42.1842 H   0  0  0  0  0  0  0  0  0  0  0  0
   59.1956   32.2518   43.4311 H   0  0  0  0  0  0  0  0  0  0  0  0
   56.3510   31.2372   43.0085 H   0  0  0  0  0  0  0  0  0  0  0  0
   57.9089   30.3545   42.7238 H   0  0  0  0  0  0  0  0  0  0  0  0
   56.5323   26.6794   44.6190 H   0  0  0  0  0  0  0  0  0  0  0  0
   57.8735   24.8143   45.5931 H   0  0  0  0  0  0  0  0  0  0  0  0
   59.7619   25.3074   47.1434 H   0  0  0  0  0  0  0  0  0  0  0  0
   60.9845   28.8187   51.0820 H   0  0  0  0  0  0  0  0  0  0  0  0
   58.2350   29.0258   49.9985 H   0  0  0  0  0  0  0  0  0  0  0  0
   58.2877   31.2995   51.9234 H   0  0  0  0  0  0  0  0  0  0  0  0
   58.5298   33.7765   51.8064 H   0  0  0  0  0  0  0  0  0  0  0  0
   59.7123   34.8307   49.8803 H   0  0  0  0  0  0  0  0  0  0  0  0
   63.9447   35.0258   49.0813 H   0  0  0  0  0  0  0  0  0  0  0  0
   62.1539   35.2108   49.3712 H   0  0  0  0  0  0  0  0  0  0  0  0
   63.9667   33.5746   50.8034 H   0  0  0  0  0  0  0  0  0  0  0  0
   62.1444   33.6100   50.8913 H   0  0  0  0  0  0  0  0  0  0  0  0
   64.8840   32.3049   49.0831 H   0  0  0  0  0  0  0  0  0  0  0  0
   63.9527   30.8831   48.4773 H   0  0  0  0  0  0  0  0  0  0  0  0
   64.4020   33.0695   46.9603 H   0  0  0  0  0  0  0  0  0  0  0  0
   62.8721   32.0831   46.8625 H   0  0  0  0  0  0  0  0  0  0  0  0
   60.5276   30.9128   48.2340 H   0  0  0  0  0  0  0  0  0  0  0  0
   59.0360   29.5513   46.6812 H   0  0  0  0  0  0  0  0  0  0  0  0
   57.5449   31.1133   46.7830 H   0  0  0  0  0  0  0  0  0  0  0  0
   58.9677   31.5516   45.7796 H   0  0  0  0  0  0  0  0  0  0  0  0
  1  2  1  0
  2  3  1  0
  3  4  1  0
  4  5  1  0
  5  6  1  0
  6  7  1  0
  7  8  2  0
  7  9  1  0
  9 10  2  0
 10 11  1  0
 11 12  2  0
 12 13  1  0
 13 14  1  0
 14 15  1  0
 15 16  2  0
 15 17  1  0
 17 18  2  3
 18 19  1  0
 19 20  2  0
 20 21  1  0
 21 22  2  0
 22 23  1  0
 23 24  1  0
 24 25  2  0
 24 26  2  0
 24 27  1  0
 27 28  1  0
 28 29  1  0
 29 30  1  0
 30 31  1  0
 31 32  1  0
 23 33  2  0
 13 34  2  0
  6 35  1  0
 35  2  1  0
 34  9  1  0
 33 19  1  0
 32 27  1  0
  1 36  1  0
  1 37  1  0
  1 38  1  0
  2 39  1  6
  3 40  1  0
  3 41  1  0
  4 42  1  0
  4 43  1  0
  5 44  1  0
  5 45  1  0
 10 46  1  0
 11 47  1  0
 12 48  1  0
 17 49  1  0
 18 50  1  0
 20 51  1  0
 21 52  1  0
 22 53  1  0
 28 54  1  0
 28 55  1  0
 29 56  1  0
 29 57  1  0
 31 58  1  0
 31 59  1  0
 32 60  1  0
 32 61  1  0
 33 62  1  0
 34 63  1  0
 35 64  1  0
 35 65  1  0
M  CHG  1  14  -1
M  END
>  <UniqueID>  (19) 
19

>  <SMILES>  (19) 
C[C@H]1CCCN(C(=O)c2cccc([N-]C(=O)C=Cc3cccc(S(=O)(=O)N4CCOCC4)c3)c2)C1

>  <Energy>  (19) 
90.60566361142374

>  <Genealogy>  (19) 
CC1CCCN(C(=O)c2cccc([N-]C(=O)C=Cc3cccc(S(=O)(=O)N4CCOCC4)c3)c2)C1 (protonated)
C[C@H]1CCCN(C(=O)c2cccc([N-]C(=O)C=Cc3cccc(S(=O)(=O)N4CCOCC4)c3)c2)C1 (chirality)
C[C@H]1CCCN(C(=O)c2cccc([N-]C(=O)C=Cc3cccc(S(=O)(=O)N4CCOCC4)c3)c2)C1 (3D coordinates assigned)
C[C@H]1CCCN(C(=O)c2cccc([N-]C(=O)C=Cc3cccc(S(=O)(=O)N4CCOCC4)c3)c2)C1 (nonaromatic ring conformer: 90.60566361142374 kcal/mol)

>  <smiles>  (19) 
CC1CCCN(C(=O)c2cccc(NC(=O)C=Cc3cccc(S(=O)(=O)N4CCOCC4)c3)c2)C1

>  <score_type>  (19) 
oracle

>  <origin>  (19) 
adg

>  <m_score__min__energy>  (19) 
-13.43

>  <m_primary>  (19) 
energy

$$$$
19:0
     RDKit          3D

 61 64  0  0  0  0  0  0  0  0999 V2000
   62.0220   34.1450   51.3760 O   0  0  0  0  0  0  0  0  0  0  0  0
   61.2030   33.2040   51.5670 C   0  0  0  0  0  0  0  0  0  0  0  0
   59.7600   33.4420   51.2010 C   0  0  0  0  0  0  0  0  0  0  0  0
   59.5590   33.2900   49.7130 C   0  0  0  0  0  0  0  0  0  0  0  0
   58.6520   32.3450   49.2110 C   0  0  0  0  0  0  0  0  0  0  0  0
   58.4600   32.2040   47.8270 C   0  0  0  0  0  0  0  0  0  0  0  0
   59.1800   33.0110   46.9350 C   0  0  0  0  0  0  0  0  0  0  0  0
   59.0050   32.8820   45.5590 O   0  0  0  0  0  0  0  0  0  0  0  0
   60.0850   33.9540   47.4300 C   0  0  0  0  0  0  0  0  0  0  0  0
   60.2890   34.0820   48.8110 C   0  0  0  0  0  0  0  0  0  0  0  0
   61.6880   31.9210   52.0350 N   0  0  0  0  0  0  0  0  0  0  0  0
   62.5680   31.7910   53.2100 C   0  0  0  0  0  0  0  0  0  0  0  0
   63.8110   32.6670   53.0640 C   0  0  0  0  0  0  0  0  0  0  0  0
   64.2870   32.6410   51.7440 O   0  0  0  0  0  0  0  0  0  0  0  0
   61.3480   30.7130   51.2670 C   0  0  0  0  0  0  0  0  0  0  0  0
   61.6850   30.9070   49.8130 C   0  0  0  0  0  0  0  0  0  0  0  0
   62.7000   31.8020   49.4430 C   0  0  0  0  0  0  0  0  0  0  0  0
   63.0580   31.9480   48.1020 C   0  0  0  0  0  0  0  0  0  0  0  0
   62.3880   31.2230   47.1160 C   0  0  0  0  0  0  0  0  0  0  0  0
   61.3370   30.3550   47.4600 C   0  0  0  0  0  0  0  0  0  0  0  0
   60.5970   29.6150   46.4110 C   0  0  0  0  0  0  0  0  0  0  0  0
   60.3660   30.1760   45.3030 O   0  0  0  0  0  0  0  0  0  0  0  0
   60.1080   28.2790   46.6390 N   0  0  0  0  0  0  0  0  0  0  0  0
   60.8630   27.1470   46.0680 C   0  0  0  0  0  0  0  0  0  0  0  0
   60.1700   25.7880   46.3000 C   0  0  0  0  0  0  0  0  0  0  0  0
   58.6760   25.9160   46.1710 C   0  0  0  0  0  0  0  0  0  0  0  0
   57.9130   24.9370   45.5250 C   0  0  0  0  0  0  0  0  0  0  0  0
   56.5250   25.0790   45.4440 C   0  0  0  0  0  0  0  0  0  0  0  0
   55.8930   26.1890   46.0160 C   0  0  0  0  0  0  0  0  0  0  0  0
   54.5150   26.3260   45.9260 O   0  0  0  0  0  0  0  0  0  0  0  0
   56.6470   27.1580   46.6770 C   0  0  0  0  0  0  0  0  0  0  0  0
   58.0400   27.0250   46.7530 C   0  0  0  0  0  0  0  0  0  0  0  0
   58.8930   28.0520   47.4380 C   0  0  0  0  0  0  0  0  0  0  0  0
   61.0070   30.1830   48.8160 C   0  0  0  0  0  0  0  0  0  0  0  0
   59.1280   32.7120   51.7279 H   0  0  0  0  0  0  0  0  0  0  0  0
   59.4832   34.4654   51.4942 H   0  0  0  0  0  0  0  0  0  0  0  0
   58.0862   31.7088   49.9075 H   0  0  0  0  0  0  0  0  0  0  0  0
   57.7453   31.4610   47.4432 H   0  0  0  0  0  0  0  0  0  0  0  0
   59.3520   32.0750   45.0560 H   0  0  0  0  0  0  0  0  0  0  0  0
   60.6399   34.5988   46.7326 H   0  0  0  0  0  0  0  0  0  0  0  0
   61.0246   34.8065   49.1905 H   0  0  0  0  0  0  0  0  0  0  0  0
   62.0147   32.0991   54.1094 H   0  0  0  0  0  0  0  0  0  0  0  0
   62.8872   30.7417   53.2938 H   0  0  0  0  0  0  0  0  0  0  0  0
   63.5565   33.7022   53.3352 H   0  0  0  0  0  0  0  0  0  0  0  0
   64.5960   32.2787   53.7295 H   0  0  0  0  0  0  0  0  0  0  0  0
   63.6810   33.2140   51.2080 H   0  0  0  0  0  0  0  0  0  0  0  0
   61.9191   29.8595   51.6612 H   0  0  0  0  0  0  0  0  0  0  0  0
   60.2692   30.5202   51.3619 H   0  0  0  0  0  0  0  0  0  0  0  0
   63.2167   32.3921   50.2143 H   0  0  0  0  0  0  0  0  0  0  0  0
   63.8696   32.6357   47.8220 H   0  0  0  0  0  0  0  0  0  0  0  0
   62.6842   31.3313   46.0622 H   0  0  0  0  0  0  0  0  0  0  0  0
   60.9699   27.3066   44.9849 H   0  0  0  0  0  0  0  0  0  0  0  0
   61.8392   27.1114   46.5737 H   0  0  0  0  0  0  0  0  0  0  0  0
   60.5350   25.0661   45.5546 H   0  0  0  0  0  0  0  0  0  0  0  0
   60.4059   25.4433   47.3176 H   0  0  0  0  0  0  0  0  0  0  0  0
   58.4043   24.0581   45.0821 H   0  0  0  0  0  0  0  0  0  0  0  0
   55.9261   24.3142   44.9279 H   0  0  0  0  0  0  0  0  0  0  0  0
   56.1498   28.0244   47.1375 H   0  0  0  0  0  0  0  0  0  0  0  0
   58.3322   28.9937   47.5314 H   0  0  0  0  0  0  0  0  0  0  0  0
   59.1701   27.6946   48.4407 H   0  0  0  0  0  0  0  0  0  0  0  0
   60.2125   29.4768   49.0991 H   0  0  0  0  0  0  0  0  0  0  0  0
  1  2  2  0
  2  3  1  0
  3  4  1  0
  4  5  2  0
  5  6  1  0
  6  7  2  0
  7  8  1  0
  7  9  1  0
  9 10  2  0
  2 11  1  0
 11 12  1  0
 12 13  1  0
 13 14  1  0
 11 15  1  0
 15 16  1  0
 16 17  2  0
 17 18  1  0
 18 19  2  0
 19 20  1  0
 20 21  1  0
 21 22  2  0
 21 23  1  0
 23 24  1  0
 24 25  1  0
 25 26  1  0
 26 27  2  0
 27 28  1  0
 28 29  2  0
 29 30  1  0
 29 31  1  0
 31 32  2  0
 32 33  1  0
 20 34  2  0
 10  4  1  0
 34 16  1  0
 33 23  1  0
 32 26  1  0
  3 35  1  0
  3 36  1  0
  5 37  1  0
  6 38  1  0
  8 39  1  0
  9 40  1  0
 10 41  1  0
 12 42  1  0
 12 43  1  0
 13 44  1  0
 13 45  1  0
 14 46  1  0
 15 47  1  0
 15 48  1  0
 17 49  1  0
 18 50  1  0
 19 51  1  0
 24 52  1  0
 24 53  1  0
 25 54  1  0
 25 55  1  0
 27 56  1  0
 28 57  1  0
 31 58  1  0
 33 59  1  0
 33 60  1  0
 34 61  1  0
M  CHG  1  30  -1
M  END
>  <UniqueID>  (20) 
20

>  <SMILES>  (20) 
O=C(Cc1ccc(O)cc1)N(CCO)Cc1cccc(C(=O)N2CCc3ccc([O-])cc3C2)c1

>  <Energy>  (20) 
67.37808840535071

>  <Genealogy>  (20) 
O=C(Cc1ccc(O)cc1)N(CCO)Cc1cccc(C(=O)N2CCc3ccc([O-])cc3C2)c1 (protonated)
O=C(Cc1ccc(O)cc1)N(CCO)Cc1cccc(C(=O)N2CCc3ccc([O-])cc3C2)c1 (3D coordinates assigned)
O=C(Cc1ccc(O)cc1)N(CCO)Cc1cccc(C(=O)N2CCc3ccc([O-])cc3C2)c1 (nonaromatic ring conformer: 67.37808840535071 kcal/mol)

>  <smiles>  (20) 
O=C(Cc1ccc(O)cc1)N(CCO)Cc1cccc(C(=O)N2CCc3ccc(O)cc3C2)c1

>  <score_type>  (20) 
oracle

>  <origin>  (20) 
adg

>  <m_score__min__energy>  (20) 
-12.43

>  <m_primary>  (20) 
energy

$$$$
20:0
     RDKit          3D

 64 67  0  0  0  0  0  0  0  0999 V2000
   61.3370   30.0900   48.5550 C   0  0  0  0  0  0  0  0  0  0  0  0
   62.1400   31.2990   48.3000 N   0  0  0  0  0  0  0  0  0  0  0  0
   61.6010   32.0320   47.1310 C   0  0  0  0  0  0  0  0  0  0  0  0
   61.9960   33.5140   47.1690 C   0  0  0  0  0  0  0  0  0  0  0  0
   61.4570   34.2060   48.3670 N   0  0  0  0  0  0  0  0  0  0  0  0
   60.2210   34.9560   48.0580 C   0  0  0  0  0  0  0  0  0  0  0  0
   59.2860   34.1200   47.2240 C   0  0  0  0  0  0  0  0  0  0  0  0
   58.6820   32.9710   47.7560 C   0  0  0  0  0  0  0  0  0  0  0  0
   57.8270   32.1940   46.9670 C   0  0  0  0  0  0  0  0  0  0  0  0
   57.5500   32.5620   45.6450 C   0  0  0  0  0  0  0  0  0  0  0  0
   56.7410   31.6970   44.8380 N   0  0  0  0  0  0  0  0  0  0  0  0
   57.1780   30.9780   43.6780 C   0  0  0  0  0  0  0  0  0  0  0  0
   56.6550   31.2530   42.5640 O   0  0  0  0  0  0  0  0  0  0  0  0
   58.2530   29.9280   43.7590 C   0  0  0  0  0  0  0  0  0  0  0  0
   58.0140   28.9840   44.9120 C   0  0  0  0  0  0  0  0  0  0  0  0
   58.9810   28.8240   45.9170 C   0  0  0  0  0  0  0  0  0  0  0  0
   58.7830   27.8940   46.9420 C   0  0  0  0  0  0  0  0  0  0  0  0
   57.6160   27.1190   46.9720 C   0  0  0  0  0  0  0  0  0  0  0  0
   56.6310   27.2930   45.9950 C   0  0  0  0  0  0  0  0  0  0  0  0
   55.4600   26.4700   46.0270 N   0  0  0  0  0  0  0  0  0  0  0  0
   55.3970   25.1040   45.6010 C   0  0  0  0  0  0  0  0  0  0  0  0
   54.4590   24.3760   46.0240 O   0  0  0  0  0  0  0  0  0  0  0  0
   56.3780   24.5480   44.5890 C   0  0  0  0  0  0  0  0  0  0  0  0
   55.7400   23.4610   43.7080 C   0  0  0  0  0  0  0  0  0  0  0  0
   56.5570   22.1940   43.9180 C   0  0  0  0  0  0  0  0  0  0  0  0
   57.9010   22.6560   44.4490 C   0  0  0  0  0  0  0  0  0  0  0  0
   57.5980   23.9040   45.2590 C   0  0  0  0  0  0  0  0  0  0  0  0
   56.8430   28.2100   44.9530 C   0  0  0  0  0  0  0  0  0  0  0  0
   58.1510   33.7160   45.1130 C   0  0  0  0  0  0  0  0  0  0  0  0
   58.9990   34.4970   45.9030 C   0  0  0  0  0  0  0  0  0  0  0  0
   61.2570   33.2960   49.5260 C   0  0  0  0  0  0  0  0  0  0  0  0
   62.2620   32.1350   49.5210 C   0  0  0  0  0  0  0  0  0  0  0  0
   61.2365   29.9387   49.6399 H   0  0  0  0  0  0  0  0  0  0  0  0
   60.3394   30.2113   48.1077 H   0  0  0  0  0  0  0  0  0  0  0  0
   61.8357   29.2175   48.1077 H   0  0  0  0  0  0  0  0  0  0  0  0
   61.9981   31.5792   46.2105 H   0  0  0  0  0  0  0  0  0  0  0  0
   60.5033   31.9655   47.1566 H   0  0  0  0  0  0  0  0  0  0  0  0
   63.0934   33.5882   47.1805 H   0  0  0  0  0  0  0  0  0  0  0  0
   61.5719   34.0002   46.2780 H   0  0  0  0  0  0  0  0  0  0  0  0
   59.7198   35.2293   48.9982 H   0  0  0  0  0  0  0  0  0  0  0  0
   60.4881   35.8602   47.4913 H   0  0  0  0  0  0  0  0  0  0  0  0
   58.8815   32.6798   48.7978 H   0  0  0  0  0  0  0  0  0  0  0  0
   57.3690   31.2871   47.3886 H   0  0  0  0  0  0  0  0  0  0  0  0
   58.2629   29.3527   42.8215 H   0  0  0  0  0  0  0  0  0  0  0  0
   59.2180   30.4316   43.9178 H   0  0  0  0  0  0  0  0  0  0  0  0
   59.8974   29.4322   45.8980 H   0  0  0  0  0  0  0  0  0  0  0  0
   59.5445   27.7705   47.7261 H   0  0  0  0  0  0  0  0  0  0  0  0
   57.4744   26.3715   47.7665 H   0  0  0  0  0  0  0  0  0  0  0  0
   56.6821   25.4140   43.9828 H   0  0  0  0  0  0  0  0  0  0  0  0
   54.6955   23.2931   44.0095 H   0  0  0  0  0  0  0  0  0  0  0  0
   55.7377   23.7599   42.6494 H   0  0  0  0  0  0  0  0  0  0  0  0
   56.0625   21.5351   44.6469 H   0  0  0  0  0  0  0  0  0  0  0  0
   56.6641   21.6205   42.9854 H   0  0  0  0  0  0  0  0  0  0  0  0
   58.3512   21.8813   45.0870 H   0  0  0  0  0  0  0  0  0  0  0  0
   58.6183   22.8543   43.6390 H   0  0  0  0  0  0  0  0  0  0  0  0
   57.3674   23.6381   46.3012 H   0  0  0  0  0  0  0  0  0  0  0  0
   58.4571   24.5905   45.2834 H   0  0  0  0  0  0  0  0  0  0  0  0
   56.0861   28.3229   44.1628 H   0  0  0  0  0  0  0  0  0  0  0  0
   57.9530   34.0056   44.0704 H   0  0  0  0  0  0  0  0  0  0  0  0
   59.4442   35.4128   45.4869 H   0  0  0  0  0  0  0  0  0  0  0  0
   61.3820   33.8708   50.4555 H   0  0  0  0  0  0  0  0  0  0  0  0
   60.2446   32.8715   49.4561 H   0  0  0  0  0  0  0  0  0  0  0  0
   63.2808   32.5470   49.5690 H   0  0  0  0  0  0  0  0  0  0  0  0
   62.0491   31.4976   50.3919 H   0  0  0  0  0  0  0  0  0  0  0  0
  1  2  1  0
  2  3  1  0
  3  4  1  0
  4  5  1  0
  5  6  1  0
  6  7  1  0
  7  8  2  0
  8  9  1  0
  9 10  2  0
 10 11  1  0
 11 12  1  0
 12 13  2  0
 12 14  1  0
 14 15  1  0
 15 16  2  0
 16 17  1  0
 17 18  2  0
 18 19  1  0
 19 20  1  0
 20 21  1  0
 21 22  2  0
 21 23  1  0
 23 24  1  0
 24 25  1  0
 25 26  1  0
 26 27  1  0
 19 28  2  0
 10 29  1  0
 29 30  2  0
  5 31  1  0
 31 32  1  0
 32  2  1  0
 30  7  1  0
 28 15  1  0
 27 23  1  0
  1 33  1  0
  1 34  1  0
  1 35  1  0
  3 36  1  0
  3 37  1  0
  4 38  1  0
  4 39  1  0
  6 40  1  0
  6 41  1  0
  8 42  1  0
  9 43  1  0
 14 44  1  0
 14 45  1  0
 16 46  1  0
 17 47  1  0
 18 48  1  0
 23 49  1  0
 24 50  1  0
 24 51  1  0
 25 52  1  0
 25 53  1  0
 26 54  1  0
 26 55  1  0
 27 56  1  0
 27 57  1  0
 28 58  1  0
 29 59  1  0
 30 60  1  0
 31 61  1  0
 31 62  1  0
 32 63  1  0
 32 64  1  0
M  CHG  2  11  -1  20  -1
M  END
>  <UniqueID>  (21) 
21

>  <SMILES>  (21) 
CN1CCN(Cc2ccc([N-]C(=O)Cc3cccc([N-]C(=O)C4CCCC4)c3)cc2)CC1

>  <Energy>  (21) 
88.43185419750552

>  <Genealogy>  (21) 
CN1CCN(Cc2ccc([N-]C(=O)Cc3cccc([N-]C(=O)C4CCCC4)c3)cc2)CC1 (protonated)
CN1CCN(Cc2ccc([N-]C(=O)Cc3cccc([N-]C(=O)C4CCCC4)c3)cc2)CC1 (3D coordinates assigned)
CN1CCN(Cc2ccc([N-]C(=O)Cc3cccc([N-]C(=O)C4CCCC4)c3)cc2)CC1 (nonaromatic ring conformer: 88.43185419750552 kcal/mol)

>  <smiles>  (21) 
CN1CCN(Cc2ccc(NC(=O)Cc3cccc(NC(=O)C4CCCC4)c3)cc2)CC1

>  <score_type>  (21) 
oracle

>  <origin>  (21) 
adg

>  <m_score__min__energy>  (21) 
-13.83

>  <m_primary>  (21) 
energy

$$$$
21:0
     RDKit          3D

 58 61  0  0  0  0  0  0  0  0999 V2000
   56.7780   24.9810   46.6380 C   0  0  0  0  0  0  0  0  0  0  0  0
   56.2050   26.2050   45.9870 C   0  0  0  0  0  0  0  0  0  0  0  0
   54.9520   26.3530   45.9880 O   0  0  0  0  0  0  0  0  0  0  0  0
   57.0690   27.2340   45.3470 C   0  0  0  0  0  0  0  0  0  0  0  0
   58.3230   26.8730   44.8240 C   0  0  0  0  0  0  0  0  0  0  0  0
   59.1400   27.8260   44.2150 C   0  0  0  0  0  0  0  0  0  0  0  0
   58.7250   29.1560   44.1280 C   0  0  0  0  0  0  0  0  0  0  0  0
   57.4890   29.5490   44.6640 C   0  0  0  0  0  0  0  0  0  0  0  0
   57.0350   30.9940   44.5780 C   0  0  0  0  0  0  0  0  0  0  0  0
   57.4490   31.8240   45.7320 N   0  0  0  0  0  0  0  0  0  0  0  0
   58.4000   31.1470   46.6420 C   0  0  0  0  0  0  0  0  0  0  0  0
   59.0140   32.1530   47.6210 C   0  0  0  0  0  0  0  0  0  0  0  0
   59.8120   33.1860   46.9110 N   0  0  0  0  0  0  0  0  0  0  0  0
   59.9370   34.4190   47.7160 C   0  0  0  0  0  0  0  0  0  0  0  0
   60.3700   34.1030   49.1250 C   0  0  0  0  0  0  0  0  0  0  0  0
   59.4070   33.8780   50.1200 C   0  0  0  0  0  0  0  0  0  0  0  0
   59.8010   33.6310   51.4370 C   0  0  0  0  0  0  0  0  0  0  0  0
   61.1580   33.6030   51.7700 C   0  0  0  0  0  0  0  0  0  0  0  0
   62.1350   33.8100   50.7850 C   0  0  0  0  0  0  0  0  0  0  0  0
   63.5250   33.8050   51.1600 N   0  0  0  0  0  0  0  0  0  0  0  0
   64.5560   33.1540   50.3990 C   0  0  0  0  0  0  0  0  0  0  0  0
   64.2530   32.3000   49.5230 O   0  0  0  0  0  0  0  0  0  0  0  0
   65.9760   33.4430   50.6620 C   0  0  0  0  0  0  0  0  0  0  0  0
   67.0600   32.7600   50.1200 C   0  0  0  0  0  0  0  0  0  0  0  0
   68.2980   33.2630   50.5350 C   0  0  0  0  0  0  0  0  0  0  0  0
   68.1990   34.3430   51.4030 C   0  0  0  0  0  0  0  0  0  0  0  0
   66.5690   34.6710   51.6500 S   0  0  0  0  0  0  0  0  0  0  0  0
   61.7330   34.0800   49.4650 C   0  0  0  0  0  0  0  0  0  0  0  0
   59.3190   33.4770   45.5400 C   0  0  0  0  0  0  0  0  0  0  0  0
   57.8090   33.2200   45.3940 C   0  0  0  0  0  0  0  0  0  0  0  0
   56.6570   28.5790   45.2500 C   0  0  0  0  0  0  0  0  0  0  0  0
   56.7272   25.0894   47.7315 H   0  0  0  0  0  0  0  0  0  0  0  0
   56.2000   24.0972   46.3300 H   0  0  0  0  0  0  0  0  0  0  0  0
   57.8269   24.8588   46.3300 H   0  0  0  0  0  0  0  0  0  0  0  0
   58.6633   25.8294   44.8956 H   0  0  0  0  0  0  0  0  0  0  0  0
   60.1150   27.5282   43.8018 H   0  0  0  0  0  0  0  0  0  0  0  0
   59.3699   29.8996   43.6369 H   0  0  0  0  0  0  0  0  0  0  0  0
   57.4586   31.4360   43.6641 H   0  0  0  0  0  0  0  0  0  0  0  0
   55.9351   30.9826   44.5719 H   0  0  0  0  0  0  0  0  0  0  0  0
   57.8674   30.3691   47.2088 H   0  0  0  0  0  0  0  0  0  0  0  0
   59.2052   30.6958   46.0437 H   0  0  0  0  0  0  0  0  0  0  0  0
   58.2055   32.6473   48.1796 H   0  0  0  0  0  0  0  0  0  0  0  0
   59.6836   31.6073   48.3021 H   0  0  0  0  0  0  0  0  0  0  0  0
   60.6835   35.0788   47.2497 H   0  0  0  0  0  0  0  0  0  0  0  0
   58.9553   34.9137   47.7538 H   0  0  0  0  0  0  0  0  0  0  0  0
   58.3378   33.8962   49.8620 H   0  0  0  0  0  0  0  0  0  0  0  0
   59.0416   33.4581   52.2138 H   0  0  0  0  0  0  0  0  0  0  0  0
   61.4618   33.4175   52.8108 H   0  0  0  0  0  0  0  0  0  0  0  0
   63.7800   34.2240   52.0820 H   0  0  0  0  0  0  0  0  0  0  0  0
   66.9542   31.9079   49.4325 H   0  0  0  0  0  0  0  0  0  0  0  0
   69.2594   32.8427   50.2049 H   0  0  0  0  0  0  0  0  0  0  0  0
   69.0419   34.8893   51.8514 H   0  0  0  0  0  0  0  0  0  0  0  0
   62.4915   34.2747   48.6925 H   0  0  0  0  0  0  0  0  0  0  0  0
   59.5219   34.5330   45.3082 H   0  0  0  0  0  0  0  0  0  0  0  0
   59.8429   32.8045   44.8449 H   0  0  0  0  0  0  0  0  0  0  0  0
   57.2663   33.8997   46.0673 H   0  0  0  0  0  0  0  0  0  0  0  0
   57.5340   33.3972   44.3438 H   0  0  0  0  0  0  0  0  0  0  0  0
   55.6708   28.8734   45.6383 H   0  0  0  0  0  0  0  0  0  0  0  0
  1  2  1  0
  2  3  2  0
  2  4  1  0
  4  5  2  0
  5  6  1  0
  6  7  2  0
  7  8  1  0
  8  9  1  0
  9 10  1  0
 10 11  1  0
 11 12  1  0
 12 13  1  0
 13 14  1  0
 14 15  1  0
 15 16  2  0
 16 17  1  0
 17 18  2  0
 18 19  1  0
 19 20  1  0
 20 21  1  0
 21 22  2  0
 21 23  1  0
 23 24  2  0
 24 25  1  0
 25 26  2  0
 26 27  1  0
 19 28  2  0
 13 29  1  0
 29 30  1  0
  8 31  2  0
 31  4  1  0
 30 10  1  0
 28 15  1  0
 27 23  1  0
  1 32  1  0
  1 33  1  0
  1 34  1  0
  5 35  1  0
  6 36  1  0
  7 37  1  0
  9 38  1  0
  9 39  1  0
 11 40  1  0
 11 41  1  0
 12 42  1  0
 12 43  1  0
 14 44  1  0
 14 45  1  0
 16 46  1  0
 17 47  1  0
 18 48  1  0
 20 49  1  0
 24 50  1  0
 25 51  1  0
 26 52  1  0
 28 53  1  0
 29 54  1  0
 29 55  1  0
 30 56  1  0
 30 57  1  0
 31 58  1  0
M  END
>  <UniqueID>  (22) 
22

>  <SMILES>  (22) 
CC(=O)c1cccc(CN2CCN(Cc3cccc(NC(=O)c4cccs4)c3)CC2)c1

>  <Energy>  (22) 
105.64812952517626

>  <Genealogy>  (22) 
CC(=O)c1cccc(CN2CCN(Cc3cccc(NC(=O)c4cccs4)c3)CC2)c1 (3D coordinates assigned)
CC(=O)c1cccc(CN2CCN(Cc3cccc(NC(=O)c4cccs4)c3)CC2)c1 (nonaromatic ring conformer: 105.64812952517626 kcal/mol)

>  <smiles>  (22) 
CC(=O)c1cccc(CN2CCN(Cc3cccc(NC(=O)c4cccs4)c3)CC2)c1

>  <score_type>  (22) 
oracle

>  <origin>  (22) 
adg

>  <m_score__min__energy>  (22) 
-9.6799999999999997

>  <m_primary>  (22) 
energy

$$$$
22:0
     RDKit          3D

 54 57  0  0  0  0  0  0  0  0999 V2000
   59.8590   35.8700   46.4520 O   0  0  0  0  0  0  0  0  0  0  0  0
   59.4040   34.8050   46.9510 C   0  0  0  0  0  0  0  0  0  0  0  0
   59.6930   34.5320   48.4060 C   0  0  0  0  0  0  0  0  0  0  0  0
   61.1080   34.0520   48.5940 C   0  0  0  0  0  0  0  0  0  0  0  0
   61.8160   33.4640   47.5220 C   0  0  0  0  0  0  0  0  0  0  0  0
   63.1320   33.0150   47.7000 C   0  0  0  0  0  0  0  0  0  0  0  0
   63.7330   33.1710   48.9500 C   0  0  0  0  0  0  0  0  0  0  0  0
   63.0560   33.7490   49.9920 C   0  0  0  0  0  0  0  0  0  0  0  0
   61.7450   34.2010   49.8430 C   0  0  0  0  0  0  0  0  0  0  0  0
   63.8800   33.8180   51.2210 C   0  0  0  0  0  0  0  0  0  0  0  0
   65.2360   33.2240   50.7960 C   0  0  0  0  0  0  0  0  0  0  0  0
   65.1020   32.7590   49.3320 C   0  0  0  0  0  0  0  0  0  0  0  0
   58.6050   33.9120   46.1400 N   0  0  0  0  0  0  0  0  0  0  0  0
   58.1170   34.3460   44.8210 C   0  0  0  0  0  0  0  0  0  0  0  0
   58.2590   33.2250   43.7720 C   0  0  0  0  0  0  0  0  0  0  0  0
   58.1530   31.8630   44.3490 N   0  0  0  0  0  0  0  0  0  0  0  0
   57.7280   30.8470   43.3590 C   0  0  0  0  0  0  0  0  0  0  0  0
   56.8890   29.7000   43.9590 C   0  0  0  0  0  0  0  0  0  0  0  0
   57.7690   28.7410   44.7180 C   0  0  0  0  0  0  0  0  0  0  0  0
   59.1660   28.8770   44.6620 C   0  0  0  0  0  0  0  0  0  0  0  0
   59.9900   28.0060   45.3780 C   0  0  0  0  0  0  0  0  0  0  0  0
   59.4260   27.0010   46.1710 C   0  0  0  0  0  0  0  0  0  0  0  0
   60.2270   26.1660   46.8790 F   0  0  0  0  0  0  0  0  0  0  0  0
   58.0360   26.8690   46.2460 C   0  0  0  0  0  0  0  0  0  0  0  0
   57.2070   27.7360   45.5270 C   0  0  0  0  0  0  0  0  0  0  0  0
   55.8600   27.5970   45.6230 F   0  0  0  0  0  0  0  0  0  0  0  0
   57.3970   31.8140   45.6100 C   0  0  0  0  0  0  0  0  0  0  0  0
   58.1520   32.6150   46.6720 C   0  0  0  0  0  0  0  0  0  0  0  0
   59.5478   35.4581   48.9816 H   0  0  0  0  0  0  0  0  0  0  0  0
   59.0070   33.7477   48.7586 H   0  0  0  0  0  0  0  0  0  0  0  0
   61.3310   33.3577   46.5404 H   0  0  0  0  0  0  0  0  0  0  0  0
   63.6813   32.5480   46.8692 H   0  0  0  0  0  0  0  0  0  0  0  0
   61.2158   34.6668   50.6874 H   0  0  0  0  0  0  0  0  0  0  0  0
   63.9971   34.8595   51.5550 H   0  0  0  0  0  0  0  0  0  0  0  0
   63.4271   33.2767   52.0647 H   0  0  0  0  0  0  0  0  0  0  0  0
   66.0224   33.9889   50.8763 H   0  0  0  0  0  0  0  0  0  0  0  0
   65.5093   32.3800   51.4463 H   0  0  0  0  0  0  0  0  0  0  0  0
   65.8509   33.2521   48.6949 H   0  0  0  0  0  0  0  0  0  0  0  0
   65.2674   31.6779   49.2141 H   0  0  0  0  0  0  0  0  0  0  0  0
   57.0562   34.6246   44.9057 H   0  0  0  0  0  0  0  0  0  0  0  0
   58.7212   35.2050   44.4937 H   0  0  0  0  0  0  0  0  0  0  0  0
   57.4655   33.3481   43.0202 H   0  0  0  0  0  0  0  0  0  0  0  0
   59.2639   33.3152   43.3337 H   0  0  0  0  0  0  0  0  0  0  0  0
   57.1268   31.3476   42.5857 H   0  0  0  0  0  0  0  0  0  0  0  0
   58.6448   30.3933   42.9545 H   0  0  0  0  0  0  0  0  0  0  0  0
   56.1381   30.1211   44.6438 H   0  0  0  0  0  0  0  0  0  0  0  0
   56.3946   29.1562   43.1405 H   0  0  0  0  0  0  0  0  0  0  0  0
   59.6136   29.6743   44.0505 H   0  0  0  0  0  0  0  0  0  0  0  0
   61.0834   28.1103   45.3184 H   0  0  0  0  0  0  0  0  0  0  0  0
   57.5931   26.0807   46.8725 H   0  0  0  0  0  0  0  0  0  0  0  0
   56.3985   32.2502   45.4591 H   0  0  0  0  0  0  0  0  0  0  0  0
   57.2877   30.7699   45.9386 H   0  0  0  0  0  0  0  0  0  0  0  0
   57.4855   32.7919   47.5290 H   0  0  0  0  0  0  0  0  0  0  0  0
   59.0359   32.0375   46.9804 H   0  0  0  0  0  0  0  0  0  0  0  0
  1  2  2  0
  2  3  1  0
  3  4  1  0
  4  5  2  0
  5  6  1  0
  6  7  2  0
  7  8  1  0
  8  9  2  0
  8 10  1  0
 10 11  1  0
 11 12  1  0
  2 13  1  0
 13 14  1  0
 14 15  1  0
 15 16  1  0
 16 17  1  0
 17 18  1  0
 18 19  1  0
 19 20  2  0
 20 21  1  0
 21 22  2  0
 22 23  1  0
 22 24  1  0
 24 25  2  0
 25 26  1  0
 16 27  1  0
 27 28  1  0
  9  4  1  0
 28 13  1  0
 12  7  1  0
 25 19  1  0
  3 29  1  0
  3 30  1  0
  5 31  1  0
  6 32  1  0
  9 33  1  0
 10 34  1  0
 10 35  1  0
 11 36  1  0
 11 37  1  0
 12 38  1  0
 12 39  1  0
 14 40  1  0
 14 41  1  0
 15 42  1  0
 15 43  1  0
 17 44  1  0
 17 45  1  0
 18 46  1  0
 18 47  1  0
 20 48  1  0
 21 49  1  0
 24 50  1  0
 27 51  1  0
 27 52  1  0
 28 53  1  0
 28 54  1  0
M  END
>  <UniqueID>  (23) 
23

>  <SMILES>  (23) 
O=C(Cc1ccc2c(c1)CCC2)N1CCN(CCc2ccc(F)cc2F)CC1

>  <Energy>  (23) 
69.97582243772965

>  <Genealogy>  (23) 
O=C(Cc1ccc2c(c1)CCC2)N1CCN(CCc2ccc(F)cc2F)CC1 (3D coordinates assigned)
O=C(Cc1ccc2c(c1)CCC2)N1CCN(CCc2ccc(F)cc2F)CC1 (nonaromatic ring conformer: 69.97582243772965 kcal/mol)

>  <smiles>  (23) 
O=C(Cc1ccc2c(c1)CCC2)N1CCN(CCc2ccc(F)cc2F)CC1

>  <score_type>  (23) 
oracle

>  <origin>  (23) 
adg

>  <m_score__min__energy>  (23) 
-9.2100000000000009

>  <m_primary>  (23) 
energy

$$$$
23:0
     RDKit          3D

 51 53  0  0  0  0  0  0  0  0999 V2000
   57.7950   32.1930   43.0470 C   0  0  0  0  0  0  0  0  0  0  0  0
   57.5360   30.8760   43.7150 C   0  0  0  0  0  0  0  0  0  0  0  0
   58.6090   30.0620   44.1110 C   0  0  0  0  0  0  0  0  0  0  0  0
   58.3680   28.8480   44.7630 C   0  0  0  0  0  0  0  0  0  0  0  0
   57.0540   28.4380   45.0290 C   0  0  0  0  0  0  0  0  0  0  0  0
   56.7340   26.8870   45.8080 S   0  0  0  0  0  0  0  0  0  0  0  0
   55.2530   26.7010   45.9960 O   0  0  0  0  0  0  0  0  0  0  0  0
   57.2380   25.7890   44.9140 O   0  0  0  0  0  0  0  0  0  0  0  0
   57.5240   26.7640   47.3570 N   0  0  0  0  0  0  0  0  0  0  0  0
   58.9430   27.1170   47.2760 C   0  0  0  0  0  0  0  0  0  0  0  0
   59.2040   28.4650   47.8820 C   0  0  0  0  0  0  0  0  0  0  0  0
   58.3450   29.3780   47.7480 O   0  0  0  0  0  0  0  0  0  0  0  0
   60.4060   28.6930   48.6340 N   0  0  0  0  0  0  0  0  0  0  0  0
   60.9620   29.9900   48.9150 C   0  0  0  0  0  0  0  0  0  0  0  0
   61.7250   30.2350   50.0720 C   0  0  0  0  0  0  0  0  0  0  0  0
   62.2190   31.5150   50.3340 C   0  0  0  0  0  0  0  0  0  0  0  0
   61.9470   32.5640   49.4550 C   0  0  0  0  0  0  0  0  0  0  0  0
   61.1780   32.3420   48.3060 C   0  0  0  0  0  0  0  0  0  0  0  0
   60.8140   33.6770   47.2070 S   0  0  0  0  0  0  0  0  0  0  0  0
   60.6150   34.9310   48.0100 O   0  0  0  0  0  0  0  0  0  0  0  0
   61.9880   33.8940   46.2940 O   0  0  0  0  0  0  0  0  0  0  0  0
   59.3880   33.3900   46.2380 N   0  0  0  0  0  0  0  0  0  0  0  0
   58.2190   33.0740   47.0580 C   0  0  0  0  0  0  0  0  0  0  0  0
   56.9990   33.4750   46.2430 C   0  0  0  0  0  0  0  0  0  0  0  0
   57.5190   34.4390   45.1860 C   0  0  0  0  0  0  0  0  0  0  0  0
   59.0100   34.5650   45.4550 C   0  0  0  0  0  0  0  0  0  0  0  0
   60.6760   31.0580   48.0500 C   0  0  0  0  0  0  0  0  0  0  0  0
   55.9840   29.2610   44.6560 C   0  0  0  0  0  0  0  0  0  0  0  0
   56.2230   30.4770   44.0080 C   0  0  0  0  0  0  0  0  0  0  0  0
   57.9475   32.9685   43.8121 H   0  0  0  0  0  0  0  0  0  0  0  0
   58.6950   32.1151   42.4194 H   0  0  0  0  0  0  0  0  0  0  0  0
   56.9325   32.4617   42.4194 H   0  0  0  0  0  0  0  0  0  0  0  0
   59.6424   30.3797   43.9080 H   0  0  0  0  0  0  0  0  0  0  0  0
   59.2126   28.2128   45.0681 H   0  0  0  0  0  0  0  0  0  0  0  0
   59.5319   26.3610   47.8161 H   0  0  0  0  0  0  0  0  0  0  0  0
   59.2329   27.1506   46.2154 H   0  0  0  0  0  0  0  0  0  0  0  0
   60.8980   27.8580   49.0230 H   0  0  0  0  0  0  0  0  0  0  0  0
   61.9334   29.4140   50.7738 H   0  0  0  0  0  0  0  0  0  0  0  0
   62.8236   31.6964   51.2349 H   0  0  0  0  0  0  0  0  0  0  0  0
   62.3385   33.5701   49.6657 H   0  0  0  0  0  0  0  0  0  0  0  0
   58.1905   31.9970   47.2801 H   0  0  0  0  0  0  0  0  0  0  0  0
   58.2498   33.6099   48.0181 H   0  0  0  0  0  0  0  0  0  0  0  0
   56.5455   32.5920   45.7690 H   0  0  0  0  0  0  0  0  0  0  0  0
   56.2212   33.9355   46.8699 H   0  0  0  0  0  0  0  0  0  0  0  0
   57.3423   34.0367   44.1776 H   0  0  0  0  0  0  0  0  0  0  0  0
   57.0103   35.4131   45.2343 H   0  0  0  0  0  0  0  0  0  0  0  0
   59.5673   34.5859   44.5069 H   0  0  0  0  0  0  0  0  0  0  0  0
   59.2410   35.4953   45.9945 H   0  0  0  0  0  0  0  0  0  0  0  0
   60.0510   30.8857   47.1613 H   0  0  0  0  0  0  0  0  0  0  0  0
   54.9516   28.9497   44.8736 H   0  0  0  0  0  0  0  0  0  0  0  0
   55.3784   31.1232   43.7269 H   0  0  0  0  0  0  0  0  0  0  0  0
  1  2  1  0
  2  3  2  0
  3  4  1  0
  4  5  2  0
  5  6  1  0
  6  7  2  0
  6  8  2  0
  6  9  1  0
  9 10  1  0
 10 11  1  0
 11 12  2  0
 11 13  1  0
 13 14  1  0
 14 15  2  0
 15 16  1  0
 16 17  2  0
 17 18  1  0
 18 19  1  0
 19 20  2  0
 19 21  2  0
 19 22  1  0
 22 23  1  0
 23 24  1  0
 24 25  1  0
 25 26  1  0
 18 27  2  0
  5 28  1  0
 28 29  2  0
 29  2  1  0
 27 14  1  0
 26 22  1  0
  1 30  1  0
  1 31  1  0
  1 32  1  0
  3 33  1  0
  4 34  1  0
 10 35  1  0
 10 36  1  0
 13 37  1  0
 15 38  1  0
 16 39  1  0
 17 40  1  0
 23 41  1  0
 23 42  1  0
 24 43  1  0
 24 44  1  0
 25 45  1  0
 25 46  1  0
 26 47  1  0
 26 48  1  0
 27 49  1  0
 28 50  1  0
 29 51  1  0
M  CHG  1   9  -1
M  END
>  <UniqueID>  (24) 
24

>  <SMILES>  (24) 
Cc1ccc(S(=O)(=O)[N-]CC(=O)Nc2cccc(S(=O)(=O)N3CCCC3)c2)cc1

>  <Energy>  (24) 
52.48380374197004

>  <Genealogy>  (24) 
Cc1ccc(S(=O)(=O)[N-]CC(=O)Nc2cccc(S(=O)(=O)N3CCCC3)c2)cc1 (protonated)
Cc1ccc(S(=O)(=O)[N-]CC(=O)Nc2cccc(S(=O)(=O)N3CCCC3)c2)cc1 (3D coordinates assigned)
Cc1ccc(S(=O)(=O)[N-]CC(=O)Nc2cccc(S(=O)(=O)N3CCCC3)c2)cc1 (nonaromatic ring conformer: 52.48380374197004 kcal/mol)

>  <smiles>  (24) 
Cc1ccc(S(=O)(=O)NCC(=O)Nc2cccc(S(=O)(=O)N3CCCC3)c2)cc1

>  <score_type>  (24) 
oracle

>  <origin>  (24) 
adg

>  <m_score__min__energy>  (24) 
-11.859999999999999

>  <m_primary>  (24) 
energy

$$$$
24:0
     RDKit          3D

 21 22  0  0  0  0  0  0  0  0999 V2000
   56.2030   22.5810   41.5690 H   0  0  0  0  0  0  0  0  0  0  0  0
   55.8850   22.2170   42.4580 O   0  0  0  0  0  0  0  0  0  0  0  0
   56.3030   22.7450   43.6790 C   0  0  0  0  0  0  0  0  0  0  0  0
   56.5990   24.1080   43.8250 C   0  0  0  0  0  0  0  0  0  0  0  0
   56.5218   24.8338   43.0020 H   0  0  0  0  0  0  0  0  0  0  0  0
   57.0020   24.4550   45.1190 C   0  0  0  0  0  0  0  0  0  0  0  0
   57.3510   25.6700   45.5740 C   0  0  0  0  0  0  0  0  0  0  0  0
   58.6400   26.0540   45.7050 N   0  0  0  0  0  0  0  0  0  0  0  0
   58.6050   27.3160   46.1820 C   0  0  0  0  0  0  0  0  0  0  0  0
   59.6990   28.0270   46.4400 C   0  0  0  0  0  0  0  0  0  0  0  0
   60.6931   27.5902   46.2638 H   0  0  0  0  0  0  0  0  0  0  0  0
   59.6097   29.0518   46.8296 H   0  0  0  0  0  0  0  0  0  0  0  0
   57.3090   27.7570   46.3630 C   0  0  0  0  0  0  0  0  0  0  0  0
   56.9828   28.7381   46.7384 H   0  0  0  0  0  0  0  0  0  0  0  0
   56.5150   26.7060   45.9730 C   0  0  0  0  0  0  0  0  0  0  0  0
   55.1260   26.7140   45.9910 O   0  0  0  0  0  0  0  0  0  0  0  0
   56.9840   23.0560   46.0640 S   0  0  0  0  0  0  0  0  0  0  0  0
   56.4700   22.0090   44.8540 C   0  0  0  0  0  0  0  0  0  0  0  0
   56.2690   20.7040   45.0280 C   0  0  0  0  0  0  0  0  0  0  0  0
   56.4397   20.2479   46.0143 H   0  0  0  0  0  0  0  0  0  0  0  0
   55.9323   20.0822   44.1854 H   0  0  0  0  0  0  0  0  0  0  0  0
  1  2  1  0
  2  3  1  0
  3  4  2  0
  4  5  1  0
  4  6  1  0
  6  7  2  0
  7  8  1  0
  8  9  1  0
  9 10  2  0
 10 11  1  0
 10 12  1  0
  9 13  1  0
 13 14  1  0
 13 15  2  0
 15 16  1  0
  6 17  1  0
 17 18  1  0
 18 19  2  0
 19 20  1  0
 19 21  1  0
 18  3  1  0
 15  7  1  0
M  CHG  2   8  -1  16  -1
M  END
>  <UniqueID>  (25) 
25

>  <SMILES>  (25) 
C=c1cc([O-])/c(=c2\cc(O)c(=C)s2)[n-]1

>  <Energy>  (25) 
77.55661314089296

>  <Genealogy>  (25) 
C=c1cc([O-])c(=c2cc(O)c(=C)s2)[n-]1 (protonated)
C=c1cc([O-])/c(=c2\cc(O)c(=C)s2)[n-]1 (cis-trans isomerization)
C=c1cc([O-])/c(=c2\cc(O)c(=C)s2)[n-]1 (3D coordinates assigned)
C=c1cc([O-])/c(=c2\cc(O)c(=C)s2)[n-]1 (optimized conformer: 77.55661314089296 kcal/mol)

>  <smiles>  (25) 
C=c1cc(O)c(=c2cc(O)c(=C)s2)[nH]1

>  <score_type>  (25) 
oracle

>  <origin>  (25) 
adg

>  <m_score__min__energy>  (25) 
-10.08

>  <m_primary>  (25) 
energy

$$$$
25:0
     RDKit          3D

 53 57  0  0  0  0  0  0  0  0999 V2000
   57.4720   34.1780   45.2750 C   0  0  0  0  0  0  0  0  0  0  0  0
   58.9220   34.0290   45.2240 N   0  0  0  0  0  0  0  0  0  0  0  0
   59.7740   33.9010   46.3710 C   0  0  0  0  0  0  0  0  0  0  0  0
   60.8200   34.6010   46.4320 O   0  0  0  0  0  0  0  0  0  0  0  0
   59.4430   33.0070   47.4990 C   0  0  0  0  0  0  0  0  0  0  0  0
   59.0830   31.6680   47.2730 C   0  0  0  0  0  0  0  0  0  0  0  0
   58.7570   30.8350   48.3480 C   0  0  0  0  0  0  0  0  0  0  0  0
   58.7990   31.3290   49.6530 C   0  0  0  0  0  0  0  0  0  0  0  0
   59.1880   32.6460   49.8940 C   0  0  0  0  0  0  0  0  0  0  0  0
   59.5170   33.4860   48.8150 C   0  0  0  0  0  0  0  0  0  0  0  0
   59.2640   33.0990   51.2900 C   0  0  0  0  0  0  0  0  0  0  0  0
   59.7670   34.2230   51.5560 O   0  0  0  0  0  0  0  0  0  0  0  0
   58.7750   32.2570   52.3510 N   0  0  0  0  0  0  0  0  0  0  0  0
   58.7190   32.8270   53.7050 C   0  0  0  0  0  0  0  0  0  0  0  0
   58.1730   30.9290   52.0480 C   0  0  1  0  0  0  0  0  0  0  0  0
   58.6630   29.8290   53.0060 C   0  0  0  0  0  0  0  0  0  0  0  0
   57.4710   28.9030   53.2030 C   0  0  0  0  0  0  0  0  0  0  0  0
   56.3000   29.6670   52.8000 N   0  0  0  0  0  0  0  0  0  0  0  0
   54.9750   29.0900   52.8090 C   0  0  0  0  0  0  0  0  0  0  0  0
   54.8460   27.8760   53.1300 O   0  0  0  0  0  0  0  0  0  0  0  0
   53.7600   29.8720   52.4690 C   0  0  0  0  0  0  0  0  0  0  0  0
   53.1640   30.7180   53.4300 C   0  0  0  0  0  0  0  0  0  0  0  0
   52.0570   31.4550   53.0330 C   0  0  0  0  0  0  0  0  0  0  0  0
   51.3750   32.3570   53.7540 N   0  0  0  0  0  0  0  0  0  0  0  0
   50.4510   32.8070   52.8670 C   0  0  0  0  0  0  0  0  0  0  0  0
   50.5320   32.2370   51.6380 N   0  0  0  0  0  0  0  0  0  0  0  0
   51.5530   31.3780   51.7740 C   0  0  0  0  0  0  0  0  0  0  0  0
   52.1340   30.5370   50.8170 C   0  0  0  0  0  0  0  0  0  0  0  0
   51.6570   30.4280   49.4200 C   0  0  0  0  0  0  0  0  0  0  0  0
   50.6450   31.2880   48.8940 N   0  0  0  0  0  0  0  0  0  0  0  0
   52.1500   29.5380   48.6720 O   0  0  0  0  0  0  0  0  0  0  0  0
   53.2330   29.8230   51.2040 N   0  0  0  0  0  0  0  0  0  0  0  0
   56.6470   30.9540   52.2130 C   0  0  0  0  0  0  0  0  0  0  0  0
   58.4760   30.4860   50.7150 O   0  0  0  0  0  0  0  0  0  0  0  0
   57.1436   34.2118   46.3243 H   0  0  0  0  0  0  0  0  0  0  0  0
   57.1812   35.1108   44.7696 H   0  0  0  0  0  0  0  0  0  0  0  0
   56.9976   33.3239   44.7696 H   0  0  0  0  0  0  0  0  0  0  0  0
   59.0574   31.2733   46.2466 H   0  0  0  0  0  0  0  0  0  0  0  0
   58.4673   29.7897   48.1651 H   0  0  0  0  0  0  0  0  0  0  0  0
   59.8335   34.5224   49.0040 H   0  0  0  0  0  0  0  0  0  0  0  0
   58.7984   32.0186   54.4467 H   0  0  0  0  0  0  0  0  0  0  0  0
   59.5522   33.5323   53.8407 H   0  0  0  0  0  0  0  0  0  0  0  0
   57.7645   33.3566   53.8407 H   0  0  0  0  0  0  0  0  0  0  0  0
   59.5071   29.2805   52.5625 H   0  0  0  0  0  0  0  0  0  0  0  0
   59.0185   30.2462   53.9597 H   0  0  0  0  0  0  0  0  0  0  0  0
   57.5763   28.0054   52.5759 H   0  0  0  0  0  0  0  0  0  0  0  0
   57.3918   28.5639   54.2464 H   0  0  0  0  0  0  0  0  0  0  0  0
   53.5616   30.7900   54.4531 H   0  0  0  0  0  0  0  0  0  0  0  0
   49.7002   33.5691   53.1228 H   0  0  0  0  0  0  0  0  0  0  0  0
   50.3610   31.2040   47.8920 H   0  0  0  0  0  0  0  0  0  0  0  0
   50.0870   31.9160   49.5070 H   0  0  0  0  0  0  0  0  0  0  0  0
   56.1563   31.0762   51.2361 H   0  0  0  0  0  0  0  0  0  0  0  0
   56.3175   31.7931   52.8433 H   0  0  0  0  0  0  0  0  0  0  0  0
  1  2  1  0
  2  3  1  0
  3  4  2  0
  3  5  1  0
  5  6  2  0
  6  7  1  0
  7  8  2  0
  8  9  1  0
  9 10  2  0
  9 11  1  0
 11 12  2  0
 11 13  1  0
 13 14  1  0
 13 15  1  0
 15 16  1  0
 16 17  1  0
 17 18  1  0
 18 19  1  0
 19 20  2  0
 19 21  1  0
 21 22  2  0
 22 23  1  0
 23 24  1  0
 24 25  1  0
 25 26  2  0
 26 27  1  0
 27 28  1  0
 28 29  1  0
 29 30  1  0
 29 31  2  0
 28 32  2  0
 18 33  1  0
 15 34  1  6
 10  5  1  0
 33 15  1  0
 34  8  1  0
 32 21  1  0
 27 23  2  0
  1 35  1  0
  1 36  1  0
  1 37  1  0
  6 38  1  0
  7 39  1  0
 10 40  1  0
 14 41  1  0
 14 42  1  0
 14 43  1  0
 16 44  1  0
 16 45  1  0
 17 46  1  0
 17 47  1  0
 22 48  1  0
 25 49  1  0
 30 50  1  0
 30 51  1  0
 33 52  1  0
 33 53  1  0
M  CHG  2   2  -1  24  -1
M  END
>  <UniqueID>  (26) 
26

>  <SMILES>  (26) 
C[N-]C(=O)c1ccc2c(c1)C(=O)N(C)[C@]1(CCN(C(=O)c3cc4[n-]cnc4c(C(N)=O)n3)C1)O2

>  <Energy>  (26) 
107.14386834913556

>  <Genealogy>  (26) 
C[N-]C(=O)c1ccc2c(c1)C(=O)N(C)C1(CCN(C(=O)c3cc4[n-]cnc4c(C(N)=O)n3)C1)O2 (protonated)
C[N-]C(=O)c1ccc2c(c1)C(=O)N(C)[C@]1(CCN(C(=O)c3cc4[n-]cnc4c(C(N)=O)n3)C1)O2 (chirality)
C[N-]C(=O)c1ccc2c(c1)C(=O)N(C)[C@]1(CCN(C(=O)c3cc4[n-]cnc4c(C(N)=O)n3)C1)O2 (3D coordinates assigned)
C[N-]C(=O)c1ccc2c(c1)C(=O)N(C)[C@]1(CCN(C(=O)c3cc4[n-]cnc4c(C(N)=O)n3)C1)O2 (nonaromatic ring conformer: 107.14386834913556 kcal/mol)

>  <smiles>  (26) 
CNC(=O)c1ccc2c(c1)C(=O)N(C)C1(CCN(C(=O)c3cc4[nH]cnc4c(C(N)=O)n3)C1)O2

>  <score_type>  (26) 
oracle

>  <origin>  (26) 
adg

>  <m_score__min__energy>  (26) 
-11.539999999999999

>  <m_primary>  (26) 
energy

$$$$
26:0
     RDKit          3D

 47 49  0  0  0  0  0  0  0  0999 V2000
   51.3150   27.6530   52.6460 C   0  0  0  0  0  0  0  0  0  0  0  0
   51.7820   28.8640   52.3680 C   0  0  0  0  0  0  0  0  0  0  0  0
   51.0030   29.9380   51.9570 O   0  0  0  0  0  0  0  0  0  0  0  0
   51.8520   31.0330   51.7700 C   0  0  0  0  0  0  0  0  0  0  0  0
   51.3610   32.3520   51.3430 C   0  0  0  0  0  0  0  0  0  0  0  0
   51.4040   32.6980   50.1340 O   0  0  0  0  0  0  0  0  0  0  0  0
   50.8420   33.2290   52.2870 O   0  0  0  0  0  0  0  0  0  0  0  0
   53.1260   30.7140   52.0250 C   0  0  0  0  0  0  0  0  0  0  0  0
   54.2050   31.6060   51.9540 O   0  0  0  0  0  0  0  0  0  0  0  0
   55.5400   31.2640   52.2000 C   0  0  0  0  0  0  0  0  0  0  0  0
   55.8650   30.6570   53.4160 C   0  0  0  0  0  0  0  0  0  0  0  0
   57.1870   30.3120   53.6980 C   0  0  0  0  0  0  0  0  0  0  0  0
   58.1990   30.5840   52.7750 C   0  0  0  0  0  0  0  0  0  0  0  0
   57.9030   31.2210   51.5520 C   0  0  0  0  0  0  0  0  0  0  0  0
   58.9570   31.5360   50.5360 C   0  0  0  0  0  0  0  0  0  0  0  0
   59.9240   30.7320   50.4110 O   0  0  0  0  0  0  0  0  0  0  0  0
   58.9140   32.7340   49.7100 N   0  0  2  0  0  0  0  0  0  0  0  0
   58.8260   32.4160   48.2510 C   0  0  0  0  0  0  0  0  0  0  0  0
   59.4510   33.4370   47.2830 C   0  0  0  0  0  0  0  0  0  0  0  0
   60.9870   33.4350   47.2940 C   0  0  0  0  0  0  0  0  0  0  0  0
   61.5670   32.6970   48.4300 N   0  0  0  0  0  0  0  0  0  0  0  0
   62.9230   32.1720   48.1890 C   0  0  0  0  0  0  0  0  0  0  0  0
   61.4080   33.3510   49.7420 C   0  0  0  0  0  0  0  0  0  0  0  0
   59.9480   33.7250   50.1110 C   0  0  0  0  0  0  0  0  0  0  0  0
   56.5620   31.5610   51.2810 C   0  0  0  0  0  0  0  0  0  0  0  0
   53.1570   29.3140   52.4380 C   0  0  0  0  0  0  0  0  0  0  0  0
   54.1500   28.6570   52.8460 O   0  0  0  0  0  0  0  0  0  0  0  0
   52.0044   26.8577   52.9658 H   0  0  0  0  0  0  0  0  0  0  0  0
   50.2386   27.4447   52.5565 H   0  0  0  0  0  0  0  0  0  0  0  0
   55.0755   30.4504   54.1536 H   0  0  0  0  0  0  0  0  0  0  0  0
   57.4334   29.8233   54.6522 H   0  0  0  0  0  0  0  0  0  0  0  0
   59.2364   30.2988   53.0039 H   0  0  0  0  0  0  0  0  0  0  0  0
   57.9990   33.1990   49.9170 H   0  0  0  0  0  0  0  0  0  0  0  0
   59.3293   31.4514   48.0889 H   0  0  0  0  0  0  0  0  0  0  0  0
   57.7508   32.4173   48.0187 H   0  0  0  0  0  0  0  0  0  0  0  0
   59.1103   33.2033   46.2635 H   0  0  0  0  0  0  0  0  0  0  0  0
   59.1275   34.4349   47.6140 H   0  0  0  0  0  0  0  0  0  0  0  0
   61.3410   32.9720   46.3611 H   0  0  0  0  0  0  0  0  0  0  0  0
   61.3107   34.4819   47.3899 H   0  0  0  0  0  0  0  0  0  0  0  0
   63.4185   31.9802   49.1522 H   0  0  0  0  0  0  0  0  0  0  0  0
   62.8570   31.2344   47.6175 H   0  0  0  0  0  0  0  0  0  0  0  0
   63.5055   32.9096   47.6175 H   0  0  0  0  0  0  0  0  0  0  0  0
   61.7914   32.6673   50.5137 H   0  0  0  0  0  0  0  0  0  0  0  0
   61.9648   34.2979   49.6850 H   0  0  0  0  0  0  0  0  0  0  0  0
   59.8949   33.8477   51.2028 H   0  0  0  0  0  0  0  0  0  0  0  0
   59.7201   34.6438   49.5508 H   0  0  0  0  0  0  0  0  0  0  0  0
   56.3114   32.0662   50.3365 H   0  0  0  0  0  0  0  0  0  0  0  0
  1  2  2  0
  2  3  1  0
  3  4  1  0
  4  5  1  0
  5  6  2  0
  5  7  1  0
  4  8  2  0
  8  9  1  0
  9 10  1  0
 10 11  2  0
 11 12  1  0
 12 13  2  0
 13 14  1  0
 14 15  1  0
 15 16  2  0
 15 17  1  0
 17 18  1  0
 18 19  1  0
 19 20  1  0
 20 21  1  0
 21 22  1  0
 21 23  1  0
 23 24  1  0
 14 25  2  0
  8 26  1  0
 26 27  2  0
 26  2  1  0
 25 10  1  0
 24 17  1  0
  1 28  1  0
  1 29  1  0
 11 30  1  0
 12 31  1  0
 13 32  1  0
 17 33  1  1
 18 34  1  0
 18 35  1  0
 19 36  1  0
 19 37  1  0
 20 38  1  0
 20 39  1  0
 22 40  1  0
 22 41  1  0
 22 42  1  0
 23 43  1  0
 23 44  1  0
 24 45  1  0
 24 46  1  0
 25 47  1  0
M  CHG  2   7  -1  17   1
M  END
>  <UniqueID>  (27) 
27

>  <SMILES>  (27) 
C=C1OC(C(=O)[O-])=C(Oc2cccc(C(=O)[N@@H+]3CCCN(C)CC3)c2)C1=O

>  <Energy>  (27) 
106.7947310559623

>  <Genealogy>  (27) 
C=C1OC(C(=O)[O-])=C(Oc2cccc(C(=O)[NH+]3CCCN(C)CC3)c2)C1=O (protonated)
C=C1OC(C(=O)[O-])=C(Oc2cccc(C(=O)[N@@H+]3CCCN(C)CC3)c2)C1=O (chirality)
C=C1OC(C(=O)[O-])=C(Oc2cccc(C(=O)[N@@H+]3CCCN(C)CC3)c2)C1=O (3D coordinates assigned)
C=C1OC(C(=O)[O-])=C(Oc2cccc(C(=O)[N@@H+]3CCCN(C)CC3)c2)C1=O (nonaromatic ring conformer: 106.7947310559623 kcal/mol)

>  <smiles>  (27) 
C=C1OC(C(=O)O)=C(Oc2cccc(C(=O)N3CCCN(C)CC3)c2)C1=O

>  <score_type>  (27) 
oracle

>  <origin>  (27) 
adg

>  <m_score__min__energy>  (27) 
-7.6299999999999999

>  <m_primary>  (27) 
energy

$$$$
27:0
     RDKit          3D

 39 41  0  0  0  0  0  0  0  0999 V2000
   59.2680   27.6430   47.1900 C   0  0  0  0  0  0  0  0  0  0  0  0
   58.0060   27.8700   46.8300 C   0  0  0  0  0  0  0  0  0  0  0  0
   57.5890   29.0270   46.0040 C   0  0  0  0  0  0  0  0  0  0  0  0
   58.3980   30.1750   46.0160 C   0  0  0  0  0  0  0  0  0  0  0  0
   58.0440   31.3130   45.2720 C   0  0  0  0  0  0  0  0  0  0  0  0
   58.9170   32.5020   45.2360 C   0  0  0  0  0  0  0  0  0  0  0  0
   59.4470   33.0950   46.3180 C   0  0  0  0  0  0  0  0  0  0  0  0
   58.9420   34.7280   46.8180 S   0  0  0  0  0  0  0  0  0  0  0  0
   59.8650   34.4090   48.3230 C   0  0  0  0  0  0  0  0  0  0  0  0
   59.5270   34.9190   49.3810 O   0  0  0  0  0  0  0  0  0  0  0  0
   60.9060   33.4100   48.2700 N   0  0  2  0  0  0  0  0  0  0  0  0
   62.2070   34.0230   47.8780 C   0  0  2  0  0  0  0  0  0  0  0  0
   62.9970   33.1520   46.8640 C   0  0  0  0  0  0  0  0  0  0  0  0
   63.6680   32.0060   47.6150 C   0  0  0  0  0  0  0  0  0  0  0  0
   64.0470   32.6710   49.2070 S   0  0  0  0  0  0  0  0  0  0  0  0
   65.5210   32.9130   49.3720 O   0  0  0  0  0  0  0  0  0  0  0  0
   63.5220   31.7950   50.3100 O   0  0  0  0  0  0  0  0  0  0  0  0
   63.1460   34.1890   49.0940 C   0  0  0  0  0  0  0  0  0  0  0  0
   60.4120   32.5170   47.2610 C   0  0  0  0  0  0  0  0  0  0  0  0
   60.6820   31.2840   47.2920 O   0  0  0  0  0  0  0  0  0  0  0  0
   56.8940   31.2810   44.4740 C   0  0  0  0  0  0  0  0  0  0  0  0
   56.0700   30.1540   44.4710 C   0  0  0  0  0  0  0  0  0  0  0  0
   56.3980   29.0360   45.2440 C   0  0  0  0  0  0  0  0  0  0  0  0
   55.5220   27.9560   45.2670 O   0  0  0  0  0  0  0  0  0  0  0  0
   59.5151   26.7651   47.8051 H   0  0  0  0  0  0  0  0  0  0  0  0
   60.0633   28.3334   46.8722 H   0  0  0  0  0  0  0  0  0  0  0  0
   57.2332   27.1617   47.1633 H   0  0  0  0  0  0  0  0  0  0  0  0
   59.3203   30.1832   46.6154 H   0  0  0  0  0  0  0  0  0  0  0  0
   59.1506   32.9339   44.2517 H   0  0  0  0  0  0  0  0  0  0  0  0
   60.9700   32.9060   49.1860 H   0  0  0  0  0  0  0  0  0  0  0  0
   61.9341   34.9915   47.4336 H   0  0  0  0  0  0  0  0  0  0  0  0
   62.3069   32.7455   46.1100 H   0  0  0  0  0  0  0  0  0  0  0  0
   63.7593   33.7648   46.3606 H   0  0  0  0  0  0  0  0  0  0  0  0
   62.9842   31.1491   47.7057 H   0  0  0  0  0  0  0  0  0  0  0  0
   64.5643   31.6370   47.0949 H   0  0  0  0  0  0  0  0  0  0  0  0
   62.5617   34.3582   50.0105 H   0  0  0  0  0  0  0  0  0  0  0  0
   63.8162   35.0533   48.9767 H   0  0  0  0  0  0  0  0  0  0  0  0
   56.6386   32.1477   43.8466 H   0  0  0  0  0  0  0  0  0  0  0  0
   55.1574   30.1455   43.8569 H   0  0  0  0  0  0  0  0  0  0  0  0
  1  2  2  0
  2  3  1  0
  3  4  2  0
  4  5  1  0
  5  6  1  0
  6  7  2  3
  7  8  1  0
  8  9  1  0
  9 10  2  0
  9 11  1  0
 11 12  1  0
 12 13  1  0
 13 14  1  0
 14 15  1  0
 15 16  2  0
 15 17  2  0
 15 18  1  0
 11 19  1  0
 19 20  2  0
  5 21  2  0
 21 22  1  0
 22 23  2  0
 23 24  1  0
 23  3  1  0
 19  7  1  0
 18 12  1  0
  1 25  1  0
  1 26  1  0
  2 27  1  0
  4 28  1  0
  6 29  1  0
 11 30  1  1
 12 31  1  6
 13 32  1  0
 13 33  1  0
 14 34  1  0
 14 35  1  0
 18 36  1  0
 18 37  1  0
 21 38  1  0
 22 39  1  0
M  CHG  2  11   1  24  -1
M  END
>  <UniqueID>  (28) 
28

>  <SMILES>  (28) 
C=Cc1cc(C=C2SC(=O)[N@H+]([C@@H]3CCS(=O)(=O)C3)C2=O)ccc1[O-]

>  <Energy>  (28) 
71.32387324791083

>  <Genealogy>  (28) 
C=Cc1cc(C=C2SC(=O)[NH+](C3CCS(=O)(=O)C3)C2=O)ccc1[O-] (protonated)
C=Cc1cc(C=C2SC(=O)[N@H+]([C@@H]3CCS(=O)(=O)C3)C2=O)ccc1[O-] (chirality)
C=Cc1cc(C=C2SC(=O)[N@H+]([C@@H]3CCS(=O)(=O)C3)C2=O)ccc1[O-] (3D coordinates assigned)
C=Cc1cc(C=C2SC(=O)[N@H+]([C@@H]3CCS(=O)(=O)C3)C2=O)ccc1[O-] (nonaromatic ring conformer: 71.32387324791083 kcal/mol)

>  <smiles>  (28) 
C=Cc1cc(C=C2SC(=O)N(C3CCS(=O)(=O)C3)C2=O)ccc1O

>  <score_type>  (28) 
oracle

>  <origin>  (28) 
adg

>  <m_score__min__energy>  (28) 
-10.18

>  <m_primary>  (28) 
energy

$$$$
28:0
     RDKit          3D

 45 47  0  0  1  0  0  0  0  0999 V2000
   58.3210   33.4420   46.5810 C   0  0  0  0  0  0  0  0  0  0  0  0
   58.6370   33.7380   45.1160 C   0  0  0  0  0  0  0  0  0  0  0  0
   58.0140   32.6520   44.2880 C   0  0  0  0  0  0  0  0  0  0  0  0
   57.9940   32.7140   42.9050 C   0  0  0  0  0  0  0  0  0  0  0  0
   57.3900   31.6530   42.2370 C   0  0  0  0  0  0  0  0  0  0  0  0
   56.8310   30.5810   42.8860 C   0  0  0  0  0  0  0  0  0  0  0  0
   56.8570   30.5330   44.2690 C   0  0  0  0  0  0  0  0  0  0  0  0
   56.2760   29.4210   44.9400 N   0  0  0  0  0  0  0  0  0  0  0  0
   57.0440   28.6690   45.6530 C   0  0  0  0  0  0  0  0  0  0  0  0
   57.0880   27.3240   45.2720 C   0  0  0  0  0  0  0  0  0  0  0  0
   57.8970   26.4730   46.0050 C   0  0  0  0  0  0  0  0  0  0  0  0
   58.6010   26.9650   47.0430 N   0  0  0  0  0  0  0  0  0  0  0  0
   58.5580   28.2550   47.4090 C   0  0  0  0  0  0  0  0  0  0  0  0
   59.2600   28.6460   48.4120 N   0  0  0  0  0  0  0  0  0  0  0  0
   60.0890   29.8130   48.2340 C   0  0  0  0  0  0  0  0  0  0  0  0
   60.4970   30.1820   46.9560 C   0  0  0  0  0  0  0  0  0  0  0  0
   61.3020   31.3080   46.7540 C   0  0  0  0  0  0  0  0  0  0  0  0
   61.6960   32.0650   47.8620 C   0  0  0  0  0  0  0  0  0  0  0  0
   62.7050   33.4830   47.6390 S   0  0  0  0  0  0  0  0  0  0  0  0
   64.3710   33.1020   47.6840 N   0  0  0  0  0  0  0  0  0  0  0  0
   62.4340   34.4620   48.7570 O   0  0  0  0  0  0  0  0  0  0  0  0
   62.3450   34.1960   46.3630 O   0  0  0  0  0  0  0  0  0  0  0  0
   61.2820   31.6840   49.1240 C   0  0  0  0  0  0  0  0  0  0  0  0
   60.4860   30.5730   49.3410 C   0  0  0  0  0  0  0  0  0  0  0  0
   57.7650   29.1050   46.6950 N   0  0  0  0  0  0  0  0  0  0  0  0
   57.4500   31.5720   44.9640 C   0  0  0  0  0  0  0  0  0  0  0  0
   58.9710   34.0509   47.2266 H   0  0  0  0  0  0  0  0  0  0  0  0
   57.2682   33.6865   46.7857 H   0  0  0  0  0  0  0  0  0  0  0  0
   58.4962   32.3755   46.7857 H   0  0  0  0  0  0  0  0  0  0  0  0
   58.2169   34.7140   44.8316 H   0  0  0  0  0  0  0  0  0  0  0  0
   59.7246   33.7705   44.9547 H   0  0  0  0  0  0  0  0  0  0  0  0
   58.4347   33.5618   42.3600 H   0  0  0  0  0  0  0  0  0  0  0  0
   57.3593   31.6747   41.1376 H   0  0  0  0  0  0  0  0  0  0  0  0
   56.3659   29.7662   42.3117 H   0  0  0  0  0  0  0  0  0  0  0  0
   56.4997   26.9550   44.4189 H   0  0  0  0  0  0  0  0  0  0  0  0
   57.9644   25.4068   45.7429 H   0  0  0  0  0  0  0  0  0  0  0  0
   59.2010   26.2620   47.5620 H   0  0  0  0  0  0  0  0  0  0  0  0
   60.1818   29.5792   46.0915 H   0  0  0  0  0  0  0  0  0  0  0  0
   61.6199   31.5934   45.7403 H   0  0  0  0  0  0  0  0  0  0  0  0
   64.5800   32.2180   48.2120 H   0  0  0  0  0  0  0  0  0  0  0  0
   64.8220   33.1100   46.7430 H   0  0  0  0  0  0  0  0  0  0  0  0
   61.5970   32.2865   49.9887 H   0  0  0  0  0  0  0  0  0  0  0  0
   60.1729   30.2939   50.3579 H   0  0  0  0  0  0  0  0  0  0  0  0
   57.7140   30.1150   46.9600 H   0  0  0  0  0  0  0  0  0  0  0  0
   57.4765   31.5451   46.0634 H   0  0  0  0  0  0  0  0  0  0  0  0
  1  2  1  0
  2  3  1  0
  3  4  2  0
  4  5  1  0
  5  6  2  0
  6  7  1  0
  7  8  1  0
  8  9  2  0
  9 10  1  0
 10 11  2  0
 11 12  1  0
 12 13  1  0
 13 14  2  0
 14 15  1  0
 15 16  2  0
 16 17  1  0
 17 18  2  0
 18 19  1  0
 19 20  1  0
 19 21  2  0
 19 22  2  0
 18 23  1  0
 23 24  2  0
 13 25  1  0
  7 26  2  0
 26  3  1  0
 25  9  1  0
 24 15  1  0
  1 27  1  0
  1 28  1  0
  1 29  1  0
  2 30  1  0
  2 31  1  0
  4 32  1  0
  5 33  1  0
  6 34  1  0
 10 35  1  0
 11 36  1  0
 12 37  1  0
 16 38  1  0
 17 39  1  0
 20 40  1  0
 20 41  1  0
 23 42  1  0
 24 43  1  0
 25 44  1  0
 26 45  1  0
M  END
>  <smiles>  (29) 
CCc1cccc(N=c2cc[nH]c(=Nc3ccc(S(N)(=O)=O)cc3)[nH]2)c1

>  <score_type>  (29) 
oracle

>  <origin>  (29) 
adg

>  <m_score__min__energy>  (29) 
-9.2899999999999991

>  <m_primary>  (29) 
energy

$$$$
29:0
     RDKit          3D

 74 78  0  0  0  0  0  0  0  0999 V2000
   62.1070   32.3960   53.5400 C   0  0  0  0  0  0  0  0  0  0  0  0
   62.1370   32.5700   52.0280 C   0  0  0  0  0  0  0  0  0  0  0  0
   63.2450   32.0730   51.2730 C   0  0  0  0  0  0  0  0  0  0  0  0
   64.4520   31.3000   51.8340 C   0  0  1  0  0  0  0  0  0  0  0  0
   65.0390   30.4310   50.9010 O   0  0  0  0  0  0  0  0  0  0  0  0
   65.4620   32.2040   52.4630 N   0  0  0  0  0  0  0  0  0  0  0  0
   66.8210   31.6180   52.4500 C   0  0  0  0  0  0  0  0  0  0  0  0
   67.5160   31.7490   51.0710 C   0  0  0  0  0  0  0  0  0  0  0  0
   66.8500   32.6350   50.1910 O   0  0  0  0  0  0  0  0  0  0  0  0
   66.5410   33.8350   50.8610 C   0  0  0  0  0  0  0  0  0  0  0  0
   65.4760   33.6010   51.9500 C   0  0  0  0  0  0  0  0  0  0  0  0
   63.2600   32.2880   49.8910 C   0  0  0  0  0  0  0  0  0  0  0  0
   62.2590   33.0130   49.2600 C   0  0  0  0  0  0  0  0  0  0  0  0
   62.3800   33.3280   47.7820 C   0  0  0  0  0  0  0  0  0  0  0  0
   61.4060   32.5080   46.9710 C   0  0  0  0  0  0  0  0  0  0  0  0
   61.6470   31.2800   46.8020 O   0  0  0  0  0  0  0  0  0  0  0  0
   60.1880   33.0730   46.4430 N   0  0  0  0  0  0  0  0  0  0  0  0
   58.9680   32.2510   46.4910 C   0  0  0  0  0  0  0  0  0  0  0  0
   57.8240   32.8520   45.6670 C   0  0  0  0  0  0  0  0  0  0  0  0
   57.7470   34.2490   45.8450 O   0  0  0  0  0  0  0  0  0  0  0  0
   58.8860   34.8420   45.2650 C   0  0  0  0  0  0  0  0  0  0  0  0
   60.1410   34.4980   46.0730 C   0  0  0  0  0  0  0  0  0  0  0  0
   61.1730   33.4670   50.0180 C   0  0  0  0  0  0  0  0  0  0  0  0
   60.2280   34.0620   49.4250 O   0  0  0  0  0  0  0  0  0  0  0  0
   61.1290   33.2750   51.3810 N   0  0  0  0  0  0  0  0  0  0  0  0
   59.9920   33.8560   52.1360 C   0  0  0  0  0  0  0  0  0  0  0  0
   58.8460   32.8800   52.2840 C   0  0  0  0  0  0  0  0  0  0  0  0
   58.4510   32.4680   53.5650 C   0  0  0  0  0  0  0  0  0  0  0  0
   57.3950   31.5670   53.7280 C   0  0  0  0  0  0  0  0  0  0  0  0
   56.7020   31.0690   52.6110 C   0  0  0  0  0  0  0  0  0  0  0  0
   55.5890   30.0970   52.7870 C   0  0  0  0  0  0  0  0  0  0  0  0
   54.3150   30.3610   52.2470 C   0  0  0  0  0  0  0  0  0  0  0  0
   53.2690   29.4480   52.4090 C   0  0  0  0  0  0  0  0  0  0  0  0
   53.4810   28.2590   53.1120 C   0  0  0  0  0  0  0  0  0  0  0  0
   54.7390   27.9850   53.6540 C   0  0  0  0  0  0  0  0  0  0  0  0
   55.7900   28.8950   53.4930 C   0  0  0  0  0  0  0  0  0  0  0  0
   57.0800   31.5080   51.3280 C   0  0  0  0  0  0  0  0  0  0  0  0
   58.1340   32.4110   51.1670 C   0  0  0  0  0  0  0  0  0  0  0  0
   62.2748   33.3692   54.0245 H   0  0  0  0  0  0  0  0  0  0  0  0
   61.1272   31.9991   53.8440 H   0  0  0  0  0  0  0  0  0  0  0  0
   62.8973   31.6939   53.8440 H   0  0  0  0  0  0  0  0  0  0  0  0
   64.0458   30.6602   52.6313 H   0  0  0  0  0  0  0  0  0  0  0  0
   65.4380   30.9960   50.1880 H   0  0  0  0  0  0  0  0  0  0  0  0
   65.1970   32.2680   53.4770 H   0  0  0  0  0  0  0  0  0  0  0  0
   67.4340   32.1343   53.2034 H   0  0  0  0  0  0  0  0  0  0  0  0
   66.7222   30.5451   52.6715 H   0  0  0  0  0  0  0  0  0  0  0  0
   68.5399   32.1183   51.2296 H   0  0  0  0  0  0  0  0  0  0  0  0
   67.5026   30.7535   50.6032 H   0  0  0  0  0  0  0  0  0  0  0  0
   67.4540   34.2306   51.3299 H   0  0  0  0  0  0  0  0  0  0  0  0
   66.1419   34.5524   50.1289 H   0  0  0  0  0  0  0  0  0  0  0  0
   65.6799   34.2805   52.7907 H   0  0  0  0  0  0  0  0  0  0  0  0
   64.4934   33.7926   51.4941 H   0  0  0  0  0  0  0  0  0  0  0  0
   64.0834   31.8732   49.2911 H   0  0  0  0  0  0  0  0  0  0  0  0
   62.1697   34.3960   47.6237 H   0  0  0  0  0  0  0  0  0  0  0  0
   63.4011   33.0828   47.4546 H   0  0  0  0  0  0  0  0  0  0  0  0
   59.2003   31.2511   46.0957 H   0  0  0  0  0  0  0  0  0  0  0  0
   58.6370   32.2041   47.5390 H   0  0  0  0  0  0  0  0  0  0  0  0
   57.9959   32.6348   44.6024 H   0  0  0  0  0  0  0  0  0  0  0  0
   56.8779   32.4048   46.0060 H   0  0  0  0  0  0  0  0  0  0  0  0
   59.0041   34.4693   44.2368 H   0  0  0  0  0  0  0  0  0  0  0  0
   58.7547   35.9341   45.2601 H   0  0  0  0  0  0  0  0  0  0  0  0
   61.0285   34.7371   45.4688 H   0  0  0  0  0  0  0  0  0  0  0  0
   60.1191   35.0885   47.0008 H   0  0  0  0  0  0  0  0  0  0  0  0
   60.3427   34.1450   53.1377 H   0  0  0  0  0  0  0  0  0  0  0  0
   59.6234   34.7269   51.5741 H   0  0  0  0  0  0  0  0  0  0  0  0
   58.9769   32.8573   54.4492 H   0  0  0  0  0  0  0  0  0  0  0  0
   57.1038   31.2450   54.7387 H   0  0  0  0  0  0  0  0  0  0  0  0
   54.1416   31.2949   51.6923 H   0  0  0  0  0  0  0  0  0  0  0  0
   52.2785   29.6656   51.9829 H   0  0  0  0  0  0  0  0  0  0  0  0
   52.6583   27.5398   53.2384 H   0  0  0  0  0  0  0  0  0  0  0  0
   54.9042   27.0501   54.2096 H   0  0  0  0  0  0  0  0  0  0  0  0
   56.7784   28.6702   53.9202 H   0  0  0  0  0  0  0  0  0  0  0  0
   56.5406   31.1367   50.4441 H   0  0  0  0  0  0  0  0  0  0  0  0
   58.4082   32.7570   50.1595 H   0  0  0  0  0  0  0  0  0  0  0  0
  1  2  1  0
  2  3  2  0
  3  4  1  0
  4  5  1  0
  4  6  1  0
  6  7  1  0
  7  8  1  0
  8  9  1  0
  9 10  1  0
 10 11  1  0
  3 12  1  0
 12 13  2  0
 13 14  1  0
 14 15  1  0
 15 16  2  0
 15 17  1  0
 17 18  1  0
 18 19  1  0
 19 20  1  0
 20 21  1  0
 21 22  1  0
 13 23  1  0
 23 24  2  0
 23 25  1  0
 25 26  1  0
 26 27  1  0
 27 28  2  0
 28 29  1  0
 29 30  2  0
 30 31  1  0
 31 32  2  0
 32 33  1  0
 33 34  2  0
 34 35  1  0
 35 36  2  0
 30 37  1  0
 37 38  2  0
 25  2  1  0
 38 27  1  0
 11  6  1  0
 22 17  1  0
 36 31  1  0
  1 39  1  0
  1 40  1  0
  1 41  1  0
  4 42  1  1
  5 43  1  0
  6 44  1  0
  7 45  1  0
  7 46  1  0
  8 47  1  0
  8 48  1  0
 10 49  1  0
 10 50  1  0
 11 51  1  0
 11 52  1  0
 12 53  1  0
 14 54  1  0
 14 55  1  0
 18 56  1  0
 18 57  1  0
 19 58  1  0
 19 59  1  0
 21 60  1  0
 21 61  1  0
 22 62  1  0
 22 63  1  0
 26 64  1  0
 26 65  1  0
 28 66  1  0
 29 67  1  0
 32 68  1  0
 33 69  1  0
 34 70  1  0
 35 71  1  0
 36 72  1  0
 37 73  1  0
 38 74  1  0
M  CHG  1   6   1
M  END
>  <UniqueID>  (30) 
29

>  <SMILES>  (30) 
Cc1c([C@@H](O)[NH+]2CCOCC2)cc(CC(=O)N2CCOCC2)c(=O)n1Cc1ccc(-c2ccccc2)cc1

>  <Energy>  (30) 
119.31418005377111

>  <Genealogy>  (30) 
Cc1c(C(O)[NH+]2CCOCC2)cc(CC(=O)N2CCOCC2)c(=O)n1Cc1ccc(-c2ccccc2)cc1 (protonated)
Cc1c([C@@H](O)[NH+]2CCOCC2)cc(CC(=O)N2CCOCC2)c(=O)n1Cc1ccc(-c2ccccc2)cc1 (chirality)
Cc1c([C@@H](O)[NH+]2CCOCC2)cc(CC(=O)N2CCOCC2)c(=O)n1Cc1ccc(-c2ccccc2)cc1 (3D coordinates assigned)
Cc1c([C@@H](O)[NH+]2CCOCC2)cc(CC(=O)N2CCOCC2)c(=O)n1Cc1ccc(-c2ccccc2)cc1 (nonaromatic ring conformer: 119.31418005377111 kcal/mol)

>  <smiles>  (30) 
Cc1c(C(O)N2CCOCC2)cc(CC(=O)N2CCOCC2)c(=O)n1Cc1ccc(-c2ccccc2)cc1

>  <score_type>  (30) 
oracle

>  <origin>  (30) 
adg

>  <m_score__min__energy>  (30) 
-8.1600000000000001

>  <m_primary>  (30) 
energy

$$$$
30:0
     RDKit          3D

 47 49  0  0  0  0  0  0  0  0999 V2000
   60.9736   27.5793   48.3906 H   0  0  0  0  0  0  0  0  0  0  0  0
   60.3740   28.0590   47.6030 C   0  0  0  0  0  0  0  0  0  0  0  0
   59.6410   29.2180   47.8790 C   0  0  0  0  0  0  0  0  0  0  0  0
   59.6260   29.7970   49.2570 C   0  0  0  0  0  0  0  0  0  0  0  0
   59.6471   28.9833   49.9969 H   0  0  0  0  0  0  0  0  0  0  0  0
   60.5078   30.4402   49.3941 H   0  0  0  0  0  0  0  0  0  0  0  0
   58.7121   30.3936   49.3941 H   0  0  0  0  0  0  0  0  0  0  0  0
   58.8910   29.7890   46.8990 N   0  0  0  0  0  0  0  0  0  0  0  0
   58.8390   29.2960   45.6310 C   0  0  0  0  0  0  0  0  0  0  0  0
   58.0780   29.9050   44.7670 N   0  0  0  0  0  0  0  0  0  0  0  0
   56.6820   30.2320   44.8660 C   0  0  0  0  0  0  0  0  0  0  0  0
   55.8080   29.3260   44.8860 O   0  0  0  0  0  0  0  0  0  0  0  0
   56.2590   31.6010   44.8680 N   0  0  0  0  0  0  0  0  0  0  0  0
   57.1060   32.7630   45.1490 C   0  0  2  0  0  0  0  0  0  0  0  0
   56.4925   33.6710   45.0539 H   0  0  0  0  0  0  0  0  0  0  0  0
   58.2340   32.8800   44.1080 C   0  0  0  0  0  0  0  0  0  0  0  0
   58.7735   31.9230   44.0535 H   0  0  0  0  0  0  0  0  0  0  0  0
   57.7868   33.1271   43.1338 H   0  0  0  0  0  0  0  0  0  0  0  0
   59.2220   33.9920   44.4880 C   0  0  0  0  0  0  0  0  0  0  0  0
   60.1230   33.8853   43.8661 H   0  0  0  0  0  0  0  0  0  0  0  0
   58.7113   34.9515   44.3192 H   0  0  0  0  0  0  0  0  0  0  0  0
   59.6460   33.9560   45.9760 C   0  0  0  0  0  0  0  0  0  0  0  0
   60.7442   33.9232   46.0287 H   0  0  0  0  0  0  0  0  0  0  0  0
   59.2435   34.8585   46.4591 H   0  0  0  0  0  0  0  0  0  0  0  0
   59.1020   32.7830   46.6940 N   0  0  1  0  0  0  0  0  0  0  0  0
   59.4690   31.9230   46.2230 H   0  0  0  0  0  0  0  0  0  0  0  0
   59.5990   32.6910   48.0920 C   0  0  0  0  0  0  0  0  0  0  0  0
   59.0809   33.4537   48.6919 H   0  0  0  0  0  0  0  0  0  0  0  0
   59.3930   31.6649   48.4307 H   0  0  0  0  0  0  0  0  0  0  0  0
   61.0950   32.9040   48.2430 C   0  0  0  0  0  0  0  0  0  0  0  0
   61.5770   33.9030   49.1080 C   0  0  0  0  0  0  0  0  0  0  0  0
   60.8679   34.5311   49.6671 H   0  0  0  0  0  0  0  0  0  0  0  0
   62.9520   34.1020   49.2610 C   0  0  0  0  0  0  0  0  0  0  0  0
   63.3209   34.8923   49.9313 H   0  0  0  0  0  0  0  0  0  0  0  0
   63.8580   33.3000   48.5650 C   0  0  0  0  0  0  0  0  0  0  0  0
   64.9396   33.4595   48.6860 H   0  0  0  0  0  0  0  0  0  0  0  0
   63.3910   32.2950   47.7150 C   0  0  0  0  0  0  0  0  0  0  0  0
   64.1066   31.6631   47.1686 H   0  0  0  0  0  0  0  0  0  0  0  0
   62.0170   32.0890   47.5560 C   0  0  0  0  0  0  0  0  0  0  0  0
   61.5900   31.0910   46.7410 F   0  0  0  0  0  0  0  0  0  0  0  0
   57.6220   32.7590   46.6170 C   0  0  0  0  0  0  0  0  0  0  0  0
   57.2566   31.8503   47.1178 H   0  0  0  0  0  0  0  0  0  0  0  0
   57.2451   33.6682   47.1083 H   0  0  0  0  0  0  0  0  0  0  0  0
   59.5680   28.1270   45.3250 C   0  0  0  0  0  0  0  0  0  0  0  0
   59.5312   27.6990   44.3123 H   0  0  0  0  0  0  0  0  0  0  0  0
   60.3360   27.5190   46.3190 C   0  0  0  0  0  0  0  0  0  0  0  0
   60.9128   26.6112   46.0883 H   0  0  0  0  0  0  0  0  0  0  0  0
  1  2  1  0
  2  3  2  0
  3  4  1  0
  4  5  1  0
  4  6  1  0
  4  7  1  0
  3  8  1  0
  8  9  1  0
  9 10  2  0
 10 11  1  0
 11 12  2  0
 11 13  1  0
 13 14  1  0
 14 15  1  1
 14 16  1  0
 16 17  1  0
 16 18  1  0
 16 19  1  0
 19 20  1  0
 19 21  1  0
 19 22  1  0
 22 23  1  0
 22 24  1  0
 22 25  1  0
 25 26  1  6
 25 27  1  0
 27 28  1  0
 27 29  1  0
 27 30  1  0
 30 31  2  0
 31 32  1  0
 31 33  1  0
 33 34  1  0
 33 35  2  0
 35 36  1  0
 35 37  1  0
 37 38  1  0
 37 39  2  0
 39 40  1  0
 25 41  1  0
 41 42  1  0
 41 43  1  0
  9 44  1  0
 44 45  1  0
 44 46  2  0
 46 47  1  0
 46  2  1  0
 41 14  1  0
 39 30  1  0
M  CHG  3   8  -1  13  -1  25   1
M  END
>  <UniqueID>  (31) 
30

>  <SMILES>  (31) 
Cc1ccc/c(=N\C(=O)[N-][C@@H]2CCC[N@@H+](Cc3ccccc3F)C2)[n-]1

>  <Energy>  (31) 
63.78658912756146

>  <Genealogy>  (31) 
Cc1cccc(=NC(=O)[N-]C2CCC[NH+](Cc3ccccc3F)C2)[n-]1 (protonated)
Cc1cccc(=NC(=O)[N-][C@@H]2CCC[N@@H+](Cc3ccccc3F)C2)[n-]1 (chirality)
Cc1ccc/c(=N\C(=O)[N-][C@@H]2CCC[N@@H+](Cc3ccccc3F)C2)[n-]1 (cis-trans isomerization)
Cc1ccc/c(=N\C(=O)[N-][C@@H]2CCC[N@@H+](Cc3ccccc3F)C2)[n-]1 (3D coordinates assigned)
Cc1ccc/c(=N\C(=O)[N-][C@@H]2CCC[N@@H+](Cc3ccccc3F)C2)[n-]1 (nonaromatic ring conformer: 63.78658912756146 kcal/mol)

>  <smiles>  (31) 
Cc1cccc(=NC(=O)NC2CCCN(Cc3ccccc3F)C2)[nH]1

>  <score_type>  (31) 
oracle

>  <origin>  (31) 
adg

>  <m_score__min__energy>  (31) 
-8.75

>  <m_primary>  (31) 
energy

$$$$
31:0
     RDKit          3D

 57 60  0  0  0  0  0  0  0  0999 V2000
   56.0980   31.5730   50.8330 H   0  0  0  0  0  0  0  0  0  0  0  0
   57.0250   31.2420   51.1850 N   0  0  0  0  0  0  0  0  0  0  0  0
   57.9400   32.0710   51.5760 C   0  0  0  0  0  0  0  0  0  0  0  0
   57.5930   33.1120   52.3810 N   0  0  0  0  0  0  0  0  0  0  0  0
   58.4980   34.0250   52.8140 C   0  0  0  0  0  0  0  0  0  0  0  0
   58.1757   34.8522   53.4635 H   0  0  0  0  0  0  0  0  0  0  0  0
   59.8330   33.9170   52.4380 C   0  0  0  0  0  0  0  0  0  0  0  0
   60.5642   34.6657   52.7769 H   0  0  0  0  0  0  0  0  0  0  0  0
   60.2430   32.8510   51.6260 C   0  0  0  0  0  0  0  0  0  0  0  0
   61.6750   32.7440   51.2790 C   0  0  0  0  0  0  0  0  0  0  0  0
   62.4560   31.7930   51.9560 C   0  0  0  0  0  0  0  0  0  0  0  0
   61.9843   31.1188   52.6860 H   0  0  0  0  0  0  0  0  0  0  0  0
   63.7880   31.7000   51.7160 N   0  0  0  0  0  0  0  0  0  0  0  0
   64.4110   32.5120   50.8260 C   0  0  0  0  0  0  0  0  0  0  0  0
   65.4939   32.4150   50.6590 H   0  0  0  0  0  0  0  0  0  0  0  0
   63.6810   33.4700   50.1220 C   0  0  0  0  0  0  0  0  0  0  0  0
   64.1909   34.1380   49.4122 H   0  0  0  0  0  0  0  0  0  0  0  0
   62.3000   33.5810   50.3190 C   0  0  0  0  0  0  0  0  0  0  0  0
   61.6180   34.5480   49.5610 O   0  0  0  0  0  0  0  0  0  0  0  0
   60.9060   34.3120   48.3410 C   0  0  2  0  0  0  0  0  0  0  0  0
   60.8640   35.2441   47.7585 H   0  0  0  0  0  0  0  0  0  0  0  0
   59.4610   33.8730   48.6330 C   0  0  0  0  0  0  0  0  0  0  0  0
   59.4828   32.9632   49.2508 H   0  0  0  0  0  0  0  0  0  0  0  0
   58.9526   34.6945   49.1590 H   0  0  0  0  0  0  0  0  0  0  0  0
   58.6800   33.5770   47.3330 C   0  0  0  0  0  0  0  0  0  0  0  0
   58.1236   32.6364   47.4587 H   0  0  0  0  0  0  0  0  0  0  0  0
   57.9977   34.4193   47.1459 H   0  0  0  0  0  0  0  0  0  0  0  0
   59.5800   33.4480   46.1660 N   0  0  0  0  0  0  0  0  0  0  0  0
   58.8680   33.0950   44.9160 C   0  0  0  0  0  0  0  0  0  0  0  0
   58.1710   33.9103   44.6722 H   0  0  0  0  0  0  0  0  0  0  0  0
   59.6352   32.9500   44.1411 H   0  0  0  0  0  0  0  0  0  0  0  0
   58.0800   31.8030   45.0030 C   0  0  0  0  0  0  0  0  0  0  0  0
   58.4200   30.8250   45.9530 C   0  0  0  0  0  0  0  0  0  0  0  0
   59.2611   30.9993   46.6401 H   0  0  0  0  0  0  0  0  0  0  0  0
   57.6950   29.6310   46.0300 C   0  0  0  0  0  0  0  0  0  0  0  0
   57.9725   28.8674   46.7716 H   0  0  0  0  0  0  0  0  0  0  0  0
   56.6190   29.4060   45.1670 C   0  0  0  0  0  0  0  0  0  0  0  0
   55.9090   28.2100   45.2510 O   0  0  0  0  0  0  0  0  0  0  0  0
   56.2060   27.3820   44.7510 H   0  0  0  0  0  0  0  0  0  0  0  0
   56.2630   30.3830   44.2270 C   0  0  0  0  0  0  0  0  0  0  0  0
   55.4127   30.2101   43.5509 H   0  0  0  0  0  0  0  0  0  0  0  0
   56.9860   31.5760   44.1470 C   0  0  0  0  0  0  0  0  0  0  0  0
   56.6987   32.3417   43.4113 H   0  0  0  0  0  0  0  0  0  0  0  0
   60.7250   32.5680   46.4640 C   0  0  0  0  0  0  0  0  0  0  0  0
   60.3538   31.6083   46.8528 H   0  0  0  0  0  0  0  0  0  0  0  0
   61.2998   32.4030   45.5408 H   0  0  0  0  0  0  0  0  0  0  0  0
   61.6480   33.2270   47.5230 C   0  0  1  0  0  0  0  0  0  0  0  0
   61.9560   32.4312   48.2172 H   0  0  0  0  0  0  0  0  0  0  0  0
   62.9030   33.8250   46.8680 C   0  0  0  0  0  0  0  0  0  0  0  0
   63.6015   34.1578   47.6499 H   0  0  0  0  0  0  0  0  0  0  0  0
   63.3893   33.0618   46.2426 H   0  0  0  0  0  0  0  0  0  0  0  0
   62.6166   34.6834   46.2426 H   0  0  0  0  0  0  0  0  0  0  0  0
   59.2880   31.9070   51.1740 C   0  0  0  0  0  0  0  0  0  0  0  0
   59.6970   30.7930   50.2340 C   0  0  0  0  0  0  0  0  0  0  0  0
   60.0180   29.9187   50.8193 H   0  0  0  0  0  0  0  0  0  0  0  0
   58.8420   30.5159   49.5999 H   0  0  0  0  0  0  0  0  0  0  0  0
   60.5282   31.1350   49.5999 H   0  0  0  0  0  0  0  0  0  0  0  0
  1  2  1  0
  2  3  2  0
  3  4  1  0
  4  5  1  0
  5  6  1  0
  5  7  2  0
  7  8  1  0
  7  9  1  0
  9 10  1  0
 10 11  2  0
 11 12  1  0
 11 13  1  0
 13 14  2  0
 14 15  1  0
 14 16  1  0
 16 17  1  0
 16 18  2  0
 18 19  1  0
 19 20  1  0
 20 21  1  6
 20 22  1  0
 22 23  1  0
 22 24  1  0
 22 25  1  0
 25 26  1  0
 25 27  1  0
 25 28  1  0
 28 29  1  0
 29 30  1  0
 29 31  1  0
 29 32  1  0
 32 33  2  0
 33 34  1  0
 33 35  1  0
 35 36  1  0
 35 37  2  0
 37 38  1  0
 38 39  1  0
 37 40  1  0
 40 41  1  0
 40 42  2  0
 42 43  1  0
 28 44  1  0
 44 45  1  0
 44 46  1  0
 44 47  1  0
 47 48  1  1
 47 49  1  0
 49 50  1  0
 49 51  1  0
 49 52  1  0
  9 53  2  0
 53 54  1  0
 54 55  1  0
 54 56  1  0
 54 57  1  0
 53  3  1  0
 18 10  1  0
 47 20  1  0
 42 32  1  0
M  CHG  1   4  -1
M  END
>  <UniqueID>  (32) 
31

>  <SMILES>  (32) 
[H]/N=c1\[n-]ccc(-c2cnccc2O[C@@H]2CCN(Cc3ccc(O)cc3)C[C@H]2C)c1C

>  <Energy>  (32) 
81.47642864810369

>  <Genealogy>  (32) 
Cc1c(-c2cnccc2OC2CCN(Cc3ccc(O)cc3)CC2C)cc[n-]c1=N (protonated)
Cc1c(-c2cnccc2O[C@@H]2CCN(Cc3ccc(O)cc3)C[C@H]2C)cc[n-]c1=N (chirality)
[H]/N=c1\[n-]ccc(-c2cnccc2O[C@@H]2CCN(Cc3ccc(O)cc3)C[C@H]2C)c1C (cis-trans isomerization)
[H]/N=c1\[n-]ccc(-c2cnccc2O[C@@H]2CCN(Cc3ccc(O)cc3)C[C@H]2C)c1C (3D coordinates assigned)
[H]/N=c1\[n-]ccc(-c2cnccc2O[C@@H]2CCN(Cc3ccc(O)cc3)C[C@H]2C)c1C (nonaromatic ring conformer: 81.47642864810369 kcal/mol)

>  <smiles>  (32) 
Cc1c(-c2cnccc2OC2CCN(Cc3ccc(O)cc3)CC2C)cc[nH]c1=N

>  <score_type>  (32) 
oracle

>  <origin>  (32) 
adg

>  <m_score__min__energy>  (32) 
-10.35

>  <m_primary>  (32) 
energy

$$$$
32:0
     RDKit          3D

 39 41  0  0  0  0  0  0  0  0999 V2000
   58.8594   35.2589   44.1911 H   0  0  0  0  0  0  0  0  0  0  0  0
   59.1290   34.6850   45.0900 C   0  0  0  0  0  0  0  0  0  0  0  0
   59.3240   33.3440   45.0060 N   0  0  0  0  0  0  0  0  0  0  0  0
   59.6680   32.5780   46.0770 C   0  0  0  0  0  0  0  0  0  0  0  0
   59.7390   31.2860   45.8860 N   0  0  0  0  0  0  0  0  0  0  0  0
   58.6800   30.3220   45.8070 C   0  0  0  0  0  0  0  0  0  0  0  0
   57.6070   30.5020   44.9210 C   0  0  0  0  0  0  0  0  0  0  0  0
   57.5665   31.3993   44.2860 H   0  0  0  0  0  0  0  0  0  0  0  0
   56.5890   29.5470   44.8410 C   0  0  0  0  0  0  0  0  0  0  0  0
   55.2290   29.8200   43.7640 Cl  0  0  0  0  0  0  0  0  0  0  0  0
   56.6570   28.3850   45.6240 C   0  0  0  0  0  0  0  0  0  0  0  0
   55.6430   27.4360   45.5530 O   0  0  0  0  0  0  0  0  0  0  0  0
   57.7530   28.1800   46.4760 C   0  0  0  0  0  0  0  0  0  0  0  0
   57.8650   26.7250   47.4530 Cl  0  0  0  0  0  0  0  0  0  0  0  0
   58.7670   29.1410   46.5550 C   0  0  0  0  0  0  0  0  0  0  0  0
   59.6359   28.9683   47.2071 H   0  0  0  0  0  0  0  0  0  0  0  0
   59.9040   33.2210   47.3300 C   0  0  0  0  0  0  0  0  0  0  0  0
   60.5450   32.5650   48.4860 C   0  0  0  0  0  0  0  0  0  0  0  0
   60.4770   33.1040   49.6240 O   0  0  0  0  0  0  0  0  0  0  0  0
   61.2180   31.3090   48.3230 N   0  0  0  0  0  0  0  0  0  0  0  0
   61.2610   30.8750   47.3730 H   0  0  0  0  0  0  0  0  0  0  0  0
   61.9450   30.6610   49.4130 C   0  0  0  0  0  0  0  0  0  0  0  0
   61.3201   30.6645   50.3182 H   0  0  0  0  0  0  0  0  0  0  0  0
   62.1800   29.6269   49.1207 H   0  0  0  0  0  0  0  0  0  0  0  0
   63.2300   31.3940   49.6940 C   0  0  0  0  0  0  0  0  0  0  0  0
   63.6510   32.4120   48.8230 C   0  0  0  0  0  0  0  0  0  0  0  0
   63.0337   32.6764   47.9518 H   0  0  0  0  0  0  0  0  0  0  0  0
   64.8500   33.0910   49.0570 C   0  0  0  0  0  0  0  0  0  0  0  0
   65.1732   33.8872   48.3703 H   0  0  0  0  0  0  0  0  0  0  0  0
   65.6390   32.7600   50.1620 C   0  0  0  0  0  0  0  0  0  0  0  0
   66.5812   33.2970   50.3462 H   0  0  0  0  0  0  0  0  0  0  0  0
   65.2300   31.7460   51.0330 C   0  0  0  0  0  0  0  0  0  0  0  0
   65.8527   31.4852   51.9015 H   0  0  0  0  0  0  0  0  0  0  0  0
   64.0320   31.0620   50.8040 C   0  0  0  0  0  0  0  0  0  0  0  0
   63.6590   30.0790   51.6630 F   0  0  0  0  0  0  0  0  0  0  0  0
   59.6640   34.6000   47.4300 C   0  0  0  0  0  0  0  0  0  0  0  0
   59.7878   35.1065   48.3986 H   0  0  0  0  0  0  0  0  0  0  0  0
   59.2700   35.3330   46.3120 C   0  0  0  0  0  0  0  0  0  0  0  0
   59.0728   36.4120   46.3955 H   0  0  0  0  0  0  0  0  0  0  0  0
  1  2  1  0
  2  3  1  0
  3  4  1  0
  4  5  2  0
  5  6  1  0
  6  7  2  0
  7  8  1  0
  7  9  1  0
  9 10  1  0
  9 11  2  0
 11 12  1  0
 11 13  1  0
 13 14  1  0
 13 15  2  0
 15 16  1  0
  4 17  1  0
 17 18  1  0
 18 19  2  0
 18 20  1  0
 20 21  1  0
 20 22  1  0
 22 23  1  0
 22 24  1  0
 22 25  1  0
 25 26  2  0
 26 27  1  0
 26 28  1  0
 28 29  1  0
 28 30  2  0
 30 31  1  0
 30 32  1  0
 32 33  1  0
 32 34  2  0
 34 35  1  0
 17 36  2  0
 36 37  1  0
 36 38  1  0
 38 39  1  0
 38  2  2  0
 15  6  1  0
 34 25  1  0
M  CHG  2   3  -1  12  -1
M  END
>  <UniqueID>  (33) 
32

>  <SMILES>  (33) 
O=C(NCc1ccccc1F)c1ccc[n-]/c1=N/c1cc(Cl)c([O-])c(Cl)c1

>  <Energy>  (33) 
60.31668561720523

>  <Genealogy>  (33) 
O=C(NCc1ccccc1F)c1ccc[n-]c1=Nc1cc(Cl)c([O-])c(Cl)c1 (protonated)
O=C(NCc1ccccc1F)c1ccc[n-]/c1=N/c1cc(Cl)c([O-])c(Cl)c1 (cis-trans isomerization)
O=C(NCc1ccccc1F)c1ccc[n-]/c1=N/c1cc(Cl)c([O-])c(Cl)c1 (3D coordinates assigned)
O=C(NCc1ccccc1F)c1ccc[n-]/c1=N/c1cc(Cl)c([O-])c(Cl)c1 (optimized conformer: 60.31668561720523 kcal/mol)

>  <smiles>  (33) 
O=C(NCc1ccccc1F)c1ccc[nH]c1=Nc1cc(Cl)c(O)c(Cl)c1

>  <score_type>  (33) 
oracle

>  <origin>  (33) 
adg

>  <m_score__min__energy>  (33) 
-11.1

>  <m_primary>  (33) 
energy

$$$$
33:0
     RDKit          3D

 50 53  0  0  0  0  0  0  0  0999 V2000
   57.1900   33.7050   45.2110 C   0  0  0  0  0  0  0  0  0  0  0  0
   57.1610   32.1830   45.2860 C   0  0  0  0  0  0  0  0  0  0  0  0
   58.4330   31.6610   45.7870 N   0  0  0  0  0  0  0  0  0  0  0  0
   58.4960   30.3930   46.4500 C   0  0  0  0  0  0  0  0  0  0  0  0
   59.3350   30.1400   47.5350 C   0  0  0  0  0  0  0  0  0  0  0  0
   60.1040   31.1100   48.2590 N   0  0  0  0  0  0  0  0  0  0  0  0
   60.0260   32.5340   48.1370 C   0  0  0  0  0  0  0  0  0  0  0  0
   59.1200   33.1450   47.5110 O   0  0  0  0  0  0  0  0  0  0  0  0
   61.1330   33.1590   48.8490 C   0  0  0  0  0  0  0  0  0  0  0  0
   61.4630   34.5000   49.0170 C   0  0  0  0  0  0  0  0  0  0  0  0
   62.6170   34.8110   49.7590 C   0  0  0  0  0  0  0  0  0  0  0  0
   63.4220   33.7820   50.3160 C   0  0  0  0  0  0  0  0  0  0  0  0
   64.6350   34.1180   51.0920 C   0  0  0  0  0  0  0  0  0  0  0  0
   64.5700   34.8970   52.0790 O   0  0  0  0  0  0  0  0  0  0  0  0
   65.8670   33.5750   50.7420 O   0  0  0  0  0  0  0  0  0  0  0  0
   63.0570   32.4310   50.1220 C   0  0  0  0  0  0  0  0  0  0  0  0
   61.9060   32.1550   49.3870 C   0  0  0  0  0  0  0  0  0  0  0  0
   61.2980   30.8820   49.0170 C   0  0  0  0  0  0  0  0  0  0  0  0
   61.7800   29.7440   49.2640 O   0  0  0  0  0  0  0  0  0  0  0  0
   59.2560   28.5100   47.9210 S   0  0  0  0  0  0  0  0  0  0  0  0
   58.1380   28.0950   46.7330 C   0  0  0  0  0  0  0  0  0  0  0  0
   57.5850   26.7380   46.5910 C   0  0  0  0  0  0  0  0  0  0  0  0
   57.8180   25.8890   47.4930 O   0  0  0  0  0  0  0  0  0  0  0  0
   56.7680   26.3950   45.4580 N   0  0  0  0  0  0  0  0  0  0  0  0
   56.2110   25.0880   45.2370 C   0  0  0  0  0  0  0  0  0  0  0  0
   55.2750   24.5330   46.1290 C   0  0  0  0  0  0  0  0  0  0  0  0
   54.7250   23.2710   45.8800 C   0  0  0  0  0  0  0  0  0  0  0  0
   55.0930   22.5600   44.7360 C   0  0  0  0  0  0  0  0  0  0  0  0
   56.0040   23.1130   43.8330 C   0  0  0  0  0  0  0  0  0  0  0  0
   56.5560   24.3750   44.0750 C   0  0  0  0  0  0  0  0  0  0  0  0
   57.4410   24.8960   43.1890 F   0  0  0  0  0  0  0  0  0  0  0  0
   57.8220   29.2410   45.9840 C   0  0  0  0  0  0  0  0  0  0  0  0
   57.0030   29.2240   44.7500 C   0  0  0  0  0  0  0  0  0  0  0  0
   55.5870   29.0700   44.8270 N   0  0  0  0  0  0  0  0  0  0  0  0
   57.5510   29.3220   43.6200 O   0  0  0  0  0  0  0  0  0  0  0  0
   57.1979   34.1222   46.2288 H   0  0  0  0  0  0  0  0  0  0  0  0
   58.0945   34.0285   44.6750 H   0  0  0  0  0  0  0  0  0  0  0  0
   56.2985   34.0628   44.6750 H   0  0  0  0  0  0  0  0  0  0  0  0
   56.3520   31.8710   45.9628 H   0  0  0  0  0  0  0  0  0  0  0  0
   56.9910   31.7843   44.2750 H   0  0  0  0  0  0  0  0  0  0  0  0
   59.2820   32.2690   45.7910 H   0  0  0  0  0  0  0  0  0  0  0  0
   60.8392   35.2947   48.5819 H   0  0  0  0  0  0  0  0  0  0  0  0
   62.8992   35.8635   49.9096 H   0  0  0  0  0  0  0  0  0  0  0  0
   63.6667   31.6169   50.5410 H   0  0  0  0  0  0  0  0  0  0  0  0
   56.6220   27.1130   44.7140 H   0  0  0  0  0  0  0  0  0  0  0  0
   54.9744   25.0939   47.0262 H   0  0  0  0  0  0  0  0  0  0  0  0
   54.0015   22.8382   46.5865 H   0  0  0  0  0  0  0  0  0  0  0  0
   54.6655   21.5645   44.5459 H   0  0  0  0  0  0  0  0  0  0  0  0
   56.2880   22.5543   42.9290 H   0  0  0  0  0  0  0  0  0  0  0  0
   55.1410   28.6190   45.6560 H   0  0  0  0  0  0  0  0  0  0  0  0
  1  2  1  0
  2  3  1  0
  3  4  1  0
  4  5  2  0
  5  6  1  0
  6  7  1  0
  7  8  2  0
  7  9  1  0
  9 10  2  0
 10 11  1  0
 11 12  2  0
 12 13  1  0
 13 14  2  0
 13 15  1  0
 12 16  1  0
 16 17  2  0
 17 18  1  0
 18 19  2  0
  5 20  1  0
 20 21  1  0
 21 22  1  0
 22 23  2  0
 22 24  1  0
 24 25  1  0
 25 26  2  0
 26 27  1  0
 27 28  2  0
 28 29  1  0
 29 30  2  0
 30 31  1  0
 21 32  2  0
 32 33  1  0
 33 34  1  0
 33 35  2  0
 32  4  1  0
 18  6  1  0
 30 25  1  0
 17  9  1  0
  1 36  1  0
  1 37  1  0
  1 38  1  0
  2 39  1  0
  2 40  1  0
  3 41  1  0
 10 42  1  0
 11 43  1  0
 16 44  1  0
 24 45  1  0
 26 46  1  0
 27 47  1  0
 28 48  1  0
 29 49  1  0
 34 50  1  0
M  CHG  2  15  -1  34  -1
M  END
>  <UniqueID>  (34) 
33

>  <SMILES>  (34) 
CCNc1c(N2C(=O)c3ccc(C(=O)[O-])cc3C2=O)sc(C(=O)Nc2ccccc2F)c1C([NH-])=O

>  <Energy>  (34) 
129.40351475105257

>  <Genealogy>  (34) 
CCNc1c(N2C(=O)c3ccc(C(=O)[O-])cc3C2=O)sc(C(=O)Nc2ccccc2F)c1C([NH-])=O (protonated)
CCNc1c(N2C(=O)c3ccc(C(=O)[O-])cc3C2=O)sc(C(=O)Nc2ccccc2F)c1C([NH-])=O (3D coordinates assigned)
CCNc1c(N2C(=O)c3ccc(C(=O)[O-])cc3C2=O)sc(C(=O)Nc2ccccc2F)c1C([NH-])=O (nonaromatic ring conformer: 129.40351475105257 kcal/mol)

>  <smiles>  (34) 
CCNc1c(N2C(=O)c3ccc(C(=O)O)cc3C2=O)sc(C(=O)Nc2ccccc2F)c1C(N)=O

>  <score_type>  (34) 
oracle

>  <origin>  (34) 
adg

>  <m_score__min__energy>  (34) 
-12.550000000000001

>  <m_primary>  (34) 
energy

$$$$
34:0
     RDKit          3D

 50 52  0  0  0  0  0  0  0  0999 V2000
   62.5220   30.0080   50.8550 C   0  0  0  0  0  0  0  0  0  0  0  0
   62.8400   31.3970   50.4050 C   0  0  0  0  0  0  0  0  0  0  0  0
   64.0430   31.7680   50.3510 O   0  0  0  0  0  0  0  0  0  0  0  0
   61.7840   32.2600   49.9550 N   0  0  0  0  0  0  0  0  0  0  0  0
   61.9730   33.6270   49.5450 C   0  0  0  0  0  0  0  0  0  0  0  0
   63.0380   34.5900   50.3410 S   0  0  0  0  0  0  0  0  0  0  0  0
   61.0510   34.2330   48.6270 N   0  0  0  0  0  0  0  0  0  0  0  0
   60.2890   33.4830   47.6680 C   0  0  0  0  0  0  0  0  0  0  0  0
   59.1260   34.0420   47.1150 C   0  0  0  0  0  0  0  0  0  0  0  0
   58.3560   33.3130   46.2030 C   0  0  0  0  0  0  0  0  0  0  0  0
   58.7530   32.0220   45.8200 C   0  0  0  0  0  0  0  0  0  0  0  0
   57.7550   31.0550   44.7390 S   0  0  0  0  0  0  0  0  0  0  0  0
   56.3130   31.4690   44.8340 O   0  0  0  0  0  0  0  0  0  0  0  0
   58.2330   31.2630   43.3290 O   0  0  0  0  0  0  0  0  0  0  0  0
   57.8970   29.3620   45.1980 C   0  0  0  0  0  0  0  0  0  0  0  0
   57.8070   28.9980   46.5480 C   0  0  0  0  0  0  0  0  0  0  0  0
   57.9550   27.6630   46.9310 C   0  0  0  0  0  0  0  0  0  0  0  0
   58.1870   26.6700   45.9620 C   0  0  0  0  0  0  0  0  0  0  0  0
   58.3590   25.2900   46.3120 N   0  0  0  0  0  0  0  0  0  0  0  0
   57.0750   24.1370   46.4790 S   0  0  0  0  0  0  0  0  0  0  0  0
   55.7900   24.8660   46.7540 O   0  0  0  0  0  0  0  0  0  0  0  0
   57.3760   23.2280   47.6380 O   0  0  0  0  0  0  0  0  0  0  0  0
   56.8980   23.2170   44.9880 C   0  0  0  0  0  0  0  0  0  0  0  0
   56.0210   23.6500   43.9810 C   0  0  0  0  0  0  0  0  0  0  0  0
   55.8960   22.9160   42.7970 C   0  0  0  0  0  0  0  0  0  0  0  0
   56.6440   21.7500   42.6130 C   0  0  0  0  0  0  0  0  0  0  0  0
   57.5150   21.3120   43.6150 C   0  0  0  0  0  0  0  0  0  0  0  0
   57.6430   22.0450   44.8000 C   0  0  0  0  0  0  0  0  0  0  0  0
   58.2620   27.0350   44.6130 C   0  0  0  0  0  0  0  0  0  0  0  0
   58.1190   28.3730   44.2310 C   0  0  0  0  0  0  0  0  0  0  0  0
   59.9340   31.4780   46.3390 C   0  0  0  0  0  0  0  0  0  0  0  0
   60.7010   32.2030   47.2530 C   0  0  0  0  0  0  0  0  0  0  0  0
   62.5137   29.9716   51.9544 H   0  0  0  0  0  0  0  0  0  0  0  0
   61.5336   29.7154   50.4709 H   0  0  0  0  0  0  0  0  0  0  0  0
   63.2846   29.3145   50.4709 H   0  0  0  0  0  0  0  0  0  0  0  0
   60.8310   31.8450   49.8470 H   0  0  0  0  0  0  0  0  0  0  0  0
   60.8870   35.2640   48.6930 H   0  0  0  0  0  0  0  0  0  0  0  0
   58.8187   35.0589   47.4005 H   0  0  0  0  0  0  0  0  0  0  0  0
   57.4379   33.7518   45.7852 H   0  0  0  0  0  0  0  0  0  0  0  0
   57.6187   29.7680   47.3106 H   0  0  0  0  0  0  0  0  0  0  0  0
   57.8899   27.3872   47.9939 H   0  0  0  0  0  0  0  0  0  0  0  0
   55.4314   24.5677   44.1233 H   0  0  0  0  0  0  0  0  0  0  0  0
   55.2079   23.2570   42.0095 H   0  0  0  0  0  0  0  0  0  0  0  0
   56.5474   21.1765   41.6793 H   0  0  0  0  0  0  0  0  0  0  0  0
   58.0996   20.3913   43.4718 H   0  0  0  0  0  0  0  0  0  0  0  0
   58.3305   21.7002   45.5864 H   0  0  0  0  0  0  0  0  0  0  0  0
   58.4347   26.2641   43.8476 H   0  0  0  0  0  0  0  0  0  0  0  0
   58.1810   28.6494   43.1681 H   0  0  0  0  0  0  0  0  0  0  0  0
   60.2590   30.4750   46.0253 H   0  0  0  0  0  0  0  0  0  0  0  0
   61.6316   31.7717   47.6505 H   0  0  0  0  0  0  0  0  0  0  0  0
  1  2  1  0
  2  3  2  0
  2  4  1  0
  4  5  1  0
  5  6  2  0
  5  7  1  0
  7  8  1  0
  8  9  2  0
  9 10  1  0
 10 11  2  0
 11 12  1  0
 12 13  2  0
 12 14  2  0
 12 15  1  0
 15 16  2  0
 16 17  1  0
 17 18  2  0
 18 19  1  0
 19 20  1  0
 20 21  2  0
 20 22  2  0
 20 23  1  0
 23 24  2  0
 24 25  1  0
 25 26  2  0
 26 27  1  0
 27 28  2  0
 18 29  1  0
 29 30  2  0
 11 31  1  0
 31 32  2  0
 32  8  1  0
 30 15  1  0
 28 23  1  0
  1 33  1  0
  1 34  1  0
  1 35  1  0
  4 36  1  0
  7 37  1  0
  9 38  1  0
 10 39  1  0
 16 40  1  0
 17 41  1  0
 24 42  1  0
 25 43  1  0
 26 44  1  0
 27 45  1  0
 28 46  1  0
 29 47  1  0
 30 48  1  0
 31 49  1  0
 32 50  1  0
M  CHG  1  19  -1
M  END
>  <UniqueID>  (35) 
34

>  <SMILES>  (35) 
CC(=O)NC(=S)Nc1ccc(S(=O)(=O)c2ccc([N-]S(=O)(=O)c3ccccc3)cc2)cc1

>  <Energy>  (35) 
59.87982644767898

>  <Genealogy>  (35) 
CC(=O)NC(=S)Nc1ccc(S(=O)(=O)c2ccc([N-]S(=O)(=O)c3ccccc3)cc2)cc1 (protonated)
CC(=O)NC(=S)Nc1ccc(S(=O)(=O)c2ccc([N-]S(=O)(=O)c3ccccc3)cc2)cc1 (3D coordinates assigned)
CC(=O)NC(=S)Nc1ccc(S(=O)(=O)c2ccc([N-]S(=O)(=O)c3ccccc3)cc2)cc1 (optimized conformer: 59.87982644767898 kcal/mol)

>  <smiles>  (35) 
CC(=O)NC(=S)Nc1ccc(S(=O)(=O)c2ccc(NS(=O)(=O)c3ccccc3)cc2)cc1

>  <score_type>  (35) 
oracle

>  <origin>  (35) 
adg

>  <m_score__min__energy>  (35) 
-11.34

>  <m_primary>  (35) 
energy

$$$$
35:0
     RDKit          3D

 52 54  0  0  0  0  0  0  0  0999 V2000
   63.3540   33.8580   45.9960 C   0  0  0  0  0  0  0  0  0  0  0  0
   62.7730   33.2460   47.5610 S   0  0  0  0  0  0  0  0  0  0  0  0
   63.4360   31.9260   47.8490 O   0  0  0  0  0  0  0  0  0  0  0  0
   63.1340   34.2160   48.6510 O   0  0  0  0  0  0  0  0  0  0  0  0
   61.0180   33.0530   47.5070 C   0  0  0  0  0  0  0  0  0  0  0  0
   60.2690   33.7580   46.5550 C   0  0  0  0  0  0  0  0  0  0  0  0
   58.8780   33.5800   46.4700 C   0  0  0  0  0  0  0  0  0  0  0  0
   58.0840   34.2920   45.4070 C   0  0  0  0  0  0  0  0  0  0  0  0
   57.1710   33.3810   44.7290 N   0  0  0  0  0  0  0  0  0  0  0  0
   57.5890   32.1860   44.0580 C   0  0  0  0  0  0  0  0  0  0  0  0
   58.3530   32.2670   43.0530 O   0  0  0  0  0  0  0  0  0  0  0  0
   57.1410   30.8510   44.5430 C   0  0  0  0  0  0  0  0  0  0  0  0
   55.8010   30.4630   44.3840 C   0  0  0  0  0  0  0  0  0  0  0  0
   55.3990   29.2210   44.7630 N   0  0  0  0  0  0  0  0  0  0  0  0
   56.2760   28.3330   45.3000 C   0  0  0  0  0  0  0  0  0  0  0  0
   55.8830   27.1780   45.6320 O   0  0  0  0  0  0  0  0  0  0  0  0
   57.5770   28.6850   45.4690 N   0  0  0  0  0  0  0  0  0  0  0  0
   58.0300   29.9140   45.1110 C   0  0  0  0  0  0  0  0  0  0  0  0
   59.2500   30.1880   45.2730 O   0  0  0  0  0  0  0  0  0  0  0  0
   58.2350   32.7180   47.3680 C   0  0  0  0  0  0  0  0  0  0  0  0
   58.9730   32.0320   48.3360 C   0  0  0  0  0  0  0  0  0  0  0  0
   60.3710   32.1840   48.4080 C   0  0  0  0  0  0  0  0  0  0  0  0
   61.1460   31.4840   49.3450 O   0  0  0  0  0  0  0  0  0  0  0  0
   60.8910   31.4370   50.7460 C   0  0  0  0  0  0  0  0  0  0  0  0
   62.1300   31.8530   51.4800 C   0  0  0  0  0  0  0  0  0  0  0  0
   62.2180   31.6190   52.6770 O   0  0  0  0  0  0  0  0  0  0  0  0
   63.2270   32.4930   50.7810 N   0  0  0  0  0  0  0  0  0  0  0  0
   64.3770   31.5680   50.7080 C   0  0  0  0  0  0  0  0  0  0  0  0
   65.6580   32.3150   50.2850 C   0  0  0  0  0  0  0  0  0  0  0  0
   65.9650   33.4890   51.0340 O   0  0  0  0  0  0  0  0  0  0  0  0
   64.9860   33.8100   52.0050 C   0  0  0  0  0  0  0  0  0  0  0  0
   63.5690   33.8020   51.4030 C   0  0  0  0  0  0  0  0  0  0  0  0
   64.1023   34.6462   46.1655 H   0  0  0  0  0  0  0  0  0  0  0  0
   63.8109   33.0348   45.4272 H   0  0  0  0  0  0  0  0  0  0  0  0
   62.5082   34.2716   45.4272 H   0  0  0  0  0  0  0  0  0  0  0  0
   60.7735   34.4552   45.8699 H   0  0  0  0  0  0  0  0  0  0  0  0
   57.5023   35.0998   45.8750 H   0  0  0  0  0  0  0  0  0  0  0  0
   58.7854   34.6981   44.6632 H   0  0  0  0  0  0  0  0  0  0  0  0
   55.0742   31.1663   43.9514 H   0  0  0  0  0  0  0  0  0  0  0  0
   57.1451   32.5808   47.3108 H   0  0  0  0  0  0  0  0  0  0  0  0
   58.4584   31.3686   49.0467 H   0  0  0  0  0  0  0  0  0  0  0  0
   60.0672   32.1223   50.9944 H   0  0  0  0  0  0  0  0  0  0  0  0
   60.6100   30.4147   51.0393 H   0  0  0  0  0  0  0  0  0  0  0  0
   62.9230   32.6780   49.7960 H   0  0  0  0  0  0  0  0  0  0  0  0
   64.5357   31.1120   51.6964 H   0  0  0  0  0  0  0  0  0  0  0  0
   64.1580   30.7935   49.9582 H   0  0  0  0  0  0  0  0  0  0  0  0
   66.5039   31.6191   50.3856 H   0  0  0  0  0  0  0  0  0  0  0  0
   65.4803   32.6550   49.2540 H   0  0  0  0  0  0  0  0  0  0  0  0
   65.0330   33.0703   52.8178 H   0  0  0  0  0  0  0  0  0  0  0  0
   65.1942   34.8218   52.3831 H   0  0  0  0  0  0  0  0  0  0  0  0
   62.8438   34.0141   52.2024 H   0  0  0  0  0  0  0  0  0  0  0  0
   63.5337   34.5687   50.6150 H   0  0  0  0  0  0  0  0  0  0  0  0
  1  2  1  0
  2  3  2  0
  2  4  2  0
  2  5  1  0
  5  6  2  0
  6  7  1  0
  7  8  1  0
  8  9  1  0
  9 10  1  0
 10 11  2  0
 10 12  1  0
 12 13  2  0
 13 14  1  0
 14 15  1  0
 15 16  2  0
 15 17  1  0
 17 18  1  0
 18 19  2  0
  7 20  2  0
 20 21  1  0
 21 22  2  0
 22 23  1  0
 23 24  1  0
 24 25  1  0
 25 26  2  0
 25 27  1  0
 27 28  1  0
 28 29  1  0
 29 30  1  0
 30 31  1  0
 31 32  1  0
 22  5  1  0
 32 27  1  0
 18 12  1  0
  1 33  1  0
  1 34  1  0
  1 35  1  0
  6 36  1  0
  8 37  1  0
  8 38  1  0
 13 39  1  0
 20 40  1  0
 21 41  1  0
 24 42  1  0
 24 43  1  0
 27 44  1  0
 28 45  1  0
 28 46  1  0
 29 47  1  0
 29 48  1  0
 31 49  1  0
 31 50  1  0
 32 51  1  0
 32 52  1  0
M  CHG  4   9  -1  14  -1  17  -1  27   1
M  END
>  <UniqueID>  (36) 
35

>  <SMILES>  (36) 
CS(=O)(=O)c1cc(C[N-]C(=O)c2c[n-]c(=O)[n-]c2=O)ccc1OCC(=O)[NH+]1CCOCC1

>  <Energy>  (36) 
66.05501518142594

>  <Genealogy>  (36) 
CS(=O)(=O)c1cc(C[N-]C(=O)c2c[n-]c(=O)[n-]c2=O)ccc1OCC(=O)[NH+]1CCOCC1 (protonated)
CS(=O)(=O)c1cc(C[N-]C(=O)c2c[n-]c(=O)[n-]c2=O)ccc1OCC(=O)[NH+]1CCOCC1 (3D coordinates assigned)
CS(=O)(=O)c1cc(C[N-]C(=O)c2c[n-]c(=O)[n-]c2=O)ccc1OCC(=O)[NH+]1CCOCC1 (nonaromatic ring conformer: 66.05501518142594 kcal/mol)

>  <smiles>  (36) 
CS(=O)(=O)c1cc(CNC(=O)c2c[nH]c(=O)[nH]c2=O)ccc1OCC(=O)N1CCOCC1

>  <score_type>  (36) 
oracle

>  <origin>  (36) 
adg

>  <m_score__min__energy>  (36) 
-12.91

>  <m_primary>  (36) 
energy

$$$$
36:0
     RDKit          3D

 58 60  0  0  0  0  0  0  0  0999 V2000
   59.7110   26.0940   46.2960 C   0  0  0  0  0  0  0  0  0  0  0  0
   59.9540   27.4400   46.9060 C   0  0  0  0  0  0  0  0  0  0  0  0
   60.8870   27.5610   47.7430 O   0  0  0  0  0  0  0  0  0  0  0  0
   59.1250   28.6200   46.5620 C   0  0  0  0  0  0  0  0  0  0  0  0
   58.9290   29.7790   47.3100 C   0  0  0  0  0  0  0  0  0  0  0  0
   59.5180   30.1030   48.6490 C   0  0  0  0  0  0  0  0  0  0  0  0
   58.1450   30.6410   46.6350 N   0  0  0  0  0  0  0  0  0  0  0  0
   57.8370   30.0650   45.4580 C   0  0  0  0  0  0  0  0  0  0  0  0
   56.9860   30.7120   44.4390 C   0  0  0  0  0  0  0  0  0  0  0  0
   55.7570   30.4370   44.4090 O   0  0  0  0  0  0  0  0  0  0  0  0
   57.5320   31.6620   43.4980 N   0  0  0  0  0  0  0  0  0  0  0  0
   57.1710   31.5880   42.0780 C   0  0  0  0  0  0  0  0  0  0  0  0
   58.3040   32.8130   43.9870 C   0  0  0  0  0  0  0  0  0  0  0  0
   57.8000   33.2770   45.3330 C   0  0  0  0  0  0  0  0  0  0  0  0
   56.6670   32.9790   45.6870 O   0  0  0  0  0  0  0  0  0  0  0  0
   58.6300   34.1100   46.1830 N   0  0  0  0  0  0  0  0  0  0  0  0
   58.5570   33.6220   47.5830 C   0  0  0  0  0  0  0  0  0  0  0  0
   59.7240   34.1420   48.4290 C   0  0  0  0  0  0  0  0  0  0  0  0
   61.0020   33.7290   47.8350 N   0  0  0  0  0  0  0  0  0  0  0  0
   62.1820   33.5980   48.6600 C   0  0  0  0  0  0  0  0  0  0  0  0
   63.2960   32.8620   48.2080 C   0  0  0  0  0  0  0  0  0  0  0  0
   64.4390   32.7420   49.0030 C   0  0  0  0  0  0  0  0  0  0  0  0
   64.4870   33.3530   50.2580 C   0  0  0  0  0  0  0  0  0  0  0  0
   63.3910   34.0860   50.7200 C   0  0  0  0  0  0  0  0  0  0  0  0
   62.2450   34.2100   49.9280 C   0  0  0  0  0  0  0  0  0  0  0  0
   61.0400   33.3800   46.4070 C   0  0  0  0  0  0  0  0  0  0  0  0
   60.0110   34.2160   45.6330 C   0  0  0  0  0  0  0  0  0  0  0  0
   58.4120   28.8030   45.3800 C   0  0  0  0  0  0  0  0  0  0  0  0
   58.3830   27.8690   44.2050 C   0  0  0  0  0  0  0  0  0  0  0  0
   59.5765   25.3488   47.0938 H   0  0  0  0  0  0  0  0  0  0  0  0
   58.8052   26.1319   45.6731 H   0  0  0  0  0  0  0  0  0  0  0  0
   60.5729   25.8127   45.6731 H   0  0  0  0  0  0  0  0  0  0  0  0
   58.8501   29.7356   49.4420 H   0  0  0  0  0  0  0  0  0  0  0  0
   60.5011   29.6187   48.7440 H   0  0  0  0  0  0  0  0  0  0  0  0
   59.6353   31.1926   48.7440 H   0  0  0  0  0  0  0  0  0  0  0  0
   57.8240   31.5770   46.9700 H   0  0  0  0  0  0  0  0  0  0  0  0
   56.0974   31.3679   41.9836 H   0  0  0  0  0  0  0  0  0  0  0  0
   57.3921   32.5501   41.5928 H   0  0  0  0  0  0  0  0  0  0  0  0
   57.7528   30.7904   41.5928 H   0  0  0  0  0  0  0  0  0  0  0  0
   59.3609   32.5226   44.0803 H   0  0  0  0  0  0  0  0  0  0  0  0
   58.1904   33.6387   43.2692 H   0  0  0  0  0  0  0  0  0  0  0  0
   58.2260   35.0770   46.1840 H   0  0  0  0  0  0  0  0  0  0  0  0
   57.6124   33.9647   48.0306 H   0  0  0  0  0  0  0  0  0  0  0  0
   58.6108   32.5235   47.5652 H   0  0  0  0  0  0  0  0  0  0  0  0
   59.6810   35.2403   48.4720 H   0  0  0  0  0  0  0  0  0  0  0  0
   59.6471   33.7241   49.4436 H   0  0  0  0  0  0  0  0  0  0  0  0
   63.2653   32.3778   47.2208 H   0  0  0  0  0  0  0  0  0  0  0  0
   65.3024   32.1653   48.6397 H   0  0  0  0  0  0  0  0  0  0  0  0
   65.3875   33.2571   50.8825 H   0  0  0  0  0  0  0  0  0  0  0  0
   63.4295   34.5666   51.7087 H   0  0  0  0  0  0  0  0  0  0  0  0
   61.3862   34.7896   50.2976 H   0  0  0  0  0  0  0  0  0  0  0  0
   62.0457   33.5816   46.0097 H   0  0  0  0  0  0  0  0  0  0  0  0
   60.7988   32.3131   46.2902 H   0  0  0  0  0  0  0  0  0  0  0  0
   60.3207   35.2709   45.6686 H   0  0  0  0  0  0  0  0  0  0  0  0
   59.9824   33.8262   44.6048 H   0  0  0  0  0  0  0  0  0  0  0  0
   58.3507   26.8296   44.5636 H   0  0  0  0  0  0  0  0  0  0  0  0
   57.4908   28.0744   43.5953 H   0  0  0  0  0  0  0  0  0  0  0  0
   59.2862   28.0187   43.5953 H   0  0  0  0  0  0  0  0  0  0  0  0
  1  2  1  0
  2  3  2  0
  2  4  1  0
  4  5  2  0
  5  6  1  0
  5  7  1  0
  7  8  1  0
  8  9  1  0
  9 10  2  0
  9 11  1  0
 11 12  1  0
 11 13  1  0
 13 14  1  0
 14 15  2  0
 14 16  1  0
 16 17  1  0
 17 18  1  0
 18 19  1  0
 19 20  1  0
 20 21  2  0
 21 22  1  0
 22 23  2  0
 23 24  1  0
 24 25  2  0
 19 26  1  0
 26 27  1  0
  8 28  2  0
 28 29  1  0
 28  4  1  0
 27 16  1  0
 25 20  1  0
  1 30  1  0
  1 31  1  0
  1 32  1  0
  6 33  1  0
  6 34  1  0
  6 35  1  0
  7 36  1  0
 12 37  1  0
 12 38  1  0
 12 39  1  0
 13 40  1  0
 13 41  1  0
 16 42  1  0
 17 43  1  0
 17 44  1  0
 18 45  1  0
 18 46  1  0
 21 47  1  0
 22 48  1  0
 23 49  1  0
 24 50  1  0
 25 51  1  0
 26 52  1  0
 26 53  1  0
 27 54  1  0
 27 55  1  0
 29 56  1  0
 29 57  1  0
 29 58  1  0
M  CHG  1  16   1
M  END
>  <UniqueID>  (37) 
36

>  <SMILES>  (37) 
CC(=O)c1c(C)[nH]c(C(=O)N(C)CC(=O)[NH+]2CCN(c3ccccc3)CC2)c1C

>  <Energy>  (37) 
98.69573525594052

>  <Genealogy>  (37) 
CC(=O)c1c(C)[nH]c(C(=O)N(C)CC(=O)[NH+]2CCN(c3ccccc3)CC2)c1C (protonated)
CC(=O)c1c(C)[nH]c(C(=O)N(C)CC(=O)[NH+]2CCN(c3ccccc3)CC2)c1C (3D coordinates assigned)
CC(=O)c1c(C)[nH]c(C(=O)N(C)CC(=O)[NH+]2CCN(c3ccccc3)CC2)c1C (nonaromatic ring conformer: 98.69573525594052 kcal/mol)

>  <smiles>  (37) 
CC(=O)c1c(C)[nH]c(C(=O)N(C)CC(=O)N2CCN(c3ccccc3)CC2)c1C

>  <score_type>  (37) 
oracle

>  <origin>  (37) 
adg

>  <m_score__min__energy>  (37) 
-7.4400000000000004

>  <m_primary>  (37) 
energy

$$$$
37:0
     RDKit          3D

 29 30  0  0  0  0  0  0  0  0999 V2000
   59.9930   36.3490   46.0360 N   0  0  0  0  0  0  0  0  0  0  0  0
   60.1760   34.8130   46.8070 S   0  0  0  0  0  0  0  0  0  0  0  0
   59.8080   34.9310   48.2600 O   0  0  0  0  0  0  0  0  0  0  0  0
   61.6110   34.3800   46.6880 O   0  0  0  0  0  0  0  0  0  0  0  0
   59.1260   33.6300   46.0340 C   0  0  0  0  0  0  0  0  0  0  0  0
   58.6160   33.8770   44.7530 C   0  0  0  0  0  0  0  0  0  0  0  0
   57.7770   32.9430   44.1380 C   0  0  0  0  0  0  0  0  0  0  0  0
   57.4210   31.7620   44.8010 C   0  0  0  0  0  0  0  0  0  0  0  0
   56.5730   30.8230   44.1250 N   0  0  0  0  0  0  0  0  0  0  0  0
   56.2120   29.5140   44.5830 C   0  0  0  0  0  0  0  0  0  0  0  0
   55.1360   29.3230   45.2100 O   0  0  0  0  0  0  0  0  0  0  0  0
   57.0660   28.3460   44.2100 C   0  0  0  0  0  0  0  0  0  0  0  0
   57.3630   27.5470   45.3980 N   0  0  0  0  0  0  0  0  0  0  0  0
   56.5110   26.7990   46.1170 C   0  0  0  0  0  0  0  0  0  0  0  0
   55.1450   26.7050   45.8800 O   0  0  0  0  0  0  0  0  0  0  0  0
   57.2050   26.1410   47.1060 C   0  0  0  0  0  0  0  0  0  0  0  0
   58.5140   26.4600   47.0100 N   0  0  0  0  0  0  0  0  0  0  0  0
   58.5660   27.3080   45.9590 C   0  0  0  0  0  0  0  0  0  0  0  0
   59.6410   27.8160   45.5430 O   0  0  0  0  0  0  0  0  0  0  0  0
   57.9490   31.5080   46.0810 C   0  0  0  0  0  0  0  0  0  0  0  0
   58.7890   32.4430   46.6950 C   0  0  0  0  0  0  0  0  0  0  0  0
   59.6340   37.0120   46.7580 H   0  0  0  0  0  0  0  0  0  0  0  0
   58.8764   34.8086   44.2293 H   0  0  0  0  0  0  0  0  0  0  0  0
   57.3935   33.1373   43.1255 H   0  0  0  0  0  0  0  0  0  0  0  0
   56.5328   27.7239   43.4760 H   0  0  0  0  0  0  0  0  0  0  0  0
   58.0078   28.7106   43.7741 H   0  0  0  0  0  0  0  0  0  0  0  0
   56.7652   25.4647   47.8538 H   0  0  0  0  0  0  0  0  0  0  0  0
   57.7001   30.5708   46.6003 H   0  0  0  0  0  0  0  0  0  0  0  0
   59.1863   32.2447   47.7014 H   0  0  0  0  0  0  0  0  0  0  0  0
  1  2  1  0
  2  3  2  0
  2  4  2  0
  2  5  1  0
  5  6  2  0
  6  7  1  0
  7  8  2  0
  8  9  1  0
  9 10  1  0
 10 11  2  0
 10 12  1  0
 12 13  1  0
 13 14  1  0
 14 15  1  0
 14 16  2  0
 16 17  1  0
 17 18  1  0
 18 19  2  0
  8 20  1  0
 20 21  2  0
 21  5  1  0
 18 13  1  0
  1 22  1  0
  6 23  1  0
  7 24  1  0
 12 25  1  0
 12 26  1  0
 16 27  1  0
 20 28  1  0
 21 29  1  0
M  CHG  4   1  -1   9  -1  15  -1  17  -1
M  END
>  <UniqueID>  (38) 
37

>  <SMILES>  (38) 
[NH-]S(=O)(=O)c1ccc([N-]C(=O)Cn2c([O-])c[n-]c2=O)cc1

>  <Energy>  (38) 
62.87834397141781

>  <Genealogy>  (38) 
[NH-]S(=O)(=O)c1ccc([N-]C(=O)Cn2c([O-])c[n-]c2=O)cc1 (protonated)
[NH-]S(=O)(=O)c1ccc([N-]C(=O)Cn2c([O-])c[n-]c2=O)cc1 (3D coordinates assigned)
[NH-]S(=O)(=O)c1ccc([N-]C(=O)Cn2c([O-])c[n-]c2=O)cc1 (optimized conformer: 62.87834397141781 kcal/mol)

>  <smiles>  (38) 
NS(=O)(=O)c1ccc(NC(=O)Cn2c(O)c[nH]c2=O)cc1

>  <score_type>  (38) 
oracle

>  <origin>  (38) 
adg

>  <m_score__min__energy>  (38) 
-14.77

>  <m_primary>  (38) 
energy

$$$$
38:0
     RDKit          3D

 43 45  0  0  0  0  0  0  0  0999 V2000
   54.7850   27.0980   45.1740 H   0  0  0  0  0  0  0  0  0  0  0  0
   54.9960   26.2750   45.7240 O   0  0  0  0  0  0  0  0  0  0  0  0
   54.4400   25.0430   45.3890 C   0  0  0  0  0  0  0  0  0  0  0  0
   53.2670   24.5950   45.8680 N   0  0  0  0  0  0  0  0  0  0  0  0
   53.1860   23.3570   45.3390 C   0  0  0  0  0  0  0  0  0  0  0  0
   52.2250   22.5790   45.5780 O   0  0  0  0  0  0  0  0  0  0  0  0
   54.2310   23.0050   44.5580 N   0  0  0  0  0  0  0  0  0  0  0  0
   55.0150   24.1020   44.5690 C   0  0  0  0  0  0  0  0  0  0  0  0
   56.3690   24.1900   43.9810 C   0  0  0  0  0  0  0  0  0  0  0  0
   56.4898   23.8181   42.9529 H   0  0  0  0  0  0  0  0  0  0  0  0
   57.4710   24.6830   44.5850 C   0  0  0  0  0  0  0  0  0  0  0  0
   57.8150   26.0420   44.4230 C   0  0  0  0  0  0  0  0  0  0  0  0
   57.2944   26.7132   43.7242 H   0  0  0  0  0  0  0  0  0  0  0  0
   58.8720   26.4560   45.2270 C   0  0  0  0  0  0  0  0  0  0  0  0
   59.4030   27.8530   45.3210 C   0  0  0  0  0  0  0  0  0  0  0  0
   60.4650   27.8168   45.6054 H   0  0  0  0  0  0  0  0  0  0  0  0
   59.2852   28.3416   44.3425 H   0  0  0  0  0  0  0  0  0  0  0  0
   58.6310   28.6580   46.3670 C   0  0  0  0  0  0  0  0  0  0  0  0
   58.8408   28.2538   47.3683 H   0  0  0  0  0  0  0  0  0  0  0  0
   58.9447   29.7114   46.3225 H   0  0  0  0  0  0  0  0  0  0  0  0
   57.2010   28.5660   46.0960 N   0  0  0  0  0  0  0  0  0  0  0  0
   56.5120   29.4860   45.2460 C   0  0  0  0  0  0  0  0  0  0  0  0
   55.3130   29.2720   44.9190 O   0  0  0  0  0  0  0  0  0  0  0  0
   57.1880   30.6220   44.7820 O   0  0  0  0  0  0  0  0  0  0  0  0
   56.6380   31.9390   44.8400 C   0  0  0  0  0  0  0  0  0  0  0  0
   56.3913   32.2740   43.8217 H   0  0  0  0  0  0  0  0  0  0  0  0
   55.7307   31.9199   45.4617 H   0  0  0  0  0  0  0  0  0  0  0  0
   57.6280   32.8940   45.4500 C   0  0  0  0  0  0  0  0  0  0  0  0
   57.7930   32.9350   46.8440 C   0  0  0  0  0  0  0  0  0  0  0  0
   57.1878   32.2789   47.4869 H   0  0  0  0  0  0  0  0  0  0  0  0
   58.7240   33.8070   47.4180 C   0  0  0  0  0  0  0  0  0  0  0  0
   58.8504   33.8342   48.5104 H   0  0  0  0  0  0  0  0  0  0  0  0
   59.4940   34.6440   46.6050 C   0  0  0  0  0  0  0  0  0  0  0  0
   60.2256   35.3291   47.0582 H   0  0  0  0  0  0  0  0  0  0  0  0
   59.3350   34.6110   45.2180 C   0  0  0  0  0  0  0  0  0  0  0  0
   59.9410   35.2708   44.5797 H   0  0  0  0  0  0  0  0  0  0  0  0
   58.4050   33.7390   44.6390 C   0  0  0  0  0  0  0  0  0  0  0  0
   58.2821   33.7152   43.5461 H   0  0  0  0  0  0  0  0  0  0  0  0
   59.4440   25.1410   46.0980 S   0  0  0  0  0  0  0  0  0  0  0  0
   58.3640   24.0130   45.4600 C   0  0  0  0  0  0  0  0  0  0  0  0
   58.5250   22.6970   45.6440 C   0  0  0  0  0  0  0  0  0  0  0  0
   57.8015   21.9889   45.2137 H   0  0  0  0  0  0  0  0  0  0  0  0
   59.3808   22.3236   46.2255 H   0  0  0  0  0  0  0  0  0  0  0  0
  1  2  1  0
  2  3  1  0
  3  4  1  0
  4  5  1  0
  5  6  2  0
  5  7  1  0
  7  8  1  0
  8  9  1  0
  9 10  1  0
  9 11  2  0
 11 12  1  0
 12 13  1  0
 12 14  2  0
 14 15  1  0
 15 16  1  0
 15 17  1  0
 15 18  1  0
 18 19  1  0
 18 20  1  0
 18 21  1  0
 21 22  1  0
 22 23  2  0
 22 24  1  0
 24 25  1  0
 25 26  1  0
 25 27  1  0
 25 28  1  0
 28 29  2  0
 29 30  1  0
 29 31  1  0
 31 32  1  0
 31 33  2  0
 33 34  1  0
 33 35  1  0
 35 36  1  0
 35 37  2  0
 37 38  1  0
 14 39  1  0
 39 40  1  0
 40 41  2  0
 41 42  1  0
 41 43  1  0
  8  3  2  0
 40 11  1  0
 37 28  1  0
M  CHG  3   4  -1   7  -1  21  -1
M  END
>  <UniqueID>  (39) 
38

>  <SMILES>  (39) 
C=c1sc(CC[N-]C(=O)OCc2ccccc2)c/c1=C/c1[n-]c(=O)[n-]c1O

>  <Energy>  (39) 
106.24041626645078

>  <Genealogy>  (39) 
C=c1sc(CC[N-]C(=O)OCc2ccccc2)cc1=Cc1[n-]c(=O)[n-]c1O (protonated)
C=c1sc(CC[N-]C(=O)OCc2ccccc2)c/c1=C/c1[n-]c(=O)[n-]c1O (cis-trans isomerization)
C=c1sc(CC[N-]C(=O)OCc2ccccc2)c/c1=C/c1[n-]c(=O)[n-]c1O (3D coordinates assigned)
C=c1sc(CC[N-]C(=O)OCc2ccccc2)c/c1=C/c1[n-]c(=O)[n-]c1O (optimized conformer: 106.24041626645078 kcal/mol)

>  <smiles>  (39) 
C=c1sc(CCNC(=O)OCc2ccccc2)cc1=Cc1[nH]c(=O)[nH]c1O

>  <score_type>  (39) 
oracle

>  <origin>  (39) 
adg

>  <m_score__min__energy>  (39) 
-14.539999999999999

>  <m_primary>  (39) 
energy

$$$$
39:0
     RDKit          3D

 42 44  0  0  0  0  0  0  0  0999 V2000
   58.2477   20.7683   46.5112 H   0  0  0  0  0  0  0  0  0  0  0  0
   57.7440   21.5670   45.9470 C   0  0  0  0  0  0  0  0  0  0  0  0
   57.2550   22.6550   46.5990 N   0  0  0  0  0  0  0  0  0  0  0  0
   56.6160   23.6650   45.9400 C   0  0  0  0  0  0  0  0  0  0  0  0
   56.1410   24.6960   46.5780 N   0  0  0  0  0  0  0  0  0  0  0  0
   56.2150   26.0740   46.1780 C   0  0  0  0  0  0  0  0  0  0  0  0
   55.1430   26.7130   46.0020 O   0  0  0  0  0  0  0  0  0  0  0  0
   57.4740   26.7160   45.9460 N   0  0  0  0  0  0  0  0  0  0  0  0
   57.7650   28.0910   46.3410 C   0  0  0  0  0  0  0  0  0  0  0  0
   57.1969   28.3320   47.2516 H   0  0  0  0  0  0  0  0  0  0  0  0
   58.8454   28.1821   46.5267 H   0  0  0  0  0  0  0  0  0  0  0  0
   57.3820   29.0540   45.2530 C   0  0  0  0  0  0  0  0  0  0  0  0
   57.3090   30.3880   45.5200 N   0  0  0  0  0  0  0  0  0  0  0  0
   56.9590   31.3030   44.5730 C   0  0  0  0  0  0  0  0  0  0  0  0
   56.9500   32.5760   44.8410 N   0  0  0  0  0  0  0  0  0  0  0  0
   57.9140   33.2690   45.6450 C   0  0  0  0  0  0  0  0  0  0  0  0
   57.8490   34.5250   45.7150 O   0  0  0  0  0  0  0  0  0  0  0  0
   58.9150   32.5450   46.3860 N   0  0  0  0  0  0  0  0  0  0  0  0
   59.0060   31.5180   46.2220 H   0  0  0  0  0  0  0  0  0  0  0  0
   59.8120   33.1350   47.3460 C   0  0  0  0  0  0  0  0  0  0  0  0
   59.3440   33.7020   48.5480 C   0  0  0  0  0  0  0  0  0  0  0  0
   58.2641   33.7306   48.7552 H   0  0  0  0  0  0  0  0  0  0  0  0
   60.2440   34.2280   49.4780 C   0  0  0  0  0  0  0  0  0  0  0  0
   59.8690   34.6886   50.4039 H   0  0  0  0  0  0  0  0  0  0  0  0
   61.6180   34.1710   49.2360 C   0  0  0  0  0  0  0  0  0  0  0  0
   62.3234   34.5916   49.9677 H   0  0  0  0  0  0  0  0  0  0  0  0
   62.0970   33.5790   48.0630 C   0  0  0  0  0  0  0  0  0  0  0  0
   63.8250   33.4580   47.7920 Cl  0  0  0  0  0  0  0  0  0  0  0  0
   61.1970   33.0650   47.1220 C   0  0  0  0  0  0  0  0  0  0  0  0
   61.5775   32.6024   46.1994 H   0  0  0  0  0  0  0  0  0  0  0  0
   56.6580   30.8700   43.2770 C   0  0  0  0  0  0  0  0  0  0  0  0
   56.3904   31.5983   42.4973 H   0  0  0  0  0  0  0  0  0  0  0  0
   56.7000   29.5050   42.9810 C   0  0  0  0  0  0  0  0  0  0  0  0
   56.4507   29.1527   41.9692 H   0  0  0  0  0  0  0  0  0  0  0  0
   57.0590   28.5890   43.9720 C   0  0  0  0  0  0  0  0  0  0  0  0
   57.0878   27.5123   43.7486 H   0  0  0  0  0  0  0  0  0  0  0  0
   56.4570   23.5880   44.5510 C   0  0  0  0  0  0  0  0  0  0  0  0
   55.9416   24.3930   44.0066 H   0  0  0  0  0  0  0  0  0  0  0  0
   56.9580   22.4810   43.8620 C   0  0  0  0  0  0  0  0  0  0  0  0
   56.8410   22.4121   42.7704 H   0  0  0  0  0  0  0  0  0  0  0  0
   57.6070   21.4630   44.5610 C   0  0  0  0  0  0  0  0  0  0  0  0
   58.0063   20.5883   44.0266 H   0  0  0  0  0  0  0  0  0  0  0  0
  1  2  1  0
  2  3  1  0
  3  4  1  0
  4  5  2  0
  5  6  1  0
  6  7  2  0
  6  8  1  0
  8  9  1  0
  9 10  1  0
  9 11  1  0
  9 12  1  0
 12 13  1  0
 13 14  1  0
 14 15  2  3
 15 16  1  0
 16 17  2  0
 16 18  1  0
 18 19  1  0
 18 20  1  0
 20 21  2  0
 21 22  1  0
 21 23  1  0
 23 24  1  0
 23 25  2  0
 25 26  1  0
 25 27  1  0
 27 28  1  0
 27 29  2  0
 29 30  1  0
 14 31  1  0
 31 32  1  0
 31 33  2  0
 33 34  1  0
 33 35  1  0
 35 36  1  0
  4 37  1  0
 37 38  1  0
 37 39  2  0
 39 40  1  0
 39 41  1  0
 41 42  1  0
 41  2  2  0
 35 12  2  0
 29 20  1  0
M  CHG  3   3  -1   8  -1  13  -1
M  END
>  <UniqueID>  (40) 
39

>  <SMILES>  (40) 
O=C(/N=c1/cccc[n-]1)[N-]Cc1cccc(=NC(=O)Nc2cccc(Cl)c2)[n-]1

>  <Energy>  (40) 
52.88115217367285

>  <Genealogy>  (40) 
O=C(N=c1cccc[n-]1)[N-]Cc1cccc(=NC(=O)Nc2cccc(Cl)c2)[n-]1 (protonated)
O=C(/N=c1/cccc[n-]1)[N-]Cc1cccc(=NC(=O)Nc2cccc(Cl)c2)[n-]1 (cis-trans isomerization)
O=C(/N=c1/cccc[n-]1)[N-]Cc1cccc(=NC(=O)Nc2cccc(Cl)c2)[n-]1 (3D coordinates assigned)
O=C(/N=c1/cccc[n-]1)[N-]Cc1cccc(=NC(=O)Nc2cccc(Cl)c2)[n-]1 (optimized conformer: 52.88115217367285 kcal/mol)

>  <smiles>  (40) 
O=C(N=c1cccc[nH]1)NCc1cccc(=NC(=O)Nc2cccc(Cl)c2)[nH]1

>  <score_type>  (40) 
oracle

>  <origin>  (40) 
adg

>  <m_score__min__energy>  (40) 
-13.02

>  <m_primary>  (40) 
energy

$$$$
40:0
     RDKit          3D

 58 61  0  0  0  0  0  0  0  0999 V2000
   56.2610   29.4390   43.5770 C   0  0  0  0  0  0  0  0  0  0  0  0
   56.9610   30.3070   44.3260 C   0  0  0  0  0  0  0  0  0  0  0  0
   56.4050   31.5380   44.4960 N   0  0  0  0  0  0  0  0  0  0  0  0
   57.0240   32.5410   45.1510 C   0  0  0  0  0  0  0  0  0  0  0  0
   58.3180   32.3720   45.6410 C   0  0  0  0  0  0  0  0  0  0  0  0
   58.9640   33.4940   46.3660 C   0  0  0  0  0  0  0  0  0  0  0  0
   59.2120   34.5520   45.7240 O   0  0  0  0  0  0  0  0  0  0  0  0
   59.2890   33.4120   47.7790 N   0  0  0  0  0  0  0  0  0  0  0  0
   59.8040   34.6020   48.4830 C   0  0  0  0  0  0  0  0  0  0  0  0
   60.8500   34.1930   49.5250 C   0  0  0  0  0  0  0  0  0  0  0  0
   60.3940   33.0480   50.3210 N   0  0  0  0  0  0  0  0  0  0  0  0
   61.2400   32.5590   51.3740 C   0  0  0  0  0  0  0  0  0  0  0  0
   61.6810   33.3580   52.2430 O   0  0  0  0  0  0  0  0  0  0  0  0
   61.6570   31.1120   51.4240 C   0  0  0  0  0  0  0  0  0  0  0  0
   63.0400   30.9010   50.7900 C   0  0  0  0  0  0  0  0  0  0  0  0
   63.1780   31.6520   49.4880 C   0  0  0  0  0  0  0  0  0  0  0  0
   64.0310   32.7670   49.4000 C   0  0  0  0  0  0  0  0  0  0  0  0
   64.1120   33.4990   48.2140 C   0  0  0  0  0  0  0  0  0  0  0  0
   63.3440   33.1250   47.1060 C   0  0  0  0  0  0  0  0  0  0  0  0
   62.4960   32.0150   47.1840 C   0  0  0  0  0  0  0  0  0  0  0  0
   62.4120   31.2800   48.3680 C   0  0  0  0  0  0  0  0  0  0  0  0
   59.0800   32.4500   50.0680 C   0  0  0  0  0  0  0  0  0  0  0  0
   58.8940   32.2260   48.5640 C   0  0  0  0  0  0  0  0  0  0  0  0
   58.9400   31.1100   45.5180 C   0  0  0  0  0  0  0  0  0  0  0  0
   60.2280   30.9260   46.0350 O   0  0  0  0  0  0  0  0  0  0  0  0
   58.2510   30.0260   44.8930 C   0  0  0  0  0  0  0  0  0  0  0  0
   58.7550   28.7560   44.8920 C   0  0  0  0  0  0  0  0  0  0  0  0
   59.2620   28.0120   46.0600 C   0  0  0  0  0  0  0  0  0  0  0  0
   59.2940   26.6360   46.1840 C   0  0  0  0  0  0  0  0  0  0  0  0
   59.7090   26.3780   47.4750 C   0  0  0  0  0  0  0  0  0  0  0  0
   59.8860   27.6040   48.0870 C   0  0  0  0  0  0  0  0  0  0  0  0
   59.6040   28.5950   47.2240 N   0  0  0  0  0  0  0  0  0  0  0  0
   56.6519   28.4263   43.3988 H   0  0  0  0  0  0  0  0  0  0  0  0
   55.2969   29.7409   43.1418 H   0  0  0  0  0  0  0  0  0  0  0  0
   56.5043   33.4990   45.2997 H   0  0  0  0  0  0  0  0  0  0  0  0
   60.2659   35.2835   47.7534 H   0  0  0  0  0  0  0  0  0  0  0  0
   58.9691   35.1050   48.9929 H   0  0  0  0  0  0  0  0  0  0  0  0
   61.7823   33.9211   49.0085 H   0  0  0  0  0  0  0  0  0  0  0  0
   61.0132   35.0432   50.2037 H   0  0  0  0  0  0  0  0  0  0  0  0
   61.6921   30.7865   52.4741 H   0  0  0  0  0  0  0  0  0  0  0  0
   60.9235   30.5222   50.8547 H   0  0  0  0  0  0  0  0  0  0  0  0
   63.8108   31.2562   51.4898 H   0  0  0  0  0  0  0  0  0  0  0  0
   63.1613   29.8278   50.5812 H   0  0  0  0  0  0  0  0  0  0  0  0
   64.6366   33.0634   50.2691 H   0  0  0  0  0  0  0  0  0  0  0  0
   64.7802   34.3705   48.1506 H   0  0  0  0  0  0  0  0  0  0  0  0
   63.4070   33.7041   46.1729 H   0  0  0  0  0  0  0  0  0  0  0  0
   61.8946   31.7209   46.3112 H   0  0  0  0  0  0  0  0  0  0  0  0
   61.7448   30.4073   48.4254 H   0  0  0  0  0  0  0  0  0  0  0  0
   59.0104   31.4856   50.5924 H   0  0  0  0  0  0  0  0  0  0  0  0
   58.2952   33.1281   50.4345 H   0  0  0  0  0  0  0  0  0  0  0  0
   59.5121   31.3711   48.2524 H   0  0  0  0  0  0  0  0  0  0  0  0
   57.8274   32.0325   48.3770 H   0  0  0  0  0  0  0  0  0  0  0  0
   60.9390   30.3590   45.5950 H   0  0  0  0  0  0  0  0  0  0  0  0
   58.7857   28.2365   43.9229 H   0  0  0  0  0  0  0  0  0  0  0  0
   59.0402   25.8962   45.4106 H   0  0  0  0  0  0  0  0  0  0  0  0
   59.8679   25.3885   47.9285 H   0  0  0  0  0  0  0  0  0  0  0  0
   60.2103   27.7479   49.1282 H   0  0  0  0  0  0  0  0  0  0  0  0
   59.6330   29.6190   47.4270 H   0  0  0  0  0  0  0  0  0  0  0  0
  1  2  2  0
  2  3  1  0
  3  4  2  0
  4  5  1  0
  5  6  1  0
  6  7  2  0
  6  8  1  0
  8  9  1  0
  9 10  1  0
 10 11  1  0
 11 12  1  0
 12 13  2  0
 12 14  1  0
 14 15  1  0
 15 16  1  0
 16 17  2  0
 17 18  1  0
 18 19  2  0
 19 20  1  0
 20 21  2  0
 11 22  1  0
 22 23  1  0
  5 24  2  0
 24 25  1  0
 24 26  1  0
 26 27  2  3
 27 28  1  0
 28 29  2  0
 29 30  1  0
 30 31  2  0
 31 32  1  0
 26  2  1  0
 32 28  1  0
 23  8  1  0
 21 16  1  0
  1 33  1  0
  1 34  1  0
  4 35  1  0
  9 36  1  0
  9 37  1  0
 10 38  1  0
 10 39  1  0
 14 40  1  0
 14 41  1  0
 15 42  1  0
 15 43  1  0
 17 44  1  0
 18 45  1  0
 19 46  1  0
 20 47  1  0
 21 48  1  0
 22 49  1  0
 22 50  1  0
 23 51  1  0
 23 52  1  0
 25 53  1  0
 27 54  1  0
 29 55  1  0
 30 56  1  0
 31 57  1  0
 32 58  1  0
M  END
>  <UniqueID>  (41) 
40

>  <SMILES>  (41) 
C=c1ncc(C(=O)N2CCN(C(=O)CCc3ccccc3)CC2)c(O)c1=Cc1ccc[nH]1

>  <Energy>  (41) 
114.7069809089729

>  <Genealogy>  (41) 
C=c1ncc(C(=O)N2CCN(C(=O)CCc3ccccc3)CC2)c(O)c1=Cc1ccc[nH]1 (3D coordinates assigned)
C=c1ncc(C(=O)N2CCN(C(=O)CCc3ccccc3)CC2)c(O)c1=Cc1ccc[nH]1 (nonaromatic ring conformer: 114.7069809089729 kcal/mol)

>  <smiles>  (41) 
C=c1ncc(C(=O)N2CCN(C(=O)CCc3ccccc3)CC2)c(O)c1=Cc1ccc[nH]1

>  <score_type>  (41) 
oracle

>  <origin>  (41) 
adg

>  <m_score__min__energy>  (41) 
-10.08

>  <m_primary>  (41) 
energy

$$$$
41:0
     RDKit          3D

 37 39  0  0  0  0  0  0  0  0999 V2000
   58.7330   29.4310   47.0750 C   0  0  0  0  0  0  0  0  0  0  0  0
   58.1100   30.2020   45.9380 C   0  0  0  0  0  0  0  0  0  0  0  0
   57.5120   29.4470   44.9180 C   0  0  0  0  0  0  0  0  0  0  0  0
   57.1350   30.0690   43.7320 C   0  0  0  0  0  0  0  0  0  0  0  0
   56.6080   29.3960   42.8080 O   0  0  0  0  0  0  0  0  0  0  0  0
   57.3550   31.3620   43.5580 O   0  0  0  0  0  0  0  0  0  0  0  0
   57.8830   32.1360   44.5000 C   0  0  0  0  0  0  0  0  0  0  0  0
   58.1200   33.4680   44.2050 C   0  0  0  0  0  0  0  0  0  0  0  0
   58.7080   34.2980   45.1510 C   0  0  0  0  0  0  0  0  0  0  0  0
   58.9810   35.4830   44.8140 O   0  0  0  0  0  0  0  0  0  0  0  0
   58.9710   33.8420   46.4230 N   0  0  0  0  0  0  0  0  0  0  0  0
   59.6490   34.7480   47.3850 C   0  0  0  0  0  0  0  0  0  0  0  0
   61.0080   34.2190   47.7720 C   0  0  0  0  0  0  0  0  0  0  0  0
   61.9120   33.8070   46.7800 C   0  0  0  0  0  0  0  0  0  0  0  0
   63.1750   33.3210   47.1350 C   0  0  0  0  0  0  0  0  0  0  0  0
   63.5490   33.2510   48.4800 C   0  0  0  0  0  0  0  0  0  0  0  0
   64.8090   32.7640   48.8190 O   0  0  0  0  0  0  0  0  0  0  0  0
   62.6550   33.6740   49.4730 C   0  0  0  0  0  0  0  0  0  0  0  0
   61.3930   34.1610   49.1210 C   0  0  0  0  0  0  0  0  0  0  0  0
   58.6120   32.5520   46.7860 C   0  0  0  0  0  0  0  0  0  0  0  0
   58.5210   32.1820   48.2550 C   0  0  0  0  0  0  0  0  0  0  0  0
   58.2090   31.6200   45.7760 C   0  0  0  0  0  0  0  0  0  0  0  0
   58.3931   29.8516   48.0329 H   0  0  0  0  0  0  0  0  0  0  0  0
   58.4315   28.3751   47.0106 H   0  0  0  0  0  0  0  0  0  0  0  0
   59.8287   29.5041   47.0106 H   0  0  0  0  0  0  0  0  0  0  0  0
   57.3421   28.3689   45.0552 H   0  0  0  0  0  0  0  0  0  0  0  0
   57.8420   33.8697   43.2194 H   0  0  0  0  0  0  0  0  0  0  0  0
   59.7687   35.7382   46.9212 H   0  0  0  0  0  0  0  0  0  0  0  0
   59.0314   34.8155   48.2927 H   0  0  0  0  0  0  0  0  0  0  0  0
   61.6261   33.8665   45.7195 H   0  0  0  0  0  0  0  0  0  0  0  0
   63.8759   32.9930   46.3532 H   0  0  0  0  0  0  0  0  0  0  0  0
   65.6220   32.9510   48.2430 H   0  0  0  0  0  0  0  0  0  0  0  0
   62.9473   33.6226   50.5322 H   0  0  0  0  0  0  0  0  0  0  0  0
   60.6987   34.5001   49.9039 H   0  0  0  0  0  0  0  0  0  0  0  0
   58.7388   33.0674   48.8703 H   0  0  0  0  0  0  0  0  0  0  0  0
   57.5070   31.8197   48.4797 H   0  0  0  0  0  0  0  0  0  0  0  0
   59.2513   31.3907   48.4797 H   0  0  0  0  0  0  0  0  0  0  0  0
  1  2  1  0
  2  3  2  0
  3  4  1  0
  4  5  2  0
  4  6  1  0
  6  7  1  0
  7  8  2  0
  8  9  1  0
  9 10  2  0
  9 11  1  0
 11 12  1  0
 12 13  1  0
 13 14  2  0
 14 15  1  0
 15 16  2  0
 16 17  1  0
 16 18  1  0
 18 19  2  0
 11 20  1  0
 20 21  1  0
 20 22  2  0
 22  2  1  0
 22  7  1  0
 19 13  1  0
  1 23  1  0
  1 24  1  0
  1 25  1  0
  3 26  1  0
  8 27  1  0
 12 28  1  0
 12 29  1  0
 14 30  1  0
 15 31  1  0
 17 32  1  0
 18 33  1  0
 19 34  1  0
 21 35  1  0
 21 36  1  0
 21 37  1  0
M  END
>  <UniqueID>  (42) 
41

>  <SMILES>  (42) 
Cc1cc(=O)oc2cc(=O)n(Cc3ccc(O)cc3)c(C)c12

>  <Energy>  (42) 
63.654268670692076

>  <Genealogy>  (42) 
Cc1cc(=O)oc2cc(=O)n(Cc3ccc(O)cc3)c(C)c12 (3D coordinates assigned)
Cc1cc(=O)oc2cc(=O)n(Cc3ccc(O)cc3)c(C)c12 (optimized conformer: 63.654268670692076 kcal/mol)

>  <smiles>  (42) 
Cc1cc(=O)oc2cc(=O)n(Cc3ccc(O)cc3)c(C)c12

>  <score_type>  (42) 
oracle

>  <origin>  (42) 
adg

>  <m_score__min__energy>  (42) 
-7.1699999999999999

>  <m_primary>  (42) 
energy

$$$$
42:0
     RDKit          3D

 52 54  0  0  0  0  0  0  0  0999 V2000
   59.3470   24.7630   45.9600 C   0  0  0  0  0  0  0  0  0  0  0  0
   58.8230   26.1570   45.7360 C   0  0  0  0  0  0  0  0  0  0  0  0
   59.7290   27.1790   45.4150 C   0  0  0  0  0  0  0  0  0  0  0  0
   59.2860   28.4820   45.1880 C   0  0  0  0  0  0  0  0  0  0  0  0
   57.9210   28.7980   45.2840 C   0  0  0  0  0  0  0  0  0  0  0  0
   57.4050   30.1730   45.0360 C   0  0  0  0  0  0  0  0  0  0  0  0
   56.5590   30.3250   44.1100 O   0  0  0  0  0  0  0  0  0  0  0  0
   57.8070   31.3400   45.8030 N   0  0  0  0  0  0  0  0  0  0  0  0
   58.0660   32.5000   44.9150 C   0  0  0  0  0  0  0  0  0  0  0  0
   58.9530   33.5640   45.5880 C   0  0  0  0  0  0  0  0  0  0  0  0
   58.7320   33.5450   47.0440 N   0  0  0  0  0  0  0  0  0  0  0  0
   59.2500   34.7410   47.7470 C   0  0  0  0  0  0  0  0  0  0  0  0
   60.1000   34.4250   48.9960 C   0  0  0  0  0  0  0  0  0  0  0  0
   61.4720   33.9580   48.5900 C   0  0  0  0  0  0  0  0  0  0  0  0
   61.8070   33.8350   47.2300 C   0  0  0  0  0  0  0  0  0  0  0  0
   63.0930   33.4330   46.8550 C   0  0  0  0  0  0  0  0  0  0  0  0
   64.0550   33.1620   47.8330 C   0  0  0  0  0  0  0  0  0  0  0  0
   63.7330   33.2950   49.1870 C   0  0  0  0  0  0  0  0  0  0  0  0
   62.4490   33.6960   49.5650 C   0  0  0  0  0  0  0  0  0  0  0  0
   59.1630   32.2730   47.6670 C   0  0  0  0  0  0  0  0  0  0  0  0
   58.9230   31.0670   46.7350 C   0  0  0  0  0  0  0  0  0  0  0  0
   57.0080   27.7720   45.5770 C   0  0  0  0  0  0  0  0  0  0  0  0
   57.4410   26.4540   45.8010 C   0  0  0  0  0  0  0  0  0  0  0  0
   56.2340   25.2120   46.1760 S   0  0  0  0  0  0  0  0  0  0  0  0
   54.6530   25.8100   45.8160 N   0  0  0  0  0  0  0  0  0  0  0  0
   56.3160   24.8420   47.6300 O   0  0  0  0  0  0  0  0  0  0  0  0
   56.4830   23.9770   45.3570 O   0  0  0  0  0  0  0  0  0  0  0  0
   59.4203   24.5680   47.0401 H   0  0  0  0  0  0  0  0  0  0  0  0
   58.6610   24.0354   45.5018 H   0  0  0  0  0  0  0  0  0  0  0  0
   60.3424   24.6674   45.5018 H   0  0  0  0  0  0  0  0  0  0  0  0
   60.8023   26.9498   45.3414 H   0  0  0  0  0  0  0  0  0  0  0  0
   60.0114   29.2682   44.9318 H   0  0  0  0  0  0  0  0  0  0  0  0
   56.9840   31.5900   46.4050 H   0  0  0  0  0  0  0  0  0  0  0  0
   58.5702   32.1432   44.0048 H   0  0  0  0  0  0  0  0  0  0  0  0
   57.0982   32.9675   44.6808 H   0  0  0  0  0  0  0  0  0  0  0  0
   60.0101   33.3464   45.3757 H   0  0  0  0  0  0  0  0  0  0  0  0
   58.6940   34.5574   45.1929 H   0  0  0  0  0  0  0  0  0  0  0  0
   59.8722   35.3123   47.0424 H   0  0  0  0  0  0  0  0  0  0  0  0
   58.3730   35.3051   48.0972 H   0  0  0  0  0  0  0  0  0  0  0  0
   60.1928   35.3324   49.6108 H   0  0  0  0  0  0  0  0  0  0  0  0
   59.6068   33.6282   49.5720 H   0  0  0  0  0  0  0  0  0  0  0  0
   61.0549   34.0557   46.4582 H   0  0  0  0  0  0  0  0  0  0  0  0
   63.3479   33.3299   45.7899 H   0  0  0  0  0  0  0  0  0  0  0  0
   65.0656   32.8440   47.5369 H   0  0  0  0  0  0  0  0  0  0  0  0
   64.4912   33.0838   49.9554 H   0  0  0  0  0  0  0  0  0  0  0  0
   62.2019   33.8071   50.6311 H   0  0  0  0  0  0  0  0  0  0  0  0
   60.2366   32.3359   47.8983 H   0  0  0  0  0  0  0  0  0  0  0  0
   58.5693   32.1219   48.5806 H   0  0  0  0  0  0  0  0  0  0  0  0
   59.8373   30.8708   46.1558 H   0  0  0  0  0  0  0  0  0  0  0  0
   58.6648   30.1916   47.3490 H   0  0  0  0  0  0  0  0  0  0  0  0
   55.9342   28.0043   45.6322 H   0  0  0  0  0  0  0  0  0  0  0  0
   54.7780   26.7000   45.2820 H   0  0  0  0  0  0  0  0  0  0  0  0
  1  2  1  0
  2  3  2  0
  3  4  1  0
  4  5  2  0
  5  6  1  0
  6  7  2  0
  6  8  1  0
  8  9  1  0
  9 10  1  0
 10 11  1  0
 11 12  1  0
 12 13  1  0
 13 14  1  0
 14 15  2  0
 15 16  1  0
 16 17  2  0
 17 18  1  0
 18 19  2  0
 11 20  1  0
 20 21  1  0
  5 22  1  0
 22 23  2  0
 23 24  1  0
 24 25  1  0
 24 26  2  0
 24 27  2  0
 23  2  1  0
 21  8  1  0
 19 14  1  0
  1 28  1  0
  1 29  1  0
  1 30  1  0
  3 31  1  0
  4 32  1  0
  8 33  1  0
  9 34  1  0
  9 35  1  0
 10 36  1  0
 10 37  1  0
 12 38  1  0
 12 39  1  0
 13 40  1  0
 13 41  1  0
 15 42  1  0
 16 43  1  0
 17 44  1  0
 18 45  1  0
 19 46  1  0
 20 47  1  0
 20 48  1  0
 21 49  1  0
 21 50  1  0
 22 51  1  0
 25 52  1  0
M  CHG  2   8   1  25  -1
M  END
>  <UniqueID>  (43) 
42

>  <SMILES>  (43) 
Cc1ccc(C(=O)[NH+]2CCN(CCc3ccccc3)CC2)cc1S([NH-])(=O)=O

>  <Energy>  (43) 
73.406583818505

>  <Genealogy>  (43) 
Cc1ccc(C(=O)[NH+]2CCN(CCc3ccccc3)CC2)cc1S([NH-])(=O)=O (protonated)
Cc1ccc(C(=O)[NH+]2CCN(CCc3ccccc3)CC2)cc1S([NH-])(=O)=O (3D coordinates assigned)
Cc1ccc(C(=O)[NH+]2CCN(CCc3ccccc3)CC2)cc1S([NH-])(=O)=O (nonaromatic ring conformer: 73.406583818505 kcal/mol)

>  <smiles>  (43) 
Cc1ccc(C(=O)N2CCN(CCc3ccccc3)CC2)cc1S(N)(=O)=O

>  <score_type>  (43) 
oracle

>  <origin>  (43) 
adg

>  <m_score__min__energy>  (43) 
-10.869999999999999

>  <m_primary>  (43) 
energy

$$$$
43:0
     RDKit          3D

 30 32  0  0  0  0  0  0  0  0999 V2000
   59.0531   26.1939   45.5860 H   0  0  0  0  0  0  0  0  0  0  0  0
   58.1640   26.8340   45.4870 C   0  0  0  0  0  0  0  0  0  0  0  0
   58.1430   28.4170   44.9160 S   0  0  0  0  0  0  0  0  0  0  0  0
   56.4840   28.5740   45.1190 C   0  0  0  0  0  0  0  0  0  0  0  0
   55.8250   29.6570   44.8320 N   0  0  0  0  0  0  0  0  0  0  0  0
   56.3380   30.7990   44.1310 C   0  0  0  0  0  0  0  0  0  0  0  0
   56.4810   30.7780   42.8770 O   0  0  0  0  0  0  0  0  0  0  0  0
   56.6340   31.9860   44.8740 N   0  0  0  0  0  0  0  0  0  0  0  0
   57.9070   32.3580   45.4230 C   0  0  0  0  0  0  0  0  0  0  0  0
   58.3650   33.6650   45.2310 C   0  0  0  0  0  0  0  0  0  0  0  0
   57.7558   34.3771   44.6549 H   0  0  0  0  0  0  0  0  0  0  0  0
   59.5910   34.0750   45.7650 C   0  0  0  0  0  0  0  0  0  0  0  0
   59.9438   35.1030   45.5954 H   0  0  0  0  0  0  0  0  0  0  0  0
   60.3760   33.1830   46.5170 C   0  0  0  0  0  0  0  0  0  0  0  0
   61.6780   33.5980   47.0920 C   0  0  0  0  0  0  0  0  0  0  0  0
   62.7940   33.8090   46.3670 N   0  0  0  0  0  0  0  0  0  0  0  0
   63.7200   34.1610   47.2480 N   0  0  0  0  0  0  0  0  0  0  0  0
   63.2020   34.1700   48.4670 N   0  0  0  0  0  0  0  0  0  0  0  0
   61.9300   33.8220   48.3950 N   0  0  0  0  0  0  0  0  0  0  0  0
   61.2860   33.7510   49.2130 H   0  0  0  0  0  0  0  0  0  0  0  0
   59.9000   31.8780   46.7300 C   0  0  0  0  0  0  0  0  0  0  0  0
   60.4977   31.1709   47.3240 H   0  0  0  0  0  0  0  0  0  0  0  0
   58.6750   31.4690   46.1950 C   0  0  0  0  0  0  0  0  0  0  0  0
   58.3106   30.4475   46.3788 H   0  0  0  0  0  0  0  0  0  0  0  0
   55.9250   27.4480   45.6160 N   0  0  0  0  0  0  0  0  0  0  0  0
   56.8580   26.4770   45.8120 C   0  0  0  0  0  0  0  0  0  0  0  0
   56.5010   25.1480   46.3930 C   0  0  0  0  0  0  0  0  0  0  0  0
   56.5180   25.2114   47.4910 H   0  0  0  0  0  0  0  0  0  0  0  0
   55.4936   24.8600   46.0579 H   0  0  0  0  0  0  0  0  0  0  0  0
   57.2284   24.3940   46.0579 H   0  0  0  0  0  0  0  0  0  0  0  0
  1  2  1  0
  2  3  1  0
  3  4  1  0
  4  5  2  0
  5  6  1  0
  6  7  2  0
  6  8  1  0
  8  9  1  0
  9 10  2  0
 10 11  1  0
 10 12  1  0
 12 13  1  0
 12 14  2  0
 14 15  1  0
 15 16  2  0
 16 17  1  0
 17 18  1  0
 18 19  2  0
 19 20  1  0
 14 21  1  0
 21 22  1  0
 21 23  2  0
 23 24  1  0
  4 25  1  0
 25 26  1  0
 26 27  1  0
 27 28  1  0
 27 29  1  0
 27 30  1  0
 26  2  2  0
 23  9  1  0
 19 15  1  0
M  CHG  4   8  -1  17  -1  19   1  25  -1
M  END
>  <UniqueID>  (44) 
43

>  <SMILES>  (44) 
Cc1cs/c(=N/C(=O)[N-]c2ccc(-c3n[n-]n[nH+]3)cc2)[n-]1

>  <Energy>  (44) 
106.79624135373665

>  <Genealogy>  (44) 
Cc1csc(=NC(=O)[N-]c2ccc(-c3n[n-]n[nH+]3)cc2)[n-]1 (protonated)
Cc1cs/c(=N/C(=O)[N-]c2ccc(-c3n[n-]n[nH+]3)cc2)[n-]1 (cis-trans isomerization)
Cc1cs/c(=N/C(=O)[N-]c2ccc(-c3n[n-]n[nH+]3)cc2)[n-]1 (3D coordinates assigned)
Cc1cs/c(=N/C(=O)[N-]c2ccc(-c3n[n-]n[nH+]3)cc2)[n-]1 (optimized conformer: 106.79624135373665 kcal/mol)

>  <smiles>  (44) 
Cc1csc(=NC(=O)Nc2ccc(-c3nn[nH]n3)cc2)[nH]1

>  <score_type>  (44) 
oracle

>  <origin>  (44) 
adg

>  <m_score__min__energy>  (44) 
-9.9700000000000006

>  <m_primary>  (44) 
energy

$$$$
44:0
     RDKit          3D

 55 58  0  0  0  0  0  0  0  0999 V2000
   54.8280   25.7590   45.8840 N   0  0  0  0  0  0  0  0  0  0  0  0
   54.8200   24.1330   45.2990 S   0  0  0  0  0  0  0  0  0  0  0  0
   53.8490   23.3230   46.1130 O   0  0  0  0  0  0  0  0  0  0  0  0
   54.3670   24.1140   43.8670 O   0  0  0  0  0  0  0  0  0  0  0  0
   56.4450   23.4370   45.4360 C   0  0  0  0  0  0  0  0  0  0  0  0
   56.5660   22.0800   45.7780 C   0  0  0  0  0  0  0  0  0  0  0  0
   57.8210   21.4740   45.8510 C   0  0  0  0  0  0  0  0  0  0  0  0
   58.9720   22.2150   45.5830 C   0  0  0  0  0  0  0  0  0  0  0  0
   58.8720   23.5660   45.2530 C   0  0  0  0  0  0  0  0  0  0  0  0
   57.6180   24.1960   45.1910 C   0  0  0  0  0  0  0  0  0  0  0  0
   57.5720   25.6410   44.8870 C   0  0  0  0  0  0  0  0  0  0  0  0
   57.7830   26.0920   43.5760 C   0  0  0  0  0  0  0  0  0  0  0  0
   57.7510   27.4600   43.2880 C   0  0  0  0  0  0  0  0  0  0  0  0
   57.5150   28.3940   44.3090 C   0  0  0  0  0  0  0  0  0  0  0  0
   57.4800   29.8030   44.0110 N   0  0  0  0  0  0  0  0  0  0  0  0
   56.4810   30.3430   43.0810 C   0  0  0  0  0  0  0  0  0  0  0  0
   57.0640   31.4790   42.2140 C   0  0  0  0  0  0  0  0  0  0  0  0
   58.1590   32.3290   42.9050 C   0  0  0  0  0  0  0  0  0  0  0  0
   58.1520   32.2070   44.4340 C   0  0  2  0  0  0  0  0  0  0  0  0
   59.2540   33.0150   44.9890 N   0  0  0  0  0  0  0  0  0  0  0  0
   58.6820   34.1780   46.1530 S   0  0  0  0  0  0  0  0  0  0  0  0
   57.2000   34.3660   45.9860 O   0  0  0  0  0  0  0  0  0  0  0  0
   59.3570   35.4970   45.9000 O   0  0  0  0  0  0  0  0  0  0  0  0
   59.0280   33.6580   47.8010 C   0  0  0  0  0  0  0  0  0  0  0  0
   59.8410   34.4410   48.6360 C   0  0  0  0  0  0  0  0  0  0  0  0
   60.0800   34.0460   49.9560 C   0  0  0  0  0  0  0  0  0  0  0  0
   59.5110   32.8680   50.4480 C   0  0  0  0  0  0  0  0  0  0  0  0
   58.7010   32.0830   49.6200 C   0  0  0  0  0  0  0  0  0  0  0  0
   58.1430   30.9440   50.1000 F   0  0  0  0  0  0  0  0  0  0  0  0
   58.4590   32.4760   48.3000 C   0  0  0  0  0  0  0  0  0  0  0  0
   58.2560   30.7400   44.7790 C   0  0  0  0  0  0  0  0  0  0  0  0
   58.9730   30.3440   45.7370 O   0  0  0  0  0  0  0  0  0  0  0  0
   57.3170   27.9400   45.6230 C   0  0  0  0  0  0  0  0  0  0  0  0
   57.3560   26.5740   45.9110 C   0  0  0  0  0  0  0  0  0  0  0  0
   54.2170   26.3160   45.2450 H   0  0  0  0  0  0  0  0  0  0  0  0
   55.6627   21.4892   45.9904 H   0  0  0  0  0  0  0  0  0  0  0  0
   57.9026   20.4106   46.1202 H   0  0  0  0  0  0  0  0  0  0  0  0
   59.9596   21.7330   45.6321 H   0  0  0  0  0  0  0  0  0  0  0  0
   59.7833   24.1437   45.0393 H   0  0  0  0  0  0  0  0  0  0  0  0
   57.9744   25.3669   42.7712 H   0  0  0  0  0  0  0  0  0  0  0  0
   57.9116   27.8059   42.2562 H   0  0  0  0  0  0  0  0  0  0  0  0
   56.1334   29.5339   42.4218 H   0  0  0  0  0  0  0  0  0  0  0  0
   55.6494   30.7546   43.6718 H   0  0  0  0  0  0  0  0  0  0  0  0
   57.5000   31.0295   41.3096 H   0  0  0  0  0  0  0  0  0  0  0  0
   56.2301   32.1638   42.0005 H   0  0  0  0  0  0  0  0  0  0  0  0
   59.1410   32.0007   42.5337 H   0  0  0  0  0  0  0  0  0  0  0  0
   57.9531   33.3821   42.6628 H   0  0  0  0  0  0  0  0  0  0  0  0
   57.2236   32.5959   44.8777 H   0  0  0  0  0  0  0  0  0  0  0  0
   59.9870   32.4170   45.4340 H   0  0  0  0  0  0  0  0  0  0  0  0
   60.2912   35.3678   48.2508 H   0  0  0  0  0  0  0  0  0  0  0  0
   60.7163   34.6629   50.6076 H   0  0  0  0  0  0  0  0  0  0  0  0
   59.7000   32.5579   51.4863 H   0  0  0  0  0  0  0  0  0  0  0  0
   57.8213   31.8574   47.6513 H   0  0  0  0  0  0  0  0  0  0  0  0
   57.1302   28.6641   46.4297 H   0  0  0  0  0  0  0  0  0  0  0  0
   57.2166   26.2285   46.9460 H   0  0  0  0  0  0  0  0  0  0  0  0
  1  2  1  0
  2  3  2  0
  2  4  2  0
  2  5  1  0
  5  6  2  0
  6  7  1  0
  7  8  2  0
  8  9  1  0
  9 10  2  0
 10 11  1  0
 11 12  2  0
 12 13  1  0
 13 14  2  0
 14 15  1  0
 15 16  1  0
 16 17  1  0
 17 18  1  0
 18 19  1  0
 19 20  1  0
 20 21  1  0
 21 22  2  0
 21 23  2  0
 21 24  1  0
 24 25  2  0
 25 26  1  0
 26 27  2  0
 27 28  1  0
 28 29  1  0
 28 30  2  0
 19 31  1  0
 31 32  2  0
 14 33  1  0
 33 34  2  0
 10  5  1  0
 34 11  1  0
 31 15  1  0
 30 24  1  0
  1 35  1  0
  6 36  1  0
  7 37  1  0
  8 38  1  0
  9 39  1  0
 12 40  1  0
 13 41  1  0
 16 42  1  0
 16 43  1  0
 17 44  1  0
 17 45  1  0
 18 46  1  0
 18 47  1  0
 19 48  1  1
 20 49  1  0
 25 50  1  0
 26 51  1  0
 27 52  1  0
 30 53  1  0
 33 54  1  0
 34 55  1  0
M  CHG  1   1  -1
M  END
>  <UniqueID>  (45) 
44

>  <SMILES>  (45) 
[NH-]S(=O)(=O)c1ccccc1-c1ccc(N2CCC[C@H](NS(=O)(=O)c3cccc(F)c3)C2=O)cc1

>  <Energy>  (45) 
75.65182645899495

>  <Genealogy>  (45) 
[NH-]S(=O)(=O)c1ccccc1-c1ccc(N2CCCC(NS(=O)(=O)c3cccc(F)c3)C2=O)cc1 (protonated)
[NH-]S(=O)(=O)c1ccccc1-c1ccc(N2CCC[C@H](NS(=O)(=O)c3cccc(F)c3)C2=O)cc1 (chirality)
[NH-]S(=O)(=O)c1ccccc1-c1ccc(N2CCC[C@H](NS(=O)(=O)c3cccc(F)c3)C2=O)cc1 (3D coordinates assigned)
[NH-]S(=O)(=O)c1ccccc1-c1ccc(N2CCC[C@H](NS(=O)(=O)c3cccc(F)c3)C2=O)cc1 (nonaromatic ring conformer: 75.65182645899495 kcal/mol)

>  <smiles>  (45) 
NS(=O)(=O)c1ccccc1-c1ccc(N2CCCC(NS(=O)(=O)c3cccc(F)c3)C2=O)cc1

>  <score_type>  (45) 
oracle

>  <origin>  (45) 
adg

>  <m_score__min__energy>  (45) 
-12.65

>  <m_primary>  (45) 
energy

$$$$
45:0
     RDKit          3D

 47 48  0  0  0  0  0  0  0  0999 V2000
   56.6300   29.4180   42.8790 C   0  0  0  0  0  0  0  0  0  0  0  0
   55.6090   29.8020   43.9440 C   0  0  0  0  0  0  0  0  0  0  0  0
   55.8960   31.0970   44.4670 O   0  0  0  0  0  0  0  0  0  0  0  0
   57.1580   31.7030   44.3930 C   0  0  0  0  0  0  0  0  0  0  0  0
   57.5250   32.2480   43.3170 O   0  0  0  0  0  0  0  0  0  0  0  0
   58.0390   31.7140   45.5900 C   0  0  0  0  0  0  0  0  0  0  0  0
   58.1670   30.6120   46.4390 C   0  0  0  0  0  0  0  0  0  0  0  0
   57.4600   29.3760   46.2880 N   0  0  0  0  0  0  0  0  0  0  0  0
   58.0170   28.1350   45.8460 C   0  0  0  0  0  0  0  0  0  0  0  0
   58.9420   28.1090   44.9900 O   0  0  0  0  0  0  0  0  0  0  0  0
   57.5140   26.8540   46.4320 C   0  0  0  0  0  0  0  0  0  0  0  0
   56.0770   26.7180   46.2050 N   0  0  0  0  0  0  0  0  0  0  0  0
   55.4160   25.5730   45.6450 C   0  0  0  0  0  0  0  0  0  0  0  0
   54.1570   25.5410   45.6480 O   0  0  0  0  0  0  0  0  0  0  0  0
   56.1500   24.4590   45.0240 C   0  0  0  0  0  0  0  0  0  0  0  0
   55.9580   23.9410   43.7480 C   0  0  0  0  0  0  0  0  0  0  0  0
   56.8370   22.8970   43.4390 C   0  0  0  0  0  0  0  0  0  0  0  0
   57.7260   22.5930   44.4620 C   0  0  0  0  0  0  0  0  0  0  0  0
   57.4280   23.6360   45.7450 S   0  0  0  0  0  0  0  0  0  0  0  0
   59.1680   31.0070   47.7280 S   0  0  0  0  0  0  0  0  0  0  0  0
   59.5040   32.5730   47.2250 C   0  0  0  0  0  0  0  0  0  0  0  0
   60.2780   33.5430   48.0270 C   0  0  0  0  0  0  0  0  0  0  0  0
   59.6530   34.4300   48.6680 O   0  0  0  0  0  0  0  0  0  0  0  0
   61.7170   33.4780   48.1160 N   0  0  0  0  0  0  0  0  0  0  0  0
   62.5010   32.7380   47.1220 C   0  0  0  0  0  0  0  0  0  0  0  0
   62.4000   34.2270   49.1730 C   0  0  0  0  0  0  0  0  0  0  0  0
   58.8120   32.8230   46.0290 C   0  0  0  0  0  0  0  0  0  0  0  0
   58.9020   34.1300   45.2840 C   0  0  0  0  0  0  0  0  0  0  0  0
   57.5537   29.0706   43.3649 H   0  0  0  0  0  0  0  0  0  0  0  0
   56.2203   28.6125   42.2518 H   0  0  0  0  0  0  0  0  0  0  0  0
   56.8527   30.2938   42.2518 H   0  0  0  0  0  0  0  0  0  0  0  0
   54.6040   29.8067   43.4970 H   0  0  0  0  0  0  0  0  0  0  0  0
   55.6563   29.0691   44.7629 H   0  0  0  0  0  0  0  0  0  0  0  0
   58.0369   26.0095   45.9593 H   0  0  0  0  0  0  0  0  0  0  0  0
   57.7046   26.8588   47.5154 H   0  0  0  0  0  0  0  0  0  0  0  0
   55.1925   24.3142   43.0518 H   0  0  0  0  0  0  0  0  0  0  0  0
   56.8251   22.3664   42.4755 H   0  0  0  0  0  0  0  0  0  0  0  0
   58.4931   21.8050   44.4365 H   0  0  0  0  0  0  0  0  0  0  0  0
   63.2083   32.0704   47.6359 H   0  0  0  0  0  0  0  0  0  0  0  0
   61.8249   32.1411   46.4922 H   0  0  0  0  0  0  0  0  0  0  0  0
   63.0579   33.4474   46.4922 H   0  0  0  0  0  0  0  0  0  0  0  0
   62.0666   33.8614   50.1555 H   0  0  0  0  0  0  0  0  0  0  0  0
   63.4868   34.0859   49.0787 H   0  0  0  0  0  0  0  0  0  0  0  0
   62.1595   35.2962   49.0787 H   0  0  0  0  0  0  0  0  0  0  0  0
   58.9591   34.9594   46.0043 H   0  0  0  0  0  0  0  0  0  0  0  0
   59.8023   34.1306   44.6520 H   0  0  0  0  0  0  0  0  0  0  0  0
   58.0103   34.2540   44.6520 H   0  0  0  0  0  0  0  0  0  0  0  0
  1  2  1  0
  2  3  1  0
  3  4  1  0
  4  5  2  0
  4  6  1  0
  6  7  2  0
  7  8  1  0
  8  9  1  0
  9 10  2  0
  9 11  1  0
 11 12  1  0
 12 13  1  0
 13 14  2  0
 13 15  1  0
 15 16  2  0
 16 17  1  0
 17 18  2  0
 18 19  1  0
  7 20  1  0
 20 21  1  0
 21 22  1  0
 22 23  2  0
 22 24  1  0
 24 25  1  0
 24 26  1  0
 21 27  2  0
 27 28  1  0
 27  6  1  0
 19 15  1  0
  1 29  1  0
  1 30  1  0
  1 31  1  0
  2 32  1  0
  2 33  1  0
 11 34  1  0
 11 35  1  0
 16 36  1  0
 17 37  1  0
 18 38  1  0
 25 39  1  0
 25 40  1  0
 25 41  1  0
 26 42  1  0
 26 43  1  0
 26 44  1  0
 28 45  1  0
 28 46  1  0
 28 47  1  0
M  CHG  2   8  -1  12  -1
M  END
>  <UniqueID>  (46) 
45

>  <SMILES>  (46) 
CCOC(=O)c1c([N-]C(=O)C[N-]C(=O)c2cccs2)sc(C(=O)N(C)C)c1C

>  <Energy>  (46) 
99.53145696225714

>  <Genealogy>  (46) 
CCOC(=O)c1c([N-]C(=O)C[N-]C(=O)c2cccs2)sc(C(=O)N(C)C)c1C (protonated)
CCOC(=O)c1c([N-]C(=O)C[N-]C(=O)c2cccs2)sc(C(=O)N(C)C)c1C (3D coordinates assigned)
CCOC(=O)c1c([N-]C(=O)C[N-]C(=O)c2cccs2)sc(C(=O)N(C)C)c1C (optimized conformer: 99.53145696225714 kcal/mol)

>  <smiles>  (46) 
CCOC(=O)c1c(NC(=O)CNC(=O)c2cccs2)sc(C(=O)N(C)C)c1C

>  <score_type>  (46) 
oracle

>  <origin>  (46) 
adg

>  <m_score__min__energy>  (46) 
-11.69

>  <m_primary>  (46) 
energy

$$$$
46:0
     RDKit          3D

 59 62  0  0  0  0  0  0  0  0999 V2000
   59.5230   26.2000   47.2850 H   0  0  0  0  0  0  0  0  0  0  0  0
   58.6740   25.6470   47.2980 O   0  0  0  0  0  0  0  0  0  0  0  0
   57.5000   26.1400   46.7400 C   0  0  0  0  0  0  0  0  0  0  0  0
   56.3230   25.4920   46.7740 N   0  0  0  0  0  0  0  0  0  0  0  0
   55.5100   26.3170   46.0800 C   0  0  0  0  0  0  0  0  0  0  0  0
   54.2970   26.0570   45.8750 O   0  0  0  0  0  0  0  0  0  0  0  0
   56.1040   27.4360   45.6110 N   0  0  0  0  0  0  0  0  0  0  0  0
   57.3660   27.3310   46.0610 C   0  0  0  0  0  0  0  0  0  0  0  0
   58.4400   28.2680   45.6970 C   0  0  0  0  0  0  0  0  0  0  0  0
   59.4358   27.8404   45.5085 H   0  0  0  0  0  0  0  0  0  0  0  0
   58.3120   29.6040   45.5740 C   0  0  0  0  0  0  0  0  0  0  0  0
   57.9590   30.2120   44.3820 C   0  0  0  0  0  0  0  0  0  0  0  0
   57.6943   29.7052   43.4422 H   0  0  0  0  0  0  0  0  0  0  0  0
   58.0020   31.5750   44.5960 C   0  0  0  0  0  0  0  0  0  0  0  0
   57.7640   32.6040   43.5330 C   0  0  0  0  0  0  0  0  0  0  0  0
   57.5400   33.5726   44.0039 H   0  0  0  0  0  0  0  0  0  0  0  0
   58.6637   32.6998   42.9074 H   0  0  0  0  0  0  0  0  0  0  0  0
   56.9136   32.2950   42.9074 H   0  0  0  0  0  0  0  0  0  0  0  0
   58.3410   31.8410   45.8800 N   0  0  0  0  0  0  0  0  0  0  0  0
   58.4480   33.1780   46.4850 C   0  0  0  0  0  0  0  0  0  0  0  0
   58.4216   33.9354   45.6878 H   0  0  0  0  0  0  0  0  0  0  0  0
   57.6051   33.3142   47.1785 H   0  0  0  0  0  0  0  0  0  0  0  0
   59.7340   33.3260   47.2620 C   0  0  0  0  0  0  0  0  0  0  0  0
   60.9750   33.0920   46.6460 C   0  0  0  0  0  0  0  0  0  0  0  0
   61.0137   32.8166   45.5817 H   0  0  0  0  0  0  0  0  0  0  0  0
   62.1600   33.2070   47.3770 C   0  0  0  0  0  0  0  0  0  0  0  0
   63.1262   33.0261   46.8833 H   0  0  0  0  0  0  0  0  0  0  0  0
   62.1260   33.5520   48.7380 C   0  0  0  0  0  0  0  0  0  0  0  0
   63.3470   33.6570   49.4950 N   0  0  0  0  0  0  0  0  0  0  0  0
   63.3470   34.2570   50.8360 C   0  0  0  0  0  0  0  0  0  0  0  0
   63.9318   35.1885   50.8197 H   0  0  0  0  0  0  0  0  0  0  0  0
   62.3118   34.4757   51.1371 H   0  0  0  0  0  0  0  0  0  0  0  0
   63.9710   33.2820   51.8380 C   0  0  0  0  0  0  0  0  0  0  0  0
   64.2260   33.8302   52.7570 H   0  0  0  0  0  0  0  0  0  0  0  0
   63.2393   32.4866   52.0429 H   0  0  0  0  0  0  0  0  0  0  0  0
   65.1920   32.6550   51.3020 N   0  0  0  0  0  0  0  0  0  0  0  0
   65.8910   31.6940   52.1210 C   0  0  0  0  0  0  0  0  0  0  0  0
   65.7150   31.7040   53.3720 O   0  0  0  0  0  0  0  0  0  0  0  0
   66.8460   30.6930   51.5150 C   0  0  0  0  0  0  0  0  0  0  0  0
   66.9370   30.9005   50.4386 H   0  0  0  0  0  0  0  0  0  0  0  0
   67.8108   30.7988   52.0328 H   0  0  0  0  0  0  0  0  0  0  0  0
   66.3800   29.2470   51.6970 C   0  0  0  0  0  0  0  0  0  0  0  0
   66.3062   29.0179   52.7703 H   0  0  0  0  0  0  0  0  0  0  0  0
   65.3946   29.1173   51.2257 H   0  0  0  0  0  0  0  0  0  0  0  0
   67.1043   28.5663   51.2257 H   0  0  0  0  0  0  0  0  0  0  0  0
   65.7140   33.0950   49.9960 C   0  0  0  0  0  0  0  0  0  0  0  0
   66.1172   34.1142   50.0894 H   0  0  0  0  0  0  0  0  0  0  0  0
   66.5100   32.4072   49.6747 H   0  0  0  0  0  0  0  0  0  0  0  0
   64.5900   33.0870   48.9530 C   0  0  0  0  0  0  0  0  0  0  0  0
   64.9058   33.6810   48.0827 H   0  0  0  0  0  0  0  0  0  0  0  0
   64.3941   32.0436   48.6650 H   0  0  0  0  0  0  0  0  0  0  0  0
   60.8850   33.7680   49.3570 C   0  0  0  0  0  0  0  0  0  0  0  0
   60.8456   34.0305   50.4245 H   0  0  0  0  0  0  0  0  0  0  0  0
   59.6990   33.6520   48.6270 C   0  0  0  0  0  0  0  0  0  0  0  0
   58.7322   33.8171   49.1250 H   0  0  0  0  0  0  0  0  0  0  0  0
   58.5040   30.6410   46.5010 C   0  0  0  0  0  0  0  0  0  0  0  0
   58.7010   30.5160   47.8230 C   0  0  0  0  0  0  0  0  0  0  0  0
   58.8395   31.4122   48.4456 H   0  0  0  0  0  0  0  0  0  0  0  0
   58.7239   29.5174   48.2837 H   0  0  0  0  0  0  0  0  0  0  0  0
  1  2  1  0
  2  3  1  0
  3  4  1  0
  4  5  1  0
  5  6  2  0
  5  7  1  0
  7  8  1  0
  8  9  1  0
  9 10  1  0
  9 11  2  0
 11 12  1  0
 12 13  1  0
 12 14  2  0
 14 15  1  0
 15 16  1  0
 15 17  1  0
 15 18  1  0
 14 19  1  0
 19 20  1  0
 20 21  1  0
 20 22  1  0
 20 23  1  0
 23 24  2  0
 24 25  1  0
 24 26  1  0
 26 27  1  0
 26 28  2  0
 28 29  1  0
 29 30  1  0
 30 31  1  0
 30 32  1  0
 30 33  1  0
 33 34  1  0
 33 35  1  0
 33 36  1  0
 36 37  1  0
 37 38  2  0
 37 39  1  0
 39 40  1  0
 39 41  1  0
 39 42  1  0
 42 43  1  0
 42 44  1  0
 42 45  1  0
 36 46  1  0
 46 47  1  0
 46 48  1  0
 46 49  1  0
 49 50  1  0
 49 51  1  0
 28 52  1  0
 52 53  1  0
 52 54  2  0
 54 55  1  0
 19 56  1  0
 56 57  2  0
 57 58  1  0
 57 59  1  0
  8  3  2  0
 56 11  1  0
 54 23  1  0
 49 29  1  0
M  CHG  2   4  -1   7  -1
M  END
>  <UniqueID>  (47) 
46

>  <SMILES>  (47) 
C=c1/c(=C\c2[n-]c(=O)[n-]c2O)cc(C)n1Cc1ccc(N2CCN(C(=O)CC)CC2)cc1

>  <Energy>  (47) 
133.38387784900246

>  <Genealogy>  (47) 
C=c1c(=Cc2[n-]c(=O)[n-]c2O)cc(C)n1Cc1ccc(N2CCN(C(=O)CC)CC2)cc1 (protonated)
C=c1/c(=C\c2[n-]c(=O)[n-]c2O)cc(C)n1Cc1ccc(N2CCN(C(=O)CC)CC2)cc1 (cis-trans isomerization)
C=c1/c(=C\c2[n-]c(=O)[n-]c2O)cc(C)n1Cc1ccc(N2CCN(C(=O)CC)CC2)cc1 (3D coordinates assigned)
C=c1/c(=C\c2[n-]c(=O)[n-]c2O)cc(C)n1Cc1ccc(N2CCN(C(=O)CC)CC2)cc1 (nonaromatic ring conformer: 133.38387784900246 kcal/mol)

>  <smiles>  (47) 
C=c1c(=Cc2[nH]c(=O)[nH]c2O)cc(C)n1Cc1ccc(N2CCN(C(=O)CC)CC2)cc1

>  <score_type>  (47) 
oracle

>  <origin>  (47) 
adg

>  <m_score__min__energy>  (47) 
-12.94

>  <m_primary>  (47) 
energy

$$$$
47:0
     RDKit          3D

 49 52  0  0  0  0  0  0  0  0999 V2000
   54.4740   28.2230   53.1680 C   0  0  0  0  0  0  0  0  0  0  0  0
   54.8650   29.3970   52.6440 C   0  0  0  0  0  0  0  0  0  0  0  0
   54.0310   30.4580   52.2560 C   0  0  0  0  0  0  0  0  0  0  0  0
   52.6940   30.5250   52.1030 C   0  0  0  0  0  0  0  0  0  0  0  0
   51.9880   30.9300   50.8790 C   0  0  0  0  0  0  0  0  0  0  0  0
   51.8550   30.1370   49.8000 N   0  0  0  0  0  0  0  0  0  0  0  0
   51.0460   30.8500   48.9860 C   0  0  0  0  0  0  0  0  0  0  0  0
   50.6960   30.4380   47.8500 O   0  0  0  0  0  0  0  0  0  0  0  0
   50.6330   32.0320   49.4900 N   0  0  0  0  0  0  0  0  0  0  0  0
   51.2250   32.0620   50.6940 C   0  0  0  0  0  0  0  0  0  0  0  0
   51.0490   33.0870   51.6160 O   0  0  0  0  0  0  0  0  0  0  0  0
   54.8620   31.5380   52.0260 C   0  0  0  0  0  0  0  0  0  0  0  0
   56.1560   31.0980   52.2100 C   0  0  0  0  0  0  0  0  0  0  0  0
   57.3460   31.9590   52.0460 C   0  0  0  0  0  0  0  0  0  0  0  0
   57.3210   33.1350   52.4980 O   0  0  0  0  0  0  0  0  0  0  0  0
   58.5410   31.4590   51.4170 N   0  0  0  0  0  0  0  0  0  0  0  0
   58.4370   30.4720   50.3310 C   0  0  0  0  0  0  0  0  0  0  0  0
   59.7740   30.3110   49.5980 C   0  0  0  0  0  0  0  0  0  0  0  0
   60.8870   30.1170   50.5480 N   0  0  0  0  0  0  0  0  0  0  0  0
   61.3770   28.7440   50.8270 C   0  0  0  0  0  0  0  0  0  0  0  0
   60.4070   27.8670   51.6170 C   0  0  0  0  0  0  0  0  0  0  0  0
   60.6850   27.5520   50.1600 C   0  0  0  0  0  0  0  0  0  0  0  0
   60.9510   31.0450   51.7020 C   0  0  0  0  0  0  0  0  0  0  0  0
   59.8350   32.0970   51.6900 C   0  0  0  0  0  0  0  0  0  0  0  0
   56.1680   29.7880   52.5600 N   0  0  0  0  0  0  0  0  0  0  0  0
   57.3540   29.0170   52.9680 C   0  0  0  0  0  0  0  0  0  0  0  0
   57.8580   29.4920   54.3260 C   0  0  0  0  0  0  0  0  0  0  0  0
   55.2232   27.4631   53.4349 H   0  0  0  0  0  0  0  0  0  0  0  0
   53.4047   28.0219   53.3300 H   0  0  0  0  0  0  0  0  0  0  0  0
   52.0759   30.2524   52.9712 H   0  0  0  0  0  0  0  0  0  0  0  0
   54.5503   32.5558   51.7487 H   0  0  0  0  0  0  0  0  0  0  0  0
   58.1414   29.5012   50.7556 H   0  0  0  0  0  0  0  0  0  0  0  0
   57.6850   30.8253   49.6101 H   0  0  0  0  0  0  0  0  0  0  0  0
   59.7147   29.4372   48.9324 H   0  0  0  0  0  0  0  0  0  0  0  0
   59.9660   31.2277   49.0211 H   0  0  0  0  0  0  0  0  0  0  0  0
   62.4274   29.0609   50.9059 H   0  0  0  0  0  0  0  0  0  0  0  0
   60.7871   27.2002   52.4050 H   0  0  0  0  0  0  0  0  0  0  0  0
   59.5000   28.0540   52.2106 H   0  0  0  0  0  0  0  0  0  0  0  0
   61.2671   26.6578   49.8925 H   0  0  0  0  0  0  0  0  0  0  0  0
   60.0639   27.4171   49.2622 H   0  0  0  0  0  0  0  0  0  0  0  0
   60.8688   30.4578   52.6285 H   0  0  0  0  0  0  0  0  0  0  0  0
   61.9089   31.5820   51.6387 H   0  0  0  0  0  0  0  0  0  0  0  0
   59.7950   32.5957   52.6696 H   0  0  0  0  0  0  0  0  0  0  0  0
   60.0452   32.8349   50.9018 H   0  0  0  0  0  0  0  0  0  0  0  0
   57.0885   27.9515   53.0328 H   0  0  0  0  0  0  0  0  0  0  0  0
   58.1486   29.1649   52.2219 H   0  0  0  0  0  0  0  0  0  0  0  0
   57.3069   28.9726   55.1238 H   0  0  0  0  0  0  0  0  0  0  0  0
   58.9314   29.2695   54.4171 H   0  0  0  0  0  0  0  0  0  0  0  0
   57.6994   30.5767   54.4171 H   0  0  0  0  0  0  0  0  0  0  0  0
  1  2  2  0
  2  3  1  0
  3  4  2  3
  4  5  1  0
  5  6  1  0
  6  7  1  0
  7  8  2  0
  7  9  1  0
  9 10  1  0
 10 11  1  0
  3 12  1  0
 12 13  2  0
 13 14  1  0
 14 15  2  0
 14 16  1  0
 16 17  1  0
 17 18  1  0
 18 19  1  0
 19 20  1  0
 20 21  1  0
 21 22  1  0
 19 23  1  0
 23 24  1  0
 13 25  1  0
 25 26  1  0
 26 27  1  0
 25  2  1  0
 10  5  2  0
 24 16  1  0
 22 20  1  0
  1 28  1  0
  1 29  1  0
  4 30  1  0
 12 31  1  0
 17 32  1  0
 17 33  1  0
 18 34  1  0
 18 35  1  0
 20 36  1  0
 21 37  1  0
 21 38  1  0
 22 39  1  0
 22 40  1  0
 23 41  1  0
 23 42  1  0
 24 43  1  0
 24 44  1  0
 26 45  1  0
 26 46  1  0
 27 47  1  0
 27 48  1  0
 27 49  1  0
M  CHG  3   6  -1   9  -1  11  -1
M  END
>  <UniqueID>  (48) 
47

>  <SMILES>  (48) 
C=c1c(=Cc2[n-]c(=O)[n-]c2[O-])cc(C(=O)N2CCN(C3CC3)CC2)n1CC

>  <Energy>  (48) 
405.9463920242799

>  <Genealogy>  (48) 
C=c1c(=Cc2[n-]c(=O)[n-]c2[O-])cc(C(=O)N2CCN(C3CC3)CC2)n1CC (protonated)
C=c1c(=Cc2[n-]c(=O)[n-]c2[O-])cc(C(=O)N2CCN(C3CC3)CC2)n1CC (3D coordinates assigned)
C=c1c(=Cc2[n-]c(=O)[n-]c2[O-])cc(C(=O)N2CCN(C3CC3)CC2)n1CC (nonaromatic ring conformer: 405.9463920242799 kcal/mol)

>  <smiles>  (48) 
C=c1c(=Cc2[nH]c(=O)[nH]c2O)cc(C(=O)N2CCN(C3CC3)CC2)n1CC

>  <score_type>  (48) 
oracle

>  <origin>  (48) 
adg

>  <m_score__min__energy>  (48) 
-16.289999999999999

>  <m_primary>  (48) 
energy

$$$$
48:0
     RDKit          3D

 59 62  0  0  0  0  0  0  0  0999 V2000
   58.7010   29.6640   47.0480 C   0  0  0  0  0  0  0  0  0  0  0  0
   58.0770   30.4560   46.1620 C   0  0  0  0  0  0  0  0  0  0  0  0
   57.2020   30.0650   45.1350 C   0  0  0  0  0  0  0  0  0  0  0  0
   56.6320   28.8760   44.8620 C   0  0  0  0  0  0  0  0  0  0  0  0
   57.0320   27.5810   45.4320 C   0  0  0  0  0  0  0  0  0  0  0  0
   58.3100   27.2140   45.6790 N   0  0  0  0  0  0  0  0  0  0  0  0
   58.1830   26.0360   46.3300 C   0  0  0  0  0  0  0  0  0  0  0  0
   59.1730   25.3720   46.7390 O   0  0  0  0  0  0  0  0  0  0  0  0
   56.9030   25.6540   46.5140 N   0  0  0  0  0  0  0  0  0  0  0  0
   56.4120   24.5000   47.2620 C   0  0  0  0  0  0  0  0  0  0  0  0
   56.1790   26.6470   45.9770 C   0  0  0  0  0  0  0  0  0  0  0  0
   54.7900   26.7140   45.9960 O   0  0  0  0  0  0  0  0  0  0  0  0
   56.9660   31.1990   44.3740 C   0  0  0  0  0  0  0  0  0  0  0  0
   57.6410   32.2370   44.9810 C   0  0  0  0  0  0  0  0  0  0  0  0
   57.6500   33.6550   44.4960 C   0  0  0  0  0  0  0  0  0  0  0  0
   58.3090   31.7900   46.0650 N   0  0  0  0  0  0  0  0  0  0  0  0
   59.1620   32.5900   46.9000 C   0  0  0  0  0  0  0  0  0  0  0  0
   60.1200   33.4390   46.3280 C   0  0  0  0  0  0  0  0  0  0  0  0
   60.9370   34.2260   47.1440 C   0  0  0  0  0  0  0  0  0  0  0  0
   60.8110   34.1620   48.5350 C   0  0  0  0  0  0  0  0  0  0  0  0
   59.8730   33.2950   49.1150 C   0  0  0  0  0  0  0  0  0  0  0  0
   59.7270   33.2070   50.5800 C   0  0  0  0  0  0  0  0  0  0  0  0
   58.9170   34.0040   51.1290 O   0  0  0  0  0  0  0  0  0  0  0  0
   60.4910   32.2820   51.4110 N   0  0  0  0  0  0  0  0  0  0  0  0
   60.4080   30.8550   51.0360 C   0  0  0  0  0  0  0  0  0  0  0  0
   59.0080   30.2460   51.2310 C   0  0  0  0  0  0  0  0  0  0  0  0
   58.2430   30.8130   52.3560 N   0  0  0  0  0  0  0  0  0  0  0  0
   56.9470   30.2330   52.6400 C   0  0  0  0  0  0  0  0  0  0  0  0
   56.0350   30.8060   53.6860 C   0  0  0  0  0  0  0  0  0  0  0  0
   56.5610   29.2120   52.0060 O   0  0  0  0  0  0  0  0  0  0  0  0
   58.6630   32.0240   53.0850 C   0  0  0  0  0  0  0  0  0  0  0  0
   60.1250   32.4090   52.8330 C   0  0  0  0  0  0  0  0  0  0  0  0
   59.0320   32.5310   48.2930 C   0  0  0  0  0  0  0  0  0  0  0  0
   59.3650   30.1038   47.8068 H   0  0  0  0  0  0  0  0  0  0  0  0
   58.5484   28.5751   47.0153 H   0  0  0  0  0  0  0  0  0  0  0  0
   55.7935   28.8733   44.1500 H   0  0  0  0  0  0  0  0  0  0  0  0
   56.4967   24.6991   48.3405 H   0  0  0  0  0  0  0  0  0  0  0  0
   55.3583   24.3174   47.0045 H   0  0  0  0  0  0  0  0  0  0  0  0
   57.0112   23.6142   47.0045 H   0  0  0  0  0  0  0  0  0  0  0  0
   56.3566   31.2595   43.4602 H   0  0  0  0  0  0  0  0  0  0  0  0
   57.6543   34.3375   45.3586 H   0  0  0  0  0  0  0  0  0  0  0  0
   58.5493   33.8284   43.8867 H   0  0  0  0  0  0  0  0  0  0  0  0
   56.7530   33.8398   43.8867 H   0  0  0  0  0  0  0  0  0  0  0  0
   60.2287   33.4857   45.2344 H   0  0  0  0  0  0  0  0  0  0  0  0
   61.6811   34.8975   46.6908 H   0  0  0  0  0  0  0  0  0  0  0  0
   61.4473   34.7914   49.1745 H   0  0  0  0  0  0  0  0  0  0  0  0
   61.4960   32.5640   51.3220 H   0  0  0  0  0  0  0  0  0  0  0  0
   60.6848   30.7576   49.9759 H   0  0  0  0  0  0  0  0  0  0  0  0
   61.0929   30.3071   51.6999 H   0  0  0  0  0  0  0  0  0  0  0  0
   58.4318   30.4082   50.3081 H   0  0  0  0  0  0  0  0  0  0  0  0
   59.1608   29.1817   51.4632 H   0  0  0  0  0  0  0  0  0  0  0  0
   56.4241   30.5615   54.6854 H   0  0  0  0  0  0  0  0  0  0  0  0
   55.9842   31.8986   53.5695 H   0  0  0  0  0  0  0  0  0  0  0  0
   55.0286   30.3776   53.5695 H   0  0  0  0  0  0  0  0  0  0  0  0
   58.0226   32.8608   52.7694 H   0  0  0  0  0  0  0  0  0  0  0  0
   58.5644   31.8075   54.1590 H   0  0  0  0  0  0  0  0  0  0  0  0
   60.2770   33.4521   53.1473 H   0  0  0  0  0  0  0  0  0  0  0  0
   60.7619   31.7231   53.4109 H   0  0  0  0  0  0  0  0  0  0  0  0
   58.2668   31.8825   48.7445 H   0  0  0  0  0  0  0  0  0  0  0  0
  1  2  2  0
  2  3  1  0
  3  4  2  3
  4  5  1  0
  5  6  1  0
  6  7  1  0
  7  8  2  0
  7  9  1  0
  9 10  1  0
  9 11  1  0
 11 12  1  0
  3 13  1  0
 13 14  2  0
 14 15  1  0
 14 16  1  0
 16 17  1  0
 17 18  2  0
 18 19  1  0
 19 20  2  0
 20 21  1  0
 21 22  1  0
 22 23  2  0
 22 24  1  0
 24 25  1  0
 25 26  1  0
 26 27  1  0
 27 28  1  0
 28 29  1  0
 28 30  2  0
 27 31  1  0
 31 32  1  0
 21 33  2  0
 16  2  1  0
 33 17  1  0
 11  5  2  0
 32 24  1  0
  1 34  1  0
  1 35  1  0
  4 36  1  0
 10 37  1  0
 10 38  1  0
 10 39  1  0
 13 40  1  0
 15 41  1  0
 15 42  1  0
 15 43  1  0
 18 44  1  0
 19 45  1  0
 20 46  1  0
 24 47  1  0
 25 48  1  0
 25 49  1  0
 26 50  1  0
 26 51  1  0
 29 52  1  0
 29 53  1  0
 29 54  1  0
 31 55  1  0
 31 56  1  0
 32 57  1  0
 32 58  1  0
 33 59  1  0
M  CHG  3   6  -1  12  -1  24   1
M  END
>  <UniqueID>  (49) 
48

>  <SMILES>  (49) 
C=c1c(=Cc2[n-]c(=O)n(C)c2[O-])cc(C)n1-c1cccc(C(=O)[NH+]2CCN(C(C)=O)CC2)c1

>  <Energy>  (49) 
153.07261955633388

>  <Genealogy>  (49) 
C=c1c(=Cc2[n-]c(=O)n(C)c2[O-])cc(C)n1-c1cccc(C(=O)[NH+]2CCN(C(C)=O)CC2)c1 (protonated)
C=c1c(=Cc2[n-]c(=O)n(C)c2[O-])cc(C)n1-c1cccc(C(=O)[NH+]2CCN(C(C)=O)CC2)c1 (3D coordinates assigned)
C=c1c(=Cc2[n-]c(=O)n(C)c2[O-])cc(C)n1-c1cccc(C(=O)[NH+]2CCN(C(C)=O)CC2)c1 (nonaromatic ring conformer: 153.07261955633388 kcal/mol)

>  <smiles>  (49) 
C=c1c(=Cc2[nH]c(=O)n(C)c2O)cc(C)n1-c1cccc(C(=O)N2CCN(C(C)=O)CC2)c1

>  <score_type>  (49) 
oracle

>  <origin>  (49) 
adg

>  <m_score__min__energy>  (49) 
-14.039999999999999

>  <m_primary>  (49) 
energy

$$$$
49:0
     RDKit          3D

 64 67  0  0  0  0  0  0  0  0999 V2000
   58.1370   32.1020   43.9620 C   0  0  0  0  0  0  0  0  0  0  0  0
   57.9820   33.5400   44.2290 N   0  0  0  0  0  0  0  0  0  0  0  0
   56.9250   33.8190   45.2230 C   0  0  0  0  0  0  0  0  0  0  0  0
   57.3620   33.5580   46.6850 C   0  0  0  0  0  0  0  0  0  0  0  0
   58.8750   33.8400   46.9750 C   0  0  0  0  0  0  0  0  0  0  0  0
   59.7720   32.6340   47.0290 N   0  0  0  0  0  0  0  0  0  0  0  0
   61.1030   32.9540   47.6240 C   0  0  0  0  0  0  0  0  0  0  0  0
   61.1760   32.6830   49.1470 C   0  0  0  0  0  0  0  0  0  0  0  0
   59.8300   32.7410   49.7350 N   0  0  0  0  0  0  0  0  0  0  0  0
   59.9140   32.6520   51.4770 S   0  0  0  0  0  0  0  0  0  0  0  0
   59.9510   34.0430   52.0450 O   0  0  0  0  0  0  0  0  0  0  0  0
   61.1830   31.9520   51.8770 O   0  0  0  0  0  0  0  0  0  0  0  0
   58.5350   31.7800   52.1510 C   0  0  0  0  0  0  0  0  0  0  0  0
   58.7280   30.5640   52.8180 C   0  0  0  0  0  0  0  0  0  0  0  0
   57.6370   29.8700   53.3480 C   0  0  0  0  0  0  0  0  0  0  0  0
   56.3360   30.3740   53.2070 C   0  0  0  0  0  0  0  0  0  0  0  0
   55.2340   29.6560   53.7900 N   0  0  0  0  0  0  0  0  0  0  0  0
   55.0840   28.2270   53.7440 C   0  0  0  0  0  0  0  0  0  0  0  0
   56.3630   27.2690   54.1030 S   0  0  0  0  0  0  0  0  0  0  0  0
   53.7760   27.6400   53.7760 N   0  0  0  0  0  0  0  0  0  0  0  0
   52.7920   27.8800   52.9570 C   0  0  0  0  0  0  0  0  0  0  0  0
   52.3150   29.2360   52.6090 C   0  0  0  0  0  0  0  0  0  0  0  0
   52.8840   29.9070   51.5160 C   0  0  0  0  0  0  0  0  0  0  0  0
   52.4480   31.1920   51.1740 C   0  0  0  0  0  0  0  0  0  0  0  0
   51.4560   31.8210   51.9330 C   0  0  0  0  0  0  0  0  0  0  0  0
   51.0180   33.0930   51.5880 O   0  0  0  0  0  0  0  0  0  0  0  0
   50.9070   31.1700   53.0420 C   0  0  0  0  0  0  0  0  0  0  0  0
   51.3430   29.8890   53.3890 C   0  0  0  0  0  0  0  0  0  0  0  0
   56.1480   31.6060   52.5530 C   0  0  0  0  0  0  0  0  0  0  0  0
   57.2400   32.3010   52.0280 C   0  0  0  0  0  0  0  0  0  0  0  0
   58.9680   31.6690   49.2000 C   0  0  0  0  0  0  0  0  0  0  0  0
   59.2340   31.4260   47.7000 C   0  0  0  0  0  0  0  0  0  0  0  0
   59.3780   34.8300   45.9030 C   0  0  0  0  0  0  0  0  0  0  0  0
   59.2770   34.2160   44.4960 C   0  0  0  0  0  0  0  0  0  0  0  0
   58.1958   31.5563   44.9153 H   0  0  0  0  0  0  0  0  0  0  0  0
   57.2726   31.7408   43.3855 H   0  0  0  0  0  0  0  0  0  0  0  0
   59.0585   31.9333   43.3855 H   0  0  0  0  0  0  0  0  0  0  0  0
   56.6320   34.8753   45.1313 H   0  0  0  0  0  0  0  0  0  0  0  0
   56.0925   33.1327   45.0086 H   0  0  0  0  0  0  0  0  0  0  0  0
   56.7609   34.2029   47.3428 H   0  0  0  0  0  0  0  0  0  0  0  0
   57.2045   32.4852   46.8700 H   0  0  0  0  0  0  0  0  0  0  0  0
   58.9278   34.2512   47.9939 H   0  0  0  0  0  0  0  0  0  0  0  0
   61.8658   32.3395   47.1234 H   0  0  0  0  0  0  0  0  0  0  0  0
   61.2747   34.0305   47.4767 H   0  0  0  0  0  0  0  0  0  0  0  0
   61.6055   31.6850   49.3189 H   0  0  0  0  0  0  0  0  0  0  0  0
   61.8087   33.4489   49.6193 H   0  0  0  0  0  0  0  0  0  0  0  0
   59.7428   30.1533   52.9252 H   0  0  0  0  0  0  0  0  0  0  0  0
   57.8000   28.9210   53.8799 H   0  0  0  0  0  0  0  0  0  0  0  0
   54.4830   30.2050   54.2650 H   0  0  0  0  0  0  0  0  0  0  0  0
   52.2840   27.0204   52.4953 H   0  0  0  0  0  0  0  0  0  0  0  0
   53.6753   29.4214   50.9261 H   0  0  0  0  0  0  0  0  0  0  0  0
   52.8862   31.7080   50.3070 H   0  0  0  0  0  0  0  0  0  0  0  0
   50.1307   31.6673   53.6421 H   0  0  0  0  0  0  0  0  0  0  0  0
   50.9249   29.3891   54.2752 H   0  0  0  0  0  0  0  0  0  0  0  0
   55.1353   32.0240   52.4547 H   0  0  0  0  0  0  0  0  0  0  0  0
   57.0827   33.2616   51.5157 H   0  0  0  0  0  0  0  0  0  0  0  0
   59.1678   30.7397   49.7537 H   0  0  0  0  0  0  0  0  0  0  0  0
   57.9189   31.9776   49.3191 H   0  0  0  0  0  0  0  0  0  0  0  0
   59.9621   30.6080   47.5963 H   0  0  0  0  0  0  0  0  0  0  0  0
   58.2770   31.1694   47.2222 H   0  0  0  0  0  0  0  0  0  0  0  0
   58.7666   35.7436   45.9417 H   0  0  0  0  0  0  0  0  0  0  0  0
   60.4330   35.0638   46.1088 H   0  0  0  0  0  0  0  0  0  0  0  0
   59.4076   35.0198   43.7565 H   0  0  0  0  0  0  0  0  0  0  0  0
   60.0606   33.4473   44.4247 H   0  0  0  0  0  0  0  0  0  0  0  0
  1  2  1  0
  2  3  1  0
  3  4  1  0
  4  5  1  0
  5  6  1  0
  6  7  1  0
  7  8  1  0
  8  9  1  0
  9 10  1  0
 10 11  2  0
 10 12  2  0
 10 13  1  0
 13 14  2  0
 14 15  1  0
 15 16  2  0
 16 17  1  0
 17 18  1  0
 18 19  2  0
 18 20  1  0
 20 21  2  3
 21 22  1  0
 22 23  2  0
 23 24  1  0
 24 25  2  0
 25 26  1  0
 25 27  1  0
 27 28  2  0
 16 29  1  0
 29 30  2  0
  9 31  1  0
 31 32  1  0
  5 33  1  0
 33 34  1  0
 34  2  1  0
 32  6  1  0
 30 13  1  0
 28 22  1  0
  1 35  1  0
  1 36  1  0
  1 37  1  0
  3 38  1  0
  3 39  1  0
  4 40  1  0
  4 41  1  0
  5 42  1  0
  7 43  1  0
  7 44  1  0
  8 45  1  0
  8 46  1  0
 14 47  1  0
 15 48  1  0
 17 49  1  0
 21 50  1  0
 23 51  1  0
 24 52  1  0
 27 53  1  0
 28 54  1  0
 29 55  1  0
 30 56  1  0
 31 57  1  0
 31 58  1  0
 32 59  1  0
 32 60  1  0
 33 61  1  0
 33 62  1  0
 34 63  1  0
 34 64  1  0
M  CHG  1  26  -1
M  END
>  <UniqueID>  (50) 
49

>  <SMILES>  (50) 
CN1CCC(N2CCN(S(=O)(=O)c3ccc(NC(=S)N=Cc4ccc([O-])cc4)cc3)CC2)CC1

>  <Energy>  (50) 
108.61394558113241

>  <Genealogy>  (50) 
CN1CCC(N2CCN(S(=O)(=O)c3ccc(NC(=S)N=Cc4ccc([O-])cc4)cc3)CC2)CC1 (protonated)
CN1CCC(N2CCN(S(=O)(=O)c3ccc(NC(=S)N=Cc4ccc([O-])cc4)cc3)CC2)CC1 (3D coordinates assigned)
CN1CCC(N2CCN(S(=O)(=O)c3ccc(NC(=S)N=Cc4ccc([O-])cc4)cc3)CC2)CC1 (nonaromatic ring conformer: 108.61394558113241 kcal/mol)

>  <smiles>  (50) 
CN1CCC(N2CCN(S(=O)(=O)c3ccc(NC(=S)N=Cc4ccc(O)cc4)cc3)CC2)CC1

>  <score_type>  (50) 
oracle

>  <origin>  (50) 
adg

>  <m_score__min__energy>  (50) 
-13.609999999999999

>  <m_primary>  (50) 
energy

$$$$
50:0
     RDKit          3D

 63 67  0  0  0  0  0  0  0  0999 V2000
   62.9250   32.9570   51.3300 C   0  0  0  0  0  0  0  0  0  0  0  0
   62.4030   31.7610   50.5920 C   0  0  0  0  0  0  0  0  0  0  0  0
   62.3490   30.5790   51.2630 N   0  0  0  0  0  0  0  0  0  0  0  0
   61.8820   29.4490   50.6780 C   0  0  0  0  0  0  0  0  0  0  0  0
   61.8470   28.3720   51.3260 O   0  0  0  0  0  0  0  0  0  0  0  0
   61.4500   29.4800   49.3940 N   0  0  0  0  0  0  0  0  0  0  0  0
   61.4820   30.6270   48.6700 C   0  0  0  0  0  0  0  0  0  0  0  0
   61.0590   30.6140   47.4840 O   0  0  0  0  0  0  0  0  0  0  0  0
   61.9770   31.8140   49.2430 C   0  0  0  0  0  0  0  0  0  0  0  0
   61.9900   33.2990   48.2610 S   0  0  0  0  0  0  0  0  0  0  0  0
   62.4300   32.9320   46.8700 O   0  0  0  0  0  0  0  0  0  0  0  0
   62.9370   34.3400   48.7870 O   0  0  0  0  0  0  0  0  0  0  0  0
   60.3840   33.9610   48.2140 N   0  0  0  0  0  0  0  0  0  0  0  0
   59.8170   34.5810   49.4150 C   0  0  0  0  0  0  0  0  0  0  0  0
   59.2670   33.5240   50.3320 C   0  0  0  0  0  0  0  0  0  0  0  0
   59.3680   33.6710   51.7260 C   0  0  0  0  0  0  0  0  0  0  0  0
   58.9120   32.6570   52.5750 C   0  0  0  0  0  0  0  0  0  0  0  0
   58.3590   31.4910   52.0400 C   0  0  0  0  0  0  0  0  0  0  0  0
   58.2620   31.3340   50.6540 C   0  0  0  0  0  0  0  0  0  0  0  0
   58.7200   32.3450   49.8010 C   0  0  0  0  0  0  0  0  0  0  0  0
   59.6420   33.9460   46.9830 C   0  0  0  0  0  0  0  0  0  0  0  0
   59.6590   35.0610   46.1310 C   0  0  0  0  0  0  0  0  0  0  0  0
   58.9550   35.0340   44.9250 C   0  0  0  0  0  0  0  0  0  0  0  0
   58.2250   33.9000   44.5630 C   0  0  0  0  0  0  0  0  0  0  0  0
   58.1840   32.7810   45.4130 C   0  0  0  0  0  0  0  0  0  0  0  0
   57.4220   31.5710   45.0320 C   0  0  0  0  0  0  0  0  0  0  0  0
   56.2940   31.7050   44.4850 O   0  0  0  0  0  0  0  0  0  0  0  0
   57.9380   30.2450   45.2680 N   0  0  0  0  0  0  0  0  0  0  0  0
   58.0160   29.2730   44.1660 C   0  0  0  0  0  0  0  0  0  0  0  0
   57.6020   27.8880   44.6520 C   0  0  0  0  0  0  0  0  0  0  0  0
   58.4380   27.4910   45.8340 C   0  0  0  0  0  0  0  0  0  0  0  0
   58.7870   26.1470   46.0340 C   0  0  0  0  0  0  0  0  0  0  0  0
   59.5430   25.7760   47.1480 C   0  0  0  0  0  0  0  0  0  0  0  0
   59.9450   26.7380   48.0790 C   0  0  0  0  0  0  0  0  0  0  0  0
   60.6930   26.3500   49.1890 O   0  0  0  0  0  0  0  0  0  0  0  0
   59.5860   28.0800   47.8920 C   0  0  0  0  0  0  0  0  0  0  0  0
   58.8370   28.4670   46.7700 C   0  0  0  0  0  0  0  0  0  0  0  0
   58.4150   29.9100   46.6210 C   0  0  0  0  0  0  0  0  0  0  0  0
   58.9090   32.8080   46.6160 C   0  0  0  0  0  0  0  0  0  0  0  0
   62.8484   32.7816   52.4132 H   0  0  0  0  0  0  0  0  0  0  0  0
   63.9779   33.1242   51.0591 H   0  0  0  0  0  0  0  0  0  0  0  0
   62.3316   33.8427   51.0591 H   0  0  0  0  0  0  0  0  0  0  0  0
   60.6031   35.1442   49.9393 H   0  0  0  0  0  0  0  0  0  0  0  0
   59.0035   35.2600   49.1196 H   0  0  0  0  0  0  0  0  0  0  0  0
   59.8068   34.5859   52.1507 H   0  0  0  0  0  0  0  0  0  0  0  0
   58.9890   32.7780   53.6656 H   0  0  0  0  0  0  0  0  0  0  0  0
   57.9996   30.6958   52.7096 H   0  0  0  0  0  0  0  0  0  0  0  0
   57.8257   30.4158   50.2338 H   0  0  0  0  0  0  0  0  0  0  0  0
   58.6511   32.2153   48.7108 H   0  0  0  0  0  0  0  0  0  0  0  0
   60.2283   35.9587   46.4138 H   0  0  0  0  0  0  0  0  0  0  0  0
   58.9757   35.9087   44.2583 H   0  0  0  0  0  0  0  0  0  0  0  0
   57.6793   33.8822   43.6080 H   0  0  0  0  0  0  0  0  0  0  0  0
   57.3434   29.5891   43.3550 H   0  0  0  0  0  0  0  0  0  0  0  0
   59.0525   29.2290   43.8002 H   0  0  0  0  0  0  0  0  0  0  0  0
   56.5417   27.9058   44.9445 H   0  0  0  0  0  0  0  0  0  0  0  0
   57.7516   27.1597   43.8413 H   0  0  0  0  0  0  0  0  0  0  0  0
   58.4642   25.3832   45.3112 H   0  0  0  0  0  0  0  0  0  0  0  0
   59.8233   24.7223   47.2934 H   0  0  0  0  0  0  0  0  0  0  0  0
   61.1570   27.0320   49.7790 H   0  0  0  0  0  0  0  0  0  0  0  0
   59.8936   28.8354   48.6301 H   0  0  0  0  0  0  0  0  0  0  0  0
   57.6038   30.1114   47.3362 H   0  0  0  0  0  0  0  0  0  0  0  0
   59.3036   30.5290   46.8138 H   0  0  0  0  0  0  0  0  0  0  0  0
   58.9017   31.9283   47.2764 H   0  0  0  0  0  0  0  0  0  0  0  0
  1  2  1  0
  2  3  1  0
  3  4  1  0
  4  5  2  0
  4  6  1  0
  6  7  1  0
  7  8  2  0
  7  9  1  0
  9 10  1  0
 10 11  2  0
 10 12  2  0
 10 13  1  0
 13 14  1  0
 14 15  1  0
 15 16  2  0
 16 17  1  0
 17 18  2  0
 18 19  1  0
 19 20  2  0
 13 21  1  0
 21 22  2  0
 22 23  1  0
 23 24  2  0
 24 25  1  0
 25 26  1  0
 26 27  2  0
 26 28  1  0
 28 29  1  0
 29 30  1  0
 30 31  1  0
 31 32  2  0
 32 33  1  0
 33 34  2  0
 34 35  1  0
 34 36  1  0
 36 37  2  0
 37 38  1  0
 25 39  2  0
  9  2  2  0
 20 15  1  0
 39 21  1  0
 38 28  1  0
 37 31  1  0
  1 40  1  0
  1 41  1  0
  1 42  1  0
 14 43  1  0
 14 44  1  0
 16 45  1  0
 17 46  1  0
 18 47  1  0
 19 48  1  0
 20 49  1  0
 22 50  1  0
 23 51  1  0
 24 52  1  0
 29 53  1  0
 29 54  1  0
 30 55  1  0
 30 56  1  0
 32 57  1  0
 33 58  1  0
 35 59  1  0
 36 60  1  0
 38 61  1  0
 38 62  1  0
 39 63  1  0
M  CHG  2   3  -1   6  -1
M  END
>  <UniqueID>  (51) 
50

>  <SMILES>  (51) 
Cc1[n-]c(=O)[n-]c(=O)c1S(=O)(=O)N(Cc1ccccc1)c1cccc(C(=O)N2CCc3ccc(O)cc3C2)c1

>  <Energy>  (51) 
82.79792064119793

>  <Genealogy>  (51) 
Cc1[n-]c(=O)[n-]c(=O)c1S(=O)(=O)N(Cc1ccccc1)c1cccc(C(=O)N2CCc3ccc(O)cc3C2)c1 (protonated)
Cc1[n-]c(=O)[n-]c(=O)c1S(=O)(=O)N(Cc1ccccc1)c1cccc(C(=O)N2CCc3ccc(O)cc3C2)c1 (3D coordinates assigned)
Cc1[n-]c(=O)[n-]c(=O)c1S(=O)(=O)N(Cc1ccccc1)c1cccc(C(=O)N2CCc3ccc(O)cc3C2)c1 (nonaromatic ring conformer: 82.79792064119793 kcal/mol)

>  <smiles>  (51) 
Cc1[nH]c(=O)[nH]c(=O)c1S(=O)(=O)N(Cc1ccccc1)c1cccc(C(=O)N2CCc3ccc(O)cc3C2)c1

>  <score_type>  (51) 
oracle

>  <origin>  (51) 
adg

>  <m_score__min__energy>  (51) 
-15.390000000000001

>  <m_primary>  (51) 
energy

$$$$
51:0
     RDKit          3D

 66 70  0  0  0  0  0  0  0  0999 V2000
   62.5130   32.8690   47.6870 O   0  0  0  0  0  0  0  0  0  0  0  0
   61.9150   32.0930   48.4850 C   0  0  0  0  0  0  0  0  0  0  0  0
   61.1550   30.9490   47.9270 C   0  0  0  0  0  0  0  0  0  0  0  0
   61.4830   30.4890   46.6420 C   0  0  0  0  0  0  0  0  0  0  0  0
   60.7940   29.4160   46.0720 C   0  0  0  0  0  0  0  0  0  0  0  0
   59.7540   28.7840   46.7700 C   0  0  0  0  0  0  0  0  0  0  0  0
   59.0590   27.6600   46.1910 N   0  0  0  0  0  0  0  0  0  0  0  0
   58.4120   26.6650   47.0600 C   0  0  0  0  0  0  0  0  0  0  0  0
   58.4500   25.2770   46.4100 C   0  0  0  0  0  0  0  0  0  0  0  0
   57.9440   25.3130   45.0270 N   0  0  0  0  0  0  0  0  0  0  0  0
   57.5000   24.0920   44.3960 C   0  0  0  0  0  0  0  0  0  0  0  0
   58.2170   22.8910   44.5710 C   0  0  0  0  0  0  0  0  0  0  0  0
   57.7820   21.7090   43.9590 C   0  0  0  0  0  0  0  0  0  0  0  0
   56.6250   21.7100   43.1780 C   0  0  0  0  0  0  0  0  0  0  0  0
   55.9070   22.8950   42.9950 C   0  0  0  0  0  0  0  0  0  0  0  0
   56.3370   24.0790   43.6030 C   0  0  0  0  0  0  0  0  0  0  0  0
   57.7920   26.6000   44.3350 C   0  0  0  0  0  0  0  0  0  0  0  0
   58.9170   27.5640   44.7310 C   0  0  0  0  0  0  0  0  0  0  0  0
   59.3950   29.2670   48.0400 C   0  0  0  0  0  0  0  0  0  0  0  0
   60.0820   30.3450   48.6180 C   0  0  0  0  0  0  0  0  0  0  0  0
   59.6600   30.8400   49.8910 N   0  0  0  0  0  0  0  0  0  0  0  0
   58.8520   32.3610   50.0430 S   0  0  0  0  0  0  0  0  0  0  0  0
   57.4350   32.1560   50.5050 O   0  0  0  0  0  0  0  0  0  0  0  0
   59.5710   33.1970   51.0660 O   0  0  0  0  0  0  0  0  0  0  0  0
   58.8680   33.1670   48.4790 C   0  0  0  0  0  0  0  0  0  0  0  0
   58.1500   32.6160   47.4080 C   0  0  0  0  0  0  0  0  0  0  0  0
   58.1810   33.2280   46.1500 C   0  0  0  0  0  0  0  0  0  0  0  0
   58.9360   34.3890   45.9550 C   0  0  0  0  0  0  0  0  0  0  0  0
   59.6590   34.9390   47.0190 C   0  0  0  0  0  0  0  0  0  0  0  0
   59.6250   34.3320   48.2810 C   0  0  0  0  0  0  0  0  0  0  0  0
   62.0880   32.2630   49.9150 N   0  0  0  0  0  0  0  0  0  0  0  0
   62.4580   33.6640   50.2560 C   0  0  0  0  0  0  0  0  0  0  0  0
   63.9730   33.8170   50.5260 C   0  0  0  0  0  0  0  0  0  0  0  0
   64.4800   32.9560   51.5400 O   0  0  0  0  0  0  0  0  0  0  0  0
   63.7130   31.7690   51.7190 C   0  0  0  0  0  0  0  0  0  0  0  0
   63.0680   31.2730   50.4160 C   0  0  0  0  0  0  0  0  0  0  0  0
   62.2908   30.9785   46.0782 H   0  0  0  0  0  0  0  0  0  0  0  0
   61.0692   29.0634   45.0670 H   0  0  0  0  0  0  0  0  0  0  0  0
   58.9411   26.6278   48.0237 H   0  0  0  0  0  0  0  0  0  0  0  0
   57.3626   26.9566   47.2139 H   0  0  0  0  0  0  0  0  0  0  0  0
   59.4887   24.9151   46.4010 H   0  0  0  0  0  0  0  0  0  0  0  0
   57.8054   24.6047   46.9953 H   0  0  0  0  0  0  0  0  0  0  0  0
   59.1245   22.8823   45.1926 H   0  0  0  0  0  0  0  0  0  0  0  0
   58.3528   20.7784   44.0939 H   0  0  0  0  0  0  0  0  0  0  0  0
   56.2785   20.7784   42.7068 H   0  0  0  0  0  0  0  0  0  0  0  0
   55.0011   22.8966   42.3710 H   0  0  0  0  0  0  0  0  0  0  0  0
   55.7625   25.0062   43.4605 H   0  0  0  0  0  0  0  0  0  0  0  0
   57.8260   26.4321   43.2484 H   0  0  0  0  0  0  0  0  0  0  0  0
   56.8277   27.0445   44.6222 H   0  0  0  0  0  0  0  0  0  0  0  0
   59.8638   27.2025   44.3033 H   0  0  0  0  0  0  0  0  0  0  0  0
   58.6665   28.5625   44.3435 H   0  0  0  0  0  0  0  0  0  0  0  0
   58.5659   28.7944   48.5871 H   0  0  0  0  0  0  0  0  0  0  0  0
   57.5603   31.6995   47.5573 H   0  0  0  0  0  0  0  0  0  0  0  0
   57.6113   32.7958   45.3141 H   0  0  0  0  0  0  0  0  0  0  0  0
   58.9613   34.8694   44.9658 H   0  0  0  0  0  0  0  0  0  0  0  0
   60.2555   35.8502   46.8642 H   0  0  0  0  0  0  0  0  0  0  0  0
   60.1916   34.7685   49.1167 H   0  0  0  0  0  0  0  0  0  0  0  0
   61.1830   32.0560   50.3990 H   0  0  0  0  0  0  0  0  0  0  0  0
   62.1795   34.3185   49.4169 H   0  0  0  0  0  0  0  0  0  0  0  0
   61.9207   33.9419   51.1748 H   0  0  0  0  0  0  0  0  0  0  0  0
   64.5123   33.6027   49.5915 H   0  0  0  0  0  0  0  0  0  0  0  0
   64.1256   34.8462   50.8831 H   0  0  0  0  0  0  0  0  0  0  0  0
   64.3734   30.9793   52.1067 H   0  0  0  0  0  0  0  0  0  0  0  0
   62.9000   32.0037   52.4218 H   0  0  0  0  0  0  0  0  0  0  0  0
   63.8512   31.1230   49.6583 H   0  0  0  0  0  0  0  0  0  0  0  0
   62.5471   30.3247   50.6145 H   0  0  0  0  0  0  0  0  0  0  0  0
  1  2  2  0
  2  3  1  0
  3  4  2  0
  4  5  1  0
  5  6  2  0
  6  7  1  0
  7  8  1  0
  8  9  1  0
  9 10  1  0
 10 11  1  0
 11 12  2  0
 12 13  1  0
 13 14  2  0
 14 15  1  0
 15 16  2  0
 10 17  1  0
 17 18  1  0
  6 19  1  0
 19 20  2  0
 20 21  1  0
 21 22  1  0
 22 23  2  0
 22 24  2  0
 22 25  1  0
 25 26  2  0
 26 27  1  0
 27 28  2  0
 28 29  1  0
 29 30  2  0
  2 31  1  0
 31 32  1  0
 32 33  1  0
 33 34  1  0
 34 35  1  0
 35 36  1  0
 20  3  1  0
 30 25  1  0
 36 31  1  0
 18  7  1  0
 16 11  1  0
  4 37  1  0
  5 38  1  0
  8 39  1  0
  8 40  1  0
  9 41  1  0
  9 42  1  0
 12 43  1  0
 13 44  1  0
 14 45  1  0
 15 46  1  0
 16 47  1  0
 17 48  1  0
 17 49  1  0
 18 50  1  0
 18 51  1  0
 19 52  1  0
 26 53  1  0
 27 54  1  0
 28 55  1  0
 29 56  1  0
 30 57  1  0
 31 58  1  0
 32 59  1  0
 32 60  1  0
 33 61  1  0
 33 62  1  0
 35 63  1  0
 35 64  1  0
 36 65  1  0
 36 66  1  0
M  CHG  2  21  -1  31   1
M  END
>  <UniqueID>  (52) 
51

>  <SMILES>  (52) 
O=C(c1ccc(N2CCN(c3ccccc3)CC2)cc1[N-]S(=O)(=O)c1ccccc1)[NH+]1CCOCC1

>  <Energy>  (52) 
105.76359221242443

>  <Genealogy>  (52) 
O=C(c1ccc(N2CCN(c3ccccc3)CC2)cc1[N-]S(=O)(=O)c1ccccc1)[NH+]1CCOCC1 (protonated)
O=C(c1ccc(N2CCN(c3ccccc3)CC2)cc1[N-]S(=O)(=O)c1ccccc1)[NH+]1CCOCC1 (3D coordinates assigned)
O=C(c1ccc(N2CCN(c3ccccc3)CC2)cc1[N-]S(=O)(=O)c1ccccc1)[NH+]1CCOCC1 (nonaromatic ring conformer: 105.76359221242443 kcal/mol)

>  <smiles>  (52) 
O=C(c1ccc(N2CCN(c3ccccc3)CC2)cc1NS(=O)(=O)c1ccccc1)N1CCOCC1

>  <score_type>  (52) 
oracle

>  <origin>  (52) 
adg

>  <m_score__min__energy>  (52) 
-10.08

>  <m_primary>  (52) 
energy

$$$$
52:0
     RDKit          3D

 65 68  0  0  0  0  0  0  0  0999 V2000
   56.2580   29.5810   42.6510 C   0  0  0  0  0  0  0  0  0  0  0  0
   56.7270   30.0650   43.9890 C   0  0  0  0  0  0  0  0  0  0  0  0
   55.8730   30.4060   44.8480 O   0  0  0  0  0  0  0  0  0  0  0  0
   58.1190   30.1180   44.3340 N   0  0  0  0  0  0  0  0  0  0  0  0
   58.6890   29.8580   45.6230 C   0  0  0  0  0  0  0  0  0  0  0  0
   59.8740   30.5080   45.9830 C   0  0  0  0  0  0  0  0  0  0  0  0
   60.4720   30.2550   47.2230 C   0  0  0  0  0  0  0  0  0  0  0  0
   59.8960   29.3370   48.1150 C   0  0  0  0  0  0  0  0  0  0  0  0
   60.5480   29.0590   49.4540 C   0  0  0  0  0  0  0  0  0  0  0  0
   60.4300   30.1790   50.4170 N   0  0  0  0  0  0  0  0  0  0  0  0
   59.1530   30.1530   51.1510 C   0  0  0  0  0  0  0  0  0  0  0  0
   61.5910   30.2930   51.3250 C   0  0  0  0  0  0  0  0  0  0  0  0
   62.8690   30.6090   50.5390 C   0  0  0  0  0  0  0  0  0  0  0  0
   62.7030   31.8970   49.8250 N   0  0  0  0  0  0  0  0  0  0  0  0
   63.6670   32.1000   48.7380 C   0  0  2  0  0  0  0  0  0  0  0  0
   64.9630   32.5590   49.4150 C   0  0  0  0  0  0  0  0  0  0  0  0
   64.4910   33.2640   50.6750 C   0  0  0  0  0  0  0  0  0  0  0  0
   62.9650   33.0640   50.6740 C   0  0  1  0  0  0  0  0  0  0  0  0
   62.2410   34.2760   50.0370 C   0  0  0  0  0  0  0  0  0  0  0  0
   62.0720   34.1590   48.4860 C   0  0  2  0  0  0  0  0  0  0  0  0
   60.6240   33.8160   48.1410 C   0  0  0  0  0  0  0  0  0  0  0  0
   59.8480   33.1210   49.0850 C   0  0  0  0  0  0  0  0  0  0  0  0
   58.5520   32.7040   48.7740 C   0  0  0  0  0  0  0  0  0  0  0  0
   58.0130   32.9630   47.5120 C   0  0  0  0  0  0  0  0  0  0  0  0
   58.7670   33.6520   46.5480 C   0  0  0  0  0  0  0  0  0  0  0  0
   58.2070   33.9460   45.2070 C   0  0  0  0  0  0  0  0  0  0  0  0
   57.3950   32.9940   44.5150 N   0  0  0  0  0  0  0  0  0  0  0  0
   58.4670   35.0470   44.6500 O   0  0  0  0  0  0  0  0  0  0  0  0
   60.0700   34.0720   46.8700 C   0  0  0  0  0  0  0  0  0  0  0  0
   63.1100   33.2080   47.7950 C   0  0  0  0  0  0  0  0  0  0  0  0
   58.7280   28.6560   47.7350 C   0  0  0  0  0  0  0  0  0  0  0  0
   58.1330   28.9090   46.4960 C   0  0  0  0  0  0  0  0  0  0  0  0
   55.4987   28.7974   42.7901 H   0  0  0  0  0  0  0  0  0  0  0  0
   55.8205   30.4201   42.0903 H   0  0  0  0  0  0  0  0  0  0  0  0
   57.1105   29.1701   42.0903 H   0  0  0  0  0  0  0  0  0  0  0  0
   60.3388   31.2223   45.2875 H   0  0  0  0  0  0  0  0  0  0  0  0
   61.3988   30.7787   47.5001 H   0  0  0  0  0  0  0  0  0  0  0  0
   60.0720   28.1705   49.8944 H   0  0  0  0  0  0  0  0  0  0  0  0
   61.6211   28.9092   49.2645 H   0  0  0  0  0  0  0  0  0  0  0  0
   59.3518   30.1570   52.2329 H   0  0  0  0  0  0  0  0  0  0  0  0
   58.5586   31.0392   50.8841 H   0  0  0  0  0  0  0  0  0  0  0  0
   58.5951   29.2433   50.8841 H   0  0  0  0  0  0  0  0  0  0  0  0
   61.4044   31.0997   52.0492 H   0  0  0  0  0  0  0  0  0  0  0  0
   61.7261   29.3338   51.8462 H   0  0  0  0  0  0  0  0  0  0  0  0
   63.7186   30.6817   51.2340 H   0  0  0  0  0  0  0  0  0  0  0  0
   63.0595   29.8073   49.8103 H   0  0  0  0  0  0  0  0  0  0  0  0
   63.8424   31.1945   48.1386 H   0  0  0  0  0  0  0  0  0  0  0  0
   65.5999   31.6975   49.6645 H   0  0  0  0  0  0  0  0  0  0  0  0
   65.5703   33.2096   48.7686 H   0  0  0  0  0  0  0  0  0  0  0  0
   64.9430   32.8090   51.5687 H   0  0  0  0  0  0  0  0  0  0  0  0
   64.7755   34.3264   50.6937 H   0  0  0  0  0  0  0  0  0  0  0  0
   62.6047   32.9421   51.7061 H   0  0  0  0  0  0  0  0  0  0  0  0
   61.2425   34.3624   50.4903 H   0  0  0  0  0  0  0  0  0  0  0  0
   62.8647   35.1617   50.2281 H   0  0  0  0  0  0  0  0  0  0  0  0
   62.3045   35.1468   48.0616 H   0  0  0  0  0  0  0  0  0  0  0  0
   60.2660   32.9034   50.0789 H   0  0  0  0  0  0  0  0  0  0  0  0
   57.9533   32.1694   49.5261 H   0  0  0  0  0  0  0  0  0  0  0  0
   56.9938   32.6260   47.2720 H   0  0  0  0  0  0  0  0  0  0  0  0
   57.2910   32.0130   44.8550 H   0  0  0  0  0  0  0  0  0  0  0  0
   56.9960   33.2340   43.5800 H   0  0  0  0  0  0  0  0  0  0  0  0
   60.6667   34.6090   46.1179 H   0  0  0  0  0  0  0  0  0  0  0  0
   62.6195   32.7215   46.9390 H   0  0  0  0  0  0  0  0  0  0  0  0
   63.9640   33.8307   47.4902 H   0  0  0  0  0  0  0  0  0  0  0  0
   58.2787   27.9189   48.4168 H   0  0  0  0  0  0  0  0  0  0  0  0
   57.2246   28.3620   46.2032 H   0  0  0  0  0  0  0  0  0  0  0  0
  1  2  1  0
  2  3  2  0
  2  4  1  0
  4  5  1  0
  5  6  2  0
  6  7  1  0
  7  8  2  0
  8  9  1  0
  9 10  1  0
 10 11  1  0
 10 12  1  0
 12 13  1  0
 13 14  1  0
 14 15  1  0
 15 16  1  0
 16 17  1  0
 17 18  1  0
 18 19  1  0
 19 20  1  0
 20 21  1  0
 21 22  2  0
 22 23  1  0
 23 24  2  0
 24 25  1  0
 25 26  1  0
 26 27  1  0
 26 28  2  0
 25 29  2  0
 20 30  1  0
  8 31  1  0
 31 32  2  0
 32  5  1  0
 18 14  1  0
 29 21  1  0
 30 15  1  0
  1 33  1  0
  1 34  1  0
  1 35  1  0
  6 36  1  0
  7 37  1  0
  9 38  1  0
  9 39  1  0
 11 40  1  0
 11 41  1  0
 11 42  1  0
 12 43  1  0
 12 44  1  0
 13 45  1  0
 13 46  1  0
 15 47  1  6
 16 48  1  0
 16 49  1  0
 17 50  1  0
 17 51  1  0
 18 52  1  1
 19 53  1  0
 19 54  1  0
 20 55  1  6
 22 56  1  0
 23 57  1  0
 24 58  1  0
 27 59  1  0
 27 60  1  0
 29 61  1  0
 30 62  1  0
 30 63  1  0
 31 64  1  0
 32 65  1  0
M  CHG  1   4  -1
M  END
>  <UniqueID>  (53) 
52

>  <SMILES>  (53) 
CC(=O)[N-]c1ccc(CN(C)CCN2[C@@H]3CC[C@H]2CC(c2cccc(C(N)=O)c2)C3)cc1

>  <Energy>  (53) 
91.5810833634638

>  <Genealogy>  (53) 
CC(=O)[N-]c1ccc(CN(C)CCN2C3CCC2CC(c2cccc(C(N)=O)c2)C3)cc1 (protonated)
CC(=O)[N-]c1ccc(CN(C)CCN2[C@@H]3CC[C@H]2CC(c2cccc(C(N)=O)c2)C3)cc1 (chirality)
CC(=O)[N-]c1ccc(CN(C)CCN2[C@@H]3CC[C@H]2CC(c2cccc(C(N)=O)c2)C3)cc1 (3D coordinates assigned)
CC(=O)[N-]c1ccc(CN(C)CCN2[C@@H]3CC[C@H]2CC(c2cccc(C(N)=O)c2)C3)cc1 (nonaromatic ring conformer: 91.5810833634638 kcal/mol)

>  <smiles>  (53) 
CC(=O)Nc1ccc(CN(C)CCN2C3CCC2CC(c2cccc(C(N)=O)c2)C3)cc1

>  <score_type>  (53) 
oracle

>  <origin>  (53) 
adg

>  <m_score__min__energy>  (53) 
-12.65

>  <m_primary>  (53) 
energy

$$$$
53:0
     RDKit          3D

 43 46  0  0  0  0  0  0  0  0999 V2000
   55.5990   27.9600   45.2030 H   0  0  0  0  0  0  0  0  0  0  0  0
   55.5300   28.9630   44.9150 N   0  0  0  0  0  0  0  0  0  0  0  0
   56.7880   29.2430   43.7620 S   0  0  0  0  0  0  0  0  0  0  0  0
   56.2400   29.0900   42.3690 O   0  0  0  0  0  0  0  0  0  0  0  0
   57.8840   28.2330   43.9650 O   0  0  0  0  0  0  0  0  0  0  0  0
   57.4240   30.8720   43.9720 C   0  0  0  0  0  0  0  0  0  0  0  0
   57.6510   31.6950   42.8620 C   0  0  0  0  0  0  0  0  0  0  0  0
   57.4124   31.3316   41.8515 H   0  0  0  0  0  0  0  0  0  0  0  0
   58.1800   32.9770   43.0350 C   0  0  0  0  0  0  0  0  0  0  0  0
   58.3527   33.6221   42.1609 H   0  0  0  0  0  0  0  0  0  0  0  0
   58.4900   33.4410   44.3160 C   0  0  0  0  0  0  0  0  0  0  0  0
   58.9102   34.4491   44.4469 H   0  0  0  0  0  0  0  0  0  0  0  0
   58.2670   32.6250   45.4370 C   0  0  0  0  0  0  0  0  0  0  0  0
   58.6400   33.0970   46.8150 C   0  0  0  0  0  0  0  0  0  0  0  0
   59.5205   33.7530   46.7492 H   0  0  0  0  0  0  0  0  0  0  0  0
   57.7935   33.6500   47.2481 H   0  0  0  0  0  0  0  0  0  0  0  0
   58.9520   31.9530   47.6690 N   0  0  0  0  0  0  0  0  0  0  0  0
   58.1610   31.4020   48.0720 H   0  0  0  0  0  0  0  0  0  0  0  0
   60.3000   31.5720   47.9820 C   0  0  0  0  0  0  0  0  0  0  0  0
   61.2510   32.3630   47.7440 O   0  0  0  0  0  0  0  0  0  0  0  0
   60.5750   30.3380   48.6590 N   0  0  0  0  0  0  0  0  0  0  0  0
   60.0790   29.1610   48.3920 C   0  0  0  0  0  0  0  0  0  0  0  0
   60.6610   27.9540   48.8770 C   0  0  0  0  0  0  0  0  0  0  0  0
   61.5682   27.9889   49.4981 H   0  0  0  0  0  0  0  0  0  0  0  0
   60.0720   26.7210   48.5590 C   0  0  0  0  0  0  0  0  0  0  0  0
   60.5117   25.7768   48.9128 H   0  0  0  0  0  0  0  0  0  0  0  0
   58.9480   26.7250   47.8050 N   0  0  0  0  0  0  0  0  0  0  0  0
   58.2480   25.6820   47.4070 N   0  0  0  0  0  0  0  0  0  0  0  0
   57.2230   26.2160   46.6980 C   0  0  0  0  0  0  0  0  0  0  0  0
   56.1780   25.4110   46.0580 C   0  0  0  0  0  0  0  0  0  0  0  0
   54.9260   25.7890   45.9490 O   0  0  0  0  0  0  0  0  0  0  0  0
   54.2570   24.8450   45.3280 C   0  0  0  0  0  0  0  0  0  0  0  0
   53.1832   24.8806   45.0920 H   0  0  0  0  0  0  0  0  0  0  0  0
   55.1050   23.8010   45.0160 C   0  0  0  0  0  0  0  0  0  0  0  0
   54.8419   22.8675   44.4971 H   0  0  0  0  0  0  0  0  0  0  0  0
   56.3490   24.1660   45.4870 C   0  0  0  0  0  0  0  0  0  0  0  0
   57.2817   23.5865   45.4213 H   0  0  0  0  0  0  0  0  0  0  0  0
   57.2560   27.5730   46.6380 N   0  0  0  0  0  0  0  0  0  0  0  0
   58.3650   27.8380   47.3530 C   0  0  0  0  0  0  0  0  0  0  0  0
   58.8960   29.0950   47.6300 C   0  0  0  0  0  0  0  0  0  0  0  0
   58.4062   30.0096   47.2646 H   0  0  0  0  0  0  0  0  0  0  0  0
   57.7360   31.3370   45.2570 C   0  0  0  0  0  0  0  0  0  0  0  0
   57.5640   30.6896   46.1295 H   0  0  0  0  0  0  0  0  0  0  0  0
  1  2  1  0
  2  3  1  0
  3  4  2  0
  3  5  2  0
  3  6  1  0
  6  7  2  0
  7  8  1  0
  7  9  1  0
  9 10  1  0
  9 11  2  0
 11 12  1  0
 11 13  1  0
 13 14  1  0
 14 15  1  0
 14 16  1  0
 14 17  1  0
 17 18  1  0
 17 19  1  0
 19 20  2  0
 19 21  1  0
 21 22  2  0
 22 23  1  0
 23 24  1  0
 23 25  2  0
 25 26  1  0
 25 27  1  0
 27 28  1  0
 28 29  2  0
 29 30  1  0
 30 31  1  0
 31 32  1  0
 32 33  1  0
 32 34  2  0
 34 35  1  0
 34 36  1  0
 36 37  1  0
 29 38  1  0
 38 39  1  0
 39 40  2  0
 40 41  1  0
 13 42  2  0
 42 43  1  0
 42  6  1  0
 40 22  1  0
 39 27  1  0
 36 30  2  0
M  CHG  2   2  -1  38  -1
M  END
>  <UniqueID>  (54) 
53

>  <SMILES>  (54) 
[NH-]S(=O)(=O)c1cccc(CNC(=O)/N=c2\ccn3nc(-c4ccco4)[n-]c3c2)c1

>  <Energy>  (54) 
114.44978822933102

>  <Genealogy>  (54) 
[NH-]S(=O)(=O)c1cccc(CNC(=O)N=c2ccn3nc(-c4ccco4)[n-]c3c2)c1 (protonated)
[NH-]S(=O)(=O)c1cccc(CNC(=O)/N=c2\ccn3nc(-c4ccco4)[n-]c3c2)c1 (cis-trans isomerization)
[NH-]S(=O)(=O)c1cccc(CNC(=O)/N=c2\ccn3nc(-c4ccco4)[n-]c3c2)c1 (3D coordinates assigned)
[NH-]S(=O)(=O)c1cccc(CNC(=O)/N=c2\ccn3nc(-c4ccco4)[n-]c3c2)c1 (optimized conformer: 114.44978822933102 kcal/mol)

>  <smiles>  (54) 
NS(=O)(=O)c1cccc(CNC(=O)N=c2ccn3nc(-c4ccco4)[nH]c3c2)c1

>  <score_type>  (54) 
oracle

>  <origin>  (54) 
adg

>  <m_score__min__energy>  (54) 
-12.720000000000001

>  <m_primary>  (54) 
energy

$$$$
54:0
     RDKit          3D

 60 63  0  0  0  0  0  0  0  0999 V2000
   60.6540   29.2340   45.0650 C   0  0  0  0  0  0  0  0  0  0  0  0
   59.2190   29.4470   44.6870 C   0  0  0  0  0  0  0  0  0  0  0  0
   58.4670   28.3930   44.1460 C   0  0  0  0  0  0  0  0  0  0  0  0
   57.1170   28.5800   43.8370 C   0  0  0  0  0  0  0  0  0  0  0  0
   56.5070   29.8150   44.0710 C   0  0  0  0  0  0  0  0  0  0  0  0
   57.2510   30.8800   44.6070 C   0  0  0  0  0  0  0  0  0  0  0  0
   56.6510   32.1550   44.8830 N   0  0  0  0  0  0  0  0  0  0  0  0
   57.3470   33.3620   45.2210 C   0  0  0  0  0  0  0  0  0  0  0  0
   57.1100   34.4010   44.5500 O   0  0  0  0  0  0  0  0  0  0  0  0
   58.2880   33.4340   46.3640 C   0  0  0  0  0  0  0  0  0  0  0  0
   59.4680   34.1910   46.2830 C   0  0  0  0  0  0  0  0  0  0  0  0
   60.3370   34.2360   47.3760 C   0  0  0  0  0  0  0  0  0  0  0  0
   60.0480   33.5360   48.5060 N   0  0  0  0  0  0  0  0  0  0  0  0
   58.9240   32.7790   48.6070 C   0  0  0  0  0  0  0  0  0  0  0  0
   58.5980   31.8720   50.1190 S   0  0  0  0  0  0  0  0  0  0  0  0
   60.1130   30.8520   50.0220 C   0  0  0  0  0  0  0  0  0  0  0  0
   60.0620   29.8700   48.8820 C   0  0  0  0  0  0  0  0  0  0  0  0
   60.4220   30.2490   47.7370 O   0  0  0  0  0  0  0  0  0  0  0  0
   59.5550   28.5360   49.0360 N   0  0  0  0  0  0  0  0  0  0  0  0
   59.4050   27.5630   47.9970 C   0  0  0  0  0  0  0  0  0  0  0  0
   60.5490   27.0660   47.3600 C   0  0  0  0  0  0  0  0  0  0  0  0
   60.4320   26.1030   46.3550 C   0  0  0  0  0  0  0  0  0  0  0  0
   59.1730   25.6190   45.9900 C   0  0  0  0  0  0  0  0  0  0  0  0
   58.0240   26.0910   46.6370 C   0  0  0  0  0  0  0  0  0  0  0  0
   56.4440   25.4400   46.2110 S   0  0  0  0  0  0  0  0  0  0  0  0
   55.5000   26.5820   45.9550 O   0  0  0  0  0  0  0  0  0  0  0  0
   55.9060   24.6240   47.3560 O   0  0  0  0  0  0  0  0  0  0  0  0
   56.5760   24.4560   44.7760 N   0  0  0  0  0  0  0  0  0  0  0  0
   57.3660   23.2460   45.0650 C   0  0  0  0  0  0  0  0  0  0  0  0
   57.2480   22.2220   43.9180 C   0  0  0  0  0  0  0  0  0  0  0  0
   56.6840   22.8160   42.7660 O   0  0  0  0  0  0  0  0  0  0  0  0
   55.3480   23.2070   43.0340 C   0  0  0  0  0  0  0  0  0  0  0  0
   55.2350   24.0870   44.2980 C   0  0  0  0  0  0  0  0  0  0  0  0
   58.1440   27.0500   47.6530 C   0  0  0  0  0  0  0  0  0  0  0  0
   58.0230   32.7160   47.5400 C   0  0  0  0  0  0  0  0  0  0  0  0
   58.5980   30.6820   44.9360 C   0  0  0  0  0  0  0  0  0  0  0  0
   60.7463   29.2203   46.1610 H   0  0  0  0  0  0  0  0  0  0  0  0
   61.0024   28.2743   44.6557 H   0  0  0  0  0  0  0  0  0  0  0  0
   61.2662   30.0511   44.6557 H   0  0  0  0  0  0  0  0  0  0  0  0
   58.9413   27.4172   43.9647 H   0  0  0  0  0  0  0  0  0  0  0  0
   56.5329   27.7524   43.4083 H   0  0  0  0  0  0  0  0  0  0  0  0
   55.4416   29.9541   43.8351 H   0  0  0  0  0  0  0  0  0  0  0  0
   59.7069   34.7457   45.3636 H   0  0  0  0  0  0  0  0  0  0  0  0
   61.2560   34.8382   47.3227 H   0  0  0  0  0  0  0  0  0  0  0  0
   60.9789   31.5154   49.8803 H   0  0  0  0  0  0  0  0  0  0  0  0
   60.1973   30.2805   50.9581 H   0  0  0  0  0  0  0  0  0  0  0  0
   61.5431   27.4353   47.6522 H   0  0  0  0  0  0  0  0  0  0  0  0
   61.3329   25.7248   45.8498 H   0  0  0  0  0  0  0  0  0  0  0  0
   59.0842   24.8660   45.1931 H   0  0  0  0  0  0  0  0  0  0  0  0
   58.4222   23.5271   45.1890 H   0  0  0  0  0  0  0  0  0  0  0  0
   56.9788   22.7864   45.9863 H   0  0  0  0  0  0  0  0  0  0  0  0
   58.2498   21.8399   43.6721 H   0  0  0  0  0  0  0  0  0  0  0  0
   56.5930   21.4015   44.2462 H   0  0  0  0  0  0  0  0  0  0  0  0
   54.9665   23.7750   42.1727 H   0  0  0  0  0  0  0  0  0  0  0  0
   54.7594   22.2940   43.2070 H   0  0  0  0  0  0  0  0  0  0  0  0
   54.6703   24.9997   44.0570 H   0  0  0  0  0  0  0  0  0  0  0  0
   54.7139   23.5226   45.0853 H   0  0  0  0  0  0  0  0  0  0  0  0
   57.2465   27.4019   48.1827 H   0  0  0  0  0  0  0  0  0  0  0  0
   57.1109   32.1066   47.6220 H   0  0  0  0  0  0  0  0  0  0  0  0
   59.1741   31.5001   45.3930 H   0  0  0  0  0  0  0  0  0  0  0  0
  1  2  1  0
  2  3  2  0
  3  4  1  0
  4  5  2  0
  5  6  1  0
  6  7  1  0
  7  8  1  0
  8  9  2  0
  8 10  1  0
 10 11  2  0
 11 12  1  0
 12 13  2  0
 13 14  1  0
 14 15  1  0
 15 16  1  0
 16 17  1  0
 17 18  2  0
 17 19  1  0
 19 20  1  0
 20 21  2  0
 21 22  1  0
 22 23  2  0
 23 24  1  0
 24 25  1  0
 25 26  2  0
 25 27  2  0
 25 28  1  0
 28 29  1  0
 29 30  1  0
 30 31  1  0
 31 32  1  0
 32 33  1  0
 24 34  2  0
 14 35  2  0
  6 36  2  0
 36  2  1  0
 35 10  1  0
 34 20  1  0
 33 28  1  0
  1 37  1  0
  1 38  1  0
  1 39  1  0
  3 40  1  0
  4 41  1  0
  5 42  1  0
 11 43  1  0
 12 44  1  0
 16 45  1  0
 16 46  1  0
 21 47  1  0
 22 48  1  0
 23 49  1  0
 29 50  1  0
 29 51  1  0
 30 52  1  0
 30 53  1  0
 32 54  1  0
 32 55  1  0
 33 56  1  0
 33 57  1  0
 34 58  1  0
 35 59  1  0
 36 60  1  0
M  CHG  2   7  -1  19  -1
M  END
>  <UniqueID>  (55) 
54

>  <SMILES>  (55) 
Cc1cccc([N-]C(=O)c2ccnc(SCC(=O)[N-]c3cccc(S(=O)(=O)N4CCOCC4)c3)c2)c1

>  <Energy>  (55) 
77.29872030779995

>  <Genealogy>  (55) 
Cc1cccc([N-]C(=O)c2ccnc(SCC(=O)[N-]c3cccc(S(=O)(=O)N4CCOCC4)c3)c2)c1 (protonated)
Cc1cccc([N-]C(=O)c2ccnc(SCC(=O)[N-]c3cccc(S(=O)(=O)N4CCOCC4)c3)c2)c1 (3D coordinates assigned)
Cc1cccc([N-]C(=O)c2ccnc(SCC(=O)[N-]c3cccc(S(=O)(=O)N4CCOCC4)c3)c2)c1 (nonaromatic ring conformer: 77.29872030779995 kcal/mol)

>  <smiles>  (55) 
Cc1cccc(NC(=O)c2ccnc(SCC(=O)Nc3cccc(S(=O)(=O)N4CCOCC4)c3)c2)c1

>  <score_type>  (55) 
oracle

>  <origin>  (55) 
adg

>  <m_score__min__energy>  (55) 
-13.98

>  <m_primary>  (55) 
energy

$$$$
55:0
     RDKit          3D

 90 93  0  0  0  0  0  0  0  0999 V2000
   59.0550   28.6000   44.5550 C   0  0  0  0  0  0  0  0  0  0  0  0
   57.6870   29.2150   44.8410 C   0  0  0  0  0  0  0  0  0  0  0  0
   56.8650   29.4680   43.5650 C   0  0  0  0  0  0  0  0  0  0  0  0
   57.0360   30.8950   42.9920 C   0  0  0  0  0  0  0  0  0  0  0  0
   57.8660   31.8180   43.9030 C   0  0  0  0  0  0  0  0  0  0  0  0
   56.9850   32.6080   44.8830 C   0  0  0  0  0  0  0  0  0  0  0  0
   57.3740   34.0150   44.9030 N   0  0  0  0  0  0  0  0  0  0  0  0
   58.6790   34.4660   45.2850 C   0  0  0  0  0  0  0  0  0  0  0  0
   59.2770   35.3220   44.5770 O   0  0  0  0  0  0  0  0  0  0  0  0
   59.3200   33.9430   46.5140 C   0  0  0  0  0  0  0  0  0  0  0  0
   59.6190   32.5720   46.6270 C   0  0  0  0  0  0  0  0  0  0  0  0
   60.2520   32.0790   47.7710 C   0  0  0  0  0  0  0  0  0  0  0  0
   60.5920   32.9410   48.8200 C   0  0  0  0  0  0  0  0  0  0  0  0
   61.2800   32.4400   49.9730 N   0  0  0  0  0  0  0  0  0  0  0  0
   60.6300   31.7210   51.0590 C   0  0  0  0  0  0  0  0  0  0  0  0
   61.6280   30.6210   51.4800 C   0  0  2  0  0  0  0  0  0  0  0  0
   61.6040   30.3400   52.9960 C   0  0  0  0  0  0  0  0  0  0  0  0
   61.3900   28.8470   53.2730 C   0  0  0  0  0  0  0  0  0  0  0  0
   59.9430   28.4150   52.9600 C   0  0  0  0  0  0  0  0  0  0  0  0
   59.2090   27.8610   54.1360 N   0  0  2  0  0  0  0  0  0  0  0  0
   58.5910   26.5440   53.7990 C   0  0  0  0  0  0  0  0  0  0  0  0
   59.6210   25.4690   53.3890 C   0  0  0  0  0  0  0  0  0  0  0  0
   58.9620   24.1840   52.8930 C   0  0  0  0  0  0  0  0  0  0  0  0
   58.3200   28.9030   54.7880 C   0  0  1  0  0  0  0  0  0  0  0  0
   58.5720   30.3930   54.4240 C   0  0  0  0  0  0  0  0  0  0  0  0
   57.8780   30.8830   53.1480 C   0  0  0  0  0  0  0  0  0  0  0  0
   56.4760   30.3680   52.9730 C   0  0  0  0  0  0  0  0  0  0  0  0
   55.6590   30.9900   52.0160 C   0  0  0  0  0  0  0  0  0  0  0  0
   54.3730   30.4960   51.7350 C   0  0  0  0  0  0  0  0  0  0  0  0
   53.5160   31.1140   50.7570 N   0  0  0  0  0  0  0  0  0  0  0  0
   51.8010   30.8670   50.6780 S   0  0  0  0  0  0  0  0  0  0  0  0
   51.4740   30.0500   49.4600 O   0  0  0  0  0  0  0  0  0  0  0  0
   51.3380   30.1290   51.9030 O   0  0  0  0  0  0  0  0  0  0  0  0
   51.0170   32.3480   50.5670 O   0  0  0  0  0  0  0  0  0  0  0  0
   53.9170   29.3650   52.4230 C   0  0  0  0  0  0  0  0  0  0  0  0
   54.7250   28.7370   53.3700 C   0  0  0  0  0  0  0  0  0  0  0  0
   56.0140   29.2180   53.6450 C   0  0  0  0  0  0  0  0  0  0  0  0
   56.8050   28.5570   54.7450 C   0  0  0  0  0  0  0  0  0  0  0  0
   63.0080   31.0800   50.9690 C   0  0  0  0  0  0  0  0  0  0  0  0
   62.6510   32.0870   49.9500 C   0  0  0  0  0  0  0  0  0  0  0  0
   63.4760   32.5850   49.1400 O   0  0  0  0  0  0  0  0  0  0  0  0
   60.3000   34.3060   48.7140 C   0  0  0  0  0  0  0  0  0  0  0  0
   59.6600   34.8040   47.5750 C   0  0  0  0  0  0  0  0  0  0  0  0
   59.5607   28.3727   45.5051 H   0  0  0  0  0  0  0  0  0  0  0  0
   58.9267   27.6730   43.9770 H   0  0  0  0  0  0  0  0  0  0  0  0
   59.6632   29.3113   43.9770 H   0  0  0  0  0  0  0  0  0  0  0  0
   57.1234   28.5300   45.4914 H   0  0  0  0  0  0  0  0  0  0  0  0
   57.8575   30.1894   45.3222 H   0  0  0  0  0  0  0  0  0  0  0  0
   57.1810   28.7451   42.7985 H   0  0  0  0  0  0  0  0  0  0  0  0
   55.8050   29.3535   43.8356 H   0  0  0  0  0  0  0  0  0  0  0  0
   57.5389   30.8222   42.0164 H   0  0  0  0  0  0  0  0  0  0  0  0
   56.0319   31.3360   42.9069 H   0  0  0  0  0  0  0  0  0  0  0  0
   58.5744   31.2043   44.4787 H   0  0  0  0  0  0  0  0  0  0  0  0
   58.3926   32.5411   43.2628 H   0  0  0  0  0  0  0  0  0  0  0  0
   55.9337   32.5279   44.5695 H   0  0  0  0  0  0  0  0  0  0  0  0
   57.1136   32.1898   45.8922 H   0  0  0  0  0  0  0  0  0  0  0  0
   59.3528   31.8850   45.8102 H   0  0  0  0  0  0  0  0  0  0  0  0
   60.4846   31.0066   47.8477 H   0  0  0  0  0  0  0  0  0  0  0  0
   60.4267   32.3986   51.9013 H   0  0  0  0  0  0  0  0  0  0  0  0
   59.6634   31.2980   50.7478 H   0  0  0  0  0  0  0  0  0  0  0  0
   61.3551   29.6520   51.0366 H   0  0  0  0  0  0  0  0  0  0  0  0
   62.5622   30.6540   53.4356 H   0  0  0  0  0  0  0  0  0  0  0  0
   60.7723   30.9032   53.4445 H   0  0  0  0  0  0  0  0  0  0  0  0
   62.0805   28.2646   52.6453 H   0  0  0  0  0  0  0  0  0  0  0  0
   61.5813   28.6635   54.3406 H   0  0  0  0  0  0  0  0  0  0  0  0
   59.3921   29.2922   52.5898 H   0  0  0  0  0  0  0  0  0  0  0  0
   60.0048   27.6092   52.2138 H   0  0  0  0  0  0  0  0  0  0  0  0
   59.9850   27.6470   54.8040 H   0  0  0  0  0  0  0  0  0  0  0  0
   58.0409   26.1816   54.6799 H   0  0  0  0  0  0  0  0  0  0  0  0
   57.9310   26.7073   52.9342 H   0  0  0  0  0  0  0  0  0  0  0  0
   60.2523   25.8745   52.5846 H   0  0  0  0  0  0  0  0  0  0  0  0
   60.2131   25.2171   54.2812 H   0  0  0  0  0  0  0  0  0  0  0  0
   58.6500   23.5757   53.7547 H   0  0  0  0  0  0  0  0  0  0  0  0
   58.0814   24.4352   52.2835 H   0  0  0  0  0  0  0  0  0  0  0  0
   59.6798   23.6155   52.2835 H   0  0  0  0  0  0  0  0  0  0  0  0
   58.6614   28.8289   55.8311 H   0  0  0  0  0  0  0  0  0  0  0  0
   58.2185   31.0118   55.2619 H   0  0  0  0  0  0  0  0  0  0  0  0
   59.6521   30.4811   54.2353 H   0  0  0  0  0  0  0  0  0  0  0  0
   57.8410   31.9820   53.1756 H   0  0  0  0  0  0  0  0  0  0  0  0
   58.4646   30.4978   52.3009 H   0  0  0  0  0  0  0  0  0  0  0  0
   56.0297   31.8755   51.4789 H   0  0  0  0  0  0  0  0  0  0  0  0
   53.9320   31.7830   50.0690 H   0  0  0  0  0  0  0  0  0  0  0  0
   52.9124   28.9684   52.2145 H   0  0  0  0  0  0  0  0  0  0  0  0
   54.3476   27.8546   53.9075 H   0  0  0  0  0  0  0  0  0  0  0  0
   56.3625   28.8569   55.7064 H   0  0  0  0  0  0  0  0  0  0  0  0
   56.7499   27.4766   54.5460 H   0  0  0  0  0  0  0  0  0  0  0  0
   63.6034   31.5272   51.7787 H   0  0  0  0  0  0  0  0  0  0  0  0
   63.6265   30.2590   50.5772 H   0  0  0  0  0  0  0  0  0  0  0  0
   60.5753   34.9898   49.5304 H   0  0  0  0  0  0  0  0  0  0  0  0
   59.4205   35.8755   47.5073 H   0  0  0  0  0  0  0  0  0  0  0  0
  1  2  1  0
  2  3  1  0
  3  4  1  0
  4  5  1  0
  5  6  1  0
  6  7  1  0
  7  8  1  0
  8  9  2  0
  8 10  1  0
 10 11  2  0
 11 12  1  0
 12 13  2  0
 13 14  1  0
 14 15  1  0
 15 16  1  0
 16 17  1  0
 17 18  1  0
 18 19  1  0
 19 20  1  0
 20 21  1  0
 21 22  1  0
 22 23  1  0
 20 24  1  0
 24 25  1  0
 25 26  1  0
 26 27  1  0
 27 28  2  0
 28 29  1  0
 29 30  1  0
 30 31  1  0
 31 32  2  0
 31 33  2  0
 31 34  1  0
 29 35  2  0
 35 36  1  0
 36 37  2  0
 37 38  1  0
 16 39  1  0
 39 40  1  0
 40 41  2  0
 13 42  1  0
 42 43  2  0
 43 10  1  0
 40 14  1  0
 38 24  1  0
 37 27  1  0
  1 44  1  0
  1 45  1  0
  1 46  1  0
  2 47  1  0
  2 48  1  0
  3 49  1  0
  3 50  1  0
  4 51  1  0
  4 52  1  0
  5 53  1  0
  5 54  1  0
  6 55  1  0
  6 56  1  0
 11 57  1  0
 12 58  1  0
 15 59  1  0
 15 60  1  0
 16 61  1  6
 17 62  1  0
 17 63  1  0
 18 64  1  0
 18 65  1  0
 19 66  1  0
 19 67  1  0
 20 68  1  1
 21 69  1  0
 21 70  1  0
 22 71  1  0
 22 72  1  0
 23 73  1  0
 23 74  1  0
 23 75  1  0
 24 76  1  1
 25 77  1  0
 25 78  1  0
 26 79  1  0
 26 80  1  0
 28 81  1  0
 30 82  1  0
 35 83  1  0
 36 84  1  0
 38 85  1  0
 38 86  1  0
 39 87  1  0
 39 88  1  0
 42 89  1  0
 43 90  1  0
M  CHG  3   7  -1  20   1  34  -1
M  END
>  <UniqueID>  (56) 
55

>  <SMILES>  (56) 
CCCCCC[N-]C(=O)c1ccc(N2C[C@H](CCC[N@H+](CCC)C3CCc4cc(NS(=O)(=O)[O-])ccc4C3)CC2=O)cc1

>  <Energy>  (56) 
118.74930844958425

>  <Genealogy>  (56) 
CCCCCC[N-]C(=O)c1ccc(N2CC(CCC[NH+](CCC)C3CCc4cc(NS(=O)(=O)[O-])ccc4C3)CC2=O)cc1 (protonated)
CCCCCC[N-]C(=O)c1ccc(N2C[C@H](CCC[N@H+](CCC)C3CCc4cc(NS(=O)(=O)[O-])ccc4C3)CC2=O)cc1 (chirality)
CCCCCC[N-]C(=O)c1ccc(N2C[C@H](CCC[N@H+](CCC)C3CCc4cc(NS(=O)(=O)[O-])ccc4C3)CC2=O)cc1 (3D coordinates assigned)
CCCCCC[N-]C(=O)c1ccc(N2C[C@H](CCC[N@H+](CCC)C3CCc4cc(NS(=O)(=O)[O-])ccc4C3)CC2=O)cc1 (nonaromatic ring conformer: 118.74930844958425 kcal/mol)

>  <smiles>  (56) 
CCCCCCNC(=O)c1ccc(N2CC(CCCN(CCC)C3CCc4cc(NS(=O)(=O)O)ccc4C3)CC2=O)cc1

>  <score_type>  (56) 
oracle

>  <origin>  (56) 
adg

>  <m_score__min__energy>  (56) 
-12.6

>  <m_primary>  (56) 
energy

$$$$
56:0
     RDKit          3D

 64 67  0  0  0  0  0  0  0  0999 V2000
   63.9960   33.6410   51.4630 C   0  0  0  0  0  0  0  0  0  0  0  0
   63.3860   33.9460   50.0940 C   0  0  2  0  0  0  0  0  0  0  0  0
   61.8350   33.8700   50.1260 C   0  0  0  0  0  0  0  0  0  0  0  0
   61.2950   33.2850   48.8830 N   0  0  0  0  0  0  0  0  0  0  0  0
   59.5760   33.5730   48.7720 S   0  0  0  0  0  0  0  0  0  0  0  0
   59.2890   35.0050   49.1280 O   0  0  0  0  0  0  0  0  0  0  0  0
   58.8580   32.6960   49.7590 O   0  0  0  0  0  0  0  0  0  0  0  0
   58.9630   33.2380   47.1500 C   0  0  0  0  0  0  0  0  0  0  0  0
   58.9330   34.2510   46.1840 C   0  0  0  0  0  0  0  0  0  0  0  0
   58.4700   33.9800   44.8960 C   0  0  0  0  0  0  0  0  0  0  0  0
   58.0310   32.6950   44.5650 C   0  0  0  0  0  0  0  0  0  0  0  0
   58.0410   31.6670   45.5250 C   0  0  0  0  0  0  0  0  0  0  0  0
   57.5900   30.3060   45.1480 C   0  0  0  0  0  0  0  0  0  0  0  0
   56.3730   30.1240   44.8730 O   0  0  0  0  0  0  0  0  0  0  0  0
   58.5150   29.2040   45.0830 N   0  0  0  0  0  0  0  0  0  0  0  0
   58.1380   27.8680   44.7100 C   0  0  0  0  0  0  0  0  0  0  0  0
   58.1420   27.5060   43.3550 C   0  0  0  0  0  0  0  0  0  0  0  0
   57.7830   26.2130   42.9690 C   0  0  0  0  0  0  0  0  0  0  0  0
   57.4290   25.2650   43.9320 C   0  0  0  0  0  0  0  0  0  0  0  0
   57.4410   25.6050   45.2910 C   0  0  0  0  0  0  0  0  0  0  0  0
   56.9890   24.4110   46.5090 S   0  0  0  0  0  0  0  0  0  0  0  0
   57.4620   23.0540   46.0700 O   0  0  0  0  0  0  0  0  0  0  0  0
   57.6760   24.7410   47.8060 O   0  0  0  0  0  0  0  0  0  0  0  0
   55.2570   24.3620   46.7670 N   0  0  0  0  0  0  0  0  0  0  0  0
   54.7940   22.9870   46.9850 C   0  0  0  0  0  0  0  0  0  0  0  0
   54.2460   22.4530   45.6700 C   0  0  0  0  0  0  0  0  0  0  0  0
   54.0610   23.6630   44.7770 C   0  0  0  0  0  0  0  0  0  0  0  0
   54.5300   24.8580   45.5930 C   0  0  0  0  0  0  0  0  0  0  0  0
   57.8130   26.9010   45.6780 C   0  0  0  0  0  0  0  0  0  0  0  0
   58.5170   31.9500   46.8190 C   0  0  0  0  0  0  0  0  0  0  0  0
   61.9890   33.8280   47.7060 C   0  0  0  0  0  0  0  0  0  0  0  0
   63.4830   33.4040   47.7270 C   0  0  2  0  0  0  0  0  0  0  0  0
   63.7520   32.2560   46.7470 C   0  0  0  0  0  0  0  0  0  0  0  0
   63.9350   33.0280   49.0840 N   0  0  0  0  0  0  0  0  0  0  0  0
   63.3120   33.9830   52.2536 H   0  0  0  0  0  0  0  0  0  0  0  0
   64.1557   32.5570   51.5600 H   0  0  0  0  0  0  0  0  0  0  0  0
   64.9590   34.1636   51.5600 H   0  0  0  0  0  0  0  0  0  0  0  0
   63.6540   34.9779   49.8230 H   0  0  0  0  0  0  0  0  0  0  0  0
   61.5254   33.2468   50.9779 H   0  0  0  0  0  0  0  0  0  0  0  0
   61.4419   34.8926   50.2247 H   0  0  0  0  0  0  0  0  0  0  0  0
   59.2756   35.2641   46.4414 H   0  0  0  0  0  0  0  0  0  0  0  0
   58.4505   34.7788   44.1400 H   0  0  0  0  0  0  0  0  0  0  0  0
   57.6748   32.4859   43.5455 H   0  0  0  0  0  0  0  0  0  0  0  0
   59.5330   29.3810   45.2360 H   0  0  0  0  0  0  0  0  0  0  0  0
   58.4295   28.2446   42.5923 H   0  0  0  0  0  0  0  0  0  0  0  0
   57.7789   25.9401   41.9034 H   0  0  0  0  0  0  0  0  0  0  0  0
   57.1403   24.2496   43.6227 H   0  0  0  0  0  0  0  0  0  0  0  0
   55.6339   22.3604   47.3197 H   0  0  0  0  0  0  0  0  0  0  0  0
   54.0107   22.9689   47.7571 H   0  0  0  0  0  0  0  0  0  0  0  0
   54.9582   21.7478   45.2166 H   0  0  0  0  0  0  0  0  0  0  0  0
   53.3006   21.9101   45.8165 H   0  0  0  0  0  0  0  0  0  0  0  0
   54.6666   23.5613   43.8643 H   0  0  0  0  0  0  0  0  0  0  0  0
   53.0135   23.7756   44.4608 H   0  0  0  0  0  0  0  0  0  0  0  0
   55.1952   25.4864   44.9825 H   0  0  0  0  0  0  0  0  0  0  0  0
   53.6663   25.4605   45.9107 H   0  0  0  0  0  0  0  0  0  0  0  0
   57.8507   27.1627   46.7458 H   0  0  0  0  0  0  0  0  0  0  0  0
   58.5394   31.1538   47.5777 H   0  0  0  0  0  0  0  0  0  0  0  0
   61.5136   33.4415   46.7924 H   0  0  0  0  0  0  0  0  0  0  0  0
   61.9252   34.9260   47.7242 H   0  0  0  0  0  0  0  0  0  0  0  0
   64.0621   34.2832   47.4080 H   0  0  0  0  0  0  0  0  0  0  0  0
   63.9676   31.3360   47.3102 H   0  0  0  0  0  0  0  0  0  0  0  0
   62.8663   32.0993   46.1138 H   0  0  0  0  0  0  0  0  0  0  0  0
   64.6152   32.5091   46.1138 H   0  0  0  0  0  0  0  0  0  0  0  0
   63.6070   32.0570   49.3070 H   0  0  0  0  0  0  0  0  0  0  0  0
  1  2  1  0
  2  3  1  0
  3  4  1  0
  4  5  1  0
  5  6  2  0
  5  7  2  0
  5  8  1  0
  8  9  2  0
  9 10  1  0
 10 11  2  0
 11 12  1  0
 12 13  1  0
 13 14  2  0
 13 15  1  0
 15 16  1  0
 16 17  2  0
 17 18  1  0
 18 19  2  0
 19 20  1  0
 20 21  1  0
 21 22  2  0
 21 23  2  0
 21 24  1  0
 24 25  1  0
 25 26  1  0
 26 27  1  0
 27 28  1  0
 20 29  2  0
 12 30  2  0
  4 31  1  0
 31 32  1  0
 32 33  1  0
 32 34  1  0
 34  2  1  0
 30  8  1  0
 29 16  1  0
 28 24  1  0
  1 35  1  0
  1 36  1  0
  1 37  1  0
  2 38  1  6
  3 39  1  0
  3 40  1  0
  9 41  1  0
 10 42  1  0
 11 43  1  0
 15 44  1  0
 17 45  1  0
 18 46  1  0
 19 47  1  0
 25 48  1  0
 25 49  1  0
 26 50  1  0
 26 51  1  0
 27 52  1  0
 27 53  1  0
 28 54  1  0
 28 55  1  0
 29 56  1  0
 30 57  1  0
 31 58  1  0
 31 59  1  0
 32 60  1  6
 33 61  1  0
 33 62  1  0
 33 63  1  0
 34 64  1  0
M  END
>  <UniqueID>  (57) 
56

>  <SMILES>  (57) 
C[C@@H]1CN(S(=O)(=O)c2cccc(C(=O)Nc3cccc(S(=O)(=O)N4CCCC4)c3)c2)C[C@H](C)N1

>  <Energy>  (57) 
74.68879310736504

>  <Genealogy>  (57) 
C[C@@H]1CN(S(=O)(=O)c2cccc(C(=O)Nc3cccc(S(=O)(=O)N4CCCC4)c3)c2)C[C@H](C)N1 (chirality)
C[C@@H]1CN(S(=O)(=O)c2cccc(C(=O)Nc3cccc(S(=O)(=O)N4CCCC4)c3)c2)C[C@H](C)N1 (3D coordinates assigned)
C[C@@H]1CN(S(=O)(=O)c2cccc(C(=O)Nc3cccc(S(=O)(=O)N4CCCC4)c3)c2)C[C@H](C)N1 (nonaromatic ring conformer: 74.68879310736504 kcal/mol)

>  <smiles>  (57) 
CC1CN(S(=O)(=O)c2cccc(C(=O)Nc3cccc(S(=O)(=O)N4CCCC4)c3)c2)CC(C)N1

>  <score_type>  (57) 
oracle

>  <origin>  (57) 
adg

>  <m_score__min__energy>  (57) 
-11.050000000000001

>  <m_primary>  (57) 
energy

$$$$
57:0
     RDKit          3D

 57 60  0  0  0  0  0  0  0  0999 V2000
   50.9372   29.0438   52.4389 H   0  0  0  0  0  0  0  0  0  0  0  0
   51.6700   28.2910   52.7650 C   0  0  0  0  0  0  0  0  0  0  0  0
   51.3547   27.2492   52.9240 H   0  0  0  0  0  0  0  0  0  0  0  0
   52.9430   28.6420   52.9680 C   0  0  0  0  0  0  0  0  0  0  0  0
   53.8510   27.7780   53.3570 O   0  0  0  0  0  0  0  0  0  0  0  0
   55.0020   28.3930   53.4820 C   0  0  0  0  0  0  0  0  0  0  0  0
   55.9392   27.9152   53.8036 H   0  0  0  0  0  0  0  0  0  0  0  0
   54.8680   29.7300   53.1510 C   0  0  0  0  0  0  0  0  0  0  0  0
   55.9140   30.7560   53.5110 C   0  0  0  0  0  0  0  0  0  0  0  0
   55.4508   31.7533   53.5381 H   0  0  0  0  0  0  0  0  0  0  0  0
   56.3336   30.5104   54.4977 H   0  0  0  0  0  0  0  0  0  0  0  0
   57.0200   30.7490   52.4910 C   0  0  0  0  0  0  0  0  0  0  0  0
   56.9590   31.5890   51.3680 C   0  0  0  0  0  0  0  0  0  0  0  0
   56.1094   32.2768   51.2446 H   0  0  0  0  0  0  0  0  0  0  0  0
   57.9710   31.5560   50.4070 C   0  0  0  0  0  0  0  0  0  0  0  0
   57.9169   32.2260   49.5363 H   0  0  0  0  0  0  0  0  0  0  0  0
   59.0540   30.6790   50.5400 C   0  0  0  0  0  0  0  0  0  0  0  0
   60.0360   30.6860   49.5350 O   0  0  0  0  0  0  0  0  0  0  0  0
   61.2450   29.9260   49.5450 C   0  0  0  0  0  0  0  0  0  0  0  0
   61.1246   29.0714   50.2271 H   0  0  0  0  0  0  0  0  0  0  0  0
   61.4458   29.5825   48.5195 H   0  0  0  0  0  0  0  0  0  0  0  0
   62.4420   30.7770   50.0140 C   0  0  0  0  0  0  0  0  0  0  0  0
   62.5372   30.6795   51.1055 H   0  0  0  0  0  0  0  0  0  0  0  0
   63.3377   30.4069   49.4936 H   0  0  0  0  0  0  0  0  0  0  0  0
   62.2880   32.2180   49.6760 N   0  0  0  0  0  0  0  0  0  0  0  0
   61.2720   32.4080   49.4980 H   0  0  0  0  0  0  0  0  0  0  0  0
   62.6670   33.0840   50.8140 C   0  0  0  0  0  0  0  0  0  0  0  0
   62.4100   34.1246   50.5667 H   0  0  0  0  0  0  0  0  0  0  0  0
   62.1180   32.7322   51.6999 H   0  0  0  0  0  0  0  0  0  0  0  0
   64.1780   33.0090   51.1360 C   0  0  0  0  0  0  0  0  0  0  0  0
   64.5264   34.0080   51.4369 H   0  0  0  0  0  0  0  0  0  0  0  0
   64.3155   32.2772   51.9457 H   0  0  0  0  0  0  0  0  0  0  0  0
   64.9730   32.5570   49.9750 N   0  0  0  0  0  0  0  0  0  0  0  0
   66.3900   32.9030   50.1560 C   0  0  0  0  0  0  0  0  0  0  0  0
   66.6194   32.9590   51.2303 H   0  0  0  0  0  0  0  0  0  0  0  0
   67.0186   32.1320   49.6866 H   0  0  0  0  0  0  0  0  0  0  0  0
   66.5925   33.8770   49.6866 H   0  0  0  0  0  0  0  0  0  0  0  0
   64.4530   33.1360   48.7280 C   0  0  0  0  0  0  0  0  0  0  0  0
   64.4141   34.2311   48.8239 H   0  0  0  0  0  0  0  0  0  0  0  0
   65.1172   32.8562   47.8970 H   0  0  0  0  0  0  0  0  0  0  0  0
   63.0350   32.5980   48.4440 C   0  0  0  0  0  0  0  0  0  0  0  0
   62.4653   33.3779   47.9175 H   0  0  0  0  0  0  0  0  0  0  0  0
   63.1489   31.6862   47.8393 H   0  0  0  0  0  0  0  0  0  0  0  0
   59.1070   29.8230   51.6570 C   0  0  0  0  0  0  0  0  0  0  0  0
   59.9458   29.1201   51.7685 H   0  0  0  0  0  0  0  0  0  0  0  0
   58.1000   29.8620   52.6240 C   0  0  0  0  0  0  0  0  0  0  0  0
   58.1535   29.1932   53.4957 H   0  0  0  0  0  0  0  0  0  0  0  0
   53.5200   29.9050   52.8050 C   0  0  0  0  0  0  0  0  0  0  0  0
   52.8710   31.0260   52.4200 C   0  0  0  0  0  0  0  0  0  0  0  0
   52.9815   31.9181   53.0540 H   0  0  0  0  0  0  0  0  0  0  0  0
   52.0290   31.1480   51.2210 C   0  0  0  0  0  0  0  0  0  0  0  0
   52.0650   30.2830   50.1940 N   0  0  0  0  0  0  0  0  0  0  0  0
   51.2600   30.8580   49.2730 C   0  0  0  0  0  0  0  0  0  0  0  0
   51.0200   30.3290   48.1580 O   0  0  0  0  0  0  0  0  0  0  0  0
   50.7410   32.0500   49.6370 N   0  0  0  0  0  0  0  0  0  0  0  0
   51.2530   32.2290   50.8650 C   0  0  0  0  0  0  0  0  0  0  0  0
   51.0320   33.3620   51.6350 O   0  0  0  0  0  0  0  0  0  0  0  0
  1  2  1  0
  2  3  1  0
  2  4  2  0
  4  5  1  0
  5  6  1  0
  6  7  1  0
  6  8  2  0
  8  9  1  0
  9 10  1  0
  9 11  1  0
  9 12  1  0
 12 13  2  0
 13 14  1  0
 13 15  1  0
 15 16  1  0
 15 17  2  0
 17 18  1  0
 18 19  1  0
 19 20  1  0
 19 21  1  0
 19 22  1  0
 22 23  1  0
 22 24  1  0
 22 25  1  0
 25 26  1  0
 25 27  1  0
 27 28  1  0
 27 29  1  0
 27 30  1  0
 30 31  1  0
 30 32  1  0
 30 33  1  0
 33 34  1  0
 34 35  1  0
 34 36  1  0
 34 37  1  0
 33 38  1  0
 38 39  1  0
 38 40  1  0
 38 41  1  0
 41 42  1  0
 41 43  1  0
 17 44  1  0
 44 45  1  0
 44 46  2  0
 46 47  1  0
  8 48  1  0
 48 49  2  0
 49 50  1  0
 49 51  1  0
 51 52  1  0
 52 53  1  0
 53 54  2  0
 53 55  1  0
 55 56  1  0
 56 57  1  0
 48  4  1  0
 56 51  2  0
 46 12  1  0
 41 25  1  0
M  CHG  4  25   1  52  -1  55  -1  57  -1
M  END
>  <UniqueID>  (58) 
57

>  <SMILES>  (58) 
C=c1occ(Cc2ccc(OCC[NH+]3CCN(C)CC3)cc2)/c1=C\c1[n-]c(=O)[n-]c1[O-]

>  <Energy>  (58) 
139.75724462740553

>  <Genealogy>  (58) 
C=c1occ(Cc2ccc(OCC[NH+]3CCN(C)CC3)cc2)c1=Cc1[n-]c(=O)[n-]c1[O-] (protonated)
C=c1occ(Cc2ccc(OCC[NH+]3CCN(C)CC3)cc2)/c1=C\c1[n-]c(=O)[n-]c1[O-] (cis-trans isomerization)
C=c1occ(Cc2ccc(OCC[NH+]3CCN(C)CC3)cc2)/c1=C\c1[n-]c(=O)[n-]c1[O-] (3D coordinates assigned)
C=c1occ(Cc2ccc(OCC[NH+]3CCN(C)CC3)cc2)/c1=C\c1[n-]c(=O)[n-]c1[O-] (nonaromatic ring conformer: 139.75724462740553 kcal/mol)

>  <smiles>  (58) 
C=c1occ(Cc2ccc(OCCN3CCN(C)CC3)cc2)c1=Cc1[nH]c(=O)[nH]c1O

>  <score_type>  (58) 
oracle

>  <origin>  (58) 
adg

>  <m_score__min__energy>  (58) 
-15.66

>  <m_primary>  (58) 
energy

$$$$
58:0
     RDKit          3D

 43 46  0  0  0  0  0  0  0  0999 V2000
   54.5535   23.7533   46.1882 H   0  0  0  0  0  0  0  0  0  0  0  0
   55.3420   24.4880   45.9680 C   0  0  0  0  0  0  0  0  0  0  0  0
   55.1140   25.8290   45.9790 N   0  0  0  0  0  0  0  0  0  0  0  0
   56.2330   26.5220   45.6760 C   0  0  0  0  0  0  0  0  0  0  0  0
   56.3030   27.8190   45.6200 N   0  0  0  0  0  0  0  0  0  0  0  0
   57.5060   28.6050   45.6120 C   0  0  0  0  0  0  0  0  0  0  0  0
   58.3990   28.4280   46.4820 O   0  0  0  0  0  0  0  0  0  0  0  0
   57.6810   29.6480   44.6480 N   0  0  0  0  0  0  0  0  0  0  0  0
   57.9360   31.0320   44.9300 C   0  0  0  0  0  0  0  0  0  0  0  0
   57.3490   32.0640   44.1780 C   0  0  0  0  0  0  0  0  0  0  0  0
   56.6689   31.8199   43.3487 H   0  0  0  0  0  0  0  0  0  0  0  0
   57.6270   33.3990   44.4810 C   0  0  0  0  0  0  0  0  0  0  0  0
   57.1500   34.2036   43.9021 H   0  0  0  0  0  0  0  0  0  0  0  0
   58.5090   33.7150   45.5170 C   0  0  0  0  0  0  0  0  0  0  0  0
   58.7067   34.7685   45.7641 H   0  0  0  0  0  0  0  0  0  0  0  0
   59.1440   32.6980   46.2440 C   0  0  0  0  0  0  0  0  0  0  0  0
   60.0440   33.0480   47.3080 N   0  0  0  0  0  0  0  0  0  0  0  0
   59.6530   33.1120   48.2740 H   0  0  0  0  0  0  0  0  0  0  0  0
   61.4060   33.4570   47.1000 C   0  0  0  0  0  0  0  0  0  0  0  0
   61.7790   33.8600   45.9650 O   0  0  0  0  0  0  0  0  0  0  0  0
   62.3740   33.4550   48.2110 C   0  0  0  0  0  0  0  0  0  0  0  0
   63.7760   32.5280   48.2650 S   0  0  0  0  0  0  0  0  0  0  0  0
   64.2980   33.0430   49.7850 C   0  0  0  0  0  0  0  0  0  0  0  0
   65.5370   32.5930   50.4700 C   0  0  0  0  0  0  0  0  0  0  0  0
   66.6800   33.4130   50.5230 C   0  0  0  0  0  0  0  0  0  0  0  0
   66.6609   34.4053   50.0488 H   0  0  0  0  0  0  0  0  0  0  0  0
   67.8400   32.9780   51.1730 C   0  0  0  0  0  0  0  0  0  0  0  0
   68.7271   33.6275   51.2069 H   0  0  0  0  0  0  0  0  0  0  0  0
   67.8730   31.7200   51.7790 C   0  0  0  0  0  0  0  0  0  0  0  0
   68.9990   31.3000   52.4080 F   0  0  0  0  0  0  0  0  0  0  0  0
   66.7470   30.8970   51.7380 C   0  0  0  0  0  0  0  0  0  0  0  0
   66.7733   29.9069   52.2165 H   0  0  0  0  0  0  0  0  0  0  0  0
   65.5850   31.3280   51.0900 C   0  0  0  0  0  0  0  0  0  0  0  0
   64.7008   30.6741   51.0639 H   0  0  0  0  0  0  0  0  0  0  0  0
   63.3590   33.9580   50.2680 C   0  0  0  0  0  0  0  0  0  0  0  0
   63.4515   34.4543   51.2453 H   0  0  0  0  0  0  0  0  0  0  0  0
   62.2890   34.1850   49.3930 C   0  0  0  0  0  0  0  0  0  0  0  0
   61.4614   34.8737   49.6183 H   0  0  0  0  0  0  0  0  0  0  0  0
   58.8420   31.3550   45.9480 C   0  0  0  0  0  0  0  0  0  0  0  0
   59.3232   30.5501   46.5230 H   0  0  0  0  0  0  0  0  0  0  0  0
   57.5420   25.5120   45.3870 S   0  0  0  0  0  0  0  0  0  0  0  0
   56.6450   24.1140   45.6580 C   0  0  0  0  0  0  0  0  0  0  0  0
   57.0238   23.0829   45.6000 H   0  0  0  0  0  0  0  0  0  0  0  0
  1  2  1  0
  2  3  1  0
  3  4  1  0
  4  5  2  0
  5  6  1  0
  6  7  2  0
  6  8  1  0
  8  9  1  0
  9 10  2  0
 10 11  1  0
 10 12  1  0
 12 13  1  0
 12 14  2  0
 14 15  1  0
 14 16  1  0
 16 17  1  0
 17 18  1  0
 17 19  1  0
 19 20  2  0
 19 21  1  0
 21 22  1  0
 22 23  1  0
 23 24  1  0
 24 25  2  0
 25 26  1  0
 25 27  1  0
 27 28  1  0
 27 29  2  0
 29 30  1  0
 29 31  1  0
 31 32  1  0
 31 33  2  0
 33 34  1  0
 23 35  2  0
 35 36  1  0
 35 37  1  0
 37 38  1  0
 16 39  2  0
 39 40  1  0
  4 41  1  0
 41 42  1  0
 42 43  1  0
 42  2  2  0
 39  9  1  0
 37 21  2  0
 33 24  1  0
M  CHG  2   3  -1   8  -1
M  END
>  <UniqueID>  (59) 
58

>  <SMILES>  (59) 
O=C(/N=c1\[n-]ccs1)[N-]c1cccc(NC(=O)c2ccc(-c3ccc(F)cc3)s2)c1

>  <Energy>  (59) 
115.06640172816745

>  <Genealogy>  (59) 
O=C(N=c1[n-]ccs1)[N-]c1cccc(NC(=O)c2ccc(-c3ccc(F)cc3)s2)c1 (protonated)
O=C(/N=c1\[n-]ccs1)[N-]c1cccc(NC(=O)c2ccc(-c3ccc(F)cc3)s2)c1 (cis-trans isomerization)
O=C(/N=c1\[n-]ccs1)[N-]c1cccc(NC(=O)c2ccc(-c3ccc(F)cc3)s2)c1 (3D coordinates assigned)
O=C(/N=c1\[n-]ccs1)[N-]c1cccc(NC(=O)c2ccc(-c3ccc(F)cc3)s2)c1 (optimized conformer: 115.06640172816745 kcal/mol)

>  <smiles>  (59) 
O=C(N=c1[nH]ccs1)Nc1cccc(NC(=O)c2ccc(-c3ccc(F)cc3)s2)c1

>  <score_type>  (59) 
oracle

>  <origin>  (59) 
adg

>  <m_score__min__energy>  (59) 
-11.67

>  <m_primary>  (59) 
energy

$$$$
59:0
     RDKit          3D

 45 47  0  0  0  0  0  0  0  0999 V2000
   61.0097   28.6024   46.9738 H   0  0  0  0  0  0  0  0  0  0  0  0
   60.6100   27.6260   47.2850 C   0  0  0  0  0  0  0  0  0  0  0  0
   61.2830   26.8656   47.7079 H   0  0  0  0  0  0  0  0  0  0  0  0
   59.3040   27.3630   47.1490 C   0  0  0  0  0  0  0  0  0  0  0  0
   58.8900   26.1340   47.5570 N   0  0  0  0  0  0  0  0  0  0  0  0
   57.6780   25.6210   47.2480 C   0  0  0  0  0  0  0  0  0  0  0  0
   57.3720   24.6504   47.6656 H   0  0  0  0  0  0  0  0  0  0  0  0
   56.8110   26.3180   46.4000 C   0  0  0  0  0  0  0  0  0  0  0  0
   55.5270   25.6820   45.9930 C   0  0  0  0  0  0  0  0  0  0  0  0
   54.4490   26.3350   45.9920 O   0  0  0  0  0  0  0  0  0  0  0  0
   55.5030   24.3530   45.5830 O   0  0  0  0  0  0  0  0  0  0  0  0
   57.1770   27.6210   45.9910 C   0  0  0  0  0  0  0  0  0  0  0  0
   56.3890   28.2770   45.2540 O   0  0  0  0  0  0  0  0  0  0  0  0
   58.3920   28.2130   46.4470 C   0  0  0  0  0  0  0  0  0  0  0  0
   58.5880   29.5470   46.2330 C   0  0  0  0  0  0  0  0  0  0  0  0
   59.5532   29.9816   46.5321 H   0  0  0  0  0  0  0  0  0  0  0  0
   57.6040   30.4240   45.6370 N   0  0  0  0  0  0  0  0  0  0  0  0
   56.6420   30.3360   46.0170 H   0  0  0  0  0  0  0  0  0  0  0  0
   57.5360   30.1530   44.6300 H   0  0  0  0  0  0  0  0  0  0  0  0
   58.0330   31.7990   45.7500 C   0  0  0  0  0  0  0  0  0  0  0  0
   57.6460   32.7490   44.7860 C   0  0  0  0  0  0  0  0  0  0  0  0
   57.0001   32.4461   43.9487 H   0  0  0  0  0  0  0  0  0  0  0  0
   58.0770   34.0740   44.8860 C   0  0  0  0  0  0  0  0  0  0  0  0
   57.7749   34.8074   44.1239 H   0  0  0  0  0  0  0  0  0  0  0  0
   58.8900   34.4710   45.9500 C   0  0  0  0  0  0  0  0  0  0  0  0
   59.2280   35.5154   46.0200 H   0  0  0  0  0  0  0  0  0  0  0  0
   59.2780   33.5450   46.9300 C   0  0  0  0  0  0  0  0  0  0  0  0
   60.1440   33.9540   48.0590 C   0  0  0  0  0  0  0  0  0  0  0  0
   59.7000   34.7800   48.9010 O   0  0  0  0  0  0  0  0  0  0  0  0
   61.4850   33.4460   48.2060 N   0  0  0  0  0  0  0  0  0  0  0  0
   62.3210   33.1550   47.0360 C   0  0  0  0  0  0  0  0  0  0  0  0
   62.2553   32.0834   46.7963 H   0  0  0  0  0  0  0  0  0  0  0  0
   61.9679   33.7461   46.1781 H   0  0  0  0  0  0  0  0  0  0  0  0
   63.7770   33.5210   47.3420 C   0  0  0  0  0  0  0  0  0  0  0  0
   64.4161   33.1828   46.5130 H   0  0  0  0  0  0  0  0  0  0  0  0
   63.8499   34.6122   47.4598 H   0  0  0  0  0  0  0  0  0  0  0  0
   64.2070   32.9040   48.5420 O   0  0  0  0  0  0  0  0  0  0  0  0
   63.4770   33.4280   49.6390 C   0  0  0  0  0  0  0  0  0  0  0  0
   63.8824   33.0122   50.5732 H   0  0  0  0  0  0  0  0  0  0  0  0
   63.5721   34.5239   49.6339 H   0  0  0  0  0  0  0  0  0  0  0  0
   61.9920   33.0640   49.5300 C   0  0  0  0  0  0  0  0  0  0  0  0
   61.8701   31.9797   49.6694 H   0  0  0  0  0  0  0  0  0  0  0  0
   61.4271   33.6018   50.3056 H   0  0  0  0  0  0  0  0  0  0  0  0
   58.8600   32.2060   46.8150 C   0  0  0  0  0  0  0  0  0  0  0  0
   59.1828   31.4691   47.5652 H   0  0  0  0  0  0  0  0  0  0  0  0
  1  2  1  0
  2  3  1  0
  2  4  2  0
  4  5  1  0
  5  6  1  0
  6  7  1  0
  6  8  2  0
  8  9  1  0
  9 10  2  0
  9 11  1  0
  8 12  1  0
 12 13  2  0
 12 14  1  0
 14 15  2  0
 15 16  1  0
 15 17  1  0
 17 18  1  0
 17 19  1  0
 17 20  1  0
 20 21  2  0
 21 22  1  0
 21 23  1  0
 23 24  1  0
 23 25  2  0
 25 26  1  0
 25 27  1  0
 27 28  1  0
 28 29  2  0
 28 30  1  0
 30 31  1  0
 31 32  1  0
 31 33  1  0
 31 34  1  0
 34 35  1  0
 34 36  1  0
 34 37  1  0
 37 38  1  0
 38 39  1  0
 38 40  1  0
 38 41  1  0
 41 42  1  0
 41 43  1  0
 27 44  2  0
 44 45  1  0
 14  4  1  0
 44 20  1  0
 41 30  1  0
M  CHG  3   5  -1  11  -1  17   1
M  END
>  <UniqueID>  (60) 
59

>  <SMILES>  (60) 
C=c1[n-]cc(C(=O)[O-])c(=O)/c1=C/[NH2+]c1cccc(C(=O)N2CCOCC2)c1

>  <Energy>  (60) 
83.72341208464468

>  <Genealogy>  (60) 
C=c1[n-]cc(C(=O)[O-])c(=O)c1=C[NH2+]c1cccc(C(=O)N2CCOCC2)c1 (protonated)
C=c1[n-]cc(C(=O)[O-])c(=O)/c1=C/[NH2+]c1cccc(C(=O)N2CCOCC2)c1 (cis-trans isomerization)
C=c1[n-]cc(C(=O)[O-])c(=O)/c1=C/[NH2+]c1cccc(C(=O)N2CCOCC2)c1 (3D coordinates assigned)
C=c1[n-]cc(C(=O)[O-])c(=O)/c1=C/[NH2+]c1cccc(C(=O)N2CCOCC2)c1 (nonaromatic ring conformer: 83.72341208464468 kcal/mol)

>  <smiles>  (60) 
C=c1[nH]cc(C(=O)O)c(=O)c1=CNc1cccc(C(=O)N2CCOCC2)c1

>  <score_type>  (60) 
oracle

>  <origin>  (60) 
adg

>  <m_score__min__energy>  (60) 
-11.35

>  <m_primary>  (60) 
energy

$$$$
60:0
     RDKit          3D

 51 53  0  0  0  0  0  0  0  0999 V2000
   58.5200   33.2890   52.1450 C   0  0  0  0  0  0  0  0  0  0  0  0
   57.4440   32.3280   51.6350 C   0  0  0  0  0  0  0  0  0  0  0  0
   56.6960   31.6750   52.8040 C   0  0  0  0  0  0  0  0  0  0  0  0
   58.0630   31.2920   50.7400 C   0  0  0  0  0  0  0  0  0  0  0  0
   58.7820   31.5700   49.6330 N   0  0  0  0  0  0  0  0  0  0  0  0
   59.0830   30.3300   49.1970 C   0  0  0  0  0  0  0  0  0  0  0  0
   59.8660   30.0500   47.9540 C   0  0  0  0  0  0  0  0  0  0  0  0
   59.0200   29.4040   46.9500 N   0  0  0  0  0  0  0  0  0  0  0  0
   58.5990   28.0360   47.0410 C   0  0  0  0  0  0  0  0  0  0  0  0
   59.0880   27.2760   47.9210 O   0  0  0  0  0  0  0  0  0  0  0  0
   57.5200   27.5310   46.1250 C   0  0  0  0  0  0  0  0  0  0  0  0
   57.3510   28.3970   44.9610 N   0  0  0  0  0  0  0  0  0  0  0  0
   56.5680   29.5980   44.8540 C   0  0  0  0  0  0  0  0  0  0  0  0
   55.3130   29.4820   44.8810 O   0  0  0  0  0  0  0  0  0  0  0  0
   57.1590   30.9560   44.7250 C   0  0  0  0  0  0  0  0  0  0  0  0
   57.5770   31.4370   43.4770 C   0  0  0  0  0  0  0  0  0  0  0  0
   58.1550   32.6990   43.3900 C   0  0  0  0  0  0  0  0  0  0  0  0
   58.3110   33.4620   44.5440 C   0  0  0  0  0  0  0  0  0  0  0  0
   58.8430   34.6030   44.4690 O   0  0  0  0  0  0  0  0  0  0  0  0
   57.8890   32.9600   45.7480 N   0  0  0  0  0  0  0  0  0  0  0  0
   58.0890   33.7050   46.9950 C   0  0  0  0  0  0  0  0  0  0  0  0
   59.5360   33.6480   47.4130 C   0  0  0  0  0  0  0  0  0  0  0  0
   59.9550   34.2750   48.5990 C   0  0  0  0  0  0  0  0  0  0  0  0
   61.2950   34.2100   48.9960 C   0  0  0  0  0  0  0  0  0  0  0  0
   62.2250   33.5300   48.2090 C   0  0  0  0  0  0  0  0  0  0  0  0
   61.8210   32.9110   47.0240 C   0  0  0  0  0  0  0  0  0  0  0  0
   60.4810   32.9680   46.6260 C   0  0  0  0  0  0  0  0  0  0  0  0
   57.3400   31.7440   45.8170 N   0  0  0  0  0  0  0  0  0  0  0  0
   58.5510   29.3640   49.9740 N   0  0  0  0  0  0  0  0  0  0  0  0
   57.9320   30.0020   50.9190 O   0  0  0  0  0  0  0  0  0  0  0  0
   58.5200   33.2890   53.2450 H   0  0  0  0  0  0  0  0  0  0  0  0
   59.5050   32.9645   51.7783 H   0  0  0  0  0  0  0  0  0  0  0  0
   58.3085   34.3043   51.7783 H   0  0  0  0  0  0  0  0  0  0  0  0
   56.7086   32.8990   51.0492 H   0  0  0  0  0  0  0  0  0  0  0  0
   57.1126   32.0387   53.7548 H   0  0  0  0  0  0  0  0  0  0  0  0
   55.6288   31.9356   52.7478 H   0  0  0  0  0  0  0  0  0  0  0  0
   56.8101   30.5824   52.7478 H   0  0  0  0  0  0  0  0  0  0  0  0
   60.2511   30.9969   47.5478 H   0  0  0  0  0  0  0  0  0  0  0  0
   60.6998   29.3771   48.2028 H   0  0  0  0  0  0  0  0  0  0  0  0
   58.5880   30.0060   46.2100 H   0  0  0  0  0  0  0  0  0  0  0  0
   57.7875   26.5207   45.7819 H   0  0  0  0  0  0  0  0  0  0  0  0
   56.5729   27.5193   46.6843 H   0  0  0  0  0  0  0  0  0  0  0  0
   57.4491   30.8219   42.5741 H   0  0  0  0  0  0  0  0  0  0  0  0
   58.4863   33.0912   42.4171 H   0  0  0  0  0  0  0  0  0  0  0  0
   57.7969   34.7543   46.8415 H   0  0  0  0  0  0  0  0  0  0  0  0
   57.4707   33.2530   47.7846 H   0  0  0  0  0  0  0  0  0  0  0  0
   59.2263   34.8192   49.2178 H   0  0  0  0  0  0  0  0  0  0  0  0
   61.6157   34.6955   49.9295 H   0  0  0  0  0  0  0  0  0  0  0  0
   63.2783   33.4813   48.5224 H   0  0  0  0  0  0  0  0  0  0  0  0
   62.5567   32.3785   46.4034 H   0  0  0  0  0  0  0  0  0  0  0  0
   60.1657   32.4783   45.6928 H   0  0  0  0  0  0  0  0  0  0  0  0
  1  2  1  0
  2  3  1  0
  2  4  1  0
  4  5  2  0
  5  6  1  0
  6  7  1  0
  7  8  1  0
  8  9  1  0
  9 10  2  0
  9 11  1  0
 11 12  1  0
 12 13  1  0
 13 14  2  0
 13 15  1  0
 15 16  1  0
 16 17  2  0
 17 18  1  0
 18 19  2  0
 18 20  1  0
 20 21  1  0
 21 22  1  0
 22 23  2  0
 23 24  1  0
 24 25  2  0
 25 26  1  0
 26 27  2  0
 20 28  1  0
  6 29  2  0
 29 30  1  0
 30  4  1  0
 28 15  2  0
 27 22  1  0
  1 31  1  0
  1 32  1  0
  1 33  1  0
  2 34  1  0
  3 35  1  0
  3 36  1  0
  3 37  1  0
  7 38  1  0
  7 39  1  0
  8 40  1  0
 11 41  1  0
 11 42  1  0
 16 43  1  0
 17 44  1  0
 21 45  1  0
 21 46  1  0
 23 47  1  0
 24 48  1  0
 25 49  1  0
 26 50  1  0
 27 51  1  0
M  CHG  1  12  -1
M  END
>  <UniqueID>  (61) 
60

>  <SMILES>  (61) 
CC(C)c1nc(CNC(=O)C[N-]C(=O)c2ccc(=O)n(Cc3ccccc3)n2)no1

>  <Energy>  (61) 
74.23309809639943

>  <Genealogy>  (61) 
CC(C)c1nc(CNC(=O)C[N-]C(=O)c2ccc(=O)n(Cc3ccccc3)n2)no1 (protonated)
CC(C)c1nc(CNC(=O)C[N-]C(=O)c2ccc(=O)n(Cc3ccccc3)n2)no1 (3D coordinates assigned)
CC(C)c1nc(CNC(=O)C[N-]C(=O)c2ccc(=O)n(Cc3ccccc3)n2)no1 (optimized conformer: 74.23309809639943 kcal/mol)

>  <smiles>  (61) 
CC(C)c1nc(CNC(=O)CNC(=O)c2ccc(=O)n(Cc3ccccc3)n2)no1

>  <score_type>  (61) 
oracle

>  <origin>  (61) 
adg

>  <m_score__min__energy>  (61) 
-9.6500000000000004

>  <m_primary>  (61) 
energy

$$$$
61:0
     RDKit          3D

 62 65  0  0  0  0  0  0  0  0999 V2000
   56.0220   30.0450   43.3410 C   0  0  0  0  0  0  0  0  0  0  0  0
   56.2010   30.7360   44.5780 O   0  0  0  0  0  0  0  0  0  0  0  0
   57.4400   30.9390   45.2070 C   0  0  0  0  0  0  0  0  0  0  0  0
   58.0280   32.2140   45.3010 C   0  0  0  0  0  0  0  0  0  0  0  0
   59.2810   32.3700   45.9030 C   0  0  0  0  0  0  0  0  0  0  0  0
   59.9600   31.2600   46.4310 C   0  0  0  0  0  0  0  0  0  0  0  0
   61.2990   31.3700   46.9360 N   0  0  0  0  0  0  0  0  0  0  0  0
   61.9970   32.6060   47.1140 C   0  0  0  0  0  0  0  0  0  0  0  0
   63.1980   32.7080   46.7460 O   0  0  0  0  0  0  0  0  0  0  0  0
   61.3160   33.7300   47.8430 C   0  0  0  0  0  0  0  0  0  0  0  0
   61.3380   33.5360   49.3140 N   0  0  0  0  0  0  0  0  0  0  0  0
   62.4990   33.8210   49.9990 C   0  0  0  0  0  0  0  0  0  0  0  0
   63.5490   34.1060   49.3550 O   0  0  0  0  0  0  0  0  0  0  0  0
   62.5320   33.8130   51.3710 N   0  0  0  0  0  0  0  0  0  0  0  0
   63.7500   34.2510   52.0890 C   0  0  0  0  0  0  0  0  0  0  0  0
   64.8620   33.2520   51.8820 C   0  0  0  0  0  0  0  0  0  0  0  0
   66.1310   33.6760   51.4570 C   0  0  0  0  0  0  0  0  0  0  0  0
   67.1440   32.7400   51.2180 C   0  0  0  0  0  0  0  0  0  0  0  0
   66.8970   31.3760   51.3980 C   0  0  0  0  0  0  0  0  0  0  0  0
   67.8890   30.4780   51.1650 F   0  0  0  0  0  0  0  0  0  0  0  0
   65.6340   30.9440   51.8150 C   0  0  0  0  0  0  0  0  0  0  0  0
   65.3070   29.2320   52.0310 Cl  0  0  0  0  0  0  0  0  0  0  0  0
   64.6200   31.8790   52.0550 C   0  0  0  0  0  0  0  0  0  0  0  0
   61.4120   33.4760   52.0820 C   0  0  0  0  0  0  0  0  0  0  0  0
   61.4400   33.4900   53.3440 O   0  0  0  0  0  0  0  0  0  0  0  0
   60.2330   33.1120   51.4160 C   0  0  0  0  0  0  0  0  0  0  0  0
   59.0770   32.7440   52.1330 C   0  0  0  0  0  0  0  0  0  0  0  0
   57.9060   32.3710   51.4600 C   0  0  0  0  0  0  0  0  0  0  0  0
   56.7260   31.9820   52.1810 N   0  0  0  0  0  0  0  0  0  0  0  0
   56.2810   30.6260   52.3010 C   0  0  0  0  0  0  0  0  0  0  0  0
   54.9410   30.3340   52.8910 C   0  0  0  0  0  0  0  0  0  0  0  0
   57.0330   29.6730   51.9620 O   0  0  0  0  0  0  0  0  0  0  0  0
   57.9070   32.3250   50.0650 C   0  0  0  0  0  0  0  0  0  0  0  0
   59.0330   32.7120   49.3440 C   0  0  0  0  0  0  0  0  0  0  0  0
   60.2150   33.1280   50.0040 C   0  0  0  0  0  0  0  0  0  0  0  0
   59.3660   29.9910   46.3580 C   0  0  0  0  0  0  0  0  0  0  0  0
   58.1050   29.8260   45.7480 C   0  0  0  0  0  0  0  0  0  0  0  0
   57.4850   28.5680   45.6410 O   0  0  0  0  0  0  0  0  0  0  0  0
   57.9540   27.5000   44.8250 C   0  0  0  0  0  0  0  0  0  0  0  0
   55.7508   28.9980   43.5418 H   0  0  0  0  0  0  0  0  0  0  0  0
   55.2192   30.5276   42.7642 H   0  0  0  0  0  0  0  0  0  0  0  0
   56.9581   30.0771   42.7642 H   0  0  0  0  0  0  0  0  0  0  0  0
   57.5002   33.0916   44.8994 H   0  0  0  0  0  0  0  0  0  0  0  0
   59.7375   33.3690   45.9632 H   0  0  0  0  0  0  0  0  0  0  0  0
   61.8301   34.6721   47.6018 H   0  0  0  0  0  0  0  0  0  0  0  0
   60.2647   33.7550   47.5204 H   0  0  0  0  0  0  0  0  0  0  0  0
   64.0660   35.2319   51.7044 H   0  0  0  0  0  0  0  0  0  0  0  0
   63.5274   34.3241   53.1638 H   0  0  0  0  0  0  0  0  0  0  0  0
   66.3301   34.7480   51.3112 H   0  0  0  0  0  0  0  0  0  0  0  0
   68.1370   33.0787   50.8877 H   0  0  0  0  0  0  0  0  0  0  0  0
   63.6270   31.5362   52.3813 H   0  0  0  0  0  0  0  0  0  0  0  0
   59.0941   32.7496   53.2329 H   0  0  0  0  0  0  0  0  0  0  0  0
   56.1960   32.7230   52.6970 H   0  0  0  0  0  0  0  0  0  0  0  0
   55.0124   30.3495   53.9886 H   0  0  0  0  0  0  0  0  0  0  0  0
   54.2205   31.0962   52.5596 H   0  0  0  0  0  0  0  0  0  0  0  0
   54.6029   29.3411   52.5596 H   0  0  0  0  0  0  0  0  0  0  0  0
   57.0097   31.9798   49.5305 H   0  0  0  0  0  0  0  0  0  0  0  0
   59.0043   32.6945   48.2445 H   0  0  0  0  0  0  0  0  0  0  0  0
   59.8873   29.1188   46.7794 H   0  0  0  0  0  0  0  0  0  0  0  0
   58.3138   26.6806   45.4646 H   0  0  0  0  0  0  0  0  0  0  0  0
   57.1329   27.1359   44.1899 H   0  0  0  0  0  0  0  0  0  0  0  0
   58.7776   27.8582   44.1899 H   0  0  0  0  0  0  0  0  0  0  0  0
  1  2  1  0
  2  3  1  0
  3  4  2  0
  4  5  1  0
  5  6  2  0
  6  7  1  0
  7  8  1  0
  8  9  2  0
  8 10  1  0
 10 11  1  0
 11 12  1  0
 12 13  2  0
 12 14  1  0
 14 15  1  0
 15 16  1  0
 16 17  2  0
 17 18  1  0
 18 19  2  0
 19 20  1  0
 19 21  1  0
 21 22  1  0
 21 23  2  0
 14 24  1  0
 24 25  2  0
 24 26  1  0
 26 27  2  0
 27 28  1  0
 28 29  1  0
 29 30  1  0
 30 31  1  0
 30 32  2  0
 28 33  2  0
 33 34  1  0
 34 35  2  0
  6 36  1  0
 36 37  2  0
 37 38  1  0
 38 39  1  0
 37  3  1  0
 35 11  1  0
 23 16  1  0
 35 26  1  0
  1 40  1  0
  1 41  1  0
  1 42  1  0
  4 43  1  0
  5 44  1  0
 10 45  1  0
 10 46  1  0
 15 47  1  0
 15 48  1  0
 17 49  1  0
 18 50  1  0
 23 51  1  0
 27 52  1  0
 29 53  1  0
 31 54  1  0
 31 55  1  0
 31 56  1  0
 33 57  1  0
 34 58  1  0
 36 59  1  0
 39 60  1  0
 39 61  1  0
 39 62  1  0
M  CHG  1   7  -1
M  END
>  <UniqueID>  (62) 
61

>  <SMILES>  (62) 
COc1ccc([N-]C(=O)Cn2c(=O)n(Cc3ccc(F)c(Cl)c3)c(=O)c3cc(NC(C)=O)ccc32)cc1OC

>  <Energy>  (62) 
89.94349857512971

>  <Genealogy>  (62) 
COc1ccc([N-]C(=O)Cn2c(=O)n(Cc3ccc(F)c(Cl)c3)c(=O)c3cc(NC(C)=O)ccc32)cc1OC (protonated)
COc1ccc([N-]C(=O)Cn2c(=O)n(Cc3ccc(F)c(Cl)c3)c(=O)c3cc(NC(C)=O)ccc32)cc1OC (3D coordinates assigned)
COc1ccc([N-]C(=O)Cn2c(=O)n(Cc3ccc(F)c(Cl)c3)c(=O)c3cc(NC(C)=O)ccc32)cc1OC (optimized conformer: 89.94349857512971 kcal/mol)

>  <smiles>  (62) 
COc1ccc(NC(=O)Cn2c(=O)n(Cc3ccc(F)c(Cl)c3)c(=O)c3cc(NC(C)=O)ccc32)cc1OC

>  <score_type>  (62) 
oracle

>  <origin>  (62) 
adg

>  <m_score__min__energy>  (62) 
-9.5299999999999994

>  <m_primary>  (62) 
energy

$$$$
62:0
     RDKit          3D

 29 31  0  0  0  0  0  0  0  0999 V2000
   62.0411   34.3501   49.1770 H   0  0  0  0  0  0  0  0  0  0  0  0
   61.6410   34.0610   48.1940 C   0  0  0  0  0  0  0  0  0  0  0  0
   62.5450   33.4490   47.2080 C   0  0  0  0  0  0  0  0  0  0  0  0
   62.6100   32.1950   47.1180 O   0  0  0  0  0  0  0  0  0  0  0  0
   63.3290   34.2340   46.3710 O   0  0  0  0  0  0  0  0  0  0  0  0
   60.3450   34.2770   47.9310 C   0  0  0  0  0  0  0  0  0  0  0  0
   59.7899   34.9795   48.5701 H   0  0  0  0  0  0  0  0  0  0  0  0
   59.6240   33.6120   46.8170 C   0  0  0  0  0  0  0  0  0  0  0  0
   59.5130   34.2410   45.5480 C   0  0  0  0  0  0  0  0  0  0  0  0
   59.9819   35.2230   45.3872 H   0  0  0  0  0  0  0  0  0  0  0  0
   58.8150   33.6290   44.4980 C   0  0  0  0  0  0  0  0  0  0  0  0
   58.7350   34.1146   43.5142 H   0  0  0  0  0  0  0  0  0  0  0  0
   58.2270   32.3930   44.7330 C   0  0  0  0  0  0  0  0  0  0  0  0
   57.3310   31.4470   43.6760 S   0  0  0  0  0  0  0  0  0  0  0  0
   57.0950   30.2460   44.8450 C   0  0  0  0  0  0  0  0  0  0  0  0
   56.2660   29.0200   44.6420 C   0  0  0  0  0  0  0  0  0  0  0  0
   55.2569   29.1914   45.0449 H   0  0  0  0  0  0  0  0  0  0  0  0
   56.2047   28.7988   43.5662 H   0  0  0  0  0  0  0  0  0  0  0  0
   56.8910   27.8590   45.3480 C   0  0  0  0  0  0  0  0  0  0  0  0
   58.5460   27.5620   45.4510 S   0  0  0  0  0  0  0  0  0  0  0  0
   58.3180   26.1090   46.2650 C   0  0  0  0  0  0  0  0  0  0  0  0
   59.2500   25.3590   46.6530 O   0  0  0  0  0  0  0  0  0  0  0  0
   57.0130   25.8200   46.4570 N   0  0  0  0  0  0  0  0  0  0  0  0
   56.2180   26.7920   45.9390 C   0  0  0  0  0  0  0  0  0  0  0  0
   54.8320   26.7100   45.9980 O   0  0  0  0  0  0  0  0  0  0  0  0
   57.6700   30.5630   46.0310 N   0  0  0  0  0  0  0  0  0  0  0  0
   58.3070   31.7610   45.9610 C   0  0  0  0  0  0  0  0  0  0  0  0
   58.9960   32.3550   47.0250 C   0  0  0  0  0  0  0  0  0  0  0  0
   59.0900   31.5070   48.5690 Cl  0  0  0  0  0  0  0  0  0  0  0  0
  1  2  1  0
  2  3  1  0
  3  4  2  0
  3  5  1  0
  2  6  2  0
  6  7  1  0
  6  8  1  0
  8  9  2  0
  9 10  1  0
  9 11  1  0
 11 12  1  0
 11 13  2  0
 13 14  1  0
 14 15  1  0
 15 16  1  0
 16 17  1  0
 16 18  1  0
 16 19  1  0
 19 20  1  0
 20 21  1  0
 21 22  2  0
 21 23  1  0
 23 24  1  0
 24 25  1  0
 15 26  2  0
 26 27  1  0
 27 28  2  0
 28 29  1  0
 28  8  1  0
 27 13  1  0
 24 19  2  0
M  CHG  3   5  -1  23  -1  25  -1
M  END
>  <UniqueID>  (63) 
62

>  <SMILES>  (63) 
O=C([O-])/C=C/c1ccc2sc(Cc3sc(=O)[n-]c3[O-])nc2c1Cl

>  <Energy>  (63) 
97.18090175518287

>  <Genealogy>  (63) 
O=C([O-])C=Cc1ccc2sc(Cc3sc(=O)[n-]c3[O-])nc2c1Cl (protonated)
O=C([O-])/C=C/c1ccc2sc(Cc3sc(=O)[n-]c3[O-])nc2c1Cl (cis-trans isomerization)
O=C([O-])/C=C/c1ccc2sc(Cc3sc(=O)[n-]c3[O-])nc2c1Cl (3D coordinates assigned)
O=C([O-])/C=C/c1ccc2sc(Cc3sc(=O)[n-]c3[O-])nc2c1Cl (optimized conformer: 97.18090175518287 kcal/mol)

>  <smiles>  (63) 
O=C(O)C=Cc1ccc2sc(Cc3sc(=O)[nH]c3O)nc2c1Cl

>  <score_type>  (63) 
oracle

>  <origin>  (63) 
adg

>  <m_score__min__energy>  (63) 
-14.539999999999999

>  <m_primary>  (63) 
energy

$$$$
63:0
     RDKit          3D

 56 59  0  0  0  0  0  0  0  0999 V2000
   55.5330   28.5980   45.2460 O   0  0  0  0  0  0  0  0  0  0  0  0
   56.5080   29.2270   44.7530 C   0  0  0  0  0  0  0  0  0  0  0  0
   57.7100   28.4750   44.2680 C   0  0  0  0  0  0  0  0  0  0  0  0
   58.5570   28.0260   45.4180 C   0  0  0  0  0  0  0  0  0  0  0  0
   58.0920   27.4730   46.6050 C   0  0  0  0  0  0  0  0  0  0  0  0
   59.1150   27.1930   47.5190 C   0  0  0  0  0  0  0  0  0  0  0  0
   60.3820   27.5370   47.0610 C   0  0  0  0  0  0  0  0  0  0  0  0
   60.2280   28.1840   45.5160 S   0  0  0  0  0  0  0  0  0  0  0  0
   56.4460   30.6460   44.5610 N   0  0  0  0  0  0  0  0  0  0  0  0
   57.3760   31.6200   45.0560 C   0  0  0  0  0  0  0  0  0  0  0  0
   58.5880   31.2540   45.6690 C   0  0  0  0  0  0  0  0  0  0  0  0
   59.4650   32.2370   46.1370 C   0  0  0  0  0  0  0  0  0  0  0  0
   59.1520   33.5940   45.9830 C   0  0  0  0  0  0  0  0  0  0  0  0
   60.1990   34.8300   46.6730 S   0  0  0  0  0  0  0  0  0  0  0  0
   61.6450   34.4720   46.4740 O   0  0  0  0  0  0  0  0  0  0  0  0
   59.9330   36.1480   46.0010 O   0  0  0  0  0  0  0  0  0  0  0  0
   59.8470   34.9610   48.3630 N   0  0  0  0  0  0  0  0  0  0  0  0
   60.3820   33.9880   49.2640 C   0  0  0  0  0  0  0  0  0  0  0  0
   61.7570   33.9440   49.5280 C   0  0  0  0  0  0  0  0  0  0  0  0
   62.2820   32.9380   50.3430 C   0  0  0  0  0  0  0  0  0  0  0  0
   61.4410   31.9600   50.8810 C   0  0  0  0  0  0  0  0  0  0  0  0
   60.0650   31.9960   50.6200 C   0  0  0  0  0  0  0  0  0  0  0  0
   59.0300   30.6930   51.1990 S   0  0  0  0  0  0  0  0  0  0  0  0
   58.1430   30.2540   50.0660 O   0  0  0  0  0  0  0  0  0  0  0  0
   59.8750   29.5210   51.6170 O   0  0  0  0  0  0  0  0  0  0  0  0
   58.0310   31.2430   52.5300 N   0  0  0  0  0  0  0  0  0  0  0  0
   57.8890   30.2190   53.5810 C   0  0  0  0  0  0  0  0  0  0  0  0
   56.9540   29.0630   53.1520 C   0  0  0  0  0  0  0  0  0  0  0  0
   56.1140   29.3930   52.0590 O   0  0  0  0  0  0  0  0  0  0  0  0
   55.5970   30.6960   52.2150 C   0  0  0  0  0  0  0  0  0  0  0  0
   56.7190   31.7410   52.0600 C   0  0  0  0  0  0  0  0  0  0  0  0
   59.5370   33.0220   49.8240 C   0  0  0  0  0  0  0  0  0  0  0  0
   57.9550   33.9590   45.3560 C   0  0  0  0  0  0  0  0  0  0  0  0
   57.0790   32.9780   44.8850 C   0  0  0  0  0  0  0  0  0  0  0  0
   57.3785   27.5940   43.6989 H   0  0  0  0  0  0  0  0  0  0  0  0
   58.3082   29.1413   43.6291 H   0  0  0  0  0  0  0  0  0  0  0  0
   57.0287   27.2754   46.8060 H   0  0  0  0  0  0  0  0  0  0  0  0
   58.9335   26.7433   48.5063 H   0  0  0  0  0  0  0  0  0  0  0  0
   61.3239   27.4081   47.6144 H   0  0  0  0  0  0  0  0  0  0  0  0
   58.8466   30.1907   45.7805 H   0  0  0  0  0  0  0  0  0  0  0  0
   60.4046   31.9439   46.6281 H   0  0  0  0  0  0  0  0  0  0  0  0
   58.9670   35.4580   48.6290 H   0  0  0  0  0  0  0  0  0  0  0  0
   62.4243   34.7026   49.0930 H   0  0  0  0  0  0  0  0  0  0  0  0
   63.3598   32.9156   50.5617 H   0  0  0  0  0  0  0  0  0  0  0  0
   61.8600   31.1609   51.5102 H   0  0  0  0  0  0  0  0  0  0  0  0
   58.8825   29.8048   53.8079 H   0  0  0  0  0  0  0  0  0  0  0  0
   57.4440   30.7019   54.4635 H   0  0  0  0  0  0  0  0  0  0  0  0
   57.5744   28.2006   52.8667 H   0  0  0  0  0  0  0  0  0  0  0  0
   56.2999   28.8404   54.0079 H   0  0  0  0  0  0  0  0  0  0  0  0
   54.8271   30.8745   51.4499 H   0  0  0  0  0  0  0  0  0  0  0  0
   55.1595   30.7884   53.2200 H   0  0  0  0  0  0  0  0  0  0  0  0
   56.8049   32.0103   50.9969 H   0  0  0  0  0  0  0  0  0  0  0  0
   56.4519   32.6102   52.6791 H   0  0  0  0  0  0  0  0  0  0  0  0
   58.4538   33.0685   49.6384 H   0  0  0  0  0  0  0  0  0  0  0  0
   57.7030   35.0227   45.2336 H   0  0  0  0  0  0  0  0  0  0  0  0
   56.1497   33.2741   44.3764 H   0  0  0  0  0  0  0  0  0  0  0  0
  1  2  2  0
  2  3  1  0
  3  4  1  0
  4  5  2  0
  5  6  1  0
  6  7  2  0
  7  8  1  0
  2  9  1  0
  9 10  1  0
 10 11  2  0
 11 12  1  0
 12 13  2  0
 13 14  1  0
 14 15  2  0
 14 16  2  0
 14 17  1  0
 17 18  1  0
 18 19  2  0
 19 20  1  0
 20 21  2  0
 21 22  1  0
 22 23  1  0
 23 24  2  0
 23 25  2  0
 23 26  1  0
 26 27  1  0
 27 28  1  0
 28 29  1  0
 29 30  1  0
 30 31  1  0
 22 32  2  0
 13 33  1  0
 33 34  2  0
  8  4  1  0
 34 10  1  0
 32 18  1  0
 31 26  1  0
  3 35  1  0
  3 36  1  0
  5 37  1  0
  6 38  1  0
  7 39  1  0
 11 40  1  0
 12 41  1  0
 17 42  1  0
 19 43  1  0
 20 44  1  0
 21 45  1  0
 27 46  1  0
 27 47  1  0
 28 48  1  0
 28 49  1  0
 30 50  1  0
 30 51  1  0
 31 52  1  0
 31 53  1  0
 32 54  1  0
 33 55  1  0
 34 56  1  0
M  CHG  1   9  -1
M  END
>  <UniqueID>  (64) 
63

>  <SMILES>  (64) 
O=C(Cc1cccs1)[N-]c1ccc(S(=O)(=O)Nc2cccc(S(=O)(=O)N3CCOCC3)c2)cc1

>  <Energy>  (64) 
98.62740293821977

>  <Genealogy>  (64) 
O=C(Cc1cccs1)[N-]c1ccc(S(=O)(=O)Nc2cccc(S(=O)(=O)N3CCOCC3)c2)cc1 (protonated)
O=C(Cc1cccs1)[N-]c1ccc(S(=O)(=O)Nc2cccc(S(=O)(=O)N3CCOCC3)c2)cc1 (3D coordinates assigned)
O=C(Cc1cccs1)[N-]c1ccc(S(=O)(=O)Nc2cccc(S(=O)(=O)N3CCOCC3)c2)cc1 (nonaromatic ring conformer: 98.62740293821977 kcal/mol)

>  <smiles>  (64) 
O=C(Cc1cccs1)Nc1ccc(S(=O)(=O)Nc2cccc(S(=O)(=O)N3CCOCC3)c2)cc1

>  <score_type>  (64) 
oracle

>  <origin>  (64) 
adg

>  <m_score__min__energy>  (64) 
-12.109999999999999

>  <m_primary>  (64) 
energy

$$$$
64:0
     RDKit          3D

 56 58  0  0  0  0  0  0  0  0999 V2000
   56.5200   28.1250   45.3780 N   0  0  0  0  0  0  0  0  0  0  0  0
   56.6870   29.6610   44.6070 S   0  0  0  0  0  0  0  0  0  0  0  0
   55.4070   30.4360   44.7540 O   0  0  0  0  0  0  0  0  0  0  0  0
   56.9640   29.4640   43.1420 O   0  0  0  0  0  0  0  0  0  0  0  0
   58.0100   30.5530   45.3500 C   0  0  0  0  0  0  0  0  0  0  0  0
   57.9660   31.9510   45.4220 C   0  0  0  0  0  0  0  0  0  0  0  0
   59.0180   32.6600   46.0090 C   0  0  0  0  0  0  0  0  0  0  0  0
   60.1240   31.9750   46.5370 C   0  0  0  0  0  0  0  0  0  0  0  0
   61.2770   32.7480   47.1170 C   0  0  0  0  0  0  0  0  0  0  0  0
   62.0690   31.8830   47.9890 N   0  0  0  0  0  0  0  0  0  0  0  0
   63.2370   32.3570   48.6760 C   0  0  0  0  0  0  0  0  0  0  0  0
   63.8460   33.3720   48.2390 O   0  0  0  0  0  0  0  0  0  0  0  0
   63.7290   31.6790   49.8460 N   0  0  0  0  0  0  0  0  0  0  0  0
   65.1550   31.7920   50.1920 C   0  0  0  0  0  0  0  0  0  0  0  0
   65.4750   31.1010   51.5230 C   0  0  0  0  0  0  0  0  0  0  0  0
   64.8210   29.7810   51.5800 N   0  0  0  0  0  0  0  0  0  0  0  0
   65.4800   28.6180   52.1290 C   0  0  0  0  0  0  0  0  0  0  0  0
   64.7810   27.7180   52.6730 O   0  0  0  0  0  0  0  0  0  0  0  0
   66.9860   28.4410   52.0900 C   0  0  1  0  0  0  0  0  0  0  0  0
   67.3520   26.9730   52.4260 C   0  0  0  0  0  0  0  0  0  0  0  0
   68.7230   26.5940   51.8600 C   0  0  0  0  0  0  0  0  0  0  0  0
   68.7510   26.6780   50.3160 C   0  0  1  0  0  0  0  0  0  0  0  0
   68.4410   25.4160   49.7780 O   0  0  0  0  0  0  0  0  0  0  0  0
   67.7730   27.7400   49.7550 C   0  0  0  0  0  0  0  0  0  0  0  0
   67.5790   28.9070   50.7300 C   0  0  0  0  0  0  0  0  0  0  0  0
   63.3950   29.6740   51.2280 C   0  0  0  0  0  0  0  0  0  0  0  0
   62.8100   31.0200   50.7840 C   0  0  0  0  0  0  0  0  0  0  0  0
   60.1620   30.5730   46.4710 C   0  0  0  0  0  0  0  0  0  0  0  0
   59.1090   29.8670   45.8850 C   0  0  0  0  0  0  0  0  0  0  0  0
   55.5130   27.8560   45.3050 H   0  0  0  0  0  0  0  0  0  0  0  0
   57.0999   32.4934   45.0149 H   0  0  0  0  0  0  0  0  0  0  0  0
   58.9792   33.7582   46.0574 H   0  0  0  0  0  0  0  0  0  0  0  0
   61.9122   33.1225   46.3007 H   0  0  0  0  0  0  0  0  0  0  0  0
   60.8872   33.5931   47.7034 H   0  0  0  0  0  0  0  0  0  0  0  0
   61.7690   30.8900   48.1070 H   0  0  0  0  0  0  0  0  0  0  0  0
   65.7527   31.3246   49.3955 H   0  0  0  0  0  0  0  0  0  0  0  0
   65.3982   32.8599   50.2942 H   0  0  0  0  0  0  0  0  0  0  0  0
   66.5636   30.9716   51.6130 H   0  0  0  0  0  0  0  0  0  0  0  0
   65.1018   31.7231   52.3499 H   0  0  0  0  0  0  0  0  0  0  0  0
   67.4414   29.0850   52.8567 H   0  0  0  0  0  0  0  0  0  0  0  0
   66.5904   26.3068   51.9945 H   0  0  0  0  0  0  0  0  0  0  0  0
   67.3889   26.8679   53.5203 H   0  0  0  0  0  0  0  0  0  0  0  0
   68.9616   25.5644   52.1648 H   0  0  0  0  0  0  0  0  0  0  0  0
   69.4638   27.3052   52.2543 H   0  0  0  0  0  0  0  0  0  0  0  0
   69.7643   26.9878   50.0206 H   0  0  0  0  0  0  0  0  0  0  0  0
   68.2570   25.5570   48.8100 H   0  0  0  0  0  0  0  0  0  0  0  0
   66.7984   27.2644   49.5706 H   0  0  0  0  0  0  0  0  0  0  0  0
   68.2003   28.1401   48.8237 H   0  0  0  0  0  0  0  0  0  0  0  0
   66.8938   29.6381   50.2762 H   0  0  0  0  0  0  0  0  0  0  0  0
   68.5656   29.3524   50.9256 H   0  0  0  0  0  0  0  0  0  0  0  0
   63.2854   28.9509   50.4064 H   0  0  0  0  0  0  0  0  0  0  0  0
   62.8479   29.3448   52.1237 H   0  0  0  0  0  0  0  0  0  0  0  0
   61.8422   30.8517   50.2890 H   0  0  0  0  0  0  0  0  0  0  0  0
   62.6696   31.6627   51.6656 H   0  0  0  0  0  0  0  0  0  0  0  0
   61.0246   30.0284   46.8825 H   0  0  0  0  0  0  0  0  0  0  0  0
   59.1423   28.7683   45.8432 H   0  0  0  0  0  0  0  0  0  0  0  0
  1  2  1  0
  2  3  2  0
  2  4  2  0
  2  5  1  0
  5  6  2  0
  6  7  1  0
  7  8  2  0
  8  9  1  0
  9 10  1  0
 10 11  1  0
 11 12  2  0
 11 13  1  0
 13 14  1  0
 14 15  1  0
 15 16  1  0
 16 17  1  0
 17 18  2  0
 17 19  1  0
 19 20  1  0
 20 21  1  0
 21 22  1  0
 22 23  1  0
 22 24  1  0
 24 25  1  0
 16 26  1  0
 26 27  1  0
  8 28  1  0
 28 29  2  0
 29  5  1  0
 27 13  1  0
 25 19  1  0
  1 30  1  0
  6 31  1  0
  7 32  1  0
  9 33  1  0
  9 34  1  0
 10 35  1  0
 14 36  1  0
 14 37  1  0
 15 38  1  0
 15 39  1  0
 19 40  1  1
 20 41  1  0
 20 42  1  0
 21 43  1  0
 21 44  1  0
 22 45  1  1
 23 46  1  0
 24 47  1  0
 24 48  1  0
 25 49  1  0
 25 50  1  0
 26 51  1  0
 26 52  1  0
 27 53  1  0
 27 54  1  0
 28 55  1  0
 29 56  1  0
M  CHG  1   1  -1
M  END
>  <UniqueID>  (65) 
64

>  <SMILES>  (65) 
[NH-]S(=O)(=O)c1ccc(CNC(=O)N2CCN(C(=O)C3CCC(O)CC3)CC2)cc1

>  <Energy>  (65) 
60.65664436758925

>  <Genealogy>  (65) 
[NH-]S(=O)(=O)c1ccc(CNC(=O)N2CCN(C(=O)C3CCC(O)CC3)CC2)cc1 (protonated)
[NH-]S(=O)(=O)c1ccc(CNC(=O)N2CCN(C(=O)C3CCC(O)CC3)CC2)cc1 (3D coordinates assigned)
[NH-]S(=O)(=O)c1ccc(CNC(=O)N2CCN(C(=O)C3CCC(O)CC3)CC2)cc1 (nonaromatic ring conformer: 60.65664436758925 kcal/mol)

>  <smiles>  (65) 
NS(=O)(=O)c1ccc(CNC(=O)N2CCN(C(=O)C3CCC(O)CC3)CC2)cc1

>  <score_type>  (65) 
oracle

>  <origin>  (65) 
adg

>  <m_score__min__energy>  (65) 
-10.92

>  <m_primary>  (65) 
energy

$$$$
65:0
     RDKit          3D

 65 68  0  0  0  0  0  0  0  0999 V2000
   60.1110   27.7640   49.3770 C   0  0  0  0  0  0  0  0  0  0  0  0
   60.5930   28.7100   48.3160 C   0  0  0  0  0  0  0  0  0  0  0  0
   60.7520   28.2700   47.1460 O   0  0  0  0  0  0  0  0  0  0  0  0
   60.8860   30.1010   48.6070 N   0  0  0  0  0  0  0  0  0  0  0  0
   60.3800   30.6900   49.8710 C   0  0  0  0  0  0  0  0  0  0  0  0
   61.0250   32.0310   50.2060 C   0  0  0  0  0  0  0  0  0  0  0  0
   61.0880   32.8440   48.9970 N   0  0  0  0  0  0  0  0  0  0  0  0
   60.1300   33.8980   48.7620 C   0  0  0  0  0  0  0  0  0  0  0  0
   59.7200   34.6030   49.7200 O   0  0  0  0  0  0  0  0  0  0  0  0
   59.5690   34.1330   47.4220 C   0  0  0  0  0  0  0  0  0  0  0  0
   60.0830   35.1670   46.6260 C   0  0  0  0  0  0  0  0  0  0  0  0
   59.5480   35.4150   45.3620 C   0  0  0  0  0  0  0  0  0  0  0  0
   58.5030   34.6310   44.8830 C   0  0  0  0  0  0  0  0  0  0  0  0
   58.0030   33.5600   45.6500 C   0  0  0  0  0  0  0  0  0  0  0  0
   56.8770   32.7020   45.1170 C   0  0  0  0  0  0  0  0  0  0  0  0
   57.4150   31.5320   44.4210 N   0  0  0  0  0  0  0  0  0  0  0  0
   56.7320   30.2670   44.5050 C   0  0  0  0  0  0  0  0  0  0  0  0
   55.4720   30.2410   44.4950 O   0  0  0  0  0  0  0  0  0  0  0  0
   57.4870   29.0100   44.7230 C   0  0  0  0  0  0  0  0  0  0  0  0
   58.8700   28.9300   44.5150 C   0  0  0  0  0  0  0  0  0  0  0  0
   59.5410   27.7900   44.8200 N   0  0  0  0  0  0  0  0  0  0  0  0
   58.9170   26.6960   45.3200 C   0  0  0  0  0  0  0  0  0  0  0  0
   57.5440   26.7170   45.5560 C   0  0  0  0  0  0  0  0  0  0  0  0
   56.9430   25.6020   46.2330 N   0  0  0  0  0  0  0  0  0  0  0  0
   55.6400   25.0630   45.9980 C   0  0  0  0  0  0  0  0  0  0  0  0
   54.6350   25.8330   45.9520 O   0  0  0  0  0  0  0  0  0  0  0  0
   55.5020   23.6190   45.7000 C   0  0  0  0  0  0  0  0  0  0  0  0
   55.8570   23.0810   44.5070 C   0  0  0  0  0  0  0  0  0  0  0  0
   56.2950   23.9270   43.3430 C   0  0  0  0  0  0  0  0  0  0  0  0
   55.8930   21.6910   44.3070 O   0  0  0  0  0  0  0  0  0  0  0  0
   55.5350   20.7000   45.2700 C   0  0  0  0  0  0  0  0  0  0  0  0
   55.7820   21.1850   46.6900 C   0  0  0  0  0  0  0  0  0  0  0  0
   54.7120   22.6130   46.9690 S   0  0  0  0  0  0  0  0  0  0  0  0
   56.8290   27.8870   45.2470 C   0  0  0  0  0  0  0  0  0  0  0  0
   58.5440   33.3170   46.9240 C   0  0  0  0  0  0  0  0  0  0  0  0
   61.9220   32.3030   47.9300 C   0  0  0  0  0  0  0  0  0  0  0  0
   61.4000   30.9300   47.4920 C   0  0  0  0  0  0  0  0  0  0  0  0
   60.3261   28.1861   50.3698 H   0  0  0  0  0  0  0  0  0  0  0  0
   59.0266   27.6141   49.2694 H   0  0  0  0  0  0  0  0  0  0  0  0
   60.6271   26.7986   49.2694 H   0  0  0  0  0  0  0  0  0  0  0  0
   59.2938   30.8372   49.7785 H   0  0  0  0  0  0  0  0  0  0  0  0
   60.6332   29.9921   50.6827 H   0  0  0  0  0  0  0  0  0  0  0  0
   60.4238   32.5491   50.9677 H   0  0  0  0  0  0  0  0  0  0  0  0
   62.0402   31.8673   50.5965 H   0  0  0  0  0  0  0  0  0  0  0  0
   60.9121   35.7854   47.0004 H   0  0  0  0  0  0  0  0  0  0  0  0
   59.9521   36.2303   44.7439 H   0  0  0  0  0  0  0  0  0  0  0  0
   58.0640   34.8489   43.8982 H   0  0  0  0  0  0  0  0  0  0  0  0
   56.2475   32.3680   45.9549 H   0  0  0  0  0  0  0  0  0  0  0  0
   56.2792   33.2954   44.4095 H   0  0  0  0  0  0  0  0  0  0  0  0
   58.4190   31.5690   44.1370 H   0  0  0  0  0  0  0  0  0  0  0  0
   59.4137   29.7932   44.1035 H   0  0  0  0  0  0  0  0  0  0  0  0
   59.4968   25.7876   45.5405 H   0  0  0  0  0  0  0  0  0  0  0  0
   56.7708   24.8459   43.7161 H   0  0  0  0  0  0  0  0  0  0  0  0
   57.0149   23.3639   42.7308 H   0  0  0  0  0  0  0  0  0  0  0  0
   55.4197   24.1898   42.7308 H   0  0  0  0  0  0  0  0  0  0  0  0
   54.4677   20.4598   45.1553 H   0  0  0  0  0  0  0  0  0  0  0  0
   56.1585   19.8105   45.0967 H   0  0  0  0  0  0  0  0  0  0  0  0
   55.5385   20.3873   47.4072 H   0  0  0  0  0  0  0  0  0  0  0  0
   56.8383   21.4593   46.8278 H   0  0  0  0  0  0  0  0  0  0  0  0
   55.7429   27.9226   45.4177 H   0  0  0  0  0  0  0  0  0  0  0  0
   58.1619   32.4839   47.5322 H   0  0  0  0  0  0  0  0  0  0  0  0
   61.9029   32.9896   47.0708 H   0  0  0  0  0  0  0  0  0  0  0  0
   62.9516   32.1929   48.3012 H   0  0  0  0  0  0  0  0  0  0  0  0
   60.5847   31.0835   46.7697 H   0  0  0  0  0  0  0  0  0  0  0  0
   62.2523   30.3877   47.0567 H   0  0  0  0  0  0  0  0  0  0  0  0
  1  2  1  0
  2  3  2  0
  2  4  1  0
  4  5  1  0
  5  6  1  0
  6  7  1  0
  7  8  1  0
  8  9  2  0
  8 10  1  0
 10 11  2  0
 11 12  1  0
 12 13  2  0
 13 14  1  0
 14 15  1  0
 15 16  1  0
 16 17  1  0
 17 18  2  0
 17 19  1  0
 19 20  2  0
 20 21  1  0
 21 22  2  0
 22 23  1  0
 23 24  1  0
 24 25  1  0
 25 26  2  0
 25 27  1  0
 27 28  2  0
 28 29  1  0
 28 30  1  0
 30 31  1  0
 31 32  1  0
 32 33  1  0
 23 34  2  0
 14 35  2  0
  7 36  1  0
 36 37  1  0
 37  4  1  0
 35 10  1  0
 34 19  1  0
 33 27  1  0
  1 38  1  0
  1 39  1  0
  1 40  1  0
  5 41  1  0
  5 42  1  0
  6 43  1  0
  6 44  1  0
 11 45  1  0
 12 46  1  0
 13 47  1  0
 15 48  1  0
 15 49  1  0
 16 50  1  0
 20 51  1  0
 22 52  1  0
 29 53  1  0
 29 54  1  0
 29 55  1  0
 31 56  1  0
 31 57  1  0
 32 58  1  0
 32 59  1  0
 34 60  1  0
 35 61  1  0
 36 62  1  0
 36 63  1  0
 37 64  1  0
 37 65  1  0
M  CHG  1  24  -1
M  END
>  <UniqueID>  (66) 
65

>  <SMILES>  (66) 
CC(=O)N1CCN(C(=O)c2cccc(CNC(=O)c3cncc([N-]C(=O)C4=C(C)OCCS4)c3)c2)CC1

>  <Energy>  (66) 
93.83115463608674

>  <Genealogy>  (66) 
CC(=O)N1CCN(C(=O)c2cccc(CNC(=O)c3cncc([N-]C(=O)C4=C(C)OCCS4)c3)c2)CC1 (protonated)
CC(=O)N1CCN(C(=O)c2cccc(CNC(=O)c3cncc([N-]C(=O)C4=C(C)OCCS4)c3)c2)CC1 (3D coordinates assigned)
CC(=O)N1CCN(C(=O)c2cccc(CNC(=O)c3cncc([N-]C(=O)C4=C(C)OCCS4)c3)c2)CC1 (nonaromatic ring conformer: 93.83115463608674 kcal/mol)

>  <smiles>  (66) 
CC(=O)N1CCN(C(=O)c2cccc(CNC(=O)c3cncc(NC(=O)C4=C(C)OCCS4)c3)c2)CC1

>  <score_type>  (66) 
oracle

>  <origin>  (66) 
adg

>  <m_score__min__energy>  (66) 
-12.800000000000001

>  <m_primary>  (66) 
energy

$$$$
66:0
     RDKit          3D

 45 47  0  0  0  0  0  0  0  0999 V2000
   55.6467   30.9867   42.8724 H   0  0  0  0  0  0  0  0  0  0  0  0
   55.5140   30.0910   43.4970 C   0  0  0  0  0  0  0  0  0  0  0  0
   54.6167   29.4658   43.3785 H   0  0  0  0  0  0  0  0  0  0  0  0
   56.4410   29.7630   44.3980 C   0  0  0  0  0  0  0  0  0  0  0  0
   56.3220   28.6710   45.1890 N   0  0  0  0  0  0  0  0  0  0  0  0
   57.4350   28.6750   45.9520 C   0  0  0  0  0  0  0  0  0  0  0  0
   57.6920   27.7190   46.8580 C   0  0  0  0  0  0  0  0  0  0  0  0
   58.2950   27.9959   47.7353 H   0  0  0  0  0  0  0  0  0  0  0  0
   57.2250   26.3270   46.7620 C   0  0  0  0  0  0  0  0  0  0  0  0
   58.0340   25.2590   46.9240 N   0  0  0  0  0  0  0  0  0  0  0  0
   57.2290   24.2040   46.6640 C   0  0  0  0  0  0  0  0  0  0  0  0
   57.6260   23.0110   46.7270 O   0  0  0  0  0  0  0  0  0  0  0  0
   55.9710   24.5530   46.3220 N   0  0  0  0  0  0  0  0  0  0  0  0
   54.8510   23.6700   45.9900 C   0  0  0  0  0  0  0  0  0  0  0  0
   55.2140   22.6328   45.9404 H   0  0  0  0  0  0  0  0  0  0  0  0
   54.0818   23.7743   46.7693 H   0  0  0  0  0  0  0  0  0  0  0  0
   54.2260   24.0500   44.6320 C   0  0  0  0  0  0  0  0  0  0  0  0
   54.3538   25.1337   44.4930 H   0  0  0  0  0  0  0  0  0  0  0  0
   54.9330   23.3400   43.4700 C   0  0  0  0  0  0  0  0  0  0  0  0
   55.6561   22.6138   43.8696 H   0  0  0  0  0  0  0  0  0  0  0  0
   54.1884   22.8149   42.8537 H   0  0  0  0  0  0  0  0  0  0  0  0
   55.4613   24.0823   42.8537 H   0  0  0  0  0  0  0  0  0  0  0  0
   52.7310   23.7130   44.6260 C   0  0  0  0  0  0  0  0  0  0  0  0
   52.3694   23.6315   45.6616 H   0  0  0  0  0  0  0  0  0  0  0  0
   52.1778   24.5090   44.1060 H   0  0  0  0  0  0  0  0  0  0  0  0
   52.5728   22.7567   44.1060 H   0  0  0  0  0  0  0  0  0  0  0  0
   55.9730   25.8950   46.3700 C   0  0  0  0  0  0  0  0  0  0  0  0
   54.8900   26.6990   46.0350 O   0  0  0  0  0  0  0  0  0  0  0  0
   58.2140   29.7620   45.5880 C   0  0  0  0  0  0  0  0  0  0  0  0
   59.3570   30.0500   46.0330 O   0  0  0  0  0  0  0  0  0  0  0  0
   57.5850   30.4570   44.6230 N   0  0  0  0  0  0  0  0  0  0  0  0
   58.1010   31.6360   43.9160 C   0  0  0  0  0  0  0  0  0  0  0  0
   59.0347   31.3688   43.3995 H   0  0  0  0  0  0  0  0  0  0  0  0
   57.3484   31.9724   43.1877 H   0  0  0  0  0  0  0  0  0  0  0  0
   58.3740   32.7540   44.8870 C   0  0  0  0  0  0  0  0  0  0  0  0
   59.1800   33.8390   44.5050 C   0  0  0  0  0  0  0  0  0  0  0  0
   59.6208   33.8649   43.4975 H   0  0  0  0  0  0  0  0  0  0  0  0
   59.4250   34.8860   45.3980 C   0  0  0  0  0  0  0  0  0  0  0  0
   60.0569   35.7328   45.0919 H   0  0  0  0  0  0  0  0  0  0  0  0
   58.8680   34.8580   46.6790 C   0  0  0  0  0  0  0  0  0  0  0  0
   59.0596   35.6838   47.3800 H   0  0  0  0  0  0  0  0  0  0  0  0
   58.0680   33.7820   47.0700 C   0  0  0  0  0  0  0  0  0  0  0  0
   57.6323   33.7600   48.0798 H   0  0  0  0  0  0  0  0  0  0  0  0
   57.8200   32.7320   46.1790 C   0  0  0  0  0  0  0  0  0  0  0  0
   57.1893   31.8863   46.4905 H   0  0  0  0  0  0  0  0  0  0  0  0
  1  2  1  0
  2  3  1  0
  2  4  2  0
  4  5  1  0
  5  6  1  0
  6  7  2  0
  7  8  1  0
  7  9  1  0
  9 10  1  0
 10 11  1  0
 11 12  2  0
 11 13  1  0
 13 14  1  0
 14 15  1  0
 14 16  1  0
 14 17  1  0
 17 18  1  0
 17 19  1  0
 19 20  1  0
 19 21  1  0
 19 22  1  0
 17 23  1  0
 23 24  1  0
 23 25  1  0
 23 26  1  0
 13 27  1  0
 27 28  1  0
  6 29  1  0
 29 30  2  0
 29 31  1  0
 31 32  1  0
 32 33  1  0
 32 34  1  0
 32 35  1  0
 35 36  2  0
 36 37  1  0
 36 38  1  0
 38 39  1  0
 38 40  2  0
 40 41  1  0
 40 42  1  0
 42 43  1  0
 42 44  2  0
 44 45  1  0
 31  4  1  0
 44 35  1  0
 27  9  2  0
M  CHG  3   5  -1  10  -1  28  -1
M  END
>  <UniqueID>  (67) 
66

>  <SMILES>  (67) 
C=c1[n-]/c(=C/c2[n-]c(=O)n(CC(C)C)c2[O-])c(=O)n1Cc1ccccc1

>  <Energy>  (67) 
111.56071326090988

>  <Genealogy>  (67) 
C=c1[n-]c(=Cc2[n-]c(=O)n(CC(C)C)c2[O-])c(=O)n1Cc1ccccc1 (protonated)
C=c1[n-]/c(=C/c2[n-]c(=O)n(CC(C)C)c2[O-])c(=O)n1Cc1ccccc1 (cis-trans isomerization)
C=c1[n-]/c(=C/c2[n-]c(=O)n(CC(C)C)c2[O-])c(=O)n1Cc1ccccc1 (3D coordinates assigned)
C=c1[n-]/c(=C/c2[n-]c(=O)n(CC(C)C)c2[O-])c(=O)n1Cc1ccccc1 (optimized conformer: 111.56071326090988 kcal/mol)

>  <smiles>  (67) 
C=c1[nH]c(=Cc2[nH]c(=O)n(CC(C)C)c2O)c(=O)n1Cc1ccccc1

>  <score_type>  (67) 
oracle

>  <origin>  (67) 
adg

>  <m_score__min__energy>  (67) 
-15.279999999999999

>  <m_primary>  (67) 
energy

$$$$
67:0
     RDKit          3D

 48 50  0  0  0  0  0  0  0  0999 V2000
   54.8010   23.6990   44.1520 C   0  0  0  0  0  0  0  0  0  0  0  0
   54.0720   24.5700   45.5250 S   0  0  0  0  0  0  0  0  0  0  0  0
   52.6330   24.8870   45.2360 O   0  0  0  0  0  0  0  0  0  0  0  0
   54.1350   23.6940   46.7430 O   0  0  0  0  0  0  0  0  0  0  0  0
   54.9490   26.0300   45.8420 N   0  0  0  0  0  0  0  0  0  0  0  0
   56.3780   26.1540   45.8990 C   0  0  0  0  0  0  0  0  0  0  0  0
   57.2340   25.0400   45.8180 C   0  0  0  0  0  0  0  0  0  0  0  0
   58.6210   25.2170   45.8490 C   0  0  0  0  0  0  0  0  0  0  0  0
   59.1660   26.5000   45.9510 C   0  0  0  0  0  0  0  0  0  0  0  0
   58.3220   27.6160   46.0450 C   0  0  0  0  0  0  0  0  0  0  0  0
   58.9920   29.2450   46.1150 S   0  0  0  0  0  0  0  0  0  0  0  0
   59.6230   29.4820   47.4570 O   0  0  0  0  0  0  0  0  0  0  0  0
   60.0440   29.4170   45.0560 O   0  0  0  0  0  0  0  0  0  0  0  0
   57.7210   30.3890   45.8360 N   0  0  0  0  0  0  0  0  0  0  0  0
   57.9870   31.7900   45.9370 C   0  0  0  0  0  0  0  0  0  0  0  0
   57.3980   32.6910   45.0380 C   0  0  0  0  0  0  0  0  0  0  0  0
   57.7370   34.0450   45.0800 C   0  0  0  0  0  0  0  0  0  0  0  0
   58.6720   34.5050   46.0140 C   0  0  0  0  0  0  0  0  0  0  0  0
   59.2660   33.6120   46.9200 C   0  0  0  0  0  0  0  0  0  0  0  0
   60.2640   34.0870   47.8930 C   0  0  0  0  0  0  0  0  0  0  0  0
   59.9120   34.9090   48.7820 O   0  0  0  0  0  0  0  0  0  0  0  0
   61.6210   33.6100   47.8640 N   0  0  0  0  0  0  0  0  0  0  0  0
   62.0110   32.3210   47.3150 C   0  0  0  0  0  0  0  0  0  0  0  0
   63.3990   32.0420   47.8770 C   0  0  0  0  0  0  0  0  0  0  0  0
   63.9280   33.3910   48.3510 C   0  0  0  0  0  0  0  0  0  0  0  0
   62.6930   34.2450   48.6080 C   0  0  0  0  0  0  0  0  0  0  0  0
   58.8960   32.2590   46.8940 C   0  0  0  0  0  0  0  0  0  0  0  0
   56.9320   27.4330   46.0290 C   0  0  0  0  0  0  0  0  0  0  0  0
   55.4639   22.9070   44.5305 H   0  0  0  0  0  0  0  0  0  0  0  0
   54.0058   23.2497   43.5389 H   0  0  0  0  0  0  0  0  0  0  0  0
   55.3833   24.4026   43.5389 H   0  0  0  0  0  0  0  0  0  0  0  0
   56.8115   24.0282   45.7301 H   0  0  0  0  0  0  0  0  0  0  0  0
   59.2859   24.3425   45.7929 H   0  0  0  0  0  0  0  0  0  0  0  0
   60.2577   26.6345   45.9576 H   0  0  0  0  0  0  0  0  0  0  0  0
   56.7430   30.0570   45.9880 H   0  0  0  0  0  0  0  0  0  0  0  0
   56.6678   32.3305   44.2986 H   0  0  0  0  0  0  0  0  0  0  0  0
   57.2686   34.7507   44.3782 H   0  0  0  0  0  0  0  0  0  0  0  0
   58.9428   35.5709   46.0385 H   0  0  0  0  0  0  0  0  0  0  0  0
   61.3044   31.5392   47.6304 H   0  0  0  0  0  0  0  0  0  0  0  0
   62.0103   32.3290   46.2150 H   0  0  0  0  0  0  0  0  0  0  0  0
   63.3378   31.3363   48.7186 H   0  0  0  0  0  0  0  0  0  0  0  0
   64.0594   31.5876   47.1237 H   0  0  0  0  0  0  0  0  0  0  0  0
   64.5120   33.2716   49.2755 H   0  0  0  0  0  0  0  0  0  0  0  0
   64.5953   33.8517   47.6077 H   0  0  0  0  0  0  0  0  0  0  0  0
   62.4562   34.2651   49.6820 H   0  0  0  0  0  0  0  0  0  0  0  0
   62.8455   35.2881   48.2940 H   0  0  0  0  0  0  0  0  0  0  0  0
   59.3226   31.5617   47.6301 H   0  0  0  0  0  0  0  0  0  0  0  0
   56.2684   28.3056   46.1198 H   0  0  0  0  0  0  0  0  0  0  0  0
  1  2  1  0
  2  3  2  0
  2  4  2  0
  2  5  1  0
  5  6  1  0
  6  7  2  0
  7  8  1  0
  8  9  2  0
  9 10  1  0
 10 11  1  0
 11 12  2  0
 11 13  2  0
 11 14  1  0
 14 15  1  0
 15 16  2  0
 16 17  1  0
 17 18  2  0
 18 19  1  0
 19 20  1  0
 20 21  2  0
 20 22  1  0
 22 23  1  0
 23 24  1  0
 24 25  1  0
 25 26  1  0
 19 27  2  0
 10 28  2  0
 28  6  1  0
 27 15  1  0
 26 22  1  0
  1 29  1  0
  1 30  1  0
  1 31  1  0
  7 32  1  0
  8 33  1  0
  9 34  1  0
 14 35  1  0
 16 36  1  0
 17 37  1  0
 18 38  1  0
 23 39  1  0
 23 40  1  0
 24 41  1  0
 24 42  1  0
 25 43  1  0
 25 44  1  0
 26 45  1  0
 26 46  1  0
 27 47  1  0
 28 48  1  0
M  CHG  1   5  -1
M  END
>  <UniqueID>  (68) 
67

>  <SMILES>  (68) 
CS(=O)(=O)[N-]c1cccc(S(=O)(=O)Nc2cccc(C(=O)N3CCCC3)c2)c1

>  <Energy>  (68) 
55.65375445666188

>  <Genealogy>  (68) 
CS(=O)(=O)[N-]c1cccc(S(=O)(=O)Nc2cccc(C(=O)N3CCCC3)c2)c1 (protonated)
CS(=O)(=O)[N-]c1cccc(S(=O)(=O)Nc2cccc(C(=O)N3CCCC3)c2)c1 (3D coordinates assigned)
CS(=O)(=O)[N-]c1cccc(S(=O)(=O)Nc2cccc(C(=O)N3CCCC3)c2)c1 (nonaromatic ring conformer: 55.65375445666188 kcal/mol)

>  <smiles>  (68) 
CS(=O)(=O)Nc1cccc(S(=O)(=O)Nc2cccc(C(=O)N3CCCC3)c2)c1

>  <score_type>  (68) 
oracle

>  <origin>  (68) 
adg

>  <m_score__min__energy>  (68) 
-12.25

>  <m_primary>  (68) 
energy

$$$$
68:0
     RDKit          3D

 59 62  0  0  0  0  0  0  0  0999 V2000
   59.7945   29.0490   47.7356 H   0  0  0  0  0  0  0  0  0  0  0  0
   58.9100   28.7880   47.1360 C   0  0  0  0  0  0  0  0  0  0  0  0
   58.4330   27.8045   47.2589 H   0  0  0  0  0  0  0  0  0  0  0  0
   58.4120   29.6710   46.2530 C   0  0  0  0  0  0  0  0  0  0  0  0
   57.2960   29.5050   45.4100 C   0  0  0  0  0  0  0  0  0  0  0  0
   56.4240   28.4850   45.2780 C   0  0  0  0  0  0  0  0  0  0  0  0
   55.4294   28.7181   44.8700 H   0  0  0  0  0  0  0  0  0  0  0  0
   56.6970   27.0920   45.6350 C   0  0  0  0  0  0  0  0  0  0  0  0
   57.9260   26.5380   45.6490 N   0  0  0  0  0  0  0  0  0  0  0  0
   57.6890   25.2550   45.9950 C   0  0  0  0  0  0  0  0  0  0  0  0
   58.6110   24.4040   46.1160 O   0  0  0  0  0  0  0  0  0  0  0  0
   56.3810   24.9710   46.1950 N   0  0  0  0  0  0  0  0  0  0  0  0
   55.7920   23.6590   46.4940 C   0  0  0  0  0  0  0  0  0  0  0  0
   56.5021   22.8801   46.1794 H   0  0  0  0  0  0  0  0  0  0  0  0
   55.5640   23.4810   48.0000 C   0  0  0  0  0  0  0  0  0  0  0  0
   56.3123   24.0652   48.5557 H   0  0  0  0  0  0  0  0  0  0  0  0
   54.5554   23.8330   48.2623 H   0  0  0  0  0  0  0  0  0  0  0  0
   55.6608   22.4171   48.2623 H   0  0  0  0  0  0  0  0  0  0  0  0
   54.4930   23.4710   45.7070 C   0  0  0  0  0  0  0  0  0  0  0  0
   53.6540   23.3496   46.4079 H   0  0  0  0  0  0  0  0  0  0  0  0
   54.3170   24.3530   45.0737 H   0  0  0  0  0  0  0  0  0  0  0  0
   54.5743   22.5753   45.0737 H   0  0  0  0  0  0  0  0  0  0  0  0
   55.7580   26.1370   45.9390 C   0  0  0  0  0  0  0  0  0  0  0  0
   54.3850   26.3330   45.9710 O   0  0  0  0  0  0  0  0  0  0  0  0
   57.2070   30.6600   44.6540 C   0  0  0  0  0  0  0  0  0  0  0  0
   56.4642   30.8731   43.8712 H   0  0  0  0  0  0  0  0  0  0  0  0
   58.2260   31.4950   45.0670 C   0  0  0  0  0  0  0  0  0  0  0  0
   58.4050   32.8710   44.5480 C   0  0  0  0  0  0  0  0  0  0  0  0
   58.5400   33.0240   43.3020 O   0  0  0  0  0  0  0  0  0  0  0  0
   58.2880   34.0320   45.4140 N   0  0  0  0  0  0  0  0  0  0  0  0
   57.4850   34.6100   45.0780 H   0  0  0  0  0  0  0  0  0  0  0  0
   57.9830   33.6320   46.8230 C   0  0  0  0  0  0  0  0  0  0  0  0
   56.9434   33.9139   47.0462 H   0  0  0  0  0  0  0  0  0  0  0  0
   58.1488   32.5467   46.8909 H   0  0  0  0  0  0  0  0  0  0  0  0
   58.8960   34.2890   47.8640 C   0  0  0  0  0  0  0  0  0  0  0  0
   58.6558   35.3599   47.9374 H   0  0  0  0  0  0  0  0  0  0  0  0
   58.7402   33.8083   48.8410 H   0  0  0  0  0  0  0  0  0  0  0  0
   60.2960   34.1300   47.4620 N   0  0  0  0  0  0  0  0  0  0  0  0
   61.2840   33.6860   48.4100 C   0  0  0  0  0  0  0  0  0  0  0  0
   60.9710   32.8550   49.3070 O   0  0  0  0  0  0  0  0  0  0  0  0
   62.7120   34.1470   48.3110 C   0  0  0  0  0  0  0  0  0  0  0  0
   62.5221   35.1906   48.6022 H   0  0  0  0  0  0  0  0  0  0  0  0
   63.5320   33.4600   47.2230 C   0  0  0  0  0  0  0  0  0  0  0  0
   63.0494   32.7477   46.5377 H   0  0  0  0  0  0  0  0  0  0  0  0
   64.1841   33.8037   46.4065 H   0  0  0  0  0  0  0  0  0  0  0  0
   63.7410   33.0890   48.6790 C   0  0  0  0  0  0  0  0  0  0  0  0
   63.4109   32.1068   49.0483 H   0  0  0  0  0  0  0  0  0  0  0  0
   64.6091   33.0522   49.3536 H   0  0  0  0  0  0  0  0  0  0  0  0
   60.6840   34.4420   46.0810 C   0  0  0  0  0  0  0  0  0  0  0  0
   61.4410   35.2400   46.0926 H   0  0  0  0  0  0  0  0  0  0  0  0
   61.0890   33.5298   45.6186 H   0  0  0  0  0  0  0  0  0  0  0  0
   59.4750   34.9100   45.2560 C   0  0  0  0  0  0  0  0  0  0  0  0
   59.2040   35.9265   45.5774 H   0  0  0  0  0  0  0  0  0  0  0  0
   59.7684   34.8780   44.1963 H   0  0  0  0  0  0  0  0  0  0  0  0
   58.9820   30.8830   46.0120 N   0  0  0  0  0  0  0  0  0  0  0  0
   60.2760   31.3460   46.5330 C   0  0  0  0  0  0  0  0  0  0  0  0
   60.2527   31.3377   47.6327 H   0  0  0  0  0  0  0  0  0  0  0  0
   61.0745   30.6778   46.1781 H   0  0  0  0  0  0  0  0  0  0  0  0
   60.4693   32.3691   46.1781 H   0  0  0  0  0  0  0  0  0  0  0  0
  1  2  1  0
  2  3  1  0
  2  4  2  0
  4  5  1  0
  5  6  2  0
  6  7  1  0
  6  8  1  0
  8  9  1  0
  9 10  1  0
 10 11  2  0
 10 12  1  0
 12 13  1  0
 13 14  1  0
 13 15  1  0
 15 16  1  0
 15 17  1  0
 15 18  1  0
 13 19  1  0
 19 20  1  0
 19 21  1  0
 19 22  1  0
 12 23  1  0
 23 24  1  0
  5 25  1  0
 25 26  1  0
 25 27  2  0
 27 28  1  0
 28 29  2  0
 28 30  1  0
 30 31  1  0
 30 32  1  0
 32 33  1  0
 32 34  1  0
 32 35  1  0
 35 36  1  0
 35 37  1  0
 35 38  1  0
 38 39  1  0
 39 40  2  0
 39 41  1  0
 41 42  1  0
 41 43  1  0
 43 44  1  0
 43 45  1  0
 43 46  1  0
 46 47  1  0
 46 48  1  0
 38 49  1  0
 49 50  1  0
 49 51  1  0
 49 52  1  0
 52 53  1  0
 52 54  1  0
 27 55  1  0
 55 56  1  0
 56 57  1  0
 56 58  1  0
 56 59  1  0
 55  4  1  0
 23  8  2  0
 52 30  1  0
 46 41  1  0
M  CHG  3   9  -1  24  -1  30   1
M  END
>  <UniqueID>  (69) 
68

>  <SMILES>  (69) 
C=c1/c(=C\c2[n-]c(=O)n(C(C)C)c2[O-])cc(C(=O)[NH+]2CCN(C(=O)C3CC3)CC2)n1C

>  <Energy>  (69) 
410.9000803523667

>  <Genealogy>  (69) 
C=c1c(=Cc2[n-]c(=O)n(C(C)C)c2[O-])cc(C(=O)[NH+]2CCN(C(=O)C3CC3)CC2)n1C (protonated)
C=c1/c(=C\c2[n-]c(=O)n(C(C)C)c2[O-])cc(C(=O)[NH+]2CCN(C(=O)C3CC3)CC2)n1C (cis-trans isomerization)
C=c1/c(=C\c2[n-]c(=O)n(C(C)C)c2[O-])cc(C(=O)[NH+]2CCN(C(=O)C3CC3)CC2)n1C (3D coordinates assigned)
C=c1/c(=C\c2[n-]c(=O)n(C(C)C)c2[O-])cc(C(=O)[NH+]2CCN(C(=O)C3CC3)CC2)n1C (nonaromatic ring conformer: 410.9000803523667 kcal/mol)

>  <smiles>  (69) 
C=c1c(=Cc2[nH]c(=O)n(C(C)C)c2O)cc(C(=O)N2CCN(C(=O)C3CC3)CC2)n1C

>  <score_type>  (69) 
oracle

>  <origin>  (69) 
adg

>  <m_score__min__energy>  (69) 
-12.42

>  <m_primary>  (69) 
energy

$$$$
69:0
     RDKit          3D

 69 73  0  0  0  0  0  0  0  0999 V2000
   60.7690   30.2940   47.9810 C   0  0  0  0  0  0  0  0  0  0  0  0
   59.3200   30.4390   48.4400 C   0  0  0  0  0  0  0  0  0  0  0  0
   59.1160   31.7490   49.2190 C   0  0  0  0  0  0  0  0  0  0  0  0
   58.1190   32.6960   48.5310 C   0  0  0  0  0  0  0  0  0  0  0  0
   58.3070   32.7470   47.0350 C   0  0  0  0  0  0  0  0  0  0  0  0
   57.6940   31.8980   46.1810 N   0  0  0  0  0  0  0  0  0  0  0  0
   58.0620   32.2350   44.9570 N   0  0  0  0  0  0  0  0  0  0  0  0
   57.7410   31.4750   43.7500 C   0  0  0  0  0  0  0  0  0  0  0  0
   56.2830   30.9990   43.7870 C   0  0  0  0  0  0  0  0  0  0  0  0
   56.1100   29.8130   44.6970 C   0  0  0  0  0  0  0  0  0  0  0  0
   55.1590   29.0160   44.4940 O   0  0  0  0  0  0  0  0  0  0  0  0
   56.9720   29.5930   45.8230 N   0  0  0  0  0  0  0  0  0  0  0  0
   58.1040   28.7140   45.8580 C   0  0  0  0  0  0  0  0  0  0  0  0
   59.2670   29.0700   45.1610 C   0  0  0  0  0  0  0  0  0  0  0  0
   60.4000   28.2520   45.2180 C   0  0  0  0  0  0  0  0  0  0  0  0
   60.3830   27.0790   45.9770 C   0  0  0  0  0  0  0  0  0  0  0  0
   59.2350   26.7290   46.6920 C   0  0  0  0  0  0  0  0  0  0  0  0
   58.1020   27.5480   46.6430 C   0  0  0  0  0  0  0  0  0  0  0  0
   58.8950   33.2840   45.0700 C   0  0  0  0  0  0  0  0  0  0  0  0
   59.4590   33.8460   44.0910 O   0  0  0  0  0  0  0  0  0  0  0  0
   59.0630   33.6500   46.3580 N   0  0  0  0  0  0  0  0  0  0  0  0
   59.9390   34.7080   46.8700 C   0  0  0  0  0  0  0  0  0  0  0  0
   61.0750   34.1130   47.6580 C   0  0  0  0  0  0  0  0  0  0  0  0
   61.2090   34.3980   49.0250 C   0  0  0  0  0  0  0  0  0  0  0  0
   62.2800   33.8750   49.7550 C   0  0  0  0  0  0  0  0  0  0  0  0
   63.2290   33.0540   49.1310 C   0  0  0  0  0  0  0  0  0  0  0  0
   64.3610   32.4990   49.9070 C   0  0  0  0  0  0  0  0  0  0  0  0
   65.6390   33.0560   49.7140 C   0  0  0  0  0  0  0  0  0  0  0  0
   66.7180   32.6430   50.4980 C   0  0  0  0  0  0  0  0  0  0  0  0
   66.5380   31.6680   51.4790 C   0  0  0  0  0  0  0  0  0  0  0  0
   65.2830   31.0880   51.6700 C   0  0  0  0  0  0  0  0  0  0  0  0
   64.1850   31.4790   50.8820 C   0  0  0  0  0  0  0  0  0  0  0  0
   62.8940   30.7750   51.0710 C   0  0  0  0  0  0  0  0  0  0  0  0
   62.7190   29.4480   50.8780 N   0  0  0  0  0  0  0  0  0  0  0  0
   61.4230   29.3130   51.2070 C   0  0  0  0  0  0  0  0  0  0  0  0
   60.8050   28.2160   51.1630 O   0  0  0  0  0  0  0  0  0  0  0  0
   60.8790   30.4440   51.5720 O   0  0  0  0  0  0  0  0  0  0  0  0
   61.7690   31.3850   51.5040 N   0  0  0  0  0  0  0  0  0  0  0  0
   63.1060   32.7850   47.7600 C   0  0  0  0  0  0  0  0  0  0  0  0
   62.0300   33.2990   47.0320 C   0  0  0  0  0  0  0  0  0  0  0  0
   61.4272   30.2281   48.8599 H   0  0  0  0  0  0  0  0  0  0  0  0
   60.8724   29.3810   47.3762 H   0  0  0  0  0  0  0  0  0  0  0  0
   61.0513   31.1684   47.3762 H   0  0  0  0  0  0  0  0  0  0  0  0
   58.6619   30.4387   47.5586 H   0  0  0  0  0  0  0  0  0  0  0  0
   59.0770   29.5959   49.1034 H   0  0  0  0  0  0  0  0  0  0  0  0
   58.7368   31.5068   50.2228 H   0  0  0  0  0  0  0  0  0  0  0  0
   60.0870   32.2638   49.2659 H   0  0  0  0  0  0  0  0  0  0  0  0
   57.0975   32.3494   48.7463 H   0  0  0  0  0  0  0  0  0  0  0  0
   58.2946   33.7082   48.9241 H   0  0  0  0  0  0  0  0  0  0  0  0
   57.0610   31.1020   46.4200 H   0  0  0  0  0  0  0  0  0  0  0  0
   57.8905   32.1156   42.8684 H   0  0  0  0  0  0  0  0  0  0  0  0
   58.4009   30.5966   43.6965 H   0  0  0  0  0  0  0  0  0  0  0  0
   55.6481   31.8215   44.1480 H   0  0  0  0  0  0  0  0  0  0  0  0
   55.9940   30.6969   42.7696 H   0  0  0  0  0  0  0  0  0  0  0  0
   59.2886   29.9958   44.5673 H   0  0  0  0  0  0  0  0  0  0  0  0
   61.3075   28.5330   44.6635 H   0  0  0  0  0  0  0  0  0  0  0  0
   61.2721   26.4322   46.0115 H   0  0  0  0  0  0  0  0  0  0  0  0
   59.2220   25.8085   47.2941 H   0  0  0  0  0  0  0  0  0  0  0  0
   57.2059   27.2784   47.2211 H   0  0  0  0  0  0  0  0  0  0  0  0
   60.3459   35.2823   46.0247 H   0  0  0  0  0  0  0  0  0  0  0  0
   59.3547   35.3674   47.5286 H   0  0  0  0  0  0  0  0  0  0  0  0
   60.4666   35.0370   49.5255 H   0  0  0  0  0  0  0  0  0  0  0  0
   62.3786   34.1091   50.8253 H   0  0  0  0  0  0  0  0  0  0  0  0
   65.7889   33.8226   48.9395 H   0  0  0  0  0  0  0  0  0  0  0  0
   67.7120   33.0875   50.3417 H   0  0  0  0  0  0  0  0  0  0  0  0
   67.3876   31.3553   52.1039 H   0  0  0  0  0  0  0  0  0  0  0  0
   65.1511   30.3177   52.4441 H   0  0  0  0  0  0  0  0  0  0  0  0
   63.8615   32.1654   47.2547 H   0  0  0  0  0  0  0  0  0  0  0  0
   61.9314   33.0639   45.9620 H   0  0  0  0  0  0  0  0  0  0  0  0
  1  2  1  0
  2  3  1  0
  3  4  1  0
  4  5  1  0
  5  6  2  0
  6  7  1  0
  7  8  1  0
  8  9  1  0
  9 10  1  0
 10 11  2  0
 10 12  1  0
 12 13  1  0
 13 14  2  0
 14 15  1  0
 15 16  2  0
 16 17  1  0
 17 18  2  0
  7 19  1  0
 19 20  2  0
 19 21  1  0
 21 22  1  0
 22 23  1  0
 23 24  2  0
 24 25  1  0
 25 26  2  0
 26 27  1  0
 27 28  2  0
 28 29  1  0
 29 30  2  0
 30 31  1  0
 31 32  2  0
 32 33  1  0
 33 34  2  0
 34 35  1  0
 35 36  2  0
 35 37  1  0
 37 38  1  0
 26 39  1  0
 39 40  2  0
 21  5  1  0
 40 23  1  0
 18 13  1  0
 32 27  1  0
 38 33  1  0
  1 41  1  0
  1 42  1  0
  1 43  1  0
  2 44  1  0
  2 45  1  0
  3 46  1  0
  3 47  1  0
  4 48  1  0
  4 49  1  0
  6 50  1  0
  8 51  1  0
  8 52  1  0
  9 53  1  0
  9 54  1  0
 14 55  1  0
 15 56  1  0
 16 57  1  0
 17 58  1  0
 18 59  1  0
 22 60  1  0
 22 61  1  0
 24 62  1  0
 25 63  1  0
 28 64  1  0
 29 65  1  0
 30 66  1  0
 31 67  1  0
 39 68  1  0
 40 69  1  0
M  CHG  3   6   1  12  -1  38  -1
M  END
>  <UniqueID>  (70) 
69

>  <SMILES>  (70) 
CCCCc1[nH+]n(CCC(=O)[N-]c2ccccc2)c(=O)n1Cc1ccc(-c2ccccc2-c2nc(=O)o[n-]2)cc1

>  <Energy>  (70) 
143.40794637894578

>  <Genealogy>  (70) 
CCCCc1[nH+]n(CCC(=O)[N-]c2ccccc2)c(=O)n1Cc1ccc(-c2ccccc2-c2nc(=O)o[n-]2)cc1 (protonated)
CCCCc1[nH+]n(CCC(=O)[N-]c2ccccc2)c(=O)n1Cc1ccc(-c2ccccc2-c2nc(=O)o[n-]2)cc1 (3D coordinates assigned)
CCCCc1[nH+]n(CCC(=O)[N-]c2ccccc2)c(=O)n1Cc1ccc(-c2ccccc2-c2nc(=O)o[n-]2)cc1 (optimized conformer: 143.40794637894578 kcal/mol)

>  <smiles>  (70) 
CCCCc1nn(CCC(=O)Nc2ccccc2)c(=O)n1Cc1ccc(-c2ccccc2-c2nc(=O)o[nH]2)cc1

>  <score_type>  (70) 
oracle

>  <origin>  (70) 
adg

>  <m_score__min__energy>  (70) 
-11.93

>  <m_primary>  (70) 
energy

$$$$
70:0
     RDKit          3D

 63 66  0  0  0  0  0  0  0  0999 V2000
   54.5530   29.3950   45.6530 H   0  0  0  0  0  0  0  0  0  0  0  0
   55.1680   29.3700   44.8070 N   0  0  0  0  0  0  0  0  0  0  0  0
   56.4560   29.9770   44.8180 C   0  0  0  0  0  0  0  0  0  0  0  0
   56.6650   30.9880   44.0880 O   0  0  0  0  0  0  0  0  0  0  0  0
   57.5600   29.3950   45.6210 C   0  0  0  0  0  0  0  0  0  0  0  0
   58.4400   30.0780   46.4640 C   0  0  0  0  0  0  0  0  0  0  0  0
   58.6540   31.5340   46.5480 C   0  0  0  0  0  0  0  0  0  0  0  0
   57.5670   32.4050   46.3680 C   0  0  0  0  0  0  0  0  0  0  0  0
   56.5592   31.9987   46.1970 H   0  0  0  0  0  0  0  0  0  0  0  0
   57.7650   33.7840   46.4060 C   0  0  0  0  0  0  0  0  0  0  0  0
   56.9127   34.4646   46.2630 H   0  0  0  0  0  0  0  0  0  0  0  0
   59.0420   34.3040   46.6250 C   0  0  0  0  0  0  0  0  0  0  0  0
   59.1868   35.3939   46.6591 H   0  0  0  0  0  0  0  0  0  0  0  0
   60.1420   33.4530   46.8020 C   0  0  0  0  0  0  0  0  0  0  0  0
   61.4000   34.0400   47.0280 O   0  0  0  0  0  0  0  0  0  0  0  0
   62.5100   33.4110   47.6720 C   0  0  0  0  0  0  0  0  0  0  0  0
   62.2514   32.3725   47.9264 H   0  0  0  0  0  0  0  0  0  0  0  0
   63.7220   33.3820   46.7370 C   0  0  0  0  0  0  0  0  0  0  0  0
   64.6454   33.3599   47.3343 H   0  0  0  0  0  0  0  0  0  0  0  0
   63.6742   32.4847   46.1025 H   0  0  0  0  0  0  0  0  0  0  0  0
   63.7172   34.2805   46.1025 H   0  0  0  0  0  0  0  0  0  0  0  0
   62.8410   34.1880   48.9470 C   0  0  0  0  0  0  0  0  0  0  0  0
   62.5815   33.5788   49.8254 H   0  0  0  0  0  0  0  0  0  0  0  0
   63.9161   34.4200   48.9663 H   0  0  0  0  0  0  0  0  0  0  0  0
   62.2635   35.1240   48.9663 H   0  0  0  0  0  0  0  0  0  0  0  0
   59.9410   32.0560   46.7550 C   0  0  0  0  0  0  0  0  0  0  0  0
   60.7953   31.3746   46.8809 H   0  0  0  0  0  0  0  0  0  0  0  0
   59.1780   29.1150   47.1370 C   0  0  0  0  0  0  0  0  0  0  0  0
   60.1990   29.3710   48.1210 C   0  0  0  0  0  0  0  0  0  0  0  0
   61.0190   29.5780   48.9100 N   0  0  0  0  0  0  0  0  0  0  0  0
   58.8180   27.8870   46.7130 N   0  0  0  0  0  0  0  0  0  0  0  0
   57.8460   28.0440   45.8020 C   0  0  0  0  0  0  0  0  0  0  0  0
   57.1890   26.8560   45.1660 C   0  0  0  0  0  0  0  0  0  0  0  0
   56.9017   27.1139   44.1360 H   0  0  0  0  0  0  0  0  0  0  0  0
   56.3034   26.5886   45.7612 H   0  0  0  0  0  0  0  0  0  0  0  0
   58.0990   25.6930   45.1350 N   0  0  0  0  0  0  0  0  0  0  0  0
   57.7530   24.5950   44.2640 C   0  0  0  0  0  0  0  0  0  0  0  0
   57.3040   24.8410   43.1090 O   0  0  0  0  0  0  0  0  0  0  0  0
   57.8930   23.1800   44.6610 C   0  0  0  0  0  0  0  0  0  0  0  0
   58.9016   22.7441   44.7137 H   0  0  0  0  0  0  0  0  0  0  0  0
   56.8440   22.4070   44.9590 C   0  0  0  0  0  0  0  0  0  0  0  0
   56.3763   21.7989   44.1707 H   0  0  0  0  0  0  0  0  0  0  0  0
   56.3060   22.3590   46.3300 C   0  0  0  0  0  0  0  0  0  0  0  0
   56.9510   21.5470   47.2750 C   0  0  0  0  0  0  0  0  0  0  0  0
   57.8167   20.9388   46.9740 H   0  0  0  0  0  0  0  0  0  0  0  0
   56.4990   21.5070   48.5970 C   0  0  0  0  0  0  0  0  0  0  0  0
   57.0043   20.8631   49.3319 H   0  0  0  0  0  0  0  0  0  0  0  0
   55.4080   22.2830   48.9840 C   0  0  0  0  0  0  0  0  0  0  0  0
   55.0514   22.2465   50.0240 H   0  0  0  0  0  0  0  0  0  0  0  0
   54.7660   23.1060   48.0580 C   0  0  0  0  0  0  0  0  0  0  0  0
   53.9149   23.7261   48.3760 H   0  0  0  0  0  0  0  0  0  0  0  0
   55.1990   23.1480   46.7230 C   0  0  0  0  0  0  0  0  0  0  0  0
   54.3360   24.1780   45.5720 S   0  0  0  0  0  0  0  0  0  0  0  0
   52.8660   23.8690   45.6200 O   0  0  0  0  0  0  0  0  0  0  0  0
   54.8590   23.9320   44.1860 O   0  0  0  0  0  0  0  0  0  0  0  0
   54.5450   25.8450   45.9760 N   0  0  0  0  0  0  0  0  0  0  0  0
   53.6550   26.3360   45.7240 H   0  0  0  0  0  0  0  0  0  0  0  0
   59.2770   25.5790   46.0310 C   0  0  0  0  0  0  0  0  0  0  0  0
   60.1857   25.7510   45.4355 H   0  0  0  0  0  0  0  0  0  0  0  0
   59.2526   24.5715   46.4720 H   0  0  0  0  0  0  0  0  0  0  0  0
   59.2600   26.5820   47.1930 C   0  0  0  0  0  0  0  0  0  0  0  0
   60.2726   26.6713   47.6132 H   0  0  0  0  0  0  0  0  0  0  0  0
   58.5665   26.2266   47.9694 H   0  0  0  0  0  0  0  0  0  0  0  0
  1  2  1  0
  2  3  1  0
  3  4  2  0
  3  5  1  0
  5  6  1  0
  6  7  1  0
  7  8  2  0
  8  9  1  0
  8 10  1  0
 10 11  1  0
 10 12  2  0
 12 13  1  0
 12 14  1  0
 14 15  1  0
 15 16  1  0
 16 17  1  0
 16 18  1  0
 18 19  1  0
 18 20  1  0
 18 21  1  0
 16 22  1  0
 22 23  1  0
 22 24  1  0
 22 25  1  0
 14 26  2  0
 26 27  1  0
  6 28  2  0
 28 29  1  0
 29 30  3  0
 28 31  1  0
 31 32  1  0
 32 33  1  0
 33 34  1  0
 33 35  1  0
 33 36  1  0
 36 37  1  0
 37 38  2  0
 37 39  1  0
 39 40  1  0
 39 41  2  0
 41 42  1  0
 41 43  1  0
 43 44  2  0
 44 45  1  0
 44 46  1  0
 46 47  1  0
 46 48  2  0
 48 49  1  0
 48 50  1  0
 50 51  1  0
 50 52  2  0
 52 53  1  0
 53 54  2  0
 53 55  2  0
 53 56  1  0
 56 57  1  0
 36 58  1  0
 58 59  1  0
 58 60  1  0
 58 61  1  0
 61 62  1  0
 61 63  1  0
 32  5  2  0
 52 43  1  0
 26  7  1  0
 61 31  1  0
M  CHG  2   2  -1  56  -1
M  END
>  <UniqueID>  (71) 
70

>  <SMILES>  (71) 
CC(C)Oc1cccc(-c2c(C([NH-])=O)c3n(c2C#N)CCN(C(=O)/C=C/c2ccccc2S([NH-])(=O)=O)C3)c1

>  <Energy>  (71) 
111.69301895917644

>  <Genealogy>  (71) 
CC(C)Oc1cccc(-c2c(C([NH-])=O)c3n(c2C#N)CCN(C(=O)C=Cc2ccccc2S([NH-])(=O)=O)C3)c1 (protonated)
CC(C)Oc1cccc(-c2c(C([NH-])=O)c3n(c2C#N)CCN(C(=O)/C=C/c2ccccc2S([NH-])(=O)=O)C3)c1 (cis-trans isomerization)
CC(C)Oc1cccc(-c2c(C([NH-])=O)c3n(c2C#N)CCN(C(=O)/C=C/c2ccccc2S([NH-])(=O)=O)C3)c1 (3D coordinates assigned)
CC(C)Oc1cccc(-c2c(C([NH-])=O)c3n(c2C#N)CCN(C(=O)/C=C/c2ccccc2S([NH-])(=O)=O)C3)c1 (nonaromatic ring conformer: 111.69301895917644 kcal/mol)

>  <smiles>  (71) 
CC(C)Oc1cccc(-c2c(C(N)=O)c3n(c2C#N)CCN(C(=O)C=Cc2ccccc2S(N)(=O)=O)C3)c1

>  <score_type>  (71) 
oracle

>  <origin>  (71) 
adg

>  <m_score__min__energy>  (71) 
-15.51

>  <m_primary>  (71) 
energy

$$$$
71:0
     RDKit          3D

 32 34  0  0  0  0  0  0  0  0999 V2000
   60.7570   30.1940   47.4560 C   0  0  0  0  0  0  0  0  0  0  0  0
   59.6280   29.9740   46.7750 C   0  0  0  0  0  0  0  0  0  0  0  0
   59.1320   28.7340   46.5620 N   0  0  0  0  0  0  0  0  0  0  0  0
   58.0360   28.9110   45.7920 C   0  0  0  0  0  0  0  0  0  0  0  0
   57.2480   27.9350   45.3140 C   0  0  0  0  0  0  0  0  0  0  0  0
   57.1920   26.5750   45.8920 C   0  0  0  0  0  0  0  0  0  0  0  0
   55.9560   26.0120   46.2460 C   0  0  0  0  0  0  0  0  0  0  0  0
   54.7730   26.7080   46.0280 O   0  0  0  0  0  0  0  0  0  0  0  0
   55.9080   24.7720   46.7990 N   0  0  0  0  0  0  0  0  0  0  0  0
   57.0410   24.0630   47.0320 C   0  0  0  0  0  0  0  0  0  0  0  0
   56.9710   22.9150   47.5400 O   0  0  0  0  0  0  0  0  0  0  0  0
   58.2510   24.5950   46.7240 N   0  0  0  0  0  0  0  0  0  0  0  0
   58.3550   25.8320   46.1710 C   0  0  0  0  0  0  0  0  0  0  0  0
   59.4970   26.3080   45.9330 O   0  0  0  0  0  0  0  0  0  0  0  0
   57.8940   30.2620   45.5520 C   0  0  0  0  0  0  0  0  0  0  0  0
   56.9780   30.8030   44.8750 O   0  0  0  0  0  0  0  0  0  0  0  0
   58.8820   30.9380   46.1730 N   0  0  0  0  0  0  0  0  0  0  0  0
   59.0670   32.3650   46.1850 C   0  0  0  0  0  0  0  0  0  0  0  0
   59.4970   33.0130   47.3540 C   0  0  0  0  0  0  0  0  0  0  0  0
   59.6930   34.3970   47.3630 C   0  0  0  0  0  0  0  0  0  0  0  0
   59.4680   35.1440   46.2030 C   0  0  0  0  0  0  0  0  0  0  0  0
   59.6600   36.4860   46.2110 F   0  0  0  0  0  0  0  0  0  0  0  0
   59.0500   34.5050   45.0310 C   0  0  0  0  0  0  0  0  0  0  0  0
   58.8530   33.1200   45.0200 C   0  0  0  0  0  0  0  0  0  0  0  0
   61.1195   31.2222   47.6025 H   0  0  0  0  0  0  0  0  0  0  0  0
   61.3236   29.3469   47.8699 H   0  0  0  0  0  0  0  0  0  0  0  0
   59.5490   27.8320   46.8860 H   0  0  0  0  0  0  0  0  0  0  0  0
   56.6101   28.1588   44.4463 H   0  0  0  0  0  0  0  0  0  0  0  0
   59.6806   32.4285   48.2676 H   0  0  0  0  0  0  0  0  0  0  0  0
   60.0247   34.8989   48.2839 H   0  0  0  0  0  0  0  0  0  0  0  0
   58.8760   35.0920   44.1172 H   0  0  0  0  0  0  0  0  0  0  0  0
   58.5292   32.6202   44.0952 H   0  0  0  0  0  0  0  0  0  0  0  0
  1  2  2  0
  2  3  1  0
  3  4  1  0
  4  5  2  3
  5  6  1  0
  6  7  2  0
  7  8  1  0
  7  9  1  0
  9 10  1  0
 10 11  2  0
 10 12  1  0
 12 13  1  0
 13 14  2  0
  4 15  1  0
 15 16  2  0
 15 17  1  0
 17 18  1  0
 18 19  2  0
 19 20  1  0
 20 21  2  0
 21 22  1  0
 21 23  1  0
 23 24  2  0
 17  2  1  0
 24 18  1  0
 13  6  1  0
  1 25  1  0
  1 26  1  0
  3 27  1  0
  5 28  1  0
 19 29  1  0
 20 30  1  0
 23 31  1  0
 24 32  1  0
M  CHG  3   8  -1   9  -1  12  -1
M  END
>  <UniqueID>  (72) 
71

>  <SMILES>  (72) 
C=c1[nH]c(=Cc2c([O-])[n-]c(=O)[n-]c2=O)c(=O)n1-c1ccc(F)cc1

>  <Energy>  (72) 
85.0580459808835

>  <Genealogy>  (72) 
C=c1[nH]c(=Cc2c([O-])[n-]c(=O)[n-]c2=O)c(=O)n1-c1ccc(F)cc1 (protonated)
C=c1[nH]c(=Cc2c([O-])[n-]c(=O)[n-]c2=O)c(=O)n1-c1ccc(F)cc1 (3D coordinates assigned)
C=c1[nH]c(=Cc2c([O-])[n-]c(=O)[n-]c2=O)c(=O)n1-c1ccc(F)cc1 (optimized conformer: 85.0580459808835 kcal/mol)

>  <smiles>  (72) 
C=c1[nH]c(=Cc2c(O)[nH]c(=O)[nH]c2=O)c(=O)n1-c1ccc(F)cc1

>  <score_type>  (72) 
oracle

>  <origin>  (72) 
adg

>  <m_score__min__energy>  (72) 
-15.25

>  <m_primary>  (72) 
energy

$$$$
72:0
     RDKit          3D

 55 58  0  0  0  0  0  0  0  0999 V2000
   53.5284   27.3803   54.3942 H   0  0  0  0  0  0  0  0  0  0  0  0
   53.2600   28.3560   53.9630 C   0  0  0  0  0  0  0  0  0  0  0  0
   52.2136   28.6947   53.9778 H   0  0  0  0  0  0  0  0  0  0  0  0
   54.2090   29.1330   53.4190 C   0  0  0  0  0  0  0  0  0  0  0  0
   54.0170   30.3900   52.8370 C   0  0  0  0  0  0  0  0  0  0  0  0
   52.8630   31.0800   52.7460 C   0  0  0  0  0  0  0  0  0  0  0  0
   52.5026   31.6043   53.6433 H   0  0  0  0  0  0  0  0  0  0  0  0
   52.0540   31.1750   51.5170 C   0  0  0  0  0  0  0  0  0  0  0  0
   52.2300   30.3720   50.4550 N   0  0  0  0  0  0  0  0  0  0  0  0
   51.3560   30.8550   49.5450 C   0  0  0  0  0  0  0  0  0  0  0  0
   51.2140   30.3470   48.4030 O   0  0  0  0  0  0  0  0  0  0  0  0
   50.6510   31.9320   49.9530 N   0  0  0  0  0  0  0  0  0  0  0  0
   51.1130   32.1320   51.1990 C   0  0  0  0  0  0  0  0  0  0  0  0
   50.7170   33.1920   52.0030 O   0  0  0  0  0  0  0  0  0  0  0  0
   55.2690   30.8250   52.4270 C   0  0  0  0  0  0  0  0  0  0  0  0
   55.5041   31.7812   51.9368 H   0  0  0  0  0  0  0  0  0  0  0  0
   56.1630   29.8240   52.7540 C   0  0  0  0  0  0  0  0  0  0  0  0
   57.6500   29.9150   52.5310 C   0  0  0  0  0  0  0  0  0  0  0  0
   58.1313   29.0278   52.9684 H   0  0  0  0  0  0  0  0  0  0  0  0
   57.8323   29.9676   51.4475 H   0  0  0  0  0  0  0  0  0  0  0  0
   58.2350   31.1550   53.1690 C   0  0  0  0  0  0  0  0  0  0  0  0
   57.4500   31.9810   53.7130 O   0  0  0  0  0  0  0  0  0  0  0  0
   59.6490   31.4550   53.0940 N   0  0  0  0  0  0  0  0  0  0  0  0
   60.1540   32.7570   53.5610 C   0  0  0  0  0  0  0  0  0  0  0  0
   59.3141   33.4625   53.6441 H   0  0  0  0  0  0  0  0  0  0  0  0
   60.6338   32.6219   54.5416 H   0  0  0  0  0  0  0  0  0  0  0  0
   61.1890   33.3170   52.5740 C   0  0  0  0  0  0  0  0  0  0  0  0
   60.6628   33.7258   51.6988 H   0  0  0  0  0  0  0  0  0  0  0  0
   61.7652   34.1006   53.0878 H   0  0  0  0  0  0  0  0  0  0  0  0
   62.1270   32.2770   52.1240 N   0  0  0  0  0  0  0  0  0  0  0  0
   63.0440   32.5590   51.0500 C   0  0  0  0  0  0  0  0  0  0  0  0
   62.6090   32.5200   49.7160 C   0  0  0  0  0  0  0  0  0  0  0  0
   61.5636   32.2667   49.4858 H   0  0  0  0  0  0  0  0  0  0  0  0
   63.5070   32.8040   48.6760 C   0  0  0  0  0  0  0  0  0  0  0  0
   63.0610   32.7230   47.2390 C   0  0  0  0  0  0  0  0  0  0  0  0
   63.7430   33.6400   46.4580 F   0  0  0  0  0  0  0  0  0  0  0  0
   61.7060   32.9900   47.1340 F   0  0  0  0  0  0  0  0  0  0  0  0
   63.3060   31.4510   46.7560 F   0  0  0  0  0  0  0  0  0  0  0  0
   64.8450   33.0750   48.9950 C   0  0  0  0  0  0  0  0  0  0  0  0
   65.5751   33.2680   48.1952 H   0  0  0  0  0  0  0  0  0  0  0  0
   65.2470   33.0990   50.3310 C   0  0  0  0  0  0  0  0  0  0  0  0
   66.2939   33.3229   50.5836 H   0  0  0  0  0  0  0  0  0  0  0  0
   64.3510   32.8470   51.3220 N   0  0  0  0  0  0  0  0  0  0  0  0
   64.6910   32.8480   52.3100 H   0  0  0  0  0  0  0  0  0  0  0  0
   62.0520   30.9340   52.7060 C   0  0  0  0  0  0  0  0  0  0  0  0
   62.7036   30.2523   52.1397 H   0  0  0  0  0  0  0  0  0  0  0  0
   62.3817   30.9705   53.7548 H   0  0  0  0  0  0  0  0  0  0  0  0
   60.6080   30.4290   52.6430 C   0  0  0  0  0  0  0  0  0  0  0  0
   60.3722   30.1531   51.6046 H   0  0  0  0  0  0  0  0  0  0  0  0
   60.5198   29.5606   53.3124 H   0  0  0  0  0  0  0  0  0  0  0  0
   55.5210   28.7950   53.3570 N   0  0  0  0  0  0  0  0  0  0  0  0
   56.1300   27.5700   53.8880 C   0  0  0  0  0  0  0  0  0  0  0  0
   56.1151   27.6000   54.9875 H   0  0  0  0  0  0  0  0  0  0  0  0
   55.5615   26.6961   53.5373 H   0  0  0  0  0  0  0  0  0  0  0  0
   57.1699   27.4957   53.5373 H   0  0  0  0  0  0  0  0  0  0  0  0
  1  2  1  0
  2  3  1  0
  2  4  2  0
  4  5  1  0
  5  6  2  0
  6  7  1  0
  6  8  1  0
  8  9  1  0
  9 10  1  0
 10 11  2  0
 10 12  1  0
 12 13  1  0
 13 14  1  0
  5 15  1  0
 15 16  1  0
 15 17  2  0
 17 18  1  0
 18 19  1  0
 18 20  1  0
 18 21  1  0
 21 22  2  0
 21 23  1  0
 23 24  1  0
 24 25  1  0
 24 26  1  0
 24 27  1  0
 27 28  1  0
 27 29  1  0
 27 30  1  0
 30 31  1  0
 31 32  2  0
 32 33  1  0
 32 34  1  0
 34 35  1  0
 35 36  1  0
 35 37  1  0
 35 38  1  0
 34 39  2  0
 39 40  1  0
 39 41  1  0
 41 42  1  0
 41 43  2  0
 43 44  1  0
 30 45  1  0
 45 46  1  0
 45 47  1  0
 45 48  1  0
 48 49  1  0
 48 50  1  0
 17 51  1  0
 51 52  1  0
 52 53  1  0
 52 54  1  0
 52 55  1  0
 51  4  1  0
 13  8  2  0
 48 23  1  0
 43 31  1  0
M  CHG  4   9  -1  12  -1  14  -1  43   1
M  END
>  <UniqueID>  (73) 
72

>  <SMILES>  (73) 
C=c1/c(=C/c2[n-]c(=O)[n-]c2[O-])cc(CC(=O)N2CCN(c3cc(C(F)(F)F)cc[nH+]3)CC2)n1C

>  <Energy>  (73) 
128.49363751884573

>  <Genealogy>  (73) 
C=c1c(=Cc2[n-]c(=O)[n-]c2[O-])cc(CC(=O)N2CCN(c3cc(C(F)(F)F)cc[nH+]3)CC2)n1C (protonated)
C=c1/c(=C/c2[n-]c(=O)[n-]c2[O-])cc(CC(=O)N2CCN(c3cc(C(F)(F)F)cc[nH+]3)CC2)n1C (cis-trans isomerization)
C=c1/c(=C/c2[n-]c(=O)[n-]c2[O-])cc(CC(=O)N2CCN(c3cc(C(F)(F)F)cc[nH+]3)CC2)n1C (3D coordinates assigned)
C=c1/c(=C/c2[n-]c(=O)[n-]c2[O-])cc(CC(=O)N2CCN(c3cc(C(F)(F)F)cc[nH+]3)CC2)n1C (nonaromatic ring conformer: 128.49363751884573 kcal/mol)

>  <smiles>  (73) 
C=c1c(=Cc2[nH]c(=O)[nH]c2O)cc(CC(=O)N2CCN(c3cc(C(F)(F)F)ccn3)CC2)n1C

>  <score_type>  (73) 
oracle

>  <origin>  (73) 
adg

>  <m_score__min__energy>  (73) 
-16.93

>  <m_primary>  (73) 
energy

$$$$
73:0
     RDKit          3D

 71 75  0  0  0  0  0  0  0  0999 V2000
   61.2370   26.0630   49.9930 O   0  0  0  0  0  0  0  0  0  0  0  0
   60.5230   27.1010   49.9350 C   0  0  0  0  0  0  0  0  0  0  0  0
   59.8760   27.4550   48.7010 N   0  0  0  0  0  0  0  0  0  0  0  0
   60.1210   26.7300   47.4550 C   0  0  0  0  0  0  0  0  0  0  0  0
   58.8170   26.4260   46.7670 C   0  0  0  0  0  0  0  0  0  0  0  0
   58.4090   25.0930   46.5930 C   0  0  0  0  0  0  0  0  0  0  0  0
   57.1790   24.8060   45.9950 C   0  0  0  0  0  0  0  0  0  0  0  0
   56.3520   25.8440   45.5580 C   0  0  0  0  0  0  0  0  0  0  0  0
   56.7580   27.1750   45.7030 C   0  0  0  0  0  0  0  0  0  0  0  0
   55.9020   28.2250   45.2550 N   0  0  0  0  0  0  0  0  0  0  0  0
   56.4940   29.5490   44.3100 S   0  0  0  0  0  0  0  0  0  0  0  0
   56.5790   29.1290   42.8700 O   0  0  0  0  0  0  0  0  0  0  0  0
   55.5240   30.6920   44.4280 O   0  0  0  0  0  0  0  0  0  0  0  0
   58.0980   30.0840   44.8820 C   0  0  0  0  0  0  0  0  0  0  0  0
   58.0730   31.5520   45.2070 C   0  0  0  0  0  0  0  0  0  0  0  0
   58.1330   32.5100   44.1800 C   0  0  0  0  0  0  0  0  0  0  0  0
   58.1420   33.8730   44.4880 C   0  0  0  0  0  0  0  0  0  0  0  0
   58.0990   34.2910   45.8210 C   0  0  0  0  0  0  0  0  0  0  0  0
   58.0500   33.3450   46.8490 C   0  0  0  0  0  0  0  0  0  0  0  0
   58.0410   31.9800   46.5460 C   0  0  0  0  0  0  0  0  0  0  0  0
   57.9810   27.4640   46.3250 C   0  0  0  0  0  0  0  0  0  0  0  0
   60.3650   27.9500   51.1360 C   0  0  0  0  0  0  0  0  0  0  0  0
   60.7530   27.4940   52.4040 C   0  0  0  0  0  0  0  0  0  0  0  0
   60.5870   28.3240   53.5140 C   0  0  0  0  0  0  0  0  0  0  0  0
   60.0490   29.6020   53.3560 C   0  0  0  0  0  0  0  0  0  0  0  0
   59.8470   30.3790   54.4520 F   0  0  0  0  0  0  0  0  0  0  0  0
   59.6870   30.0430   52.0710 C   0  0  0  0  0  0  0  0  0  0  0  0
   59.1090   31.3810   51.8400 C   0  0  0  0  0  0  0  0  0  0  0  0
   58.2290   31.8100   52.6340 O   0  0  0  0  0  0  0  0  0  0  0  0
   59.5130   32.1980   50.7260 N   0  0  0  0  0  0  0  0  0  0  0  0
   59.5190   31.6350   49.3650 C   0  0  0  0  0  0  0  0  0  0  0  0
   60.6400   32.2510   48.4970 C   0  0  0  0  0  0  0  0  0  0  0  0
   61.1680   33.5170   49.0500 N   0  0  0  0  0  0  0  0  0  0  0  0
   62.0600   34.1890   48.0680 C   0  0  0  0  0  0  0  0  0  0  0  0
   61.9830   33.5860   46.6670 C   0  0  0  0  0  0  0  0  0  0  0  0
   63.4620   33.2220   46.7470 C   0  0  0  0  0  0  0  0  0  0  0  0
   63.5520   33.8450   48.1370 C   0  0  0  0  0  0  0  0  0  0  0  0
   60.0860   34.3360   49.6340 C   0  0  0  0  0  0  0  0  0  0  0  0
   59.6020   33.6520   50.9120 C   0  0  0  0  0  0  0  0  0  0  0  0
   59.8430   29.2030   51.0110 N   0  0  0  0  0  0  0  0  0  0  0  0
   59.2140   28.2640   48.6740 H   0  0  0  0  0  0  0  0  0  0  0  0
   60.7465   27.3464   46.7926 H   0  0  0  0  0  0  0  0  0  0  0  0
   60.6355   25.7851   47.6841 H   0  0  0  0  0  0  0  0  0  0  0  0
   59.0600   24.2723   46.9286 H   0  0  0  0  0  0  0  0  0  0  0  0
   56.8612   23.7606   45.8680 H   0  0  0  0  0  0  0  0  0  0  0  0
   55.3792   25.6141   45.0988 H   0  0  0  0  0  0  0  0  0  0  0  0
   58.3690   29.5170   45.7848 H   0  0  0  0  0  0  0  0  0  0  0  0
   58.8387   29.9056   44.0886 H   0  0  0  0  0  0  0  0  0  0  0  0
   58.1730   32.1854   43.1297 H   0  0  0  0  0  0  0  0  0  0  0  0
   58.1830   34.6182   43.6799 H   0  0  0  0  0  0  0  0  0  0  0  0
   58.1037   35.3644   46.0612 H   0  0  0  0  0  0  0  0  0  0  0  0
   58.0185   33.6749   47.8979 H   0  0  0  0  0  0  0  0  0  0  0  0
   58.0088   31.2385   47.3579 H   0  0  0  0  0  0  0  0  0  0  0  0
   58.2875   28.5108   46.4676 H   0  0  0  0  0  0  0  0  0  0  0  0
   61.1851   26.4894   52.5231 H   0  0  0  0  0  0  0  0  0  0  0  0
   60.8803   27.9706   54.5135 H   0  0  0  0  0  0  0  0  0  0  0  0
   59.6745   30.5480   49.4295 H   0  0  0  0  0  0  0  0  0  0  0  0
   58.5528   31.8674   48.8933 H   0  0  0  0  0  0  0  0  0  0  0  0
   61.4659   31.5279   48.4259 H   0  0  0  0  0  0  0  0  0  0  0  0
   60.2069   32.4772   47.5115 H   0  0  0  0  0  0  0  0  0  0  0  0
   61.7478   35.2237   48.2728 H   0  0  0  0  0  0  0  0  0  0  0  0
   61.3103   32.7194   46.5868 H   0  0  0  0  0  0  0  0  0  0  0  0
   61.5991   34.1796   45.8242 H   0  0  0  0  0  0  0  0  0  0  0  0
   63.6580   32.1398   46.7283 H   0  0  0  0  0  0  0  0  0  0  0  0
   64.1534   33.5400   45.9528 H   0  0  0  0  0  0  0  0  0  0  0  0
   63.8139   33.1332   48.9337 H   0  0  0  0  0  0  0  0  0  0  0  0
   64.2971   34.6245   48.3543 H   0  0  0  0  0  0  0  0  0  0  0  0
   60.4666   35.3405   49.8711 H   0  0  0  0  0  0  0  0  0  0  0  0
   59.2560   34.4328   48.9186 H   0  0  0  0  0  0  0  0  0  0  0  0
   60.3091   33.8684   51.7264 H   0  0  0  0  0  0  0  0  0  0  0  0
   58.6017   34.0368   51.1597 H   0  0  0  0  0  0  0  0  0  0  0  0
  1  2  2  0
  2  3  1  0
  3  4  1  0
  4  5  1  0
  5  6  2  0
  6  7  1  0
  7  8  2  0
  8  9  1  0
  9 10  1  0
 10 11  1  0
 11 12  2  0
 11 13  2  0
 11 14  1  0
 14 15  1  0
 15 16  2  0
 16 17  1  0
 17 18  2  0
 18 19  1  0
 19 20  2  0
  9 21  2  0
  2 22  1  0
 22 23  2  0
 23 24  1  0
 24 25  2  0
 25 26  1  0
 25 27  1  0
 27 28  1  0
 28 29  2  0
 28 30  1  0
 30 31  1  0
 31 32  1  0
 32 33  1  0
 33 34  1  0
 34 35  1  0
 35 36  1  0
 36 37  1  0
 33 38  1  0
 38 39  1  0
 27 40  2  0
 21  5  1  0
 40 22  1  0
 20 15  1  0
 39 30  1  0
 37 34  1  0
  3 41  1  0
  4 42  1  0
  4 43  1  0
  6 44  1  0
  7 45  1  0
  8 46  1  0
 14 47  1  0
 14 48  1  0
 16 49  1  0
 17 50  1  0
 18 51  1  0
 19 52  1  0
 20 53  1  0
 21 54  1  0
 23 55  1  0
 24 56  1  0
 31 57  1  0
 31 58  1  0
 32 59  1  0
 32 60  1  0
 34 61  1  0
 35 62  1  0
 35 63  1  0
 36 64  1  0
 36 65  1  0
 37 66  1  0
 37 67  1  0
 38 68  1  0
 38 69  1  0
 39 70  1  0
 39 71  1  0
M  CHG  1  10  -1
M  END
>  <UniqueID>  (74) 
73

>  <SMILES>  (74) 
O=C(NCc1cccc([N-]S(=O)(=O)Cc2ccccc2)c1)c1ccc(F)c(C(=O)N2CCN(C3CCC3)CC2)n1

>  <Energy>  (74) 
154.04736881299306

>  <Genealogy>  (74) 
O=C(NCc1cccc([N-]S(=O)(=O)Cc2ccccc2)c1)c1ccc(F)c(C(=O)N2CCN(C3CCC3)CC2)n1 (protonated)
O=C(NCc1cccc([N-]S(=O)(=O)Cc2ccccc2)c1)c1ccc(F)c(C(=O)N2CCN(C3CCC3)CC2)n1 (3D coordinates assigned)
O=C(NCc1cccc([N-]S(=O)(=O)Cc2ccccc2)c1)c1ccc(F)c(C(=O)N2CCN(C3CCC3)CC2)n1 (nonaromatic ring conformer: 154.04736881299306 kcal/mol)

>  <smiles>  (74) 
O=C(NCc1cccc(NS(=O)(=O)Cc2ccccc2)c1)c1ccc(F)c(C(=O)N2CCN(C3CCC3)CC2)n1

>  <score_type>  (74) 
oracle

>  <origin>  (74) 
adg

>  <m_score__min__energy>  (74) 
-12.99

>  <m_primary>  (74) 
energy

$$$$
74:0
     RDKit          3D

 60 62  0  0  0  0  0  0  0  0999 V2000
   59.6970   28.5600   49.3140 C   0  0  0  0  0  0  0  0  0  0  0  0
   60.0130   28.6620   47.8440 C   0  0  0  0  0  0  0  0  0  0  0  0
   60.6020   29.8410   47.3550 C   0  0  0  0  0  0  0  0  0  0  0  0
   60.9010   29.9740   45.9970 C   0  0  0  0  0  0  0  0  0  0  0  0
   60.6230   28.9320   45.1140 C   0  0  0  0  0  0  0  0  0  0  0  0
   60.0510   27.7480   45.5860 C   0  0  0  0  0  0  0  0  0  0  0  0
   59.7520   27.5920   46.9510 C   0  0  0  0  0  0  0  0  0  0  0  0
   59.0820   26.3210   47.4070 C   0  0  0  0  0  0  0  0  0  0  0  0
   57.6450   26.5420   47.4860 N   0  0  0  0  0  0  0  0  0  0  0  0
   56.7570   26.3280   46.3850 C   0  0  0  0  0  0  0  0  0  0  0  0
   55.7280   25.6130   46.5210 O   0  0  0  0  0  0  0  0  0  0  0  0
   57.0170   27.0230   45.0850 C   0  0  0  0  0  0  0  0  0  0  0  0
   56.5600   28.4080   45.1610 N   0  0  0  0  0  0  0  0  0  0  0  0
   56.6690   29.3080   44.0480 C   0  0  0  0  0  0  0  0  0  0  0  0
   57.0240   28.8840   42.9170 O   0  0  0  0  0  0  0  0  0  0  0  0
   56.3330   30.6890   44.2010 N   0  0  0  0  0  0  0  0  0  0  0  0
   57.1740   31.6460   44.8580 C   0  0  0  0  0  0  0  0  0  0  0  0
   57.3730   32.9310   44.3210 C   0  0  0  0  0  0  0  0  0  0  0  0
   58.1930   33.8500   44.9800 C   0  0  0  0  0  0  0  0  0  0  0  0
   58.8310   33.4920   46.1740 C   0  0  0  0  0  0  0  0  0  0  0  0
   59.9030   34.6310   46.9810 S   0  0  0  0  0  0  0  0  0  0  0  0
   59.1350   35.3370   48.0640 O   0  0  0  0  0  0  0  0  0  0  0  0
   60.3860   35.6580   45.9950 O   0  0  0  0  0  0  0  0  0  0  0  0
   61.2580   33.7730   47.6720 N   0  0  0  0  0  0  0  0  0  0  0  0
   62.4170   33.8570   46.7660 C   0  0  0  0  0  0  0  0  0  0  0  0
   63.5720   32.9660   47.2640 C   0  0  0  0  0  0  0  0  0  0  0  0
   63.4440   32.6230   48.7630 C   0  0  0  0  0  0  0  0  0  0  0  0
   64.7770   32.1230   49.3300 C   0  0  0  0  0  0  0  0  0  0  0  0
   62.9330   33.8420   49.5460 C   0  0  0  0  0  0  0  0  0  0  0  0
   61.5810   34.3470   48.9960 C   0  0  0  0  0  0  0  0  0  0  0  0
   58.6310   32.2120   46.7130 C   0  0  0  0  0  0  0  0  0  0  0  0
   57.7920   31.3010   46.0640 C   0  0  0  0  0  0  0  0  0  0  0  0
   60.5828   28.8459   49.9002 H   0  0  0  0  0  0  0  0  0  0  0  0
   58.8629   29.2345   49.5574 H   0  0  0  0  0  0  0  0  0  0  0  0
   59.4147   27.5251   49.5574 H   0  0  0  0  0  0  0  0  0  0  0  0
   60.8292   30.6652   48.0471 H   0  0  0  0  0  0  0  0  0  0  0  0
   61.3568   30.9029   45.6237 H   0  0  0  0  0  0  0  0  0  0  0  0
   60.8543   29.0420   44.0442 H   0  0  0  0  0  0  0  0  0  0  0  0
   59.8326   26.9304   44.8833 H   0  0  0  0  0  0  0  0  0  0  0  0
   59.2918   25.5155   46.6879 H   0  0  0  0  0  0  0  0  0  0  0  0
   59.4677   26.0330   48.3961 H   0  0  0  0  0  0  0  0  0  0  0  0
   58.0961   27.0063   44.8720 H   0  0  0  0  0  0  0  0  0  0  0  0
   56.4712   26.5054   44.2824 H   0  0  0  0  0  0  0  0  0  0  0  0
   56.0880   28.7470   46.0300 H   0  0  0  0  0  0  0  0  0  0  0  0
   56.8810   33.2131   43.3785 H   0  0  0  0  0  0  0  0  0  0  0  0
   58.3378   34.8565   44.5604 H   0  0  0  0  0  0  0  0  0  0  0  0
   62.1137   33.5253   45.7620 H   0  0  0  0  0  0  0  0  0  0  0  0
   62.7655   34.9000   46.7379 H   0  0  0  0  0  0  0  0  0  0  0  0
   63.5712   32.0302   46.6859 H   0  0  0  0  0  0  0  0  0  0  0  0
   64.5101   33.5235   47.1257 H   0  0  0  0  0  0  0  0  0  0  0  0
   62.7119   31.8091   48.8713 H   0  0  0  0  0  0  0  0  0  0  0  0
   64.7367   32.1381   50.4292 H   0  0  0  0  0  0  0  0  0  0  0  0
   64.9602   31.0951   48.9839 H   0  0  0  0  0  0  0  0  0  0  0  0
   65.5910   32.7769   48.9839 H   0  0  0  0  0  0  0  0  0  0  0  0
   62.8057   33.5601   50.6016 H   0  0  0  0  0  0  0  0  0  0  0  0
   63.6704   34.6514   49.4409 H   0  0  0  0  0  0  0  0  0  0  0  0
   60.7863   34.0695   49.7041 H   0  0  0  0  0  0  0  0  0  0  0  0
   61.6549   35.4382   48.8781 H   0  0  0  0  0  0  0  0  0  0  0  0
   59.1351   31.9248   47.6476 H   0  0  0  0  0  0  0  0  0  0  0  0
   57.6173   30.3082   46.5042 H   0  0  0  0  0  0  0  0  0  0  0  0
  1  2  1  0
  2  3  2  0
  3  4  1  0
  4  5  2  0
  5  6  1  0
  6  7  2  0
  7  8  1  0
  8  9  1  0
  9 10  1  0
 10 11  2  0
 10 12  1  0
 12 13  1  0
 13 14  1  0
 14 15  2  0
 14 16  1  0
 16 17  1  0
 17 18  2  0
 18 19  1  0
 19 20  2  0
 20 21  1  0
 21 22  2  0
 21 23  2  0
 21 24  1  0
 24 25  1  0
 25 26  1  0
 26 27  1  0
 27 28  1  0
 27 29  1  0
 29 30  1  0
 20 31  1  0
 31 32  2  0
  7  2  1  0
 32 17  1  0
 30 24  1  0
  1 33  1  0
  1 34  1  0
  1 35  1  0
  3 36  1  0
  4 37  1  0
  5 38  1  0
  6 39  1  0
  8 40  1  0
  8 41  1  0
 12 42  1  0
 12 43  1  0
 13 44  1  0
 18 45  1  0
 19 46  1  0
 25 47  1  0
 25 48  1  0
 26 49  1  0
 26 50  1  0
 27 51  1  0
 28 52  1  0
 28 53  1  0
 28 54  1  0
 29 55  1  0
 29 56  1  0
 30 57  1  0
 30 58  1  0
 31 59  1  0
 32 60  1  0
M  CHG  2   9  -1  16  -1
M  END
>  <UniqueID>  (75) 
74

>  <SMILES>  (75) 
Cc1ccccc1C[N-]C(=O)CNC(=O)[N-]c1ccc(S(=O)(=O)N2CCC(C)CC2)cc1

>  <Energy>  (75) 
58.77698424374852

>  <Genealogy>  (75) 
Cc1ccccc1C[N-]C(=O)CNC(=O)[N-]c1ccc(S(=O)(=O)N2CCC(C)CC2)cc1 (protonated)
Cc1ccccc1C[N-]C(=O)CNC(=O)[N-]c1ccc(S(=O)(=O)N2CCC(C)CC2)cc1 (3D coordinates assigned)
Cc1ccccc1C[N-]C(=O)CNC(=O)[N-]c1ccc(S(=O)(=O)N2CCC(C)CC2)cc1 (nonaromatic ring conformer: 58.77698424374852 kcal/mol)

>  <smiles>  (75) 
Cc1ccccc1CNC(=O)CNC(=O)Nc1ccc(S(=O)(=O)N2CCC(C)CC2)cc1

>  <score_type>  (75) 
oracle

>  <origin>  (75) 
adg

>  <m_score__min__energy>  (75) 
-14.07

>  <m_primary>  (75) 
energy

$$$$
75:0
     RDKit          3D

 67 69  0  0  0  0  0  0  0  0999 V2000
   58.1160   31.6830   51.2260 C   0  0  0  0  0  0  0  0  0  0  0  0
   58.7640   33.0700   51.3460 C   0  0  0  0  0  0  0  0  0  0  0  0
   59.6030   33.1350   52.6320 C   0  0  0  0  0  0  0  0  0  0  0  0
   59.6030   33.3590   50.0750 C   0  0  0  0  0  0  0  0  0  0  0  0
   59.7670   32.1910   49.0530 C   0  0  1  0  0  0  0  0  0  0  0  0
   58.7270   32.3930   47.9610 C   0  0  0  0  0  0  0  0  0  0  0  0
   58.1250   31.3930   47.4780 O   0  0  0  0  0  0  0  0  0  0  0  0
   58.3990   33.7150   47.5120 N   0  0  0  0  0  0  0  0  0  0  0  0
   57.5630   33.9500   46.3390 C   0  0  0  0  0  0  0  0  0  0  0  0
   58.4250   34.1570   45.1350 C   0  0  0  0  0  0  0  0  0  0  0  0
   58.7240   35.3250   44.7670 O   0  0  0  0  0  0  0  0  0  0  0  0
   58.8900   33.0210   44.4000 N   0  0  0  0  0  0  0  0  0  0  0  0
   58.0970   32.3300   43.3920 C   0  0  0  0  0  0  0  0  0  0  0  0
   57.4260   31.1380   43.9950 C   0  0  0  0  0  0  0  0  0  0  0  0
   58.0580   30.2950   44.8450 N   0  0  0  0  0  0  0  0  0  0  0  0
   57.1290   29.3640   45.1190 C   0  0  0  0  0  0  0  0  0  0  0  0
   57.3190   28.2600   46.1130 C   0  0  0  0  0  0  0  0  0  0  0  0
   57.0910   26.9320   45.4450 C   0  0  0  0  0  0  0  0  0  0  0  0
   57.7830   26.6050   44.2650 C   0  0  0  0  0  0  0  0  0  0  0  0
   57.6180   25.3460   43.6780 C   0  0  0  0  0  0  0  0  0  0  0  0
   56.7690   24.4040   44.2690 C   0  0  0  0  0  0  0  0  0  0  0  0
   56.5680   22.8230   43.5370 Cl  0  0  0  0  0  0  0  0  0  0  0  0
   56.0820   24.7220   45.4450 C   0  0  0  0  0  0  0  0  0  0  0  0
   56.2470   25.9790   46.0360 C   0  0  0  0  0  0  0  0  0  0  0  0
   55.9740   29.6760   44.4460 C   0  0  0  0  0  0  0  0  0  0  0  0
   54.7810   28.9660   44.5000 O   0  0  0  0  0  0  0  0  0  0  0  0
   56.1490   30.7900   43.7190 N   0  0  0  0  0  0  0  0  0  0  0  0
   61.1620   32.1460   48.5030 N   0  0  0  0  0  0  0  0  0  0  0  0
   61.8380   33.4610   48.5000 C   0  0  0  0  0  0  0  0  0  0  0  0
   61.2220   31.5540   47.1370 C   0  0  0  0  0  0  0  0  0  0  0  0
   60.8940   30.0800   47.1710 C   0  0  0  0  0  0  0  0  0  0  0  0
   60.7110   29.3440   45.9840 C   0  0  0  0  0  0  0  0  0  0  0  0
   60.3610   27.9920   46.0400 C   0  0  0  0  0  0  0  0  0  0  0  0
   60.1670   27.3660   47.2750 C   0  0  0  0  0  0  0  0  0  0  0  0
   60.3170   28.0970   48.4580 C   0  0  0  0  0  0  0  0  0  0  0  0
   60.6710   29.4490   48.4080 C   0  0  0  0  0  0  0  0  0  0  0  0
   57.9270   31.2784   52.2313 H   0  0  0  0  0  0  0  0  0  0  0  0
   57.1647   31.7687   50.6804 H   0  0  0  0  0  0  0  0  0  0  0  0
   58.7921   31.0084   50.6804 H   0  0  0  0  0  0  0  0  0  0  0  0
   57.9932   33.8516   51.4170 H   0  0  0  0  0  0  0  0  0  0  0  0
   58.9380   33.0835   53.5067 H   0  0  0  0  0  0  0  0  0  0  0  0
   60.3052   32.2886   52.6549 H   0  0  0  0  0  0  0  0  0  0  0  0
   60.1664   34.0795   52.6549 H   0  0  0  0  0  0  0  0  0  0  0  0
   59.1264   34.1978   49.5465 H   0  0  0  0  0  0  0  0  0  0  0  0
   60.6196   33.5605   50.4437 H   0  0  0  0  0  0  0  0  0  0  0  0
   59.6058   31.2195   49.5432 H   0  0  0  0  0  0  0  0  0  0  0  0
   58.8410   34.5400   47.9800 H   0  0  0  0  0  0  0  0  0  0  0  0
   56.9105   33.0797   46.1755 H   0  0  0  0  0  0  0  0  0  0  0  0
   56.9494   34.8478   46.5047 H   0  0  0  0  0  0  0  0  0  0  0  0
   57.3335   33.0160   42.9964 H   0  0  0  0  0  0  0  0  0  0  0  0
   58.7588   31.9977   42.5786 H   0  0  0  0  0  0  0  0  0  0  0  0
   58.3440   28.2982   46.5105 H   0  0  0  0  0  0  0  0  0  0  0  0
   56.5991   28.3825   46.9356 H   0  0  0  0  0  0  0  0  0  0  0  0
   58.4562   27.3417   43.8022 H   0  0  0  0  0  0  0  0  0  0  0  0
   58.1559   25.0966   42.7515 H   0  0  0  0  0  0  0  0  0  0  0  0
   55.4108   23.9824   45.9059 H   0  0  0  0  0  0  0  0  0  0  0  0
   55.7136   26.2214   46.9670 H   0  0  0  0  0  0  0  0  0  0  0  0
   62.0066   33.7890   49.5363 H   0  0  0  0  0  0  0  0  0  0  0  0
   62.8039   33.3755   47.9807 H   0  0  0  0  0  0  0  0  0  0  0  0
   61.2064   34.1968   47.9807 H   0  0  0  0  0  0  0  0  0  0  0  0
   60.4970   32.0690   46.4896 H   0  0  0  0  0  0  0  0  0  0  0  0
   62.2429   31.6769   46.7463 H   0  0  0  0  0  0  0  0  0  0  0  0
   60.8441   29.8354   45.0089 H   0  0  0  0  0  0  0  0  0  0  0  0
   60.2378   27.4186   45.1094 H   0  0  0  0  0  0  0  0  0  0  0  0
   59.8969   26.3005   47.3162 H   0  0  0  0  0  0  0  0  0  0  0  0
   60.1562   27.6074   49.4298 H   0  0  0  0  0  0  0  0  0  0  0  0
   60.7756   30.0220   49.3411 H   0  0  0  0  0  0  0  0  0  0  0  0
  1  2  1  0
  2  3  1  0
  2  4  1  0
  4  5  1  0
  5  6  1  0
  6  7  2  0
  6  8  1  0
  8  9  1  0
  9 10  1  0
 10 11  2  0
 10 12  1  0
 12 13  1  0
 13 14  1  0
 14 15  2  0
 15 16  1  0
 16 17  1  0
 17 18  1  0
 18 19  2  0
 19 20  1  0
 20 21  2  0
 21 22  1  0
 21 23  1  0
 23 24  2  0
 16 25  2  0
 25 26  1  0
 25 27  1  0
  5 28  1  0
 28 29  1  0
 28 30  1  0
 30 31  1  0
 31 32  2  0
 32 33  1  0
 33 34  2  0
 34 35  1  0
 35 36  2  0
 27 14  1  0
 36 31  1  0
 24 18  1  0
  1 37  1  0
  1 38  1  0
  1 39  1  0
  2 40  1  0
  3 41  1  0
  3 42  1  0
  3 43  1  0
  4 44  1  0
  4 45  1  0
  5 46  1  1
  8 47  1  0
  9 48  1  0
  9 49  1  0
 13 50  1  0
 13 51  1  0
 17 52  1  0
 17 53  1  0
 19 54  1  0
 20 55  1  0
 23 56  1  0
 24 57  1  0
 29 58  1  0
 29 59  1  0
 29 60  1  0
 30 61  1  0
 30 62  1  0
 32 63  1  0
 33 64  1  0
 34 65  1  0
 35 66  1  0
 36 67  1  0
M  CHG  3  12  -1  26  -1  27  -1
M  END
>  <UniqueID>  (76) 
75

>  <SMILES>  (76) 
CC(C)C[C@@H](C(=O)NCC(=O)[N-]Cc1nc(Cc2ccc(Cl)cc2)c([O-])[n-]1)N(C)Cc1ccccc1

>  <Energy>  (76) 
95.94297168445347

>  <Genealogy>  (76) 
CC(C)CC(C(=O)NCC(=O)[N-]Cc1nc(Cc2ccc(Cl)cc2)c([O-])[n-]1)N(C)Cc1ccccc1 (protonated)
CC(C)C[C@@H](C(=O)NCC(=O)[N-]Cc1nc(Cc2ccc(Cl)cc2)c([O-])[n-]1)N(C)Cc1ccccc1 (chirality)
CC(C)C[C@@H](C(=O)NCC(=O)[N-]Cc1nc(Cc2ccc(Cl)cc2)c([O-])[n-]1)N(C)Cc1ccccc1 (3D coordinates assigned)
CC(C)C[C@@H](C(=O)NCC(=O)[N-]Cc1nc(Cc2ccc(Cl)cc2)c([O-])[n-]1)N(C)Cc1ccccc1 (optimized conformer: 95.94297168445347 kcal/mol)

>  <smiles>  (76) 
CC(C)CC(C(=O)NCC(=O)NCc1nc(Cc2ccc(Cl)cc2)c(O)[nH]1)N(C)Cc1ccccc1

>  <score_type>  (76) 
oracle

>  <origin>  (76) 
adg

>  <m_score__min__energy>  (76) 
-14.44

>  <m_primary>  (76) 
energy

$$$$
76:0
     RDKit          3D

 50 52  0  0  0  0  0  0  0  0999 V2000
   60.7060   30.9230   46.7870 O   0  0  0  0  0  0  0  0  0  0  0  0
   59.8900   30.2690   47.5230 C   0  0  0  0  0  0  0  0  0  0  0  0
   59.1050   30.9490   48.5170 N   0  0  0  0  0  0  0  0  0  0  0  0
   59.3360   32.3830   48.8170 C   0  0  0  0  0  0  0  0  0  0  0  0
   59.1680   33.2390   47.6070 C   0  0  0  0  0  0  0  0  0  0  0  0
   60.1250   34.2260   47.2940 C   0  0  0  0  0  0  0  0  0  0  0  0
   59.9740   35.0350   46.1800 C   0  0  0  0  0  0  0  0  0  0  0  0
   58.8830   34.8590   45.3260 C   0  0  0  0  0  0  0  0  0  0  0  0
   57.9210   33.8810   45.6130 C   0  0  0  0  0  0  0  0  0  0  0  0
   58.0780   33.0540   46.7330 C   0  0  0  0  0  0  0  0  0  0  0  0
   59.7360   28.8650   47.3290 N   0  0  0  0  0  0  0  0  0  0  0  0
   59.8880   27.6900   46.5300 C   0  0  0  0  0  0  0  0  0  0  0  0
   60.6760   27.7390   45.5680 O   0  0  0  0  0  0  0  0  0  0  0  0
   59.3090   26.4320   46.9590 N   0  0  0  0  0  0  0  0  0  0  0  0
   58.7140   25.5490   46.0000 C   0  0  0  0  0  0  0  0  0  0  0  0
   59.1290   24.2200   45.9910 C   0  0  0  0  0  0  0  0  0  0  0  0
   58.5330   23.3060   45.1370 C   0  0  0  0  0  0  0  0  0  0  0  0
   57.5450   23.7050   44.2580 C   0  0  0  0  0  0  0  0  0  0  0  0
   57.1270   25.0380   44.2610 C   0  0  0  0  0  0  0  0  0  0  0  0
   57.6940   25.9740   45.1340 C   0  0  0  0  0  0  0  0  0  0  0  0
   57.1740   27.3700   45.1320 C   0  0  0  0  0  0  0  0  0  0  0  0
   56.0330   27.6230   45.6170 O   0  0  0  0  0  0  0  0  0  0  0  0
   57.8910   28.4320   44.4340 N   0  0  0  0  0  0  0  0  0  0  0  0
   57.3790   28.6070   43.0600 C   0  0  0  0  0  0  0  0  0  0  0  0
   56.2340   29.6090   43.1260 C   0  0  0  0  0  0  0  0  0  0  0  0
   56.3550   30.3010   44.4860 C   0  0  0  0  0  0  0  0  0  0  0  0
   57.6400   29.7380   45.0740 C   0  0  0  0  0  0  0  0  0  0  0  0
   58.2250   30.5150   48.8340 H   0  0  0  0  0  0  0  0  0  0  0  0
   58.6166   32.7062   49.5838 H   0  0  0  0  0  0  0  0  0  0  0  0
   60.3712   32.4943   49.1720 H   0  0  0  0  0  0  0  0  0  0  0  0
   61.0034   34.3553   47.9433 H   0  0  0  0  0  0  0  0  0  0  0  0
   60.7159   35.8188   45.9671 H   0  0  0  0  0  0  0  0  0  0  0  0
   58.7789   35.4873   44.4291 H   0  0  0  0  0  0  0  0  0  0  0  0
   57.0439   33.7629   44.9598 H   0  0  0  0  0  0  0  0  0  0  0  0
   57.3469   32.2564   46.9311 H   0  0  0  0  0  0  0  0  0  0  0  0
   59.6800   28.5150   48.3260 H   0  0  0  0  0  0  0  0  0  0  0  0
   58.8200   26.4490   47.8830 H   0  0  0  0  0  0  0  0  0  0  0  0
   59.9344   23.8939   46.6655 H   0  0  0  0  0  0  0  0  0  0  0  0
   58.8496   22.2528   45.1592 H   0  0  0  0  0  0  0  0  0  0  0  0
   57.0926   22.9816   43.5637 H   0  0  0  0  0  0  0  0  0  0  0  0
   56.3379   25.3580   43.5646 H   0  0  0  0  0  0  0  0  0  0  0  0
   58.9200   28.1880   44.3900 H   0  0  0  0  0  0  0  0  0  0  0  0
   58.1771   28.9902   42.4071 H   0  0  0  0  0  0  0  0  0  0  0  0
   57.0326   27.6473   42.6489 H   0  0  0  0  0  0  0  0  0  0  0  0
   56.3233   30.3452   42.3135 H   0  0  0  0  0  0  0  0  0  0  0  0
   55.2586   29.1134   43.0121 H   0  0  0  0  0  0  0  0  0  0  0  0
   56.4261   31.3919   44.3644 H   0  0  0  0  0  0  0  0  0  0  0  0
   55.4815   30.1226   45.1303 H   0  0  0  0  0  0  0  0  0  0  0  0
   58.4768   30.4223   44.8701 H   0  0  0  0  0  0  0  0  0  0  0  0
   57.5468   29.6217   46.1639 H   0  0  0  0  0  0  0  0  0  0  0  0
  1  2  2  0
  2  3  1  0
  3  4  1  0
  4  5  1  0
  5  6  2  0
  6  7  1  0
  7  8  2  0
  8  9  1  0
  9 10  2  0
  2 11  1  0
 11 12  1  0
 12 13  2  0
 12 14  1  0
 14 15  1  0
 15 16  2  0
 16 17  1  0
 17 18  2  0
 18 19  1  0
 19 20  2  0
 20 21  1  0
 21 22  2  0
 21 23  1  0
 23 24  1  0
 24 25  1  0
 25 26  1  0
 26 27  1  0
 10  5  1  0
 20 15  1  0
 27 23  1  0
  3 28  1  0
  4 29  1  0
  4 30  1  0
  6 31  1  0
  7 32  1  0
  8 33  1  0
  9 34  1  0
 10 35  1  0
 11 36  1  0
 14 37  1  0
 16 38  1  0
 17 39  1  0
 18 40  1  0
 19 41  1  0
 23 42  1  0
 24 43  1  0
 24 44  1  0
 25 45  1  0
 25 46  1  0
 26 47  1  0
 26 48  1  0
 27 49  1  0
 27 50  1  0
M  CHG  1  23   1
M  END
>  <UniqueID>  (77) 
76

>  <SMILES>  (77) 
O=C(NCc1ccccc1)NC(=O)Nc1ccccc1C(=O)[NH+]1CCCC1

>  <Energy>  (77) 
112.6223258411698

>  <Genealogy>  (77) 
O=C(NCc1ccccc1)NC(=O)Nc1ccccc1C(=O)[NH+]1CCCC1 (protonated)
O=C(NCc1ccccc1)NC(=O)Nc1ccccc1C(=O)[NH+]1CCCC1 (3D coordinates assigned)
O=C(NCc1ccccc1)NC(=O)Nc1ccccc1C(=O)[NH+]1CCCC1 (nonaromatic ring conformer: 112.6223258411698 kcal/mol)

>  <smiles>  (77) 
O=C(NCc1ccccc1)NC(=O)Nc1ccccc1C(=O)N1CCCC1

>  <score_type>  (77) 
oracle

>  <origin>  (77) 
adg

>  <m_score__min__energy>  (77) 
-7.0199999999999996

>  <m_primary>  (77) 
energy

$$$$
77:0
     RDKit          3D

 68 72  0  0  0  0  0  0  0  0999 V2000
   55.3270   29.2830   44.7820 O   0  0  0  0  0  0  0  0  0  0  0  0
   56.5030   29.6810   45.0000 C   0  0  0  0  0  0  0  0  0  0  0  0
   57.2200   29.0980   46.0970 N   0  0  0  0  0  0  0  0  0  0  0  0
   57.8820   27.8260   46.0960 C   0  0  0  0  0  0  0  0  0  0  0  0
   57.2700   26.7630   45.4220 C   0  0  0  0  0  0  0  0  0  0  0  0
   57.8830   25.5080   45.3600 C   0  0  0  0  0  0  0  0  0  0  0  0
   57.1250   24.1920   44.4740 S   0  0  0  0  0  0  0  0  0  0  0  0
   55.6470   24.2090   44.7630 O   0  0  0  0  0  0  0  0  0  0  0  0
   57.3290   24.4130   42.9980 O   0  0  0  0  0  0  0  0  0  0  0  0
   57.8590   22.6750   44.9750 N   0  0  0  0  0  0  0  0  0  0  0  0
   56.9290   21.8370   45.7510 C   0  0  0  0  0  0  0  0  0  0  0  0
   55.8930   21.1240   44.8500 C   0  0  0  0  0  0  0  0  0  0  0  0
   56.0180   21.5180   43.4980 O   0  0  0  0  0  0  0  0  0  0  0  0
   57.3100   21.1970   43.0260 C   0  0  0  0  0  0  0  0  0  0  0  0
   58.4110   21.9180   43.8370 C   0  0  0  0  0  0  0  0  0  0  0  0
   59.0950   25.2970   46.0250 C   0  0  0  0  0  0  0  0  0  0  0  0
   59.6990   26.3380   46.7300 C   0  0  0  0  0  0  0  0  0  0  0  0
   59.1060   27.6110   46.7740 C   0  0  0  0  0  0  0  0  0  0  0  0
   59.7160   28.6480   47.5630 N   0  0  0  0  0  0  0  0  0  0  0  0
   60.0680   29.9270   46.9490 C   0  0  0  0  0  0  0  0  0  0  0  0
   59.1680   31.0160   47.5300 C   0  0  0  0  0  0  0  0  0  0  0  0
   59.2030   31.0440   49.0060 N   0  0  0  0  0  0  0  0  0  0  0  0
   60.6670   31.7590   49.6570 S   0  0  0  0  0  0  0  0  0  0  0  0
   61.5420   30.7240   50.3050 O   0  0  0  0  0  0  0  0  0  0  0  0
   60.2960   32.7760   50.6990 O   0  0  0  0  0  0  0  0  0  0  0  0
   61.5840   32.5680   48.3910 C   0  0  0  0  0  0  0  0  0  0  0  0
   60.9750   33.5540   47.6060 C   0  0  0  0  0  0  0  0  0  0  0  0
   61.6990   34.1970   46.5940 C   0  0  0  0  0  0  0  0  0  0  0  0
   63.0330   33.8510   46.3600 C   0  0  0  0  0  0  0  0  0  0  0  0
   63.6440   32.8620   47.1370 C   0  0  0  0  0  0  0  0  0  0  0  0
   62.9220   32.2190   48.1470 C   0  0  0  0  0  0  0  0  0  0  0  0
   58.8900   29.7350   49.6150 C   0  0  0  0  0  0  0  0  0  0  0  0
   59.7160   28.5800   49.0250 C   0  0  0  0  0  0  0  0  0  0  0  0
   57.1050   30.7120   44.1070 C   0  0  0  0  0  0  0  0  0  0  0  0
   57.9100   31.7420   44.6370 C   0  0  0  0  0  0  0  0  0  0  0  0
   58.4060   32.7490   43.8070 C   0  0  0  0  0  0  0  0  0  0  0  0
   58.1430   32.7200   42.4340 C   0  0  0  0  0  0  0  0  0  0  0  0
   57.3940   31.6750   41.8880 C   0  0  0  0  0  0  0  0  0  0  0  0
   56.8770   30.6730   42.7140 C   0  0  0  0  0  0  0  0  0  0  0  0
   56.1130   29.6990   42.1580 F   0  0  0  0  0  0  0  0  0  0  0  0
   56.2955   26.9167   44.9355 H   0  0  0  0  0  0  0  0  0  0  0  0
   57.5078   21.0764   46.2954 H   0  0  0  0  0  0  0  0  0  0  0  0
   56.3800   22.4934   46.4422 H   0  0  0  0  0  0  0  0  0  0  0  0
   56.0472   20.0371   44.9205 H   0  0  0  0  0  0  0  0  0  0  0  0
   54.8870   21.4023   45.1971 H   0  0  0  0  0  0  0  0  0  0  0  0
   57.4600   20.1104   43.1090 H   0  0  0  0  0  0  0  0  0  0  0  0
   57.3841   21.5266   41.9792 H   0  0  0  0  0  0  0  0  0  0  0  0
   59.1176   21.1672   44.2204 H   0  0  0  0  0  0  0  0  0  0  0  0
   58.9108   22.6327   43.1667 H   0  0  0  0  0  0  0  0  0  0  0  0
   59.5735   24.3071   45.9920 H   0  0  0  0  0  0  0  0  0  0  0  0
   60.6484   26.1607   47.2564 H   0  0  0  0  0  0  0  0  0  0  0  0
   61.1205   30.1633   47.1644 H   0  0  0  0  0  0  0  0  0  0  0  0
   59.9292   29.8693   45.8593 H   0  0  0  0  0  0  0  0  0  0  0  0
   59.5033   31.9922   47.1497 H   0  0  0  0  0  0  0  0  0  0  0  0
   58.1347   30.7981   47.2221 H   0  0  0  0  0  0  0  0  0  0  0  0
   59.9239   33.8249   47.7845 H   0  0  0  0  0  0  0  0  0  0  0  0
   61.2176   34.9747   45.9830 H   0  0  0  0  0  0  0  0  0  0  0  0
   63.6015   34.3563   45.5654 H   0  0  0  0  0  0  0  0  0  0  0  0
   64.6938   32.5896   46.9534 H   0  0  0  0  0  0  0  0  0  0  0  0
   63.4038   31.4371   48.7525 H   0  0  0  0  0  0  0  0  0  0  0  0
   59.0927   29.7941   50.6945 H   0  0  0  0  0  0  0  0  0  0  0  0
   57.8317   29.5211   49.4047 H   0  0  0  0  0  0  0  0  0  0  0  0
   60.7509   28.6504   49.3912 H   0  0  0  0  0  0  0  0  0  0  0  0
   59.2687   27.6250   49.3379 H   0  0  0  0  0  0  0  0  0  0  0  0
   58.1484   31.7518   45.7108 H   0  0  0  0  0  0  0  0  0  0  0  0
   59.0049   33.5669   44.2340 H   0  0  0  0  0  0  0  0  0  0  0  0
   58.5260   33.5203   41.7837 H   0  0  0  0  0  0  0  0  0  0  0  0
   57.2104   31.6405   40.8040 H   0  0  0  0  0  0  0  0  0  0  0  0
  1  2  2  0
  2  3  1  0
  3  4  1  0
  4  5  2  0
  5  6  1  0
  6  7  1  0
  7  8  2  0
  7  9  2  0
  7 10  1  0
 10 11  1  0
 11 12  1  0
 12 13  1  0
 13 14  1  0
 14 15  1  0
  6 16  2  0
 16 17  1  0
 17 18  2  0
 18 19  1  0
 19 20  1  0
 20 21  1  0
 21 22  1  0
 22 23  1  0
 23 24  2  0
 23 25  2  0
 23 26  1  0
 26 27  2  0
 27 28  1  0
 28 29  2  0
 29 30  1  0
 30 31  2  0
 22 32  1  0
 32 33  1  0
  2 34  1  0
 34 35  2  0
 35 36  1  0
 36 37  2  0
 37 38  1  0
 38 39  2  0
 39 40  1  0
 18  4  1  0
 33 19  1  0
 39 34  1  0
 15 10  1  0
 31 26  1  0
  5 41  1  0
 11 42  1  0
 11 43  1  0
 12 44  1  0
 12 45  1  0
 14 46  1  0
 14 47  1  0
 15 48  1  0
 15 49  1  0
 16 50  1  0
 17 51  1  0
 20 52  1  0
 20 53  1  0
 21 54  1  0
 21 55  1  0
 27 56  1  0
 28 57  1  0
 29 58  1  0
 30 59  1  0
 31 60  1  0
 32 61  1  0
 32 62  1  0
 33 63  1  0
 33 64  1  0
 35 65  1  0
 36 66  1  0
 37 67  1  0
 38 68  1  0
M  CHG  1   3  -1
M  END
>  <UniqueID>  (78) 
77

>  <SMILES>  (78) 
O=C([N-]c1cc(S(=O)(=O)N2CCOCC2)ccc1N1CCN(S(=O)(=O)c2ccccc2)CC1)c1ccccc1F

>  <Energy>  (78) 
100.80056128835677

>  <Genealogy>  (78) 
O=C([N-]c1cc(S(=O)(=O)N2CCOCC2)ccc1N1CCN(S(=O)(=O)c2ccccc2)CC1)c1ccccc1F (protonated)
O=C([N-]c1cc(S(=O)(=O)N2CCOCC2)ccc1N1CCN(S(=O)(=O)c2ccccc2)CC1)c1ccccc1F (3D coordinates assigned)
O=C([N-]c1cc(S(=O)(=O)N2CCOCC2)ccc1N1CCN(S(=O)(=O)c2ccccc2)CC1)c1ccccc1F (nonaromatic ring conformer: 100.80056128835677 kcal/mol)

>  <smiles>  (78) 
O=C(Nc1cc(S(=O)(=O)N2CCOCC2)ccc1N1CCN(S(=O)(=O)c2ccccc2)CC1)c1ccccc1F

>  <score_type>  (78) 
oracle

>  <origin>  (78) 
adg

>  <m_score__min__energy>  (78) 
-12.84

>  <m_primary>  (78) 
energy

$$$$
78:0
     RDKit          3D

 58 61  0  0  0  0  0  0  0  0999 V2000
   56.2730   29.6990   42.6960 C   0  0  0  0  0  0  0  0  0  0  0  0
   55.7780   30.1290   44.0720 C   0  0  0  0  0  0  0  0  0  0  0  0
   56.8700   30.7910   44.8340 N   0  0  0  0  0  0  0  0  0  0  0  0
   58.1440   30.0390   44.7400 C   0  0  0  0  0  0  0  0  0  0  0  0
   58.4900   29.4120   46.0970 C   0  0  0  0  0  0  0  0  0  0  0  0
   57.9820   27.9980   46.1730 C   0  0  0  0  0  0  0  0  0  0  0  0
   58.8650   26.9190   46.3160 C   0  0  0  0  0  0  0  0  0  0  0  0
   58.3630   25.6160   46.2900 C   0  0  0  0  0  0  0  0  0  0  0  0
   56.9940   25.3990   46.1290 C   0  0  0  0  0  0  0  0  0  0  0  0
   56.1410   26.4970   46.0010 C   0  0  0  0  0  0  0  0  0  0  0  0
   54.9020   26.3220   45.8640 O   0  0  0  0  0  0  0  0  0  0  0  0
   56.6500   27.7590   46.0180 N   0  0  0  0  0  0  0  0  0  0  0  0
   57.0470   32.2060   44.4380 C   0  0  0  0  0  0  0  0  0  0  0  0
   57.9510   32.9110   45.4130 C   0  0  0  0  0  0  0  0  0  0  0  0
   57.7810   32.7560   46.7990 C   0  0  0  0  0  0  0  0  0  0  0  0
   58.6830   33.3460   47.6940 C   0  0  0  0  0  0  0  0  0  0  0  0
   59.7760   34.0890   47.2100 C   0  0  0  0  0  0  0  0  0  0  0  0
   60.7620   34.6580   48.0840 N   0  0  0  0  0  0  0  0  0  0  0  0
   61.8700   33.7580   49.0770 S   0  0  0  0  0  0  0  0  0  0  0  0
   63.1180   33.4710   48.2890 O   0  0  0  0  0  0  0  0  0  0  0  0
   62.2020   34.5630   50.3020 O   0  0  0  0  0  0  0  0  0  0  0  0
   61.1140   32.2390   49.6000 C   0  0  0  0  0  0  0  0  0  0  0  0
   61.5810   31.0360   49.0450 C   0  0  0  0  0  0  0  0  0  0  0  0
   60.9740   29.8190   49.3610 C   0  0  0  0  0  0  0  0  0  0  0  0
   59.8870   29.7810   50.2300 C   0  0  0  0  0  0  0  0  0  0  0  0
   59.4060   30.9640   50.8070 C   0  0  0  0  0  0  0  0  0  0  0  0
   58.3100   30.9260   51.6810 C   0  0  0  0  0  0  0  0  0  0  0  0
   57.8510   32.0690   52.2550 N   0  0  0  0  0  0  0  0  0  0  0  0
   58.4350   33.2690   52.0090 C   0  0  0  0  0  0  0  0  0  0  0  0
   59.5200   33.3630   51.1350 C   0  0  0  0  0  0  0  0  0  0  0  0
   60.0230   32.2060   50.5100 C   0  0  0  0  0  0  0  0  0  0  0  0
   59.9220   34.2730   45.8290 C   0  0  0  0  0  0  0  0  0  0  0  0
   59.0220   33.6820   44.9340 C   0  0  0  0  0  0  0  0  0  0  0  0
   57.0989   28.9816   42.8111 H   0  0  0  0  0  0  0  0  0  0  0  0
   55.4497   29.2245   42.1419 H   0  0  0  0  0  0  0  0  0  0  0  0
   56.6277   30.5806   42.1419 H   0  0  0  0  0  0  0  0  0  0  0  0
   54.9415   30.8332   43.9522 H   0  0  0  0  0  0  0  0  0  0  0  0
   55.4468   29.2381   44.6257 H   0  0  0  0  0  0  0  0  0  0  0  0
   58.0417   29.2432   43.9875 H   0  0  0  0  0  0  0  0  0  0  0  0
   58.9484   30.7303   44.4482 H   0  0  0  0  0  0  0  0  0  0  0  0
   59.5823   29.4110   46.2265 H   0  0  0  0  0  0  0  0  0  0  0  0
   58.0126   30.0031   46.8924 H   0  0  0  0  0  0  0  0  0  0  0  0
   59.9426   27.0967   46.4474 H   0  0  0  0  0  0  0  0  0  0  0  0
   59.0467   24.7609   46.3964 H   0  0  0  0  0  0  0  0  0  0  0  0
   56.5918   24.3755   46.1032 H   0  0  0  0  0  0  0  0  0  0  0  0
   57.4928   32.2488   43.4333 H   0  0  0  0  0  0  0  0  0  0  0  0
   56.0656   32.7028   44.4357 H   0  0  0  0  0  0  0  0  0  0  0  0
   56.9347   32.1679   47.1837 H   0  0  0  0  0  0  0  0  0  0  0  0
   58.5366   33.2283   48.7778 H   0  0  0  0  0  0  0  0  0  0  0  0
   62.4357   31.0530   48.3527 H   0  0  0  0  0  0  0  0  0  0  0  0
   61.3564   28.8860   48.9214 H   0  0  0  0  0  0  0  0  0  0  0  0
   59.4048   28.8205   50.4642 H   0  0  0  0  0  0  0  0  0  0  0  0
   57.8197   29.9667   51.9029 H   0  0  0  0  0  0  0  0  0  0  0  0
   57.0340   32.0220   52.9050 H   0  0  0  0  0  0  0  0  0  0  0  0
   58.0508   34.1743   52.5017 H   0  0  0  0  0  0  0  0  0  0  0  0
   59.9818   34.3411   50.9348 H   0  0  0  0  0  0  0  0  0  0  0  0
   60.7502   34.8866   45.4447 H   0  0  0  0  0  0  0  0  0  0  0  0
   59.1546   33.8224   43.8511 H   0  0  0  0  0  0  0  0  0  0  0  0
  1  2  1  0
  2  3  1  0
  3  4  1  0
  4  5  1  0
  5  6  1  0
  6  7  2  0
  7  8  1  0
  8  9  2  0
  9 10  1  0
 10 11  2  0
 10 12  1  0
  3 13  1  0
 13 14  1  0
 14 15  2  0
 15 16  1  0
 16 17  2  0
 17 18  1  0
 18 19  1  0
 19 20  2  0
 19 21  2  0
 19 22  1  0
 22 23  2  0
 23 24  1  0
 24 25  2  0
 25 26  1  0
 26 27  2  0
 27 28  1  0
 28 29  2  0
 29 30  1  0
 30 31  2  0
 17 32  1  0
 32 33  2  0
 12  6  1  0
 33 14  1  0
 31 22  1  0
 31 26  1  0
  1 34  1  0
  1 35  1  0
  1 36  1  0
  2 37  1  0
  2 38  1  0
  4 39  1  0
  4 40  1  0
  5 41  1  0
  5 42  1  0
  7 43  1  0
  8 44  1  0
  9 45  1  0
 13 46  1  0
 13 47  1  0
 15 48  1  0
 16 49  1  0
 23 50  1  0
 24 51  1  0
 25 52  1  0
 27 53  1  0
 28 54  1  0
 29 55  1  0
 30 56  1  0
 32 57  1  0
 33 58  1  0
M  CHG  3  12  -1  18  -1  28   1
M  END
>  <UniqueID>  (79) 
78

>  <SMILES>  (79) 
CCN(CCc1cccc(=O)[n-]1)Cc1ccc([N-]S(=O)(=O)c2cccc3c[nH+]ccc23)cc1

>  <Energy>  (79) 
72.14738995454641

>  <Genealogy>  (79) 
CCN(CCc1cccc(=O)[n-]1)Cc1ccc([N-]S(=O)(=O)c2cccc3c[nH+]ccc23)cc1 (protonated)
CCN(CCc1cccc(=O)[n-]1)Cc1ccc([N-]S(=O)(=O)c2cccc3c[nH+]ccc23)cc1 (3D coordinates assigned)
CCN(CCc1cccc(=O)[n-]1)Cc1ccc([N-]S(=O)(=O)c2cccc3c[nH+]ccc23)cc1 (optimized conformer: 72.14738995454641 kcal/mol)

>  <smiles>  (79) 
CCN(CCc1cccc(=O)[nH]1)Cc1ccc(NS(=O)(=O)c2cccc3cnccc23)cc1

>  <score_type>  (79) 
oracle

>  <origin>  (79) 
adg

>  <m_score__min__energy>  (79) 
-12.57

>  <m_primary>  (79) 
energy

$$$$
79:0
     RDKit          3D

 50 52  0  0  0  0  0  0  0  0999 V2000
   55.5580   29.7460   43.6650 C   0  0  0  0  0  0  0  0  0  0  0  0
   56.6940   30.3970   43.4160 C   0  0  0  0  0  0  0  0  0  0  0  0
   57.8170   30.4180   44.3770 C   0  0  0  0  0  0  0  0  0  0  0  0
   58.6500   31.3610   44.3160 O   0  0  0  0  0  0  0  0  0  0  0  0
   57.8670   29.4630   45.5580 C   0  0  1  0  0  0  0  0  0  0  0  0
   58.2070   28.0140   45.2410 C   0  0  0  0  0  0  0  0  0  0  0  0
   58.5450   27.6610   44.1200 O   0  0  0  0  0  0  0  0  0  0  0  0
   58.1810   27.0310   46.3950 C   0  0  1  0  0  0  0  0  0  0  0  0
   58.8920   27.6260   47.6350 C   0  0  0  0  0  0  0  0  0  0  0  0
   58.5050   29.1120   47.8690 C   0  0  1  0  0  0  0  0  0  0  0  0
   59.1700   29.7000   49.0880 C   0  0  0  0  0  0  0  0  0  0  0  0
   60.3760   29.4170   49.3270 O   0  0  0  0  0  0  0  0  0  0  0  0
   58.4510   30.5230   49.9600 O   0  0  0  0  0  0  0  0  0  0  0  0
   58.7070   31.9170   50.0850 C   0  0  0  0  0  0  0  0  0  0  0  0
   58.7480   29.9490   46.6580 N   0  0  0  0  0  0  0  0  0  0  0  0
   60.1910   30.0080   46.2710 C   0  0  0  0  0  0  0  0  0  0  0  0
   60.8410   31.2640   46.7970 C   0  0  0  0  0  0  0  0  0  0  0  0
   62.2040   31.2360   47.1290 C   0  0  0  0  0  0  0  0  0  0  0  0
   62.8380   32.3780   47.6160 C   0  0  0  0  0  0  0  0  0  0  0  0
   62.1220   33.5630   47.7770 C   0  0  0  0  0  0  0  0  0  0  0  0
   60.7590   33.6230   47.4460 C   0  0  0  0  0  0  0  0  0  0  0  0
   60.0120   34.9140   47.6330 C   0  0  0  0  0  0  0  0  0  0  0  0
   60.1120   32.4660   46.9480 C   0  0  0  0  0  0  0  0  0  0  0  0
   58.7550   32.4880   46.6120 O   0  0  0  0  0  0  0  0  0  0  0  0
   56.8020   26.6790   46.7150 N   0  0  0  0  0  0  0  0  0  0  0  0
   56.6530   25.2780   46.5430 C   0  0  0  0  0  0  0  0  0  0  0  0
   55.5680   24.6730   46.7460 O   0  0  0  0  0  0  0  0  0  0  0  0
   57.8340   24.6200   46.1220 N   0  0  0  0  0  0  0  0  0  0  0  0
   58.7690   25.6890   46.0320 C   0  0  0  0  0  0  0  0  0  0  0  0
   59.9660   25.5110   45.6840 O   0  0  0  0  0  0  0  0  0  0  0  0
   54.7454   29.7545   42.9237 H   0  0  0  0  0  0  0  0  0  0  0  0
   55.4330   29.2002   44.6118 H   0  0  0  0  0  0  0  0  0  0  0  0
   56.7995   30.9368   42.4634 H   0  0  0  0  0  0  0  0  0  0  0  0
   56.8184   29.4600   45.8902 H   0  0  0  0  0  0  0  0  0  0  0  0
   58.6081   27.0409   48.5222 H   0  0  0  0  0  0  0  0  0  0  0  0
   59.9770   27.5805   47.4595 H   0  0  0  0  0  0  0  0  0  0  0  0
   57.4225   29.1193   48.0643 H   0  0  0  0  0  0  0  0  0  0  0  0
   58.7565   32.1866   51.1503 H   0  0  0  0  0  0  0  0  0  0  0  0
   59.6646   32.1588   49.6007 H   0  0  0  0  0  0  0  0  0  0  0  0
   57.8978   32.4833   49.6007 H   0  0  0  0  0  0  0  0  0  0  0  0
   60.7111   29.1325   46.6870 H   0  0  0  0  0  0  0  0  0  0  0  0
   60.2595   30.0113   45.1731 H   0  0  0  0  0  0  0  0  0  0  0  0
   62.7769   30.3053   47.0040 H   0  0  0  0  0  0  0  0  0  0  0  0
   63.9068   32.3438   47.8741 H   0  0  0  0  0  0  0  0  0  0  0  0
   62.6289   34.4582   48.1665 H   0  0  0  0  0  0  0  0  0  0  0  0
   59.8944   35.1172   48.7076 H   0  0  0  0  0  0  0  0  0  0  0  0
   60.5749   35.7346   47.1641 H   0  0  0  0  0  0  0  0  0  0  0  0
   59.0201   34.8349   47.1641 H   0  0  0  0  0  0  0  0  0  0  0  0
   58.3550   31.9220   45.8740 H   0  0  0  0  0  0  0  0  0  0  0  0
   56.0510   27.3330   47.0300 H   0  0  0  0  0  0  0  0  0  0  0  0
  1  2  2  0
  2  3  1  0
  3  4  2  0
  3  5  1  0
  5  6  1  0
  6  7  2  0
  6  8  1  0
  8  9  1  0
  9 10  1  0
 10 11  1  0
 11 12  2  0
 11 13  1  0
 13 14  1  0
 10 15  1  0
 15 16  1  0
 16 17  1  0
 17 18  2  0
 18 19  1  0
 19 20  2  0
 20 21  1  0
 21 22  1  0
 21 23  2  0
 23 24  1  0
  8 25  1  1
 25 26  1  0
 26 27  2  0
 26 28  1  0
 28 29  1  0
 29 30  2  0
 15  5  1  0
 23 17  1  0
 29  8  1  0
  1 31  1  0
  1 32  1  0
  2 33  1  0
  5 34  1  1
  9 35  1  0
  9 36  1  0
 10 37  1  1
 14 38  1  0
 14 39  1  0
 14 40  1  0
 16 41  1  0
 16 42  1  0
 18 43  1  0
 19 44  1  0
 20 45  1  0
 22 46  1  0
 22 47  1  0
 22 48  1  0
 24 49  1  0
 25 50  1  0
M  CHG  1  28  -1
M  END
>  <UniqueID>  (80) 
79

>  <SMILES>  (80) 
C=CC(=O)[C@H]1C(=O)[C@@]2(CC(C(=O)OC)N1Cc1cccc(C)c1O)NC(=O)[N-]C2=O

>  <Energy>  (80) 
81.37419067693448

>  <Genealogy>  (80) 
C=CC(=O)C1C(=O)C2(CC(C(=O)OC)N1Cc1cccc(C)c1O)NC(=O)[N-]C2=O (protonated)
C=CC(=O)[C@H]1C(=O)[C@@]2(CC(C(=O)OC)N1Cc1cccc(C)c1O)NC(=O)[N-]C2=O (chirality)
C=CC(=O)[C@H]1C(=O)[C@@]2(CC(C(=O)OC)N1Cc1cccc(C)c1O)NC(=O)[N-]C2=O (3D coordinates assigned)
C=CC(=O)[C@H]1C(=O)[C@@]2(CC(C(=O)OC)N1Cc1cccc(C)c1O)NC(=O)[N-]C2=O (nonaromatic ring conformer: 81.37419067693448 kcal/mol)

>  <smiles>  (80) 
C=CC(=O)C1C(=O)C2(CC(C(=O)OC)N1Cc1cccc(C)c1O)NC(=O)NC2=O

>  <score_type>  (80) 
oracle

>  <origin>  (80) 
adg

>  <m_score__min__energy>  (80) 
-8.6199999999999992

>  <m_primary>  (80) 
energy

$$$$
80:0
     RDKit          3D

 55 58  0  0  0  0  0  0  0  0999 V2000
   56.2830   25.8800   45.9970 C   0  0  0  0  0  0  0  0  0  0  0  0
   56.4990   27.2810   45.8640 O   0  0  0  0  0  0  0  0  0  0  0  0
   57.7630   27.8930   45.8340 C   0  0  0  0  0  0  0  0  0  0  0  0
   58.3980   28.3460   47.0080 C   0  0  0  0  0  0  0  0  0  0  0  0
   59.6590   28.9430   46.9450 C   0  0  0  0  0  0  0  0  0  0  0  0
   60.2980   29.1040   45.7180 C   0  0  0  0  0  0  0  0  0  0  0  0
   59.6850   28.6550   44.5480 C   0  0  0  0  0  0  0  0  0  0  0  0
   58.4140   28.0530   44.5920 C   0  0  0  0  0  0  0  0  0  0  0  0
   57.7700   27.5740   43.3140 C   0  0  0  0  0  0  0  0  0  0  0  0
   57.0250   28.6440   42.6520 N   0  0  0  0  0  0  0  0  0  0  0  0
   56.3450   29.7300   43.2990 C   0  0  0  0  0  0  0  0  0  0  0  0
   55.1090   29.6280   43.5190 O   0  0  0  0  0  0  0  0  0  0  0  0
   57.0590   30.9300   43.7730 C   0  0  0  0  0  0  0  0  0  0  0  0
   57.3950   31.0380   45.1270 C   0  0  0  0  0  0  0  0  0  0  0  0
   58.1230   32.1450   45.5720 C   0  0  0  0  0  0  0  0  0  0  0  0
   58.4820   32.2940   46.9180 C   0  0  0  0  0  0  0  0  0  0  0  0
   59.2290   33.4070   47.3280 C   0  0  0  0  0  0  0  0  0  0  0  0
   59.6610   33.6120   49.0290 S   0  0  0  0  0  0  0  0  0  0  0  0
   58.7400   32.7710   49.8710 O   0  0  0  0  0  0  0  0  0  0  0  0
   59.4610   35.0500   49.4200 O   0  0  0  0  0  0  0  0  0  0  0  0
   61.3260   33.1760   49.3430 N   0  0  0  0  0  0  0  0  0  0  0  0
   61.6000   31.7970   48.8860 C   0  0  0  0  0  0  0  0  0  0  0  0
   63.1040   31.5310   48.7950 C   0  0  0  0  0  0  0  0  0  0  0  0
   63.7660   32.4560   47.7590 C   0  0  0  0  0  0  0  0  0  0  0  0
   62.9870   33.7670   47.5450 C   0  0  0  0  0  0  0  0  0  0  0  0
   62.2700   34.2020   48.8320 C   0  0  0  0  0  0  0  0  0  0  0  0
   59.6160   34.3690   46.3810 C   0  0  0  0  0  0  0  0  0  0  0  0
   59.2460   34.2310   45.0400 C   0  0  0  0  0  0  0  0  0  0  0  0
   58.4950   33.1270   44.6300 C   0  0  0  0  0  0  0  0  0  0  0  0
   58.1270   33.0090   43.3570 O   0  0  0  0  0  0  0  0  0  0  0  0
   57.4230   31.9750   42.9050 C   0  0  0  0  0  0  0  0  0  0  0  0
   57.0800   31.9500   41.6930 O   0  0  0  0  0  0  0  0  0  0  0  0
   56.2421   25.6150   47.0638 H   0  0  0  0  0  0  0  0  0  0  0  0
   55.3323   25.6082   45.5150 H   0  0  0  0  0  0  0  0  0  0  0  0
   57.1077   25.3345   45.5150 H   0  0  0  0  0  0  0  0  0  0  0  0
   57.8971   28.2285   47.9802 H   0  0  0  0  0  0  0  0  0  0  0  0
   60.1492   29.2872   47.8676 H   0  0  0  0  0  0  0  0  0  0  0  0
   61.2861   29.5852   45.6714 H   0  0  0  0  0  0  0  0  0  0  0  0
   60.1996   28.7726   43.5830 H   0  0  0  0  0  0  0  0  0  0  0  0
   58.5543   27.2113   42.6333 H   0  0  0  0  0  0  0  0  0  0  0  0
   57.0644   26.7685   43.5655 H   0  0  0  0  0  0  0  0  0  0  0  0
   57.0879   30.2561   45.8372 H   0  0  0  0  0  0  0  0  0  0  0  0
   58.1771   31.5360   47.6546 H   0  0  0  0  0  0  0  0  0  0  0  0
   61.1530   31.0878   49.5982 H   0  0  0  0  0  0  0  0  0  0  0  0
   61.1632   31.6695   47.8845 H   0  0  0  0  0  0  0  0  0  0  0  0
   63.5609   31.7086   49.7797 H   0  0  0  0  0  0  0  0  0  0  0  0
   63.2570   30.4877   48.4816 H   0  0  0  0  0  0  0  0  0  0  0  0
   64.7804   32.7026   48.1056 H   0  0  0  0  0  0  0  0  0  0  0  0
   63.7817   31.9198   46.7987 H   0  0  0  0  0  0  0  0  0  0  0  0
   63.6898   34.5567   47.2411 H   0  0  0  0  0  0  0  0  0  0  0  0
   62.2308   33.6000   46.7638 H   0  0  0  0  0  0  0  0  0  0  0  0
   63.0266   34.3991   49.6057 H   0  0  0  0  0  0  0  0  0  0  0  0
   61.6829   35.1015   48.5947 H   0  0  0  0  0  0  0  0  0  0  0  0
   60.2141   35.2366   46.6964 H   0  0  0  0  0  0  0  0  0  0  0  0
   59.5469   34.9933   44.3063 H   0  0  0  0  0  0  0  0  0  0  0  0
  1  2  1  0
  2  3  1  0
  3  4  2  0
  4  5  1  0
  5  6  2  0
  6  7  1  0
  7  8  2  0
  8  9  1  0
  9 10  1  0
 10 11  1  0
 11 12  2  0
 11 13  1  0
 13 14  2  0
 14 15  1  0
 15 16  2  0
 16 17  1  0
 17 18  1  0
 18 19  2  0
 18 20  2  0
 18 21  1  0
 21 22  1  0
 22 23  1  0
 23 24  1  0
 24 25  1  0
 25 26  1  0
 17 27  2  0
 27 28  1  0
 28 29  2  0
 29 30  1  0
 30 31  1  0
 31 32  2  0
  8  3  1  0
 31 13  1  0
 29 15  1  0
 26 21  1  0
  1 33  1  0
  1 34  1  0
  1 35  1  0
  4 36  1  0
  5 37  1  0
  6 38  1  0
  7 39  1  0
  9 40  1  0
  9 41  1  0
 14 42  1  0
 16 43  1  0
 22 44  1  0
 22 45  1  0
 23 46  1  0
 23 47  1  0
 24 48  1  0
 24 49  1  0
 25 50  1  0
 25 51  1  0
 26 52  1  0
 26 53  1  0
 27 54  1  0
 28 55  1  0
M  CHG  1  10  -1
M  END
>  <UniqueID>  (81) 
80

>  <SMILES>  (81) 
COc1ccccc1C[N-]C(=O)c1cc2cc(S(=O)(=O)N3CCCCC3)ccc2oc1=O

>  <Energy>  (81) 
68.2851148290433

>  <Genealogy>  (81) 
COc1ccccc1C[N-]C(=O)c1cc2cc(S(=O)(=O)N3CCCCC3)ccc2oc1=O (protonated)
COc1ccccc1C[N-]C(=O)c1cc2cc(S(=O)(=O)N3CCCCC3)ccc2oc1=O (3D coordinates assigned)
COc1ccccc1C[N-]C(=O)c1cc2cc(S(=O)(=O)N3CCCCC3)ccc2oc1=O (nonaromatic ring conformer: 68.2851148290433 kcal/mol)

>  <smiles>  (81) 
COc1ccccc1CNC(=O)c1cc2cc(S(=O)(=O)N3CCCCC3)ccc2oc1=O

>  <score_type>  (81) 
oracle

>  <origin>  (81) 
adg

>  <m_score__min__energy>  (81) 
-11.33

>  <m_primary>  (81) 
energy

$$$$
81:0
     RDKit          3D

 41 43  0  0  0  0  0  0  0  0999 V2000
   60.1950   27.1720   48.0530 C   0  0  0  0  0  0  0  0  0  0  0  0
   59.6620   28.3200   47.6060 C   0  0  0  0  0  0  0  0  0  0  0  0
   58.9600   28.5110   46.4050 C   0  0  0  0  0  0  0  0  0  0  0  0
   58.4480   27.6240   45.5300 C   0  0  0  0  0  0  0  0  0  0  0  0
   57.2170   26.8400   45.7250 C   0  0  0  0  0  0  0  0  0  0  0  0
   57.1770   25.5810   46.1990 N   0  0  0  0  0  0  0  0  0  0  0  0
   55.8540   25.3400   46.3330 C   0  0  0  0  0  0  0  0  0  0  0  0
   55.4040   24.2390   46.7450 O   0  0  0  0  0  0  0  0  0  0  0  0
   55.0540   26.3750   46.0010 N   0  0  0  0  0  0  0  0  0  0  0  0
   55.9340   27.3200   45.6330 C   0  0  0  0  0  0  0  0  0  0  0  0
   55.5720   28.5980   45.2250 O   0  0  0  0  0  0  0  0  0  0  0  0
   58.8550   29.8800   46.2320 C   0  0  0  0  0  0  0  0  0  0  0  0
   59.4170   30.4710   47.3440 C   0  0  0  0  0  0  0  0  0  0  0  0
   59.5630   31.9310   47.5250 C   0  0  0  0  0  0  0  0  0  0  0  0
   60.3160   32.3600   48.4400 O   0  0  0  0  0  0  0  0  0  0  0  0
   58.8700   32.8640   46.6700 N   0  0  0  0  0  0  0  0  0  0  0  0
   59.6330   33.7670   45.7910 C   0  0  0  0  0  0  0  0  0  0  0  0
   58.7670   34.3140   44.6480 C   0  0  0  0  0  0  0  0  0  0  0  0
   57.9110   33.1940   44.0480 C   0  0  0  0  0  0  0  0  0  0  0  0
   56.9800   32.5340   45.0990 C   0  0  1  0  0  0  0  0  0  0  0  0
   56.8880   31.1490   44.8740 O   0  0  0  0  0  0  0  0  0  0  0  0
   57.4050   32.8230   46.5560 C   0  0  0  0  0  0  0  0  0  0  0  0
   59.8880   29.5260   48.1920 N   0  0  0  0  0  0  0  0  0  0  0  0
   60.5870   29.7730   49.4580 C   0  0  0  0  0  0  0  0  0  0  0  0
   60.7251   27.1502   49.0166 H   0  0  0  0  0  0  0  0  0  0  0  0
   60.1017   26.2530   47.4557 H   0  0  0  0  0  0  0  0  0  0  0  0
   58.9968   27.4723   44.5888 H   0  0  0  0  0  0  0  0  0  0  0  0
   58.4081   30.3984   45.3709 H   0  0  0  0  0  0  0  0  0  0  0  0
   60.0098   34.6108   46.3877 H   0  0  0  0  0  0  0  0  0  0  0  0
   60.4620   33.1949   45.3489 H   0  0  0  0  0  0  0  0  0  0  0  0
   58.1091   35.1049   45.0374 H   0  0  0  0  0  0  0  0  0  0  0  0
   59.4231   34.7220   43.8651 H   0  0  0  0  0  0  0  0  0  0  0  0
   57.2917   33.6155   43.2425 H   0  0  0  0  0  0  0  0  0  0  0  0
   58.5919   32.4179   43.6685 H   0  0  0  0  0  0  0  0  0  0  0  0
   55.9876   32.9905   44.9696 H   0  0  0  0  0  0  0  0  0  0  0  0
   56.0180   30.8450   45.2440 H   0  0  0  0  0  0  0  0  0  0  0  0
   56.9910   33.7934   46.8675 H   0  0  0  0  0  0  0  0  0  0  0  0
   57.0217   32.0200   47.2028 H   0  0  0  0  0  0  0  0  0  0  0  0
   59.9179   29.5366   50.2985 H   0  0  0  0  0  0  0  0  0  0  0  0
   61.4828   29.1370   49.5124 H   0  0  0  0  0  0  0  0  0  0  0  0
   60.8844   30.8306   49.5124 H   0  0  0  0  0  0  0  0  0  0  0  0
  1  2  2  0
  2  3  1  0
  3  4  2  3
  4  5  1  0
  5  6  1  0
  6  7  1  0
  7  8  2  0
  7  9  1  0
  9 10  1  0
 10 11  1  0
  3 12  1  0
 12 13  2  0
 13 14  1  0
 14 15  2  0
 14 16  1  0
 16 17  1  0
 17 18  1  0
 18 19  1  0
 19 20  1  0
 20 21  1  0
 20 22  1  0
 13 23  1  0
 23 24  1  0
 23  2  1  0
 10  5  2  0
 22 16  1  0
  1 25  1  0
  1 26  1  0
  4 27  1  0
 12 28  1  0
 17 29  1  0
 17 30  1  0
 18 31  1  0
 18 32  1  0
 19 33  1  0
 19 34  1  0
 20 35  1  1
 21 36  1  0
 22 37  1  0
 22 38  1  0
 24 39  1  0
 24 40  1  0
 24 41  1  0
M  CHG  3   6  -1   9  -1  11  -1
M  END
>  <UniqueID>  (82) 
81

>  <SMILES>  (82) 
C=c1c(=Cc2[n-]c(=O)[n-]c2[O-])cc(C(=O)N2CCC[C@@H](O)C2)n1C

>  <Energy>  (82) 
119.1057647000781

>  <Genealogy>  (82) 
C=c1c(=Cc2[n-]c(=O)[n-]c2[O-])cc(C(=O)N2CCCC(O)C2)n1C (protonated)
C=c1c(=Cc2[n-]c(=O)[n-]c2[O-])cc(C(=O)N2CCC[C@@H](O)C2)n1C (chirality)
C=c1c(=Cc2[n-]c(=O)[n-]c2[O-])cc(C(=O)N2CCC[C@@H](O)C2)n1C (3D coordinates assigned)
C=c1c(=Cc2[n-]c(=O)[n-]c2[O-])cc(C(=O)N2CCC[C@@H](O)C2)n1C (nonaromatic ring conformer: 119.1057647000781 kcal/mol)

>  <smiles>  (82) 
C=c1c(=Cc2[nH]c(=O)[nH]c2O)cc(C(=O)N2CCCC(O)C2)n1C

>  <score_type>  (82) 
oracle

>  <origin>  (82) 
adg

>  <m_score__min__energy>  (82) 
-16.300000000000001

>  <m_primary>  (82) 
energy

$$$$
82:0
     RDKit          3D

 58 61  0  0  0  0  0  0  0  0999 V2000
   58.5270   34.3240   52.7200 C   0  0  0  0  0  0  0  0  0  0  0  0
   58.0090   32.9960   52.7080 O   0  0  0  0  0  0  0  0  0  0  0  0
   58.5410   31.9570   51.9330 C   0  0  0  0  0  0  0  0  0  0  0  0
   59.8370   31.5120   52.2140 C   0  0  0  0  0  0  0  0  0  0  0  0
   60.4110   30.4810   51.4660 C   0  0  0  0  0  0  0  0  0  0  0  0
   59.6970   29.8880   50.4180 C   0  0  0  0  0  0  0  0  0  0  0  0
   60.3260   28.7960   49.5980 C   0  0  0  0  0  0  0  0  0  0  0  0
   60.3140   29.1460   48.1420 C   0  0  0  0  0  0  0  0  0  0  0  0
   60.9270   30.2120   47.5910 N   0  0  0  0  0  0  0  0  0  0  0  0
   60.7480   30.1470   46.2830 N   0  0  0  0  0  0  0  0  0  0  0  0
   60.0170   29.0230   46.0880 C   0  0  0  0  0  0  0  0  0  0  0  0
   59.4940   28.4300   44.4800 S   0  0  0  0  0  0  0  0  0  0  0  0
   57.7190   28.7980   44.7500 C   0  0  0  0  0  0  0  0  0  0  0  0
   57.3330   30.1890   44.3160 C   0  0  0  0  0  0  0  0  0  0  0  0
   57.3730   30.5100   43.1040 O   0  0  0  0  0  0  0  0  0  0  0  0
   57.0170   31.1990   45.2880 N   0  0  0  0  0  0  0  0  0  0  0  0
   57.8140   32.3570   45.5520 C   0  0  0  0  0  0  0  0  0  0  0  0
   57.8020   33.4240   44.6400 C   0  0  0  0  0  0  0  0  0  0  0  0
   58.5620   34.5680   44.8870 C   0  0  0  0  0  0  0  0  0  0  0  0
   59.3340   34.6580   46.0490 C   0  0  0  0  0  0  0  0  0  0  0  0
   59.3450   33.6040   46.9750 C   0  0  0  0  0  0  0  0  0  0  0  0
   60.3260   33.6940   48.4320 S   0  0  0  0  0  0  0  0  0  0  0  0
   60.3560   32.3480   49.1020 O   0  0  0  0  0  0  0  0  0  0  0  0
   59.6940   34.6810   49.3730 O   0  0  0  0  0  0  0  0  0  0  0  0
   61.9420   34.2130   48.0040 N   0  0  0  0  0  0  0  0  0  0  0  0
   62.4390   33.5160   46.7950 C   0  0  0  0  0  0  0  0  0  0  0  0
   63.3340   32.3040   47.1320 C   0  0  0  0  0  0  0  0  0  0  0  0
   62.9440   31.7210   48.3550 O   0  0  0  0  0  0  0  0  0  0  0  0
   63.2370   32.6030   49.4350 C   0  0  0  0  0  0  0  0  0  0  0  0
   62.8720   34.0810   49.1410 C   0  0  0  0  0  0  0  0  0  0  0  0
   58.5660   32.4670   46.7330 C   0  0  0  0  0  0  0  0  0  0  0  0
   59.7510   28.4110   47.2170 O   0  0  0  0  0  0  0  0  0  0  0  0
   58.3870   30.3110   50.1510 C   0  0  0  0  0  0  0  0  0  0  0  0
   57.8150   31.3440   50.8940 C   0  0  0  0  0  0  0  0  0  0  0  0
   58.6571   34.6575   53.7601 H   0  0  0  0  0  0  0  0  0  0  0  0
   59.4986   34.3433   52.2046 H   0  0  0  0  0  0  0  0  0  0  0  0
   57.8251   34.9960   52.2046 H   0  0  0  0  0  0  0  0  0  0  0  0
   60.4088   31.9775   53.0304 H   0  0  0  0  0  0  0  0  0  0  0  0
   61.4279   30.1339   51.7015 H   0  0  0  0  0  0  0  0  0  0  0  0
   61.3664   28.6536   49.9255 H   0  0  0  0  0  0  0  0  0  0  0  0
   59.7477   27.8714   49.7418 H   0  0  0  0  0  0  0  0  0  0  0  0
   61.4820   30.9500   48.0810 H   0  0  0  0  0  0  0  0  0  0  0  0
   57.1200   28.0737   44.1785 H   0  0  0  0  0  0  0  0  0  0  0  0
   57.5289   28.7261   45.8311 H   0  0  0  0  0  0  0  0  0  0  0  0
   57.1914   33.3581   43.7274 H   0  0  0  0  0  0  0  0  0  0  0  0
   58.5536   35.3995   44.1669 H   0  0  0  0  0  0  0  0  0  0  0  0
   59.9356   35.5593   46.2382 H   0  0  0  0  0  0  0  0  0  0  0  0
   61.5754   33.1644   46.2114 H   0  0  0  0  0  0  0  0  0  0  0  0
   63.0498   34.2322   46.2259 H   0  0  0  0  0  0  0  0  0  0  0  0
   63.2451   31.5557   46.3307 H   0  0  0  0  0  0  0  0  0  0  0  0
   64.3754   32.6471   47.2201 H   0  0  0  0  0  0  0  0  0  0  0  0
   62.6700   32.2731   50.3180 H   0  0  0  0  0  0  0  0  0  0  0  0
   64.3239   32.5641   49.5996 H   0  0  0  0  0  0  0  0  0  0  0  0
   62.4003   34.5135   50.0357 H   0  0  0  0  0  0  0  0  0  0  0  0
   63.7999   34.6109   48.8797 H   0  0  0  0  0  0  0  0  0  0  0  0
   58.5425   31.6535   47.4731 H   0  0  0  0  0  0  0  0  0  0  0  0
   57.8075   29.8259   49.3517 H   0  0  0  0  0  0  0  0  0  0  0  0
   56.7927   31.6809   50.6672 H   0  0  0  0  0  0  0  0  0  0  0  0
  1  2  1  0
  2  3  1  0
  3  4  2  0
  4  5  1  0
  5  6  2  0
  6  7  1  0
  7  8  1  0
  8  9  2  0
  9 10  1  0
 10 11  2  0
 11 12  1  0
 12 13  1  0
 13 14  1  0
 14 15  2  0
 14 16  1  0
 16 17  1  0
 17 18  2  0
 18 19  1  0
 19 20  2  0
 20 21  1  0
 21 22  1  0
 22 23  2  0
 22 24  2  0
 22 25  1  0
 25 26  1  0
 26 27  1  0
 27 28  1  0
 28 29  1  0
 29 30  1  0
 21 31  2  0
 11 32  1  0
  6 33  1  0
 33 34  2  0
 34  3  1  0
 32  8  1  0
 31 17  1  0
 30 25  1  0
  1 35  1  0
  1 36  1  0
  1 37  1  0
  4 38  1  0
  5 39  1  0
  7 40  1  0
  7 41  1  0
  9 42  1  0
 13 43  1  0
 13 44  1  0
 18 45  1  0
 19 46  1  0
 20 47  1  0
 26 48  1  0
 26 49  1  0
 27 50  1  0
 27 51  1  0
 29 52  1  0
 29 53  1  0
 30 54  1  0
 30 55  1  0
 31 56  1  0
 33 57  1  0
 34 58  1  0
M  CHG  2   9   1  16  -1
M  END
>  <UniqueID>  (83) 
82

>  <SMILES>  (83) 
COc1ccc(Cc2[nH+]nc(SCC(=O)[N-]c3cccc(S(=O)(=O)N4CCOCC4)c3)o2)cc1

>  <Energy>  (83) 
101.45573271921856

>  <Genealogy>  (83) 
COc1ccc(Cc2[nH+]nc(SCC(=O)[N-]c3cccc(S(=O)(=O)N4CCOCC4)c3)o2)cc1 (protonated)
COc1ccc(Cc2[nH+]nc(SCC(=O)[N-]c3cccc(S(=O)(=O)N4CCOCC4)c3)o2)cc1 (3D coordinates assigned)
COc1ccc(Cc2[nH+]nc(SCC(=O)[N-]c3cccc(S(=O)(=O)N4CCOCC4)c3)o2)cc1 (nonaromatic ring conformer: 101.45573271921856 kcal/mol)

>  <smiles>  (83) 
COc1ccc(Cc2nnc(SCC(=O)Nc3cccc(S(=O)(=O)N4CCOCC4)c3)o2)cc1

>  <score_type>  (83) 
oracle

>  <origin>  (83) 
adg

>  <m_score__min__energy>  (83) 
-10.890000000000001

>  <m_primary>  (83) 
energy

$$$$
83:0
     RDKit          3D

 76 80  0  0  1  0  0  0  0  0999 V2000
   57.7400   31.0270   50.9060 C   0  0  0  0  0  0  0  0  0  0  0  0
   58.6160   30.4340   50.1210 C   0  0  0  0  0  0  0  0  0  0  0  0
   58.7660   30.6930   48.8100 N   0  0  0  0  0  0  0  0  0  0  0  0
   57.7730   30.8350   44.8090 C   0  0  0  0  0  0  0  0  0  0  0  0
   60.2040   29.8620   47.0530 C   0  0  0  0  0  0  0  0  0  0  0  0
   59.3460   29.3340   46.0320 C   0  0  0  0  0  0  0  0  0  0  0  0
   59.4920   27.9280   45.8160 C   0  0  0  0  0  0  0  0  0  0  0  0
   60.3730   27.1000   46.5040 O   0  0  0  0  0  0  0  0  0  0  0  0
   58.6750   27.5070   44.8690 N   0  0  0  0  0  0  0  0  0  0  0  0
   57.9900   28.5460   44.4360 C   0  0  0  0  0  0  0  0  0  0  0  0
   57.0470   28.5990   43.4840 N   0  0  0  0  0  0  0  0  0  0  0  0
   56.4680   29.7650   43.1930 C   0  0  0  0  0  0  0  0  0  0  0  0
   56.8250   30.8650   43.8440 N   0  0  0  0  0  0  0  0  0  0  0  0
   59.7580   29.8920   48.3330 C   0  0  0  0  0  0  0  0  0  0  0  0
   58.0450   31.9040   45.3640 N   0  0  0  0  0  0  0  0  0  0  0  0
   57.8710   33.2090   44.9000 C   0  0  0  0  0  0  0  0  0  0  0  0
   57.0200   33.8080   46.0990 C   0  0  0  0  0  0  0  0  0  0  0  0
   57.4140   33.1340   47.2460 O   0  0  0  0  0  0  0  0  0  0  0  0
   58.4030   29.6830   45.1560 C   0  0  0  0  0  0  0  0  0  0  0  0
   60.2120   29.1340   49.3910 C   0  0  0  0  0  0  0  0  0  0  0  0
   61.1340   28.2780   49.3120 O   0  0  0  0  0  0  0  0  0  0  0  0
   59.4950   29.4790   50.5010 N   0  0  0  0  0  0  0  0  0  0  0  0
   59.6300   28.9550   51.8320 C   0  0  0  0  0  0  0  0  0  0  0  0
   60.7330   29.6570   52.5810 C   0  0  0  0  0  0  0  0  0  0  0  0
   60.1720   30.8670   53.2630 C   0  0  0  0  0  0  0  0  0  0  0  0
   60.2270   32.0530   52.4750 N   0  0  0  0  0  0  0  0  0  0  0  0
   61.4680   32.3530   51.9040 C   0  0  0  0  0  0  0  0  0  0  0  0
   61.4280   33.5540   51.0160 C   0  0  0  0  0  0  0  0  0  0  0  0
   60.0990   33.9240   50.7170 N   0  0  0  0  0  0  0  0  0  0  0  0
   59.4960   33.4090   49.5580 C   0  0  0  0  0  0  0  0  0  0  0  0
   60.1640   33.8040   48.3250 C   0  0  0  0  0  0  0  0  0  0  0  0
   59.5690   34.7260   47.6400 O   0  0  0  0  0  0  0  0  0  0  0  0
   61.3670   33.3420   47.7550 N   0  0  0  0  0  0  0  0  0  0  0  0
   61.8100   33.8260   46.4460 C   0  0  0  0  0  0  0  0  0  0  0  0
   63.2910   33.7830   46.4620 C   0  0  0  0  0  0  0  0  0  0  0  0
   63.6720   33.0590   47.7040 C   0  0  0  0  0  0  0  0  0  0  0  0
   62.3950   32.4460   48.2080 C   0  0  0  0  0  0  0  0  0  0  0  0
   59.2710   34.2000   51.8480 C   0  0  0  0  0  0  0  0  0  0  0  0
   59.3810   33.1230   52.8950 C   0  0  0  0  0  0  0  0  0  0  0  0
   57.6828   30.7553   51.9704 H   0  0  0  0  0  0  0  0  0  0  0  0
   57.0657   31.7939   50.4971 H   0  0  0  0  0  0  0  0  0  0  0  0
   58.2150   31.3950   48.2410 H   0  0  0  0  0  0  0  0  0  0  0  0
   61.2073   30.2364   46.8016 H   0  0  0  0  0  0  0  0  0  0  0  0
   60.7760   27.3880   47.3910 H   0  0  0  0  0  0  0  0  0  0  0  0
   58.5930   26.5160   44.5260 H   0  0  0  0  0  0  0  0  0  0  0  0
   56.7580   27.7350   42.9620 H   0  0  0  0  0  0  0  0  0  0  0  0
   55.6941   29.8148   42.4129 H   0  0  0  0  0  0  0  0  0  0  0  0
   58.8312   33.7317   44.7781 H   0  0  0  0  0  0  0  0  0  0  0  0
   57.4024   33.2926   43.9083 H   0  0  0  0  0  0  0  0  0  0  0  0
   57.2201   34.8845   46.2047 H   0  0  0  0  0  0  0  0  0  0  0  0
   55.9420   33.6837   45.9187 H   0  0  0  0  0  0  0  0  0  0  0  0
   58.3860   32.9350   47.2510 H   0  0  0  0  0  0  0  0  0  0  0  0
   58.6822   29.0967   52.3719 H   0  0  0  0  0  0  0  0  0  0  0  0
   59.8792   27.8858   51.7634 H   0  0  0  0  0  0  0  0  0  0  0  0
   61.1593   28.9757   53.3321 H   0  0  0  0  0  0  0  0  0  0  0  0
   61.5220   29.9615   51.8776 H   0  0  0  0  0  0  0  0  0  0  0  0
   59.1199   30.6664   53.5135 H   0  0  0  0  0  0  0  0  0  0  0  0
   60.7920   31.0471   54.1536 H   0  0  0  0  0  0  0  0  0  0  0  0
   62.1900   32.5391   52.7128 H   0  0  0  0  0  0  0  0  0  0  0  0
   61.7599   31.4940   51.2820 H   0  0  0  0  0  0  0  0  0  0  0  0
   61.9282   34.3921   51.5233 H   0  0  0  0  0  0  0  0  0  0  0  0
   61.9412   33.3083   50.0746 H   0  0  0  0  0  0  0  0  0  0  0  0
   59.5043   32.3108   49.6209 H   0  0  0  0  0  0  0  0  0  0  0  0
   58.4763   33.8195   49.5168 H   0  0  0  0  0  0  0  0  0  0  0  0
   61.4194   33.1769   45.6485 H   0  0  0  0  0  0  0  0  0  0  0  0
   61.4432   34.8450   46.2531 H   0  0  0  0  0  0  0  0  0  0  0  0
   63.6664   33.2470   45.5778 H   0  0  0  0  0  0  0  0  0  0  0  0
   63.7215   34.7950   46.4400 H   0  0  0  0  0  0  0  0  0  0  0  0
   64.4144   32.2779   47.4833 H   0  0  0  0  0  0  0  0  0  0  0  0
   64.1290   33.7286   48.4475 H   0  0  0  0  0  0  0  0  0  0  0  0
   62.2510   31.4415   47.7834 H   0  0  0  0  0  0  0  0  0  0  0  0
   62.3918   32.3215   49.3009 H   0  0  0  0  0  0  0  0  0  0  0  0
   59.5789   35.1593   52.2896 H   0  0  0  0  0  0  0  0  0  0  0  0
   58.2262   34.2406   51.5063 H   0  0  0  0  0  0  0  0  0  0  0  0
   59.7946   33.5627   53.8146 H   0  0  0  0  0  0  0  0  0  0  0  0
   58.3750   32.7129   53.0674 H   0  0  0  0  0  0  0  0  0  0  0  0
  1  2  2  0
  2  3  1  0
  3  4  1  0
  4  5  2  0
  5  6  1  0
  6  7  2  0
  7  8  1  0
  7  9  1  0
  9 10  1  0
 10 11  1  0
 11 12  1  0
 12 13  2  0
 13 14  1  0
 14 15  2  0
 15 16  1  0
 16 17  1  0
 17 18  1  0
 14 19  1  0
  4 20  1  0
 20 21  2  0
 20 22  1  0
 22 23  1  0
 23 24  1  0
 24 25  1  0
 25 26  1  0
 26 27  1  0
 27 28  1  0
 28 29  1  0
 29 30  1  0
 30 31  1  0
 31 32  2  0
 31 33  1  0
 33 34  1  0
 34 35  1  0
 35 36  1  0
 36 37  1  0
 29 38  1  0
 38 39  1  0
 22  2  1  0
 39 26  1  0
 19  6  1  0
 37 33  1  0
 19 10  2  0
  1 40  1  0
  1 41  1  0
  3 42  1  0
  5 43  1  0
  8 44  1  0
  9 45  1  0
 11 46  1  0
 12 47  1  0
 16 48  1  0
 16 49  1  0
 17 50  1  0
 17 51  1  0
 18 52  1  0
 23 53  1  0
 23 54  1  0
 24 55  1  0
 24 56  1  0
 25 57  1  0
 25 58  1  0
 27 59  1  0
 27 60  1  0
 28 61  1  0
 28 62  1  0
 30 63  1  0
 30 64  1  0
 34 65  1  0
 34 66  1  0
 35 67  1  0
 35 68  1  0
 36 69  1  0
 36 70  1  0
 37 71  1  0
 37 72  1  0
 38 73  1  0
 38 74  1  0
 39 75  1  0
 39 76  1  0
M  END
>  <smiles>  (84) 
C=c1[nH]c(=Cc2c(O)[nH]c3[nH]cnc(=NCCO)c23)c(=O)n1CCCN1CCN(CC(=O)N2CCCC2)CC1

>  <score_type>  (84) 
oracle

>  <origin>  (84) 
adg

>  <m_score__min__energy>  (84) 
-10.6

>  <m_primary>  (84) 
energy

$$$$
84:0
     RDKit          3D

 42 44  0  0  0  0  0  0  0  0999 V2000
   58.5450   34.0040   51.6400 N   0  0  0  0  0  0  0  0  0  0  0  0
   58.4980   32.6770   51.0890 C   0  0  0  0  0  0  0  0  0  0  0  0
   57.7960   31.6980   51.8000 C   0  0  0  0  0  0  0  0  0  0  0  0
   57.7640   30.4020   51.3130 C   0  0  0  0  0  0  0  0  0  0  0  0
   57.1480   29.5010   51.9390 O   0  0  0  0  0  0  0  0  0  0  0  0
   58.4080   30.1040   50.1620 N   0  0  0  0  0  0  0  0  0  0  0  0
   59.0710   31.0480   49.4460 C   0  0  0  0  0  0  0  0  0  0  0  0
   59.9420   30.4770   47.9710 S   0  0  0  0  0  0  0  0  0  0  0  0
   58.5130   29.6140   47.2210 C   0  0  0  0  0  0  0  0  0  0  0  0
   58.5310   28.1470   47.5090 C   0  0  0  0  0  0  0  0  0  0  0  0
   59.1370   27.7240   48.5300 O   0  0  0  0  0  0  0  0  0  0  0  0
   57.9100   27.2310   46.5990 N   0  0  0  0  0  0  0  0  0  0  0  0
   56.6660   27.4560   45.9230 C   0  0  0  0  0  0  0  0  0  0  0  0
   55.6810   26.6940   46.1170 O   0  0  0  0  0  0  0  0  0  0  0  0
   56.5300   28.5950   45.0110 C   0  0  0  0  0  0  0  0  0  0  0  0
   57.5200   29.1020   44.1930 C   0  0  0  0  0  0  0  0  0  0  0  0
   56.9500   30.1770   43.5440 C   0  0  0  0  0  0  0  0  0  0  0  0
   55.6500   30.2560   44.0040 C   0  0  0  0  0  0  0  0  0  0  0  0
   55.4310   29.3000   44.8770 O   0  0  0  0  0  0  0  0  0  0  0  0
   59.1220   32.3540   49.8980 N   0  0  0  0  0  0  0  0  0  0  0  0
   59.8600   33.3950   49.1440 C   0  0  0  0  0  0  0  0  0  0  0  0
   59.2300   33.7110   47.8040 C   0  0  0  0  0  0  0  0  0  0  0  0
   59.9580   34.4750   46.8750 C   0  0  0  0  0  0  0  0  0  0  0  0
   59.4300   34.7440   45.6090 C   0  0  0  0  0  0  0  0  0  0  0  0
   58.1730   34.2500   45.2560 C   0  0  0  0  0  0  0  0  0  0  0  0
   57.4430   33.4830   46.1660 C   0  0  0  0  0  0  0  0  0  0  0  0
   57.9680   33.2070   47.4320 C   0  0  0  0  0  0  0  0  0  0  0  0
   58.5910   34.1420   52.6750 H   0  0  0  0  0  0  0  0  0  0  0  0
   58.5670   34.8670   51.0580 H   0  0  0  0  0  0  0  0  0  0  0  0
   57.2757   31.9545   52.7346 H   0  0  0  0  0  0  0  0  0  0  0  0
   57.5854   30.0442   47.6265 H   0  0  0  0  0  0  0  0  0  0  0  0
   58.5696   29.7471   46.1305 H   0  0  0  0  0  0  0  0  0  0  0  0
   58.5481   28.7270   44.0822 H   0  0  0  0  0  0  0  0  0  0  0  0
   57.4328   30.8377   42.8089 H   0  0  0  0  0  0  0  0  0  0  0  0
   54.9104   31.0060   43.6871 H   0  0  0  0  0  0  0  0  0  0  0  0
   59.8827   34.3149   49.7467 H   0  0  0  0  0  0  0  0  0  0  0  0
   60.8709   33.0072   48.9499 H   0  0  0  0  0  0  0  0  0  0  0  0
   60.9505   34.8640   47.1465 H   0  0  0  0  0  0  0  0  0  0  0  0
   60.0056   35.3456   44.8901 H   0  0  0  0  0  0  0  0  0  0  0  0
   57.7575   34.4651   44.2605 H   0  0  0  0  0  0  0  0  0  0  0  0
   56.4525   33.0950   45.8862 H   0  0  0  0  0  0  0  0  0  0  0  0
   57.3930   32.5934   48.1411 H   0  0  0  0  0  0  0  0  0  0  0  0
  1  2  1  0
  2  3  2  0
  3  4  1  0
  4  5  2  0
  4  6  1  0
  6  7  2  0
  7  8  1  0
  8  9  1  0
  9 10  1  0
 10 11  2  0
 10 12  1  0
 12 13  1  0
 13 14  2  0
 13 15  1  0
 15 16  2  0
 16 17  1  0
 17 18  2  0
 18 19  1  0
  7 20  1  0
 20 21  1  0
 21 22  1  0
 22 23  2  0
 23 24  1  0
 24 25  2  0
 25 26  1  0
 26 27  2  0
 20  2  1  0
 27 22  1  0
 19 15  1  0
  1 28  1  0
  1 29  1  0
  3 30  1  0
  9 31  1  0
  9 32  1  0
 16 33  1  0
 17 34  1  0
 18 35  1  0
 21 36  1  0
 21 37  1  0
 23 38  1  0
 24 39  1  0
 25 40  1  0
 26 41  1  0
 27 42  1  0
M  CHG  1  12  -1
M  END
>  <UniqueID>  (85) 
83

>  <SMILES>  (85) 
Nc1cc(=O)nc(SCC(=O)[N-]C(=O)c2ccco2)n1Cc1ccccc1

>  <Energy>  (85) 
68.89077283943807

>  <Genealogy>  (85) 
Nc1cc(=O)nc(SCC(=O)[N-]C(=O)c2ccco2)n1Cc1ccccc1 (protonated)
Nc1cc(=O)nc(SCC(=O)[N-]C(=O)c2ccco2)n1Cc1ccccc1 (3D coordinates assigned)
Nc1cc(=O)nc(SCC(=O)[N-]C(=O)c2ccco2)n1Cc1ccccc1 (optimized conformer: 68.89077283943807 kcal/mol)

>  <smiles>  (85) 
Nc1cc(=O)nc(SCC(=O)NC(=O)c2ccco2)n1Cc1ccccc1

>  <score_type>  (85) 
oracle

>  <origin>  (85) 
adg

>  <m_score__min__energy>  (85) 
-9.8399999999999999

>  <m_primary>  (85) 
energy

$$$$
85:0
     RDKit          3D

 52 55  0  0  0  0  0  0  0  0999 V2000
   54.4570   29.3520   45.5970 H   0  0  0  0  0  0  0  0  0  0  0  0
   55.1530   29.1610   44.8440 N   0  0  0  0  0  0  0  0  0  0  0  0
   56.5440   29.4030   45.0510 C   0  0  0  0  0  0  0  0  0  0  0  0
   57.2480   28.5090   45.5950 O   0  0  0  0  0  0  0  0  0  0  0  0
   57.1570   30.6860   44.6280 C   0  0  0  0  0  0  0  0  0  0  0  0
   57.2130   31.0370   43.2680 C   0  0  0  0  0  0  0  0  0  0  0  0
   56.7954   30.3575   42.5105 H   0  0  0  0  0  0  0  0  0  0  0  0
   57.7950   32.2420   42.8730 C   0  0  0  0  0  0  0  0  0  0  0  0
   57.8389   32.5047   41.8057 H   0  0  0  0  0  0  0  0  0  0  0  0
   58.3220   33.1160   43.8260 C   0  0  0  0  0  0  0  0  0  0  0  0
   58.7863   34.0603   43.5054 H   0  0  0  0  0  0  0  0  0  0  0  0
   58.2620   32.7950   45.1920 C   0  0  0  0  0  0  0  0  0  0  0  0
   58.8270   33.7140   46.2090 C   0  0  0  0  0  0  0  0  0  0  0  0
   58.0930   34.6100   46.7060 O   0  0  0  0  0  0  0  0  0  0  0  0
   60.1720   33.5800   46.6970 N   0  0  0  0  0  0  0  0  0  0  0  0
   60.5970   32.6720   47.5280 C   0  0  0  0  0  0  0  0  0  0  0  0
   61.8620   32.1750   47.4400 N   0  0  0  0  0  0  0  0  0  0  0  0
   62.3240   31.2310   48.3000 C   0  0  0  0  0  0  0  0  0  0  0  0
   63.3502   30.8488   48.1959 H   0  0  0  0  0  0  0  0  0  0  0  0
   61.5000   30.7450   49.3150 C   0  0  0  0  0  0  0  0  0  0  0  0
   61.8727   29.9745   50.0060 H   0  0  0  0  0  0  0  0  0  0  0  0
   60.1920   31.2420   49.4530 C   0  0  0  0  0  0  0  0  0  0  0  0
   59.3080   30.7380   50.5350 C   0  0  0  0  0  0  0  0  0  0  0  0
   57.7620   31.3130   50.8850 S   0  0  0  0  0  0  0  0  0  0  0  0
   57.4370   30.2780   52.1710 C   0  0  0  0  0  0  0  0  0  0  0  0
   56.1770   30.1640   52.9380 C   0  0  0  0  0  0  0  0  0  0  0  0
   56.2530   30.1330   54.1960 O   0  0  0  0  0  0  0  0  0  0  0  0
   54.8760   30.1050   52.3130 N   0  0  0  0  0  0  0  0  0  0  0  0
   53.9960   28.9560   52.4810 C   0  0  0  0  0  0  0  0  0  0  0  0
   54.2816   28.1503   51.7887 H   0  0  0  0  0  0  0  0  0  0  0  0
   54.0569   28.5447   53.4994 H   0  0  0  0  0  0  0  0  0  0  0  0
   52.5950   29.4570   52.1620 C   0  0  0  0  0  0  0  0  0  0  0  0
   52.0343   28.6992   51.5952 H   0  0  0  0  0  0  0  0  0  0  0  0
   52.0157   29.6648   53.0737 H   0  0  0  0  0  0  0  0  0  0  0  0
   52.8010   30.7180   51.3150 C   0  0  1  0  0  0  0  0  0  0  0  0
   52.7307   30.4776   50.2439 H   0  0  0  0  0  0  0  0  0  0  0  0
   51.7220   31.7650   51.4870 C   0  0  0  0  0  0  0  0  0  0  0  0
   51.3910   32.5120   50.5280 O   0  0  0  0  0  0  0  0  0  0  0  0
   51.1140   31.9620   52.7660 N   0  0  0  0  0  0  0  0  0  0  0  0
   50.3800   32.6940   52.8910 H   0  0  0  0  0  0  0  0  0  0  0  0
   51.3990   31.3860   53.5890 H   0  0  0  0  0  0  0  0  0  0  0  0
   54.1900   31.2330   51.6990 C   0  0  0  0  0  0  0  0  0  0  0  0
   54.7338   31.5712   50.8046 H   0  0  0  0  0  0  0  0  0  0  0  0
   54.1282   32.0910   52.3846 H   0  0  0  0  0  0  0  0  0  0  0  0
   58.5380   29.4410   52.3270 C   0  0  0  0  0  0  0  0  0  0  0  0
   58.5856   28.6488   53.0887 H   0  0  0  0  0  0  0  0  0  0  0  0
   59.5800   29.6980   51.4270 C   0  0  0  0  0  0  0  0  0  0  0  0
   60.5242   29.1337   51.4230 H   0  0  0  0  0  0  0  0  0  0  0  0
   59.7450   32.2190   48.5440 C   0  0  0  0  0  0  0  0  0  0  0  0
   58.7271   32.6269   48.6311 H   0  0  0  0  0  0  0  0  0  0  0  0
   57.6910   31.5710   45.5840 C   0  0  0  0  0  0  0  0  0  0  0  0
   57.6612   31.3019   46.6502 H   0  0  0  0  0  0  0  0  0  0  0  0
  1  2  1  0
  2  3  1  0
  3  4  2  0
  3  5  1  0
  5  6  2  0
  6  7  1  0
  6  8  1  0
  8  9  1  0
  8 10  2  0
 10 11  1  0
 10 12  1  0
 12 13  1  0
 13 14  2  0
 13 15  1  0
 15 16  2  0
 16 17  1  0
 17 18  1  0
 18 19  1  0
 18 20  2  0
 20 21  1  0
 20 22  1  0
 22 23  1  0
 23 24  1  0
 24 25  1  0
 25 26  1  0
 26 27  2  0
 26 28  1  0
 28 29  1  0
 29 30  1  0
 29 31  1  0
 29 32  1  0
 32 33  1  0
 32 34  1  0
 32 35  1  0
 35 36  1  6
 35 37  1  0
 37 38  2  0
 37 39  1  0
 39 40  1  0
 39 41  1  0
 35 42  1  0
 42 43  1  0
 42 44  1  0
 25 45  2  0
 45 46  1  0
 45 47  1  0
 47 48  1  0
 22 49  2  0
 49 50  1  0
 12 51  2  0
 51 52  1  0
 51  5  1  0
 49 16  1  0
 47 23  2  0
 42 28  1  0
M  CHG  2   2  -1  17  -1
M  END
>  <UniqueID>  (86) 
84

>  <SMILES>  (86) 
[NH-]C(=O)c1cccc(C(=O)/N=c2/cc(-c3ccc(C(=O)N4CC[C@@H](C(N)=O)C4)s3)cc[n-]2)c1

>  <Energy>  (86) 
96.66285113721167

>  <Genealogy>  (86) 
[NH-]C(=O)c1cccc(C(=O)N=c2cc(-c3ccc(C(=O)N4CCC(C(N)=O)C4)s3)cc[n-]2)c1 (protonated)
[NH-]C(=O)c1cccc(C(=O)N=c2cc(-c3ccc(C(=O)N4CC[C@@H](C(N)=O)C4)s3)cc[n-]2)c1 (chirality)
[NH-]C(=O)c1cccc(C(=O)/N=c2/cc(-c3ccc(C(=O)N4CC[C@@H](C(N)=O)C4)s3)cc[n-]2)c1 (cis-trans isomerization)
[NH-]C(=O)c1cccc(C(=O)/N=c2/cc(-c3ccc(C(=O)N4CC[C@@H](C(N)=O)C4)s3)cc[n-]2)c1 (3D coordinates assigned)
[NH-]C(=O)c1cccc(C(=O)/N=c2/cc(-c3ccc(C(=O)N4CC[C@@H](C(N)=O)C4)s3)cc[n-]2)c1 (nonaromatic ring conformer: 96.66285113721167 kcal/mol)

>  <smiles>  (86) 
NC(=O)c1cccc(C(=O)N=c2cc(-c3ccc(C(=O)N4CCC(C(N)=O)C4)s3)cc[nH]2)c1

>  <score_type>  (86) 
oracle

>  <origin>  (86) 
adg

>  <m_score__min__energy>  (86) 
-16.370000000000001

>  <m_primary>  (86) 
energy

$$$$
86:0
     RDKit          3D

 30 32  0  0  0  0  0  0  0  0999 V2000
   52.8628   29.0992   54.6332 H   0  0  0  0  0  0  0  0  0  0  0  0
   53.9370   29.3360   54.6280 C   0  0  0  0  0  0  0  0  0  0  0  0
   54.5812   28.9866   55.4483 H   0  0  0  0  0  0  0  0  0  0  0  0
   54.4600   30.0490   53.6240 C   0  0  0  0  0  0  0  0  0  0  0  0
   53.7920   30.5620   52.5080 C   0  0  0  0  0  0  0  0  0  0  0  0
   52.4740   30.4540   52.2360 C   0  0  0  0  0  0  0  0  0  0  0  0
   51.8301   30.0410   53.0264 H   0  0  0  0  0  0  0  0  0  0  0  0
   51.8210   30.8430   50.9670 C   0  0  0  0  0  0  0  0  0  0  0  0
   51.7310   30.0850   49.8580 N   0  0  0  0  0  0  0  0  0  0  0  0
   51.0200   30.8540   49.0050 C   0  0  0  0  0  0  0  0  0  0  0  0
   50.7290   30.4810   47.8400 O   0  0  0  0  0  0  0  0  0  0  0  0
   50.6430   32.0500   49.5020 N   0  0  0  0  0  0  0  0  0  0  0  0
   51.1540   32.0260   50.7430 C   0  0  0  0  0  0  0  0  0  0  0  0
   51.0130   33.0640   51.6560 O   0  0  0  0  0  0  0  0  0  0  0  0
   54.7630   31.2170   51.7560 C   0  0  0  0  0  0  0  0  0  0  0  0
   54.6091   31.7449   50.8033 H   0  0  0  0  0  0  0  0  0  0  0  0
   55.9620   31.0760   52.4390 C   0  0  0  0  0  0  0  0  0  0  0  0
   57.2730   31.6220   52.0090 C   0  0  0  0  0  0  0  0  0  0  0  0
   57.7440   32.8460   52.5230 C   0  0  0  0  0  0  0  0  0  0  0  0
   57.1350   33.4037   53.2497 H   0  0  0  0  0  0  0  0  0  0  0  0
   58.9800   33.3570   52.1160 C   0  0  0  0  0  0  0  0  0  0  0  0
   59.3391   34.3141   52.5222 H   0  0  0  0  0  0  0  0  0  0  0  0
   59.7600   32.6540   51.1940 C   0  0  0  0  0  0  0  0  0  0  0  0
   60.7322   33.0577   50.8748 H   0  0  0  0  0  0  0  0  0  0  0  0
   59.3050   31.4390   50.6780 C   0  0  0  0  0  0  0  0  0  0  0  0
   59.9200   30.8860   49.9527 H   0  0  0  0  0  0  0  0  0  0  0  0
   58.0700   30.9240   51.0810 C   0  0  0  0  0  0  0  0  0  0  0  0
   57.7177   29.9663   50.6703 H   0  0  0  0  0  0  0  0  0  0  0  0
   55.7690   30.3660   53.5700 N   0  0  0  0  0  0  0  0  0  0  0  0
   56.4970   30.0910   54.2660 H   0  0  0  0  0  0  0  0  0  0  0  0
  1  2  1  0
  2  3  1  0
  2  4  2  0
  4  5  1  0
  5  6  2  0
  6  7  1  0
  6  8  1  0
  8  9  1  0
  9 10  1  0
 10 11  2  0
 10 12  1  0
 12 13  1  0
 13 14  1  0
  5 15  1  0
 15 16  1  0
 15 17  2  0
 17 18  1  0
 18 19  2  0
 19 20  1  0
 19 21  1  0
 21 22  1  0
 21 23  2  0
 23 24  1  0
 23 25  1  0
 25 26  1  0
 25 27  2  0
 27 28  1  0
 17 29  1  0
 29 30  1  0
 29  4  1  0
 13  8  2  0
 27 18  1  0
M  CHG  3   9  -1  12  -1  14  -1
M  END
>  <UniqueID>  (87) 
85

>  <SMILES>  (87) 
C=c1[nH]c(-c2ccccc2)c/c1=C\c1[n-]c(=O)[n-]c1[O-]

>  <Energy>  (87) 
95.75061259908533

>  <Genealogy>  (87) 
C=c1[nH]c(-c2ccccc2)cc1=Cc1[n-]c(=O)[n-]c1[O-] (protonated)
C=c1[nH]c(-c2ccccc2)c/c1=C\c1[n-]c(=O)[n-]c1[O-] (cis-trans isomerization)
C=c1[nH]c(-c2ccccc2)c/c1=C\c1[n-]c(=O)[n-]c1[O-] (3D coordinates assigned)
C=c1[nH]c(-c2ccccc2)c/c1=C\c1[n-]c(=O)[n-]c1[O-] (optimized conformer: 95.75061259908533 kcal/mol)

>  <smiles>  (87) 
C=c1[nH]c(-c2ccccc2)cc1=Cc1[nH]c(=O)[nH]c1O

>  <score_type>  (87) 
oracle

>  <origin>  (87) 
adg

>  <m_score__min__energy>  (87) 
-16.030000000000001

>  <m_primary>  (87) 
energy

$$$$
87:0
     RDKit          3D

 44 45  0  0  0  0  0  0  0  0999 V2000
   57.7540   28.3060   44.5610 O   0  0  0  0  0  0  0  0  0  0  0  0
   56.6590   28.1340   45.1620 C   0  0  0  0  0  0  0  0  0  0  0  0
   56.5480   27.0770   46.2130 C   0  0  0  0  0  0  0  0  0  0  0  0
   55.2890   26.3570   46.0550 N   0  0  0  0  0  0  0  0  0  0  0  0
   55.1990   24.9290   45.9730 C   0  0  0  0  0  0  0  0  0  0  0  0
   54.0850   24.3710   45.7800 O   0  0  0  0  0  0  0  0  0  0  0  0
   56.4210   24.0880   46.1770 C   0  0  0  0  0  0  0  0  0  0  0  0
   56.5900   23.0990   45.0510 C   0  0  0  0  0  0  0  0  0  0  0  0
   56.3750   23.4980   43.7190 C   0  0  0  0  0  0  0  0  0  0  0  0
   56.4810   22.5660   42.6790 C   0  0  0  0  0  0  0  0  0  0  0  0
   56.7890   21.2300   42.9620 C   0  0  0  0  0  0  0  0  0  0  0  0
   56.9950   20.8250   44.2860 C   0  0  0  0  0  0  0  0  0  0  0  0
   56.8950   21.7560   45.3290 C   0  0  0  0  0  0  0  0  0  0  0  0
   55.5370   28.9810   44.8870 N   0  0  0  0  0  0  0  0  0  0  0  0
   55.4510   29.8460   43.7160 C   0  0  0  0  0  0  0  0  0  0  0  0
   56.4810   30.9260   43.8100 C   0  0  0  0  0  0  0  0  0  0  0  0
   57.1400   31.2540   42.7860 O   0  0  0  0  0  0  0  0  0  0  0  0
   56.6760   31.6160   45.0470 N   0  0  0  0  0  0  0  0  0  0  0  0
   57.8770   31.4880   45.8640 C   0  0  0  0  0  0  0  0  0  0  0  0
   58.4990   32.8400   46.1090 C   0  0  0  0  0  0  0  0  0  0  0  0
   58.8800   33.1930   47.4150 C   0  0  0  0  0  0  0  0  0  0  0  0
   59.4440   34.4440   47.6770 C   0  0  0  0  0  0  0  0  0  0  0  0
   59.6300   35.3570   46.6390 C   0  0  0  0  0  0  0  0  0  0  0  0
   59.2520   35.0240   45.3370 C   0  0  0  0  0  0  0  0  0  0  0  0
   58.6850   33.7740   45.0590 C   0  0  0  0  0  0  0  0  0  0  0  0
   58.3160   33.4940   43.7410 O   0  0  0  0  0  0  0  0  0  0  0  0
   57.3870   26.3727   46.1133 H   0  0  0  0  0  0  0  0  0  0  0  0
   56.5766   27.5472   47.2070 H   0  0  0  0  0  0  0  0  0  0  0  0
   57.3049   24.7415   46.2176 H   0  0  0  0  0  0  0  0  0  0  0  0
   56.3102   23.5312   47.1191 H   0  0  0  0  0  0  0  0  0  0  0  0
   56.1230   24.5448   43.4939 H   0  0  0  0  0  0  0  0  0  0  0  0
   56.3220   22.8843   41.6381 H   0  0  0  0  0  0  0  0  0  0  0  0
   56.8691   20.4987   42.1442 H   0  0  0  0  0  0  0  0  0  0  0  0
   57.2356   19.7749   44.5082 H   0  0  0  0  0  0  0  0  0  0  0  0
   57.0558   21.4341   46.3685 H   0  0  0  0  0  0  0  0  0  0  0  0
   55.6273   29.2507   42.8080 H   0  0  0  0  0  0  0  0  0  0  0  0
   54.4501   30.3002   43.6715 H   0  0  0  0  0  0  0  0  0  0  0  0
   57.6108   31.0323   46.8291 H   0  0  0  0  0  0  0  0  0  0  0  0
   58.6023   30.8552   45.3315 H   0  0  0  0  0  0  0  0  0  0  0  0
   58.7328   32.4781   48.2380 H   0  0  0  0  0  0  0  0  0  0  0  0
   59.7415   34.7091   48.7023 H   0  0  0  0  0  0  0  0  0  0  0  0
   60.0753   36.3412   46.8467 H   0  0  0  0  0  0  0  0  0  0  0  0
   59.4007   35.7490   44.5232 H   0  0  0  0  0  0  0  0  0  0  0  0
   57.6840   32.7440   43.4880 H   0  0  0  0  0  0  0  0  0  0  0  0
  1  2  2  0
  2  3  1  0
  3  4  1  0
  4  5  1  0
  5  6  2  0
  5  7  1  0
  7  8  1  0
  8  9  2  0
  9 10  1  0
 10 11  2  0
 11 12  1  0
 12 13  2  0
  2 14  1  0
 14 15  1  0
 15 16  1  0
 16 17  2  0
 16 18  1  0
 18 19  1  0
 19 20  1  0
 20 21  2  0
 21 22  1  0
 22 23  2  0
 23 24  1  0
 24 25  2  0
 25 26  1  0
 13  8  1  0
 25 20  1  0
  3 27  1  0
  3 28  1  0
  7 29  1  0
  7 30  1  0
  9 31  1  0
 10 32  1  0
 11 33  1  0
 12 34  1  0
 13 35  1  0
 15 36  1  0
 15 37  1  0
 19 38  1  0
 19 39  1  0
 21 40  1  0
 22 41  1  0
 23 42  1  0
 24 43  1  0
 26 44  1  0
M  CHG  3   4  -1  14  -1  18  -1
M  END
>  <UniqueID>  (88) 
86

>  <SMILES>  (88) 
O=C(C[N-]C(=O)Cc1ccccc1)[N-]CC(=O)[N-]Cc1ccccc1O

>  <Energy>  (88) 
35.16435386949953

>  <Genealogy>  (88) 
O=C(C[N-]C(=O)Cc1ccccc1)[N-]CC(=O)[N-]Cc1ccccc1O (protonated)
O=C(C[N-]C(=O)Cc1ccccc1)[N-]CC(=O)[N-]Cc1ccccc1O (3D coordinates assigned)
O=C(C[N-]C(=O)Cc1ccccc1)[N-]CC(=O)[N-]Cc1ccccc1O (optimized conformer: 35.16435386949953 kcal/mol)

>  <smiles>  (88) 
O=C(CNC(=O)Cc1ccccc1)NCC(=O)NCc1ccccc1O

>  <score_type>  (88) 
oracle

>  <origin>  (88) 
adg

>  <m_score__min__energy>  (88) 
-13.07

>  <m_primary>  (88) 
energy

$$$$
88:0
     RDKit          3D

 43 45  0  0  0  0  0  0  0  0999 V2000
   57.8120   22.1560   45.0180 H   0  0  0  0  0  0  0  0  0  0  0  0
   57.3780   22.6420   45.7940 O   0  0  0  0  0  0  0  0  0  0  0  0
   57.3100   24.0320   45.8370 C   0  0  0  0  0  0  0  0  0  0  0  0
   58.4890   24.7790   45.7970 C   0  0  0  0  0  0  0  0  0  0  0  0
   59.4606   24.2662   45.7424 H   0  0  0  0  0  0  0  0  0  0  0  0
   58.4400   26.1750   45.8260 C   0  0  0  0  0  0  0  0  0  0  0  0
   59.3737   26.7562   45.8050 H   0  0  0  0  0  0  0  0  0  0  0  0
   57.2010   26.8410   45.8820 C   0  0  0  0  0  0  0  0  0  0  0  0
   57.1600   28.3160   45.8950 C   0  0  0  0  0  0  0  0  0  0  0  0
   56.2820   28.9030   45.2050 O   0  0  0  0  0  0  0  0  0  0  0  0
   58.0140   29.1460   46.7770 C   0  0  0  0  0  0  0  0  0  0  0  0
   57.9507   28.9452   47.8567 H   0  0  0  0  0  0  0  0  0  0  0  0
   58.8580   30.1190   46.3930 C   0  0  0  0  0  0  0  0  0  0  0  0
   59.9211   29.9912   46.6449 H   0  0  0  0  0  0  0  0  0  0  0  0
   58.4790   31.3480   45.6600 C   0  0  0  0  0  0  0  0  0  0  0  0
   58.1640   31.2080   44.2980 C   0  0  0  0  0  0  0  0  0  0  0  0
   58.2225   30.2169   43.8244 H   0  0  0  0  0  0  0  0  0  0  0  0
   57.7780   32.3130   43.5410 C   0  0  0  0  0  0  0  0  0  0  0  0
   57.5136   32.1878   42.4806 H   0  0  0  0  0  0  0  0  0  0  0  0
   57.7270   33.5760   44.1270 C   0  0  0  0  0  0  0  0  0  0  0  0
   57.4112   34.4447   43.5306 H   0  0  0  0  0  0  0  0  0  0  0  0
   58.0760   33.7430   45.4710 C   0  0  0  0  0  0  0  0  0  0  0  0
   58.0305   34.7445   45.9236 H   0  0  0  0  0  0  0  0  0  0  0  0
   58.4860   32.6420   46.2540 C   0  0  0  0  0  0  0  0  0  0  0  0
   58.8900   32.8300   47.6810 C   0  0  0  0  0  0  0  0  0  0  0  0
   58.4895   32.1305   48.4295 H   0  0  0  0  0  0  0  0  0  0  0  0
   59.7140   33.8040   48.1020 C   0  0  0  0  0  0  0  0  0  0  0  0
   59.2879   34.7971   48.3071 H   0  0  0  0  0  0  0  0  0  0  0  0
   61.1710   33.6060   48.3040 C   0  0  0  0  0  0  0  0  0  0  0  0
   61.7230   33.8830   49.5680 C   0  0  0  0  0  0  0  0  0  0  0  0
   61.0730   34.2396   50.3806 H   0  0  0  0  0  0  0  0  0  0  0  0
   63.0900   33.7090   49.8000 C   0  0  0  0  0  0  0  0  0  0  0  0
   63.5132   33.9408   50.7885 H   0  0  0  0  0  0  0  0  0  0  0  0
   63.9200   33.2410   48.7780 C   0  0  0  0  0  0  0  0  0  0  0  0
   65.2490   33.0780   49.0020 F   0  0  0  0  0  0  0  0  0  0  0  0
   63.3820   32.9410   47.5250 C   0  0  0  0  0  0  0  0  0  0  0  0
   64.0352   32.5650   46.7238 H   0  0  0  0  0  0  0  0  0  0  0  0
   62.0150   33.1170   47.2850 C   0  0  0  0  0  0  0  0  0  0  0  0
   61.5965   32.8730   46.2974 H   0  0  0  0  0  0  0  0  0  0  0  0
   56.0150   26.0850   45.9490 C   0  0  0  0  0  0  0  0  0  0  0  0
   54.7730   26.7150   46.0230 O   0  0  0  0  0  0  0  0  0  0  0  0
   56.0710   24.6860   45.9170 C   0  0  0  0  0  0  0  0  0  0  0  0
   55.1418   24.0985   45.9547 H   0  0  0  0  0  0  0  0  0  0  0  0
  1  2  1  0
  2  3  1  0
  3  4  2  0
  4  5  1  0
  4  6  1  0
  6  7  1  0
  6  8  2  0
  8  9  1  0
  9 10  2  0
  9 11  1  0
 11 12  1  0
 11 13  2  0
 13 14  1  0
 13 15  1  0
 15 16  2  0
 16 17  1  0
 16 18  1  0
 18 19  1  0
 18 20  2  0
 20 21  1  0
 20 22  1  0
 22 23  1  0
 22 24  2  0
 24 25  1  0
 25 26  1  0
 25 27  2  3
 27 28  1  0
 27 29  1  0
 29 30  2  0
 30 31  1  0
 30 32  1  0
 32 33  1  0
 32 34  2  0
 34 35  1  0
 34 36  1  0
 36 37  1  0
 36 38  2  0
 38 39  1  0
  8 40  1  0
 40 41  1  0
 40 42  2  0
 42 43  1  0
 42  3  1  0
 24 15  1  0
 38 29  1  0
M  CHG  1  41  -1
M  END
>  <UniqueID>  (89) 
87

>  <SMILES>  (89) 
O=C(/C=C\c1ccccc1C=Cc1ccc(F)cc1)c1ccc(O)cc1[O-]

>  <Energy>  (89) 
64.88225752230466

>  <Genealogy>  (89) 
O=C(C=Cc1ccccc1C=Cc1ccc(F)cc1)c1ccc(O)cc1[O-] (protonated)
O=C(/C=C\c1ccccc1C=Cc1ccc(F)cc1)c1ccc(O)cc1[O-] (cis-trans isomerization)
O=C(/C=C\c1ccccc1C=Cc1ccc(F)cc1)c1ccc(O)cc1[O-] (3D coordinates assigned)
O=C(/C=C\c1ccccc1C=Cc1ccc(F)cc1)c1ccc(O)cc1[O-] (optimized conformer: 64.88225752230466 kcal/mol)

>  <smiles>  (89) 
O=C(C=Cc1ccccc1C=Cc1ccc(F)cc1)c1ccc(O)cc1O

>  <score_type>  (89) 
oracle

>  <origin>  (89) 
adg

>  <m_score__min__energy>  (89) 
-12.970000000000001

>  <m_primary>  (89) 
energy

$$$$
89:0
     RDKit          3D

 44 46  0  0  0  0  0  0  0  0999 V2000
   59.2350   34.4550   44.5350 C   0  0  0  0  0  0  0  0  0  0  0  0
   58.3080   33.2850   44.5530 C   0  0  0  0  0  0  0  0  0  0  0  0
   58.1140   32.4680   43.5010 N   0  0  0  0  0  0  0  0  0  0  0  0
   57.2340   31.5600   43.9770 C   0  0  0  0  0  0  0  0  0  0  0  0
   56.6920   30.4330   43.1580 C   0  0  0  0  0  0  0  0  0  0  0  0
   55.6160   29.7050   43.9120 C   0  0  0  0  0  0  0  0  0  0  0  0
   54.4850   29.5610   43.3810 O   0  0  0  0  0  0  0  0  0  0  0  0
   55.8490   29.1270   45.2030 N   0  0  0  0  0  0  0  0  0  0  0  0
   57.0410   28.4500   45.6280 C   0  0  0  0  0  0  0  0  0  0  0  0
   58.2120   29.1560   45.9700 C   0  0  0  0  0  0  0  0  0  0  0  0
   59.3470   28.4670   46.4120 C   0  0  0  0  0  0  0  0  0  0  0  0
   59.3190   27.0750   46.5340 C   0  0  0  0  0  0  0  0  0  0  0  0
   60.4170   26.4080   46.9710 F   0  0  0  0  0  0  0  0  0  0  0  0
   58.1490   26.3720   46.2240 C   0  0  0  0  0  0  0  0  0  0  0  0
   57.0110   27.0580   45.7820 C   0  0  0  0  0  0  0  0  0  0  0  0
   56.8970   31.7780   45.2290 O   0  0  0  0  0  0  0  0  0  0  0  0
   57.5500   32.8430   45.6180 C   0  0  0  0  0  0  0  0  0  0  0  0
   57.4830   33.4140   47.0040 C   0  0  0  0  0  0  0  0  0  0  0  0
   58.3560   32.6170   47.9800 C   0  0  0  0  0  0  0  0  0  0  0  0
   59.7700   32.6880   47.6090 N   0  0  0  0  0  0  0  0  0  0  0  0
   60.6400   31.5320   47.4760 C   0  0  0  0  0  0  0  0  0  0  0  0
   62.0510   32.0900   47.2010 C   0  0  0  0  0  0  0  0  0  0  0  0
   61.9600   33.6220   47.2580 C   0  0  0  0  0  0  0  0  0  0  0  0
   60.5260   33.8750   47.4840 C   0  0  0  0  0  0  0  0  0  0  0  0
   60.0210   35.0280   47.5610 O   0  0  0  0  0  0  0  0  0  0  0  0
   59.4705   34.7522   45.5676 H   0  0  0  0  0  0  0  0  0  0  0  0
   60.1628   34.1797   44.0121 H   0  0  0  0  0  0  0  0  0  0  0  0
   58.7548   35.2952   44.0121 H   0  0  0  0  0  0  0  0  0  0  0  0
   56.2716   30.8338   42.2239 H   0  0  0  0  0  0  0  0  0  0  0  0
   57.5084   29.7301   42.9355 H   0  0  0  0  0  0  0  0  0  0  0  0
   58.2338   30.2528   45.8892 H   0  0  0  0  0  0  0  0  0  0  0  0
   60.2628   29.0219   46.6638 H   0  0  0  0  0  0  0  0  0  0  0  0
   58.1234   25.2772   46.3279 H   0  0  0  0  0  0  0  0  0  0  0  0
   56.0898   26.5015   45.5548 H   0  0  0  0  0  0  0  0  0  0  0  0
   57.8339   34.4562   46.9791 H   0  0  0  0  0  0  0  0  0  0  0  0
   56.4402   33.3615   47.3501 H   0  0  0  0  0  0  0  0  0  0  0  0
   58.2300   33.0292   48.9920 H   0  0  0  0  0  0  0  0  0  0  0  0
   58.0409   31.5636   47.9467 H   0  0  0  0  0  0  0  0  0  0  0  0
   60.6366   30.9425   48.4047 H   0  0  0  0  0  0  0  0  0  0  0  0
   60.3051   30.8673   46.6660 H   0  0  0  0  0  0  0  0  0  0  0  0
   62.7541   31.7267   47.9650 H   0  0  0  0  0  0  0  0  0  0  0  0
   62.4135   31.7595   46.2164 H   0  0  0  0  0  0  0  0  0  0  0  0
   62.5646   34.0210   48.0858 H   0  0  0  0  0  0  0  0  0  0  0  0
   62.3417   34.1073   46.3476 H   0  0  0  0  0  0  0  0  0  0  0  0
  1  2  1  0
  2  3  1  0
  3  4  2  0
  4  5  1  0
  5  6  1  0
  6  7  2  0
  6  8  1  0
  8  9  1  0
  9 10  2  0
 10 11  1  0
 11 12  2  0
 12 13  1  0
 12 14  1  0
 14 15  2  0
  4 16  1  0
 16 17  1  0
 17 18  1  0
 18 19  1  0
 19 20  1  0
 20 21  1  0
 21 22  1  0
 22 23  1  0
 23 24  1  0
 24 25  2  0
 17  2  2  0
 24 20  1  0
 15  9  1  0
  1 26  1  0
  1 27  1  0
  1 28  1  0
  5 29  1  0
  5 30  1  0
 10 31  1  0
 11 32  1  0
 14 33  1  0
 15 34  1  0
 18 35  1  0
 18 36  1  0
 19 37  1  0
 19 38  1  0
 21 39  1  0
 21 40  1  0
 22 41  1  0
 22 42  1  0
 23 43  1  0
 23 44  1  0
M  CHG  1   8  -1
M  END
>  <UniqueID>  (90) 
88

>  <SMILES>  (90) 
Cc1nc(CC(=O)[N-]c2ccc(F)cc2)oc1CCN1CCCC1=O

>  <Energy>  (90) 
76.79322557037658

>  <Genealogy>  (90) 
Cc1nc(CC(=O)[N-]c2ccc(F)cc2)oc1CCN1CCCC1=O (protonated)
Cc1nc(CC(=O)[N-]c2ccc(F)cc2)oc1CCN1CCCC1=O (3D coordinates assigned)
Cc1nc(CC(=O)[N-]c2ccc(F)cc2)oc1CCN1CCCC1=O (nonaromatic ring conformer: 76.79322557037658 kcal/mol)

>  <smiles>  (90) 
Cc1nc(CC(=O)Nc2ccc(F)cc2)oc1CCN1CCCC1=O

>  <score_type>  (90) 
oracle

>  <origin>  (90) 
adg

>  <m_score__min__energy>  (90) 
-9.6400000000000006

>  <m_primary>  (90) 
energy

$$$$
90:0
     RDKit          3D

 39 40  0  0  0  0  0  0  0  0999 V2000
   59.6910   29.8810   49.0540 C   0  0  0  0  0  0  0  0  0  0  0  0
   58.5190   30.4380   49.3560 C   0  0  0  0  0  0  0  0  0  0  0  0
   58.3390   31.3820   50.4850 C   0  0  0  0  0  0  0  0  0  0  0  0
   57.5920   30.9650   51.6050 C   0  0  0  0  0  0  0  0  0  0  0  0
   57.0160   29.6990   51.6400 O   0  0  0  0  0  0  0  0  0  0  0  0
   57.4110   31.8230   52.6910 C   0  0  0  0  0  0  0  0  0  0  0  0
   57.9710   33.0980   52.6800 C   0  0  0  0  0  0  0  0  0  0  0  0
   58.7320   33.5190   51.5900 C   0  0  0  0  0  0  0  0  0  0  0  0
   58.9410   32.6630   50.4890 C   0  0  0  0  0  0  0  0  0  0  0  0
   59.7550   33.0430   49.4060 O   0  0  0  0  0  0  0  0  0  0  0  0
   59.6220   34.2450   48.6460 C   0  0  0  0  0  0  0  0  0  0  0  0
   59.1180   33.9460   47.2580 C   0  0  0  0  0  0  0  0  0  0  0  0
   59.2280   34.9060   46.2390 C   0  0  0  0  0  0  0  0  0  0  0  0
   58.7710   34.6170   44.9520 C   0  0  0  0  0  0  0  0  0  0  0  0
   58.1880   33.3780   44.6730 C   0  0  0  0  0  0  0  0  0  0  0  0
   58.0360   32.4220   45.6880 C   0  0  0  0  0  0  0  0  0  0  0  0
   57.4550   31.1450   45.3710 N   0  0  0  0  0  0  0  0  0  0  0  0
   58.1970   29.9170   45.3110 C   0  0  0  0  0  0  0  0  0  0  0  0
   59.3620   29.8450   45.7870 O   0  0  0  0  0  0  0  0  0  0  0  0
   57.5860   28.7040   44.6800 C   0  0  0  0  0  0  0  0  0  0  0  0
   56.1510   28.5910   45.0830 C   0  0  0  0  0  0  0  0  0  0  0  0
   55.3630   29.5550   44.8980 O   0  0  0  0  0  0  0  0  0  0  0  0
   55.6710   27.4010   45.6170 O   0  0  0  0  0  0  0  0  0  0  0  0
   58.5160   32.7080   46.9780 C   0  0  0  0  0  0  0  0  0  0  0  0
   59.7673   29.1866   48.2043 H   0  0  0  0  0  0  0  0  0  0  0  0
   60.5824   30.1155   49.6543 H   0  0  0  0  0  0  0  0  0  0  0  0
   57.6441   30.1857   48.7389 H   0  0  0  0  0  0  0  0  0  0  0  0
   56.8234   31.4906   53.5594 H   0  0  0  0  0  0  0  0  0  0  0  0
   57.8127   33.7744   53.5329 H   0  0  0  0  0  0  0  0  0  0  0  0
   59.1728   34.5268   51.5890 H   0  0  0  0  0  0  0  0  0  0  0  0
   58.9109   34.9148   49.1516 H   0  0  0  0  0  0  0  0  0  0  0  0
   60.6090   34.7242   48.5676 H   0  0  0  0  0  0  0  0  0  0  0  0
   59.6751   35.8875   46.4553 H   0  0  0  0  0  0  0  0  0  0  0  0
   58.8702   35.3677   44.1541 H   0  0  0  0  0  0  0  0  0  0  0  0
   57.8466   33.1513   43.6522 H   0  0  0  0  0  0  0  0  0  0  0  0
   56.4200   31.0960   45.2360 H   0  0  0  0  0  0  0  0  0  0  0  0
   57.6521   28.7895   43.5853 H   0  0  0  0  0  0  0  0  0  0  0  0
   58.1288   27.8080   45.0156 H   0  0  0  0  0  0  0  0  0  0  0  0
   58.4194   31.9560   47.7749 H   0  0  0  0  0  0  0  0  0  0  0  0
  1  2  2  0
  2  3  1  0
  3  4  2  0
  4  5  1  0
  4  6  1  0
  6  7  2  0
  7  8  1  0
  8  9  2  0
  9 10  1  0
 10 11  1  0
 11 12  1  0
 12 13  2  0
 13 14  1  0
 14 15  2  0
 15 16  1  0
 16 17  1  0
 17 18  1  0
 18 19  2  0
 18 20  1  0
 20 21  1  0
 21 22  2  0
 21 23  1  0
 16 24  2  0
  9  3  1  0
 24 12  1  0
  1 25  1  0
  1 26  1  0
  2 27  1  0
  6 28  1  0
  7 29  1  0
  8 30  1  0
 11 31  1  0
 11 32  1  0
 13 33  1  0
 14 34  1  0
 15 35  1  0
 17 36  1  0
 20 37  1  0
 20 38  1  0
 24 39  1  0
M  CHG  2   5  -1  23  -1
M  END
>  <UniqueID>  (91) 
89

>  <SMILES>  (91) 
C=Cc1c([O-])cccc1OCc1cccc(NC(=O)CC(=O)[O-])c1

>  <Energy>  (91) 
44.21388180237518

>  <Genealogy>  (91) 
C=Cc1c([O-])cccc1OCc1cccc(NC(=O)CC(=O)[O-])c1 (protonated)
C=Cc1c([O-])cccc1OCc1cccc(NC(=O)CC(=O)[O-])c1 (3D coordinates assigned)
C=Cc1c([O-])cccc1OCc1cccc(NC(=O)CC(=O)[O-])c1 (optimized conformer: 44.21388180237518 kcal/mol)

>  <smiles>  (91) 
C=Cc1c(O)cccc1OCc1cccc(NC(=O)CC(=O)O)c1

>  <score_type>  (91) 
oracle

>  <origin>  (91) 
adg

>  <m_score__min__energy>  (91) 
-11.23

>  <m_primary>  (91) 
energy

$$$$
