0:0
     RDKit          3D

 34 35  0  0  0  0  0  0  0  0999 V2000
   57.8080   32.7120   42.6390 C   0  0  0  0  0  0  0  0  0  0  0  0
   58.4990   33.0040   43.9380 C   0  0  0  0  0  0  0  0  0  0  0  0
   58.4580   32.2480   45.0220 C   0  0  0  0  0  0  0  0  0  0  0  0
   57.7100   30.9750   45.1490 C   0  0  0  0  0  0  0  0  0  0  0  0
   56.4830   30.8030   44.4910 C   0  0  0  0  0  0  0  0  0  0  0  0
   55.7700   29.6100   44.6270 C   0  0  0  0  0  0  0  0  0  0  0  0
   56.2700   28.5790   45.4270 C   0  0  0  0  0  0  0  0  0  0  0  0
   55.5440   27.4000   45.5540 O   0  0  0  0  0  0  0  0  0  0  0  0
   57.4950   28.7390   46.0990 C   0  0  0  0  0  0  0  0  0  0  0  0
   58.0280   27.6400   46.9740 C   0  0  0  0  0  0  0  0  0  0  0  0
   58.2050   29.9440   45.9630 C   0  0  0  0  0  0  0  0  0  0  0  0
   59.4430   32.7540   46.0250 C   0  0  2  0  0  0  0  0  0  0  0  0
   58.8980   32.6950   47.4660 C   0  0  0  0  0  0  0  0  0  0  0  0
   59.8630   34.0980   45.5370 N   0  0  0  0  0  0  0  0  0  0  0  0
   59.2370   35.2360   46.2400 C   0  0  0  0  0  0  0  0  0  0  0  0
   59.4720   34.1120   44.1120 C   0  0  0  0  0  0  0  0  0  0  0  0
   56.8118   32.2910   42.8401 H   0  0  0  0  0  0  0  0  0  0  0  0
   57.7031   33.6427   42.0622 H   0  0  0  0  0  0  0  0  0  0  0  0
   58.4023   31.9881   42.0622 H   0  0  0  0  0  0  0  0  0  0  0  0
   56.0803   31.6124   43.8644 H   0  0  0  0  0  0  0  0  0  0  0  0
   54.8116   29.4814   44.1027 H   0  0  0  0  0  0  0  0  0  0  0  0
   57.8945   27.9152   48.0306 H   0  0  0  0  0  0  0  0  0  0  0  0
   57.4817   26.7082   46.7660 H   0  0  0  0  0  0  0  0  0  0  0  0
   59.0980   27.4920   46.7660 H   0  0  0  0  0  0  0  0  0  0  0  0
   59.1561   30.0804   46.4986 H   0  0  0  0  0  0  0  0  0  0  0  0
   60.3342   32.1140   46.1032 H   0  0  0  0  0  0  0  0  0  0  0  0
   59.7321   32.7853   48.1775 H   0  0  0  0  0  0  0  0  0  0  0  0
   58.1899   33.5217   47.6243 H   0  0  0  0  0  0  0  0  0  0  0  0
   58.3832   31.7359   47.6243 H   0  0  0  0  0  0  0  0  0  0  0  0
   59.3195   35.0860   47.3266 H   0  0  0  0  0  0  0  0  0  0  0  0
   59.7496   36.1677   45.9585 H   0  0  0  0  0  0  0  0  0  0  0  0
   58.1757   35.3019   45.9585 H   0  0  0  0  0  0  0  0  0  0  0  0
   59.0046   35.0738   43.8544 H   0  0  0  0  0  0  0  0  0  0  0  0
   60.3455   33.9849   43.4556 H   0  0  0  0  0  0  0  0  0  0  0  0
  1  2  1  0
  2  3  2  0
  3  4  1  0
  4  5  2  0
  5  6  1  0
  6  7  2  0
  7  8  1  0
  7  9  1  0
  9 10  1  0
  9 11  2  0
  3 12  1  0
 12 13  1  0
 12 14  1  0
 14 15  1  0
 14 16  1  0
 16  2  1  0
 11  4  1  0
  1 17  1  0
  1 18  1  0
  1 19  1  0
  5 20  1  0
  6 21  1  0
 10 22  1  0
 10 23  1  0
 10 24  1  0
 11 25  1  0
 12 26  1  1
 13 27  1  0
 13 28  1  0
 13 29  1  0
 15 30  1  0
 15 31  1  0
 15 32  1  0
 16 33  1  0
 16 34  1  0
M  CHG  1   8  -1
M  END
>  <UniqueID>  (1) 
1

>  <SMILES>  (1) 
CC1=C(c2ccc([O-])c(C)c2)[C@H](C)N(C)C1

>  <Energy>  (1) 
48.29386658027187

>  <Genealogy>  (1) 
CC1=C(c2ccc([O-])c(C)c2)C(C)N(C)C1 (protonated)
CC1=C(c2ccc([O-])c(C)c2)[C@H](C)N(C)C1 (chirality)
CC1=C(c2ccc([O-])c(C)c2)[C@H](C)N(C)C1 (3D coordinates assigned)
CC1=C(c2ccc([O-])c(C)c2)[C@H](C)N(C)C1 (nonaromatic ring conformer: 48.29386658027187 kcal/mol)

>  <smiles>  (1) 
CC1=C(c2ccc(O)c(C)c2)C(C)N(C)C1

>  <score_type>  (1) 
oracle

>  <origin>  (1) 
adg

>  <m_score__min__energy>  (1) 
-9.6899999999999995

>  <m_primary>  (1) 
energy

$$$$
1:0
     RDKit          3D

 61 64  0  0  0  0  0  0  0  0999 V2000
   60.2260   29.3980   51.2810 C   0  0  0  0  0  0  0  0  0  0  0  0
   60.1610   29.1920   49.8010 C   0  0  0  0  0  0  0  0  0  0  0  0
   59.6580   28.0800   49.2210 N   0  0  0  0  0  0  0  0  0  0  0  0
   59.7840   28.2220   47.9080 N   0  0  0  0  0  0  0  0  0  0  0  0
   59.4220   27.1840   46.9530 C   0  0  0  0  0  0  0  0  0  0  0  0
   60.3570   29.4160   47.6260 C   0  0  0  0  0  0  0  0  0  0  0  0
   60.7640   29.8800   46.2590 C   0  0  0  0  0  0  0  0  0  0  0  0
   60.6380   30.0550   48.8220 C   0  0  0  0  0  0  0  0  0  0  0  0
   61.3660   31.3610   49.0130 C   0  0  0  0  0  0  0  0  0  0  0  0
   60.7890   32.4130   48.1500 N   0  0  0  0  0  0  0  0  0  0  0  0
   61.6500   32.6950   46.9700 C   0  0  0  0  0  0  0  0  0  0  0  0
   61.7450   34.1930   46.5970 C   0  0  0  0  0  0  0  0  0  0  0  0
   60.4770   34.9250   46.8110 N   0  0  0  0  0  0  0  0  0  0  0  0
   59.6190   35.1100   45.6160 C   0  0  0  0  0  0  0  0  0  0  0  0
   58.7940   33.8870   45.2670 C   0  0  0  0  0  0  0  0  0  0  0  0
   58.6620   33.4810   43.9300 C   0  0  0  0  0  0  0  0  0  0  0  0
   57.9370   32.3310   43.6040 C   0  0  0  0  0  0  0  0  0  0  0  0
   57.3170   31.5690   44.6090 C   0  0  0  0  0  0  0  0  0  0  0  0
   56.6100   30.3120   44.2570 C   0  0  0  0  0  0  0  0  0  0  0  0
   56.2310   30.1130   43.0690 O   0  0  0  0  0  0  0  0  0  0  0  0
   56.3680   29.2900   45.2350 N   0  0  0  0  0  0  0  0  0  0  0  0
   56.7830   27.9200   45.1010 C   0  0  0  0  0  0  0  0  0  0  0  0
   56.2720   26.9650   45.9960 C   0  0  0  0  0  0  0  0  0  0  0  0
   56.7060   25.6370   45.9320 C   0  0  0  0  0  0  0  0  0  0  0  0
   57.6620   25.2590   44.9830 C   0  0  0  0  0  0  0  0  0  0  0  0
   58.2530   23.6090   44.9420 Cl  0  0  0  0  0  0  0  0  0  0  0  0
   58.1690   26.1990   44.0830 C   0  0  0  0  0  0  0  0  0  0  0  0
   57.7360   27.5280   44.1410 C   0  0  0  0  0  0  0  0  0  0  0  0
   57.4080   32.0030   45.9430 C   0  0  0  0  0  0  0  0  0  0  0  0
   58.1370   33.1520   46.2700 C   0  0  0  0  0  0  0  0  0  0  0  0
   59.7560   34.6280   48.0670 C   0  0  0  0  0  0  0  0  0  0  0  0
   60.5030   33.6190   48.9410 C   0  0  0  0  0  0  0  0  0  0  0  0
   59.9331   28.4698   51.7936 H   0  0  0  0  0  0  0  0  0  0  0  0
   61.2529   29.6676   51.5689 H   0  0  0  0  0  0  0  0  0  0  0  0
   59.5398   30.2081   51.5689 H   0  0  0  0  0  0  0  0  0  0  0  0
   59.1069   26.2804   47.4955 H   0  0  0  0  0  0  0  0  0  0  0  0
   58.5948   27.5395   46.3211 H   0  0  0  0  0  0  0  0  0  0  0  0
   60.2909   26.9480   46.3211 H   0  0  0  0  0  0  0  0  0  0  0  0
   61.4868   30.7040   46.3516 H   0  0  0  0  0  0  0  0  0  0  0  0
   61.2270   29.0459   45.7114 H   0  0  0  0  0  0  0  0  0  0  0  0
   59.8767   30.2304   45.7114 H   0  0  0  0  0  0  0  0  0  0  0  0
   61.2815   31.6707   50.0651 H   0  0  0  0  0  0  0  0  0  0  0  0
   62.4221   31.2199   48.7397 H   0  0  0  0  0  0  0  0  0  0  0  0
   62.6642   32.3289   47.1878 H   0  0  0  0  0  0  0  0  0  0  0  0
   61.1873   32.1848   46.1124 H   0  0  0  0  0  0  0  0  0  0  0  0
   62.5269   34.6589   47.2147 H   0  0  0  0  0  0  0  0  0  0  0  0
   61.9801   34.2500   45.5239 H   0  0  0  0  0  0  0  0  0  0  0  0
   58.9338   35.9492   45.8062 H   0  0  0  0  0  0  0  0  0  0  0  0
   60.2883   35.3018   44.7644 H   0  0  0  0  0  0  0  0  0  0  0  0
   59.1332   34.0729   43.1315 H   0  0  0  0  0  0  0  0  0  0  0  0
   57.8511   32.0200   42.5524 H   0  0  0  0  0  0  0  0  0  0  0  0
   55.5281   27.2628   46.7496 H   0  0  0  0  0  0  0  0  0  0  0  0
   56.2959   24.8900   46.6275 H   0  0  0  0  0  0  0  0  0  0  0  0
   58.9090   25.8943   43.3283 H   0  0  0  0  0  0  0  0  0  0  0  0
   58.1407   28.2684   43.4353 H   0  0  0  0  0  0  0  0  0  0  0  0
   56.9017   31.4344   46.7369 H   0  0  0  0  0  0  0  0  0  0  0  0
   58.1965   33.4821   47.3176 H   0  0  0  0  0  0  0  0  0  0  0  0
   59.6321   35.5629   48.6332 H   0  0  0  0  0  0  0  0  0  0  0  0
   58.7839   34.1875   47.8007 H   0  0  0  0  0  0  0  0  0  0  0  0
   61.4471   34.0625   49.2901 H   0  0  0  0  0  0  0  0  0  0  0  0
   59.8835   33.3528   49.8101 H   0  0  0  0  0  0  0  0  0  0  0  0
  1  2  1  0
  2  3  2  0
  3  4  1  0
  4  5  1  0
  4  6  1  0
  6  7  1  0
  6  8  2  0
  8  9  1  0
  9 10  1  0
 10 11  1  0
 11 12  1  0
 12 13  1  0
 13 14  1  0
 14 15  1  0
 15 16  2  0
 16 17  1  0
 17 18  2  0
 18 19  1  0
 19 20  2  0
 19 21  1  0
 21 22  1  0
 22 23  2  0
 23 24  1  0
 24 25  2  0
 25 26  1  0
 25 27  1  0
 27 28  2  0
 18 29  1  0
 29 30  2  0
 13 31  1  0
 31 32  1  0
  8  2  1  0
 32 10  1  0
 30 15  1  0
 28 22  1  0
  1 33  1  0
  1 34  1  0
  1 35  1  0
  5 36  1  0
  5 37  1  0
  5 38  1  0
  7 39  1  0
  7 40  1  0
  7 41  1  0
  9 42  1  0
  9 43  1  0
 11 44  1  0
 11 45  1  0
 12 46  1  0
 12 47  1  0
 14 48  1  0
 14 49  1  0
 16 50  1  0
 17 51  1  0
 23 52  1  0
 24 53  1  0
 27 54  1  0
 28 55  1  0
 29 56  1  0
 30 57  1  0
 31 58  1  0
 31 59  1  0
 32 60  1  0
 32 61  1  0
M  CHG  1  21  -1
M  END
>  <UniqueID>  (2) 
2

>  <SMILES>  (2) 
Cc1nn(C)c(C)c1CN1CCN(Cc2ccc(C(=O)[N-]c3ccc(Cl)cc3)cc2)CC1

>  <Energy>  (2) 
112.87169936874811

>  <Genealogy>  (2) 
Cc1nn(C)c(C)c1CN1CCN(Cc2ccc(C(=O)[N-]c3ccc(Cl)cc3)cc2)CC1 (protonated)
Cc1nn(C)c(C)c1CN1CCN(Cc2ccc(C(=O)[N-]c3ccc(Cl)cc3)cc2)CC1 (3D coordinates assigned)
Cc1nn(C)c(C)c1CN1CCN(Cc2ccc(C(=O)[N-]c3ccc(Cl)cc3)cc2)CC1 (nonaromatic ring conformer: 112.87169936874811 kcal/mol)

>  <smiles>  (2) 
Cc1nn(C)c(C)c1CN1CCN(Cc2ccc(C(=O)Nc3ccc(Cl)cc3)cc2)CC1

>  <score_type>  (2) 
oracle

>  <origin>  (2) 
adg

>  <m_score__min__energy>  (2) 
-11.5

>  <m_primary>  (2) 
energy

$$$$
2:0
     RDKit          3D

 59 61  0  0  0  0  0  0  0  0999 V2000
   57.3690   30.7700   53.7760 C   0  0  0  0  0  0  0  0  0  0  0  0
   56.5450   30.1530   52.6480 C   0  0  0  0  0  0  0  0  0  0  0  0
   55.3710   31.0690   52.2850 C   0  0  0  0  0  0  0  0  0  0  0  0
   57.3940   29.9630   51.5120 O   0  0  0  0  0  0  0  0  0  0  0  0
   58.5400   30.7150   51.2100 C   0  0  0  0  0  0  0  0  0  0  0  0
   59.7400   30.0270   50.9880 C   0  0  0  0  0  0  0  0  0  0  0  0
   60.9120   30.7200   50.6730 C   0  0  0  0  0  0  0  0  0  0  0  0
   60.9000   32.1170   50.5810 C   0  0  0  0  0  0  0  0  0  0  0  0
   62.3760   32.9830   50.1590 S   0  0  0  0  0  0  0  0  0  0  0  0
   62.5320   34.1810   51.0560 O   0  0  0  0  0  0  0  0  0  0  0  0
   63.5460   32.0680   50.3900 O   0  0  0  0  0  0  0  0  0  0  0  0
   62.3540   33.4820   48.4790 N   0  0  0  0  0  0  0  0  0  0  0  0
   60.9600   33.8040   48.0480 C   0  0  0  0  0  0  0  0  0  0  0  0
   60.5570   33.1430   46.7250 C   0  0  0  0  0  0  0  0  0  0  0  0
   60.8780   31.7180   46.7820 N   0  0  0  0  0  0  0  0  0  0  0  0
   59.8530   30.7360   46.5720 C   0  0  0  0  0  0  0  0  0  0  0  0
   59.9100   29.5440   47.3040 C   0  0  0  0  0  0  0  0  0  0  0  0
   58.9370   28.5650   47.1340 C   0  0  0  0  0  0  0  0  0  0  0  0
   57.8970   28.7620   46.2310 C   0  0  0  0  0  0  0  0  0  0  0  0
   57.8110   29.9450   45.4770 C   0  0  0  0  0  0  0  0  0  0  0  0
   56.4480   30.1260   44.3550 S   0  0  0  0  0  0  0  0  0  0  0  0
   55.2050   28.9710   44.6960 N   0  0  0  0  0  0  0  0  0  0  0  0
   55.8690   31.5060   44.4890 O   0  0  0  0  0  0  0  0  0  0  0  0
   56.9140   29.9090   42.9440 O   0  0  0  0  0  0  0  0  0  0  0  0
   58.7950   30.9600   45.6560 C   0  0  0  0  0  0  0  0  0  0  0  0
   58.7810   32.2430   44.8470 C   0  0  0  0  0  0  0  0  0  0  0  0
   58.5020   31.9500   43.4460 N   0  0  0  0  0  0  0  0  0  0  0  0
   62.1960   31.2910   47.2590 C   0  0  0  0  0  0  0  0  0  0  0  0
   63.0640   32.5060   47.6150 C   0  0  0  0  0  0  0  0  0  0  0  0
   59.7030   32.8150   50.7970 C   0  0  0  0  0  0  0  0  0  0  0  0
   58.5300   32.1210   51.1080 C   0  0  0  0  0  0  0  0  0  0  0  0
   56.9536   30.4590   54.7459 H   0  0  0  0  0  0  0  0  0  0  0  0
   58.4118   30.4288   53.6973 H   0  0  0  0  0  0  0  0  0  0  0  0
   57.3351   31.8667   53.6973 H   0  0  0  0  0  0  0  0  0  0  0  0
   56.1362   29.1850   52.9734 H   0  0  0  0  0  0  0  0  0  0  0  0
   54.8965   31.4392   53.2057 H   0  0  0  0  0  0  0  0  0  0  0  0
   55.7395   31.9207   51.6944 H   0  0  0  0  0  0  0  0  0  0  0  0
   54.6345   30.5045   51.6944 H   0  0  0  0  0  0  0  0  0  0  0  0
   59.7599   28.9297   51.0624 H   0  0  0  0  0  0  0  0  0  0  0  0
   61.8462   30.1665   50.4969 H   0  0  0  0  0  0  0  0  0  0  0  0
   62.9100   34.3690   48.4440 H   0  0  0  0  0  0  0  0  0  0  0  0
   60.2668   33.4641   48.8316 H   0  0  0  0  0  0  0  0  0  0  0  0
   60.9147   34.8918   47.8913 H   0  0  0  0  0  0  0  0  0  0  0  0
   59.4763   33.2705   46.5643 H   0  0  0  0  0  0  0  0  0  0  0  0
   61.1058   33.6124   45.8952 H   0  0  0  0  0  0  0  0  0  0  0  0
   60.7301   29.3806   48.0186 H   0  0  0  0  0  0  0  0  0  0  0  0
   58.9898   27.6324   47.7150 H   0  0  0  0  0  0  0  0  0  0  0  0
   57.1320   27.9816   46.1055 H   0  0  0  0  0  0  0  0  0  0  0  0
   54.6080   29.3740   45.4520 H   0  0  0  0  0  0  0  0  0  0  0  0
   58.0021   32.9126   45.2406 H   0  0  0  0  0  0  0  0  0  0  0  0
   59.7656   32.7275   44.9240 H   0  0  0  0  0  0  0  0  0  0  0  0
   58.7910   30.9650   43.2490 H   0  0  0  0  0  0  0  0  0  0  0  0
   57.4660   31.9920   43.3090 H   0  0  0  0  0  0  0  0  0  0  0  0
   62.0703   30.6626   48.1531 H   0  0  0  0  0  0  0  0  0  0  0  0
   62.6942   30.7224   46.4599 H   0  0  0  0  0  0  0  0  0  0  0  0
   63.9617   32.1544   48.1447 H   0  0  0  0  0  0  0  0  0  0  0  0
   63.3211   33.0180   46.6760 H   0  0  0  0  0  0  0  0  0  0  0  0
   59.6870   33.9123   50.7215 H   0  0  0  0  0  0  0  0  0  0  0  0
   57.5943   32.6749   51.2740 H   0  0  0  0  0  0  0  0  0  0  0  0
  1  2  1  0
  2  3  1  0
  2  4  1  0
  4  5  1  0
  5  6  2  0
  6  7  1  0
  7  8  2  0
  8  9  1  0
  9 10  2  0
  9 11  2  0
  9 12  1  0
 12 13  1  0
 13 14  1  0
 14 15  1  0
 15 16  1  0
 16 17  2  0
 17 18  1  0
 18 19  2  0
 19 20  1  0
 20 21  1  0
 21 22  1  0
 21 23  2  0
 21 24  2  0
 20 25  2  0
 25 26  1  0
 26 27  1  0
 15 28  1  0
 28 29  1  0
  8 30  1  0
 30 31  2  0
 31  5  1  0
 29 12  1  0
 25 16  1  0
  1 32  1  0
  1 33  1  0
  1 34  1  0
  2 35  1  0
  3 36  1  0
  3 37  1  0
  3 38  1  0
  6 39  1  0
  7 40  1  0
 12 41  1  0
 13 42  1  0
 13 43  1  0
 14 44  1  0
 14 45  1  0
 17 46  1  0
 18 47  1  0
 19 48  1  0
 22 49  1  0
 26 50  1  0
 26 51  1  0
 27 52  1  0
 27 53  1  0
 28 54  1  0
 28 55  1  0
 29 56  1  0
 29 57  1  0
 30 58  1  0
 31 59  1  0
M  CHG  2  12   1  22  -1
M  END
>  <UniqueID>  (3) 
3

>  <SMILES>  (3) 
CC(C)Oc1ccc(S(=O)(=O)[NH+]2CCN(c3cccc(S([NH-])(=O)=O)c3CN)CC2)cc1

>  <Energy>  (3) 
69.96560799134004

>  <Genealogy>  (3) 
CC(C)Oc1ccc(S(=O)(=O)[NH+]2CCN(c3cccc(S([NH-])(=O)=O)c3CN)CC2)cc1 (protonated)
CC(C)Oc1ccc(S(=O)(=O)[NH+]2CCN(c3cccc(S([NH-])(=O)=O)c3CN)CC2)cc1 (3D coordinates assigned)
CC(C)Oc1ccc(S(=O)(=O)[NH+]2CCN(c3cccc(S([NH-])(=O)=O)c3CN)CC2)cc1 (nonaromatic ring conformer: 69.96560799134004 kcal/mol)

>  <smiles>  (3) 
CC(C)Oc1ccc(S(=O)(=O)N2CCN(c3cccc(S(N)(=O)=O)c3CN)CC2)cc1

>  <score_type>  (3) 
oracle

>  <origin>  (3) 
adg

>  <m_score__min__energy>  (3) 
-9.5500000000000007

>  <m_primary>  (3) 
energy

$$$$
3:0
     RDKit          3D

 40 41  0  0  0  0  0  0  0  0999 V2000
   62.9830   33.8460   46.2280 C   0  0  0  0  0  0  0  0  0  0  0  0
   62.9920   33.5420   47.5260 C   0  0  0  0  0  0  0  0  0  0  0  0
   64.1690   33.1010   48.1990 N   0  0  0  0  0  0  0  0  0  0  0  0
   63.8650   33.2230   49.5910 C   0  0  0  0  0  0  0  0  0  0  0  0
   64.6960   32.9440   50.5480 N   0  0  0  0  0  0  0  0  0  0  0  0
   66.0780   32.8160   50.3440 C   0  0  0  0  0  0  0  0  0  0  0  0
   67.2180   32.7130   50.1750 N   0  0  0  0  0  0  0  0  0  0  0  0
   62.5440   33.6930   49.8350 N   0  0  0  0  0  0  0  0  0  0  0  0
   61.9660   33.8420   48.5440 C   0  0  0  0  0  0  0  0  0  0  0  0
   60.7030   34.1210   48.3820 N   0  0  0  0  0  0  0  0  0  0  0  0
   59.8050   33.5410   47.4310 C   0  0  0  0  0  0  0  0  0  0  0  0
   59.5730   32.1620   47.4560 C   0  0  0  0  0  0  0  0  0  0  0  0
   58.7440   31.5670   46.5000 C   0  0  0  0  0  0  0  0  0  0  0  0
   58.1680   32.3430   45.4820 C   0  0  0  0  0  0  0  0  0  0  0  0
   57.2830   31.7300   44.4740 C   0  0  0  0  0  0  0  0  0  0  0  0
   57.4480   32.0180   43.2600 O   0  0  0  0  0  0  0  0  0  0  0  0
   56.2470   30.8010   44.8280 N   0  0  0  0  0  0  0  0  0  0  0  0
   56.3530   29.3440   44.7870 C   0  0  0  0  0  0  0  0  0  0  0  0
   57.3940   28.8770   43.7570 C   0  0  0  0  0  0  0  0  0  0  0  0
   58.4790   27.9560   44.3400 C   0  0  0  0  0  0  0  0  0  0  0  0
   59.7170   28.7210   44.8060 C   0  0  0  0  0  0  0  0  0  0  0  0
   58.4120   33.7240   45.4480 C   0  0  0  0  0  0  0  0  0  0  0  0
   59.2420   34.3170   46.4040 C   0  0  0  0  0  0  0  0  0  0  0  0
   62.0520   34.1826   45.7484 H   0  0  0  0  0  0  0  0  0  0  0  0
   63.9065   33.7603   45.6366 H   0  0  0  0  0  0  0  0  0  0  0  0
   65.0930   32.8760   47.7660 H   0  0  0  0  0  0  0  0  0  0  0  0
   62.0710   33.8010   50.7600 H   0  0  0  0  0  0  0  0  0  0  0  0
   60.0454   31.5420   48.2321 H   0  0  0  0  0  0  0  0  0  0  0  0
   58.5424   30.4866   46.5459 H   0  0  0  0  0  0  0  0  0  0  0  0
   56.6485   28.9802   45.7822 H   0  0  0  0  0  0  0  0  0  0  0  0
   55.3741   28.9378   44.4926 H   0  0  0  0  0  0  0  0  0  0  0  0
   56.8701   28.3321   42.9579 H   0  0  0  0  0  0  0  0  0  0  0  0
   57.9052   29.7787   43.3888 H   0  0  0  0  0  0  0  0  0  0  0  0
   58.0561   27.4148   45.1992 H   0  0  0  0  0  0  0  0  0  0  0  0
   58.7952   27.2694   43.5409 H   0  0  0  0  0  0  0  0  0  0  0  0
   59.7450   28.7383   45.9055 H   0  0  0  0  0  0  0  0  0  0  0  0
   60.6207   28.2237   44.4240 H   0  0  0  0  0  0  0  0  0  0  0  0
   59.6765   29.7517   44.4240 H   0  0  0  0  0  0  0  0  0  0  0  0
   57.9483   34.3430   44.6658 H   0  0  0  0  0  0  0  0  0  0  0  0
   59.4550   35.3949   46.3519 H   0  0  0  0  0  0  0  0  0  0  0  0
  1  2  2  0
  2  3  1  0
  3  4  1  0
  4  5  2  3
  5  6  1  0
  6  7  3  0
  4  8  1  0
  8  9  1  0
  9 10  2  3
 10 11  1  0
 11 12  2  0
 12 13  1  0
 13 14  2  0
 14 15  1  0
 15 16  2  0
 15 17  1  0
 17 18  1  0
 18 19  1  0
 19 20  1  0
 20 21  1  0
 14 22  1  0
 22 23  2  0
  9  2  1  0
 23 11  1  0
  1 24  1  0
  1 25  1  0
  3 26  1  0
  8 27  1  0
 12 28  1  0
 13 29  1  0
 18 30  1  0
 18 31  1  0
 19 32  1  0
 19 33  1  0
 20 34  1  0
 20 35  1  0
 21 36  1  0
 21 37  1  0
 21 38  1  0
 22 39  1  0
 23 40  1  0
M  CHG  1  17  -1
M  END
>  <UniqueID>  (4) 
4

>  <SMILES>  (4) 
C=C1NC(=NC#N)NC1=Nc1ccc(C(=O)[N-]CCCC)cc1

>  <Energy>  (4) 
75.61036181616836

>  <Genealogy>  (4) 
C=C1NC(=NC#N)NC1=Nc1ccc(C(=O)[N-]CCCC)cc1 (protonated)
C=C1NC(=NC#N)NC1=Nc1ccc(C(=O)[N-]CCCC)cc1 (3D coordinates assigned)
C=C1NC(=NC#N)NC1=Nc1ccc(C(=O)[N-]CCCC)cc1 (nonaromatic ring conformer: 75.61036181616836 kcal/mol)

>  <smiles>  (4) 
C=C1NC(=NC#N)NC1=Nc1ccc(C(=O)NCCCC)cc1

>  <score_type>  (4) 
oracle

>  <origin>  (4) 
adg

>  <m_score__min__energy>  (4) 
-8.6799999999999997

>  <m_primary>  (4) 
energy

$$$$
4:0
     RDKit          3D

 41 43  0  0  0  0  0  0  0  0999 V2000
   60.5119   28.3929   44.5552 H   0  0  0  0  0  0  0  0  0  0  0  0
   59.4390   28.4890   44.7780 C   0  0  0  0  0  0  0  0  0  0  0  0
   58.8480   29.7110   44.7570 N   0  0  0  0  0  0  0  0  0  0  0  0
   57.5290   29.8570   45.0450 C   0  0  0  0  0  0  0  0  0  0  0  0
   56.9960   31.0420   45.0000 N   0  0  0  0  0  0  0  0  0  0  0  0
   57.6200   32.2500   45.4610 C   0  0  0  0  0  0  0  0  0  0  0  0
   57.8250   33.2990   44.5590 C   0  0  0  0  0  0  0  0  0  0  0  0
   57.4592   33.2124   43.5252 H   0  0  0  0  0  0  0  0  0  0  0  0
   58.4920   34.4550   44.9660 C   0  0  0  0  0  0  0  0  0  0  0  0
   58.6310   35.2859   44.2587 H   0  0  0  0  0  0  0  0  0  0  0  0
   58.9840   34.5600   46.2700 C   0  0  0  0  0  0  0  0  0  0  0  0
   59.5189   35.4697   46.5803 H   0  0  0  0  0  0  0  0  0  0  0  0
   58.8000   33.5110   47.1880 C   0  0  0  0  0  0  0  0  0  0  0  0
   59.4150   33.5880   48.5740 C   0  0  0  0  0  0  0  0  0  0  0  0
   59.3232   34.6231   48.9348 H   0  0  0  0  0  0  0  0  0  0  0  0
   58.8701   32.8672   49.2013 H   0  0  0  0  0  0  0  0  0  0  0  0
   60.8430   33.2030   48.6280 N   0  0  0  0  0  0  0  0  0  0  0  0
   61.3870   32.6340   47.3740 C   0  0  0  0  0  0  0  0  0  0  0  0
   61.8680   31.6703   47.5974 H   0  0  0  0  0  0  0  0  0  0  0  0
   60.5563   32.5007   46.6654 H   0  0  0  0  0  0  0  0  0  0  0  0
   62.4230   33.5740   46.7340 C   0  0  0  0  0  0  0  0  0  0  0  0
   62.8098   33.0964   45.8217 H   0  0  0  0  0  0  0  0  0  0  0  0
   61.9107   34.5241   46.5223 H   0  0  0  0  0  0  0  0  0  0  0  0
   63.5220   33.8720   47.5870 O   0  0  0  0  0  0  0  0  0  0  0  0
   63.1870   33.9000   48.9710 C   0  0  0  0  0  0  0  0  0  0  0  0
   63.4114   32.9131   49.4020 H   0  0  0  0  0  0  0  0  0  0  0  0
   63.7818   34.7046   49.4280 H   0  0  0  0  0  0  0  0  0  0  0  0
   61.7110   34.2240   49.2460 C   0  0  0  0  0  0  0  0  0  0  0  0
   61.5383   34.2390   50.3322 H   0  0  0  0  0  0  0  0  0  0  0  0
   61.4724   35.2075   48.8150 H   0  0  0  0  0  0  0  0  0  0  0  0
   58.1260   32.3500   46.7690 C   0  0  0  0  0  0  0  0  0  0  0  0
   57.9936   31.5131   47.4705 H   0  0  0  0  0  0  0  0  0  0  0  0
   56.7770   28.7570   45.3320 N   0  0  0  0  0  0  0  0  0  0  0  0
   57.3200   27.5100   45.3520 C   0  0  0  0  0  0  0  0  0  0  0  0
   56.4610   26.3410   45.6260 C   0  0  0  0  0  0  0  0  0  0  0  0
   56.8690   25.1790   45.3560 O   0  0  0  0  0  0  0  0  0  0  0  0
   55.1560   26.5090   46.1810 N   0  0  0  0  0  0  0  0  0  0  0  0
   54.7630   27.4580   46.3650 H   0  0  0  0  0  0  0  0  0  0  0  0
   54.5560   25.6750   46.3710 H   0  0  0  0  0  0  0  0  0  0  0  0
   58.6860   27.3560   45.0820 C   0  0  0  0  0  0  0  0  0  0  0  0
   59.1548   26.3613   45.1093 H   0  0  0  0  0  0  0  0  0  0  0  0
  1  2  1  0
  2  3  1  0
  3  4  1  0
  4  5  2  0
  5  6  1  0
  6  7  2  0
  7  8  1  0
  7  9  1  0
  9 10  1  0
  9 11  2  0
 11 12  1  0
 11 13  1  0
 13 14  1  0
 14 15  1  0
 14 16  1  0
 14 17  1  0
 17 18  1  0
 18 19  1  0
 18 20  1  0
 18 21  1  0
 21 22  1  0
 21 23  1  0
 21 24  1  0
 24 25  1  0
 25 26  1  0
 25 27  1  0
 25 28  1  0
 28 29  1  0
 28 30  1  0
 13 31  2  0
 31 32  1  0
  4 33  1  0
 33 34  2  0
 34 35  1  0
 35 36  2  0
 35 37  1  0
 37 38  1  0
 37 39  1  0
 34 40  1  0
 40 41  1  0
 40  2  2  0
 31  6  1  0
 28 17  1  0
M  CHG  1   3  -1
M  END
>  <UniqueID>  (5) 
5

>  <SMILES>  (5) 
NC(=O)c1cc[n-]/c(=N/c2cccc(CN3CCOCC3)c2)n1

>  <Energy>  (5) 
64.03711785548774

>  <Genealogy>  (5) 
NC(=O)c1cc[n-]c(=Nc2cccc(CN3CCOCC3)c2)n1 (protonated)
NC(=O)c1cc[n-]/c(=N/c2cccc(CN3CCOCC3)c2)n1 (cis-trans isomerization)
NC(=O)c1cc[n-]/c(=N/c2cccc(CN3CCOCC3)c2)n1 (3D coordinates assigned)
NC(=O)c1cc[n-]/c(=N/c2cccc(CN3CCOCC3)c2)n1 (nonaromatic ring conformer: 64.03711785548774 kcal/mol)

>  <smiles>  (5) 
NC(=O)c1cc[nH]c(=Nc2cccc(CN3CCOCC3)c2)n1

>  <score_type>  (5) 
oracle

>  <origin>  (5) 
adg

>  <m_score__min__energy>  (5) 
-10.029999999999999

>  <m_primary>  (5) 
energy

$$$$
5:0
     RDKit          3D

 67 71  0  0  0  0  0  0  0  0999 V2000
   62.3560   33.7890   52.7290 C   0  0  0  0  0  0  0  0  0  0  0  0
   62.0830   32.4920   52.0120 C   0  0  0  0  0  0  0  0  0  0  0  0
   61.1110   31.6280   52.5460 C   0  0  0  0  0  0  0  0  0  0  0  0
   60.8180   30.4120   51.9280 C   0  0  0  0  0  0  0  0  0  0  0  0
   61.4860   30.0280   50.7570 C   0  0  0  0  0  0  0  0  0  0  0  0
   61.1680   28.7330   50.1130 C   0  0  0  0  0  0  0  0  0  0  0  0
   60.9360   28.5790   48.7920 N   0  0  0  0  0  0  0  0  0  0  0  0
   60.6840   27.2860   48.6560 N   0  0  0  0  0  0  0  0  0  0  0  0
   60.4040   26.6310   47.3860 C   0  0  0  0  0  0  0  0  0  0  0  0
   59.5080   27.4980   46.5460 C   0  0  0  0  0  0  0  0  0  0  0  0
   58.5940   28.3720   47.1540 C   0  0  0  0  0  0  0  0  0  0  0  0
   57.7610   29.1770   46.3700 C   0  0  0  0  0  0  0  0  0  0  0  0
   57.8370   29.1240   44.9700 C   0  0  0  0  0  0  0  0  0  0  0  0
   56.9480   29.9540   44.1340 C   0  0  0  0  0  0  0  0  0  0  0  0
   56.4190   29.4460   43.1100 O   0  0  0  0  0  0  0  0  0  0  0  0
   56.6270   31.3070   44.4800 N   0  0  0  0  0  0  0  0  0  0  0  0
   57.4360   32.4660   44.1150 C   0  0  0  0  0  0  0  0  0  0  0  0
   58.5170   32.7160   45.1730 C   0  0  1  0  0  0  0  0  0  0  0  0
   58.9660   34.1800   45.2180 C   0  0  0  0  0  0  0  0  0  0  0  0
   58.9690   34.5000   46.6810 C   0  0  0  0  0  0  0  0  0  0  0  0
   57.9860   33.4990   47.2410 C   0  0  0  0  0  0  0  0  0  0  0  0
   58.0240   32.3410   46.4420 O   0  0  0  0  0  0  0  0  0  0  0  0
   58.7800   28.2820   44.3630 C   0  0  0  0  0  0  0  0  0  0  0  0
   59.6090   27.4710   45.1460 C   0  0  0  0  0  0  0  0  0  0  0  0
   60.7690   26.6540   49.8160 N   0  0  0  0  0  0  0  0  0  0  0  0
   61.0670   27.5440   50.7440 N   0  0  0  0  0  0  0  0  0  0  0  0
   62.4680   30.8800   50.2250 C   0  0  0  0  0  0  0  0  0  0  0  0
   62.7860   32.1000   50.8430 C   0  0  0  0  0  0  0  0  0  0  0  0
   64.0550   33.0760   50.0700 S   0  0  0  0  0  0  0  0  0  0  0  0
   64.9500   32.1380   49.3080 O   0  0  0  0  0  0  0  0  0  0  0  0
   64.9020   33.8010   51.0790 O   0  0  0  0  0  0  0  0  0  0  0  0
   63.3100   34.2050   48.9550 N   0  0  0  0  0  0  0  0  0  0  0  0
   63.7400   33.9850   47.5580 C   0  0  0  0  0  0  0  0  0  0  0  0
   62.7350   33.1430   46.7490 C   0  0  0  0  0  0  0  0  0  0  0  0
   62.0430   32.2500   47.5930 O   0  0  0  0  0  0  0  0  0  0  0  0
   61.1830   32.9670   48.4620 C   0  0  0  0  0  0  0  0  0  0  0  0
   61.8430   34.2170   49.0930 C   0  0  0  0  0  0  0  0  0  0  0  0
   62.3208   33.6217   53.8156 H   0  0  0  0  0  0  0  0  0  0  0  0
   63.3521   34.1610   52.4474 H   0  0  0  0  0  0  0  0  0  0  0  0
   61.5944   34.5310   52.4474 H   0  0  0  0  0  0  0  0  0  0  0  0
   60.5747   31.9144   53.4627 H   0  0  0  0  0  0  0  0  0  0  0  0
   60.0561   29.7488   52.3635 H   0  0  0  0  0  0  0  0  0  0  0  0
   61.3487   26.4567   46.8501 H   0  0  0  0  0  0  0  0  0  0  0  0
   59.9011   25.6717   47.5780 H   0  0  0  0  0  0  0  0  0  0  0  0
   58.5323   28.4243   48.2510 H   0  0  0  0  0  0  0  0  0  0  0  0
   57.0425   29.8552   46.8536 H   0  0  0  0  0  0  0  0  0  0  0  0
   57.9160   32.2816   43.1426 H   0  0  0  0  0  0  0  0  0  0  0  0
   56.7853   33.3508   44.0528 H   0  0  0  0  0  0  0  0  0  0  0  0
   59.3929   32.1095   44.8992 H   0  0  0  0  0  0  0  0  0  0  0  0
   59.9718   34.2962   44.7881 H   0  0  0  0  0  0  0  0  0  0  0  0
   58.3133   34.8464   44.6350 H   0  0  0  0  0  0  0  0  0  0  0  0
   59.9696   34.3595   47.1159 H   0  0  0  0  0  0  0  0  0  0  0  0
   58.7018   35.5443   46.9003 H   0  0  0  0  0  0  0  0  0  0  0  0
   58.2628   33.2456   48.2750 H   0  0  0  0  0  0  0  0  0  0  0  0
   56.9719   33.9251   47.2393 H   0  0  0  0  0  0  0  0  0  0  0  0
   58.8684   28.2590   43.2668 H   0  0  0  0  0  0  0  0  0  0  0  0
   60.3429   26.8095   44.6625 H   0  0  0  0  0  0  0  0  0  0  0  0
   61.2090   27.3210   51.7530 H   0  0  0  0  0  0  0  0  0  0  0  0
   62.9978   30.5859   49.3070 H   0  0  0  0  0  0  0  0  0  0  0  0
   63.8542   34.9629   47.0674 H   0  0  0  0  0  0  0  0  0  0  0  0
   64.6890   33.4296   47.5874 H   0  0  0  0  0  0  0  0  0  0  0  0
   62.0119   33.8132   46.2612 H   0  0  0  0  0  0  0  0  0  0  0  0
   63.2854   32.5628   45.9938 H   0  0  0  0  0  0  0  0  0  0  0  0
   60.3011   33.2907   47.8897 H   0  0  0  0  0  0  0  0  0  0  0  0
   60.9198   32.2893   49.2875 H   0  0  0  0  0  0  0  0  0  0  0  0
   61.4482   35.1148   48.5950 H   0  0  0  0  0  0  0  0  0  0  0  0
   61.6062   34.2164   50.1672 H   0  0  0  0  0  0  0  0  0  0  0  0
  1  2  1  0
  2  3  2  0
  3  4  1  0
  4  5  2  0
  5  6  1  0
  6  7  2  0
  7  8  1  0
  8  9  1  0
  9 10  1  0
 10 11  2  0
 11 12  1  0
 12 13  2  0
 13 14  1  0
 14 15  2  0
 14 16  1  0
 16 17  1  0
 17 18  1  0
 18 19  1  0
 19 20  1  0
 20 21  1  0
 21 22  1  0
 13 23  1  0
 23 24  2  0
  8 25  1  0
 25 26  2  0
  5 27  1  0
 27 28  2  0
 28 29  1  0
 29 30  2  0
 29 31  2  0
 29 32  1  0
 32 33  1  0
 33 34  1  0
 34 35  1  0
 35 36  1  0
 36 37  1  0
 28  2  1  0
 37 32  1  0
 26  6  1  0
 24 10  1  0
 22 18  1  0
  1 38  1  0
  1 39  1  0
  1 40  1  0
  3 41  1  0
  4 42  1  0
  9 43  1  0
  9 44  1  0
 11 45  1  0
 12 46  1  0
 17 47  1  0
 17 48  1  0
 18 49  1  6
 19 50  1  0
 19 51  1  0
 20 52  1  0
 20 53  1  0
 21 54  1  0
 21 55  1  0
 23 56  1  0
 24 57  1  0
 26 58  1  0
 27 59  1  0
 33 60  1  0
 33 61  1  0
 34 62  1  0
 34 63  1  0
 36 64  1  0
 36 65  1  0
 37 66  1  0
 37 67  1  0
M  CHG  2  16  -1  26   1
M  END
>  <UniqueID>  (6) 
6

>  <SMILES>  (6) 
Cc1ccc(-c2nn(Cc3ccc(C(=O)[N-]C[C@H]4CCCO4)cc3)n[nH+]2)cc1S(=O)(=O)N1CCOCC1

>  <Energy>  (6) 
126.39879108462576

>  <Genealogy>  (6) 
Cc1ccc(-c2nn(Cc3ccc(C(=O)[N-]CC4CCCO4)cc3)n[nH+]2)cc1S(=O)(=O)N1CCOCC1 (protonated)
Cc1ccc(-c2nn(Cc3ccc(C(=O)[N-]C[C@H]4CCCO4)cc3)n[nH+]2)cc1S(=O)(=O)N1CCOCC1 (chirality)
Cc1ccc(-c2nn(Cc3ccc(C(=O)[N-]C[C@H]4CCCO4)cc3)n[nH+]2)cc1S(=O)(=O)N1CCOCC1 (3D coordinates assigned)
Cc1ccc(-c2nn(Cc3ccc(C(=O)[N-]C[C@H]4CCCO4)cc3)n[nH+]2)cc1S(=O)(=O)N1CCOCC1 (nonaromatic ring conformer: 126.39879108462576 kcal/mol)

>  <smiles>  (6) 
Cc1ccc(-c2nnn(Cc3ccc(C(=O)NCC4CCCO4)cc3)n2)cc1S(=O)(=O)N1CCOCC1

>  <score_type>  (6) 
oracle

>  <origin>  (6) 
adg

>  <m_score__min__energy>  (6) 
-10.59

>  <m_primary>  (6) 
energy

$$$$
6:0
     RDKit          3D

 31 33  0  0  0  0  0  0  0  0999 V2000
   57.9060   27.4990   47.2900 C   0  0  0  0  0  0  0  0  0  0  0  0
   57.5160   26.6070   46.3760 C   0  0  0  0  0  0  0  0  0  0  0  0
   57.1340   25.3590   46.7240 N   0  0  0  0  0  0  0  0  0  0  0  0
   56.9220   24.6660   45.6160 N   0  0  0  0  0  0  0  0  0  0  0  0
   56.5390   23.2810   45.6180 C   0  0  0  0  0  0  0  0  0  0  0  0
   57.0650   22.4970   44.7830 O   0  0  0  0  0  0  0  0  0  0  0  0
   55.5570   22.7450   46.5870 C   0  0  0  0  0  0  0  0  0  0  0  0
   55.9660   22.3860   47.8870 C   0  0  0  0  0  0  0  0  0  0  0  0
   57.2990   22.5030   48.2690 O   0  0  0  0  0  0  0  0  0  0  0  0
   55.0340   21.8900   48.8050 C   0  0  0  0  0  0  0  0  0  0  0  0
   53.6930   21.7520   48.4420 C   0  0  0  0  0  0  0  0  0  0  0  0
   53.2760   22.1180   47.1610 C   0  0  0  0  0  0  0  0  0  0  0  0
   54.1970   22.6210   46.2360 C   0  0  0  0  0  0  0  0  0  0  0  0
   53.7490   23.0110   44.9790 O   0  0  0  0  0  0  0  0  0  0  0  0
   57.1870   25.4510   44.5520 C   0  0  0  0  0  0  0  0  0  0  0  0
   57.1280   25.0680   43.3520 O   0  0  0  0  0  0  0  0  0  0  0  0
   57.5400   26.7190   44.9770 C   0  0  0  0  0  0  0  0  0  0  0  0
   57.8300   27.7530   44.1630 C   0  0  0  0  0  0  0  0  0  0  0  0
   57.5460   29.1650   44.4480 C   0  0  0  0  0  0  0  0  0  0  0  0
   58.6490   30.4200   44.2490 S   0  0  0  0  0  0  0  0  0  0  0  0
   57.4970   31.5970   44.5880 C   0  0  0  0  0  0  0  0  0  0  0  0
   57.7330   32.8320   44.6130 O   0  0  0  0  0  0  0  0  0  0  0  0
   56.2740   31.0770   44.8200 N   0  0  0  0  0  0  0  0  0  0  0  0
   56.2960   29.7220   44.7250 C   0  0  0  0  0  0  0  0  0  0  0  0
   55.1430   28.9620   44.8750 O   0  0  0  0  0  0  0  0  0  0  0  0
   58.2119   28.5085   46.9779 H   0  0  0  0  0  0  0  0  0  0  0  0
   57.9214   27.2243   48.3550 H   0  0  0  0  0  0  0  0  0  0  0  0
   55.3592   21.6075   49.8172 H   0  0  0  0  0  0  0  0  0  0  0  0
   52.9653   21.3550   49.1651 H   0  0  0  0  0  0  0  0  0  0  0  0
   52.2186   22.0104   46.8777 H   0  0  0  0  0  0  0  0  0  0  0  0
   58.3199   27.5200   43.2061 H   0  0  0  0  0  0  0  0  0  0  0  0
  1  2  2  0
  2  3  1  0
  3  4  1  0
  4  5  1  0
  5  6  2  0
  5  7  1  0
  7  8  2  0
  8  9  1  0
  8 10  1  0
 10 11  2  0
 11 12  1  0
 12 13  2  0
 13 14  1  0
  4 15  1  0
 15 16  2  0
 15 17  1  0
 17 18  2  3
 18 19  1  0
 19 20  1  0
 20 21  1  0
 21 22  2  0
 21 23  1  0
 23 24  1  0
 24 25  1  0
 17  2  1  0
 24 19  2  0
 13  7  1  0
  1 26  1  0
  1 27  1  0
 10 28  1  0
 11 29  1  0
 12 30  1  0
 18 31  1  0
M  CHG  5   3  -1   9  -1  14  -1  23  -1  25  -1
M  END
>  <UniqueID>  (7) 
7

>  <SMILES>  (7) 
C=c1[n-]n(C(=O)c2c([O-])cccc2[O-])c(=O)c1=Cc1sc(=O)[n-]c1[O-]

>  <Energy>  (7) 
118.14299678441378

>  <Genealogy>  (7) 
C=c1[n-]n(C(=O)c2c([O-])cccc2[O-])c(=O)c1=Cc1sc(=O)[n-]c1[O-] (protonated)
C=c1[n-]n(C(=O)c2c([O-])cccc2[O-])c(=O)c1=Cc1sc(=O)[n-]c1[O-] (3D coordinates assigned)
C=c1[n-]n(C(=O)c2c([O-])cccc2[O-])c(=O)c1=Cc1sc(=O)[n-]c1[O-] (optimized conformer: 118.14299678441378 kcal/mol)

>  <smiles>  (7) 
C=c1[nH]n(C(=O)c2c(O)cccc2O)c(=O)c1=Cc1sc(=O)[nH]c1O

>  <score_type>  (7) 
oracle

>  <origin>  (7) 
adg

>  <m_score__min__energy>  (7) 
-16.93

>  <m_primary>  (7) 
energy

$$$$
7:0
     RDKit          3D

 31 32  0  0  0  0  0  0  0  0999 V2000
   58.1220   26.7850   44.2330 C   0  0  0  0  0  0  0  0  0  0  0  0
   57.9180   27.5860   45.2780 C   0  0  0  0  0  0  0  0  0  0  0  0
   57.8150   29.0600   45.1550 C   0  0  0  0  0  0  0  0  0  0  0  0
   56.5910   29.7140   44.9120 C   0  0  0  0  0  0  0  0  0  0  0  0
   55.3990   28.9980   44.8320 O   0  0  0  0  0  0  0  0  0  0  0  0
   56.5630   31.0660   44.7710 N   0  0  0  0  0  0  0  0  0  0  0  0
   57.6950   31.8060   44.8720 C   0  0  0  0  0  0  0  0  0  0  0  0
   57.6420   33.5740   44.5890 S   0  0  0  0  0  0  0  0  0  0  0  0
   58.1480   34.0290   46.2880 C   0  0  0  0  0  0  0  0  0  0  0  0
   59.5140   34.6630   46.3040 C   0  0  0  0  0  0  0  0  0  0  0  0
   59.6600   35.7700   45.7200 O   0  0  0  0  0  0  0  0  0  0  0  0
   60.6620   34.0850   47.0560 C   0  0  0  0  0  0  0  0  0  0  0  0
   61.8730   33.8340   46.3840 C   0  0  0  0  0  0  0  0  0  0  0  0
   62.9900   33.3630   47.0810 C   0  0  0  0  0  0  0  0  0  0  0  0
   62.9100   33.1230   48.4540 C   0  0  0  0  0  0  0  0  0  0  0  0
   64.3190   32.5570   49.3320 Cl  0  0  0  0  0  0  0  0  0  0  0  0
   61.7060   33.3380   49.1290 C   0  0  0  0  0  0  0  0  0  0  0  0
   60.5870   33.8100   48.4370 C   0  0  0  0  0  0  0  0  0  0  0  0
   58.8780   31.2030   45.1510 N   0  0  0  0  0  0  0  0  0  0  0  0
   58.9630   29.8580   45.3030 C   0  0  0  0  0  0  0  0  0  0  0  0
   60.0820   29.3360   45.5530 O   0  0  0  0  0  0  0  0  0  0  0  0
   58.1907   25.6969   44.3792 H   0  0  0  0  0  0  0  0  0  0  0  0
   58.2218   27.2118   43.2241 H   0  0  0  0  0  0  0  0  0  0  0  0
   57.8217   27.1338   46.2761 H   0  0  0  0  0  0  0  0  0  0  0  0
   54.7570   28.9690   45.6140 H   0  0  0  0  0  0  0  0  0  0  0  0
   57.4181   34.7414   46.7000 H   0  0  0  0  0  0  0  0  0  0  0  0
   58.1849   33.1124   46.8951 H   0  0  0  0  0  0  0  0  0  0  0  0
   61.9414   34.0100   45.3003 H   0  0  0  0  0  0  0  0  0  0  0  0
   63.9339   33.1812   46.5463 H   0  0  0  0  0  0  0  0  0  0  0  0
   61.6384   33.1353   50.2080 H   0  0  0  0  0  0  0  0  0  0  0  0
   59.6402   33.9682   48.9741 H   0  0  0  0  0  0  0  0  0  0  0  0
  1  2  2  0
  2  3  1  0
  3  4  2  0
  4  5  1  0
  4  6  1  0
  6  7  1  0
  7  8  1  0
  8  9  1  0
  9 10  1  0
 10 11  2  0
 10 12  1  0
 12 13  2  0
 13 14  1  0
 14 15  2  0
 15 16  1  0
 15 17  1  0
 17 18  2  0
  7 19  2  0
 19 20  1  0
 20 21  2  0
 20  3  1  0
 18 12  1  0
  1 22  1  0
  1 23  1  0
  2 24  1  0
  5 25  1  0
  9 26  1  0
  9 27  1  0
 13 28  1  0
 14 29  1  0
 17 30  1  0
 18 31  1  0
M  CHG  1   6  -1
M  END
>  <UniqueID>  (8) 
8

>  <SMILES>  (8) 
C=Cc1c(O)[n-]c(SCC(=O)c2ccc(Cl)cc2)nc1=O

>  <Energy>  (8) 
32.02914594035278

>  <Genealogy>  (8) 
C=Cc1c(O)[n-]c(SCC(=O)c2ccc(Cl)cc2)nc1=O (protonated)
C=Cc1c(O)[n-]c(SCC(=O)c2ccc(Cl)cc2)nc1=O (3D coordinates assigned)
C=Cc1c(O)[n-]c(SCC(=O)c2ccc(Cl)cc2)nc1=O (optimized conformer: 32.02914594035278 kcal/mol)

>  <smiles>  (8) 
C=Cc1c(O)[nH]c(SCC(=O)c2ccc(Cl)cc2)nc1=O

>  <score_type>  (8) 
oracle

>  <origin>  (8) 
adg

>  <m_score__min__energy>  (8) 
-10.699999999999999

>  <m_primary>  (8) 
energy

$$$$
8:0
     RDKit          3D

 39 41  0  0  0  0  0  0  0  0999 V2000
   54.3330   26.7620   45.9770 H   0  0  0  0  0  0  0  0  0  0  0  0
   55.2450   26.4190   46.2580 O   0  0  0  0  0  0  0  0  0  0  0  0
   56.4140   27.1330   46.0020 C   0  0  0  0  0  0  0  0  0  0  0  0
   57.6390   26.6130   46.4330 C   0  0  0  0  0  0  0  0  0  0  0  0
   57.6679   25.6516   46.9667 H   0  0  0  0  0  0  0  0  0  0  0  0
   58.8270   27.3090   46.1890 C   0  0  0  0  0  0  0  0  0  0  0  0
   59.7851   26.8966   46.5383 H   0  0  0  0  0  0  0  0  0  0  0  0
   58.8020   28.5320   45.5000 C   0  0  0  0  0  0  0  0  0  0  0  0
   60.0740   29.3010   45.2760 C   0  0  0  0  0  0  0  0  0  0  0  0
   59.9192   30.0343   44.4708 H   0  0  0  0  0  0  0  0  0  0  0  0
   60.8742   28.6007   44.9945 H   0  0  0  0  0  0  0  0  0  0  0  0
   60.4670   30.0170   46.5290 C   0  0  0  0  0  0  0  0  0  0  0  0
   59.5800   30.0310   47.9580 S   0  0  0  0  0  0  0  0  0  0  0  0
   60.7650   30.9050   48.7870 C   0  0  0  0  0  0  0  0  0  0  0  0
   60.7280   31.2620   50.0380 N   0  0  0  0  0  0  0  0  0  0  0  0
   60.4230   32.5660   50.5630 C   0  0  0  0  0  0  0  0  0  0  0  0
   59.8140   32.6950   51.6580 O   0  0  0  0  0  0  0  0  0  0  0  0
   60.7300   33.7760   49.7780 C   0  0  0  0  0  0  0  0  0  0  0  0
   61.7780   34.1093   49.7523 H   0  0  0  0  0  0  0  0  0  0  0  0
   59.8340   34.5040   49.0920 C   0  0  0  0  0  0  0  0  0  0  0  0
   59.5023   35.4522   49.5402 H   0  0  0  0  0  0  0  0  0  0  0  0
   59.2580   34.1320   47.7820 C   0  0  0  0  0  0  0  0  0  0  0  0
   59.7200   34.7700   46.6210 C   0  0  0  0  0  0  0  0  0  0  0  0
   60.4879   35.5540   46.6960 H   0  0  0  0  0  0  0  0  0  0  0  0
   59.2090   34.4140   45.3690 C   0  0  0  0  0  0  0  0  0  0  0  0
   59.5628   34.9300   44.4642 H   0  0  0  0  0  0  0  0  0  0  0  0
   58.2490   33.4030   45.2660 C   0  0  0  0  0  0  0  0  0  0  0  0
   57.8417   33.1296   44.2814 H   0  0  0  0  0  0  0  0  0  0  0  0
   57.8070   32.7400   46.4130 C   0  0  0  0  0  0  0  0  0  0  0  0
   57.0571   31.9395   46.3298 H   0  0  0  0  0  0  0  0  0  0  0  0
   58.3160   33.0920   47.6670 C   0  0  0  0  0  0  0  0  0  0  0  0
   57.9795   32.5549   48.5660 H   0  0  0  0  0  0  0  0  0  0  0  0
   61.8330   31.1670   48.0040 N   0  0  0  0  0  0  0  0  0  0  0  0
   61.6740   30.6720   46.7480 C   0  0  0  0  0  0  0  0  0  0  0  0
   62.4400   30.7810   45.9661 H   0  0  0  0  0  0  0  0  0  0  0  0
   57.5710   29.0590   45.0790 C   0  0  0  0  0  0  0  0  0  0  0  0
   57.5409   30.0252   44.5540 H   0  0  0  0  0  0  0  0  0  0  0  0
   56.3820   28.3630   45.3230 C   0  0  0  0  0  0  0  0  0  0  0  0
   55.1740   28.9010   44.8930 O   0  0  0  0  0  0  0  0  0  0  0  0
  1  2  1  0
  2  3  1  0
  3  4  2  0
  4  5  1  0
  4  6  1  0
  6  7  1  0
  6  8  2  0
  8  9  1  0
  9 10  1  0
  9 11  1  0
  9 12  1  0
 12 13  1  0
 13 14  1  0
 14 15  2  0
 15 16  1  0
 16 17  2  0
 16 18  1  0
 18 19  1  0
 18 20  2  3
 20 21  1  0
 20 22  1  0
 22 23  2  0
 23 24  1  0
 23 25  1  0
 25 26  1  0
 25 27  2  0
 27 28  1  0
 27 29  1  0
 29 30  1  0
 29 31  2  0
 31 32  1  0
 14 33  1  0
 33 34  1  0
 34 35  1  0
  8 36  1  0
 36 37  1  0
 36 38  2  0
 38 39  1  0
 38  3  1  0
 34 12  2  0
 31 22  1  0
M  CHG  2  33  -1  39  -1
M  END
>  <UniqueID>  (9) 
9

>  <SMILES>  (9) 
O=C(C=Cc1ccccc1)/N=c1/[n-]cc(Cc2ccc(O)c([O-])c2)s1

>  <Energy>  (9) 
80.26486447432427

>  <Genealogy>  (9) 
O=C(C=Cc1ccccc1)N=c1[n-]cc(Cc2ccc(O)c([O-])c2)s1 (protonated)
O=C(C=Cc1ccccc1)/N=c1/[n-]cc(Cc2ccc(O)c([O-])c2)s1 (cis-trans isomerization)
O=C(C=Cc1ccccc1)/N=c1/[n-]cc(Cc2ccc(O)c([O-])c2)s1 (3D coordinates assigned)
O=C(C=Cc1ccccc1)/N=c1/[n-]cc(Cc2ccc(O)c([O-])c2)s1 (optimized conformer: 80.26486447432427 kcal/mol)

>  <smiles>  (9) 
O=C(C=Cc1ccccc1)N=c1[nH]cc(Cc2ccc(O)c(O)c2)s1

>  <score_type>  (9) 
oracle

>  <origin>  (9) 
adg

>  <m_score__min__energy>  (9) 
-13.83

>  <m_primary>  (9) 
energy

$$$$
9:0
     RDKit          3D

 60 64  0  0  0  0  0  0  0  0999 V2000
   57.9817   33.6100   42.6836 H   0  0  0  0  0  0  0  0  0  0  0  0
   57.7750   32.6160   43.1070 C   0  0  0  0  0  0  0  0  0  0  0  0
   57.1930   31.2850   42.2570 S   0  0  0  0  0  0  0  0  0  0  0  0
   57.1820   30.2880   43.6170 C   0  0  0  0  0  0  0  0  0  0  0  0
   56.8520   29.0300   43.6460 N   0  0  0  0  0  0  0  0  0  0  0  0
   57.7670   27.9290   43.7300 C   0  0  0  0  0  0  0  0  0  0  0  0
   57.9600   27.2240   42.7030 O   0  0  0  0  0  0  0  0  0  0  0  0
   58.5400   27.6440   44.9650 C   0  0  0  0  0  0  0  0  0  0  0  0
   58.7240   26.3190   45.3930 C   0  0  0  0  0  0  0  0  0  0  0  0
   58.2970   25.4908   44.8083 H   0  0  0  0  0  0  0  0  0  0  0  0
   59.4450   26.0480   46.5550 C   0  0  0  0  0  0  0  0  0  0  0  0
   59.5774   25.0078   46.8874 H   0  0  0  0  0  0  0  0  0  0  0  0
   60.0000   27.0920   47.2990 C   0  0  0  0  0  0  0  0  0  0  0  0
   60.5599   26.8693   48.2193 H   0  0  0  0  0  0  0  0  0  0  0  0
   59.8480   28.4250   46.8800 C   0  0  0  0  0  0  0  0  0  0  0  0
   60.4290   29.5040   47.6440 N   0  0  0  0  0  0  0  0  0  0  0  0
   60.5870   30.8390   47.0620 C   0  0  0  0  0  0  0  0  0  0  0  0
   60.6549   30.7518   45.9676 H   0  0  0  0  0  0  0  0  0  0  0  0
   59.7182   31.4544   47.3385 H   0  0  0  0  0  0  0  0  0  0  0  0
   61.8630   31.5080   47.5970 C   0  0  0  0  0  0  0  0  0  0  0  0
   62.7279   31.0237   47.1201 H   0  0  0  0  0  0  0  0  0  0  0  0
   61.7737   32.5776   47.3560 H   0  0  0  0  0  0  0  0  0  0  0  0
   62.0450   31.4270   49.0810 N   0  0  0  0  0  0  0  0  0  0  0  0
   62.2930   32.7780   49.6730 C   0  0  0  0  0  0  0  0  0  0  0  0
   61.4713   32.9216   50.3901 H   0  0  0  0  0  0  0  0  0  0  0  0
   62.3090   33.8620   48.5610 C   0  0  0  0  0  0  0  0  0  0  0  0
   61.5429   33.6133   47.8118 H   0  0  0  0  0  0  0  0  0  0  0  0
   62.1044   34.8346   49.0323 H   0  0  0  0  0  0  0  0  0  0  0  0
   63.6820   33.9520   47.8590 C   0  0  0  0  0  0  0  0  0  0  0  0
   63.5234   34.0493   46.7749 H   0  0  0  0  0  0  0  0  0  0  0  0
   64.2163   34.8274   48.2568 H   0  0  0  0  0  0  0  0  0  0  0  0
   64.4670   32.8030   48.1070 O   0  0  0  0  0  0  0  0  0  0  0  0
   64.8420   32.7550   49.4740 C   0  0  0  0  0  0  0  0  0  0  0  0
   65.3307   31.7893   49.6706 H   0  0  0  0  0  0  0  0  0  0  0  0
   65.5196   33.6011   49.6613 H   0  0  0  0  0  0  0  0  0  0  0  0
   63.6370   32.9030   50.4320 C   0  0  0  0  0  0  0  0  0  0  0  0
   63.6900   32.1154   51.1981 H   0  0  0  0  0  0  0  0  0  0  0  0
   63.6823   33.9004   50.8938 H   0  0  0  0  0  0  0  0  0  0  0  0
   60.9690   30.6630   49.7580 C   0  0  0  0  0  0  0  0  0  0  0  0
   61.2599   30.4826   50.8034 H   0  0  0  0  0  0  0  0  0  0  0  0
   60.0406   31.2510   49.7105 H   0  0  0  0  0  0  0  0  0  0  0  0
   60.7280   29.3180   49.0670 C   0  0  0  0  0  0  0  0  0  0  0  0
   61.6296   28.6958   49.1667 H   0  0  0  0  0  0  0  0  0  0  0  0
   59.8667   28.8282   49.5447 H   0  0  0  0  0  0  0  0  0  0  0  0
   59.1160   28.6900   45.7070 C   0  0  0  0  0  0  0  0  0  0  0  0
   58.9932   29.7288   45.3667 H   0  0  0  0  0  0  0  0  0  0  0  0
   57.6240   30.9450   44.7100 N   0  0  0  0  0  0  0  0  0  0  0  0
   57.7220   30.4930   45.6460 H   0  0  0  0  0  0  0  0  0  0  0  0
   57.9510   32.2430   44.4430 C   0  0  0  0  0  0  0  0  0  0  0  0
   58.4520   33.1690   45.4880 C   0  0  0  0  0  0  0  0  0  0  0  0
   58.1980   32.9180   46.8510 C   0  0  0  0  0  0  0  0  0  0  0  0
   57.6236   32.0272   47.1452 H   0  0  0  0  0  0  0  0  0  0  0  0
   58.6720   33.7950   47.8320 C   0  0  0  0  0  0  0  0  0  0  0  0
   58.4665   33.5936   48.8937 H   0  0  0  0  0  0  0  0  0  0  0  0
   59.4050   34.9250   47.4670 C   0  0  0  0  0  0  0  0  0  0  0  0
   59.7772   35.6126   48.2408 H   0  0  0  0  0  0  0  0  0  0  0  0
   59.6660   35.1830   46.1200 C   0  0  0  0  0  0  0  0  0  0  0  0
   60.2456   36.0730   45.8338 H   0  0  0  0  0  0  0  0  0  0  0  0
   59.1920   34.3120   45.1340 C   0  0  0  0  0  0  0  0  0  0  0  0
   59.3992   34.5220   44.0743 H   0  0  0  0  0  0  0  0  0  0  0  0
  1  2  1  0
  2  3  1  0
  3  4  1  0
  4  5  2  0
  5  6  1  0
  6  7  2  0
  6  8  1  0
  8  9  2  0
  9 10  1  0
  9 11  1  0
 11 12  1  0
 11 13  2  0
 13 14  1  0
 13 15  1  0
 15 16  1  0
 16 17  1  0
 17 18  1  0
 17 19  1  0
 17 20  1  0
 20 21  1  0
 20 22  1  0
 20 23  1  0
 23 24  1  0
 24 25  1  0
 24 26  1  0
 26 27  1  0
 26 28  1  0
 26 29  1  0
 29 30  1  0
 29 31  1  0
 29 32  1  0
 32 33  1  0
 33 34  1  0
 33 35  1  0
 33 36  1  0
 36 37  1  0
 36 38  1  0
 23 39  1  0
 39 40  1  0
 39 41  1  0
 39 42  1  0
 42 43  1  0
 42 44  1  0
 15 45  2  0
 45 46  1  0
  4 47  1  0
 47 48  1  0
 47 49  1  0
 49 50  1  0
 50 51  2  0
 51 52  1  0
 51 53  1  0
 53 54  1  0
 53 55  2  0
 55 56  1  0
 55 57  1  0
 57 58  1  0
 57 59  2  0
 59 60  1  0
 49  2  2  0
 59 50  1  0
 45  8  1  0
 42 16  1  0
 36 24  1  0
M  END
>  <UniqueID>  (10) 
10

>  <SMILES>  (10) 
O=C(/N=c1/[nH]c(-c2ccccc2)cs1)c1cccc(N2CCN(C3CCOCC3)CC2)c1

>  <Energy>  (10) 
129.97595730638056

>  <Genealogy>  (10) 
O=C(/N=c1/[nH]c(-c2ccccc2)cs1)c1cccc(N2CCN(C3CCOCC3)CC2)c1 (cis-trans isomerization)
O=C(/N=c1/[nH]c(-c2ccccc2)cs1)c1cccc(N2CCN(C3CCOCC3)CC2)c1 (3D coordinates assigned)
O=C(/N=c1/[nH]c(-c2ccccc2)cs1)c1cccc(N2CCN(C3CCOCC3)CC2)c1 (nonaromatic ring conformer: 129.97595730638056 kcal/mol)

>  <smiles>  (10) 
O=C(N=c1[nH]c(-c2ccccc2)cs1)c1cccc(N2CCN(C3CCOCC3)CC2)c1

>  <score_type>  (10) 
oracle

>  <origin>  (10) 
adg

>  <m_score__min__energy>  (10) 
-9.9199999999999999

>  <m_primary>  (10) 
energy

$$$$
10:0
     RDKit          3D

 65 68  0  0  0  0  0  0  0  0999 V2000
   55.1560   30.2860   44.5760 O   0  0  0  0  0  0  0  0  0  0  0  0
   56.0070   29.3620   44.4380 C   0  0  0  0  0  0  0  0  0  0  0  0
   57.1520   29.5160   43.4720 C   0  0  0  0  0  0  0  0  0  0  0  0
   58.4030   30.1550   44.0960 C   0  0  0  0  0  0  0  0  0  0  0  0
   58.0540   31.3080   44.9820 C   0  0  0  0  0  0  0  0  0  0  0  0
   57.0460   32.1700   44.7430 N   0  0  0  0  0  0  0  0  0  0  0  0
   57.0560   33.0340   45.7450 N   0  0  0  0  0  0  0  0  0  0  0  0
   58.0750   32.6700   46.5500 C   0  0  0  0  0  0  0  0  0  0  0  0
   58.4650   33.3850   47.8140 C   0  0  0  0  0  0  0  0  0  0  0  0
   59.6490   34.3550   47.6060 C   0  0  0  0  0  0  0  0  0  0  0  0
   61.0620   33.7250   47.7270 C   0  0  0  0  0  0  0  0  0  0  0  0
   61.8850   34.2730   48.9140 C   0  0  0  0  0  0  0  0  0  0  0  0
   63.1810   33.4600   49.1290 C   0  0  0  0  0  0  0  0  0  0  0  0
   63.7460   32.8550   47.8290 C   0  0  0  0  0  0  0  0  0  0  0  0
   63.3930   33.7090   46.6050 C   0  0  0  0  0  0  0  0  0  0  0  0
   61.8650   33.8140   46.4000 C   0  0  0  0  0  0  0  0  0  0  0  0
   58.6870   31.6050   46.0920 O   0  0  0  0  0  0  0  0  0  0  0  0
   55.9350   28.1900   45.2560 N   0  0  0  0  0  0  0  0  0  0  0  0
   56.9880   27.1810   45.2900 C   0  0  0  0  0  0  0  0  0  0  0  0
   57.9450   27.5010   46.4020 C   0  0  0  0  0  0  0  0  0  0  0  0
   58.0440   28.8210   46.8800 C   0  0  0  0  0  0  0  0  0  0  0  0
   58.9600   29.1400   47.8880 C   0  0  0  0  0  0  0  0  0  0  0  0
   59.8020   28.1500   48.4070 C   0  0  0  0  0  0  0  0  0  0  0  0
   60.7390   28.4860   49.4310 N   0  0  0  0  0  0  0  0  0  0  0  0
   61.1780   30.1310   49.7450 S   0  0  0  0  0  0  0  0  0  0  0  0
   61.5220   30.8020   48.4450 O   0  0  0  0  0  0  0  0  0  0  0  0
   62.3930   30.1600   50.6280 O   0  0  0  0  0  0  0  0  0  0  0  0
   59.8530   30.9990   50.5200 C   0  0  0  0  0  0  0  0  0  0  0  0
   59.9890   32.3640   50.8130 C   0  0  0  0  0  0  0  0  0  0  0  0
   58.9480   33.0530   51.4430 C   0  0  0  0  0  0  0  0  0  0  0  0
   57.7710   32.3800   51.7860 C   0  0  0  0  0  0  0  0  0  0  0  0
   57.6280   31.0210   51.4870 C   0  0  0  0  0  0  0  0  0  0  0  0
   58.6640   30.3310   50.8510 C   0  0  0  0  0  0  0  0  0  0  0  0
   59.7010   26.8290   47.9430 C   0  0  0  0  0  0  0  0  0  0  0  0
   58.7750   26.5060   46.9470 C   0  0  0  0  0  0  0  0  0  0  0  0
   57.4231   28.5197   43.0926 H   0  0  0  0  0  0  0  0  0  0  0  0
   56.8106   30.1900   42.6725 H   0  0  0  0  0  0  0  0  0  0  0  0
   58.9315   29.3958   44.6912 H   0  0  0  0  0  0  0  0  0  0  0  0
   59.0384   30.5304   43.2803 H   0  0  0  0  0  0  0  0  0  0  0  0
   57.5990   33.9585   48.1760 H   0  0  0  0  0  0  0  0  0  0  0  0
   58.7812   32.6245   48.5432 H   0  0  0  0  0  0  0  0  0  0  0  0
   59.5574   34.7897   46.5997 H   0  0  0  0  0  0  0  0  0  0  0  0
   59.5787   35.0937   48.4180 H   0  0  0  0  0  0  0  0  0  0  0  0
   60.8811   32.6611   47.9400 H   0  0  0  0  0  0  0  0  0  0  0  0
   62.1503   35.3211   48.7112 H   0  0  0  0  0  0  0  0  0  0  0  0
   61.2727   34.1926   49.8243 H   0  0  0  0  0  0  0  0  0  0  0  0
   63.9418   34.1250   49.5637 H   0  0  0  0  0  0  0  0  0  0  0  0
   62.9319   32.6217   49.7962 H   0  0  0  0  0  0  0  0  0  0  0  0
   64.8407   32.7883   47.9133 H   0  0  0  0  0  0  0  0  0  0  0  0
   63.2995   31.8590   47.6922 H   0  0  0  0  0  0  0  0  0  0  0  0
   63.8037   34.7197   46.7456 H   0  0  0  0  0  0  0  0  0  0  0  0
   63.8250   33.2269   45.7156 H   0  0  0  0  0  0  0  0  0  0  0  0
   61.6420   34.7785   45.9205 H   0  0  0  0  0  0  0  0  0  0  0  0
   61.5596   32.9616   45.7753 H   0  0  0  0  0  0  0  0  0  0  0  0
   56.5423   26.1902   45.4623 H   0  0  0  0  0  0  0  0  0  0  0  0
   57.5257   27.1765   44.3304 H   0  0  0  0  0  0  0  0  0  0  0  0
   57.3981   29.6055   46.4590 H   0  0  0  0  0  0  0  0  0  0  0  0
   59.0184   30.1689   48.2726 H   0  0  0  0  0  0  0  0  0  0  0  0
   60.9159   32.8932   50.5468 H   0  0  0  0  0  0  0  0  0  0  0  0
   59.0548   34.1243   51.6688 H   0  0  0  0  0  0  0  0  0  0  0  0
   56.9568   32.9199   52.2915 H   0  0  0  0  0  0  0  0  0  0  0  0
   56.6993   30.4948   51.7526 H   0  0  0  0  0  0  0  0  0  0  0  0
   58.5473   29.2641   50.6099 H   0  0  0  0  0  0  0  0  0  0  0  0
   60.3510   26.0475   48.3635 H   0  0  0  0  0  0  0  0  0  0  0  0
   58.6955   25.4692   46.5883 H   0  0  0  0  0  0  0  0  0  0  0  0
  1  2  2  0
  2  3  1  0
  3  4  1  0
  4  5  1  0
  5  6  2  0
  6  7  1  0
  7  8  2  0
  8  9  1  0
  9 10  1  0
 10 11  1  0
 11 12  1  0
 12 13  1  0
 13 14  1  0
 14 15  1  0
 15 16  1  0
  8 17  1  0
  2 18  1  0
 18 19  1  0
 19 20  1  0
 20 21  2  0
 21 22  1  0
 22 23  2  0
 23 24  1  0
 24 25  1  0
 25 26  2  0
 25 27  2  0
 25 28  1  0
 28 29  2  0
 29 30  1  0
 30 31  2  0
 31 32  1  0
 32 33  2  0
 23 34  1  0
 34 35  2  0
 17  5  1  0
 35 20  1  0
 16 11  1  0
 33 28  1  0
  3 36  1  0
  3 37  1  0
  4 38  1  0
  4 39  1  0
  9 40  1  0
  9 41  1  0
 10 42  1  0
 10 43  1  0
 11 44  1  0
 12 45  1  0
 12 46  1  0
 13 47  1  0
 13 48  1  0
 14 49  1  0
 14 50  1  0
 15 51  1  0
 15 52  1  0
 16 53  1  0
 16 54  1  0
 19 55  1  0
 19 56  1  0
 21 57  1  0
 22 58  1  0
 29 59  1  0
 30 60  1  0
 31 61  1  0
 32 62  1  0
 33 63  1  0
 34 64  1  0
 35 65  1  0
M  CHG  2  18  -1  24  -1
M  END
>  <UniqueID>  (11) 
11

>  <SMILES>  (11) 
O=C(CCc1nnc(CCC2CCCCC2)o1)[N-]Cc1ccc([N-]S(=O)(=O)c2ccccc2)cc1

>  <Energy>  (11) 
101.98077272546941

>  <Genealogy>  (11) 
O=C(CCc1nnc(CCC2CCCCC2)o1)[N-]Cc1ccc([N-]S(=O)(=O)c2ccccc2)cc1 (protonated)
O=C(CCc1nnc(CCC2CCCCC2)o1)[N-]Cc1ccc([N-]S(=O)(=O)c2ccccc2)cc1 (3D coordinates assigned)
O=C(CCc1nnc(CCC2CCCCC2)o1)[N-]Cc1ccc([N-]S(=O)(=O)c2ccccc2)cc1 (nonaromatic ring conformer: 101.98077272546941 kcal/mol)

>  <smiles>  (11) 
O=C(CCc1nnc(CCC2CCCCC2)o1)NCc1ccc(NS(=O)(=O)c2ccccc2)cc1

>  <score_type>  (11) 
oracle

>  <origin>  (11) 
adg

>  <m_score__min__energy>  (11) 
-13.050000000000001

>  <m_primary>  (11) 
energy

$$$$
11:0
     RDKit          3D

 41 43  0  0  0  0  0  0  0  0999 V2000
   56.3200   22.3080   42.6120 C   0  0  0  0  0  0  0  0  0  0  0  0
   56.4660   22.3230   43.9390 C   0  0  0  0  0  0  0  0  0  0  0  0
   56.3090   20.8010   44.8080 Cl  0  0  0  0  0  0  0  0  0  0  0  0
   56.8030   23.5510   44.7020 C   0  0  0  0  0  0  0  0  0  0  0  0
   58.1260   23.8860   45.0420 C   0  0  0  0  0  0  0  0  0  0  0  0
   58.3820   25.0650   45.7550 C   0  0  0  0  0  0  0  0  0  0  0  0
   59.6950   25.4180   46.0990 C   0  0  0  0  0  0  0  0  0  0  0  0
   59.9450   26.5940   46.8090 C   0  0  0  0  0  0  0  0  0  0  0  0
   58.8900   27.4310   47.1990 C   0  0  0  0  0  0  0  0  0  0  0  0
   59.1820   28.6450   47.9130 N   0  0  0  0  0  0  0  0  0  0  0  0
   59.0410   29.9580   47.3440 C   0  0  0  0  0  0  0  0  0  0  0  0
   58.2780   30.1300   46.3550 O   0  0  0  0  0  0  0  0  0  0  0  0
   59.7430   31.1230   47.9360 C   0  0  0  0  0  0  0  0  0  0  0  0
   60.4580   32.0240   47.1270 C   0  0  0  0  0  0  0  0  0  0  0  0
   61.1090   33.1230   47.6950 C   0  0  0  0  0  0  0  0  0  0  0  0
   61.0480   33.3540   49.0730 C   0  0  0  0  0  0  0  0  0  0  0  0
   61.7270   34.4640   49.5950 O   0  0  0  0  0  0  0  0  0  0  0  0
   63.0250   34.4470   50.1230 C   0  0  0  0  0  0  0  0  0  0  0  0
   64.0160   33.4700   49.5880 C   0  0  0  0  0  0  0  0  0  0  0  0
   63.3950   35.3040   50.9690 O   0  0  0  0  0  0  0  0  0  0  0  0
   60.3430   32.4510   49.8880 C   0  0  0  0  0  0  0  0  0  0  0  0
   59.6900   31.3510   49.3220 C   0  0  0  0  0  0  0  0  0  0  0  0
   57.5740   27.0930   46.8370 C   0  0  0  0  0  0  0  0  0  0  0  0
   57.3100   25.9110   46.1210 C   0  0  0  0  0  0  0  0  0  0  0  0
   56.0040   25.5450   45.7450 C   0  0  0  0  0  0  0  0  0  0  0  0
   55.0180   26.2730   46.0400 O   0  0  0  0  0  0  0  0  0  0  0  0
   55.7940   24.3950   45.0550 N   0  0  0  0  0  0  0  0  0  0  0  0
   56.4119   23.2418   42.0380 H   0  0  0  0  0  0  0  0  0  0  0  0
   56.1078   21.3618   42.0927 H   0  0  0  0  0  0  0  0  0  0  0  0
   58.9558   23.2257   44.7497 H   0  0  0  0  0  0  0  0  0  0  0  0
   60.5315   24.7656   45.8082 H   0  0  0  0  0  0  0  0  0  0  0  0
   60.9796   26.8664   47.0648 H   0  0  0  0  0  0  0  0  0  0  0  0
   59.3940   28.5720   48.9330 H   0  0  0  0  0  0  0  0  0  0  0  0
   60.5054   31.8629   46.0399 H   0  0  0  0  0  0  0  0  0  0  0  0
   61.6749   33.8129   47.0517 H   0  0  0  0  0  0  0  0  0  0  0  0
   64.5247   32.9685   50.4244 H   0  0  0  0  0  0  0  0  0  0  0  0
   63.4967   32.7208   48.9724 H   0  0  0  0  0  0  0  0  0  0  0  0
   64.7578   33.9999   48.9724 H   0  0  0  0  0  0  0  0  0  0  0  0
   60.3047   32.6102   50.9757 H   0  0  0  0  0  0  0  0  0  0  0  0
   59.1300   30.6582   49.9673 H   0  0  0  0  0  0  0  0  0  0  0  0
   56.7437   27.7585   47.1160 H   0  0  0  0  0  0  0  0  0  0  0  0
  1  2  2  0
  2  3  1  0
  2  4  1  0
  4  5  2  0
  5  6  1  0
  6  7  2  0
  7  8  1  0
  8  9  2  0
  9 10  1  0
 10 11  1  0
 11 12  2  0
 11 13  1  0
 13 14  2  0
 14 15  1  0
 15 16  2  0
 16 17  1  0
 17 18  1  0
 18 19  1  0
 18 20  2  0
 16 21  1  0
 21 22  2  0
  9 23  1  0
 23 24  2  0
 24 25  1  0
 25 26  2  0
 25 27  1  0
 27  4  1  0
 24  6  1  0
 22 13  1  0
  1 28  1  0
  1 29  1  0
  5 30  1  0
  7 31  1  0
  8 32  1  0
 10 33  1  0
 14 34  1  0
 15 35  1  0
 19 36  1  0
 19 37  1  0
 19 38  1  0
 21 39  1  0
 22 40  1  0
 23 41  1  0
M  CHG  1  27  -1
M  END
>  <UniqueID>  (12) 
12

>  <SMILES>  (12) 
C=C(Cl)c1cc2ccc(NC(=O)c3ccc(OC(C)=O)cc3)cc2c(=O)[n-]1

>  <Energy>  (12) 
58.74758903538693

>  <Genealogy>  (12) 
C=C(Cl)c1cc2ccc(NC(=O)c3ccc(OC(C)=O)cc3)cc2c(=O)[n-]1 (protonated)
C=C(Cl)c1cc2ccc(NC(=O)c3ccc(OC(C)=O)cc3)cc2c(=O)[n-]1 (3D coordinates assigned)
C=C(Cl)c1cc2ccc(NC(=O)c3ccc(OC(C)=O)cc3)cc2c(=O)[n-]1 (optimized conformer: 58.74758903538693 kcal/mol)

>  <smiles>  (12) 
C=C(Cl)c1cc2ccc(NC(=O)c3ccc(OC(C)=O)cc3)cc2c(=O)[nH]1

>  <score_type>  (12) 
oracle

>  <origin>  (12) 
adg

>  <m_score__min__energy>  (12) 
-8.5199999999999996

>  <m_primary>  (12) 
energy

$$$$
12:0
     RDKit          3D

 59 62  0  0  0  0  0  0  0  0999 V2000
   57.7850   32.9550   44.4610 C   0  0  0  0  0  0  0  0  0  0  0  0
   58.5370   31.9440   45.3000 C   0  0  0  0  0  0  0  0  0  0  0  0
   59.6030   32.3570   46.1360 C   0  0  0  0  0  0  0  0  0  0  0  0
   60.0830   33.7870   46.2190 C   0  0  0  0  0  0  0  0  0  0  0  0
   61.2450   33.9280   47.1720 C   0  0  0  0  0  0  0  0  0  0  0  0
   61.0210   34.2000   48.5340 C   0  0  0  0  0  0  0  0  0  0  0  0
   62.1000   34.3160   49.4180 C   0  0  0  0  0  0  0  0  0  0  0  0
   63.4060   34.1460   48.9550 C   0  0  0  0  0  0  0  0  0  0  0  0
   63.6390   33.8580   47.6070 C   0  0  0  0  0  0  0  0  0  0  0  0
   62.5640   33.7450   46.7190 C   0  0  0  0  0  0  0  0  0  0  0  0
   60.2530   31.4320   46.8890 N   0  0  0  0  0  0  0  0  0  0  0  0
   59.9130   30.1470   46.8820 N   0  0  0  0  0  0  0  0  0  0  0  0
   58.8870   29.6850   46.1270 C   0  0  0  0  0  0  0  0  0  0  0  0
   58.5840   28.2860   46.1580 N   0  0  0  0  0  0  0  0  0  0  0  0
   58.7820   27.4770   44.9530 C   0  0  0  0  0  0  0  0  0  0  0  0
   57.6570   26.4450   44.8240 C   0  0  0  0  0  0  0  0  0  0  0  0
   57.3440   25.8010   46.1110 N   0  0  0  0  0  0  0  0  0  0  0  0
   56.3000   24.8060   46.1590 C   0  0  0  0  0  0  0  0  0  0  0  0
   55.0190   25.1250   45.8330 N   0  0  0  0  0  0  0  0  0  0  0  0
   54.0340   24.1910   45.8370 C   0  0  0  0  0  0  0  0  0  0  0  0
   54.3200   22.8570   46.1620 C   0  0  0  0  0  0  0  0  0  0  0  0
   53.2070   21.8280   46.1610 C   0  0  0  0  0  0  0  0  0  0  0  0
   52.1930   22.1830   45.2570 O   0  0  0  0  0  0  0  0  0  0  0  0
   55.6470   22.5500   46.5480 C   0  0  0  0  0  0  0  0  0  0  0  0
   56.0710   21.1710   46.9640 C   0  0  0  0  0  0  0  0  0  0  0  0
   57.1570   21.2600   47.8440 O   0  0  0  0  0  0  0  0  0  0  0  0
   56.5940   23.5260   46.5160 N   0  0  0  0  0  0  0  0  0  0  0  0
   58.1380   26.1340   47.3050 C   0  0  0  0  0  0  0  0  0  0  0  0
   58.2710   27.6540   47.4450 C   0  0  0  0  0  0  0  0  0  0  0  0
   58.1470   30.5800   45.3300 C   0  0  0  0  0  0  0  0  0  0  0  0
   56.9790   30.0820   44.5050 C   0  0  0  0  0  0  0  0  0  0  0  0
   57.2598   33.6611   45.1210 H   0  0  0  0  0  0  0  0  0  0  0  0
   58.4950   33.5053   43.8262 H   0  0  0  0  0  0  0  0  0  0  0  0
   57.0537   32.4333   43.8262 H   0  0  0  0  0  0  0  0  0  0  0  0
   60.3999   34.1159   45.2183 H   0  0  0  0  0  0  0  0  0  0  0  0
   59.2546   34.4072   46.5920 H   0  0  0  0  0  0  0  0  0  0  0  0
   59.9930   34.3221   48.9060 H   0  0  0  0  0  0  0  0  0  0  0  0
   61.9186   34.5415   50.4793 H   0  0  0  0  0  0  0  0  0  0  0  0
   64.2524   34.2387   49.6514 H   0  0  0  0  0  0  0  0  0  0  0  0
   64.6683   33.7202   47.2443 H   0  0  0  0  0  0  0  0  0  0  0  0
   62.7513   33.5117   45.6605 H   0  0  0  0  0  0  0  0  0  0  0  0
   58.7782   28.1324   44.0696 H   0  0  0  0  0  0  0  0  0  0  0  0
   59.7464   26.9528   45.0245 H   0  0  0  0  0  0  0  0  0  0  0  0
   56.7536   26.9501   44.4514 H   0  0  0  0  0  0  0  0  0  0  0  0
   57.9937   25.6629   44.1276 H   0  0  0  0  0  0  0  0  0  0  0  0
   53.0041   24.4825   45.5835 H   0  0  0  0  0  0  0  0  0  0  0  0
   53.6210   20.8509   45.8713 H   0  0  0  0  0  0  0  0  0  0  0  0
   52.7742   21.7796   47.1711 H   0  0  0  0  0  0  0  0  0  0  0  0
   52.6440   22.5920   44.4730 H   0  0  0  0  0  0  0  0  0  0  0  0
   55.2328   20.6660   47.4665 H   0  0  0  0  0  0  0  0  0  0  0  0
   56.3671   20.5954   46.0746 H   0  0  0  0  0  0  0  0  0  0  0  0
   57.7380   21.9810   47.4900 H   0  0  0  0  0  0  0  0  0  0  0  0
   57.6389   25.7292   48.1978 H   0  0  0  0  0  0  0  0  0  0  0  0
   59.1409   25.6938   47.2033 H   0  0  0  0  0  0  0  0  0  0  0  0
   57.3223   28.0628   47.8229 H   0  0  0  0  0  0  0  0  0  0  0  0
   59.0938   27.8662   48.1435 H   0  0  0  0  0  0  0  0  0  0  0  0
   56.1764   29.7398   45.1749 H   0  0  0  0  0  0  0  0  0  0  0  0
   56.6038   30.8984   43.8704 H   0  0  0  0  0  0  0  0  0  0  0  0
   57.3083   29.2460   43.8704 H   0  0  0  0  0  0  0  0  0  0  0  0
  1  2  1  0
  2  3  2  0
  3  4  1  0
  4  5  1  0
  5  6  2  0
  6  7  1  0
  7  8  2  0
  8  9  1  0
  9 10  2  0
  3 11  1  0
 11 12  2  0
 12 13  1  0
 13 14  1  0
 14 15  1  0
 15 16  1  0
 16 17  1  0
 17 18  1  0
 18 19  2  0
 19 20  1  0
 20 21  2  0
 21 22  1  0
 22 23  1  0
 21 24  1  0
 24 25  1  0
 25 26  1  0
 24 27  2  0
 17 28  1  0
 28 29  1  0
 13 30  2  0
 30 31  1  0
 30  2  1  0
 10  5  1  0
 29 14  1  0
 27 18  1  0
  1 32  1  0
  1 33  1  0
  1 34  1  0
  4 35  1  0
  4 36  1  0
  6 37  1  0
  7 38  1  0
  8 39  1  0
  9 40  1  0
 10 41  1  0
 15 42  1  0
 15 43  1  0
 16 44  1  0
 16 45  1  0
 20 46  1  0
 22 47  1  0
 22 48  1  0
 23 49  1  0
 25 50  1  0
 25 51  1  0
 26 52  1  0
 28 53  1  0
 28 54  1  0
 29 55  1  0
 29 56  1  0
 31 57  1  0
 31 58  1  0
 31 59  1  0
M  END
>  <UniqueID>  (13) 
13

>  <SMILES>  (13) 
Cc1c(Cc2ccccc2)nnc(N2CCN(c3ncc(CO)c(CO)n3)CC2)c1C

>  <Energy>  (13) 
74.10851774795483

>  <Genealogy>  (13) 
Cc1c(Cc2ccccc2)nnc(N2CCN(c3ncc(CO)c(CO)n3)CC2)c1C (3D coordinates assigned)
Cc1c(Cc2ccccc2)nnc(N2CCN(c3ncc(CO)c(CO)n3)CC2)c1C (nonaromatic ring conformer: 74.10851774795483 kcal/mol)

>  <smiles>  (13) 
Cc1c(Cc2ccccc2)nnc(N2CCN(c3ncc(CO)c(CO)n3)CC2)c1C

>  <score_type>  (13) 
oracle

>  <origin>  (13) 
adg

>  <m_score__min__energy>  (13) 
-9.1799999999999997

>  <m_primary>  (13) 
energy

$$$$
13:0
     RDKit          3D

 52 55  0  0  0  0  0  0  0  0999 V2000
   57.3310   28.4260   43.0350 C   0  0  0  0  0  0  0  0  0  0  0  0
   57.6570   29.4490   43.8400 C   0  0  0  0  0  0  0  0  0  0  0  0
   58.2790   29.3650   45.0970 C   0  0  0  0  0  0  0  0  0  0  0  0
   58.5030   28.3090   45.9050 C   0  0  0  0  0  0  0  0  0  0  0  0
   57.5400   27.2290   46.1780 C   0  0  0  0  0  0  0  0  0  0  0  0
   57.8620   26.0240   46.6860 N   0  0  0  0  0  0  0  0  0  0  0  0
   56.6910   25.3510   46.6560 C   0  0  0  0  0  0  0  0  0  0  0  0
   56.5800   24.1680   47.0720 O   0  0  0  0  0  0  0  0  0  0  0  0
   55.6520   26.0440   46.1420 N   0  0  0  0  0  0  0  0  0  0  0  0
   56.2110   27.2250   45.8340 C   0  0  0  0  0  0  0  0  0  0  0  0
   55.5190   28.2800   45.2550 O   0  0  0  0  0  0  0  0  0  0  0  0
   58.6610   30.6530   45.4240 C   0  0  0  0  0  0  0  0  0  0  0  0
   58.2020   31.4790   44.4170 C   0  0  0  0  0  0  0  0  0  0  0  0
   58.4690   32.9610   44.3610 C   0  0  0  0  0  0  0  0  0  0  0  0
   58.5470   33.5340   45.7540 C   0  0  0  0  0  0  0  0  0  0  0  0
   59.5120   34.4110   46.0750 C   0  0  0  0  0  0  0  0  0  0  0  0
   59.6080   34.9650   47.4700 C   0  0  0  0  0  0  0  0  0  0  0  0
   59.2320   33.9500   48.4730 N   0  0  0  0  0  0  0  0  0  0  0  0
   59.7490   34.0370   49.8140 C   0  0  0  0  0  0  0  0  0  0  0  0
   59.0480   33.6530   50.7890 O   0  0  0  0  0  0  0  0  0  0  0  0
   61.0550   34.4980   50.0260 O   0  0  0  0  0  0  0  0  0  0  0  0
   62.2180   33.7790   49.7210 C   0  0  0  0  0  0  0  0  0  0  0  0
   63.1430   33.4060   50.7110 C   0  0  0  0  0  0  0  0  0  0  0  0
   64.2940   32.6910   50.3610 C   0  0  0  0  0  0  0  0  0  0  0  0
   64.5360   32.3570   49.0260 C   0  0  0  0  0  0  0  0  0  0  0  0
   63.6270   32.7390   48.0350 C   0  0  0  0  0  0  0  0  0  0  0  0
   62.4770   33.4540   48.3820 C   0  0  0  0  0  0  0  0  0  0  0  0
   58.2650   32.8830   48.1530 C   0  0  0  0  0  0  0  0  0  0  0  0
   57.5540   33.1270   46.8140 C   0  0  0  0  0  0  0  0  0  0  0  0
   57.5770   30.7510   43.4580 N   0  0  0  0  0  0  0  0  0  0  0  0
   57.0430   31.2550   42.1880 C   0  0  0  0  0  0  0  0  0  0  0  0
   56.8438   28.6206   42.0681 H   0  0  0  0  0  0  0  0  0  0  0  0
   57.5509   27.3929   43.3420 H   0  0  0  0  0  0  0  0  0  0  0  0
   59.4836   28.2496   46.3998 H   0  0  0  0  0  0  0  0  0  0  0  0
   59.2240   30.9614   46.3173 H   0  0  0  0  0  0  0  0  0  0  0  0
   59.4227   33.1381   43.8423 H   0  0  0  0  0  0  0  0  0  0  0  0
   57.6471   33.4515   43.8188 H   0  0  0  0  0  0  0  0  0  0  0  0
   60.2382   34.7268   45.3115 H   0  0  0  0  0  0  0  0  0  0  0  0
   60.6424   35.2889   47.6573 H   0  0  0  0  0  0  0  0  0  0  0  0
   58.9146   35.8145   47.5565 H   0  0  0  0  0  0  0  0  0  0  0  0
   62.9622   33.6762   51.7618 H   0  0  0  0  0  0  0  0  0  0  0  0
   65.0107   32.3909   51.1396 H   0  0  0  0  0  0  0  0  0  0  0  0
   65.4412   31.7938   48.7550 H   0  0  0  0  0  0  0  0  0  0  0  0
   63.8164   32.4773   46.9835 H   0  0  0  0  0  0  0  0  0  0  0  0
   61.7699   33.7640   47.5985 H   0  0  0  0  0  0  0  0  0  0  0  0
   58.8007   31.9237   48.1000 H   0  0  0  0  0  0  0  0  0  0  0  0
   57.5007   32.8716   48.9440 H   0  0  0  0  0  0  0  0  0  0  0  0
   57.0476   32.2025   46.4995 H   0  0  0  0  0  0  0  0  0  0  0  0
   56.8206   33.9365   46.9434 H   0  0  0  0  0  0  0  0  0  0  0  0
   56.2566   31.9972   42.3897 H   0  0  0  0  0  0  0  0  0  0  0  0
   57.8525   31.7260   41.6110 H   0  0  0  0  0  0  0  0  0  0  0  0
   56.6195   30.4197   41.6110 H   0  0  0  0  0  0  0  0  0  0  0  0
  1  2  2  0
  2  3  1  0
  3  4  2  3
  4  5  1  0
  5  6  1  0
  6  7  1  0
  7  8  2  0
  7  9  1  0
  9 10  1  0
 10 11  1  0
  3 12  1  0
 12 13  2  0
 13 14  1  0
 14 15  1  0
 15 16  2  0
 16 17  1  0
 17 18  1  0
 18 19  1  0
 19 20  2  0
 19 21  1  0
 21 22  1  0
 22 23  2  0
 23 24  1  0
 24 25  2  0
 25 26  1  0
 26 27  2  0
 18 28  1  0
 28 29  1  0
 13 30  1  0
 30 31  1  0
 30  2  1  0
 10  5  2  0
 29 15  1  0
 27 22  1  0
  1 32  1  0
  1 33  1  0
  4 34  1  0
 12 35  1  0
 14 36  1  0
 14 37  1  0
 16 38  1  0
 17 39  1  0
 17 40  1  0
 23 41  1  0
 24 42  1  0
 25 43  1  0
 26 44  1  0
 27 45  1  0
 28 46  1  0
 28 47  1  0
 29 48  1  0
 29 49  1  0
 31 50  1  0
 31 51  1  0
 31 52  1  0
M  CHG  3   6  -1   9  -1  11  -1
M  END
>  <UniqueID>  (14) 
14

>  <SMILES>  (14) 
C=c1c(=Cc2[n-]c(=O)[n-]c2[O-])cc(CC2=CCN(C(=O)Oc3ccccc3)CC2)n1C

>  <Energy>  (14) 
126.24066092081524

>  <Genealogy>  (14) 
C=c1c(=Cc2[n-]c(=O)[n-]c2[O-])cc(CC2=CCN(C(=O)Oc3ccccc3)CC2)n1C (protonated)
C=c1c(=Cc2[n-]c(=O)[n-]c2[O-])cc(CC2=CCN(C(=O)Oc3ccccc3)CC2)n1C (3D coordinates assigned)
C=c1c(=Cc2[n-]c(=O)[n-]c2[O-])cc(CC2=CCN(C(=O)Oc3ccccc3)CC2)n1C (nonaromatic ring conformer: 126.24066092081524 kcal/mol)

>  <smiles>  (14) 
C=c1c(=Cc2[nH]c(=O)[nH]c2O)cc(CC2=CCN(C(=O)Oc3ccccc3)CC2)n1C

>  <score_type>  (14) 
oracle

>  <origin>  (14) 
adg

>  <m_score__min__energy>  (14) 
-18.57

>  <m_primary>  (14) 
energy

$$$$
14:0
     RDKit          3D

 63 66  0  0  0  0  0  0  0  0999 V2000
   56.2480   27.7670   45.6340 O   0  0  0  0  0  0  0  0  0  0  0  0
   56.8470   28.7290   45.0830 C   0  0  0  0  0  0  0  0  0  0  0  0
   57.7890   28.4580   43.9350 C   0  0  0  0  0  0  0  0  0  0  0  0
   59.2650   28.5740   44.3430 C   0  0  0  0  0  0  0  0  0  0  0  0
   59.4780   28.3150   45.8150 C   0  0  0  0  0  0  0  0  0  0  0  0
   59.1020   27.0860   46.3810 C   0  0  0  0  0  0  0  0  0  0  0  0
   59.3230   26.8430   47.7390 C   0  0  0  0  0  0  0  0  0  0  0  0
   59.9280   27.8160   48.5400 C   0  0  0  0  0  0  0  0  0  0  0  0
   60.3170   29.0430   47.9830 C   0  0  0  0  0  0  0  0  0  0  0  0
   61.1510   30.2500   48.9630 S   0  0  0  0  0  0  0  0  0  0  0  0
   61.7860   29.5540   50.1350 O   0  0  0  0  0  0  0  0  0  0  0  0
   62.2410   30.8940   48.1520 O   0  0  0  0  0  0  0  0  0  0  0  0
   60.0070   31.4490   49.5430 N   0  0  0  0  0  0  0  0  0  0  0  0
   60.3650   31.9460   50.8880 C   0  0  0  0  0  0  0  0  0  0  0  0
   60.1000   30.8910   51.9880 C   0  0  0  0  0  0  0  0  0  0  0  0
   59.2000   29.8690   51.5960 O   0  0  0  0  0  0  0  0  0  0  0  0
   58.1260   30.4100   50.8600 C   0  0  0  0  0  0  0  0  0  0  0  0
   58.6130   30.9450   49.4970 C   0  0  0  0  0  0  0  0  0  0  0  0
   60.0910   29.2880   46.6220 C   0  0  0  0  0  0  0  0  0  0  0  0
   56.6490   30.0510   45.5950 N   0  0  0  0  0  0  0  0  0  0  0  0
   57.4270   31.2110   45.2510 C   0  0  0  0  0  0  0  0  0  0  0  0
   57.4650   31.7080   43.9360 C   0  0  0  0  0  0  0  0  0  0  0  0
   58.1860   32.8680   43.6390 C   0  0  0  0  0  0  0  0  0  0  0  0
   58.8550   33.5560   44.6530 C   0  0  0  0  0  0  0  0  0  0  0  0
   58.8020   33.0880   45.9750 C   0  0  0  0  0  0  0  0  0  0  0  0
   59.6350   33.9680   47.2540 S   0  0  0  0  0  0  0  0  0  0  0  0
   58.8570   33.8440   48.5370 O   0  0  0  0  0  0  0  0  0  0  0  0
   59.7160   35.4250   46.8820 O   0  0  0  0  0  0  0  0  0  0  0  0
   61.2360   33.3060   47.4780 N   0  0  0  0  0  0  0  0  0  0  0  0
   62.1220   33.6630   46.3660 C   0  0  0  0  0  0  0  0  0  0  0  0
   63.5350   33.7620   46.9330 C   0  0  0  0  0  0  0  0  0  0  0  0
   63.3670   33.7900   48.4430 C   0  0  0  0  0  0  0  0  0  0  0  0
   61.8670   33.8510   48.6780 C   0  0  0  0  0  0  0  0  0  0  0  0
   58.0860   31.9150   46.2690 C   0  0  0  0  0  0  0  0  0  0  0  0
   57.6056   27.4397   43.5615 H   0  0  0  0  0  0  0  0  0  0  0  0
   57.5968   29.2148   43.1602 H   0  0  0  0  0  0  0  0  0  0  0  0
   59.8492   27.8410   43.7673 H   0  0  0  0  0  0  0  0  0  0  0  0
   59.5907   29.6036   44.1334 H   0  0  0  0  0  0  0  0  0  0  0  0
   58.6327   26.3134   45.7542 H   0  0  0  0  0  0  0  0  0  0  0  0
   59.0196   25.8819   48.1798 H   0  0  0  0  0  0  0  0  0  0  0  0
   60.0992   27.6190   49.6086 H   0  0  0  0  0  0  0  0  0  0  0  0
   60.0780   32.2580   48.8810 H   0  0  0  0  0  0  0  0  0  0  0  0
   61.4336   32.2069   50.8969 H   0  0  0  0  0  0  0  0  0  0  0  0
   59.7379   32.8239   51.1026 H   0  0  0  0  0  0  0  0  0  0  0  0
   61.0585   30.4239   52.2585 H   0  0  0  0  0  0  0  0  0  0  0  0
   59.6355   31.4197   52.8334 H   0  0  0  0  0  0  0  0  0  0  0  0
   57.3725   29.6264   50.6919 H   0  0  0  0  0  0  0  0  0  0  0  0
   57.6900   31.2428   51.4313 H   0  0  0  0  0  0  0  0  0  0  0  0
   58.5577   30.1307   48.7596 H   0  0  0  0  0  0  0  0  0  0  0  0
   57.9642   31.7894   49.2213 H   0  0  0  0  0  0  0  0  0  0  0  0
   60.3957   30.2491   46.1823 H   0  0  0  0  0  0  0  0  0  0  0  0
   56.9241   31.1807   43.1364 H   0  0  0  0  0  0  0  0  0  0  0  0
   58.2264   33.2395   42.6044 H   0  0  0  0  0  0  0  0  0  0  0  0
   59.4246   34.4665   44.4153 H   0  0  0  0  0  0  0  0  0  0  0  0
   62.0814   32.8874   45.5871 H   0  0  0  0  0  0  0  0  0  0  0  0
   61.8149   34.6161   45.9108 H   0  0  0  0  0  0  0  0  0  0  0  0
   64.1329   32.8901   46.6291 H   0  0  0  0  0  0  0  0  0  0  0  0
   64.0602   34.6556   46.5647 H   0  0  0  0  0  0  0  0  0  0  0  0
   63.7912   32.8812   48.8949 H   0  0  0  0  0  0  0  0  0  0  0  0
   63.8887   34.6448   48.8981 H   0  0  0  0  0  0  0  0  0  0  0  0
   61.5954   33.2483   49.5572 H   0  0  0  0  0  0  0  0  0  0  0  0
   61.5359   34.8827   48.8676 H   0  0  0  0  0  0  0  0  0  0  0  0
   58.0422   31.5467   47.3046 H   0  0  0  0  0  0  0  0  0  0  0  0
  1  2  2  0
  2  3  1  0
  3  4  1  0
  4  5  1  0
  5  6  2  0
  6  7  1  0
  7  8  2  0
  8  9  1  0
  9 10  1  0
 10 11  2  0
 10 12  2  0
 10 13  1  0
 13 14  1  0
 14 15  1  0
 15 16  1  0
 16 17  1  0
 17 18  1  0
  9 19  2  0
  2 20  1  0
 20 21  1  0
 21 22  2  0
 22 23  1  0
 23 24  2  0
 24 25  1  0
 25 26  1  0
 26 27  2  0
 26 28  2  0
 26 29  1  0
 29 30  1  0
 30 31  1  0
 31 32  1  0
 32 33  1  0
 25 34  2  0
 19  5  1  0
 34 21  1  0
 18 13  1  0
 33 29  1  0
  3 35  1  0
  3 36  1  0
  4 37  1  0
  4 38  1  0
  6 39  1  0
  7 40  1  0
  8 41  1  0
 13 42  1  0
 14 43  1  0
 14 44  1  0
 15 45  1  0
 15 46  1  0
 17 47  1  0
 17 48  1  0
 18 49  1  0
 18 50  1  0
 19 51  1  0
 22 52  1  0
 23 53  1  0
 24 54  1  0
 30 55  1  0
 30 56  1  0
 31 57  1  0
 31 58  1  0
 32 59  1  0
 32 60  1  0
 33 61  1  0
 33 62  1  0
 34 63  1  0
M  CHG  2  13   1  20  -1
M  END
>  <UniqueID>  (15) 
15

>  <SMILES>  (15) 
O=C(CCc1cccc(S(=O)(=O)[NH+]2CCOCC2)c1)[N-]c1cccc(S(=O)(=O)N2CCCC2)c1

>  <Energy>  (15) 
77.44026864251668

>  <Genealogy>  (15) 
O=C(CCc1cccc(S(=O)(=O)[NH+]2CCOCC2)c1)[N-]c1cccc(S(=O)(=O)N2CCCC2)c1 (protonated)
O=C(CCc1cccc(S(=O)(=O)[NH+]2CCOCC2)c1)[N-]c1cccc(S(=O)(=O)N2CCCC2)c1 (3D coordinates assigned)
O=C(CCc1cccc(S(=O)(=O)[NH+]2CCOCC2)c1)[N-]c1cccc(S(=O)(=O)N2CCCC2)c1 (nonaromatic ring conformer: 77.44026864251668 kcal/mol)

>  <smiles>  (15) 
O=C(CCc1cccc(S(=O)(=O)N2CCOCC2)c1)Nc1cccc(S(=O)(=O)N2CCCC2)c1

>  <score_type>  (15) 
oracle

>  <origin>  (15) 
adg

>  <m_score__min__energy>  (15) 
-11.51

>  <m_primary>  (15) 
energy

$$$$
15:0
     RDKit          3D

 62 65  0  0  0  0  0  0  0  0999 V2000
   59.8001   27.5958   44.2657 H   0  0  0  0  0  0  0  0  0  0  0  0
   59.3700   28.3250   44.9680 C   0  0  0  0  0  0  0  0  0  0  0  0
   58.4900   29.3030   44.5040 C   0  0  0  0  0  0  0  0  0  0  0  0
   58.2416   29.3513   43.4335 H   0  0  0  0  0  0  0  0  0  0  0  0
   57.9220   30.2220   45.3910 C   0  0  0  0  0  0  0  0  0  0  0  0
   57.0450   31.2320   44.8720 N   0  0  0  0  0  0  0  0  0  0  0  0
   57.3680   32.2600   44.1340 C   0  0  0  0  0  0  0  0  0  0  0  0
   57.7070   32.1170   42.6720 C   0  0  0  0  0  0  0  0  0  0  0  0
   58.7161   31.6913   42.5695 H   0  0  0  0  0  0  0  0  0  0  0  0
   56.9770   31.4501   42.1899 H   0  0  0  0  0  0  0  0  0  0  0  0
   57.6752   33.1052   42.1899 H   0  0  0  0  0  0  0  0  0  0  0  0
   57.5840   33.6060   44.7830 C   0  0  0  0  0  0  0  0  0  0  0  0
   57.9400   34.3116   44.0178 H   0  0  0  0  0  0  0  0  0  0  0  0
   56.6233   33.9219   45.2157 H   0  0  0  0  0  0  0  0  0  0  0  0
   58.5930   33.5620   45.9040 C   0  0  0  0  0  0  0  0  0  0  0  0
   59.9600   33.7160   45.6300 C   0  0  0  0  0  0  0  0  0  0  0  0
   60.2920   33.9206   44.6015 H   0  0  0  0  0  0  0  0  0  0  0  0
   60.9020   33.6110   46.6560 C   0  0  0  0  0  0  0  0  0  0  0  0
   61.9706   33.7414   46.4299 H   0  0  0  0  0  0  0  0  0  0  0  0
   60.4970   33.3400   47.9760 C   0  0  0  0  0  0  0  0  0  0  0  0
   61.5050   33.1920   49.1020 C   0  0  2  0  0  0  0  0  0  0  0  0
   60.8914   33.2376   50.0138 H   0  0  0  0  0  0  0  0  0  0  0  0
   62.5680   34.3070   49.1150 C   0  0  0  0  0  0  0  0  0  0  0  0
   62.2188   35.1499   48.5005 H   0  0  0  0  0  0  0  0  0  0  0  0
   62.7278   34.6404   50.1510 H   0  0  0  0  0  0  0  0  0  0  0  0
   63.8970   33.7770   48.5450 C   0  0  0  0  0  0  0  0  0  0  0  0
   63.9003   33.8951   47.4514 H   0  0  0  0  0  0  0  0  0  0  0  0
   64.7343   34.3448   48.9768 H   0  0  0  0  0  0  0  0  0  0  0  0
   64.0470   32.3000   48.8980 C   0  0  0  0  0  0  0  0  0  0  0  0
   64.6142   31.7746   48.1156 H   0  0  0  0  0  0  0  0  0  0  0  0
   64.5946   32.1625   49.8421 H   0  0  0  0  0  0  0  0  0  0  0  0
   62.4040   31.6620   49.0000 S   0  0  0  0  0  0  0  0  0  0  0  0
   62.2220   30.8360   50.2440 O   0  0  0  0  0  0  0  0  0  0  0  0
   62.0560   30.8540   47.7800 O   0  0  0  0  0  0  0  0  0  0  0  0
   59.1260   33.1800   48.2420 C   0  0  0  0  0  0  0  0  0  0  0  0
   58.7916   32.9693   49.2685 H   0  0  0  0  0  0  0  0  0  0  0  0
   58.1830   33.2860   47.2150 C   0  0  0  0  0  0  0  0  0  0  0  0
   57.1141   33.1520   47.4374 H   0  0  0  0  0  0  0  0  0  0  0  0
   58.2970   30.1970   46.7470 C   0  0  0  0  0  0  0  0  0  0  0  0
   57.9001   30.9564   47.4368 H   0  0  0  0  0  0  0  0  0  0  0  0
   59.1760   29.2080   47.2280 C   0  0  0  0  0  0  0  0  0  0  0  0
   59.5360   29.1610   48.6280 N   0  0  0  0  0  0  0  0  0  0  0  0
   60.7640   28.4810   49.0640 C   0  0  0  0  0  0  0  0  0  0  0  0
   60.9467   27.6096   48.4180 H   0  0  0  0  0  0  0  0  0  0  0  0
   61.6089   29.1818   48.9934 H   0  0  0  0  0  0  0  0  0  0  0  0
   60.6180   28.0140   50.5170 C   0  0  0  0  0  0  0  0  0  0  0  0
   59.7985   27.2823   50.5725 H   0  0  0  0  0  0  0  0  0  0  0  0
   61.5759   27.5694   50.8250 H   0  0  0  0  0  0  0  0  0  0  0  0
   60.3190   29.1390   51.4460 N   0  0  0  0  0  0  0  0  0  0  0  0
   61.2360   29.5510   51.7430 H   0  0  0  0  0  0  0  0  0  0  0  0
   59.6740   28.6230   52.6650 C   0  0  0  0  0  0  0  0  0  0  0  0
   60.1838   29.0308   53.5503 H   0  0  0  0  0  0  0  0  0  0  0  0
   58.6171   28.9277   52.6777 H   0  0  0  0  0  0  0  0  0  0  0  0
   59.7392   27.5250   52.6777 H   0  0  0  0  0  0  0  0  0  0  0  0
   59.5120   30.2360   50.8420 C   0  0  0  0  0  0  0  0  0  0  0  0
   58.8356   30.6373   51.6111 H   0  0  0  0  0  0  0  0  0  0  0  0
   60.2162   30.9972   50.4749 H   0  0  0  0  0  0  0  0  0  0  0  0
   58.6700   29.7750   49.6430 C   0  0  0  0  0  0  0  0  0  0  0  0
   57.9266   29.0383   49.9816 H   0  0  0  0  0  0  0  0  0  0  0  0
   58.1597   30.6450   49.2041 H   0  0  0  0  0  0  0  0  0  0  0  0
   59.7060   28.2700   46.3230 C   0  0  0  0  0  0  0  0  0  0  0  0
   60.3897   27.4879   46.6849 H   0  0  0  0  0  0  0  0  0  0  0  0
  1  2  1  0
  2  3  2  0
  3  4  1  0
  3  5  1  0
  5  6  1  0
  6  7  2  0
  7  8  1  0
  8  9  1  0
  8 10  1  0
  8 11  1  0
  7 12  1  0
 12 13  1  0
 12 14  1  0
 12 15  1  0
 15 16  2  0
 16 17  1  0
 16 18  1  0
 18 19  1  0
 18 20  2  0
 20 21  1  0
 21 22  1  1
 21 23  1  0
 23 24  1  0
 23 25  1  0
 23 26  1  0
 26 27  1  0
 26 28  1  0
 26 29  1  0
 29 30  1  0
 29 31  1  0
 29 32  1  0
 32 33  2  0
 32 34  2  0
 20 35  1  0
 35 36  1  0
 35 37  2  0
 37 38  1  0
  5 39  2  0
 39 40  1  0
 39 41  1  0
 41 42  1  0
 42 43  1  0
 43 44  1  0
 43 45  1  0
 43 46  1  0
 46 47  1  0
 46 48  1  0
 46 49  1  0
 49 50  1  0
 49 51  1  0
 51 52  1  0
 51 53  1  0
 51 54  1  0
 49 55  1  0
 55 56  1  0
 55 57  1  0
 55 58  1  0
 58 59  1  0
 58 60  1  0
 41 61  2  0
 61 62  1  0
 61  2  1  0
 37 15  1  0
 58 42  1  0
 32 21  1  0
M  CHG  1  49   1
M  END
>  <UniqueID>  (16) 
16

>  <SMILES>  (16) 
C/C(Cc1ccc([C@@H]2CCCS2(=O)=O)cc1)=N\c1cccc(N2CC[NH+](C)CC2)c1

>  <Energy>  (16) 
78.76074675613722

>  <Genealogy>  (16) 
CC(Cc1ccc(C2CCCS2(=O)=O)cc1)=Nc1cccc(N2CC[NH+](C)CC2)c1 (protonated)
CC(Cc1ccc([C@@H]2CCCS2(=O)=O)cc1)=Nc1cccc(N2CC[NH+](C)CC2)c1 (chirality)
C/C(Cc1ccc([C@@H]2CCCS2(=O)=O)cc1)=N\c1cccc(N2CC[NH+](C)CC2)c1 (cis-trans isomerization)
C/C(Cc1ccc([C@@H]2CCCS2(=O)=O)cc1)=N\c1cccc(N2CC[NH+](C)CC2)c1 (3D coordinates assigned)
C/C(Cc1ccc([C@@H]2CCCS2(=O)=O)cc1)=N\c1cccc(N2CC[NH+](C)CC2)c1 (nonaromatic ring conformer: 78.76074675613722 kcal/mol)

>  <smiles>  (16) 
CC(Cc1ccc(C2CCCS2(=O)=O)cc1)=Nc1cccc(N2CCN(C)CC2)c1

>  <score_type>  (16) 
oracle

>  <origin>  (16) 
adg

>  <m_score__min__energy>  (16) 
-9.7100000000000009

>  <m_primary>  (16) 
energy

$$$$
16:0
     RDKit          3D

 43 45  0  0  0  0  0  0  0  0999 V2000
   63.2620   32.8720   47.4890 C   0  0  0  0  0  0  0  0  0  0  0  0
   62.0070   33.2000   47.7920 C   0  0  0  0  0  0  0  0  0  0  0  0
   60.9910   33.6820   46.8620 C   0  0  0  0  0  0  0  0  0  0  0  0
   61.1560   33.8580   45.6260 O   0  0  0  0  0  0  0  0  0  0  0  0
   59.7380   33.8930   47.5940 C   0  0  0  0  0  0  0  0  0  0  0  0
   58.5740   34.2290   47.0140 C   0  0  0  0  0  0  0  0  0  0  0  0
   57.9050   33.4560   45.9580 C   0  0  0  0  0  0  0  0  0  0  0  0
   56.6880   33.1480   46.0740 O   0  0  0  0  0  0  0  0  0  0  0  0
   58.6690   32.9700   44.8460 N   0  0  0  0  0  0  0  0  0  0  0  0
   58.0810   32.1520   43.7880 C   0  0  0  0  0  0  0  0  0  0  0  0
   57.7540   30.7790   44.3110 C   0  0  0  0  0  0  0  0  0  0  0  0
   56.4180   30.3540   44.3800 C   0  0  0  0  0  0  0  0  0  0  0  0
   56.1080   29.0720   44.8450 C   0  0  0  0  0  0  0  0  0  0  0  0
   57.1310   28.2000   45.2400 C   0  0  0  0  0  0  0  0  0  0  0  0
   56.7400   26.5920   45.8410 S   0  0  0  0  0  0  0  0  0  0  0  0
   57.3360   25.3720   44.6940 C   0  0  0  0  0  0  0  0  0  0  0  0
   57.3840   26.3780   47.1820 O   0  0  0  0  0  0  0  0  0  0  0  0
   55.2510   26.4540   45.9930 O   0  0  0  0  0  0  0  0  0  0  0  0
   58.4650   28.6230   45.1770 C   0  0  0  0  0  0  0  0  0  0  0  0
   58.7770   29.9040   44.7110 C   0  0  0  0  0  0  0  0  0  0  0  0
   60.0530   33.6030   49.0110 C   0  0  0  0  0  0  0  0  0  0  0  0
   59.3020   33.8420   50.1710 C   0  0  0  0  0  0  0  0  0  0  0  0
   59.8640   33.5370   51.4210 C   0  0  0  0  0  0  0  0  0  0  0  0
   58.9350   33.8060   52.8840 Cl  0  0  0  0  0  0  0  0  0  0  0  0
   61.1790   33.0440   51.5080 C   0  0  0  0  0  0  0  0  0  0  0  0
   61.9510   32.8760   50.3490 C   0  0  0  0  0  0  0  0  0  0  0  0
   61.3740   33.1730   49.1110 C   0  0  0  0  0  0  0  0  0  0  0  0
   63.9436   32.5185   48.2767 H   0  0  0  0  0  0  0  0  0  0  0  0
   63.6168   32.9547   46.4511 H   0  0  0  0  0  0  0  0  0  0  0  0
   58.0842   35.1529   47.3553 H   0  0  0  0  0  0  0  0  0  0  0  0
   59.6790   33.2300   44.7710 H   0  0  0  0  0  0  0  0  0  0  0  0
   57.1593   32.6322   43.4277 H   0  0  0  0  0  0  0  0  0  0  0  0
   58.8037   32.0586   42.9640 H   0  0  0  0  0  0  0  0  0  0  0  0
   55.6109   31.0326   44.0668 H   0  0  0  0  0  0  0  0  0  0  0  0
   55.0584   28.7475   44.9008 H   0  0  0  0  0  0  0  0  0  0  0  0
   57.7527   24.5190   45.2496 H   0  0  0  0  0  0  0  0  0  0  0  0
   56.5051   25.0268   44.0613 H   0  0  0  0  0  0  0  0  0  0  0  0
   58.1191   25.8152   44.0613 H   0  0  0  0  0  0  0  0  0  0  0  0
   59.2703   27.9447   45.4954 H   0  0  0  0  0  0  0  0  0  0  0  0
   59.8271   30.2273   44.6576 H   0  0  0  0  0  0  0  0  0  0  0  0
   58.2877   34.2622   50.1026 H   0  0  0  0  0  0  0  0  0  0  0  0
   61.6038   32.7890   52.4901 H   0  0  0  0  0  0  0  0  0  0  0  0
   62.9891   32.5179   50.4130 H   0  0  0  0  0  0  0  0  0  0  0  0
  1  2  2  0
  2  3  1  0
  3  4  2  0
  3  5  1  0
  5  6  2  3
  6  7  1  0
  7  8  2  0
  7  9  1  0
  9 10  1  0
 10 11  1  0
 11 12  2  0
 12 13  1  0
 13 14  2  0
 14 15  1  0
 15 16  1  0
 15 17  2  0
 15 18  2  0
 14 19  1  0
 19 20  2  0
  5 21  1  0
 21 22  2  0
 22 23  1  0
 23 24  1  0
 23 25  2  0
 25 26  1  0
 26 27  2  0
 27  2  1  0
 20 11  1  0
 27 21  1  0
  1 28  1  0
  1 29  1  0
  6 30  1  0
  9 31  1  0
 10 32  1  0
 10 33  1  0
 12 34  1  0
 13 35  1  0
 16 36  1  0
 16 37  1  0
 16 38  1  0
 19 39  1  0
 20 40  1  0
 22 41  1  0
 25 42  1  0
 26 43  1  0
M  END
>  <UniqueID>  (17) 
17

>  <SMILES>  (17) 
C=C1C(=O)C(=CC(=O)NCc2ccc(S(C)(=O)=O)cc2)c2cc(Cl)ccc21

>  <Energy>  (17) 
74.3660913874681

>  <Genealogy>  (17) 
C=C1C(=O)C(=CC(=O)NCc2ccc(S(C)(=O)=O)cc2)c2cc(Cl)ccc21 (3D coordinates assigned)
C=C1C(=O)C(=CC(=O)NCc2ccc(S(C)(=O)=O)cc2)c2cc(Cl)ccc21 (nonaromatic ring conformer: 74.3660913874681 kcal/mol)

>  <smiles>  (17) 
C=C1C(=O)C(=CC(=O)NCc2ccc(S(C)(=O)=O)cc2)c2cc(Cl)ccc21

>  <score_type>  (17) 
oracle

>  <origin>  (17) 
adg

>  <m_score__min__energy>  (17) 
-9.4600000000000009

>  <m_primary>  (17) 
energy

$$$$
17:0
     RDKit          3D

 64 67  0  0  0  0  0  0  0  0999 V2000
   65.3030   31.8723   52.0091 H   0  0  0  0  0  0  0  0  0  0  0  0
   64.6730   31.5320   51.1740 C   0  0  0  0  0  0  0  0  0  0  0  0
   64.6350   32.3300   49.9360 C   0  0  0  0  0  0  0  0  0  0  0  0
   65.7230   32.7420   49.4500 O   0  0  0  0  0  0  0  0  0  0  0  0
   63.3950   32.6640   49.2850 N   0  0  0  0  0  0  0  0  0  0  0  0
   63.3460   32.7500   47.8240 C   0  0  0  0  0  0  0  0  0  0  0  0
   63.7118   33.7359   47.5014 H   0  0  0  0  0  0  0  0  0  0  0  0
   63.9807   31.9651   47.3869 H   0  0  0  0  0  0  0  0  0  0  0  0
   61.9010   32.5620   47.3550 C   0  0  0  0  0  0  0  0  0  0  0  0
   61.8735   32.6438   46.2584 H   0  0  0  0  0  0  0  0  0  0  0  0
   61.5668   31.5716   47.6977 H   0  0  0  0  0  0  0  0  0  0  0  0
   60.9740   33.5730   47.9310 N   0  0  0  0  0  0  0  0  0  0  0  0
   59.5850   33.0670   47.9940 C   0  0  0  0  0  0  0  0  0  0  0  0
   59.5997   32.0209   48.3338 H   0  0  0  0  0  0  0  0  0  0  0  0
   59.0176   33.6959   48.6958 H   0  0  0  0  0  0  0  0  0  0  0  0
   58.9150   33.1360   46.6430 C   0  0  0  0  0  0  0  0  0  0  0  0
   59.1800   34.2060   45.7760 C   0  0  0  0  0  0  0  0  0  0  0  0
   59.8496   35.0183   46.0950 H   0  0  0  0  0  0  0  0  0  0  0  0
   58.5950   34.2420   44.5080 C   0  0  0  0  0  0  0  0  0  0  0  0
   58.7899   35.0927   43.8385 H   0  0  0  0  0  0  0  0  0  0  0  0
   57.7630   33.2010   44.0870 C   0  0  0  0  0  0  0  0  0  0  0  0
   57.3002   33.2390   43.0898 H   0  0  0  0  0  0  0  0  0  0  0  0
   57.5160   32.1100   44.9290 C   0  0  0  0  0  0  0  0  0  0  0  0
   56.6660   31.0500   44.4650 N   0  0  0  0  0  0  0  0  0  0  0  0
   56.6350   29.7110   44.9820 C   0  0  0  0  0  0  0  0  0  0  0  0
   55.5170   29.1600   45.1630 O   0  0  0  0  0  0  0  0  0  0  0  0
   57.8740   28.9520   45.2680 C   0  0  0  0  0  0  0  0  0  0  0  0
   59.0930   29.3120   44.6650 C   0  0  0  0  0  0  0  0  0  0  0  0
   59.1292   30.1627   43.9686 H   0  0  0  0  0  0  0  0  0  0  0  0
   60.2590   28.5930   44.9470 C   0  0  0  0  0  0  0  0  0  0  0  0
   61.2080   28.8778   44.4691 H   0  0  0  0  0  0  0  0  0  0  0  0
   60.2220   27.5140   45.8340 C   0  0  0  0  0  0  0  0  0  0  0  0
   61.3550   26.8280   46.1170 F   0  0  0  0  0  0  0  0  0  0  0  0
   59.0130   27.1430   46.4290 C   0  0  0  0  0  0  0  0  0  0  0  0
   58.9827   26.2917   47.1250 H   0  0  0  0  0  0  0  0  0  0  0  0
   57.8420   27.8510   46.1420 C   0  0  0  0  0  0  0  0  0  0  0  0
   56.8909   27.5451   46.6023 H   0  0  0  0  0  0  0  0  0  0  0  0
   58.0720   32.0970   46.2200 C   0  0  0  0  0  0  0  0  0  0  0  0
   57.8445   31.2660   46.9039 H   0  0  0  0  0  0  0  0  0  0  0  0
   61.4050   34.1140   49.2480 C   0  0  0  0  0  0  0  0  0  0  0  0
   62.0123   35.0148   49.0754 H   0  0  0  0  0  0  0  0  0  0  0  0
   60.4960   34.3367   49.8261 H   0  0  0  0  0  0  0  0  0  0  0  0
   62.2360   33.1120   50.0650 C   0  0  0  0  0  0  0  0  0  0  0  0
   62.5846   33.5964   50.9890 H   0  0  0  0  0  0  0  0  0  0  0  0
   61.6100   32.2418   50.3118 H   0  0  0  0  0  0  0  0  0  0  0  0
   63.9630   30.4040   51.3130 C   0  0  0  0  0  0  0  0  0  0  0  0
   64.5120   29.4689   51.4980 H   0  0  0  0  0  0  0  0  0  0  0  0
   62.4820   30.3370   51.2330 C   0  0  0  0  0  0  0  0  0  0  0  0
   61.6500   30.5420   52.3490 C   0  0  0  0  0  0  0  0  0  0  0  0
   62.0963   30.7710   53.3280 H   0  0  0  0  0  0  0  0  0  0  0  0
   60.2630   30.4570   52.2230 C   0  0  0  0  0  0  0  0  0  0  0  0
   59.6257   30.6280   53.1031 H   0  0  0  0  0  0  0  0  0  0  0  0
   59.6720   30.1560   50.9870 C   0  0  0  0  0  0  0  0  0  0  0  0
   58.1710   30.0770   50.8880 C   0  0  0  0  0  0  0  0  0  0  0  0
   57.7376   30.0542   51.8988 H   0  0  0  0  0  0  0  0  0  0  0  0
   57.7925   30.9565   50.3465 H   0  0  0  0  0  0  0  0  0  0  0  0
   57.8869   29.1627   50.3465 H   0  0  0  0  0  0  0  0  0  0  0  0
   60.4960   29.9540   49.8560 C   0  0  0  0  0  0  0  0  0  0  0  0
   59.9080   29.6220   48.5080 C   0  0  0  0  0  0  0  0  0  0  0  0
   58.9576   29.0854   48.6447 H   0  0  0  0  0  0  0  0  0  0  0  0
   59.7271   30.5513   47.9479 H   0  0  0  0  0  0  0  0  0  0  0  0
   60.6103   28.9871   47.9479 H   0  0  0  0  0  0  0  0  0  0  0  0
   61.8930   30.0300   49.9960 C   0  0  0  0  0  0  0  0  0  0  0  0
   62.5350   29.8459   49.1220 H   0  0  0  0  0  0  0  0  0  0  0  0
  1  2  1  0
  2  3  1  0
  3  4  2  0
  3  5  1  0
  5  6  1  0
  6  7  1  0
  6  8  1  0
  6  9  1  0
  9 10  1  0
  9 11  1  0
  9 12  1  0
 12 13  1  0
 13 14  1  0
 13 15  1  0
 13 16  1  0
 16 17  2  0
 17 18  1  0
 17 19  1  0
 19 20  1  0
 19 21  2  0
 21 22  1  0
 21 23  1  0
 23 24  1  0
 24 25  1  0
 25 26  2  0
 25 27  1  0
 27 28  2  0
 28 29  1  0
 28 30  1  0
 30 31  1  0
 30 32  2  0
 32 33  1  0
 32 34  1  0
 34 35  1  0
 34 36  2  0
 36 37  1  0
 23 38  2  0
 38 39  1  0
 12 40  1  0
 40 41  1  0
 40 42  1  0
 40 43  1  0
 43 44  1  0
 43 45  1  0
  2 46  2  0
 46 47  1  0
 46 48  1  0
 48 49  2  0
 49 50  1  0
 49 51  1  0
 51 52  1  0
 51 53  2  0
 53 54  1  0
 54 55  1  0
 54 56  1  0
 54 57  1  0
 53 58  1  0
 58 59  1  0
 59 60  1  0
 59 61  1  0
 59 62  1  0
 58 63  2  0
 63 64  1  0
 43  5  1  0
 63 48  1  0
 38 16  1  0
 36 27  1  0
M  CHG  1  24  -1
M  END
>  <UniqueID>  (18) 
18

>  <SMILES>  (18) 
Cc1ccc(/C=C/C(=O)N2CCN(Cc3cccc([N-]C(=O)c4ccc(F)cc4)c3)CC2)cc1C

>  <Energy>  (18) 
83.83583640406765

>  <Genealogy>  (18) 
Cc1ccc(C=CC(=O)N2CCN(Cc3cccc([N-]C(=O)c4ccc(F)cc4)c3)CC2)cc1C (protonated)
Cc1ccc(/C=C/C(=O)N2CCN(Cc3cccc([N-]C(=O)c4ccc(F)cc4)c3)CC2)cc1C (cis-trans isomerization)
Cc1ccc(/C=C/C(=O)N2CCN(Cc3cccc([N-]C(=O)c4ccc(F)cc4)c3)CC2)cc1C (3D coordinates assigned)
Cc1ccc(/C=C/C(=O)N2CCN(Cc3cccc([N-]C(=O)c4ccc(F)cc4)c3)CC2)cc1C (nonaromatic ring conformer: 83.83583640406765 kcal/mol)

>  <smiles>  (18) 
Cc1ccc(C=CC(=O)N2CCN(Cc3cccc(NC(=O)c4ccc(F)cc4)c3)CC2)cc1C

>  <score_type>  (18) 
oracle

>  <origin>  (18) 
adg

>  <m_score__min__energy>  (18) 
-12.550000000000001

>  <m_primary>  (18) 
energy

$$$$
18:0
     RDKit          3D

 79 84  0  0  0  0  0  0  0  0999 V2000
   55.5996   28.6740   44.1881 H   0  0  0  0  0  0  0  0  0  0  0  0
   56.0380   29.6790   44.1000 C   0  0  0  0  0  0  0  0  0  0  0  0
   55.7161   30.3505   43.2904 H   0  0  0  0  0  0  0  0  0  0  0  0
   56.9590   30.0830   44.9740 C   0  0  0  0  0  0  0  0  0  0  0  0
   57.2565   29.3849   45.7703 H   0  0  0  0  0  0  0  0  0  0  0  0
   57.6080   31.4170   44.9390 C   0  0  0  0  0  0  0  0  0  0  0  0
   57.6320   32.2160   43.7800 C   0  0  0  0  0  0  0  0  0  0  0  0
   57.1441   31.8608   42.8603 H   0  0  0  0  0  0  0  0  0  0  0  0
   58.2720   33.4570   43.7920 C   0  0  0  0  0  0  0  0  0  0  0  0
   58.2913   34.0717   42.8800 H   0  0  0  0  0  0  0  0  0  0  0  0
   58.8870   33.9210   44.9550 C   0  0  0  0  0  0  0  0  0  0  0  0
   59.3988   34.8947   44.9533 H   0  0  0  0  0  0  0  0  0  0  0  0
   58.8550   33.1480   46.1300 C   0  0  0  0  0  0  0  0  0  0  0  0
   59.5040   33.6000   47.3830 C   0  0  0  0  0  0  0  0  0  0  0  0
   58.9427   34.3088   48.0096 H   0  0  0  0  0  0  0  0  0  0  0  0
   60.7210   33.2210   47.8250 C   0  0  0  0  0  0  0  0  0  0  0  0
   61.2880   33.6090   49.1380 C   0  0  0  0  0  0  0  0  0  0  0  0
   62.6260   33.8750   49.2780 C   0  0  0  0  0  0  0  0  0  0  0  0
   62.8170   34.0760   50.6380 C   0  0  0  0  0  0  0  0  0  0  0  0
   64.0840   34.3780   51.3440 C   0  0  0  0  0  0  0  0  0  0  0  0
   64.2020   35.4650   51.9710 O   0  0  0  0  0  0  0  0  0  0  0  0
   65.1890   33.4530   51.3310 N   0  0  0  0  0  0  0  0  0  0  0  0
   64.9610   32.0030   51.3440 C   0  0  0  0  0  0  0  0  0  0  0  0
   64.0098   31.7890   51.8534 H   0  0  0  0  0  0  0  0  0  0  0  0
   64.9221   31.6357   50.3079 H   0  0  0  0  0  0  0  0  0  0  0  0
   66.1010   31.2970   52.0830 C   0  0  0  0  0  0  0  0  0  0  0  0
   66.1144   31.6411   53.1277 H   0  0  0  0  0  0  0  0  0  0  0  0
   65.9251   30.2127   52.0248 H   0  0  0  0  0  0  0  0  0  0  0  0
   67.4180   31.5820   51.4680 N   0  0  0  0  0  0  0  0  0  0  0  0
   68.5000   31.2540   52.4090 C   0  0  0  0  0  0  0  0  0  0  0  0
   68.1348   31.3647   53.4407 H   0  0  0  0  0  0  0  0  0  0  0  0
   68.8266   30.2165   52.2450 H   0  0  0  0  0  0  0  0  0  0  0  0
   69.3477   31.9355   52.2450 H   0  0  0  0  0  0  0  0  0  0  0  0
   67.5690   32.9600   50.9290 C   0  0  0  0  0  0  0  0  0  0  0  0
   68.5826   33.3168   51.1643 H   0  0  0  0  0  0  0  0  0  0  0  0
   67.3870   32.9055   49.8455 H   0  0  0  0  0  0  0  0  0  0  0  0
   66.5550   33.9590   51.5080 C   0  0  0  0  0  0  0  0  0  0  0  0
   66.7546   34.0992   52.5806 H   0  0  0  0  0  0  0  0  0  0  0  0
   66.6541   34.9186   50.9795 H   0  0  0  0  0  0  0  0  0  0  0  0
   61.6480   33.8490   51.2720 N   0  0  0  0  0  0  0  0  0  0  0  0
   60.7210   33.5580   50.3680 N   0  0  0  0  0  0  0  0  0  0  0  0
   59.4780   32.8870   50.7500 C   0  0  0  0  0  0  0  0  0  0  0  0
   59.4930   32.6749   51.8292 H   0  0  0  0  0  0  0  0  0  0  0  0
   58.6235   33.5387   50.5151 H   0  0  0  0  0  0  0  0  0  0  0  0
   59.3480   31.6040   49.9920 C   0  0  0  0  0  0  0  0  0  0  0  0
   58.2250   31.1970   49.3670 N   0  0  0  0  0  0  0  0  0  0  0  0
   58.5280   30.0690   48.7400 N   0  0  0  0  0  0  0  0  0  0  0  0
   59.8030   29.7670   48.9290 N   0  0  0  0  0  0  0  0  0  0  0  0
   60.4500   28.5620   48.4250 C   0  0  0  0  0  0  0  0  0  0  0  0
   61.4725   28.8051   48.1002 H   0  0  0  0  0  0  0  0  0  0  0  0
   60.4846   27.8070   49.2243 H   0  0  0  0  0  0  0  0  0  0  0  0
   59.6730   28.0160   47.2600 C   0  0  0  0  0  0  0  0  0  0  0  0
   60.1330   28.2170   45.9510 C   0  0  0  0  0  0  0  0  0  0  0  0
   61.0829   28.7442   45.7784 H   0  0  0  0  0  0  0  0  0  0  0  0
   59.3890   27.7500   44.8660 C   0  0  0  0  0  0  0  0  0  0  0  0
   59.7571   27.9068   43.8413 H   0  0  0  0  0  0  0  0  0  0  0  0
   58.1800   27.0850   45.0760 C   0  0  0  0  0  0  0  0  0  0  0  0
   57.6005   26.7208   44.2149 H   0  0  0  0  0  0  0  0  0  0  0  0
   57.6970   26.8770   46.3810 C   0  0  0  0  0  0  0  0  0  0  0  0
   56.4080   26.1810   46.6220 C   0  0  0  0  0  0  0  0  0  0  0  0
   56.3950   25.1010   47.2700 O   0  0  0  0  0  0  0  0  0  0  0  0
   55.1740   26.7010   46.1200 N   0  0  0  0  0  0  0  0  0  0  0  0
   54.2770   26.2150   46.3420 H   0  0  0  0  0  0  0  0  0  0  0  0
   55.1440   27.5010   45.4520 H   0  0  0  0  0  0  0  0  0  0  0  0
   58.4470   27.3630   47.4690 C   0  0  0  0  0  0  0  0  0  0  0  0
   58.0689   27.2299   48.4934 H   0  0  0  0  0  0  0  0  0  0  0  0
   60.3550   30.7080   49.7150 C   0  0  0  0  0  0  0  0  0  0  0  0
   61.3970   30.7524   50.0646 H   0  0  0  0  0  0  0  0  0  0  0  0
   63.5990   33.6430   48.1600 C   0  0  0  0  0  0  0  0  0  0  0  0
   64.5988   33.4435   48.5730 H   0  0  0  0  0  0  0  0  0  0  0  0
   63.6536   34.5328   47.5155 H   0  0  0  0  0  0  0  0  0  0  0  0
   63.1200   32.4250   47.3430 C   0  0  0  0  0  0  0  0  0  0  0  0
   63.1630   31.5323   47.9842 H   0  0  0  0  0  0  0  0  0  0  0  0
   63.7812   32.3305   46.4690 H   0  0  0  0  0  0  0  0  0  0  0  0
   61.6710   32.5890   46.8180 C   0  0  0  0  0  0  0  0  0  0  0  0
   61.2836   31.5943   46.5526 H   0  0  0  0  0  0  0  0  0  0  0  0
   61.7183   33.2668   45.9529 H   0  0  0  0  0  0  0  0  0  0  0  0
   58.2460   31.8840   46.1000 C   0  0  0  0  0  0  0  0  0  0  0  0
   58.2686   31.2499   46.9985 H   0  0  0  0  0  0  0  0  0  0  0  0
  1  2  1  0
  2  3  1  0
  2  4  2  0
  4  5  1  0
  4  6  1  0
  6  7  2  0
  7  8  1  0
  7  9  1  0
  9 10  1  0
  9 11  2  0
 11 12  1  0
 11 13  1  0
 13 14  1  0
 14 15  1  0
 14 16  2  0
 16 17  1  0
 17 18  2  0
 18 19  1  0
 19 20  1  0
 20 21  2  0
 20 22  1  0
 22 23  1  0
 23 24  1  0
 23 25  1  0
 23 26  1  0
 26 27  1  0
 26 28  1  0
 26 29  1  0
 29 30  1  0
 30 31  1  0
 30 32  1  0
 30 33  1  0
 29 34  1  0
 34 35  1  0
 34 36  1  0
 34 37  1  0
 37 38  1  0
 37 39  1  0
 19 40  2  0
 40 41  1  0
 41 42  1  0
 42 43  1  0
 42 44  1  0
 42 45  1  0
 45 46  1  0
 46 47  2  0
 47 48  1  0
 48 49  1  0
 49 50  1  0
 49 51  1  0
 49 52  1  0
 52 53  2  0
 53 54  1  0
 53 55  1  0
 55 56  1  0
 55 57  2  0
 57 58  1  0
 57 59  1  0
 59 60  1  0
 60 61  2  0
 60 62  1  0
 62 63  1  0
 62 64  1  0
 59 65  2  0
 65 66  1  0
 48 67  1  0
 67 68  1  0
 18 69  1  0
 69 70  1  0
 69 71  1  0
 69 72  1  0
 72 73  1  0
 72 74  1  0
 72 75  1  0
 75 76  1  0
 75 77  1  0
 13 78  2  0
 78 79  1  0
 78  6  1  0
 75 16  1  0
 41 17  1  0
 67 45  2  0
 37 22  1  0
 65 52  1  0
M  END
>  <UniqueID>  (19) 
19

>  <SMILES>  (19) 
C=Cc1cccc(/C=C2/CCCc3c(C(=O)N4CCN(C)CC4)nn(Cc4cn(Cc5cccc(C(N)=O)c5)nn4)c32)c1

>  <Energy>  (19) 
176.98421781266703

>  <Genealogy>  (19) 
C=Cc1cccc(/C=C2/CCCc3c(C(=O)N4CCN(C)CC4)nn(Cc4cn(Cc5cccc(C(N)=O)c5)nn4)c32)c1 (cis-trans isomerization)
C=Cc1cccc(/C=C2/CCCc3c(C(=O)N4CCN(C)CC4)nn(Cc4cn(Cc5cccc(C(N)=O)c5)nn4)c32)c1 (3D coordinates assigned)
C=Cc1cccc(/C=C2/CCCc3c(C(=O)N4CCN(C)CC4)nn(Cc4cn(Cc5cccc(C(N)=O)c5)nn4)c32)c1 (nonaromatic ring conformer: 176.98421781266703 kcal/mol)

>  <smiles>  (19) 
C=Cc1cccc(C=C2CCCc3c(C(=O)N4CCN(C)CC4)nn(Cc4cn(Cc5cccc(C(N)=O)c5)nn4)c32)c1

>  <score_type>  (19) 
oracle

>  <origin>  (19) 
adg

>  <m_score__min__energy>  (19) 
-13.18

>  <m_primary>  (19) 
energy

$$$$
19:0
     RDKit          3D

 57 60  0  0  0  0  0  0  0  0999 V2000
   60.0234   28.2194   47.5847 H   0  0  0  0  0  0  0  0  0  0  0  0
   59.3110   27.7490   46.8910 C   0  0  0  0  0  0  0  0  0  0  0  0
   58.9346   26.7353   47.0929 H   0  0  0  0  0  0  0  0  0  0  0  0
   58.9010   28.4120   45.7980 C   0  0  0  0  0  0  0  0  0  0  0  0
   58.0010   27.9530   44.8210 C   0  0  0  0  0  0  0  0  0  0  0  0
   57.4920   26.7280   44.5940 C   0  0  0  0  0  0  0  0  0  0  0  0
   57.4039   26.4061   43.5459 H   0  0  0  0  0  0  0  0  0  0  0  0
   57.0430   25.7820   45.6290 C   0  0  0  0  0  0  0  0  0  0  0  0
   57.7250   24.6870   46.0140 N   0  0  0  0  0  0  0  0  0  0  0  0
   56.8640   24.0570   46.8410 C   0  0  0  0  0  0  0  0  0  0  0  0
   57.1500   22.9780   47.4250 O   0  0  0  0  0  0  0  0  0  0  0  0
   55.6680   24.6670   46.9830 N   0  0  0  0  0  0  0  0  0  0  0  0
   55.7930   25.7480   46.1980 C   0  0  0  0  0  0  0  0  0  0  0  0
   54.7810   26.6760   45.9910 O   0  0  0  0  0  0  0  0  0  0  0  0
   57.6910   29.0510   44.0370 C   0  0  0  0  0  0  0  0  0  0  0  0
   56.9870   29.0740   43.1921 H   0  0  0  0  0  0  0  0  0  0  0  0
   58.4320   30.1100   44.5160 C   0  0  0  0  0  0  0  0  0  0  0  0
   58.3730   31.4740   43.9590 C   0  0  0  0  0  0  0  0  0  0  0  0
   58.2990   31.6260   42.7110 O   0  0  0  0  0  0  0  0  0  0  0  0
   58.3580   32.6230   44.8210 N   0  0  0  0  0  0  0  0  0  0  0  0
   57.4390   32.6460   45.9700 C   0  0  0  0  0  0  0  0  0  0  0  0
   56.4022   32.6504   45.6025 H   0  0  0  0  0  0  0  0  0  0  0  0
   57.6231   31.7538   46.5865 H   0  0  0  0  0  0  0  0  0  0  0  0
   57.6720   33.8900   46.8270 C   0  0  0  0  0  0  0  0  0  0  0  0
   57.1790   34.7584   46.3657 H   0  0  0  0  0  0  0  0  0  0  0  0
   57.2532   33.7436   47.8336 H   0  0  0  0  0  0  0  0  0  0  0  0
   59.1220   34.1240   46.9070 N   0  0  0  0  0  0  0  0  0  0  0  0
   59.5470   34.9470   48.0580 C   0  0  0  0  0  0  0  0  0  0  0  0
   60.0749   35.8323   47.6740 H   0  0  0  0  0  0  0  0  0  0  0  0
   58.6360   35.2065   48.6173 H   0  0  0  0  0  0  0  0  0  0  0  0
   60.4650   34.2270   49.0250 C   0  0  0  0  0  0  0  0  0  0  0  0
   60.0140   33.8560   50.1420 O   0  0  0  0  0  0  0  0  0  0  0  0
   61.8300   33.9120   48.6770 N   0  0  0  0  0  0  0  0  0  0  0  0
   62.8790   34.0320   49.6940 C   0  0  0  0  0  0  0  0  0  0  0  0
   63.2758   35.0579   49.6879 H   0  0  0  0  0  0  0  0  0  0  0  0
   62.4513   33.8016   50.6809 H   0  0  0  0  0  0  0  0  0  0  0  0
   64.0160   33.0470   49.3980 C   0  0  0  0  0  0  0  0  0  0  0  0
   64.8553   33.2511   50.0791 H   0  0  0  0  0  0  0  0  0  0  0  0
   63.6407   32.0235   49.5453 H   0  0  0  0  0  0  0  0  0  0  0  0
   64.4630   33.1760   48.0600 O   0  0  0  0  0  0  0  0  0  0  0  0
   63.4250   32.7940   47.1780 C   0  0  0  0  0  0  0  0  0  0  0  0
   63.8087   32.7958   46.1471 H   0  0  0  0  0  0  0  0  0  0  0  0
   63.0787   31.7876   47.4557 H   0  0  0  0  0  0  0  0  0  0  0  0
   62.2430   33.7650   47.2760 C   0  0  0  0  0  0  0  0  0  0  0  0
   62.5436   34.7462   46.8798 H   0  0  0  0  0  0  0  0  0  0  0  0
   61.4003   33.3689   46.6904 H   0  0  0  0  0  0  0  0  0  0  0  0
   59.6940   34.5680   45.6170 C   0  0  0  0  0  0  0  0  0  0  0  0
   59.5321   35.6510   45.5130 H   0  0  0  0  0  0  0  0  0  0  0  0
   60.7654   34.3190   45.6220 H   0  0  0  0  0  0  0  0  0  0  0  0
   59.0500   33.8520   44.4090 C   0  0  0  0  0  0  0  0  0  0  0  0
   58.3243   34.5301   43.9362 H   0  0  0  0  0  0  0  0  0  0  0  0
   59.8477   33.5799   43.7022 H   0  0  0  0  0  0  0  0  0  0  0  0
   59.1940   29.7180   45.5660 N   0  0  0  0  0  0  0  0  0  0  0  0
   60.1280   30.5570   46.3260 C   0  0  0  0  0  0  0  0  0  0  0  0
   59.9618   30.4077   47.4031 H   0  0  0  0  0  0  0  0  0  0  0  0
   61.1613   30.2779   46.0723 H   0  0  0  0  0  0  0  0  0  0  0  0
   59.9609   31.6142   46.0723 H   0  0  0  0  0  0  0  0  0  0  0  0
  1  2  1  0
  2  3  1  0
  2  4  2  0
  4  5  1  0
  5  6  2  0
  6  7  1  0
  6  8  1  0
  8  9  1  0
  9 10  1  0
 10 11  2  0
 10 12  1  0
 12 13  1  0
 13 14  1  0
  5 15  1  0
 15 16  1  0
 15 17  2  0
 17 18  1  0
 18 19  2  0
 18 20  1  0
 20 21  1  0
 21 22  1  0
 21 23  1  0
 21 24  1  0
 24 25  1  0
 24 26  1  0
 24 27  1  0
 27 28  1  0
 28 29  1  0
 28 30  1  0
 28 31  1  0
 31 32  2  0
 31 33  1  0
 33 34  1  0
 34 35  1  0
 34 36  1  0
 34 37  1  0
 37 38  1  0
 37 39  1  0
 37 40  1  0
 40 41  1  0
 41 42  1  0
 41 43  1  0
 41 44  1  0
 44 45  1  0
 44 46  1  0
 27 47  1  0
 47 48  1  0
 47 49  1  0
 47 50  1  0
 50 51  1  0
 50 52  1  0
 17 53  1  0
 53 54  1  0
 54 55  1  0
 54 56  1  0
 54 57  1  0
 53  4  1  0
 13  8  2  0
 50 20  1  0
 44 33  1  0
M  CHG  3   9  -1  12  -1  14  -1
M  END
>  <UniqueID>  (20) 
20

>  <SMILES>  (20) 
C=c1/c(=C\c2[n-]c(=O)[n-]c2[O-])cc(C(=O)N2CCN(CC(=O)N3CCOCC3)CC2)n1C

>  <Energy>  (20) 
145.3953865349222

>  <Genealogy>  (20) 
C=c1c(=Cc2[n-]c(=O)[n-]c2[O-])cc(C(=O)N2CCN(CC(=O)N3CCOCC3)CC2)n1C (protonated)
C=c1/c(=C\c2[n-]c(=O)[n-]c2[O-])cc(C(=O)N2CCN(CC(=O)N3CCOCC3)CC2)n1C (cis-trans isomerization)
C=c1/c(=C\c2[n-]c(=O)[n-]c2[O-])cc(C(=O)N2CCN(CC(=O)N3CCOCC3)CC2)n1C (3D coordinates assigned)
C=c1/c(=C\c2[n-]c(=O)[n-]c2[O-])cc(C(=O)N2CCN(CC(=O)N3CCOCC3)CC2)n1C (nonaromatic ring conformer: 145.3953865349222 kcal/mol)

>  <smiles>  (20) 
C=c1c(=Cc2[nH]c(=O)[nH]c2O)cc(C(=O)N2CCN(CC(=O)N3CCOCC3)CC2)n1C

>  <score_type>  (20) 
oracle

>  <origin>  (20) 
adg

>  <m_score__min__energy>  (20) 
-18.399999999999999

>  <m_primary>  (20) 
energy

$$$$
20:0
     RDKit          3D

 26 27  0  0  0  0  0  0  0  0999 V2000
   58.1410   27.0860   42.6050 C   0  0  0  0  0  0  0  0  0  0  0  0
   57.8180   27.6750   43.7720 C   0  0  0  0  0  0  0  0  0  0  0  0
   57.6900   29.0350   43.7750 N   0  0  0  0  0  0  0  0  0  0  0  0
   57.5880   29.7280   44.9360 C   0  0  0  0  0  0  0  0  0  0  0  0
   57.4980   30.9840   44.9160 O   0  0  0  0  0  0  0  0  0  0  0  0
   57.6000   29.0950   46.0950 O   0  0  0  0  0  0  0  0  0  0  0  0
   57.6630   27.7750   46.1830 C   0  0  0  0  0  0  0  0  0  0  0  0
   57.6520   27.2540   47.3320 O   0  0  0  0  0  0  0  0  0  0  0  0
   57.7070   26.9710   45.0150 C   0  0  0  0  0  0  0  0  0  0  0  0
   57.6020   25.6180   45.1540 C   0  0  0  0  0  0  0  0  0  0  0  0
   56.3500   24.8270   45.1760 C   0  0  0  0  0  0  0  0  0  0  0  0
   56.2820   23.5030   44.6850 C   0  0  0  0  0  0  0  0  0  0  0  0
   57.4790   22.7980   44.1140 C   0  0  0  0  0  0  0  0  0  0  0  0
   55.0990   22.8350   44.7290 N   0  0  0  0  0  0  0  0  0  0  0  0
   53.9710   23.4220   45.2010 C   0  0  0  0  0  0  0  0  0  0  0  0
   52.8910   22.7760   45.2290 O   0  0  0  0  0  0  0  0  0  0  0  0
   54.0030   24.7070   45.6350 N   0  0  0  0  0  0  0  0  0  0  0  0
   55.1570   25.4210   45.6260 C   0  0  0  0  0  0  0  0  0  0  0  0
   55.1480   26.6130   46.0350 O   0  0  0  0  0  0  0  0  0  0  0  0
   58.2551   25.9931   42.5536 H   0  0  0  0  0  0  0  0  0  0  0  0
   58.2907   27.6977   41.7031 H   0  0  0  0  0  0  0  0  0  0  0  0
   57.7250   29.5760   42.8800 H   0  0  0  0  0  0  0  0  0  0  0  0
   58.5426   25.0576   45.2605 H   0  0  0  0  0  0  0  0  0  0  0  0
   58.1109   22.4258   44.9338 H   0  0  0  0  0  0  0  0  0  0  0  0
   57.1456   21.9520   43.4950 H   0  0  0  0  0  0  0  0  0  0  0  0
   58.0572   23.4998   43.4950 H   0  0  0  0  0  0  0  0  0  0  0  0
  1  2  2  0
  2  3  1  0
  3  4  1  0
  4  5  2  0
  4  6  1  0
  6  7  1  0
  7  8  2  0
  7  9  1  0
  9 10  2  3
 10 11  1  0
 11 12  2  0
 12 13  1  0
 12 14  1  0
 14 15  1  0
 15 16  2  0
 15 17  1  0
 17 18  1  0
 18 19  2  0
  9  2  1  0
 18 11  1  0
  1 20  1  0
  1 21  1  0
  3 22  1  0
 10 23  1  0
 13 24  1  0
 13 25  1  0
 13 26  1  0
M  CHG  2  14  -1  17  -1
M  END
>  <UniqueID>  (21) 
21

>  <SMILES>  (21) 
C=c1[nH]c(=O)oc(=O)c1=Cc1c(C)[n-]c(=O)[n-]c1=O

>  <Energy>  (21) 
53.89801763375421

>  <Genealogy>  (21) 
C=c1[nH]c(=O)oc(=O)c1=Cc1c(C)[n-]c(=O)[n-]c1=O (protonated)
C=c1[nH]c(=O)oc(=O)c1=Cc1c(C)[n-]c(=O)[n-]c1=O (3D coordinates assigned)
C=c1[nH]c(=O)oc(=O)c1=Cc1c(C)[n-]c(=O)[n-]c1=O (optimized conformer: 53.89801763375421 kcal/mol)

>  <smiles>  (21) 
C=c1[nH]c(=O)oc(=O)c1=Cc1c(C)[nH]c(=O)[nH]c1=O

>  <score_type>  (21) 
oracle

>  <origin>  (21) 
adg

>  <m_score__min__energy>  (21) 
-10.68

>  <m_primary>  (21) 
energy

$$$$
21:0
     RDKit          3D

 57 60  0  0  0  0  0  0  0  0999 V2000
   52.4775   31.1708   55.5211 H   0  0  0  0  0  0  0  0  0  0  0  0
   52.4470   30.7970   54.4870 C   0  0  0  0  0  0  0  0  0  0  0  0
   53.5190   29.8650   54.0700 C   0  0  0  0  0  0  0  0  0  0  0  0
   53.3270   28.6290   54.2280 O   0  0  0  0  0  0  0  0  0  0  0  0
   54.8100   30.3260   53.5100 C   0  0  0  0  0  0  0  0  0  0  0  0
   54.8930   30.7130   52.1630 C   0  0  0  0  0  0  0  0  0  0  0  0
   54.0114   30.6196   51.5118 H   0  0  0  0  0  0  0  0  0  0  0  0
   56.0890   31.2160   51.6450 C   0  0  0  0  0  0  0  0  0  0  0  0
   56.1394   31.5240   50.5902 H   0  0  0  0  0  0  0  0  0  0  0  0
   57.2290   31.3320   52.4600 C   0  0  0  0  0  0  0  0  0  0  0  0
   58.4530   31.8960   51.9400 N   0  0  0  0  0  0  0  0  0  0  0  0
   59.0690   31.3590   50.7210 C   0  0  0  0  0  0  0  0  0  0  0  0
   58.6749   31.8975   49.8465 H   0  0  0  0  0  0  0  0  0  0  0  0
   58.8315   30.2881   50.6392 H   0  0  0  0  0  0  0  0  0  0  0  0
   60.5950   31.5330   50.7800 C   0  0  0  0  0  0  0  0  0  0  0  0
   61.0138   31.2497   49.8031 H   0  0  0  0  0  0  0  0  0  0  0  0
   60.9578   30.8923   51.5972 H   0  0  0  0  0  0  0  0  0  0  0  0
   61.0330   32.9220   51.0930 N   0  0  0  0  0  0  0  0  0  0  0  0
   61.7530   33.5480   49.9660 C   0  0  0  0  0  0  0  0  0  0  0  0
   62.7439   33.0812   49.8651 H   0  0  0  0  0  0  0  0  0  0  0  0
   61.8602   34.6244   50.1655 H   0  0  0  0  0  0  0  0  0  0  0  0
   60.9870   33.3640   48.6870 C   0  0  0  0  0  0  0  0  0  0  0  0
   61.3520   32.4690   47.8790 O   0  0  0  0  0  0  0  0  0  0  0  0
   59.8260   34.1660   48.4170 N   0  0  0  0  0  0  0  0  0  0  0  0
   59.4180   34.7170   49.2060 H   0  0  0  0  0  0  0  0  0  0  0  0
   59.1260   34.1660   47.1610 C   0  0  0  0  0  0  0  0  0  0  0  0
   59.6000   34.9070   46.0620 C   0  0  0  0  0  0  0  0  0  0  0  0
   60.5320   35.4842   46.1523 H   0  0  0  0  0  0  0  0  0  0  0  0
   58.8920   34.9130   44.8560 C   0  0  0  0  0  0  0  0  0  0  0  0
   59.2730   35.4867   43.9983 H   0  0  0  0  0  0  0  0  0  0  0  0
   57.7010   34.1910   44.7390 C   0  0  0  0  0  0  0  0  0  0  0  0
   57.1488   34.1914   43.7877 H   0  0  0  0  0  0  0  0  0  0  0  0
   57.2120   33.4690   45.8300 C   0  0  0  0  0  0  0  0  0  0  0  0
   56.2718   32.9055   45.7383 H   0  0  0  0  0  0  0  0  0  0  0  0
   57.9160   33.4610   47.0400 C   0  0  0  0  0  0  0  0  0  0  0  0
   57.4260   32.7510   48.0880 F   0  0  0  0  0  0  0  0  0  0  0  0
   59.9530   33.8140   51.5700 C   0  0  0  0  0  0  0  0  0  0  0  0
   59.3619   34.1530   50.7065 H   0  0  0  0  0  0  0  0  0  0  0  0
   60.4140   34.6677   52.0883 H   0  0  0  0  0  0  0  0  0  0  0  0
   59.0280   33.0970   52.5550 C   0  0  0  0  0  0  0  0  0  0  0  0
   58.2152   33.7775   52.8490 H   0  0  0  0  0  0  0  0  0  0  0  0
   59.6119   32.7991   53.4383 H   0  0  0  0  0  0  0  0  0  0  0  0
   57.1520   30.9080   53.7970 C   0  0  0  0  0  0  0  0  0  0  0  0
   58.0400   30.9767   54.4426 H   0  0  0  0  0  0  0  0  0  0  0  0
   55.9580   30.4000   54.3140 C   0  0  0  0  0  0  0  0  0  0  0  0
   55.9172   30.0557   55.3579 H   0  0  0  0  0  0  0  0  0  0  0  0
   51.4400   31.2240   53.7070 C   0  0  0  0  0  0  0  0  0  0  0  0
   50.5934   31.7261   54.1980 H   0  0  0  0  0  0  0  0  0  0  0  0
   51.3850   31.0690   52.2350 C   0  0  0  0  0  0  0  0  0  0  0  0
   51.0140   32.1540   51.4290 C   0  0  0  0  0  0  0  0  0  0  0  0
   50.6830   33.3790   51.9980 O   0  0  0  0  0  0  0  0  0  0  0  0
   50.9950   32.0230   50.0780 N   0  0  0  0  0  0  0  0  0  0  0  0
   51.3160   30.8460   49.4830 C   0  0  0  0  0  0  0  0  0  0  0  0
   51.3020   30.7510   48.2300 O   0  0  0  0  0  0  0  0  0  0  0  0
   51.6450   29.7690   50.2410 N   0  0  0  0  0  0  0  0  0  0  0  0
   51.6770   29.8480   51.5970 C   0  0  0  0  0  0  0  0  0  0  0  0
   51.9590   28.8200   52.2680 O   0  0  0  0  0  0  0  0  0  0  0  0
  1  2  1  0
  2  3  1  0
  3  4  2  0
  3  5  1  0
  5  6  2  0
  6  7  1  0
  6  8  1  0
  8  9  1  0
  8 10  2  0
 10 11  1  0
 11 12  1  0
 12 13  1  0
 12 14  1  0
 12 15  1  0
 15 16  1  0
 15 17  1  0
 15 18  1  0
 18 19  1  0
 19 20  1  0
 19 21  1  0
 19 22  1  0
 22 23  2  0
 22 24  1  0
 24 25  1  0
 24 26  1  0
 26 27  2  0
 27 28  1  0
 27 29  1  0
 29 30  1  0
 29 31  2  0
 31 32  1  0
 31 33  1  0
 33 34  1  0
 33 35  2  0
 35 36  1  0
 18 37  1  0
 37 38  1  0
 37 39  1  0
 37 40  1  0
 40 41  1  0
 40 42  1  0
 10 43  1  0
 43 44  1  0
 43 45  2  0
 45 46  1  0
  2 47  2  0
 47 48  1  0
 47 49  1  0
 49 50  2  0
 50 51  1  0
 50 52  1  0
 52 53  1  0
 53 54  2  0
 53 55  1  0
 55 56  1  0
 56 57  2  0
 45  5  1  0
 56 49  1  0
 40 11  1  0
 35 26  1  0
M  CHG  3  51  -1  52  -1  55  -1
M  END
>  <UniqueID>  (22) 
22

>  <SMILES>  (22) 
O=C(CN1CCN(c2ccc(C(=O)/C=C\c3c([O-])[n-]c(=O)[n-]c3=O)cc2)CC1)Nc1ccccc1F

>  <Energy>  (22) 
87.24146576482126

>  <Genealogy>  (22) 
O=C(CN1CCN(c2ccc(C(=O)C=Cc3c([O-])[n-]c(=O)[n-]c3=O)cc2)CC1)Nc1ccccc1F (protonated)
O=C(CN1CCN(c2ccc(C(=O)/C=C\c3c([O-])[n-]c(=O)[n-]c3=O)cc2)CC1)Nc1ccccc1F (cis-trans isomerization)
O=C(CN1CCN(c2ccc(C(=O)/C=C\c3c([O-])[n-]c(=O)[n-]c3=O)cc2)CC1)Nc1ccccc1F (3D coordinates assigned)
O=C(CN1CCN(c2ccc(C(=O)/C=C\c3c([O-])[n-]c(=O)[n-]c3=O)cc2)CC1)Nc1ccccc1F (nonaromatic ring conformer: 87.24146576482126 kcal/mol)

>  <smiles>  (22) 
O=C(CN1CCN(c2ccc(C(=O)C=Cc3c(O)[nH]c(=O)[nH]c3=O)cc2)CC1)Nc1ccccc1F

>  <score_type>  (22) 
oracle

>  <origin>  (22) 
adg

>  <m_score__min__energy>  (22) 
-17.77

>  <m_primary>  (22) 
energy

$$$$
22:0
     RDKit          3D

 53 55  0  0  0  0  0  0  0  0999 V2000
   64.1110   32.1210   46.7450 N   0  0  0  0  0  0  0  0  0  0  0  0
   62.5760   32.7520   47.2280 S   0  0  0  0  0  0  0  0  0  0  0  0
   62.0560   33.6720   46.1590 O   0  0  0  0  0  0  0  0  0  0  0  0
   62.7330   33.5360   48.5010 O   0  0  0  0  0  0  0  0  0  0  0  0
   61.4450   31.4270   47.4860 C   0  0  0  0  0  0  0  0  0  0  0  0
   60.8130   30.8090   46.3980 C   0  0  0  0  0  0  0  0  0  0  0  0
   59.9290   29.7460   46.6080 C   0  0  0  0  0  0  0  0  0  0  0  0
   59.6650   29.2910   47.9090 C   0  0  0  0  0  0  0  0  0  0  0  0
   58.7580   28.1060   48.1310 C   0  0  0  0  0  0  0  0  0  0  0  0
   59.4820   26.7930   47.8300 C   0  0  0  0  0  0  0  0  0  0  0  0
   58.5130   25.7270   47.6120 N   0  0  0  0  0  0  0  0  0  0  0  0
   57.3770   25.8590   46.7530 C   0  0  0  0  0  0  0  0  0  0  0  0
   56.2670   25.3670   47.1000 O   0  0  0  0  0  0  0  0  0  0  0  0
   57.5020   26.5860   45.4700 C   0  0  0  0  0  0  0  0  0  0  0  0
   58.0470   25.9540   44.3370 C   0  0  0  0  0  0  0  0  0  0  0  0
   58.1540   26.6420   43.1260 C   0  0  0  0  0  0  0  0  0  0  0  0
   57.7200   27.9650   43.0280 C   0  0  0  0  0  0  0  0  0  0  0  0
   57.1720   28.6080   44.1450 C   0  0  0  0  0  0  0  0  0  0  0  0
   56.6300   30.2830   44.0480 S   0  0  0  0  0  0  0  0  0  0  0  0
   56.9600   30.8630   42.7010 O   0  0  0  0  0  0  0  0  0  0  0  0
   55.1380   30.3160   44.2270 O   0  0  0  0  0  0  0  0  0  0  0  0
   57.3690   31.2530   45.2920 N   0  0  0  0  0  0  0  0  0  0  0  0
   57.4570   32.6610   44.8970 C   0  0  0  0  0  0  0  0  0  0  0  0
   58.2600   33.4560   45.8910 C   0  0  0  0  0  0  0  0  0  0  0  0
   58.3480   33.0430   47.2300 C   0  0  0  0  0  0  0  0  0  0  0  0
   59.1000   33.7840   48.1480 C   0  0  0  0  0  0  0  0  0  0  0  0
   59.7680   34.9390   47.7360 C   0  0  0  0  0  0  0  0  0  0  0  0
   59.6880   35.3540   46.4040 C   0  0  0  0  0  0  0  0  0  0  0  0
   58.9380   34.6170   45.4830 C   0  0  0  0  0  0  0  0  0  0  0  0
   57.0650   27.9190   45.3610 C   0  0  0  0  0  0  0  0  0  0  0  0
   60.3120   29.9010   48.9950 C   0  0  0  0  0  0  0  0  0  0  0  0
   61.1970   30.9630   48.7840 C   0  0  0  0  0  0  0  0  0  0  0  0
   64.7780   32.9240   46.7210 H   0  0  0  0  0  0  0  0  0  0  0  0
   64.4340   31.4850   47.5110 H   0  0  0  0  0  0  0  0  0  0  0  0
   61.0132   31.1615   45.3754 H   0  0  0  0  0  0  0  0  0  0  0  0
   59.4383   29.2643   45.7494 H   0  0  0  0  0  0  0  0  0  0  0  0
   58.4249   28.1002   49.1794 H   0  0  0  0  0  0  0  0  0  0  0  0
   57.8972   28.1934   47.4517 H   0  0  0  0  0  0  0  0  0  0  0  0
   60.0978   26.9156   46.9268 H   0  0  0  0  0  0  0  0  0  0  0  0
   60.1216   26.5296   48.6853 H   0  0  0  0  0  0  0  0  0  0  0  0
   58.3910   24.9114   44.4054 H   0  0  0  0  0  0  0  0  0  0  0  0
   58.5819   26.1392   42.2462 H   0  0  0  0  0  0  0  0  0  0  0  0
   57.8085   28.5030   42.0727 H   0  0  0  0  0  0  0  0  0  0  0  0
   57.9396   32.7275   43.9108 H   0  0  0  0  0  0  0  0  0  0  0  0
   56.4392   33.0765   44.8596 H   0  0  0  0  0  0  0  0  0  0  0  0
   57.8238   32.1335   47.5585 H   0  0  0  0  0  0  0  0  0  0  0  0
   59.1652   33.4563   49.1960 H   0  0  0  0  0  0  0  0  0  0  0  0
   60.3569   35.5218   48.4596 H   0  0  0  0  0  0  0  0  0  0  0  0
   60.2164   36.2626   46.0796 H   0  0  0  0  0  0  0  0  0  0  0  0
   58.8784   34.9471   44.4354 H   0  0  0  0  0  0  0  0  0  0  0  0
   56.6354   28.4251   46.2381 H   0  0  0  0  0  0  0  0  0  0  0  0
   60.1220   29.5419   50.0172 H   0  0  0  0  0  0  0  0  0  0  0  0
   61.7001   31.4356   49.6405 H   0  0  0  0  0  0  0  0  0  0  0  0
  1  2  1  0
  2  3  2  0
  2  4  2  0
  2  5  1  0
  5  6  2  0
  6  7  1  0
  7  8  2  0
  8  9  1  0
  9 10  1  0
 10 11  1  0
 11 12  1  0
 12 13  2  0
 12 14  1  0
 14 15  2  0
 15 16  1  0
 16 17  2  0
 17 18  1  0
 18 19  1  0
 19 20  2  0
 19 21  2  0
 19 22  1  0
 22 23  1  0
 23 24  1  0
 24 25  2  0
 25 26  1  0
 26 27  2  0
 27 28  1  0
 28 29  2  0
 18 30  2  0
  8 31  1  0
 31 32  2  0
 32  5  1  0
 30 14  1  0
 29 24  1  0
  1 33  1  0
  1 34  1  0
  6 35  1  0
  7 36  1  0
  9 37  1  0
  9 38  1  0
 10 39  1  0
 10 40  1  0
 15 41  1  0
 16 42  1  0
 17 43  1  0
 23 44  1  0
 23 45  1  0
 25 46  1  0
 26 47  1  0
 27 48  1  0
 28 49  1  0
 29 50  1  0
 30 51  1  0
 31 52  1  0
 32 53  1  0
M  CHG  2  11  -1  22  -1
M  END
>  <UniqueID>  (23) 
23

>  <SMILES>  (23) 
NS(=O)(=O)c1ccc(CC[N-]C(=O)c2cccc(S(=O)(=O)[N-]Cc3ccccc3)c2)cc1

>  <Energy>  (23) 
47.07959695746537

>  <Genealogy>  (23) 
NS(=O)(=O)c1ccc(CC[N-]C(=O)c2cccc(S(=O)(=O)[N-]Cc3ccccc3)c2)cc1 (protonated)
NS(=O)(=O)c1ccc(CC[N-]C(=O)c2cccc(S(=O)(=O)[N-]Cc3ccccc3)c2)cc1 (3D coordinates assigned)
NS(=O)(=O)c1ccc(CC[N-]C(=O)c2cccc(S(=O)(=O)[N-]Cc3ccccc3)c2)cc1 (optimized conformer: 47.07959695746537 kcal/mol)

>  <smiles>  (23) 
NS(=O)(=O)c1ccc(CCNC(=O)c2cccc(S(=O)(=O)NCc3ccccc3)c2)cc1

>  <score_type>  (23) 
oracle

>  <origin>  (23) 
adg

>  <m_score__min__energy>  (23) 
-12.859999999999999

>  <m_primary>  (23) 
energy

$$$$
23:0
     RDKit          3D

 29 30  0  0  0  0  0  0  0  0999 V2000
   55.9650   24.9590   46.2920 C   0  0  0  0  0  0  0  0  0  0  0  0
   57.1710   25.8070   46.0380 C   0  0  0  0  0  0  0  0  0  0  0  0
   58.4460   25.4630   46.4800 C   0  0  0  0  0  0  0  0  0  0  0  0
   59.5220   26.6400   45.9380 S   0  0  0  0  0  0  0  0  0  0  0  0
   58.3290   27.5220   45.1570 C   0  0  0  0  0  0  0  0  0  0  0  0
   58.5600   28.6280   44.5160 N   0  0  0  0  0  0  0  0  0  0  0  0
   57.3820   29.8740   44.2490 S   0  0  0  0  0  0  0  0  0  0  0  0
   56.1560   29.5160   45.0410 O   0  0  0  0  0  0  0  0  0  0  0  0
   57.0160   29.8980   42.7920 O   0  0  0  0  0  0  0  0  0  0  0  0
   58.0530   31.4690   44.6950 C   0  0  0  0  0  0  0  0  0  0  0  0
   58.5200   31.7040   46.0200 C   0  0  0  0  0  0  0  0  0  0  0  0
   58.5170   30.6350   47.0830 C   0  0  0  0  0  0  0  0  0  0  0  0
   58.9700   32.9840   46.3830 C   0  0  0  0  0  0  0  0  0  0  0  0
   59.0150   34.0130   45.4470 C   0  0  0  0  0  0  0  0  0  0  0  0
   58.6150   33.7800   44.1370 C   0  0  0  0  0  0  0  0  0  0  0  0
   58.1430   32.5230   43.7480 C   0  0  0  0  0  0  0  0  0  0  0  0
   57.7160   32.3400   42.0500 Cl  0  0  0  0  0  0  0  0  0  0  0  0
   57.1120   26.9460   45.2940 N   0  0  0  0  0  0  0  0  0  0  0  0
   55.8135   24.8524   47.3763 H   0  0  0  0  0  0  0  0  0  0  0  0
   55.0808   25.4352   45.8432 H   0  0  0  0  0  0  0  0  0  0  0  0
   56.1140   23.9658   45.8432 H   0  0  0  0  0  0  0  0  0  0  0  0
   58.7051   24.5773   47.0786 H   0  0  0  0  0  0  0  0  0  0  0  0
   58.5183   31.1063   48.0769 H   0  0  0  0  0  0  0  0  0  0  0  0
   57.6171   30.0119   46.9738 H   0  0  0  0  0  0  0  0  0  0  0  0
   59.4134   30.0068   46.9738 H   0  0  0  0  0  0  0  0  0  0  0  0
   59.2902   33.1752   47.4179 H   0  0  0  0  0  0  0  0  0  0  0  0
   59.3675   35.0116   45.7446 H   0  0  0  0  0  0  0  0  0  0  0  0
   58.6703   34.5931   43.3982 H   0  0  0  0  0  0  0  0  0  0  0  0
   56.2240   27.3100   44.8820 H   0  0  0  0  0  0  0  0  0  0  0  0
  1  2  1  0
  2  3  2  0
  3  4  1  0
  4  5  1  0
  5  6  2  3
  6  7  1  0
  7  8  2  0
  7  9  2  0
  7 10  1  0
 10 11  2  0
 11 12  1  0
 11 13  1  0
 13 14  2  0
 14 15  1  0
 15 16  2  0
 16 17  1  0
  5 18  1  0
 18  2  1  0
 16 10  1  0
  1 19  1  0
  1 20  1  0
  1 21  1  0
  3 22  1  0
 12 23  1  0
 12 24  1  0
 12 25  1  0
 13 26  1  0
 14 27  1  0
 15 28  1  0
 18 29  1  0
M  END
>  <UniqueID>  (24) 
24

>  <SMILES>  (24) 
Cc1csc(=NS(=O)(=O)c2c(C)cccc2Cl)[nH]1

>  <Energy>  (24) 
66.4224502979398

>  <Genealogy>  (24) 
Cc1csc(=NS(=O)(=O)c2c(C)cccc2Cl)[nH]1 (3D coordinates assigned)
Cc1csc(=NS(=O)(=O)c2c(C)cccc2Cl)[nH]1 (optimized conformer: 66.4224502979398 kcal/mol)

>  <smiles>  (24) 
Cc1csc(=NS(=O)(=O)c2c(C)cccc2Cl)[nH]1

>  <score_type>  (24) 
oracle

>  <origin>  (24) 
adg

>  <m_score__min__energy>  (24) 
-7.0300000000000002

>  <m_primary>  (24) 
energy

$$$$
24:0
     RDKit          3D

 37 38  0  0  0  0  0  0  0  0999 V2000
   60.2060   25.6050   46.3500 C   0  0  0  0  0  0  0  0  0  0  0  0
   59.2770   26.5100   46.0280 C   0  0  0  0  0  0  0  0  0  0  0  0
   59.6650   27.7820   45.4940 N   0  0  0  0  0  0  0  0  0  0  0  0
   58.6980   28.7810   45.1330 C   0  0  0  0  0  0  0  0  0  0  0  0
   57.3720   28.5810   45.2780 C   0  0  0  0  0  0  0  0  0  0  0  0
   56.4150   29.6490   44.8870 C   0  0  0  0  0  0  0  0  0  0  0  0
   55.2250   29.3540   44.5790 O   0  0  0  0  0  0  0  0  0  0  0  0
   56.8310   30.9850   44.8490 O   0  0  0  0  0  0  0  0  0  0  0  0
   57.6370   31.5380   43.8080 C   0  0  1  0  0  0  0  0  0  0  0  0
   57.0230   31.2190   42.4410 C   0  0  0  0  0  0  0  0  0  0  0  0
   57.7370   33.0560   44.0090 C   0  0  0  0  0  0  0  0  0  0  0  0
   57.3680   33.4140   45.3400 O   0  0  0  0  0  0  0  0  0  0  0  0
   58.2530   33.5840   46.4180 C   0  0  0  0  0  0  0  0  0  0  0  0
   59.2380   34.5930   46.4460 C   0  0  0  0  0  0  0  0  0  0  0  0
   60.0920   34.7110   47.5470 C   0  0  0  0  0  0  0  0  0  0  0  0
   59.9720   33.8320   48.6270 C   0  0  0  0  0  0  0  0  0  0  0  0
   58.9940   32.8350   48.6080 C   0  0  0  0  0  0  0  0  0  0  0  0
   58.1390   32.7130   47.5090 C   0  0  0  0  0  0  0  0  0  0  0  0
   56.8820   27.2880   45.8320 C   0  0  0  0  0  0  0  0  0  0  0  0
   55.6490   27.0760   45.9880 O   0  0  0  0  0  0  0  0  0  0  0  0
   57.8410   26.2400   46.2090 C   0  0  0  0  0  0  0  0  0  0  0  0
   57.4330   25.1410   46.6750 O   0  0  0  0  0  0  0  0  0  0  0  0
   59.9049   24.6295   46.7597 H   0  0  0  0  0  0  0  0  0  0  0  0
   61.2718   25.8355   46.2054 H   0  0  0  0  0  0  0  0  0  0  0  0
   60.6780   28.0050   45.3540 H   0  0  0  0  0  0  0  0  0  0  0  0
   59.0502   29.7400   44.7252 H   0  0  0  0  0  0  0  0  0  0  0  0
   58.6442   31.0973   43.8441 H   0  0  0  0  0  0  0  0  0  0  0  0
   56.0550   30.7161   42.5822 H   0  0  0  0  0  0  0  0  0  0  0  0
   56.8725   32.1530   41.8797 H   0  0  0  0  0  0  0  0  0  0  0  0
   57.7007   30.5590   41.8797 H   0  0  0  0  0  0  0  0  0  0  0  0
   58.7723   33.3775   43.8225 H   0  0  0  0  0  0  0  0  0  0  0  0
   57.0509   33.5517   43.3064 H   0  0  0  0  0  0  0  0  0  0  0  0
   59.3347   35.2889   45.5996 H   0  0  0  0  0  0  0  0  0  0  0  0
   60.8605   35.4979   47.5631 H   0  0  0  0  0  0  0  0  0  0  0  0
   60.6468   33.9253   49.4907 H   0  0  0  0  0  0  0  0  0  0  0  0
   58.8965   32.1449   49.4590 H   0  0  0  0  0  0  0  0  0  0  0  0
   57.3701   31.9264   47.5008 H   0  0  0  0  0  0  0  0  0  0  0  0
  1  2  2  0
  2  3  1  0
  3  4  1  0
  4  5  2  0
  5  6  1  0
  6  7  2  0
  6  8  1  0
  8  9  1  0
  9 10  1  0
  9 11  1  0
 11 12  1  0
 12 13  1  0
 13 14  2  0
 14 15  1  0
 15 16  2  0
 16 17  1  0
 17 18  2  0
  5 19  1  0
 19 20  2  0
 19 21  1  0
 21 22  2  0
 21  2  1  0
 18 13  1  0
  1 23  1  0
  1 24  1  0
  3 25  1  0
  4 26  1  0
  9 27  1  6
 10 28  1  0
 10 29  1  0
 10 30  1  0
 11 31  1  0
 11 32  1  0
 14 33  1  0
 15 34  1  0
 16 35  1  0
 17 36  1  0
 18 37  1  0
M  END
>  <UniqueID>  (25) 
25

>  <SMILES>  (25) 
C=C1NC=C(C(=O)O[C@@H](C)COc2ccccc2)C(=O)C1=O

>  <Energy>  (25) 
31.671413616422996

>  <Genealogy>  (25) 
C=C1NC=C(C(=O)O[C@@H](C)COc2ccccc2)C(=O)C1=O (chirality)
C=C1NC=C(C(=O)O[C@@H](C)COc2ccccc2)C(=O)C1=O (3D coordinates assigned)
C=C1NC=C(C(=O)O[C@@H](C)COc2ccccc2)C(=O)C1=O (nonaromatic ring conformer: 31.671413616422996 kcal/mol)

>  <smiles>  (25) 
C=C1NC=C(C(=O)OC(C)COc2ccccc2)C(=O)C1=O

>  <score_type>  (25) 
oracle

>  <origin>  (25) 
adg

>  <m_score__min__energy>  (25) 
-7.6799999999999997

>  <m_primary>  (25) 
energy

$$$$
25:0
     RDKit          3D

 46 49  0  0  0  0  0  0  0  0999 V2000
   62.4500   33.8120   46.9390 C   0  0  0  0  0  0  0  0  0  0  0  0
   61.1490   33.2930   47.5720 C   0  0  2  0  0  0  0  0  0  0  0  0
   59.9260   33.5720   46.6960 C   0  0  0  0  0  0  0  0  0  0  0  0
   59.9690   34.6010   45.7310 C   0  0  0  0  0  0  0  0  0  0  0  0
   58.8700   34.8560   44.9060 C   0  0  0  0  0  0  0  0  0  0  0  0
   57.7140   34.0820   45.0200 C   0  0  0  0  0  0  0  0  0  0  0  0
   57.6580   33.0480   45.9540 C   0  0  0  0  0  0  0  0  0  0  0  0
   58.7550   32.7870   46.7820 C   0  0  0  0  0  0  0  0  0  0  0  0
   61.0080   33.8800   48.9100 N   0  0  0  0  0  0  0  0  0  0  0  0
   61.0130   32.8310   49.8650 C   0  0  0  0  0  0  0  0  0  0  0  0
   60.8620   33.0200   51.1010 O   0  0  0  0  0  0  0  0  0  0  0  0
   61.1880   31.5530   49.2810 N   0  0  0  0  0  0  0  0  0  0  0  0
   60.9110   30.2610   49.9090 C   0  0  0  0  0  0  0  0  0  0  0  0
   59.5330   29.7550   49.5530 C   0  0  0  0  0  0  0  0  0  0  0  0
   58.5290   30.4830   49.7790 O   0  0  0  0  0  0  0  0  0  0  0  0
   59.3110   28.4610   48.9650 N   0  0  0  0  0  0  0  0  0  0  0  0
   58.7390   28.1770   47.8310 C   0  0  0  0  0  0  0  0  0  0  0  0
   58.1700   26.9910   47.5310 N   0  0  0  0  0  0  0  0  0  0  0  0
   57.6540   26.9750   46.2690 C   0  0  0  0  0  0  0  0  0  0  0  0
   56.9870   25.7710   45.7100 C   0  0  0  0  0  0  0  0  0  0  0  0
   57.7560   24.6980   45.2170 C   0  0  0  0  0  0  0  0  0  0  0  0
   57.1370   23.5540   44.7040 C   0  0  0  0  0  0  0  0  0  0  0  0
   55.7450   23.4640   44.6760 C   0  0  0  0  0  0  0  0  0  0  0  0
   54.9680   24.5170   45.1620 C   0  0  0  0  0  0  0  0  0  0  0  0
   55.5770   25.6670   45.6760 C   0  0  0  0  0  0  0  0  0  0  0  0
   54.7690   26.7030   46.1330 O   0  0  0  0  0  0  0  0  0  0  0  0
   57.8210   28.1730   45.5640 C   0  0  0  0  0  0  0  0  0  0  0  0
   58.6320   29.2620   46.5570 S   0  0  0  0  0  0  0  0  0  0  0  0
   61.2500   31.8190   47.8830 C   0  0  0  0  0  0  0  0  0  0  0  0
   61.3680   30.9110   47.0160 O   0  0  0  0  0  0  0  0  0  0  0  0
   63.1570   34.0941   47.7331 H   0  0  0  0  0  0  0  0  0  0  0  0
   62.8948   33.0225   46.3155 H   0  0  0  0  0  0  0  0  0  0  0  0
   62.2292   34.6909   46.3155 H   0  0  0  0  0  0  0  0  0  0  0  0
   60.8791   35.2101   45.6269 H   0  0  0  0  0  0  0  0  0  0  0  0
   58.9161   35.6681   44.1655 H   0  0  0  0  0  0  0  0  0  0  0  0
   56.8480   34.2875   44.3737 H   0  0  0  0  0  0  0  0  0  0  0  0
   56.7483   32.4356   46.0400 H   0  0  0  0  0  0  0  0  0  0  0  0
   58.7050   31.9618   47.5076 H   0  0  0  0  0  0  0  0  0  0  0  0
   60.9570   34.9000   49.1320 H   0  0  0  0  0  0  0  0  0  0  0  0
   61.6590   29.5303   49.5677 H   0  0  0  0  0  0  0  0  0  0  0  0
   60.9590   30.3910   51.0002 H   0  0  0  0  0  0  0  0  0  0  0  0
   58.8540   24.7610   45.2359 H   0  0  0  0  0  0  0  0  0  0  0  0
   57.7486   22.7234   44.3218 H   0  0  0  0  0  0  0  0  0  0  0  0
   55.2599   22.5636   44.2711 H   0  0  0  0  0  0  0  0  0  0  0  0
   53.8708   24.4422   45.1407 H   0  0  0  0  0  0  0  0  0  0  0  0
   57.4802   28.3687   44.5366 H   0  0  0  0  0  0  0  0  0  0  0  0
  2  1  1  6
  2  3  1  0
  3  4  2  0
  4  5  1  0
  5  6  2  0
  6  7  1  0
  7  8  2  0
  2  9  1  0
  9 10  1  0
 10 11  2  0
 10 12  1  0
 12 13  1  0
 13 14  1  0
 14 15  2  0
 14 16  1  0
 16 17  2  3
 17 18  1  0
 18 19  1  0
 19 20  1  0
 20 21  2  0
 21 22  1  0
 22 23  2  0
 23 24  1  0
 24 25  2  0
 25 26  1  0
 19 27  2  0
 27 28  1  0
 12 29  1  0
 29 30  2  0
 29  2  1  0
  8  3  1  0
 28 17  1  0
 25 20  1  0
  1 31  1  0
  1 32  1  0
  1 33  1  0
  4 34  1  0
  5 35  1  0
  6 36  1  0
  7 37  1  0
  8 38  1  0
  9 39  1  0
 13 40  1  0
 13 41  1  0
 21 42  1  0
 22 43  1  0
 23 44  1  0
 24 45  1  0
 27 46  1  0
M  CHG  2  18  -1  26  -1
M  END
>  <UniqueID>  (26) 
26

>  <SMILES>  (26) 
C[C@]1(c2ccccc2)NC(=O)N(CC(=O)N=c2[n-]c(-c3ccccc3[O-])cs2)C1=O

>  <Energy>  (26) 
106.89591511113477

>  <Genealogy>  (26) 
CC1(c2ccccc2)NC(=O)N(CC(=O)N=c2[n-]c(-c3ccccc3[O-])cs2)C1=O (protonated)
C[C@]1(c2ccccc2)NC(=O)N(CC(=O)N=c2[n-]c(-c3ccccc3[O-])cs2)C1=O (chirality)
C[C@]1(c2ccccc2)NC(=O)N(CC(=O)N=c2[n-]c(-c3ccccc3[O-])cs2)C1=O (3D coordinates assigned)
C[C@]1(c2ccccc2)NC(=O)N(CC(=O)N=c2[n-]c(-c3ccccc3[O-])cs2)C1=O (nonaromatic ring conformer: 106.89591511113477 kcal/mol)

>  <smiles>  (26) 
CC1(c2ccccc2)NC(=O)N(CC(=O)N=c2[nH]c(-c3ccccc3O)cs2)C1=O

>  <score_type>  (26) 
oracle

>  <origin>  (26) 
adg

>  <m_score__min__energy>  (26) 
-15.220000000000001

>  <m_primary>  (26) 
energy

$$$$
26:0
     RDKit          3D

 54 57  0  0  0  0  0  0  0  0999 V2000
   55.1760   29.3720   44.6730 N   0  0  0  0  0  0  0  0  0  0  0  0
   56.5720   29.5540   44.4440 C   0  0  0  0  0  0  0  0  0  0  0  0
   57.0980   29.0490   43.4150 O   0  0  0  0  0  0  0  0  0  0  0  0
   57.3980   30.3270   45.4030 C   0  0  0  0  0  0  0  0  0  0  0  0
   57.4420   31.7300   45.3420 C   0  0  0  0  0  0  0  0  0  0  0  0
   58.2230   32.4570   46.2460 C   0  0  0  0  0  0  0  0  0  0  0  0
   58.9760   31.7960   47.2280 C   0  0  0  0  0  0  0  0  0  0  0  0
   59.8170   32.5880   48.2010 C   0  0  1  0  0  0  0  0  0  0  0  0
   58.9650   32.6910   49.8200 S   0  0  0  0  0  0  0  0  0  0  0  0
   60.2040   31.6580   50.6690 C   0  0  0  0  0  0  0  0  0  0  0  0
   61.2890   31.4010   49.6990 C   0  0  0  0  0  0  0  0  0  0  0  0
   62.2810   30.6850   49.9990 O   0  0  0  0  0  0  0  0  0  0  0  0
   61.1180   31.9560   48.4000 N   0  0  0  0  0  0  0  0  0  0  0  0
   62.1320   31.8700   47.3390 C   0  0  0  0  0  0  0  0  0  0  0  0
   62.6910   33.2280   47.0000 C   0  0  0  0  0  0  0  0  0  0  0  0
   62.3250   33.8030   45.9410 O   0  0  0  0  0  0  0  0  0  0  0  0
   63.7670   33.8020   47.7530 N   0  0  0  0  0  0  0  0  0  0  0  0
   64.1040   33.4740   49.1060 C   0  0  0  0  0  0  0  0  0  0  0  0
   63.3160   33.9700   50.1500 C   0  0  0  0  0  0  0  0  0  0  0  0
   63.6210   33.6500   51.4750 C   0  0  0  0  0  0  0  0  0  0  0  0
   64.7020   32.8110   51.7630 C   0  0  0  0  0  0  0  0  0  0  0  0
   65.4720   32.2650   50.7240 C   0  0  0  0  0  0  0  0  0  0  0  0
   66.6230   31.3880   51.0300 C   0  0  0  0  0  0  0  0  0  0  0  0
   67.7700   31.9000   51.1410 O   0  0  0  0  0  0  0  0  0  0  0  0
   66.4660   29.9680   51.1840 N   0  0  0  0  0  0  0  0  0  0  0  0
   67.5210   29.0230   50.8600 C   0  0  0  0  0  0  0  0  0  0  0  0
   67.1020   27.7000   51.4900 C   0  0  0  0  0  0  0  0  0  0  0  0
   65.6280   27.8550   51.8560 C   0  0  0  0  0  0  0  0  0  0  0  0
   65.3710   29.3540   51.9170 C   0  0  0  0  0  0  0  0  0  0  0  0
   65.1650   32.6040   49.3960 C   0  0  0  0  0  0  0  0  0  0  0  0
   58.9310   30.3930   47.2930 C   0  0  0  0  0  0  0  0  0  0  0  0
   58.1510   29.6660   46.3900 C   0  0  0  0  0  0  0  0  0  0  0  0
   54.7890   29.3550   45.6430 H   0  0  0  0  0  0  0  0  0  0  0  0
   56.8571   32.2611   44.5766 H   0  0  0  0  0  0  0  0  0  0  0  0
   58.2471   33.5551   46.1867 H   0  0  0  0  0  0  0  0  0  0  0  0
   59.9630   33.5943   47.7815 H   0  0  0  0  0  0  0  0  0  0  0  0
   60.6002   32.1884   51.5475 H   0  0  0  0  0  0  0  0  0  0  0  0
   59.7572   30.7152   51.0176 H   0  0  0  0  0  0  0  0  0  0  0  0
   62.9519   31.2205   47.6795 H   0  0  0  0  0  0  0  0  0  0  0  0
   61.6552   31.4574   46.4376 H   0  0  0  0  0  0  0  0  0  0  0  0
   62.4530   34.6144   49.9267 H   0  0  0  0  0  0  0  0  0  0  0  0
   63.0098   34.0586   52.2932 H   0  0  0  0  0  0  0  0  0  0  0  0
   64.9502   32.5777   52.8089 H   0  0  0  0  0  0  0  0  0  0  0  0
   67.6165   28.9146   49.7695 H   0  0  0  0  0  0  0  0  0  0  0  0
   68.4970   29.3605   51.2389 H   0  0  0  0  0  0  0  0  0  0  0  0
   67.2329   26.8767   50.7723 H   0  0  0  0  0  0  0  0  0  0  0  0
   67.7133   27.4635   52.3734 H   0  0  0  0  0  0  0  0  0  0  0  0
   64.9919   27.3882   51.0895 H   0  0  0  0  0  0  0  0  0  0  0  0
   65.3949   27.3651   52.8129 H   0  0  0  0  0  0  0  0  0  0  0  0
   64.4080   29.5981   51.4446 H   0  0  0  0  0  0  0  0  0  0  0  0
   65.3213   29.7168   52.9543 H   0  0  0  0  0  0  0  0  0  0  0  0
   65.7632   32.1826   48.5747 H   0  0  0  0  0  0  0  0  0  0  0  0
   59.5142   29.8631   48.0605 H   0  0  0  0  0  0  0  0  0  0  0  0
   58.1257   28.5680   46.4515 H   0  0  0  0  0  0  0  0  0  0  0  0
  1  2  1  0
  2  3  2  0
  2  4  1  0
  4  5  2  0
  5  6  1  0
  6  7  2  0
  7  8  1  0
  8  9  1  0
  9 10  1  0
 10 11  1  0
 11 12  2  0
 11 13  1  0
 13 14  1  0
 14 15  1  0
 15 16  2  0
 15 17  1  0
 17 18  1  0
 18 19  2  0
 19 20  1  0
 20 21  2  0
 21 22  1  0
 22 23  1  0
 23 24  2  0
 23 25  1  0
 25 26  1  0
 26 27  1  0
 27 28  1  0
 28 29  1  0
 22 30  2  0
  7 31  1  0
 31 32  2  0
 32  4  1  0
 13  8  1  0
 30 18  1  0
 29 25  1  0
  1 33  1  0
  5 34  1  0
  6 35  1  0
  8 36  1  6
 10 37  1  0
 10 38  1  0
 14 39  1  0
 14 40  1  0
 19 41  1  0
 20 42  1  0
 21 43  1  0
 26 44  1  0
 26 45  1  0
 27 46  1  0
 27 47  1  0
 28 48  1  0
 28 49  1  0
 29 50  1  0
 29 51  1  0
 30 52  1  0
 31 53  1  0
 32 54  1  0
M  CHG  2   1  -1  17  -1
M  END
>  <UniqueID>  (27) 
27

>  <SMILES>  (27) 
[NH-]C(=O)c1ccc([C@H]2SCC(=O)N2CC(=O)[N-]c2cccc(C(=O)N3CCCC3)c2)cc1

>  <Energy>  (27) 
63.25446298309733

>  <Genealogy>  (27) 
[NH-]C(=O)c1ccc(C2SCC(=O)N2CC(=O)[N-]c2cccc(C(=O)N3CCCC3)c2)cc1 (protonated)
[NH-]C(=O)c1ccc([C@H]2SCC(=O)N2CC(=O)[N-]c2cccc(C(=O)N3CCCC3)c2)cc1 (chirality)
[NH-]C(=O)c1ccc([C@H]2SCC(=O)N2CC(=O)[N-]c2cccc(C(=O)N3CCCC3)c2)cc1 (3D coordinates assigned)
[NH-]C(=O)c1ccc([C@H]2SCC(=O)N2CC(=O)[N-]c2cccc(C(=O)N3CCCC3)c2)cc1 (nonaromatic ring conformer: 63.25446298309733 kcal/mol)

>  <smiles>  (27) 
NC(=O)c1ccc(C2SCC(=O)N2CC(=O)Nc2cccc(C(=O)N3CCCC3)c2)cc1

>  <score_type>  (27) 
oracle

>  <origin>  (27) 
adg

>  <m_score__min__energy>  (27) 
-13.460000000000001

>  <m_primary>  (27) 
energy

$$$$
27:0
     RDKit          3D

 36 38  0  0  0  0  0  0  0  0999 V2000
   60.0715   27.6346   46.4364 H   0  0  0  0  0  0  0  0  0  0  0  0
   59.7460   26.6580   46.8240 C   0  0  0  0  0  0  0  0  0  0  0  0
   60.4749   25.9831   47.2965 H   0  0  0  0  0  0  0  0  0  0  0  0
   58.4670   26.2920   46.7210 C   0  0  0  0  0  0  0  0  0  0  0  0
   58.0200   25.1010   47.1830 N   0  0  0  0  0  0  0  0  0  0  0  0
   56.6910   25.1180   46.9520 C   0  0  0  0  0  0  0  0  0  0  0  0
   55.8900   24.0910   47.2750 C   0  0  0  0  0  0  0  0  0  0  0  0
   55.0097   24.3081   47.8978 H   0  0  0  0  0  0  0  0  0  0  0  0
   56.1070   22.6630   46.8480 C   0  0  0  0  0  0  0  0  0  0  0  0
   57.0066   22.2744   47.3477 H   0  0  0  0  0  0  0  0  0  0  0  0
   55.2168   22.0819   47.1304 H   0  0  0  0  0  0  0  0  0  0  0  0
   56.2890   22.5480   45.3550 C   0  0  0  0  0  0  0  0  0  0  0  0
   57.1790   21.6010   44.8170 C   0  0  0  0  0  0  0  0  0  0  0  0
   57.7594   20.9521   45.4893 H   0  0  0  0  0  0  0  0  0  0  0  0
   57.3300   21.4800   43.4320 C   0  0  0  0  0  0  0  0  0  0  0  0
   58.0359   20.7449   43.0181 H   0  0  0  0  0  0  0  0  0  0  0  0
   56.5850   22.2920   42.5740 C   0  0  0  0  0  0  0  0  0  0  0  0
   56.7083   22.1995   41.4849 H   0  0  0  0  0  0  0  0  0  0  0  0
   55.6830   23.2220   43.0980 C   0  0  0  0  0  0  0  0  0  0  0  0
   55.0942   23.8580   42.4207 H   0  0  0  0  0  0  0  0  0  0  0  0
   55.5280   23.3450   44.4820 C   0  0  0  0  0  0  0  0  0  0  0  0
   54.8071   24.0689   44.8898 H   0  0  0  0  0  0  0  0  0  0  0  0
   56.3620   26.3250   46.3580 C   0  0  0  0  0  0  0  0  0  0  0  0
   55.2150   26.7000   45.9960 O   0  0  0  0  0  0  0  0  0  0  0  0
   57.4770   27.0630   46.2040 N   0  0  0  0  0  0  0  0  0  0  0  0
   57.5640   28.3660   45.6000 C   0  0  0  0  0  0  0  0  0  0  0  0
   57.0330   28.5950   44.3200 C   0  0  0  0  0  0  0  0  0  0  0  0
   56.5593   27.7699   43.7678 H   0  0  0  0  0  0  0  0  0  0  0  0
   57.1040   29.8670   43.7450 C   0  0  0  0  0  0  0  0  0  0  0  0
   56.6921   30.0388   42.7396 H   0  0  0  0  0  0  0  0  0  0  0  0
   57.6980   30.9220   44.4460 C   0  0  0  0  0  0  0  0  0  0  0  0
   57.7840   32.5180   43.7240 Cl  0  0  0  0  0  0  0  0  0  0  0  0
   58.2180   30.7030   45.7260 C   0  0  0  0  0  0  0  0  0  0  0  0
   58.6821   31.5327   46.2794 H   0  0  0  0  0  0  0  0  0  0  0  0
   58.1490   29.4320   46.3030 C   0  0  0  0  0  0  0  0  0  0  0  0
   58.5545   29.2658   47.3119 H   0  0  0  0  0  0  0  0  0  0  0  0
  1  2  1  0
  2  3  1  0
  2  4  2  0
  4  5  1  0
  5  6  1  0
  6  7  2  0
  7  8  1  0
  7  9  1  0
  9 10  1  0
  9 11  1  0
  9 12  1  0
 12 13  2  0
 13 14  1  0
 13 15  1  0
 15 16  1  0
 15 17  2  0
 17 18  1  0
 17 19  1  0
 19 20  1  0
 19 21  2  0
 21 22  1  0
  6 23  1  0
 23 24  2  0
 23 25  1  0
 25 26  1  0
 26 27  2  0
 27 28  1  0
 27 29  1  0
 29 30  1  0
 29 31  2  0
 31 32  1  0
 31 33  1  0
 33 34  1  0
 33 35  2  0
 35 36  1  0
 25  4  1  0
 35 26  1  0
 21 12  1  0
M  CHG  1   5  -1
M  END
>  <UniqueID>  (28) 
28

>  <SMILES>  (28) 
C=c1[n-]/c(=C/Cc2ccccc2)c(=O)n1-c1ccc(Cl)cc1

>  <Energy>  (28) 
78.20788066031749

>  <Genealogy>  (28) 
C=c1[n-]c(=CCc2ccccc2)c(=O)n1-c1ccc(Cl)cc1 (protonated)
C=c1[n-]/c(=C/Cc2ccccc2)c(=O)n1-c1ccc(Cl)cc1 (cis-trans isomerization)
C=c1[n-]/c(=C/Cc2ccccc2)c(=O)n1-c1ccc(Cl)cc1 (3D coordinates assigned)
C=c1[n-]/c(=C/Cc2ccccc2)c(=O)n1-c1ccc(Cl)cc1 (optimized conformer: 78.20788066031749 kcal/mol)

>  <smiles>  (28) 
C=c1[nH]c(=CCc2ccccc2)c(=O)n1-c1ccc(Cl)cc1

>  <score_type>  (28) 
oracle

>  <origin>  (28) 
adg

>  <m_score__min__energy>  (28) 
-9.1799999999999997

>  <m_primary>  (28) 
energy

$$$$
28:0
     RDKit          3D

 44 46  0  0  0  0  0  0  0  0999 V2000
   61.8630   33.8100   46.3960 C   0  0  0  0  0  0  0  0  0  0  0  0
   61.3060   33.5790   47.5870 C   0  0  0  0  0  0  0  0  0  0  0  0
   59.8270   33.7240   47.8100 C   0  0  0  0  0  0  0  0  0  0  0  0
   59.0750   33.0280   46.7580 N   0  0  0  0  0  0  0  0  0  0  0  0
   58.4020   33.7560   45.7160 C   0  0  0  0  0  0  0  0  0  0  0  0
   58.6530   34.9740   45.5110 O   0  0  0  0  0  0  0  0  0  0  0  0
   57.3400   33.0680   44.9160 C   0  0  0  0  0  0  0  0  0  0  0  0
   57.8070   31.6700   44.4620 C   0  0  2  0  0  0  0  0  0  0  0  0
   56.6280   30.8960   43.8120 C   0  0  0  0  0  0  0  0  0  0  0  0
   56.7930   29.3620   43.8170 C   0  0  0  0  0  0  0  0  0  0  0  0
   58.2320   28.9210   44.0890 C   0  0  0  0  0  0  0  0  0  0  0  0
   58.7450   29.5620   45.3560 C   0  0  0  0  0  0  0  0  0  0  0  0
   59.6480   28.7600   46.2100 C   0  0  0  0  0  0  0  0  0  0  0  0
   60.8870   28.9870   46.1850 O   0  0  0  0  0  0  0  0  0  0  0  0
   59.1080   27.7420   47.0650 N   0  0  0  0  0  0  0  0  0  0  0  0
   58.1490   26.7370   46.7040 C   0  0  0  0  0  0  0  0  0  0  0  0
   58.5890   25.4140   46.5620 C   0  0  0  0  0  0  0  0  0  0  0  0
   57.6930   24.4070   46.1950 C   0  0  0  0  0  0  0  0  0  0  0  0
   56.3520   24.7170   45.9510 C   0  0  0  0  0  0  0  0  0  0  0  0
   55.9060   26.0370   46.0630 C   0  0  0  0  0  0  0  0  0  0  0  0
   54.5710   26.3340   45.7990 O   0  0  0  0  0  0  0  0  0  0  0  0
   56.8040   27.0480   46.4340 C   0  0  0  0  0  0  0  0  0  0  0  0
   58.4720   30.8720   45.5800 C   0  0  0  0  0  0  0  0  0  0  0  0
   58.9110   31.6000   46.8050 C   0  0  0  0  0  0  0  0  0  0  0  0
   59.0890   30.9840   47.8910 O   0  0  0  0  0  0  0  0  0  0  0  0
   62.9491   33.6950   46.2652 H   0  0  0  0  0  0  0  0  0  0  0  0
   61.2358   34.1153   45.5454 H   0  0  0  0  0  0  0  0  0  0  0  0
   61.9468   33.2744   48.4276 H   0  0  0  0  0  0  0  0  0  0  0  0
   59.5648   33.2928   48.7874 H   0  0  0  0  0  0  0  0  0  0  0  0
   59.5675   34.7926   47.7836 H   0  0  0  0  0  0  0  0  0  0  0  0
   56.4363   32.9620   45.5341 H   0  0  0  0  0  0  0  0  0  0  0  0
   57.1276   33.6733   44.0224 H   0  0  0  0  0  0  0  0  0  0  0  0
   58.5892   31.8135   43.7021 H   0  0  0  0  0  0  0  0  0  0  0  0
   55.7083   31.1449   44.3617 H   0  0  0  0  0  0  0  0  0  0  0  0
   56.5936   31.2047   42.7568 H   0  0  0  0  0  0  0  0  0  0  0  0
   56.1429   28.9413   44.5983 H   0  0  0  0  0  0  0  0  0  0  0  0
   56.5183   28.9963   42.8166 H   0  0  0  0  0  0  0  0  0  0  0  0
   58.2619   27.8268   44.1979 H   0  0  0  0  0  0  0  0  0  0  0  0
   58.8674   29.2330   43.2471 H   0  0  0  0  0  0  0  0  0  0  0  0
   59.6460   25.1671   46.7406 H   0  0  0  0  0  0  0  0  0  0  0  0
   58.0432   23.3688   46.0979 H   0  0  0  0  0  0  0  0  0  0  0  0
   55.6466   23.9209   45.6704 H   0  0  0  0  0  0  0  0  0  0  0  0
   53.8220   25.9690   46.3760 H   0  0  0  0  0  0  0  0  0  0  0  0
   56.4554   28.0882   46.5142 H   0  0  0  0  0  0  0  0  0  0  0  0
  1  2  2  0
  2  3  1  0
  3  4  1  0
  4  5  1  0
  5  6  2  0
  5  7  1  0
  7  8  1  0
  8  9  1  0
  9 10  1  0
 10 11  1  0
 11 12  1  0
 12 13  1  0
 13 14  2  0
 13 15  1  0
 15 16  1  0
 16 17  2  0
 17 18  1  0
 18 19  2  0
 19 20  1  0
 20 21  1  0
 20 22  2  0
 12 23  2  0
 23 24  1  0
 24 25  2  0
 24  4  1  0
 23  8  1  0
 22 16  1  0
  1 26  1  0
  1 27  1  0
  2 28  1  0
  3 29  1  0
  3 30  1  0
  7 31  1  0
  7 32  1  0
  8 33  1  6
  9 34  1  0
  9 35  1  0
 10 36  1  0
 10 37  1  0
 11 38  1  0
 11 39  1  0
 17 40  1  0
 18 41  1  0
 19 42  1  0
 21 43  1  0
 22 44  1  0
M  CHG  1  15  -1
M  END
>  <UniqueID>  (29) 
29

>  <SMILES>  (29) 
C=CCN1C(=O)C[C@@H]2CCCC(C(=O)[N-]c3cccc(O)c3)=C2C1=O

>  <Energy>  (29) 
60.00138613809194

>  <Genealogy>  (29) 
C=CCN1C(=O)CC2CCCC(C(=O)[N-]c3cccc(O)c3)=C2C1=O (protonated)
C=CCN1C(=O)C[C@@H]2CCCC(C(=O)[N-]c3cccc(O)c3)=C2C1=O (chirality)
C=CCN1C(=O)C[C@@H]2CCCC(C(=O)[N-]c3cccc(O)c3)=C2C1=O (3D coordinates assigned)
C=CCN1C(=O)C[C@@H]2CCCC(C(=O)[N-]c3cccc(O)c3)=C2C1=O (nonaromatic ring conformer: 60.00138613809194 kcal/mol)

>  <smiles>  (29) 
C=CCN1C(=O)CC2CCCC(C(=O)Nc3cccc(O)c3)=C2C1=O

>  <score_type>  (29) 
oracle

>  <origin>  (29) 
adg

>  <m_score__min__energy>  (29) 
-10.73

>  <m_primary>  (29) 
energy

$$$$
29:0
     RDKit          3D

 49 51  0  0  0  0  0  0  0  0999 V2000
   61.8360   33.7060   48.7350 O   0  0  0  0  0  0  0  0  0  0  0  0
   60.6370   33.9710   48.4510 C   0  0  0  0  0  0  0  0  0  0  0  0
   60.2680   34.2520   47.0250 C   0  0  0  0  0  0  0  0  0  0  0  0
   59.7050   33.0420   46.3970 N   0  0  0  0  0  0  0  0  0  0  0  0
   60.2600   31.8260   46.7010 C   0  0  0  0  0  0  0  0  0  0  0  0
   59.7360   30.6430   46.1770 C   0  0  0  0  0  0  0  0  0  0  0  0
   58.6190   30.6900   45.3240 C   0  0  0  0  0  0  0  0  0  0  0  0
   58.0340   29.4730   44.7800 N   0  0  1  0  0  0  0  0  0  0  0  0
   58.7150   28.2810   45.3410 C   0  0  0  0  0  0  0  0  0  0  0  0
   57.9980   26.9840   44.9490 C   0  0  0  0  0  0  0  0  0  0  0  0
   56.5980   26.9840   45.5590 C   0  0  0  0  0  0  0  0  0  0  0  0
   55.9050   28.2300   45.2340 N   0  0  0  0  0  0  0  0  0  0  0  0
   56.5960   29.4570   44.9800 C   0  0  0  0  0  0  0  0  0  0  0  0
   55.9180   30.5020   44.7770 O   0  0  0  0  0  0  0  0  0  0  0  0
   58.0620   31.9450   45.0160 C   0  0  0  0  0  0  0  0  0  0  0  0
   58.6070   33.1130   45.5740 C   0  0  0  0  0  0  0  0  0  0  0  0
   58.0710   34.2280   45.3140 O   0  0  0  0  0  0  0  0  0  0  0  0
   59.6280   33.9720   49.4740 N   0  0  0  0  0  0  0  0  0  0  0  0
   59.9140   33.9190   50.8790 C   0  0  0  0  0  0  0  0  0  0  0  0
   61.0410   33.5140   51.2850 O   0  0  0  0  0  0  0  0  0  0  0  0
   58.9190   34.3320   51.8220 N   0  0  0  0  0  0  0  0  0  0  0  0
   58.8170   33.7670   53.1690 C   0  0  0  0  0  0  0  0  0  0  0  0
   57.9520   32.5370   53.1300 C   0  0  0  0  0  0  0  0  0  0  0  0
   58.0020   31.5950   54.1710 C   0  0  0  0  0  0  0  0  0  0  0  0
   57.2330   30.4280   54.0990 C   0  0  0  0  0  0  0  0  0  0  0  0
   56.4390   30.1850   52.9810 C   0  0  0  0  0  0  0  0  0  0  0  0
   56.3990   31.1080   51.9320 C   0  0  0  0  0  0  0  0  0  0  0  0
   57.1490   32.2810   52.0050 C   0  0  0  0  0  0  0  0  0  0  0  0
   59.5204   35.0583   46.9952 H   0  0  0  0  0  0  0  0  0  0  0  0
   61.1701   34.5560   46.4739 H   0  0  0  0  0  0  0  0  0  0  0  0
   61.1328   31.7817   47.3690 H   0  0  0  0  0  0  0  0  0  0  0  0
   60.1957   29.6764   46.4307 H   0  0  0  0  0  0  0  0  0  0  0  0
   58.1740   29.4510   43.7370 H   0  0  0  0  0  0  0  0  0  0  0  0
   59.7466   28.2474   44.9607 H   0  0  0  0  0  0  0  0  0  0  0  0
   58.7028   28.3626   46.4379 H   0  0  0  0  0  0  0  0  0  0  0  0
   57.9226   26.9213   43.8534 H   0  0  0  0  0  0  0  0  0  0  0  0
   58.5655   26.1189   45.3227 H   0  0  0  0  0  0  0  0  0  0  0  0
   56.0264   26.1348   45.1565 H   0  0  0  0  0  0  0  0  0  0  0  0
   56.6830   26.8954   46.6521 H   0  0  0  0  0  0  0  0  0  0  0  0
   57.1988   32.0113   44.3374 H   0  0  0  0  0  0  0  0  0  0  0  0
   58.6300   34.0470   49.1850 H   0  0  0  0  0  0  0  0  0  0  0  0
   58.1490   34.9650   51.4960 H   0  0  0  0  0  0  0  0  0  0  0  0
   59.8203   33.4989   53.5316 H   0  0  0  0  0  0  0  0  0  0  0  0
   58.3700   34.5096   53.8463 H   0  0  0  0  0  0  0  0  0  0  0  0
   58.6466   31.7750   55.0440 H   0  0  0  0  0  0  0  0  0  0  0  0
   57.2557   29.7026   54.9256 H   0  0  0  0  0  0  0  0  0  0  0  0
   55.8412   29.2634   52.9232 H   0  0  0  0  0  0  0  0  0  0  0  0
   55.7752   30.9087   51.0481 H   0  0  0  0  0  0  0  0  0  0  0  0
   57.1123   33.0079   51.1802 H   0  0  0  0  0  0  0  0  0  0  0  0
  1  2  2  0
  2  3  1  0
  3  4  1  0
  4  5  1  0
  5  6  2  0
  6  7  1  0
  7  8  1  0
  8  9  1  0
  9 10  1  0
 10 11  1  0
 11 12  1  0
 12 13  1  0
 13 14  2  0
  7 15  2  0
 15 16  1  0
 16 17  2  0
  2 18  1  0
 18 19  1  0
 19 20  2  0
 19 21  1  0
 21 22  1  0
 22 23  1  0
 23 24  2  0
 24 25  1  0
 25 26  2  0
 26 27  1  0
 27 28  2  0
 16  4  1  0
 28 23  1  0
 13  8  1  0
  3 29  1  0
  3 30  1  0
  5 31  1  0
  6 32  1  0
  8 33  1  6
  9 34  1  0
  9 35  1  0
 10 36  1  0
 10 37  1  0
 11 38  1  0
 11 39  1  0
 15 40  1  0
 18 41  1  0
 21 42  1  0
 22 43  1  0
 22 44  1  0
 24 45  1  0
 25 46  1  0
 26 47  1  0
 27 48  1  0
 28 49  1  0
M  CHG  2   8   1  12  -1
M  END
>  <UniqueID>  (30) 
30

>  <SMILES>  (30) 
O=C(Cn1ccc([N@H+]2CCC[N-]C2=O)cc1=O)NC(=O)NCc1ccccc1

>  <Energy>  (30) 
58.112257063958864

>  <Genealogy>  (30) 
O=C(Cn1ccc([NH+]2CCC[N-]C2=O)cc1=O)NC(=O)NCc1ccccc1 (protonated)
O=C(Cn1ccc([N@H+]2CCC[N-]C2=O)cc1=O)NC(=O)NCc1ccccc1 (chirality)
O=C(Cn1ccc([N@H+]2CCC[N-]C2=O)cc1=O)NC(=O)NCc1ccccc1 (3D coordinates assigned)
O=C(Cn1ccc([N@H+]2CCC[N-]C2=O)cc1=O)NC(=O)NCc1ccccc1 (nonaromatic ring conformer: 58.112257063958864 kcal/mol)

>  <smiles>  (30) 
O=C(Cn1ccc(N2CCCNC2=O)cc1=O)NC(=O)NCc1ccccc1

>  <score_type>  (30) 
oracle

>  <origin>  (30) 
adg

>  <m_score__min__energy>  (30) 
-8.8100000000000005

>  <m_primary>  (30) 
energy

$$$$
30:0
     RDKit          3D

 38 40  0  0  0  0  0  0  0  0999 V2000
   59.4919   29.8534   48.0332 H   0  0  0  0  0  0  0  0  0  0  0  0
   59.1650   29.0670   47.3370 C   0  0  0  0  0  0  0  0  0  0  0  0
   59.5939   28.0566   47.4080 H   0  0  0  0  0  0  0  0  0  0  0  0
   58.2440   29.3400   46.4020 C   0  0  0  0  0  0  0  0  0  0  0  0
   57.7040   28.4800   45.4330 C   0  0  0  0  0  0  0  0  0  0  0  0
   57.8440   27.1530   45.2670 C   0  0  0  0  0  0  0  0  0  0  0  0
   58.4451   26.8197   44.4081 H   0  0  0  0  0  0  0  0  0  0  0  0
   57.2710   26.1060   46.1230 C   0  0  0  0  0  0  0  0  0  0  0  0
   57.9850   25.0800   46.6180 N   0  0  0  0  0  0  0  0  0  0  0  0
   57.0490   24.3090   47.2150 C   0  0  0  0  0  0  0  0  0  0  0  0
   57.3350   23.2410   47.8190 O   0  0  0  0  0  0  0  0  0  0  0  0
   55.7820   24.7630   47.1030 N   0  0  0  0  0  0  0  0  0  0  0  0
   55.9380   25.8960   46.3960 C   0  0  0  0  0  0  0  0  0  0  0  0
   54.8840   26.7050   45.9910 O   0  0  0  0  0  0  0  0  0  0  0  0
   56.9490   29.2050   44.5780 N   0  0  0  0  0  0  0  0  0  0  0  0
   57.0130   30.4630   45.0510 C   0  0  0  0  0  0  0  0  0  0  0  0
   56.4310   31.4290   44.4930 O   0  0  0  0  0  0  0  0  0  0  0  0
   57.7690   30.5860   46.1600 N   0  0  0  0  0  0  0  0  0  0  0  0
   58.1140   31.8410   46.8380 C   0  0  0  0  0  0  0  0  0  0  0  0
   57.3127   32.1009   47.5454 H   0  0  0  0  0  0  0  0  0  0  0  0
   59.0660   31.7034   47.3717 H   0  0  0  0  0  0  0  0  0  0  0  0
   58.2760   32.9610   45.8410 C   0  0  0  0  0  0  0  0  0  0  0  0
   57.2550   33.5790   45.4360 O   0  0  0  0  0  0  0  0  0  0  0  0
   59.5650   33.3990   45.3890 N   0  0  0  0  0  0  0  0  0  0  0  0
   60.3870   34.4220   46.0260 C   0  0  0  0  0  0  0  0  0  0  0  0
   60.8492   35.0474   45.2480 H   0  0  0  0  0  0  0  0  0  0  0  0
   59.7441   35.0302   46.6793 H   0  0  0  0  0  0  0  0  0  0  0  0
   61.4700   33.8010   46.8650 C   0  0  0  0  0  0  0  0  0  0  0  0
   62.8120   33.8680   46.4550 C   0  0  0  0  0  0  0  0  0  0  0  0
   63.0711   34.3582   45.5050 H   0  0  0  0  0  0  0  0  0  0  0  0
   63.8190   33.3140   47.2500 C   0  0  0  0  0  0  0  0  0  0  0  0
   64.8675   33.3678   46.9218 H   0  0  0  0  0  0  0  0  0  0  0  0
   63.5000   32.6920   48.4600 C   0  0  0  0  0  0  0  0  0  0  0  0
   64.4800   32.1460   49.2230 F   0  0  0  0  0  0  0  0  0  0  0  0
   62.1670   32.6300   48.8790 C   0  0  0  0  0  0  0  0  0  0  0  0
   61.9129   32.1432   49.8321 H   0  0  0  0  0  0  0  0  0  0  0  0
   61.1570   33.1860   48.0880 C   0  0  0  0  0  0  0  0  0  0  0  0
   60.1111   33.1414   48.4257 H   0  0  0  0  0  0  0  0  0  0  0  0
  1  2  1  0
  2  3  1  0
  2  4  2  0
  4  5  1  0
  5  6  2  0
  6  7  1  0
  6  8  1  0
  8  9  1  0
  9 10  1  0
 10 11  2  0
 10 12  1  0
 12 13  1  0
 13 14  1  0
  5 15  1  0
 15 16  1  0
 16 17  2  0
 16 18  1  0
 18 19  1  0
 19 20  1  0
 19 21  1  0
 19 22  1  0
 22 23  2  0
 22 24  1  0
 24 25  1  0
 25 26  1  0
 25 27  1  0
 25 28  1  0
 28 29  2  0
 29 30  1  0
 29 31  1  0
 31 32  1  0
 31 33  2  0
 33 34  1  0
 33 35  1  0
 35 36  1  0
 35 37  2  0
 37 38  1  0
 18  4  1  0
 37 28  1  0
 13  8  2  0
M  CHG  5   9  -1  12  -1  14  -1  15  -1  24  -1
M  END
>  <UniqueID>  (31) 
31

>  <SMILES>  (31) 
C=c1/c(=C\c2[n-]c(=O)[n-]c2[O-])[n-]c(=O)n1CC(=O)[N-]Cc1ccc(F)cc1

>  <Energy>  (31) 
111.57422798136606

>  <Genealogy>  (31) 
C=c1c(=Cc2[n-]c(=O)[n-]c2[O-])[n-]c(=O)n1CC(=O)[N-]Cc1ccc(F)cc1 (protonated)
C=c1/c(=C\c2[n-]c(=O)[n-]c2[O-])[n-]c(=O)n1CC(=O)[N-]Cc1ccc(F)cc1 (cis-trans isomerization)
C=c1/c(=C\c2[n-]c(=O)[n-]c2[O-])[n-]c(=O)n1CC(=O)[N-]Cc1ccc(F)cc1 (3D coordinates assigned)
C=c1/c(=C\c2[n-]c(=O)[n-]c2[O-])[n-]c(=O)n1CC(=O)[N-]Cc1ccc(F)cc1 (optimized conformer: 111.57422798136606 kcal/mol)

>  <smiles>  (31) 
C=c1c(=Cc2[nH]c(=O)[nH]c2O)[nH]c(=O)n1CC(=O)NCc1ccc(F)cc1

>  <score_type>  (31) 
oracle

>  <origin>  (31) 
adg

>  <m_score__min__energy>  (31) 
-17.690000000000001

>  <m_primary>  (31) 
energy

$$$$
31:0
     RDKit          3D

 48 51  0  0  0  0  0  0  0  0999 V2000
   55.4819   30.9931   50.8094 H   0  0  0  0  0  0  0  0  0  0  0  0
   54.4900   30.8120   51.2490 C   0  0  0  0  0  0  0  0  0  0  0  0
   53.5998   30.7809   50.6036 H   0  0  0  0  0  0  0  0  0  0  0  0
   54.3660   30.6290   52.5720 C   0  0  0  0  0  0  0  0  0  0  0  0
   53.1800   30.3900   53.2750 C   0  0  0  0  0  0  0  0  0  0  0  0
   51.9310   30.3520   52.7750 C   0  0  0  0  0  0  0  0  0  0  0  0
   51.1357   29.9269   53.4049 H   0  0  0  0  0  0  0  0  0  0  0  0
   51.5630   30.8450   51.4350 C   0  0  0  0  0  0  0  0  0  0  0  0
   51.6200   30.0840   50.3280 N   0  0  0  0  0  0  0  0  0  0  0  0
   51.1240   30.8920   49.3660 C   0  0  0  0  0  0  0  0  0  0  0  0
   51.0270   30.5330   48.1640 O   0  0  0  0  0  0  0  0  0  0  0  0
   50.7310   32.1100   49.7950 N   0  0  0  0  0  0  0  0  0  0  0  0
   51.0040   32.0610   51.1090 C   0  0  0  0  0  0  0  0  0  0  0  0
   50.7000   33.0890   51.9940 O   0  0  0  0  0  0  0  0  0  0  0  0
   53.5400   30.2590   54.6120 C   0  0  0  0  0  0  0  0  0  0  0  0
   52.8636   30.0749   55.4597 H   0  0  0  0  0  0  0  0  0  0  0  0
   54.9120   30.4050   54.6680 C   0  0  0  0  0  0  0  0  0  0  0  0
   55.7270   30.3910   55.9240 C   0  0  0  0  0  0  0  0  0  0  0  0
   55.0568   30.4025   56.7961 H   0  0  0  0  0  0  0  0  0  0  0  0
   56.3461   29.4821   55.9493 H   0  0  0  0  0  0  0  0  0  0  0  0
   56.3769   31.2781   55.9493 H   0  0  0  0  0  0  0  0  0  0  0  0
   55.4110   30.6370   53.4350 N   0  0  0  0  0  0  0  0  0  0  0  0
   56.7940   30.8650   53.1230 C   0  0  0  0  0  0  0  0  0  0  0  0
   57.7290   29.8150   53.1460 C   0  0  0  0  0  0  0  0  0  0  0  0
   57.3210   28.4180   53.5010 C   0  0  0  0  0  0  0  0  0  0  0  0
   57.2900   28.3120   54.5954 H   0  0  0  0  0  0  0  0  0  0  0  0
   56.3246   28.2099   53.0841 H   0  0  0  0  0  0  0  0  0  0  0  0
   58.0488   27.7063   53.0841 H   0  0  0  0  0  0  0  0  0  0  0  0
   59.0330   30.0710   52.8510 N   0  0  0  0  0  0  0  0  0  0  0  0
   59.4820   31.3140   52.5180 C   0  0  0  0  0  0  0  0  0  0  0  0
   60.8810   31.5080   52.2160 N   0  0  0  0  0  0  0  0  0  0  0  0
   61.5090   30.6930   51.1670 C   0  0  0  0  0  0  0  0  0  0  0  0
   61.8532   29.7433   51.6024 H   0  0  0  0  0  0  0  0  0  0  0  0
   60.7711   30.4984   50.3748 H   0  0  0  0  0  0  0  0  0  0  0  0
   62.7050   31.4350   50.5630 C   0  0  0  0  0  0  0  0  0  0  0  0
   63.2465   30.7567   49.8871 H   0  0  0  0  0  0  0  0  0  0  0  0
   62.3344   32.3106   50.0099 H   0  0  0  0  0  0  0  0  0  0  0  0
   63.5840   31.8780   51.5770 O   0  0  0  0  0  0  0  0  0  0  0  0
   62.9380   32.8560   52.3670 C   0  0  0  0  0  0  0  0  0  0  0  0
   63.6588   33.2714   53.0866 H   0  0  0  0  0  0  0  0  0  0  0  0
   62.5569   33.6473   51.7047 H   0  0  0  0  0  0  0  0  0  0  0  0
   61.7580   32.2480   53.1330 C   0  0  0  0  0  0  0  0  0  0  0  0
   62.1403   31.5613   53.9026 H   0  0  0  0  0  0  0  0  0  0  0  0
   61.1814   33.0582   53.6032 H   0  0  0  0  0  0  0  0  0  0  0  0
   58.5680   32.3820   52.4840 C   0  0  0  0  0  0  0  0  0  0  0  0
   58.9093   33.3943   52.2216 H   0  0  0  0  0  0  0  0  0  0  0  0
   57.2260   32.1500   52.7850 C   0  0  0  0  0  0  0  0  0  0  0  0
   56.5058   32.9810   52.7562 H   0  0  0  0  0  0  0  0  0  0  0  0
  1  2  1  0
  2  3  1  0
  2  4  2  0
  4  5  1  0
  5  6  2  0
  6  7  1  0
  6  8  1  0
  8  9  1  0
  9 10  1  0
 10 11  2  0
 10 12  1  0
 12 13  1  0
 13 14  1  0
  5 15  1  0
 15 16  1  0
 15 17  2  0
 17 18  1  0
 18 19  1  0
 18 20  1  0
 18 21  1  0
 17 22  1  0
 22 23  1  0
 23 24  2  0
 24 25  1  0
 25 26  1  0
 25 27  1  0
 25 28  1  0
 24 29  1  0
 29 30  2  0
 30 31  1  0
 31 32  1  0
 32 33  1  0
 32 34  1  0
 32 35  1  0
 35 36  1  0
 35 37  1  0
 35 38  1  0
 38 39  1  0
 39 40  1  0
 39 41  1  0
 39 42  1  0
 42 43  1  0
 42 44  1  0
 30 45  1  0
 45 46  1  0
 45 47  2  0
 47 48  1  0
 22  4  1  0
 47 23  1  0
 13  8  2  0
 42 31  1  0
M  CHG  3   9  -1  12  -1  14  -1
M  END
>  <UniqueID>  (32) 
32

>  <SMILES>  (32) 
C=c1/c(=C/c2[n-]c(=O)[n-]c2[O-])cc(C)n1-c1ccc(N2CCOCC2)nc1C

>  <Energy>  (32) 
125.63440404209089

>  <Genealogy>  (32) 
C=c1c(=Cc2[n-]c(=O)[n-]c2[O-])cc(C)n1-c1ccc(N2CCOCC2)nc1C (protonated)
C=c1/c(=C/c2[n-]c(=O)[n-]c2[O-])cc(C)n1-c1ccc(N2CCOCC2)nc1C (cis-trans isomerization)
C=c1/c(=C/c2[n-]c(=O)[n-]c2[O-])cc(C)n1-c1ccc(N2CCOCC2)nc1C (3D coordinates assigned)
C=c1/c(=C/c2[n-]c(=O)[n-]c2[O-])cc(C)n1-c1ccc(N2CCOCC2)nc1C (nonaromatic ring conformer: 125.63440404209089 kcal/mol)

>  <smiles>  (32) 
C=c1c(=Cc2[nH]c(=O)[nH]c2O)cc(C)n1-c1ccc(N2CCOCC2)nc1C

>  <score_type>  (32) 
oracle

>  <origin>  (32) 
adg

>  <m_score__min__energy>  (32) 
-15.57

>  <m_primary>  (32) 
energy

$$$$
32:0
     RDKit          3D

 56 59  0  0  0  0  0  0  0  0999 V2000
   58.9870   29.8040   48.4660 C   0  0  0  0  0  0  0  0  0  0  0  0
   59.3580   29.4310   47.0340 C   0  0  0  0  0  0  0  0  0  0  0  0
   58.1250   29.2140   46.2000 C   0  0  0  0  0  0  0  0  0  0  0  0
   57.3600   28.0550   46.1000 C   0  0  0  0  0  0  0  0  0  0  0  0
   57.5420   26.7880   46.8870 C   0  0  0  0  0  0  0  0  0  0  0  0
   56.9660   25.6040   46.1570 C   0  0  0  0  0  0  0  0  0  0  0  0
   55.6450   25.3920   45.7490 C   0  0  0  0  0  0  0  0  0  0  0  0
   54.5760   26.2650   45.9480 O   0  0  0  0  0  0  0  0  0  0  0  0
   55.4930   24.2090   45.1090 N   0  0  0  0  0  0  0  0  0  0  0  0
   56.7290   23.6720   45.1040 C   0  0  0  0  0  0  0  0  0  0  0  0
   57.0990   22.4510   44.5410 C   0  0  0  0  0  0  0  0  0  0  0  0
   58.4520   22.0720   44.6160 C   0  0  0  0  0  0  0  0  0  0  0  0
   59.3970   22.9160   45.2400 C   0  0  0  0  0  0  0  0  0  0  0  0
   60.7000   22.5470   45.2920 F   0  0  0  0  0  0  0  0  0  0  0  0
   58.9960   24.1410   45.8020 C   0  0  0  0  0  0  0  0  0  0  0  0
   57.6470   24.4860   45.7200 C   0  0  0  0  0  0  0  0  0  0  0  0
   56.3890   28.2180   45.1740 N   0  0  0  0  0  0  0  0  0  0  0  0
   56.5370   29.4510   44.6540 C   0  0  0  0  0  0  0  0  0  0  0  0
   55.5920   30.0600   43.6700 C   0  0  0  0  0  0  0  0  0  0  0  0
   57.5860   30.0940   45.2780 C   0  0  0  0  0  0  0  0  0  0  0  0
   58.0250   31.4290   45.0140 N   0  0  0  0  0  0  0  0  0  0  0  0
   57.7630   32.5350   45.8860 C   0  0  0  0  0  0  0  0  0  0  0  0
   57.8040   32.3550   47.1320 O   0  0  0  0  0  0  0  0  0  0  0  0
   57.4550   33.9040   45.3480 C   0  0  0  0  0  0  0  0  0  0  0  0
   58.2840   34.8520   45.9940 O   0  0  0  0  0  0  0  0  0  0  0  0
   59.6190   34.7340   45.5380 C   0  0  0  0  0  0  0  0  0  0  0  0
   60.5150   34.3110   46.6740 C   0  0  0  0  0  0  0  0  0  0  0  0
   61.8200   33.8460   46.4270 C   0  0  0  0  0  0  0  0  0  0  0  0
   62.6320   33.4230   47.4870 C   0  0  0  0  0  0  0  0  0  0  0  0
   62.1450   33.4560   48.7980 C   0  0  0  0  0  0  0  0  0  0  0  0
   60.8450   33.9080   49.0510 C   0  0  0  0  0  0  0  0  0  0  0  0
   60.0290   34.3290   47.9930 C   0  0  0  0  0  0  0  0  0  0  0  0
   59.5843   29.2035   49.1678 H   0  0  0  0  0  0  0  0  0  0  0  0
   59.1914   30.8721   48.6314 H   0  0  0  0  0  0  0  0  0  0  0  0
   57.9178   29.6054   48.6314 H   0  0  0  0  0  0  0  0  0  0  0  0
   59.9531   30.2440   46.5926 H   0  0  0  0  0  0  0  0  0  0  0  0
   59.9387   28.4970   47.0530 H   0  0  0  0  0  0  0  0  0  0  0  0
   58.6165   26.6195   47.0517 H   0  0  0  0  0  0  0  0  0  0  0  0
   57.0139   26.8956   47.8459 H   0  0  0  0  0  0  0  0  0  0  0  0
   53.7070   25.9660   46.3700 H   0  0  0  0  0  0  0  0  0  0  0  0
   56.3555   21.8037   44.0530 H   0  0  0  0  0  0  0  0  0  0  0  0
   58.7757   21.1126   44.1861 H   0  0  0  0  0  0  0  0  0  0  0  0
   59.7231   24.8061   46.2908 H   0  0  0  0  0  0  0  0  0  0  0  0
   55.6520   27.5230   44.9150 H   0  0  0  0  0  0  0  0  0  0  0  0
   54.7859   30.5795   44.2089 H   0  0  0  0  0  0  0  0  0  0  0  0
   56.1337   30.7794   43.0383 H   0  0  0  0  0  0  0  0  0  0  0  0
   55.1606   29.2695   43.0383 H   0  0  0  0  0  0  0  0  0  0  0  0
   57.6453   33.9256   44.2648 H   0  0  0  0  0  0  0  0  0  0  0  0
   56.3985   34.1469   45.5347 H   0  0  0  0  0  0  0  0  0  0  0  0
   59.6655   33.9812   44.7373 H   0  0  0  0  0  0  0  0  0  0  0  0
   59.9573   35.7076   45.1539 H   0  0  0  0  0  0  0  0  0  0  0  0
   62.2042   33.8146   45.3967 H   0  0  0  0  0  0  0  0  0  0  0  0
   63.6529   33.0648   47.2885 H   0  0  0  0  0  0  0  0  0  0  0  0
   62.7842   33.1265   49.6304 H   0  0  0  0  0  0  0  0  0  0  0  0
   60.4632   33.9328   50.0823 H   0  0  0  0  0  0  0  0  0  0  0  0
   59.0045   34.6748   48.1950 H   0  0  0  0  0  0  0  0  0  0  0  0
  1  2  1  0
  2  3  1  0
  3  4  2  0
  4  5  1  0
  5  6  1  0
  6  7  2  0
  7  8  1  0
  7  9  1  0
  9 10  1  0
 10 11  2  0
 11 12  1  0
 12 13  2  0
 13 14  1  0
 13 15  1  0
 15 16  2  0
  4 17  1  0
 17 18  1  0
 18 19  1  0
 18 20  2  0
 20 21  1  0
 21 22  1  0
 22 23  2  0
 22 24  1  0
 24 25  1  0
 25 26  1  0
 26 27  1  0
 27 28  2  0
 28 29  1  0
 29 30  2  0
 30 31  1  0
 31 32  2  0
 20  3  1  0
 32 27  1  0
 16  6  1  0
 16 10  1  0
  1 33  1  0
  1 34  1  0
  1 35  1  0
  2 36  1  0
  2 37  1  0
  5 38  1  0
  5 39  1  0
  8 40  1  0
 11 41  1  0
 12 42  1  0
 15 43  1  0
 17 44  1  0
 19 45  1  0
 19 46  1  0
 19 47  1  0
 24 48  1  0
 24 49  1  0
 26 50  1  0
 26 51  1  0
 28 52  1  0
 29 53  1  0
 30 54  1  0
 31 55  1  0
 32 56  1  0
M  CHG  2   9  -1  21  -1
M  END
>  <UniqueID>  (33) 
33

>  <SMILES>  (33) 
CCc1c(Cc2c(O)[n-]c3ccc(F)cc23)[nH]c(C)c1[N-]C(=O)COCc1ccccc1

>  <Energy>  (33) 
118.68495362534385

>  <Genealogy>  (33) 
CCc1c(Cc2c(O)[n-]c3ccc(F)cc23)[nH]c(C)c1[N-]C(=O)COCc1ccccc1 (protonated)
CCc1c(Cc2c(O)[n-]c3ccc(F)cc23)[nH]c(C)c1[N-]C(=O)COCc1ccccc1 (3D coordinates assigned)
CCc1c(Cc2c(O)[n-]c3ccc(F)cc23)[nH]c(C)c1[N-]C(=O)COCc1ccccc1 (optimized conformer: 118.68495362534385 kcal/mol)

>  <smiles>  (33) 
CCc1c(Cc2c(O)[nH]c3ccc(F)cc23)[nH]c(C)c1NC(=O)COCc1ccccc1

>  <score_type>  (33) 
oracle

>  <origin>  (33) 
adg

>  <m_score__min__energy>  (33) 
-13.4

>  <m_primary>  (33) 
energy

$$$$
33:0
     RDKit          3D

 53 55  0  0  0  0  0  0  0  0999 V2000
   57.7310   32.3500   40.7120 C   0  0  0  0  0  0  0  0  0  0  0  0
   57.1150   32.6370   41.9630 O   0  0  0  0  0  0  0  0  0  0  0  0
   57.5710   32.1540   43.2010 C   0  0  0  0  0  0  0  0  0  0  0  0
   58.4710   32.8790   44.0040 C   0  0  0  0  0  0  0  0  0  0  0  0
   58.8960   32.3600   45.2300 C   0  0  0  0  0  0  0  0  0  0  0  0
   58.4350   31.1110   45.6700 C   0  0  0  0  0  0  0  0  0  0  0  0
   58.8560   30.5660   46.9820 C   0  0  0  0  0  0  0  0  0  0  0  0
   59.3030   29.2240   47.1170 C   0  0  0  0  0  0  0  0  0  0  0  0
   59.4510   28.2880   45.9290 C   0  0  0  0  0  0  0  0  0  0  0  0
   58.4500   27.1530   45.9590 C   0  0  0  0  0  0  0  0  0  0  0  0
   57.0690   27.4030   45.9520 C   0  0  0  0  0  0  0  0  0  0  0  0
   56.1540   26.3490   46.0210 C   0  0  0  0  0  0  0  0  0  0  0  0
   54.7920   26.6350   46.0060 O   0  0  0  0  0  0  0  0  0  0  0  0
   56.6060   25.0180   46.1060 C   0  0  0  0  0  0  0  0  0  0  0  0
   55.6090   23.8830   46.2120 C   0  0  0  0  0  0  0  0  0  0  0  0
   55.4720   23.3760   47.6540 C   0  0  0  0  0  0  0  0  0  0  0  0
   56.0550   22.0050   47.8280 C   0  0  0  0  0  0  0  0  0  0  0  0
   57.2540   21.8600   48.0060 O   0  0  0  0  0  0  0  0  0  0  0  0
   57.9920   24.7640   46.1390 C   0  0  0  0  0  0  0  0  0  0  0  0
   58.4660   23.4570   46.2430 O   0  0  0  0  0  0  0  0  0  0  0  0
   58.9020   25.8300   46.0680 C   0  0  0  0  0  0  0  0  0  0  0  0
   59.5640   28.7310   48.4120 C   0  0  0  0  0  0  0  0  0  0  0  0
   59.9840   27.4190   48.5990 O   0  0  0  0  0  0  0  0  0  0  0  0
   59.3970   29.5280   49.4970 N   0  0  0  0  0  0  0  0  0  0  0  0
   58.9790   30.8120   49.3930 C   0  0  0  0  0  0  0  0  0  0  0  0
   58.8380   31.5050   50.4350 O   0  0  0  0  0  0  0  0  0  0  0  0
   58.7090   31.3650   48.1380 C   0  0  0  0  0  0  0  0  0  0  0  0
   58.2660   32.6940   48.0650 O   0  0  0  0  0  0  0  0  0  0  0  0
   59.1280   33.7950   48.0470 C   0  0  0  0  0  0  0  0  0  0  0  0
   60.3950   33.7470   48.8280 C   0  0  0  0  0  0  0  0  0  0  0  0
   58.8780   34.7970   47.3230 O   0  0  0  0  0  0  0  0  0  0  0  0
   57.5350   30.3900   44.8720 C   0  0  0  0  0  0  0  0  0  0  0  0
   57.1070   30.9080   43.6450 C   0  0  0  0  0  0  0  0  0  0  0  0
   56.2150   30.1790   42.8670 O   0  0  0  0  0  0  0  0  0  0  0  0
   58.7157   31.8912   40.8849 H   0  0  0  0  0  0  0  0  0  0  0  0
   57.0973   31.6544   40.1423 H   0  0  0  0  0  0  0  0  0  0  0  0
   57.8559   33.2826   40.1423 H   0  0  0  0  0  0  0  0  0  0  0  0
   58.8414   33.8579   43.6654 H   0  0  0  0  0  0  0  0  0  0  0  0
   59.5965   32.9348   45.8536 H   0  0  0  0  0  0  0  0  0  0  0  0
   59.3028   28.8650   45.0043 H   0  0  0  0  0  0  0  0  0  0  0  0
   60.4580   27.8476   45.9730 H   0  0  0  0  0  0  0  0  0  0  0  0
   56.7033   28.4387   45.8916 H   0  0  0  0  0  0  0  0  0  0  0  0
   54.6274   24.2380   45.8649 H   0  0  0  0  0  0  0  0  0  0  0  0
   55.9716   23.0509   45.5906 H   0  0  0  0  0  0  0  0  0  0  0  0
   55.9956   24.0720   48.3259 H   0  0  0  0  0  0  0  0  0  0  0  0
   54.3997   23.3209   47.8932 H   0  0  0  0  0  0  0  0  0  0  0  0
   55.3974   21.1238   47.7950 H   0  0  0  0  0  0  0  0  0  0  0  0
   58.4860   22.9660   47.1290 H   0  0  0  0  0  0  0  0  0  0  0  0
   59.9824   25.6254   46.0982 H   0  0  0  0  0  0  0  0  0  0  0  0
   60.1634   33.7558   49.9033 H   0  0  0  0  0  0  0  0  0  0  0  0
   60.9447   32.8274   48.5788 H   0  0  0  0  0  0  0  0  0  0  0  0
   61.0127   34.6224   48.5788 H   0  0  0  0  0  0  0  0  0  0  0  0
   57.1637   29.4122   45.2126 H   0  0  0  0  0  0  0  0  0  0  0  0
  1  2  1  0
  2  3  1  0
  3  4  2  0
  4  5  1  0
  5  6  2  0
  6  7  1  0
  7  8  1  0
  8  9  1  0
  9 10  1  0
 10 11  2  0
 11 12  1  0
 12 13  1  0
 12 14  2  0
 14 15  1  0
 15 16  1  0
 16 17  1  0
 17 18  2  0
 14 19  1  0
 19 20  1  0
 19 21  2  0
  8 22  2  0
 22 23  1  0
 22 24  1  0
 24 25  1  0
 25 26  2  0
 25 27  1  0
 27 28  1  0
 28 29  1  0
 29 30  1  0
 29 31  2  0
  6 32  1  0
 32 33  2  0
 33 34  1  0
 33  3  1  0
 27  7  2  0
 21 10  1  0
  1 35  1  0
  1 36  1  0
  1 37  1  0
  4 38  1  0
  5 39  1  0
  9 40  1  0
  9 41  1  0
 11 42  1  0
 15 43  1  0
 15 44  1  0
 16 45  1  0
 16 46  1  0
 17 47  1  0
 20 48  1  0
 21 49  1  0
 30 50  1  0
 30 51  1  0
 30 52  1  0
 32 53  1  0
M  CHG  4  13  -1  23  -1  24  -1  34  -1
M  END
>  <UniqueID>  (34) 
34

>  <SMILES>  (34) 
COc1ccc(-c2c(Cc3cc([O-])c(CCC=O)c(O)c3)c([O-])[n-]c(=O)c2OC(C)=O)cc1[O-]

>  <Energy>  (34) 
67.93046858577114

>  <Genealogy>  (34) 
COc1ccc(-c2c(Cc3cc([O-])c(CCC=O)c(O)c3)c([O-])[n-]c(=O)c2OC(C)=O)cc1[O-] (protonated)
COc1ccc(-c2c(Cc3cc([O-])c(CCC=O)c(O)c3)c([O-])[n-]c(=O)c2OC(C)=O)cc1[O-] (3D coordinates assigned)
COc1ccc(-c2c(Cc3cc([O-])c(CCC=O)c(O)c3)c([O-])[n-]c(=O)c2OC(C)=O)cc1[O-] (optimized conformer: 67.93046858577114 kcal/mol)

>  <smiles>  (34) 
COc1ccc(-c2c(Cc3cc(O)c(CCC=O)c(O)c3)c(O)[nH]c(=O)c2OC(C)=O)cc1O

>  <score_type>  (34) 
oracle

>  <origin>  (34) 
adg

>  <m_score__min__energy>  (34) 
-15.98

>  <m_primary>  (34) 
energy

$$$$
34:0
     RDKit          3D

 59 62  0  0  0  0  0  0  0  0999 V2000
   57.8600   30.8710   45.4680 C   0  0  0  0  0  0  0  0  0  0  0  0
   58.5570   30.2570   46.4380 C   0  0  0  0  0  0  0  0  0  0  0  0
   58.6890   28.8700   46.6130 C   0  0  0  0  0  0  0  0  0  0  0  0
   58.4100   27.8420   45.7880 C   0  0  0  0  0  0  0  0  0  0  0  0
   57.2340   26.9620   45.8810 C   0  0  0  0  0  0  0  0  0  0  0  0
   57.2400   25.7230   46.4060 N   0  0  0  0  0  0  0  0  0  0  0  0
   55.9360   25.3740   46.3980 C   0  0  0  0  0  0  0  0  0  0  0  0
   55.5330   24.2520   46.7980 O   0  0  0  0  0  0  0  0  0  0  0  0
   55.0970   26.3250   45.9320 N   0  0  0  0  0  0  0  0  0  0  0  0
   55.9340   27.3280   45.6240 C   0  0  0  0  0  0  0  0  0  0  0  0
   55.5190   28.5550   45.1240 O   0  0  0  0  0  0  0  0  0  0  0  0
   59.2510   28.6910   47.8630 C   0  0  0  0  0  0  0  0  0  0  0  0
   59.5090   29.9450   48.3700 C   0  0  0  0  0  0  0  0  0  0  0  0
   60.1670   30.1710   49.6710 C   0  0  0  0  0  0  0  0  0  0  0  0
   61.4240   30.0710   49.7350 O   0  0  0  0  0  0  0  0  0  0  0  0
   59.3850   30.3190   50.8830 N   0  0  0  0  0  0  0  0  0  0  0  0
   58.2770   31.2990   50.6980 C   0  0  0  0  0  0  0  0  0  0  0  0
   58.6110   32.6980   51.2310 C   0  0  0  0  0  0  0  0  0  0  0  0
   58.9980   32.6250   52.6440 N   0  0  0  0  0  0  0  0  0  0  0  0
   58.8400   33.7810   53.4920 C   0  0  0  0  0  0  0  0  0  0  0  0
   58.9040   33.6720   54.9870 C   0  0  0  0  0  0  0  0  0  0  0  0
   58.6760   34.9190   52.9760 O   0  0  0  0  0  0  0  0  0  0  0  0
   59.5800   31.3770   53.1530 C   0  0  0  0  0  0  0  0  0  0  0  0
   60.2950   30.6320   52.0160 C   0  0  0  0  0  0  0  0  0  0  0  0
   59.1050   30.9060   47.5040 N   0  0  0  0  0  0  0  0  0  0  0  0
   59.4040   32.3430   47.6170 C   0  0  0  0  0  0  0  0  0  0  0  0
   60.8520   32.5470   47.9840 C   0  0  0  0  0  0  0  0  0  0  0  0
   61.8660   31.9510   47.2180 C   0  0  0  0  0  0  0  0  0  0  0  0
   63.2120   32.1580   47.5370 C   0  0  0  0  0  0  0  0  0  0  0  0
   63.5660   32.9810   48.6210 C   0  0  0  0  0  0  0  0  0  0  0  0
   64.9020   33.2290   48.9740 O   0  0  0  0  0  0  0  0  0  0  0  0
   65.5880   32.5670   50.0330 C   0  0  0  0  0  0  0  0  0  0  0  0
   62.5520   33.5830   49.3800 C   0  0  0  0  0  0  0  0  0  0  0  0
   61.2060   33.3670   49.0670 C   0  0  0  0  0  0  0  0  0  0  0  0
   57.8252   31.9697   45.4269 H   0  0  0  0  0  0  0  0  0  0  0  0
   57.3239   30.2752   44.7146 H   0  0  0  0  0  0  0  0  0  0  0  0
   59.1230   27.6432   44.9743 H   0  0  0  0  0  0  0  0  0  0  0  0
   59.4536   27.7300   48.3584 H   0  0  0  0  0  0  0  0  0  0  0  0
   58.9430   29.3960   51.1020 H   0  0  0  0  0  0  0  0  0  0  0  0
   58.0563   31.3781   49.6233 H   0  0  0  0  0  0  0  0  0  0  0  0
   57.4144   30.9286   51.2714 H   0  0  0  0  0  0  0  0  0  0  0  0
   59.4432   33.1194   50.6480 H   0  0  0  0  0  0  0  0  0  0  0  0
   57.7221   33.3390   51.1359 H   0  0  0  0  0  0  0  0  0  0  0  0
   58.3964   34.5365   55.4397 H   0  0  0  0  0  0  0  0  0  0  0  0
   58.4068   32.7450   55.3087 H   0  0  0  0  0  0  0  0  0  0  0  0
   59.9558   33.6546   55.3087 H   0  0  0  0  0  0  0  0  0  0  0  0
   60.3035   31.6096   53.9483 H   0  0  0  0  0  0  0  0  0  0  0  0
   58.7778   30.7406   53.5548 H   0  0  0  0  0  0  0  0  0  0  0  0
   61.1181   31.2603   51.6448 H   0  0  0  0  0  0  0  0  0  0  0  0
   60.6662   29.6790   52.4210 H   0  0  0  0  0  0  0  0  0  0  0  0
   59.2010   32.8331   46.6534 H   0  0  0  0  0  0  0  0  0  0  0  0
   58.7700   32.7805   48.4022 H   0  0  0  0  0  0  0  0  0  0  0  0
   61.6000   31.3161   46.3600 H   0  0  0  0  0  0  0  0  0  0  0  0
   63.9973   31.6748   46.9372 H   0  0  0  0  0  0  0  0  0  0  0  0
   65.2099   32.9319   50.9994 H   0  0  0  0  0  0  0  0  0  0  0  0
   65.4182   31.4827   49.9586 H   0  0  0  0  0  0  0  0  0  0  0  0
   66.6655   32.7753   49.9586 H   0  0  0  0  0  0  0  0  0  0  0  0
   62.8174   34.2305   50.2287 H   0  0  0  0  0  0  0  0  0  0  0  0
   60.4205   33.8423   49.6728 H   0  0  0  0  0  0  0  0  0  0  0  0
  1  2  2  0
  2  3  1  0
  3  4  2  3
  4  5  1  0
  5  6  1  0
  6  7  1  0
  7  8  2  0
  7  9  1  0
  9 10  1  0
 10 11  1  0
  3 12  1  0
 12 13  2  0
 13 14  1  0
 14 15  2  0
 14 16  1  0
 16 17  1  0
 17 18  1  0
 18 19  1  0
 19 20  1  0
 20 21  1  0
 20 22  2  0
 19 23  1  0
 23 24  1  0
 13 25  1  0
 25 26  1  0
 26 27  1  0
 27 28  2  0
 28 29  1  0
 29 30  2  0
 30 31  1  0
 31 32  1  0
 30 33  1  0
 33 34  2  0
 25  2  1  0
 34 27  1  0
 10  5  2  0
 24 16  1  0
  1 35  1  0
  1 36  1  0
  4 37  1  0
 12 38  1  0
 16 39  1  0
 17 40  1  0
 17 41  1  0
 18 42  1  0
 18 43  1  0
 21 44  1  0
 21 45  1  0
 21 46  1  0
 23 47  1  0
 23 48  1  0
 24 49  1  0
 24 50  1  0
 26 51  1  0
 26 52  1  0
 28 53  1  0
 29 54  1  0
 32 55  1  0
 32 56  1  0
 32 57  1  0
 33 58  1  0
 34 59  1  0
M  CHG  4   6  -1   9  -1  11  -1  16   1
M  END
>  <UniqueID>  (35) 
35

>  <SMILES>  (35) 
C=c1c(=Cc2[n-]c(=O)[n-]c2[O-])cc(C(=O)[NH+]2CCN(C(C)=O)CC2)n1Cc1ccc(OC)cc1

>  <Energy>  (35) 
144.70618475184926

>  <Genealogy>  (35) 
C=c1c(=Cc2[n-]c(=O)[n-]c2[O-])cc(C(=O)[NH+]2CCN(C(C)=O)CC2)n1Cc1ccc(OC)cc1 (protonated)
C=c1c(=Cc2[n-]c(=O)[n-]c2[O-])cc(C(=O)[NH+]2CCN(C(C)=O)CC2)n1Cc1ccc(OC)cc1 (3D coordinates assigned)
C=c1c(=Cc2[n-]c(=O)[n-]c2[O-])cc(C(=O)[NH+]2CCN(C(C)=O)CC2)n1Cc1ccc(OC)cc1 (nonaromatic ring conformer: 144.70618475184926 kcal/mol)

>  <smiles>  (35) 
C=c1c(=Cc2[nH]c(=O)[nH]c2O)cc(C(=O)N2CCN(C(C)=O)CC2)n1Cc1ccc(OC)cc1

>  <score_type>  (35) 
oracle

>  <origin>  (35) 
adg

>  <m_score__min__energy>  (35) 
-15.1

>  <m_primary>  (35) 
energy

$$$$
35:0
     RDKit          3D

 72 76  0  0  0  0  0  0  0  0999 V2000
   59.3600   29.6570   50.4230 C   0  0  0  0  0  0  0  0  0  0  0  0
   58.1690   31.0310   50.3710 S   0  0  0  0  0  0  0  0  0  0  0  0
   59.4460   32.2890   50.2390 C   0  0  0  0  0  0  0  0  0  0  0  0
   60.3630   32.4530   51.2860 C   0  0  0  0  0  0  0  0  0  0  0  0
   61.3600   33.4280   51.2000 C   0  0  0  0  0  0  0  0  0  0  0  0
   61.4480   34.2420   50.0700 C   0  0  0  0  0  0  0  0  0  0  0  0
   60.5380   34.0840   49.0200 C   0  0  0  0  0  0  0  0  0  0  0  0
   59.5280   33.1040   49.0950 C   0  0  0  0  0  0  0  0  0  0  0  0
   58.5950   32.9140   48.0650 O   0  0  0  0  0  0  0  0  0  0  0  0
   58.6390   33.5660   46.8020 C   0  0  0  0  0  0  0  0  0  0  0  0
   58.1970   32.6040   45.7380 C   0  0  0  0  0  0  0  0  0  0  0  0
   58.1930   33.0010   44.3910 C   0  0  0  0  0  0  0  0  0  0  0  0
   57.8000   32.1060   43.3920 C   0  0  0  0  0  0  0  0  0  0  0  0
   57.4070   30.8080   43.7290 C   0  0  0  0  0  0  0  0  0  0  0  0
   57.4120   30.4000   45.0700 C   0  0  0  0  0  0  0  0  0  0  0  0
   56.9890   29.0380   45.4290 C   0  0  0  0  0  0  0  0  0  0  0  0
   55.8880   28.6260   44.9690 O   0  0  0  0  0  0  0  0  0  0  0  0
   57.8010   28.1850   46.2820 N   0  0  0  0  0  0  0  0  0  0  0  0
   57.1270   27.1690   47.1180 C   0  0  0  0  0  0  0  0  0  0  0  0
   56.9320   25.8550   46.3870 C   0  0  0  0  0  0  0  0  0  0  0  0
   58.0340   24.9950   46.2210 C   0  0  0  0  0  0  0  0  0  0  0  0
   57.8950   23.7800   45.5450 C   0  0  0  0  0  0  0  0  0  0  0  0
   58.9870   22.9330   45.4060 O   0  0  0  0  0  0  0  0  0  0  0  0
   56.6570   23.4190   45.0060 C   0  0  0  0  0  0  0  0  0  0  0  0
   55.5620   24.2780   45.1330 C   0  0  0  0  0  0  0  0  0  0  0  0
   55.6940   25.4960   45.8100 C   0  0  0  0  0  0  0  0  0  0  0  0
   54.5910   26.3410   45.8930 O   0  0  0  0  0  0  0  0  0  0  0  0
   59.2810   28.2260   46.1410 C   0  0  1  0  0  0  0  0  0  0  0  0
   59.8160   28.7780   44.8260 C   0  0  0  0  0  0  0  0  0  0  0  0
   61.1930   29.2840   45.2060 C   0  0  0  0  0  0  0  0  0  0  0  0
   61.1050   29.7590   46.5940 N   0  0  0  0  0  0  0  0  0  0  0  0
   61.1320   31.2370   46.7370 C   0  0  0  0  0  0  0  0  0  0  0  0
   62.2950   31.7800   47.5550 C   0  0  0  0  0  0  0  0  0  0  0  0
   63.0240   32.8940   47.0990 C   0  0  0  0  0  0  0  0  0  0  0  0
   64.0930   33.3950   47.8480 C   0  0  0  0  0  0  0  0  0  0  0  0
   64.4340   32.8060   49.0660 C   0  0  0  0  0  0  0  0  0  0  0  0
   63.6930   31.7260   49.5500 C   0  0  0  0  0  0  0  0  0  0  0  0
   64.0230   31.1500   50.7700 O   0  0  0  0  0  0  0  0  0  0  0  0
   62.6190   31.2230   48.8070 C   0  0  0  0  0  0  0  0  0  0  0  0
   59.9370   29.1020   47.2100 C   0  0  0  0  0  0  0  0  0  0  0  0
   57.8300   31.2890   46.0690 C   0  0  0  0  0  0  0  0  0  0  0  0
   59.5806   29.4025   51.4701 H   0  0  0  0  0  0  0  0  0  0  0  0
   58.9311   28.7806   49.9151 H   0  0  0  0  0  0  0  0  0  0  0  0
   60.2884   29.9571   49.9151 H   0  0  0  0  0  0  0  0  0  0  0  0
   60.2976   31.8124   52.1778 H   0  0  0  0  0  0  0  0  0  0  0  0
   62.0770   33.5542   52.0246 H   0  0  0  0  0  0  0  0  0  0  0  0
   62.2340   35.0088   50.0051 H   0  0  0  0  0  0  0  0  0  0  0  0
   60.6109   34.7278   48.1311 H   0  0  0  0  0  0  0  0  0  0  0  0
   57.9673   34.4370   46.8133 H   0  0  0  0  0  0  0  0  0  0  0  0
   59.6652   33.9032   46.5941 H   0  0  0  0  0  0  0  0  0  0  0  0
   58.5008   34.0219   44.1207 H   0  0  0  0  0  0  0  0  0  0  0  0
   57.8000   32.4238   42.3389 H   0  0  0  0  0  0  0  0  0  0  0  0
   57.0937   30.1064   42.9419 H   0  0  0  0  0  0  0  0  0  0  0  0
   57.7382   26.9872   48.0143 H   0  0  0  0  0  0  0  0  0  0  0  0
   56.1319   27.5574   47.3804 H   0  0  0  0  0  0  0  0  0  0  0  0
   59.0148   25.2824   46.6277 H   0  0  0  0  0  0  0  0  0  0  0  0
   56.5445   22.4585   44.4817 H   0  0  0  0  0  0  0  0  0  0  0  0
   54.5916   23.9956   44.6988 H   0  0  0  0  0  0  0  0  0  0  0  0
   59.5340   27.1586   46.2230 H   0  0  0  0  0  0  0  0  0  0  0  0
   59.8813   27.9885   44.0628 H   0  0  0  0  0  0  0  0  0  0  0  0
   59.1732   29.5558   44.3880 H   0  0  0  0  0  0  0  0  0  0  0  0
   61.9292   28.4702   45.1306 H   0  0  0  0  0  0  0  0  0  0  0  0
   61.5152   30.0921   44.5329 H   0  0  0  0  0  0  0  0  0  0  0  0
   61.1874   31.6768   45.7303 H   0  0  0  0  0  0  0  0  0  0  0  0
   60.2166   31.5112   47.2819 H   0  0  0  0  0  0  0  0  0  0  0  0
   62.7511   33.3736   46.1474 H   0  0  0  0  0  0  0  0  0  0  0  0
   64.6671   34.2563   47.4758 H   0  0  0  0  0  0  0  0  0  0  0  0
   65.2861   33.1922   49.6446 H   0  0  0  0  0  0  0  0  0  0  0  0
   62.0241   30.3871   49.2036 H   0  0  0  0  0  0  0  0  0  0  0  0
   60.2604   28.4801   48.0578 H   0  0  0  0  0  0  0  0  0  0  0  0
   59.2251   29.8522   47.5846 H   0  0  0  0  0  0  0  0  0  0  0  0
   57.8710   30.9560   47.1166 H   0  0  0  0  0  0  0  0  0  0  0  0
  1  2  1  0
  2  3  1  0
  3  4  2  0
  4  5  1  0
  5  6  2  0
  6  7  1  0
  7  8  2  0
  8  9  1  0
  9 10  1  0
 10 11  1  0
 11 12  2  0
 12 13  1  0
 13 14  2  0
 14 15  1  0
 15 16  1  0
 16 17  2  0
 16 18  1  0
 18 19  1  0
 19 20  1  0
 20 21  2  0
 21 22  1  0
 22 23  1  0
 22 24  2  0
 24 25  1  0
 25 26  2  0
 26 27  1  0
 18 28  1  0
 28 29  1  0
 29 30  1  0
 30 31  1  0
 31 32  1  0
 32 33  1  0
 33 34  2  0
 34 35  1  0
 35 36  2  0
 36 37  1  0
 37 38  1  0
 37 39  2  0
 31 40  1  0
 15 41  2  0
  8  3  1  0
 41 11  1  0
 26 20  1  0
 40 28  1  0
 39 33  1  0
  1 42  1  0
  1 43  1  0
  1 44  1  0
  4 45  1  0
  5 46  1  0
  6 47  1  0
  7 48  1  0
 10 49  1  0
 10 50  1  0
 12 51  1  0
 13 52  1  0
 14 53  1  0
 19 54  1  0
 19 55  1  0
 21 56  1  0
 24 57  1  0
 25 58  1  0
 28 59  1  1
 29 60  1  0
 29 61  1  0
 30 62  1  0
 30 63  1  0
 32 64  1  0
 32 65  1  0
 34 66  1  0
 35 67  1  0
 36 68  1  0
 39 69  1  0
 40 70  1  0
 40 71  1  0
 41 72  1  0
M  CHG  3  23  -1  27  -1  38  -1
M  END
>  <UniqueID>  (36) 
36

>  <SMILES>  (36) 
CSc1ccccc1OCc1cccc(C(=O)N(Cc2cc([O-])ccc2[O-])[C@H]2CCN(Cc3cccc([O-])c3)C2)c1

>  <Energy>  (36) 
90.25666674700535

>  <Genealogy>  (36) 
CSc1ccccc1OCc1cccc(C(=O)N(Cc2cc([O-])ccc2[O-])C2CCN(Cc3cccc([O-])c3)C2)c1 (protonated)
CSc1ccccc1OCc1cccc(C(=O)N(Cc2cc([O-])ccc2[O-])[C@H]2CCN(Cc3cccc([O-])c3)C2)c1 (chirality)
CSc1ccccc1OCc1cccc(C(=O)N(Cc2cc([O-])ccc2[O-])[C@H]2CCN(Cc3cccc([O-])c3)C2)c1 (3D coordinates assigned)
CSc1ccccc1OCc1cccc(C(=O)N(Cc2cc([O-])ccc2[O-])[C@H]2CCN(Cc3cccc([O-])c3)C2)c1 (nonaromatic ring conformer: 90.25666674700535 kcal/mol)

>  <smiles>  (36) 
CSc1ccccc1OCc1cccc(C(=O)N(Cc2cc(O)ccc2O)C2CCN(Cc3cccc(O)c3)C2)c1

>  <score_type>  (36) 
oracle

>  <origin>  (36) 
adg

>  <m_score__min__energy>  (36) 
-16.870000000000001

>  <m_primary>  (36) 
energy

$$$$
36:0
     RDKit          3D

 34 36  0  0  0  0  0  0  0  0999 V2000
   57.8390   30.3560   54.6980 H   0  0  0  0  0  0  0  0  0  0  0  0
   58.0660   31.3430   54.7110 O   0  0  0  0  0  0  0  0  0  0  0  0
   58.3750   32.0390   53.5430 C   0  0  0  0  0  0  0  0  0  0  0  0
   58.6310   33.4180   53.6020 C   0  0  0  0  0  0  0  0  0  0  0  0
   58.6372   33.9326   54.5742 H   0  0  0  0  0  0  0  0  0  0  0  0
   58.8780   34.1400   52.4310 C   0  0  0  0  0  0  0  0  0  0  0  0
   59.0834   35.2194   52.4833 H   0  0  0  0  0  0  0  0  0  0  0  0
   58.8640   33.4910   51.1950 C   0  0  0  0  0  0  0  0  0  0  0  0
   59.0469   34.0622   50.2729 H   0  0  0  0  0  0  0  0  0  0  0  0
   58.6180   32.1170   51.1270 C   0  0  0  0  0  0  0  0  0  0  0  0
   58.5930   31.6136   50.1492 H   0  0  0  0  0  0  0  0  0  0  0  0
   58.4030   31.3770   52.2970 C   0  0  0  0  0  0  0  0  0  0  0  0
   58.1470   29.9690   52.1790 N   0  0  0  0  0  0  0  0  0  0  0  0
   57.2760   29.2100   53.0240 C   0  0  0  0  0  0  0  0  0  0  0  0
   57.7500   28.4450   53.9080 O   0  0  0  0  0  0  0  0  0  0  0  0
   55.8200   29.2860   52.8260 C   0  0  0  0  0  0  0  0  0  0  0  0
   55.1700   30.1700   51.9840 C   0  0  0  0  0  0  0  0  0  0  0  0
   55.6373   30.9354   51.3470 H   0  0  0  0  0  0  0  0  0  0  0  0
   53.8090   29.9020   52.1000 C   0  0  0  0  0  0  0  0  0  0  0  0
   52.7890   30.5230   51.4710 C   0  0  0  0  0  0  0  0  0  0  0  0
   52.6956   30.3607   50.3871 H   0  0  0  0  0  0  0  0  0  0  0  0
   51.7850   31.4030   52.1100 C   0  0  0  0  0  0  0  0  0  0  0  0
   51.4930   31.4490   53.4230 N   0  0  0  0  0  0  0  0  0  0  0  0
   50.5480   32.4120   53.5040 C   0  0  0  0  0  0  0  0  0  0  0  0
   50.0140   32.7470   54.5930 O   0  0  0  0  0  0  0  0  0  0  0  0
   50.2230   32.9850   52.3270 N   0  0  0  0  0  0  0  0  0  0  0  0
   51.0160   32.3390   51.4570 C   0  0  0  0  0  0  0  0  0  0  0  0
   51.0360   32.5980   50.0930 O   0  0  0  0  0  0  0  0  0  0  0  0
   53.7080   28.8530   53.0220 C   0  0  0  0  0  0  0  0  0  0  0  0
   52.5930   28.2540   53.4540 C   0  0  0  0  0  0  0  0  0  0  0  0
   51.6121   28.5809   53.0785 H   0  0  0  0  0  0  0  0  0  0  0  0
   52.6568   27.4344   54.1849 H   0  0  0  0  0  0  0  0  0  0  0  0
   54.9340   28.4900   53.4510 N   0  0  0  0  0  0  0  0  0  0  0  0
   55.1550   27.7350   54.1380 H   0  0  0  0  0  0  0  0  0  0  0  0
  1  2  1  0
  2  3  1  0
  3  4  2  0
  4  5  1  0
  4  6  1  0
  6  7  1  0
  6  8  2  0
  8  9  1  0
  8 10  1  0
 10 11  1  0
 10 12  2  0
 12 13  1  0
 13 14  1  0
 14 15  2  0
 14 16  1  0
 16 17  2  0
 17 18  1  0
 17 19  1  0
 19 20  2  0
 20 21  1  0
 20 22  1  0
 22 23  1  0
 23 24  1  0
 24 25  2  0
 24 26  1  0
 26 27  1  0
 27 28  1  0
 19 29  1  0
 29 30  2  0
 30 31  1  0
 30 32  1  0
 29 33  1  0
 33 34  1  0
 12  3  1  0
 33 16  1  0
 27 22  2  0
M  CHG  4  13  -1  23  -1  26  -1  28  -1
M  END
>  <UniqueID>  (37) 
37

>  <SMILES>  (37) 
C=c1[nH]c(C(=O)[N-]c2ccccc2O)c/c1=C\c1[n-]c(=O)[n-]c1[O-]

>  <Energy>  (37) 
101.49064646063472

>  <Genealogy>  (37) 
C=c1[nH]c(C(=O)[N-]c2ccccc2O)cc1=Cc1[n-]c(=O)[n-]c1[O-] (protonated)
C=c1[nH]c(C(=O)[N-]c2ccccc2O)c/c1=C\c1[n-]c(=O)[n-]c1[O-] (cis-trans isomerization)
C=c1[nH]c(C(=O)[N-]c2ccccc2O)c/c1=C\c1[n-]c(=O)[n-]c1[O-] (3D coordinates assigned)
C=c1[nH]c(C(=O)[N-]c2ccccc2O)c/c1=C\c1[n-]c(=O)[n-]c1[O-] (optimized conformer: 101.49064646063472 kcal/mol)

>  <smiles>  (37) 
C=c1[nH]c(C(=O)Nc2ccccc2O)cc1=Cc1[nH]c(=O)[nH]c1O

>  <score_type>  (37) 
oracle

>  <origin>  (37) 
adg

>  <m_score__min__energy>  (37) 
-16.460000000000001

>  <m_primary>  (37) 
energy

$$$$
37:0
     RDKit          3D

 43 46  0  0  0  0  0  0  0  0999 V2000
   56.5369   21.8930   41.5690 H   0  0  0  0  0  0  0  0  0  0  0  0
   56.6210   22.1930   42.6240 C   0  0  0  0  0  0  0  0  0  0  0  0
   55.9180   23.3050   43.0910 C   0  0  0  0  0  0  0  0  0  0  0  0
   55.2834   23.8827   42.4029 H   0  0  0  0  0  0  0  0  0  0  0  0
   56.0200   23.6850   44.4330 C   0  0  0  0  0  0  0  0  0  0  0  0
   55.4709   24.5670   44.7942 H   0  0  0  0  0  0  0  0  0  0  0  0
   56.8200   22.9470   45.3240 C   0  0  0  0  0  0  0  0  0  0  0  0
   56.9340   23.3620   46.7430 C   0  0  0  0  0  0  0  0  0  0  0  0
   57.0610   22.4790   47.6320 O   0  0  0  0  0  0  0  0  0  0  0  0
   56.8430   24.7370   47.1500 N   0  0  0  0  0  0  0  0  0  0  0  0
   57.4590   25.7400   46.5960 C   0  0  0  0  0  0  0  0  0  0  0  0
   58.7830   25.6650   46.2740 N   0  0  0  0  0  0  0  0  0  0  0  0
   59.4510   26.7040   45.7070 C   0  0  0  0  0  0  0  0  0  0  0  0
   60.5169   26.6015   45.4554 H   0  0  0  0  0  0  0  0  0  0  0  0
   58.7800   27.9070   45.4430 C   0  0  0  0  0  0  0  0  0  0  0  0
   59.4070   29.0190   44.8580 C   0  0  0  0  0  0  0  0  0  0  0  0
   60.6260   28.9730   44.5380 O   0  0  0  0  0  0  0  0  0  0  0  0
   58.6930   30.1580   44.6310 N   0  0  0  0  0  0  0  0  0  0  0  0
   59.1900   30.9610   44.1880 H   0  0  0  0  0  0  0  0  0  0  0  0
   57.3690   30.2410   44.9690 C   0  0  0  0  0  0  0  0  0  0  0  0
   56.6710   31.3230   44.7680 N   0  0  0  0  0  0  0  0  0  0  0  0
   57.1850   32.6790   44.5650 C   0  0  0  0  0  0  0  0  0  0  0  0
   57.7060   32.7253   43.5973 H   0  0  0  0  0  0  0  0  0  0  0  0
   56.3383   33.3811   44.5803 H   0  0  0  0  0  0  0  0  0  0  0  0
   58.1460   33.0610   45.6610 C   0  0  0  0  0  0  0  0  0  0  0  0
   57.9000   32.6610   46.9860 C   0  0  0  0  0  0  0  0  0  0  0  0
   57.0079   32.0617   47.2207 H   0  0  0  0  0  0  0  0  0  0  0  0
   58.7850   33.0220   48.0070 C   0  0  0  0  0  0  0  0  0  0  0  0
   58.5906   32.7009   49.0410 H   0  0  0  0  0  0  0  0  0  0  0  0
   59.9160   33.7900   47.7160 C   0  0  0  0  0  0  0  0  0  0  0  0
   61.0250   34.2410   48.9980 Cl  0  0  0  0  0  0  0  0  0  0  0  0
   60.1600   34.2030   46.4020 C   0  0  0  0  0  0  0  0  0  0  0  0
   61.0477   34.8111   46.1735 H   0  0  0  0  0  0  0  0  0  0  0  0
   59.2770   33.8440   45.3780 C   0  0  0  0  0  0  0  0  0  0  0  0
   59.4693   34.1763   44.3472 H   0  0  0  0  0  0  0  0  0  0  0  0
   56.7520   29.1700   45.5320 N   0  0  0  0  0  0  0  0  0  0  0  0
   57.4180   28.0130   45.7760 C   0  0  0  0  0  0  0  0  0  0  0  0
   56.7580   26.9280   46.3570 C   0  0  0  0  0  0  0  0  0  0  0  0
   55.6941   27.0064   46.6251 H   0  0  0  0  0  0  0  0  0  0  0  0
   57.5370   21.8370   44.8380 C   0  0  0  0  0  0  0  0  0  0  0  0
   58.1836   21.2628   45.5178 H   0  0  0  0  0  0  0  0  0  0  0  0
   57.4310   21.4610   43.4950 C   0  0  0  0  0  0  0  0  0  0  0  0
   57.9866   20.5871   43.1241 H   0  0  0  0  0  0  0  0  0  0  0  0
  1  2  1  0
  2  3  2  0
  3  4  1  0
  3  5  1  0
  5  6  1  0
  5  7  2  0
  7  8  1  0
  8  9  2  0
  8 10  1  0
 10 11  2  3
 11 12  1  0
 12 13  1  0
 13 14  1  0
 13 15  2  0
 15 16  1  0
 16 17  2  0
 16 18  1  0
 18 19  1  0
 18 20  1  0
 20 21  2  0
 21 22  1  0
 22 23  1  0
 22 24  1  0
 22 25  1  0
 25 26  2  0
 26 27  1  0
 26 28  1  0
 28 29  1  0
 28 30  2  0
 30 31  1  0
 30 32  1  0
 32 33  1  0
 32 34  2  0
 34 35  1  0
 20 36  1  0
 36 37  1  0
 37 38  2  0
 38 39  1  0
  7 40  1  0
 40 41  1  0
 40 42  2  0
 42 43  1  0
 42  2  1  0
 38 11  1  0
 37 15  1  0
 34 25  1  0
M  CHG  2  12  -1  36  -1
M  END
>  <UniqueID>  (38) 
38

>  <SMILES>  (38) 
O=C(N=c1cc2[n-]/c(=N/Cc3ccc(Cl)cc3)[nH]c(=O)c2c[n-]1)c1ccccc1

>  <Energy>  (38) 
62.275929627928015

>  <Genealogy>  (38) 
O=C(N=c1cc2[n-]c(=NCc3ccc(Cl)cc3)[nH]c(=O)c2c[n-]1)c1ccccc1 (protonated)
O=C(N=c1cc2[n-]/c(=N/Cc3ccc(Cl)cc3)[nH]c(=O)c2c[n-]1)c1ccccc1 (cis-trans isomerization)
O=C(N=c1cc2[n-]/c(=N/Cc3ccc(Cl)cc3)[nH]c(=O)c2c[n-]1)c1ccccc1 (3D coordinates assigned)
O=C(N=c1cc2[n-]/c(=N/Cc3ccc(Cl)cc3)[nH]c(=O)c2c[n-]1)c1ccccc1 (optimized conformer: 62.275929627928015 kcal/mol)

>  <smiles>  (38) 
O=C(N=c1cc2[nH]c(=NCc3ccc(Cl)cc3)[nH]c(=O)c2c[nH]1)c1ccccc1

>  <score_type>  (38) 
oracle

>  <origin>  (38) 
adg

>  <m_score__min__energy>  (38) 
-11.81

>  <m_primary>  (38) 
energy

$$$$
38:0
     RDKit          3D

 59 63  0  0  0  0  0  0  0  0999 V2000
   57.0980   33.3870   39.8990 C   0  0  0  0  0  0  0  0  0  0  0  0
   56.9740   32.1240   40.5450 O   0  0  0  0  0  0  0  0  0  0  0  0
   57.2920   31.8860   41.8880 C   0  0  0  0  0  0  0  0  0  0  0  0
   56.7510   30.8080   42.6080 C   0  0  0  0  0  0  0  0  0  0  0  0
   57.0970   30.6110   43.9470 C   0  0  0  0  0  0  0  0  0  0  0  0
   57.9560   31.5090   44.6070 C   0  0  0  0  0  0  0  0  0  0  0  0
   58.3660   31.3050   46.0590 C   0  0  1  0  0  0  0  0  0  0  0  0
   58.4410   29.8260   46.4040 C   0  0  0  0  0  0  0  0  0  0  0  0
   57.4130   29.1670   46.3610 O   0  0  0  0  0  0  0  0  0  0  0  0
   59.7570   29.1240   46.6440 C   0  0  2  0  0  0  0  0  0  0  0  0
   59.6020   27.8530   47.4470 C   0  0  0  0  0  0  0  0  0  0  0  0
   59.6940   27.9230   48.7000 O   0  0  0  0  0  0  0  0  0  0  0  0
   59.3010   26.5490   46.8140 C   0  0  0  0  0  0  0  0  0  0  0  0
   60.2210   25.5600   46.4660 C   0  0  0  0  0  0  0  0  0  0  0  0
   59.5990   24.5160   45.8720 N   0  0  0  0  0  0  0  0  0  0  0  0
   58.2930   24.8280   45.8410 C   0  0  0  0  0  0  0  0  0  0  0  0
   57.2570   24.0550   45.3150 C   0  0  0  0  0  0  0  0  0  0  0  0
   55.9530   24.5730   45.3740 C   0  0  0  0  0  0  0  0  0  0  0  0
   55.7110   25.8380   45.9550 C   0  0  0  0  0  0  0  0  0  0  0  0
   54.4180   26.3400   45.9970 O   0  0  0  0  0  0  0  0  0  0  0  0
   56.7750   26.5950   46.4840 C   0  0  0  0  0  0  0  0  0  0  0  0
   58.0650   26.0580   46.4070 C   0  0  0  0  0  0  0  0  0  0  0  0
   60.7130   30.0150   47.2850 N   0  0  0  0  0  0  0  0  0  0  0  0
   60.8430   31.3590   46.8320 C   0  0  0  0  0  0  0  0  0  0  0  0
   61.9860   31.8890   46.7980 O   0  0  0  0  0  0  0  0  0  0  0  0
   59.6410   32.1580   46.4020 C   0  0  2  0  0  0  0  0  0  0  0  0
   59.3510   33.3210   47.3950 C   0  0  0  0  0  0  0  0  0  0  0  0
   59.3700   32.9320   48.8670 C   0  0  0  0  0  0  0  0  0  0  0  0
   58.2160   32.3570   49.4390 C   0  0  0  0  0  0  0  0  0  0  0  0
   58.1900   31.9910   50.7860 C   0  0  0  0  0  0  0  0  0  0  0  0
   59.3040   32.2170   51.5940 C   0  0  0  0  0  0  0  0  0  0  0  0
   60.4450   32.8150   51.0580 C   0  0  0  0  0  0  0  0  0  0  0  0
   60.4870   33.1850   49.7050 C   0  0  0  0  0  0  0  0  0  0  0  0
   61.6610   33.8810   49.2340 C   0  0  0  0  0  0  0  0  0  0  0  0
   62.6080   34.4280   48.8530 N   0  0  0  0  0  0  0  0  0  0  0  0
   58.5140   32.5720   43.8730 C   0  0  0  0  0  0  0  0  0  0  0  0
   58.1830   32.7560   42.5280 C   0  0  0  0  0  0  0  0  0  0  0  0
   57.1759   34.1804   40.6569 H   0  0  0  0  0  0  0  0  0  0  0  0
   58.0008   33.3903   39.2705 H   0  0  0  0  0  0  0  0  0  0  0  0
   56.2131   33.5659   39.2705 H   0  0  0  0  0  0  0  0  0  0  0  0
   56.0520   30.1161   42.1154 H   0  0  0  0  0  0  0  0  0  0  0  0
   56.6935   29.7444   44.4913 H   0  0  0  0  0  0  0  0  0  0  0  0
   57.5864   31.6954   46.7297 H   0  0  0  0  0  0  0  0  0  0  0  0
   60.1427   28.8369   45.6547 H   0  0  0  0  0  0  0  0  0  0  0  0
   61.3039   25.6207   46.6495 H   0  0  0  0  0  0  0  0  0  0  0  0
   60.0460   23.6460   45.5080 H   0  0  0  0  0  0  0  0  0  0  0  0
   57.4557   23.0699   44.8678 H   0  0  0  0  0  0  0  0  0  0  0  0
   55.1145   23.9901   44.9652 H   0  0  0  0  0  0  0  0  0  0  0  0
   56.5971   27.5784   46.9436 H   0  0  0  0  0  0  0  0  0  0  0  0
   61.5240   29.5960   47.7930 H   0  0  0  0  0  0  0  0  0  0  0  0
   59.9143   32.6051   45.4348 H   0  0  0  0  0  0  0  0  0  0  0  0
   60.1112   34.1005   47.2385 H   0  0  0  0  0  0  0  0  0  0  0  0
   58.3266   33.6595   47.1803 H   0  0  0  0  0  0  0  0  0  0  0  0
   57.3245   32.1948   48.8153 H   0  0  0  0  0  0  0  0  0  0  0  0
   57.2894   31.5236   51.2107 H   0  0  0  0  0  0  0  0  0  0  0  0
   59.2831   31.9238   52.6540 H   0  0  0  0  0  0  0  0  0  0  0  0
   61.3185   32.9979   51.7011 H   0  0  0  0  0  0  0  0  0  0  0  0
   59.2162   33.2634   44.3618 H   0  0  0  0  0  0  0  0  0  0  0  0
   58.6264   33.5918   41.9670 H   0  0  0  0  0  0  0  0  0  0  0  0
  1  2  1  0
  2  3  1  0
  3  4  2  0
  4  5  1  0
  5  6  2  0
  6  7  1  0
  7  8  1  0
  8  9  2  0
  8 10  1  0
 10 11  1  0
 11 12  2  0
 11 13  1  0
 13 14  2  0
 14 15  1  0
 15 16  1  0
 16 17  2  0
 17 18  1  0
 18 19  2  0
 19 20  1  0
 19 21  1  0
 21 22  2  0
 10 23  1  0
 23 24  1  0
 24 25  2  0
 24 26  1  0
 26 27  1  0
 27 28  1  0
 28 29  2  0
 29 30  1  0
 30 31  2  0
 31 32  1  0
 32 33  2  0
 33 34  1  0
 34 35  3  0
  6 36  1  0
 36 37  2  0
 37  3  1  0
 26  7  1  0
 33 28  1  0
 22 13  1  0
 22 16  1  0
  1 38  1  0
  1 39  1  0
  1 40  1  0
  4 41  1  0
  5 42  1  0
  7 43  1  1
 10 44  1  6
 14 45  1  0
 15 46  1  0
 17 47  1  0
 18 48  1  0
 21 49  1  0
 23 50  1  0
 26 51  1  6
 27 52  1  0
 27 53  1  0
 29 54  1  0
 30 55  1  0
 31 56  1  0
 32 57  1  0
 36 58  1  0
 37 59  1  0
M  CHG  1  20  -1
M  END
>  <UniqueID>  (39) 
39

>  <SMILES>  (39) 
COc1ccc([C@H]2C(=O)[C@H](C(=O)c3c[nH]c4ccc([O-])cc34)NC(=O)C2Cc2ccccc2C#N)cc1

>  <Energy>  (39) 
107.10616740361732

>  <Genealogy>  (39) 
COc1ccc(C2C(=O)C(C(=O)c3c[nH]c4ccc([O-])cc34)NC(=O)C2Cc2ccccc2C#N)cc1 (protonated)
COc1ccc([C@H]2C(=O)[C@H](C(=O)c3c[nH]c4ccc([O-])cc34)NC(=O)C2Cc2ccccc2C#N)cc1 (chirality)
COc1ccc([C@H]2C(=O)[C@H](C(=O)c3c[nH]c4ccc([O-])cc34)NC(=O)C2Cc2ccccc2C#N)cc1 (3D coordinates assigned)
COc1ccc([C@H]2C(=O)[C@H](C(=O)c3c[nH]c4ccc([O-])cc34)NC(=O)C2Cc2ccccc2C#N)cc1 (nonaromatic ring conformer: 107.10616740361732 kcal/mol)

>  <smiles>  (39) 
COc1ccc(C2C(=O)C(C(=O)c3c[nH]c4ccc(O)cc34)NC(=O)C2Cc2ccccc2C#N)cc1

>  <score_type>  (39) 
oracle

>  <origin>  (39) 
adg

>  <m_score__min__energy>  (39) 
-13.48

>  <m_primary>  (39) 
energy

$$$$
39:0
     RDKit          3D

 27 27  0  0  0  0  0  0  0  0999 V2000
   58.7719   33.0912   47.6300 H   0  0  0  0  0  0  0  0  0  0  0  0
   58.9940   33.4440   46.6120 C   0  0  0  0  0  0  0  0  0  0  0  0
   57.9760   33.2350   45.5610 C   0  0  0  0  0  0  0  0  0  0  0  0
   57.1150   34.1360   45.3700 O   0  0  0  0  0  0  0  0  0  0  0  0
   57.9150   31.9910   44.7180 C   0  0  0  0  0  0  0  0  0  0  0  0
   58.8927   31.4877   44.7455 H   0  0  0  0  0  0  0  0  0  0  0  0
   57.6611   32.2749   43.6860 H   0  0  0  0  0  0  0  0  0  0  0  0
   56.9150   31.0990   45.2080 O   0  0  0  0  0  0  0  0  0  0  0  0
   56.2360   30.1830   44.3960 C   0  0  0  0  0  0  0  0  0  0  0  0
   55.3280   29.4480   44.8690 O   0  0  0  0  0  0  0  0  0  0  0  0
   56.6270   30.0420   42.9640 C   0  0  0  0  0  0  0  0  0  0  0  0
   57.6601   29.6695   42.9010 H   0  0  0  0  0  0  0  0  0  0  0  0
   55.9500   29.3314   42.4673 H   0  0  0  0  0  0  0  0  0  0  0  0
   56.5594   31.0211   42.4673 H   0  0  0  0  0  0  0  0  0  0  0  0
   60.1740   34.0410   46.3900 C   0  0  0  0  0  0  0  0  0  0  0  0
   60.2640   34.7153   45.5256 H   0  0  0  0  0  0  0  0  0  0  0  0
   61.3670   33.8370   47.2540 C   0  0  0  0  0  0  0  0  0  0  0  0
   62.5680   33.3040   46.7460 C   0  0  0  0  0  0  0  0  0  0  0  0
   62.6404   33.0402   45.6806 H   0  0  0  0  0  0  0  0  0  0  0  0
   63.6390   33.1130   47.5630 N   0  0  0  0  0  0  0  0  0  0  0  0
   64.5200   32.7160   47.1650 H   0  0  0  0  0  0  0  0  0  0  0  0
   63.5880   33.4150   48.8880 C   0  0  0  0  0  0  0  0  0  0  0  0
   64.4716   33.2528   49.5228 H   0  0  0  0  0  0  0  0  0  0  0  0
   62.4170   33.9300   49.4430 C   0  0  0  0  0  0  0  0  0  0  0  0
   62.3720   34.1701   50.5155 H   0  0  0  0  0  0  0  0  0  0  0  0
   61.3020   34.1390   48.6290 C   0  0  0  0  0  0  0  0  0  0  0  0
   60.2470   34.6070   49.1370 O   0  0  0  0  0  0  0  0  0  0  0  0
  1  2  1  0
  2  3  1  0
  3  4  2  0
  3  5  1  0
  5  6  1  0
  5  7  1  0
  5  8  1  0
  8  9  1  0
  9 10  2  0
  9 11  1  0
 11 12  1  0
 11 13  1  0
 11 14  1  0
  2 15  2  0
 15 16  1  0
 15 17  1  0
 17 18  2  0
 18 19  1  0
 18 20  1  0
 20 21  1  0
 20 22  1  0
 22 23  1  0
 22 24  2  0
 24 25  1  0
 24 26  1  0
 26 27  2  0
 26 17  1  0
M  END
>  <UniqueID>  (40) 
40

>  <SMILES>  (40) 
CC(=O)OCC(=O)/C=C/c1c[nH]ccc1=O

>  <Energy>  (40) 
24.766065522211626

>  <Genealogy>  (40) 
CC(=O)OCC(=O)/C=C/c1c[nH]ccc1=O (cis-trans isomerization)
CC(=O)OCC(=O)/C=C/c1c[nH]ccc1=O (3D coordinates assigned)
CC(=O)OCC(=O)/C=C/c1c[nH]ccc1=O (optimized conformer: 24.766065522211626 kcal/mol)

>  <smiles>  (40) 
CC(=O)OCC(=O)C=Cc1c[nH]ccc1=O

>  <score_type>  (40) 
oracle

>  <origin>  (40) 
adg

>  <m_score__min__energy>  (40) 
-6.5599999999999996

>  <m_primary>  (40) 
energy

$$$$
40:0
     RDKit          3D

 66 69  0  0  0  0  0  0  0  0999 V2000
   62.2250   31.4490   49.2530 C   0  0  0  0  0  0  0  0  0  0  0  0
   63.0680   32.5890   48.8540 N   0  0  0  0  0  0  0  0  0  0  0  0
   63.2660   32.6400   47.3820 C   0  0  0  0  0  0  0  0  0  0  0  0
   62.4620   33.7490   46.6750 C   0  0  0  0  0  0  0  0  0  0  0  0
   61.2080   34.0060   47.3830 N   0  0  0  0  0  0  0  0  0  0  0  0
   59.9540   33.9430   46.6880 C   0  0  0  0  0  0  0  0  0  0  0  0
   59.9030   34.2710   45.3260 C   0  0  0  0  0  0  0  0  0  0  0  0
   58.6940   34.1990   44.6290 C   0  0  0  0  0  0  0  0  0  0  0  0
   57.5310   33.7980   45.2880 C   0  0  0  0  0  0  0  0  0  0  0  0
   57.5690   33.4830   46.6490 C   0  0  0  0  0  0  0  0  0  0  0  0
   58.7790   33.5690   47.3650 C   0  0  0  0  0  0  0  0  0  0  0  0
   58.8480   33.2660   48.7320 O   0  0  0  0  0  0  0  0  0  0  0  0
   58.5160   32.0300   49.2990 C   0  0  0  0  0  0  0  0  0  0  0  0
   58.9700   30.9570   48.8130 O   0  0  0  0  0  0  0  0  0  0  0  0
   57.6210   31.9940   50.4160 N   0  0  0  0  0  0  0  0  0  0  0  0
   57.3970   30.7860   51.2150 C   0  0  1  0  0  0  0  0  0  0  0  0
   58.6690   30.4170   52.0000 C   0  0  0  0  0  0  0  0  0  0  0  0
   59.3230   31.6350   52.5990 C   0  0  0  0  0  0  0  0  0  0  0  0
   60.4840   32.1760   52.0220 C   0  0  0  0  0  0  0  0  0  0  0  0
   61.1130   33.2810   52.6040 C   0  0  0  0  0  0  0  0  0  0  0  0
   60.5900   33.8520   53.7660 C   0  0  0  0  0  0  0  0  0  0  0  0
   59.4410   33.3150   54.3520 C   0  0  0  0  0  0  0  0  0  0  0  0
   58.8100   32.2080   53.7750 C   0  0  0  0  0  0  0  0  0  0  0  0
   56.2480   31.0130   52.1540 C   0  0  0  0  0  0  0  0  0  0  0  0
   55.9360   32.1900   52.4900 O   0  0  0  0  0  0  0  0  0  0  0  0
   55.5230   29.8970   52.6810 N   0  0  0  0  0  0  0  0  0  0  0  0
   54.3760   29.2910   52.0140 C   0  0  0  0  0  0  0  0  0  0  0  0
   53.2140   30.2450   52.0080 C   0  0  0  0  0  0  0  0  0  0  0  0
   52.9030   30.9690   50.8450 C   0  0  0  0  0  0  0  0  0  0  0  0
   51.8410   31.8770   50.8420 C   0  0  0  0  0  0  0  0  0  0  0  0
   51.0850   32.0760   52.0020 C   0  0  0  0  0  0  0  0  0  0  0  0
   50.0310   32.9810   51.9980 O   0  0  0  0  0  0  0  0  0  0  0  0
   51.3930   31.3640   53.1650 C   0  0  0  0  0  0  0  0  0  0  0  0
   52.4530   30.4530   53.1710 C   0  0  0  0  0  0  0  0  0  0  0  0
   61.2340   34.2820   48.8220 C   0  0  0  0  0  0  0  0  0  0  0  0
   62.5820   33.8610   49.4280 C   0  0  0  0  0  0  0  0  0  0  0  0
   62.1822   31.3911   50.3506 H   0  0  0  0  0  0  0  0  0  0  0  0
   61.2095   31.5863   48.8532 H   0  0  0  0  0  0  0  0  0  0  0  0
   62.6538   30.5183   48.8532 H   0  0  0  0  0  0  0  0  0  0  0  0
   64.3347   32.8084   47.1832 H   0  0  0  0  0  0  0  0  0  0  0  0
   62.9040   31.6819   46.9807 H   0  0  0  0  0  0  0  0  0  0  0  0
   63.0606   34.6716   46.6531 H   0  0  0  0  0  0  0  0  0  0  0  0
   62.2306   33.4215   45.6507 H   0  0  0  0  0  0  0  0  0  0  0  0
   60.8184   34.5863   44.8038 H   0  0  0  0  0  0  0  0  0  0  0  0
   58.6590   34.4585   43.5606 H   0  0  0  0  0  0  0  0  0  0  0  0
   56.5825   33.7297   44.7351 H   0  0  0  0  0  0  0  0  0  0  0  0
   56.6497   33.1664   47.1635 H   0  0  0  0  0  0  0  0  0  0  0  0
   57.2670   32.9090   50.7820 H   0  0  0  0  0  0  0  0  0  0  0  0
   57.1540   29.9491   50.5437 H   0  0  0  0  0  0  0  0  0  0  0  0
   58.4003   29.7217   52.8089 H   0  0  0  0  0  0  0  0  0  0  0  0
   59.3811   29.9515   51.3027 H   0  0  0  0  0  0  0  0  0  0  0  0
   60.9004   31.7281   51.1077 H   0  0  0  0  0  0  0  0  0  0  0  0
   62.0207   33.7008   52.1460 H   0  0  0  0  0  0  0  0  0  0  0  0
   61.0826   34.7245   54.2200 H   0  0  0  0  0  0  0  0  0  0  0  0
   59.0317   33.7637   55.2691 H   0  0  0  0  0  0  0  0  0  0  0  0
   57.9092   31.7846   54.2434 H   0  0  0  0  0  0  0  0  0  0  0  0
   54.6479   29.0433   50.9773 H   0  0  0  0  0  0  0  0  0  0  0  0
   54.0875   28.3780   52.5555 H   0  0  0  0  0  0  0  0  0  0  0  0
   53.4985   30.8203   49.9322 H   0  0  0  0  0  0  0  0  0  0  0  0
   51.5991   32.4362   49.9261 H   0  0  0  0  0  0  0  0  0  0  0  0
   50.7996   31.5211   54.0778 H   0  0  0  0  0  0  0  0  0  0  0  0
   52.6924   29.8968   54.0893 H   0  0  0  0  0  0  0  0  0  0  0  0
   61.0841   35.3593   48.9865 H   0  0  0  0  0  0  0  0  0  0  0  0
   60.4313   33.7082   49.3082 H   0  0  0  0  0  0  0  0  0  0  0  0
   63.3237   34.6483   49.2281 H   0  0  0  0  0  0  0  0  0  0  0  0
   62.4407   33.7165   50.5093 H   0  0  0  0  0  0  0  0  0  0  0  0
  1  2  1  0
  2  3  1  0
  3  4  1  0
  4  5  1  0
  5  6  1  0
  6  7  2  0
  7  8  1  0
  8  9  2  0
  9 10  1  0
 10 11  2  0
 11 12  1  0
 12 13  1  0
 13 14  2  0
 13 15  1  0
 15 16  1  0
 16 17  1  0
 17 18  1  0
 18 19  2  0
 19 20  1  0
 20 21  2  0
 21 22  1  0
 22 23  2  0
 16 24  1  0
 24 25  2  0
 24 26  1  0
 26 27  1  0
 27 28  1  0
 28 29  2  0
 29 30  1  0
 30 31  2  0
 31 32  1  0
 31 33  1  0
 33 34  2  0
  5 35  1  0
 35 36  1  0
 36  2  1  0
 11  6  1  0
 23 18  1  0
 34 28  1  0
  1 37  1  0
  1 38  1  0
  1 39  1  0
  3 40  1  0
  3 41  1  0
  4 42  1  0
  4 43  1  0
  7 44  1  0
  8 45  1  0
  9 46  1  0
 10 47  1  0
 15 48  1  0
 16 49  1  6
 17 50  1  0
 17 51  1  0
 19 52  1  0
 20 53  1  0
 21 54  1  0
 22 55  1  0
 23 56  1  0
 27 57  1  0
 27 58  1  0
 29 59  1  0
 30 60  1  0
 33 61  1  0
 34 62  1  0
 35 63  1  0
 35 64  1  0
 36 65  1  0
 36 66  1  0
M  CHG  2  26  -1  32  -1
M  END
>  <UniqueID>  (41) 
41

>  <SMILES>  (41) 
CN1CCN(c2ccccc2OC(=O)N[C@@H](Cc2ccccc2)C(=O)[N-]Cc2ccc([O-])cc2)CC1

>  <Energy>  (41) 
77.1781152462245

>  <Genealogy>  (41) 
CN1CCN(c2ccccc2OC(=O)NC(Cc2ccccc2)C(=O)[N-]Cc2ccc([O-])cc2)CC1 (protonated)
CN1CCN(c2ccccc2OC(=O)N[C@@H](Cc2ccccc2)C(=O)[N-]Cc2ccc([O-])cc2)CC1 (chirality)
CN1CCN(c2ccccc2OC(=O)N[C@@H](Cc2ccccc2)C(=O)[N-]Cc2ccc([O-])cc2)CC1 (3D coordinates assigned)
CN1CCN(c2ccccc2OC(=O)N[C@@H](Cc2ccccc2)C(=O)[N-]Cc2ccc([O-])cc2)CC1 (nonaromatic ring conformer: 77.1781152462245 kcal/mol)

>  <smiles>  (41) 
CN1CCN(c2ccccc2OC(=O)NC(Cc2ccccc2)C(=O)NCc2ccc(O)cc2)CC1

>  <score_type>  (41) 
oracle

>  <origin>  (41) 
adg

>  <m_score__min__energy>  (41) 
-14.609999999999999

>  <m_primary>  (41) 
energy

$$$$
41:0
     RDKit          3D

 50 53  0  0  0  0  0  0  0  0999 V2000
   58.2770   30.0100   44.3190 C   0  0  0  0  0  0  0  0  0  0  0  0
   58.5250   29.5360   45.5500 C   0  0  0  0  0  0  0  0  0  0  0  0
   58.2630   28.2370   46.0170 C   0  0  0  0  0  0  0  0  0  0  0  0
   57.9170   27.1130   45.3620 C   0  0  0  0  0  0  0  0  0  0  0  0
   57.3000   25.9210   45.9680 C   0  0  0  0  0  0  0  0  0  0  0  0
   57.9820   24.8700   46.4590 N   0  0  0  0  0  0  0  0  0  0  0  0
   57.0190   24.1110   47.0240 C   0  0  0  0  0  0  0  0  0  0  0  0
   57.2650   23.0120   47.5870 O   0  0  0  0  0  0  0  0  0  0  0  0
   55.7740   24.6260   46.9500 N   0  0  0  0  0  0  0  0  0  0  0  0
   55.9720   25.7800   46.2910 C   0  0  0  0  0  0  0  0  0  0  0  0
   54.9640   26.6900   45.9940 O   0  0  0  0  0  0  0  0  0  0  0  0
   58.4530   28.2750   47.3870 C   0  0  0  0  0  0  0  0  0  0  0  0
   58.8980   29.5410   47.6950 C   0  0  0  0  0  0  0  0  0  0  0  0
   59.2750   29.9670   49.0550 C   0  0  0  0  0  0  0  0  0  0  0  0
   58.6560   30.9310   49.5800 O   0  0  0  0  0  0  0  0  0  0  0  0
   60.2920   29.2730   49.8040 N   0  0  0  0  0  0  0  0  0  0  0  0
   61.1520   30.0140   50.7340 C   0  0  0  0  0  0  0  0  0  0  0  0
   61.5530   29.1120   51.9040 C   0  0  0  0  0  0  0  0  0  0  0  0
   62.0910   27.8890   51.4380 O   0  0  0  0  0  0  0  0  0  0  0  0
   61.0880   27.1570   50.7600 C   0  0  0  0  0  0  0  0  0  0  0  0
   60.6500   27.8860   49.4860 C   0  0  0  0  0  0  0  0  0  0  0  0
   58.9390   30.3180   46.5850 N   0  0  0  0  0  0  0  0  0  0  0  0
   59.1710   31.7730   46.5570 C   0  0  0  0  0  0  0  0  0  0  0  0
   60.4760   32.1230   47.2260 C   0  0  0  0  0  0  0  0  0  0  0  0
   60.6060   33.3150   47.9590 C   0  0  0  0  0  0  0  0  0  0  0  0
   61.8190   33.6390   48.5740 C   0  0  0  0  0  0  0  0  0  0  0  0
   62.9180   32.7810   48.4560 C   0  0  0  0  0  0  0  0  0  0  0  0
   64.1670   33.1150   49.0890 C   0  0  0  0  0  0  0  0  0  0  0  0
   65.1710   33.3840   49.5960 N   0  0  0  0  0  0  0  0  0  0  0  0
   62.8000   31.5980   47.7160 C   0  0  0  0  0  0  0  0  0  0  0  0
   61.5870   31.2730   47.1010 C   0  0  0  0  0  0  0  0  0  0  0  0
   58.5277   31.0517   44.0699 H   0  0  0  0  0  0  0  0  0  0  0  0
   57.8230   29.3568   43.5592 H   0  0  0  0  0  0  0  0  0  0  0  0
   58.1121   27.0822   44.2799 H   0  0  0  0  0  0  0  0  0  0  0  0
   55.1470   27.4860   45.3950 H   0  0  0  0  0  0  0  0  0  0  0  0
   58.2813   27.4509   48.0951 H   0  0  0  0  0  0  0  0  0  0  0  0
   62.0565   30.3497   50.2056 H   0  0  0  0  0  0  0  0  0  0  0  0
   60.6021   30.8849   51.1201 H   0  0  0  0  0  0  0  0  0  0  0  0
   62.3086   29.6284   52.5143 H   0  0  0  0  0  0  0  0  0  0  0  0
   60.6567   28.8955   52.5039 H   0  0  0  0  0  0  0  0  0  0  0  0
   61.4840   26.1667   50.4908 H   0  0  0  0  0  0  0  0  0  0  0  0
   60.2172   27.0535   51.4241 H   0  0  0  0  0  0  0  0  0  0  0  0
   61.4760   27.8796   48.7595 H   0  0  0  0  0  0  0  0  0  0  0  0
   59.7753   27.3746   49.0579 H   0  0  0  0  0  0  0  0  0  0  0  0
   59.1999   32.1130   45.5113 H   0  0  0  0  0  0  0  0  0  0  0  0
   58.3535   32.2696   47.1002 H   0  0  0  0  0  0  0  0  0  0  0  0
   59.7480   33.9974   48.0494 H   0  0  0  0  0  0  0  0  0  0  0  0
   61.9096   34.5705   49.1520 H   0  0  0  0  0  0  0  0  0  0  0  0
   63.6632   30.9231   47.6183 H   0  0  0  0  0  0  0  0  0  0  0  0
   61.5024   30.3456   46.5155 H   0  0  0  0  0  0  0  0  0  0  0  0
  1  2  2  0
  2  3  1  0
  3  4  2  3
  4  5  1  0
  5  6  1  0
  6  7  1  0
  7  8  2  0
  7  9  1  0
  9 10  1  0
 10 11  1  0
  3 12  1  0
 12 13  2  0
 13 14  1  0
 14 15  2  0
 14 16  1  0
 16 17  1  0
 17 18  1  0
 18 19  1  0
 19 20  1  0
 20 21  1  0
 13 22  1  0
 22 23  1  0
 23 24  1  0
 24 25  2  0
 25 26  1  0
 26 27  2  0
 27 28  1  0
 28 29  3  0
 27 30  1  0
 30 31  2  0
 22  2  1  0
 31 24  1  0
 10  5  2  0
 21 16  1  0
  1 32  1  0
  1 33  1  0
  4 34  1  0
 11 35  1  0
 12 36  1  0
 17 37  1  0
 17 38  1  0
 18 39  1  0
 18 40  1  0
 20 41  1  0
 20 42  1  0
 21 43  1  0
 21 44  1  0
 23 45  1  0
 23 46  1  0
 25 47  1  0
 26 48  1  0
 30 49  1  0
 31 50  1  0
M  CHG  2   6  -1   9  -1
M  END
>  <UniqueID>  (42) 
42

>  <SMILES>  (42) 
C=c1c(=Cc2[n-]c(=O)[n-]c2O)cc(C(=O)N2CCOCC2)n1Cc1ccc(C#N)cc1

>  <Energy>  (42) 
127.50643580426434

>  <Genealogy>  (42) 
C=c1c(=Cc2[n-]c(=O)[n-]c2O)cc(C(=O)N2CCOCC2)n1Cc1ccc(C#N)cc1 (protonated)
C=c1c(=Cc2[n-]c(=O)[n-]c2O)cc(C(=O)N2CCOCC2)n1Cc1ccc(C#N)cc1 (3D coordinates assigned)
C=c1c(=Cc2[n-]c(=O)[n-]c2O)cc(C(=O)N2CCOCC2)n1Cc1ccc(C#N)cc1 (nonaromatic ring conformer: 127.50643580426434 kcal/mol)

>  <smiles>  (42) 
C=c1c(=Cc2[nH]c(=O)[nH]c2O)cc(C(=O)N2CCOCC2)n1Cc1ccc(C#N)cc1

>  <score_type>  (42) 
oracle

>  <origin>  (42) 
adg

>  <m_score__min__energy>  (42) 
-12.390000000000001

>  <m_primary>  (42) 
energy

$$$$
42:0
     RDKit          3D

 38 41  0  0  0  0  0  0  0  0999 V2000
   56.9523   32.1015   42.8953 H   0  0  0  0  0  0  0  0  0  0  0  0
   57.0180   31.3030   43.6490 C   0  0  0  0  0  0  0  0  0  0  0  0
   56.4270   29.7370   43.4850 S   0  0  0  0  0  0  0  0  0  0  0  0
   56.9280   29.2720   45.0260 C   0  0  0  0  0  0  0  0  0  0  0  0
   56.8060   28.0910   45.5540 N   0  0  0  0  0  0  0  0  0  0  0  0
   57.6180   27.5180   46.5910 C   0  0  0  0  0  0  0  0  0  0  0  0
   58.3930   28.2730   47.2370 O   0  0  0  0  0  0  0  0  0  0  0  0
   57.5070   26.0720   47.0000 C   0  0  0  0  0  0  0  0  0  0  0  0
   58.4766   25.5792   46.8356 H   0  0  0  0  0  0  0  0  0  0  0  0
   57.2227   26.0359   48.0620 H   0  0  0  0  0  0  0  0  0  0  0  0
   56.4480   25.3480   46.2030 C   0  0  0  0  0  0  0  0  0  0  0  0
   55.1660   25.7900   46.2990 N   0  0  0  0  0  0  0  0  0  0  0  0
   54.1610   25.2010   45.6520 N   0  0  0  0  0  0  0  0  0  0  0  0
   54.3580   24.1220   44.8570 C   0  0  0  0  0  0  0  0  0  0  0  0
   53.3720   23.6020   44.2680 O   0  0  0  0  0  0  0  0  0  0  0  0
   55.6530   23.6030   44.7010 C   0  0  0  0  0  0  0  0  0  0  0  0
   55.9000   22.4840   43.8840 C   0  0  0  0  0  0  0  0  0  0  0  0
   55.0671   21.9988   43.3540 H   0  0  0  0  0  0  0  0  0  0  0  0
   57.1960   21.9870   43.7430 C   0  0  0  0  0  0  0  0  0  0  0  0
   57.3814   21.1113   43.1036 H   0  0  0  0  0  0  0  0  0  0  0  0
   58.2570   22.5980   44.4110 C   0  0  0  0  0  0  0  0  0  0  0  0
   59.2770   22.2027   44.2957 H   0  0  0  0  0  0  0  0  0  0  0  0
   58.0300   23.7100   45.2260 C   0  0  0  0  0  0  0  0  0  0  0  0
   58.8734   24.1864   45.7473 H   0  0  0  0  0  0  0  0  0  0  0  0
   56.7270   24.2260   45.3850 C   0  0  0  0  0  0  0  0  0  0  0  0
   57.5580   30.2780   45.6640 N   0  0  0  0  0  0  0  0  0  0  0  0
   57.6070   31.4110   44.9110 C   0  0  0  0  0  0  0  0  0  0  0  0
   58.2410   32.6400   45.4160 C   0  0  0  0  0  0  0  0  0  0  0  0
   58.5010   34.0330   44.5070 S   0  0  0  0  0  0  0  0  0  0  0  0
   59.2190   34.9320   45.7300 C   0  0  0  0  0  0  0  0  0  0  0  0
   59.5827   35.9664   45.6422 H   0  0  0  0  0  0  0  0  0  0  0  0
   59.2740   34.1420   46.8730 C   0  0  0  0  0  0  0  0  0  0  0  0
   59.8020   34.6360   48.1820 C   0  0  0  0  0  0  0  0  0  0  0  0
   59.2686   34.1369   49.0044 H   0  0  0  0  0  0  0  0  0  0  0  0
   60.8765   34.4114   48.2522 H   0  0  0  0  0  0  0  0  0  0  0  0
   59.6493   35.7231   48.2522 H   0  0  0  0  0  0  0  0  0  0  0  0
   58.7160   32.8650   46.7050 C   0  0  0  0  0  0  0  0  0  0  0  0
   58.6598   32.1178   47.5103 H   0  0  0  0  0  0  0  0  0  0  0  0
  1  2  1  0
  2  3  1  0
  3  4  1  0
  4  5  2  0
  5  6  1  0
  6  7  2  0
  6  8  1  0
  8  9  1  0
  8 10  1  0
  8 11  1  0
 11 12  2  0
 12 13  1  0
 13 14  1  0
 14 15  2  0
 14 16  1  0
 16 17  2  0
 17 18  1  0
 17 19  1  0
 19 20  1  0
 19 21  2  0
 21 22  1  0
 21 23  1  0
 23 24  1  0
 23 25  2  0
  4 26  1  0
 26 27  1  0
 27 28  1  0
 28 29  1  0
 29 30  1  0
 30 31  1  0
 30 32  2  0
 32 33  1  0
 33 34  1  0
 33 35  1  0
 33 36  1  0
 32 37  1  0
 37 38  1  0
 27  2  2  0
 37 28  2  0
 25 11  1  0
 25 16  1  0
M  CHG  2  13  -1  26  -1
M  END
>  <UniqueID>  (43) 
43

>  <SMILES>  (43) 
Cc1csc(-c2cs/c(=N\C(=O)Cc3n[n-]c(=O)c4ccccc34)[n-]2)c1

>  <Energy>  (43) 
110.13742938881558

>  <Genealogy>  (43) 
Cc1csc(-c2csc(=NC(=O)Cc3n[n-]c(=O)c4ccccc34)[n-]2)c1 (protonated)
Cc1csc(-c2cs/c(=N\C(=O)Cc3n[n-]c(=O)c4ccccc34)[n-]2)c1 (cis-trans isomerization)
Cc1csc(-c2cs/c(=N\C(=O)Cc3n[n-]c(=O)c4ccccc34)[n-]2)c1 (3D coordinates assigned)
Cc1csc(-c2cs/c(=N\C(=O)Cc3n[n-]c(=O)c4ccccc34)[n-]2)c1 (optimized conformer: 110.13742938881558 kcal/mol)

>  <smiles>  (43) 
Cc1csc(-c2csc(=NC(=O)Cc3n[nH]c(=O)c4ccccc34)[nH]2)c1

>  <score_type>  (43) 
oracle

>  <origin>  (43) 
adg

>  <m_score__min__energy>  (43) 
-13.32

>  <m_primary>  (43) 
energy

$$$$
43:0
     RDKit          3D

 38 40  0  0  0  0  0  0  0  0999 V2000
   58.9821   30.8925   48.3095 H   0  0  0  0  0  0  0  0  0  0  0  0
   58.6580   30.4910   47.3380 C   0  0  0  0  0  0  0  0  0  0  0  0
   58.4993   29.4095   47.2151 H   0  0  0  0  0  0  0  0  0  0  0  0
   58.4560   31.3220   46.3010 C   0  0  0  0  0  0  0  0  0  0  0  0
   58.0440   30.9640   45.0050 C   0  0  0  0  0  0  0  0  0  0  0  0
   57.8920   29.7580   44.4210 C   0  0  0  0  0  0  0  0  0  0  0  0
   58.0994   29.6939   43.3426 H   0  0  0  0  0  0  0  0  0  0  0  0
   57.4720   28.5160   45.1000 C   0  0  0  0  0  0  0  0  0  0  0  0
   56.1120   28.2330   45.2790 C   0  0  0  0  0  0  0  0  0  0  0  0
   55.1440   29.1420   44.8640 O   0  0  0  0  0  0  0  0  0  0  0  0
   55.7300   27.0690   45.8690 N   0  0  0  0  0  0  0  0  0  0  0  0
   54.7130   26.8730   46.0080 H   0  0  0  0  0  0  0  0  0  0  0  0
   56.6540   26.1570   46.2780 C   0  0  0  0  0  0  0  0  0  0  0  0
   56.2860   25.0860   46.8260 O   0  0  0  0  0  0  0  0  0  0  0  0
   57.9760   26.3980   46.0900 N   0  0  0  0  0  0  0  0  0  0  0  0
   58.4060   27.5470   45.5050 C   0  0  0  0  0  0  0  0  0  0  0  0
   59.6410   27.7250   45.3280 O   0  0  0  0  0  0  0  0  0  0  0  0
   57.8010   32.1480   44.3340 C   0  0  0  0  0  0  0  0  0  0  0  0
   57.4235   32.2517   43.3060 H   0  0  0  0  0  0  0  0  0  0  0  0
   58.1210   33.1730   45.1960 C   0  0  0  0  0  0  0  0  0  0  0  0
   57.9710   34.6270   44.8650 C   0  0  0  0  0  0  0  0  0  0  0  0
   57.9108   35.2106   45.7955 H   0  0  0  0  0  0  0  0  0  0  0  0
   58.8395   34.9610   44.2783 H   0  0  0  0  0  0  0  0  0  0  0  0
   57.0527   34.7766   44.2783 H   0  0  0  0  0  0  0  0  0  0  0  0
   58.5230   32.6810   46.3930 N   0  0  0  0  0  0  0  0  0  0  0  0
   58.8810   33.5010   47.5640 C   0  0  0  0  0  0  0  0  0  0  0  0
   58.4304   34.4987   47.4565 H   0  0  0  0  0  0  0  0  0  0  0  0
   58.5029   33.0045   48.4698 H   0  0  0  0  0  0  0  0  0  0  0  0
   60.3760   33.6450   47.6820 C   0  0  0  0  0  0  0  0  0  0  0  0
   61.2050   33.3840   46.5790 C   0  0  0  0  0  0  0  0  0  0  0  0
   60.7680   33.0668   45.6207 H   0  0  0  0  0  0  0  0  0  0  0  0
   62.5890   33.5300   46.7070 C   0  0  0  0  0  0  0  0  0  0  0  0
   63.2435   33.3309   45.8456 H   0  0  0  0  0  0  0  0  0  0  0  0
   63.1280   33.9170   47.8920 N   0  0  0  0  0  0  0  0  0  0  0  0
   62.3520   34.1730   48.9780 C   0  0  0  0  0  0  0  0  0  0  0  0
   62.8880   34.5290   50.0600 O   0  0  0  0  0  0  0  0  0  0  0  0
   60.9620   34.0410   48.8950 C   0  0  0  0  0  0  0  0  0  0  0  0
   60.3326   34.2459   49.7735 H   0  0  0  0  0  0  0  0  0  0  0  0
  1  2  1  0
  2  3  1  0
  2  4  2  0
  4  5  1  0
  5  6  2  0
  6  7  1  0
  6  8  1  0
  8  9  2  0
  9 10  1  0
  9 11  1  0
 11 12  1  0
 11 13  1  0
 13 14  2  0
 13 15  1  0
 15 16  1  0
 16 17  2  0
  5 18  1  0
 18 19  1  0
 18 20  2  0
 20 21  1  0
 21 22  1  0
 21 23  1  0
 21 24  1  0
 20 25  1  0
 25 26  1  0
 26 27  1  0
 26 28  1  0
 26 29  1  0
 29 30  1  0
 30 31  1  0
 30 32  2  0
 32 33  1  0
 32 34  1  0
 34 35  1  0
 35 36  2  0
 35 37  1  0
 37 38  1  0
 25  4  1  0
 37 29  2  0
 16  8  1  0
M  CHG  3  10  -1  15  -1  34  -1
M  END
>  <UniqueID>  (44) 
44

>  <SMILES>  (44) 
C=c1/c(=C\c2c([O-])[nH]c(=O)[n-]c2=O)cc(C)n1Cc1cc[n-]c(=O)c1

>  <Energy>  (44) 
84.0217867668501

>  <Genealogy>  (44) 
C=c1c(=Cc2c([O-])[nH]c(=O)[n-]c2=O)cc(C)n1Cc1cc[n-]c(=O)c1 (protonated)
C=c1/c(=C\c2c([O-])[nH]c(=O)[n-]c2=O)cc(C)n1Cc1cc[n-]c(=O)c1 (cis-trans isomerization)
C=c1/c(=C\c2c([O-])[nH]c(=O)[n-]c2=O)cc(C)n1Cc1cc[n-]c(=O)c1 (3D coordinates assigned)
C=c1/c(=C\c2c([O-])[nH]c(=O)[n-]c2=O)cc(C)n1Cc1cc[n-]c(=O)c1 (optimized conformer: 84.0217867668501 kcal/mol)

>  <smiles>  (44) 
C=c1c(=Cc2c(O)[nH]c(=O)[nH]c2=O)cc(C)n1Cc1cc[nH]c(=O)c1

>  <score_type>  (44) 
oracle

>  <origin>  (44) 
adg

>  <m_score__min__energy>  (44) 
-14.01

>  <m_primary>  (44) 
energy

$$$$
44:0
     RDKit          3D

 38 39  0  0  0  0  0  0  0  0999 V2000
   56.7870   30.8300   54.8700 C   0  0  0  0  0  0  0  0  0  0  0  0
   57.4320   29.6970   54.3290 O   0  0  0  0  0  0  0  0  0  0  0  0
   57.5080   29.7980   52.9170 C   0  0  2  0  0  0  0  0  0  0  0  0
   58.5720   30.8390   52.5420 C   0  0  0  0  0  0  0  0  0  0  0  0
   58.7320   30.9310   51.0460 C   0  0  0  0  0  0  0  0  0  0  0  0
   58.9350   29.7710   50.2800 C   0  0  0  0  0  0  0  0  0  0  0  0
   59.0480   29.8570   48.8880 C   0  0  0  0  0  0  0  0  0  0  0  0
   58.9520   31.0970   48.2520 C   0  0  0  0  0  0  0  0  0  0  0  0
   59.0650   31.1810   46.8700 O   0  0  0  0  0  0  0  0  0  0  0  0
   58.7410   32.2550   49.0080 C   0  0  0  0  0  0  0  0  0  0  0  0
   58.6270   32.1730   50.3990 C   0  0  0  0  0  0  0  0  0  0  0  0
   56.1750   30.2240   52.3650 C   0  0  0  0  0  0  0  0  0  0  0  0
   56.0470   31.3590   51.8310 O   0  0  0  0  0  0  0  0  0  0  0  0
   55.0680   29.3220   52.4210 N   0  0  0  0  0  0  0  0  0  0  0  0
   53.8060   29.6640   53.0640 C   0  0  0  0  0  0  0  0  0  0  0  0
   52.9280   30.3880   52.0850 C   0  0  0  0  0  0  0  0  0  0  0  0
   52.7770   29.9040   50.7760 C   0  0  0  0  0  0  0  0  0  0  0  0
   51.9320   30.5610   49.8760 C   0  0  0  0  0  0  0  0  0  0  0  0
   51.2230   31.6970   50.2800 C   0  0  0  0  0  0  0  0  0  0  0  0
   50.3850   32.3460   49.3810 O   0  0  0  0  0  0  0  0  0  0  0  0
   51.3580   32.1760   51.5890 C   0  0  0  0  0  0  0  0  0  0  0  0
   50.6510   33.3010   51.9980 O   0  0  0  0  0  0  0  0  0  0  0  0
   52.2030   31.5210   52.4910 C   0  0  0  0  0  0  0  0  0  0  0  0
   56.8161   30.7789   55.9684 H   0  0  0  0  0  0  0  0  0  0  0  0
   57.3016   31.7414   54.5316 H   0  0  0  0  0  0  0  0  0  0  0  0
   55.7406   30.8527   54.5316 H   0  0  0  0  0  0  0  0  0  0  0  0
   57.7791   28.8195   52.4940 H   0  0  0  0  0  0  0  0  0  0  0  0
   58.2679   31.8213   52.9326 H   0  0  0  0  0  0  0  0  0  0  0  0
   59.5333   30.5318   52.9797 H   0  0  0  0  0  0  0  0  0  0  0  0
   59.0054   28.7918   50.7762 H   0  0  0  0  0  0  0  0  0  0  0  0
   59.2128   28.9464   48.2933 H   0  0  0  0  0  0  0  0  0  0  0  0
   58.6647   33.2315   48.5073 H   0  0  0  0  0  0  0  0  0  0  0  0
   58.4543   33.0851   50.9891 H   0  0  0  0  0  0  0  0  0  0  0  0
   53.3031   28.7444   53.3978 H   0  0  0  0  0  0  0  0  0  0  0  0
   53.9994   30.3108   53.9324 H   0  0  0  0  0  0  0  0  0  0  0  0
   53.3251   29.0051   50.4572 H   0  0  0  0  0  0  0  0  0  0  0  0
   51.8247   30.1837   48.8483 H   0  0  0  0  0  0  0  0  0  0  0  0
   52.3002   31.8940   53.5212 H   0  0  0  0  0  0  0  0  0  0  0  0
  1  2  1  0
  2  3  1  0
  3  4  1  0
  4  5  1  0
  5  6  2  0
  6  7  1  0
  7  8  2  0
  8  9  1  0
  8 10  1  0
 10 11  2  0
  3 12  1  0
 12 13  2  0
 12 14  1  0
 14 15  1  0
 15 16  1  0
 16 17  2  0
 17 18  1  0
 18 19  2  0
 19 20  1  0
 19 21  1  0
 21 22  1  0
 21 23  2  0
 11  5  1  0
 23 16  1  0
  1 24  1  0
  1 25  1  0
  1 26  1  0
  3 27  1  6
  4 28  1  0
  4 29  1  0
  6 30  1  0
  7 31  1  0
 10 32  1  0
 11 33  1  0
 15 34  1  0
 15 35  1  0
 17 36  1  0
 18 37  1  0
 23 38  1  0
M  CHG  4   9  -1  14  -1  20  -1  22  -1
M  END
>  <UniqueID>  (45) 
45

>  <SMILES>  (45) 
CO[C@H](Cc1ccc([O-])cc1)C(=O)[N-]Cc1ccc([O-])c([O-])c1

>  <Energy>  (45) 
34.71391703692176

>  <Genealogy>  (45) 
COC(Cc1ccc([O-])cc1)C(=O)[N-]Cc1ccc([O-])c([O-])c1 (protonated)
CO[C@H](Cc1ccc([O-])cc1)C(=O)[N-]Cc1ccc([O-])c([O-])c1 (chirality)
CO[C@H](Cc1ccc([O-])cc1)C(=O)[N-]Cc1ccc([O-])c([O-])c1 (3D coordinates assigned)
CO[C@H](Cc1ccc([O-])cc1)C(=O)[N-]Cc1ccc([O-])c([O-])c1 (optimized conformer: 34.71391703692176 kcal/mol)

>  <smiles>  (45) 
COC(Cc1ccc(O)cc1)C(=O)NCc1ccc(O)c(O)c1

>  <score_type>  (45) 
oracle

>  <origin>  (45) 
adg

>  <m_score__min__energy>  (45) 
-16.710000000000001

>  <m_primary>  (45) 
energy

$$$$
45:0
     RDKit          3D

 57 60  0  0  0  0  0  0  0  0999 V2000
   57.3850   25.5600   44.0940 O   0  0  0  0  0  0  0  0  0  0  0  0
   57.2040   26.4520   44.9910 C   0  0  0  0  0  0  0  0  0  0  0  0
   56.2350   26.1320   45.9810 N   0  0  0  0  0  0  0  0  0  0  0  0
   55.5040   24.9110   45.9960 C   0  0  0  0  0  0  0  0  0  0  0  0
   56.1320   23.8140   46.5440 C   0  0  0  0  0  0  0  0  0  0  0  0
   55.4200   22.6330   46.5570 C   0  0  0  0  0  0  0  0  0  0  0  0
   54.1250   22.5690   46.0370 C   0  0  0  0  0  0  0  0  0  0  0  0
   53.5120   21.3340   46.1040 O   0  0  0  0  0  0  0  0  0  0  0  0
   53.4890   23.6500   45.4880 C   0  0  0  0  0  0  0  0  0  0  0  0
   52.1580   23.6610   44.9330 C   0  0  0  0  0  0  0  0  0  0  0  0
   51.5790   22.5300   44.8160 O   0  0  0  0  0  0  0  0  0  0  0  0
   51.4240   24.7780   44.5050 N   0  0  0  0  0  0  0  0  0  0  0  0
   50.0730   24.7140   43.9530 C   0  0  0  0  0  0  0  0  0  0  0  0
   50.1540   24.8120   42.4880 C   0  0  0  0  0  0  0  0  0  0  0  0
   50.3980   25.9360   41.7660 C   0  0  0  0  0  0  0  0  0  0  0  0
   50.4740   25.9610   40.3720 C   0  0  0  0  0  0  0  0  0  0  0  0
   50.2870   24.7680   39.7140 C   0  0  0  0  0  0  0  0  0  0  0  0
   50.0390   23.6090   40.3840 C   0  0  0  0  0  0  0  0  0  0  0  0
   49.9710   23.6280   41.7710 C   0  0  0  0  0  0  0  0  0  0  0  0
   54.2290   24.8420   45.4840 C   0  0  0  0  0  0  0  0  0  0  0  0
   57.9510   27.6990   44.9740 C   0  0  0  0  0  0  0  0  0  0  0  0
   59.3010   27.7830   45.2560 C   0  0  0  0  0  0  0  0  0  0  0  0
   59.9380   29.0130   45.2160 C   0  0  0  0  0  0  0  0  0  0  0  0
   59.2720   30.1810   44.9040 C   0  0  0  0  0  0  0  0  0  0  0  0
   57.9410   30.1030   44.6270 C   0  0  0  0  0  0  0  0  0  0  0  0
   57.1530   31.3150   44.2810 C   0  0  0  0  0  0  0  0  0  0  0  0
   57.8590   32.4810   44.8760 C   0  0  0  0  0  0  0  0  0  0  0  0
   57.9110   32.5040   46.2740 C   0  0  0  0  0  0  0  0  0  0  0  0
   58.5430   33.5430   46.9260 C   0  0  0  0  0  0  0  0  0  0  0  0
   58.6010   33.5840   48.1830 O   0  0  0  0  0  0  0  0  0  0  0  0
   59.1060   34.5280   46.1200 C   0  0  0  0  0  0  0  0  0  0  0  0
   59.6810   35.4760   46.7020 O   0  0  0  0  0  0  0  0  0  0  0  0
   59.0360   34.4730   44.7690 N   0  0  0  0  0  0  0  0  0  0  0  0
   58.4190   33.4580   44.1430 N   0  0  0  0  0  0  0  0  0  0  0  0
   57.2990   28.8600   44.6660 C   0  0  0  0  0  0  0  0  0  0  0  0
   56.0330   26.8130   46.7490 H   0  0  0  0  0  0  0  0  0  0  0  0
   57.1518   23.8771   46.9514 H   0  0  0  0  0  0  0  0  0  0  0  0
   55.8784   21.7283   46.9830 H   0  0  0  0  0  0  0  0  0  0  0  0
   52.5050   21.2190   46.2560 H   0  0  0  0  0  0  0  0  0  0  0  0
   51.8400   25.7080   44.5740 H   0  0  0  0  0  0  0  0  0  0  0  0
   49.6037   23.7597   44.2342 H   0  0  0  0  0  0  0  0  0  0  0  0
   49.4677   25.5423   44.3499 H   0  0  0  0  0  0  0  0  0  0  0  0
   50.5441   26.8806   42.3104 H   0  0  0  0  0  0  0  0  0  0  0  0
   50.6746   26.8937   39.8244 H   0  0  0  0  0  0  0  0  0  0  0  0
   50.3393   24.7496   38.6154 H   0  0  0  0  0  0  0  0  0  0  0  0
   49.8941   22.6681   39.8329 H   0  0  0  0  0  0  0  0  0  0  0  0
   49.7693   22.6932   42.3146 H   0  0  0  0  0  0  0  0  0  0  0  0
   53.7757   25.7494   45.0583 H   0  0  0  0  0  0  0  0  0  0  0  0
   59.8685   26.8760   45.5115 H   0  0  0  0  0  0  0  0  0  0  0  0
   61.0137   29.0603   45.4411 H   0  0  0  0  0  0  0  0  0  0  0  0
   59.8003   31.1455   44.8798 H   0  0  0  0  0  0  0  0  0  0  0  0
   57.0939   31.4272   43.1883 H   0  0  0  0  0  0  0  0  0  0  0  0
   56.1269   31.2388   44.6700 H   0  0  0  0  0  0  0  0  0  0  0  0
   57.4474   31.6926   46.8542 H   0  0  0  0  0  0  0  0  0  0  0  0
   59.4750   35.2400   44.2090 H   0  0  0  0  0  0  0  0  0  0  0  0
   58.3640   33.4130   43.0940 H   0  0  0  0  0  0  0  0  0  0  0  0
   56.2236   28.8156   44.4390 H   0  0  0  0  0  0  0  0  0  0  0  0
  1  2  2  0
  2  3  1  0
  3  4  1  0
  4  5  2  0
  5  6  1  0
  6  7  2  0
  7  8  1  0
  7  9  1  0
  9 10  1  0
 10 11  2  0
 10 12  1  0
 12 13  1  0
 13 14  1  0
 14 15  2  0
 15 16  1  0
 16 17  2  0
 17 18  1  0
 18 19  2  0
  9 20  2  0
  2 21  1  0
 21 22  2  0
 22 23  1  0
 23 24  2  0
 24 25  1  0
 25 26  1  0
 26 27  1  0
 27 28  2  0
 28 29  1  0
 29 30  2  0
 29 31  1  0
 31 32  2  0
 31 33  1  0
 33 34  1  0
 25 35  2  0
 20  4  1  0
 35 21  1  0
 19 14  1  0
 34 27  1  0
  3 36  1  0
  5 37  1  0
  6 38  1  0
  8 39  1  0
 12 40  1  0
 13 41  1  0
 13 42  1  0
 15 43  1  0
 16 44  1  0
 17 45  1  0
 18 46  1  0
 19 47  1  0
 20 48  1  0
 22 49  1  0
 23 50  1  0
 24 51  1  0
 26 52  1  0
 26 53  1  0
 28 54  1  0
 33 55  1  0
 34 56  1  0
 35 57  1  0
M  END
>  <smiles>  (46) 
O=C(Nc1ccc(O)c(C(=O)NCc2ccccc2)c1)c1cccc(Cc2cc(=O)c(=O)[nH][nH]2)c1

>  <score_type>  (46) 
oracle

>  <origin>  (46) 
adg

>  <m_score__min__energy>  (46) 
-9.4700000000000006

>  <m_primary>  (46) 
energy

$$$$
46:0
     RDKit          3D

 32 35  0  0  0  0  0  0  0  0999 V2000
   61.3117   33.6820   54.3601 H   0  0  0  0  0  0  0  0  0  0  0  0
   60.3670   33.3760   53.8870 C   0  0  0  0  0  0  0  0  0  0  0  0
   59.5220   34.3350   53.3270 C   0  0  0  0  0  0  0  0  0  0  0  0
   59.7974   35.3997   53.3497 H   0  0  0  0  0  0  0  0  0  0  0  0
   58.3240   33.9290   52.7380 C   0  0  0  0  0  0  0  0  0  0  0  0
   57.6469   34.6771   52.3000 H   0  0  0  0  0  0  0  0  0  0  0  0
   57.9910   32.6100   52.7040 N   0  0  0  0  0  0  0  0  0  0  0  0
   57.0850   32.3310   52.2620 H   0  0  0  0  0  0  0  0  0  0  0  0
   58.8090   31.6460   53.2170 C   0  0  0  0  0  0  0  0  0  0  0  0
   58.3830   30.2730   53.1640 N   0  0  0  0  0  0  0  0  0  0  0  0
   57.1770   29.8470   52.9240 C   0  0  0  0  0  0  0  0  0  0  0  0
   56.1840   30.6470   52.4320 N   0  0  0  0  0  0  0  0  0  0  0  0
   55.1680   29.7780   52.3740 C   0  0  0  0  0  0  0  0  0  0  0  0
   53.8100   29.9440   52.5230 C   0  0  0  0  0  0  0  0  0  0  0  0
   53.0360   31.2260   52.4710 C   0  0  0  0  0  0  0  0  0  0  0  0
   53.7399   32.0709   52.4461 H   0  0  0  0  0  0  0  0  0  0  0  0
   52.3951   31.2862   53.3630 H   0  0  0  0  0  0  0  0  0  0  0  0
   52.1660   31.2760   51.2520 C   0  0  0  0  0  0  0  0  0  0  0  0
   52.1820   30.3510   50.2760 N   0  0  0  0  0  0  0  0  0  0  0  0
   51.3030   30.8360   49.3730 C   0  0  0  0  0  0  0  0  0  0  0  0
   51.0340   30.2380   48.2990 O   0  0  0  0  0  0  0  0  0  0  0  0
   50.7370   32.0160   49.7090 N   0  0  0  0  0  0  0  0  0  0  0  0
   51.2980   32.2820   50.8980 C   0  0  0  0  0  0  0  0  0  0  0  0
   51.0280   33.4250   51.6420 O   0  0  0  0  0  0  0  0  0  0  0  0
   53.4030   28.7540   53.1430 C   0  0  0  0  0  0  0  0  0  0  0  0
   52.3636   28.5161   53.4131 H   0  0  0  0  0  0  0  0  0  0  0  0
   54.4640   27.9330   53.3660 N   0  0  0  0  0  0  0  0  0  0  0  0
   54.4830   27.0750   53.9600 H   0  0  0  0  0  0  0  0  0  0  0  0
   55.5120   28.5990   52.8590 C   0  0  0  0  0  0  0  0  0  0  0  0
   56.7850   28.5880   53.2750 N   0  0  0  0  0  0  0  0  0  0  0  0
   60.0100   32.0280   53.8450 C   0  0  0  0  0  0  0  0  0  0  0  0
   60.6627   31.2682   54.2997 H   0  0  0  0  0  0  0  0  0  0  0  0
  1  2  1  0
  2  3  2  0
  3  4  1  0
  3  5  1  0
  5  6  1  0
  5  7  2  0
  7  8  1  0
  7  9  1  0
  9 10  1  0
 10 11  2  0
 11 12  1  0
 12 13  1  0
 13 14  1  0
 14 15  1  0
 15 16  1  0
 15 17  1  0
 15 18  1  0
 18 19  1  0
 19 20  1  0
 20 21  2  0
 20 22  1  0
 22 23  1  0
 23 24  1  0
 14 25  2  0
 25 26  1  0
 25 27  1  0
 27 28  1  0
 27 29  1  0
 29 30  1  0
  9 31  2  0
 31 32  1  0
 31  2  1  0
 30 11  1  0
 29 13  2  0
 23 18  2  0
M  CHG  6   7   1  12  -1  19  -1  22  -1  24  -1  30  -1
M  END
>  <UniqueID>  (47) 
46

>  <SMILES>  (47) 
O=c1[n-]c([O-])c(Cc2c[nH]c3[n-]/c(=N/c4cccc[nH+]4)[n-]c23)[n-]1

>  <Energy>  (47) 
154.7814269417522

>  <Genealogy>  (47) 
O=c1[n-]c([O-])c(Cc2c[nH]c3[n-]c(=Nc4cccc[nH+]4)[n-]c23)[n-]1 (protonated)
O=c1[n-]c([O-])c(Cc2c[nH]c3[n-]/c(=N/c4cccc[nH+]4)[n-]c23)[n-]1 (cis-trans isomerization)
O=c1[n-]c([O-])c(Cc2c[nH]c3[n-]/c(=N/c4cccc[nH+]4)[n-]c23)[n-]1 (3D coordinates assigned)
O=c1[n-]c([O-])c(Cc2c[nH]c3[n-]/c(=N/c4cccc[nH+]4)[n-]c23)[n-]1 (optimized conformer: 154.7814269417522 kcal/mol)

>  <smiles>  (47) 
O=c1[nH]c(O)c(Cc2c[nH]c3[nH]c(=Nc4ccccn4)[nH]c23)[nH]1

>  <score_type>  (47) 
oracle

>  <origin>  (47) 
adg

>  <m_score__min__energy>  (47) 
-17.059999999999999

>  <m_primary>  (47) 
energy

$$$$
47:0
     RDKit          3D

 44 47  0  0  0  0  0  0  0  0999 V2000
   57.1130   27.6110   46.2440 O   0  0  0  0  0  0  0  0  0  0  0  0
   56.9990   28.6520   45.5440 C   0  0  0  0  0  0  0  0  0  0  0  0
   58.1870   29.5530   45.3530 C   0  0  0  0  0  0  0  0  0  0  0  0
   57.7890   30.8190   44.7240 N   0  0  0  0  0  0  0  0  0  0  0  0
   58.2960   32.0690   45.2290 C   0  0  0  0  0  0  0  0  0  0  0  0
   58.4510   33.1550   44.3520 C   0  0  0  0  0  0  0  0  0  0  0  0
   58.8490   34.4050   44.8310 C   0  0  0  0  0  0  0  0  0  0  0  0
   59.0870   34.5870   46.1940 C   0  0  0  0  0  0  0  0  0  0  0  0
   58.9480   33.5160   47.0770 C   0  0  0  0  0  0  0  0  0  0  0  0
   58.5850   32.2480   46.6060 C   0  0  0  0  0  0  0  0  0  0  0  0
   58.5190   31.1670   47.5460 N   0  0  0  0  0  0  0  0  0  0  0  0
   59.6390   30.5090   48.1550 C   0  0  0  0  0  0  0  0  0  0  0  0
   59.4890   29.3350   48.5810 O   0  0  0  0  0  0  0  0  0  0  0  0
   60.9460   31.1730   48.3330 C   0  0  0  0  0  0  0  0  0  0  0  0
   61.7760   31.6040   47.3050 C   0  0  0  0  0  0  0  0  0  0  0  0
   62.9660   32.1920   47.7530 C   0  0  0  0  0  0  0  0  0  0  0  0
   63.0930   32.2160   49.1430 C   0  0  0  0  0  0  0  0  0  0  0  0
   64.2240   32.7780   49.9250 C   0  0  0  0  0  0  0  0  0  0  0  0
   63.9950   33.8010   50.8660 C   0  0  0  0  0  0  0  0  0  0  0  0
   65.0550   34.3380   51.6040 C   0  0  0  0  0  0  0  0  0  0  0  0
   66.3530   33.8600   51.4150 C   0  0  0  0  0  0  0  0  0  0  0  0
   67.3790   34.3820   52.1320 F   0  0  0  0  0  0  0  0  0  0  0  0
   66.5940   32.8450   50.4870 C   0  0  0  0  0  0  0  0  0  0  0  0
   65.5380   32.3060   49.7450 C   0  0  0  0  0  0  0  0  0  0  0  0
   61.7150   31.4980   49.7950 S   0  0  0  0  0  0  0  0  0  0  0  0
   56.7710   30.7980   43.6690 C   0  0  0  0  0  0  0  0  0  0  0  0
   55.4850   30.1940   44.2270 C   0  0  0  0  0  0  0  0  0  0  0  0
   55.7630   28.9160   44.8730 N   0  0  0  0  0  0  0  0  0  0  0  0
   58.6398   29.7645   46.3329 H   0  0  0  0  0  0  0  0  0  0  0  0
   58.9101   29.0467   44.6967 H   0  0  0  0  0  0  0  0  0  0  0  0
   58.2571   33.0197   43.2777 H   0  0  0  0  0  0  0  0  0  0  0  0
   58.9749   35.2464   44.1337 H   0  0  0  0  0  0  0  0  0  0  0  0
   59.3845   35.5761   46.5725 H   0  0  0  0  0  0  0  0  0  0  0  0
   59.1249   33.6686   48.1519 H   0  0  0  0  0  0  0  0  0  0  0  0
   61.5225   31.4939   46.2403 H   0  0  0  0  0  0  0  0  0  0  0  0
   63.7295   32.5972   47.0726 H   0  0  0  0  0  0  0  0  0  0  0  0
   62.9744   34.1806   51.0217 H   0  0  0  0  0  0  0  0  0  0  0  0
   64.8655   35.1383   52.3345 H   0  0  0  0  0  0  0  0  0  0  0  0
   67.6169   32.4684   50.3391 H   0  0  0  0  0  0  0  0  0  0  0  0
   65.7358   31.5071   49.0152 H   0  0  0  0  0  0  0  0  0  0  0  0
   56.5765   31.8244   43.3244 H   0  0  0  0  0  0  0  0  0  0  0  0
   57.1275   30.1929   42.8224 H   0  0  0  0  0  0  0  0  0  0  0  0
   55.0494   30.8854   44.9634 H   0  0  0  0  0  0  0  0  0  0  0  0
   54.7791   30.0299   43.3995 H   0  0  0  0  0  0  0  0  0  0  0  0
  1  2  2  0
  2  3  1  0
  3  4  1  0
  4  5  1  0
  5  6  2  0
  6  7  1  0
  7  8  2  0
  8  9  1  0
  9 10  2  0
 10 11  1  0
 11 12  1  0
 12 13  2  0
 12 14  1  0
 14 15  2  0
 15 16  1  0
 16 17  2  0
 17 18  1  0
 18 19  2  0
 19 20  1  0
 20 21  2  0
 21 22  1  0
 21 23  1  0
 23 24  2  0
 17 25  1  0
  4 26  1  0
 26 27  1  0
 27 28  1  0
 28  2  1  0
 10  5  1  0
 25 14  1  0
 24 18  1  0
  3 29  1  0
  3 30  1  0
  6 31  1  0
  7 32  1  0
  8 33  1  0
  9 34  1  0
 15 35  1  0
 16 36  1  0
 19 37  1  0
 20 38  1  0
 23 39  1  0
 24 40  1  0
 26 41  1  0
 26 42  1  0
 27 43  1  0
 27 44  1  0
M  CHG  2  11  -1  28  -1
M  END
>  <UniqueID>  (48) 
47

>  <SMILES>  (48) 
O=C1CN(c2ccccc2[N-]C(=O)c2ccc(-c3ccc(F)cc3)s2)CC[N-]1

>  <Energy>  (48) 
86.29223779053208

>  <Genealogy>  (48) 
O=C1CN(c2ccccc2[N-]C(=O)c2ccc(-c3ccc(F)cc3)s2)CC[N-]1 (protonated)
O=C1CN(c2ccccc2[N-]C(=O)c2ccc(-c3ccc(F)cc3)s2)CC[N-]1 (3D coordinates assigned)
O=C1CN(c2ccccc2[N-]C(=O)c2ccc(-c3ccc(F)cc3)s2)CC[N-]1 (nonaromatic ring conformer: 86.29223779053208 kcal/mol)

>  <smiles>  (48) 
O=C1CN(c2ccccc2NC(=O)c2ccc(-c3ccc(F)cc3)s2)CCN1

>  <score_type>  (48) 
oracle

>  <origin>  (48) 
adg

>  <m_score__min__energy>  (48) 
-11.67

>  <m_primary>  (48) 
energy

$$$$
48:0
     RDKit          3D

 46 49  0  0  0  0  0  0  0  0999 V2000
   56.2720   22.1790   48.9090 C   0  0  0  0  0  0  0  0  0  0  0  0
   55.9090   22.7380   47.6070 N   0  0  0  0  0  0  0  0  0  0  0  0
   56.4390   23.8150   47.1060 C   0  0  0  0  0  0  0  0  0  0  0  0
   57.8000   23.8800   46.9400 N   0  0  0  0  0  0  0  0  0  0  0  0
   58.4020   24.9850   46.4030 C   0  0  0  0  0  0  0  0  0  0  0  0
   59.6540   25.0360   46.2650 O   0  0  0  0  0  0  0  0  0  0  0  0
   57.5900   26.0440   46.0280 C   0  0  0  0  0  0  0  0  0  0  0  0
   57.9240   27.2190   45.4720 N   0  0  0  0  0  0  0  0  0  0  0  0
   56.7120   27.8260   45.3400 C   0  0  0  0  0  0  0  0  0  0  0  0
   56.5540   29.1700   44.7640 C   0  0  0  0  0  0  0  0  0  0  0  0
   55.4350   29.7490   44.8460 O   0  0  0  0  0  0  0  0  0  0  0  0
   57.6570   29.8200   44.1110 N   0  0  0  0  0  0  0  0  0  0  0  0
   57.5590   31.1800   43.5820 C   0  0  0  0  0  0  0  0  0  0  0  0
   57.9220   32.1800   44.6490 C   0  0  0  0  0  0  0  0  0  0  0  0
   57.0590   33.2550   44.9210 C   0  0  0  0  0  0  0  0  0  0  0  0
   57.3930   34.1950   45.8980 C   0  0  0  0  0  0  0  0  0  0  0  0
   58.5820   34.0650   46.6170 C   0  0  0  0  0  0  0  0  0  0  0  0
   59.4580   32.9940   46.3600 C   0  0  0  0  0  0  0  0  0  0  0  0
   60.6490   32.8260   47.1470 N   0  0  0  0  0  0  0  0  0  0  0  0
   61.3550   31.5270   47.1030 C   0  0  0  0  0  0  0  0  0  0  0  0
   62.7220   31.5600   47.8200 C   0  0  0  0  0  0  0  0  0  0  0  0
   63.2970   32.8470   47.8110 O   0  0  0  0  0  0  0  0  0  0  0  0
   62.4770   33.7020   48.5810 C   0  0  0  0  0  0  0  0  0  0  0  0
   61.1960   34.0170   47.8150 C   0  0  0  0  0  0  0  0  0  0  0  0
   59.1230   32.0540   45.3700 C   0  0  0  0  0  0  0  0  0  0  0  0
   55.6540   27.0890   45.7840 N   0  0  0  0  0  0  0  0  0  0  0  0
   56.2550   25.9690   46.2070 C   0  0  0  0  0  0  0  0  0  0  0  0
   55.6530   24.8760   46.7370 N   0  0  0  0  0  0  0  0  0  0  0  0
   55.8602   22.8131   49.7080 H   0  0  0  0  0  0  0  0  0  0  0  0
   55.8611   21.1626   48.9991 H   0  0  0  0  0  0  0  0  0  0  0  0
   57.3676   22.1409   48.9991 H   0  0  0  0  0  0  0  0  0  0  0  0
   58.5490   29.2990   43.9640 H   0  0  0  0  0  0  0  0  0  0  0  0
   58.2479   31.2897   42.7315 H   0  0  0  0  0  0  0  0  0  0  0  0
   56.5254   31.3642   43.2538 H   0  0  0  0  0  0  0  0  0  0  0  0
   56.1169   33.3564   44.3623 H   0  0  0  0  0  0  0  0  0  0  0  0
   56.7179   35.0393   46.1013 H   0  0  0  0  0  0  0  0  0  0  0  0
   58.8363   34.8050   47.3902 H   0  0  0  0  0  0  0  0  0  0  0  0
   60.7232   30.7678   47.5873 H   0  0  0  0  0  0  0  0  0  0  0  0
   61.5432   31.2899   46.0455 H   0  0  0  0  0  0  0  0  0  0  0  0
   62.5824   31.2416   48.8636 H   0  0  0  0  0  0  0  0  0  0  0  0
   63.4018   30.8826   47.2824 H   0  0  0  0  0  0  0  0  0  0  0  0
   62.2228   33.2071   49.5299 H   0  0  0  0  0  0  0  0  0  0  0  0
   63.0180   34.6379   48.7845 H   0  0  0  0  0  0  0  0  0  0  0  0
   60.4463   34.4049   48.5203 H   0  0  0  0  0  0  0  0  0  0  0  0
   61.4358   34.7615   47.0416 H   0  0  0  0  0  0  0  0  0  0  0  0
   59.8033   31.2160   45.1582 H   0  0  0  0  0  0  0  0  0  0  0  0
  1  2  1  0
  2  3  2  3
  3  4  1  0
  4  5  1  0
  5  6  2  0
  5  7  1  0
  7  8  1  0
  8  9  1  0
  9 10  1  0
 10 11  2  0
 10 12  1  0
 12 13  1  0
 13 14  1  0
 14 15  2  0
 15 16  1  0
 16 17  2  0
 17 18  1  0
 18 19  1  0
 19 20  1  0
 20 21  1  0
 21 22  1  0
 22 23  1  0
 23 24  1  0
 18 25  2  0
  9 26  2  0
 26 27  1  0
 27 28  1  0
 28  3  1  0
 27  7  2  0
 25 14  1  0
 24 19  1  0
  1 29  1  0
  1 30  1  0
  1 31  1  0
 12 32  1  0
 13 33  1  0
 13 34  1  0
 15 35  1  0
 16 36  1  0
 17 37  1  0
 20 38  1  0
 20 39  1  0
 21 40  1  0
 21 41  1  0
 23 42  1  0
 23 43  1  0
 24 44  1  0
 24 45  1  0
 25 46  1  0
M  CHG  3   4  -1   8  -1  28  -1
M  END
>  <UniqueID>  (49) 
48

>  <SMILES>  (49) 
CN=c1[n-]c(=O)c2[n-]c(C(=O)NCc3cccc(N4CCOCC4)c3)nc2[n-]1

>  <Energy>  (49) 
92.08534845913046

>  <Genealogy>  (49) 
CN=c1[n-]c(=O)c2[n-]c(C(=O)NCc3cccc(N4CCOCC4)c3)nc2[n-]1 (protonated)
CN=c1[n-]c(=O)c2[n-]c(C(=O)NCc3cccc(N4CCOCC4)c3)nc2[n-]1 (3D coordinates assigned)
CN=c1[n-]c(=O)c2[n-]c(C(=O)NCc3cccc(N4CCOCC4)c3)nc2[n-]1 (nonaromatic ring conformer: 92.08534845913046 kcal/mol)

>  <smiles>  (49) 
CN=c1[nH]c(=O)c2[nH]c(C(=O)NCc3cccc(N4CCOCC4)c3)nc2[nH]1

>  <score_type>  (49) 
oracle

>  <origin>  (49) 
adg

>  <m_score__min__energy>  (49) 
-13.35

>  <m_primary>  (49) 
energy

$$$$
49:0
     RDKit          3D

 56 59  0  0  0  0  0  0  0  0999 V2000
   56.8990   31.0440   42.6140 O   0  0  0  0  0  0  0  0  0  0  0  0
   57.0390   31.2390   43.8510 C   0  0  0  0  0  0  0  0  0  0  0  0
   57.7720   32.3780   44.3000 N   0  0  0  0  0  0  0  0  0  0  0  0
   57.1180   33.5490   44.8690 C   0  0  0  0  0  0  0  0  0  0  0  0
   57.1510   33.4770   46.3940 C   0  0  0  0  0  0  0  0  0  0  0  0
   58.4090   32.8750   46.8440 N   0  0  0  0  0  0  0  0  0  0  0  0
   59.7170   34.0000   46.6230 S   0  0  0  0  0  0  0  0  0  0  0  0
   59.8220   34.3590   45.1670 O   0  0  0  0  0  0  0  0  0  0  0  0
   59.4150   35.2610   47.3860 O   0  0  0  0  0  0  0  0  0  0  0  0
   61.2530   33.3180   47.1930 C   0  0  0  0  0  0  0  0  0  0  0  0
   62.4470   33.8380   46.6660 C   0  0  0  0  0  0  0  0  0  0  0  0
   63.6820   33.3090   47.0430 C   0  0  0  0  0  0  0  0  0  0  0  0
   63.7440   32.2550   47.9520 C   0  0  0  0  0  0  0  0  0  0  0  0
   62.5690   31.7310   48.4920 C   0  0  0  0  0  0  0  0  0  0  0  0
   61.3170   32.2530   48.1260 C   0  0  0  0  0  0  0  0  0  0  0  0
   60.1070   31.6740   48.7470 C   0  0  0  0  0  0  0  0  0  0  0  0
   59.4330   32.2780   49.7420 N   0  0  0  0  0  0  0  0  0  0  0  0
   58.5010   31.3690   50.0890 C   0  0  0  0  0  0  0  0  0  0  0  0
   57.6590   31.5730   51.0010 O   0  0  0  0  0  0  0  0  0  0  0  0
   58.5500   30.2200   49.3870 N   0  0  0  0  0  0  0  0  0  0  0  0
   59.5700   30.4130   48.5300 C   0  0  0  0  0  0  0  0  0  0  0  0
   59.9870   29.4030   47.5300 C   0  0  0  0  0  0  0  0  0  0  0  0
   60.3920   29.7800   46.2360 C   0  0  0  0  0  0  0  0  0  0  0  0
   60.7760   28.8090   45.3050 C   0  0  0  0  0  0  0  0  0  0  0  0
   60.7440   27.4560   45.6510 C   0  0  0  0  0  0  0  0  0  0  0  0
   60.3220   27.0690   46.9260 C   0  0  0  0  0  0  0  0  0  0  0  0
   59.9400   28.0380   47.8600 C   0  0  0  0  0  0  0  0  0  0  0  0
   56.4890   30.3480   44.7810 O   0  0  0  0  0  0  0  0  0  0  0  0
   57.2760   29.5260   45.6390 C   0  0  0  0  0  0  0  0  0  0  0  0
   57.4320   28.1510   45.0490 C   0  0  0  0  0  0  0  0  0  0  0  0
   57.9700   27.9990   43.7610 C   0  0  0  0  0  0  0  0  0  0  0  0
   58.1340   26.7230   43.2110 C   0  0  0  0  0  0  0  0  0  0  0  0
   57.7670   25.5930   43.9460 C   0  0  0  0  0  0  0  0  0  0  0  0
   57.2360   25.7350   45.2310 C   0  0  0  0  0  0  0  0  0  0  0  0
   57.0700   27.0100   45.7840 C   0  0  0  0  0  0  0  0  0  0  0  0
   57.6423   34.4568   44.5359 H   0  0  0  0  0  0  0  0  0  0  0  0
   56.0714   33.5773   44.5317 H   0  0  0  0  0  0  0  0  0  0  0  0
   57.0655   34.4926   46.8079 H   0  0  0  0  0  0  0  0  0  0  0  0
   56.3113   32.8580   46.7428 H   0  0  0  0  0  0  0  0  0  0  0  0
   58.3300   32.6850   47.8690 H   0  0  0  0  0  0  0  0  0  0  0  0
   62.4079   34.6710   45.9486 H   0  0  0  0  0  0  0  0  0  0  0  0
   64.6089   33.7252   46.6215 H   0  0  0  0  0  0  0  0  0  0  0  0
   64.7185   31.8363   48.2437 H   0  0  0  0  0  0  0  0  0  0  0  0
   62.6234   30.9008   49.2116 H   0  0  0  0  0  0  0  0  0  0  0  0
   60.4067   30.8435   45.9552 H   0  0  0  0  0  0  0  0  0  0  0  0
   61.1035   29.1113   44.2993 H   0  0  0  0  0  0  0  0  0  0  0  0
   61.0512   26.6943   44.9192 H   0  0  0  0  0  0  0  0  0  0  0  0
   60.2902   26.0029   47.1950 H   0  0  0  0  0  0  0  0  0  0  0  0
   59.6005   27.7291   48.8597 H   0  0  0  0  0  0  0  0  0  0  0  0
   58.2695   29.9809   45.7658 H   0  0  0  0  0  0  0  0  0  0  0  0
   56.7721   29.4414   46.6131 H   0  0  0  0  0  0  0  0  0  0  0  0
   58.2638   28.8869   43.1819 H   0  0  0  0  0  0  0  0  0  0  0  0
   58.5519   26.6095   42.1998 H   0  0  0  0  0  0  0  0  0  0  0  0
   57.8961   24.5902   43.5128 H   0  0  0  0  0  0  0  0  0  0  0  0
   56.9483   24.8439   45.8083 H   0  0  0  0  0  0  0  0  0  0  0  0
   56.6550   27.1188   46.7969 H   0  0  0  0  0  0  0  0  0  0  0  0
  1  2  2  0
  2  3  1  0
  3  4  1  0
  4  5  1  0
  5  6  1  0
  6  7  1  0
  7  8  2  0
  7  9  2  0
  7 10  1  0
 10 11  2  0
 11 12  1  0
 12 13  2  0
 13 14  1  0
 14 15  2  0
 15 16  1  0
 16 17  1  0
 17 18  1  0
 18 19  2  0
 18 20  1  0
 20 21  1  0
 21 22  1  0
 22 23  2  0
 23 24  1  0
 24 25  2  0
 25 26  1  0
 26 27  2  0
  2 28  1  0
 28 29  1  0
 29 30  1  0
 30 31  2  0
 31 32  1  0
 32 33  2  0
 33 34  1  0
 34 35  2  0
 15 10  1  0
 21 16  2  0
 27 22  1  0
 35 30  1  0
  4 36  1  0
  4 37  1  0
  5 38  1  0
  5 39  1  0
  6 40  1  0
 11 41  1  0
 12 42  1  0
 13 43  1  0
 14 44  1  0
 23 45  1  0
 24 46  1  0
 25 47  1  0
 26 48  1  0
 27 49  1  0
 29 50  1  0
 29 51  1  0
 31 52  1  0
 32 53  1  0
 33 54  1  0
 34 55  1  0
 35 56  1  0
M  CHG  3   3  -1  17  -1  20  -1
M  END
>  <UniqueID>  (50) 
49

>  <SMILES>  (50) 
O=C([N-]CCNS(=O)(=O)c1ccccc1-c1[n-]c(=O)[n-]c1-c1ccccc1)OCc1ccccc1

>  <Energy>  (50) 
90.17380701579732

>  <Genealogy>  (50) 
O=C([N-]CCNS(=O)(=O)c1ccccc1-c1[n-]c(=O)[n-]c1-c1ccccc1)OCc1ccccc1 (protonated)
O=C([N-]CCNS(=O)(=O)c1ccccc1-c1[n-]c(=O)[n-]c1-c1ccccc1)OCc1ccccc1 (3D coordinates assigned)
O=C([N-]CCNS(=O)(=O)c1ccccc1-c1[n-]c(=O)[n-]c1-c1ccccc1)OCc1ccccc1 (optimized conformer: 90.17380701579732 kcal/mol)

>  <smiles>  (50) 
O=C(NCCNS(=O)(=O)c1ccccc1-c1[nH]c(=O)[nH]c1-c1ccccc1)OCc1ccccc1

>  <score_type>  (50) 
oracle

>  <origin>  (50) 
adg

>  <m_score__min__energy>  (50) 
-14.529999999999999

>  <m_primary>  (50) 
energy

$$$$
50:0
     RDKit          3D

 43 45  0  0  0  0  0  0  0  0999 V2000
   57.3492   21.8844   51.6565 H   0  0  0  0  0  0  0  0  0  0  0  0
   56.6900   21.8400   50.7770 C   0  0  0  0  0  0  0  0  0  0  0  0
   57.2250   21.7910   49.5280 N   0  0  0  0  0  0  0  0  0  0  0  0
   56.4470   21.7480   48.4090 C   0  0  0  0  0  0  0  0  0  0  0  0
   57.0330   21.6790   47.1410 O   0  0  0  0  0  0  0  0  0  0  0  0
   57.3310   20.4470   46.4960 C   0  0  0  0  0  0  0  0  0  0  0  0
   57.5184   19.6722   47.2540 H   0  0  0  0  0  0  0  0  0  0  0  0
   56.4796   20.1468   45.8676 H   0  0  0  0  0  0  0  0  0  0  0  0
   58.2255   20.5691   45.8676 H   0  0  0  0  0  0  0  0  0  0  0  0
   55.0470   21.7610   48.5360 C   0  0  0  0  0  0  0  0  0  0  0  0
   54.1710   21.7360   47.3520 C   0  0  0  0  0  0  0  0  0  0  0  0
   53.9730   20.6390   46.7660 O   0  0  0  0  0  0  0  0  0  0  0  0
   53.5180   22.9110   46.8600 N   0  0  0  0  0  0  0  0  0  0  0  0
   53.9520   23.7780   45.4180 S   0  0  0  0  0  0  0  0  0  0  0  0
   53.7800   25.2510   45.6640 O   0  0  0  0  0  0  0  0  0  0  0  0
   53.0280   23.3730   44.3050 O   0  0  0  0  0  0  0  0  0  0  0  0
   55.6390   23.4820   44.9610 C   0  0  0  0  0  0  0  0  0  0  0  0
   55.9200   22.4700   44.0260 C   0  0  0  0  0  0  0  0  0  0  0  0
   55.0968   21.8769   43.6011 H   0  0  0  0  0  0  0  0  0  0  0  0
   57.2340   22.2110   43.6320 C   0  0  0  0  0  0  0  0  0  0  0  0
   57.4420   21.4108   42.9064 H   0  0  0  0  0  0  0  0  0  0  0  0
   58.2820   22.9640   44.1560 C   0  0  0  0  0  0  0  0  0  0  0  0
   59.3167   22.7560   43.8458 H   0  0  0  0  0  0  0  0  0  0  0  0
   58.0210   23.9820   45.0740 C   0  0  0  0  0  0  0  0  0  0  0  0
   58.8526   24.5776   45.4787 H   0  0  0  0  0  0  0  0  0  0  0  0
   56.7050   24.2530   45.4860 C   0  0  0  0  0  0  0  0  0  0  0  0
   56.4860   25.3470   46.4580 C   0  0  0  0  0  0  0  0  0  0  0  0
   56.6510   25.1190   47.6840 O   0  0  0  0  0  0  0  0  0  0  0  0
   56.1850   26.6900   46.0430 N   0  0  0  0  0  0  0  0  0  0  0  0
   57.0250   27.5820   45.5990 C   0  0  0  0  0  0  0  0  0  0  0  0
   58.3720   27.3880   45.6810 N   0  0  0  0  0  0  0  0  0  0  0  0
   59.2640   28.3010   45.2110 C   0  0  0  0  0  0  0  0  0  0  0  0
   60.3439   28.1122   45.3016 H   0  0  0  0  0  0  0  0  0  0  0  0
   58.8090   29.4770   44.6140 C   0  0  0  0  0  0  0  0  0  0  0  0
   59.5248   30.2201   44.2327 H   0  0  0  0  0  0  0  0  0  0  0  0
   57.4360   29.7000   44.5060 C   0  0  0  0  0  0  0  0  0  0  0  0
   57.0630   30.6219   44.0360 H   0  0  0  0  0  0  0  0  0  0  0  0
   56.5350   28.7500   44.9960 C   0  0  0  0  0  0  0  0  0  0  0  0
   55.1660   28.9740   44.8840 O   0  0  0  0  0  0  0  0  0  0  0  0
   54.4820   21.7860   49.8180 C   0  0  0  0  0  0  0  0  0  0  0  0
   53.3886   21.7678   49.9372 H   0  0  0  0  0  0  0  0  0  0  0  0
   55.3050   21.8340   50.9430 C   0  0  0  0  0  0  0  0  0  0  0  0
   54.8663   21.8668   51.9512 H   0  0  0  0  0  0  0  0  0  0  0  0
  1  2  1  0
  2  3  2  0
  3  4  1  0
  4  5  1  0
  5  6  1  0
  6  7  1  0
  6  8  1  0
  6  9  1  0
  4 10  2  0
 10 11  1  0
 11 12  2  0
 11 13  1  0
 13 14  1  0
 14 15  2  0
 14 16  2  0
 14 17  1  0
 17 18  2  0
 18 19  1  0
 18 20  1  0
 20 21  1  0
 20 22  2  0
 22 23  1  0
 22 24  1  0
 24 25  1  0
 24 26  2  0
 26 27  1  0
 27 28  2  0
 27 29  1  0
 29 30  2  0
 30 31  1  0
 31 32  1  0
 32 33  1  0
 32 34  2  0
 34 35  1  0
 34 36  1  0
 36 37  1  0
 36 38  2  0
 38 39  1  0
 10 40  1  0
 40 41  1  0
 40 42  2  0
 42 43  1  0
 42  2  1  0
 26 17  1  0
 38 30  1  0
M  CHG  3  13  -1  31  -1  39  -1
M  END
>  <UniqueID>  (51) 
50

>  <SMILES>  (51) 
COc1ncccc1C(=O)[N-]S(=O)(=O)c1ccccc1C(=O)/N=c1\[n-]cccc1[O-]

>  <Energy>  (51) 
62.63275166157655

>  <Genealogy>  (51) 
COc1ncccc1C(=O)[N-]S(=O)(=O)c1ccccc1C(=O)N=c1[n-]cccc1[O-] (protonated)
COc1ncccc1C(=O)[N-]S(=O)(=O)c1ccccc1C(=O)/N=c1\[n-]cccc1[O-] (cis-trans isomerization)
COc1ncccc1C(=O)[N-]S(=O)(=O)c1ccccc1C(=O)/N=c1\[n-]cccc1[O-] (3D coordinates assigned)
COc1ncccc1C(=O)[N-]S(=O)(=O)c1ccccc1C(=O)/N=c1\[n-]cccc1[O-] (optimized conformer: 62.63275166157655 kcal/mol)

>  <smiles>  (51) 
COc1ncccc1C(=O)NS(=O)(=O)c1ccccc1C(=O)N=c1[nH]cccc1O

>  <score_type>  (51) 
oracle

>  <origin>  (51) 
adg

>  <m_score__min__energy>  (51) 
-14.82

>  <m_primary>  (51) 
energy

$$$$
51:0
     RDKit          3D

 58 61  0  0  0  0  0  0  0  0999 V2000
   57.8220   24.6820   47.0490 O   0  0  0  0  0  0  0  0  0  0  0  0
   57.3460   24.8870   45.9010 C   0  0  0  0  0  0  0  0  0  0  0  0
   57.4430   26.2480   45.3360 C   0  0  0  0  0  0  0  0  0  0  0  0
   58.4580   26.5450   44.4080 C   0  0  0  0  0  0  0  0  0  0  0  0
   58.5550   27.8250   43.8570 C   0  0  0  0  0  0  0  0  0  0  0  0
   57.6690   28.8370   44.2510 C   0  0  0  0  0  0  0  0  0  0  0  0
   57.7780   30.1430   43.6700 N   0  0  0  0  0  0  0  0  0  0  0  0
   57.9770   31.3510   44.4300 C   0  0  0  0  0  0  0  0  0  0  0  0
   57.7720   32.7870   43.6560 S   0  0  0  0  0  0  0  0  0  0  0  0
   58.6050   31.2890   45.7300 N   0  0  0  0  0  0  0  0  0  0  0  0
   59.1950   32.3980   46.4350 C   0  0  0  0  0  0  0  0  0  0  0  0
   58.3840   33.4860   46.7840 C   0  0  0  0  0  0  0  0  0  0  0  0
   58.9090   34.5590   47.5020 C   0  0  0  0  0  0  0  0  0  0  0  0
   60.2580   34.5700   47.8590 C   0  0  0  0  0  0  0  0  0  0  0  0
   61.1240   33.5320   47.4620 C   0  0  0  0  0  0  0  0  0  0  0  0
   62.5930   33.5230   47.7650 C   0  0  0  0  0  0  0  0  0  0  0  0
   63.3960   33.7560   46.8190 O   0  0  0  0  0  0  0  0  0  0  0  0
   63.1480   33.1300   49.0430 N   0  0  0  0  0  0  0  0  0  0  0  0
   62.7430   33.7710   50.3020 C   0  0  0  0  0  0  0  0  0  0  0  0
   63.9260   33.8840   51.2810 C   0  0  0  0  0  0  0  0  0  0  0  0
   65.1520   33.8460   50.5880 O   0  0  0  0  0  0  0  0  0  0  0  0
   65.3480   32.5440   50.0560 C   0  0  0  0  0  0  0  0  0  0  0  0
   64.2180   32.1170   49.0910 C   0  0  0  0  0  0  0  0  0  0  0  0
   60.5740   32.4740   46.6970 C   0  0  0  0  0  0  0  0  0  0  0  0
   56.6520   28.5350   45.1720 C   0  0  0  0  0  0  0  0  0  0  0  0
   56.5460   27.2530   45.7200 C   0  0  0  0  0  0  0  0  0  0  0  0
   56.7960   23.7770   45.1470 N   0  0  0  0  0  0  0  0  0  0  0  0
   56.3610   22.5550   45.8490 C   0  0  0  0  0  0  0  0  0  0  0  0
   56.5100   21.3270   44.9410 C   0  0  0  0  0  0  0  0  0  0  0  0
   55.9190   21.5540   43.6790 O   0  0  0  0  0  0  0  0  0  0  0  0
   56.6340   22.5660   43.0070 C   0  0  0  0  0  0  0  0  0  0  0  0
   56.4720   23.9100   43.7210 C   0  0  0  0  0  0  0  0  0  0  0  0
   59.1778   25.7664   44.1153 H   0  0  0  0  0  0  0  0  0  0  0  0
   59.3321   28.0401   43.1088 H   0  0  0  0  0  0  0  0  0  0  0  0
   57.7660   30.2070   42.6210 H   0  0  0  0  0  0  0  0  0  0  0  0
   58.8700   30.3380   46.0740 H   0  0  0  0  0  0  0  0  0  0  0  0
   57.3243   33.4933   46.4889 H   0  0  0  0  0  0  0  0  0  0  0  0
   58.2587   35.3989   47.7878 H   0  0  0  0  0  0  0  0  0  0  0  0
   60.6517   35.4028   48.4602 H   0  0  0  0  0  0  0  0  0  0  0  0
   62.3616   34.7794   50.0837 H   0  0  0  0  0  0  0  0  0  0  0  0
   61.9638   33.1519   50.7706 H   0  0  0  0  0  0  0  0  0  0  0  0
   63.8509   34.8343   51.8298 H   0  0  0  0  0  0  0  0  0  0  0  0
   63.8886   33.0354   51.9799 H   0  0  0  0  0  0  0  0  0  0  0  0
   66.3025   32.5272   49.5095 H   0  0  0  0  0  0  0  0  0  0  0  0
   65.3493   31.8375   50.8991 H   0  0  0  0  0  0  0  0  0  0  0  0
   64.6369   31.9892   48.0819 H   0  0  0  0  0  0  0  0  0  0  0  0
   63.7876   31.1721   49.4543 H   0  0  0  0  0  0  0  0  0  0  0  0
   61.2408   31.6948   46.2992 H   0  0  0  0  0  0  0  0  0  0  0  0
   55.9327   29.3141   45.4646 H   0  0  0  0  0  0  0  0  0  0  0  0
   55.7567   27.0333   46.4540 H   0  0  0  0  0  0  0  0  0  0  0  0
   56.9784   22.4161   46.7488 H   0  0  0  0  0  0  0  0  0  0  0  0
   55.3021   22.6639   46.1264 H   0  0  0  0  0  0  0  0  0  0  0  0
   57.5795   21.1096   44.8031 H   0  0  0  0  0  0  0  0  0  0  0  0
   56.0011   20.4761   45.4174 H   0  0  0  0  0  0  0  0  0  0  0  0
   57.7004   22.2976   42.9806 H   0  0  0  0  0  0  0  0  0  0  0  0
   56.2378   22.6591   41.9851 H   0  0  0  0  0  0  0  0  0  0  0  0
   57.1483   24.6469   43.2633 H   0  0  0  0  0  0  0  0  0  0  0  0
   55.4277   24.2415   43.6228 H   0  0  0  0  0  0  0  0  0  0  0  0
  1  2  2  0
  2  3  1  0
  3  4  2  0
  4  5  1  0
  5  6  2  0
  6  7  1  0
  7  8  1  0
  8  9  2  0
  8 10  1  0
 10 11  1  0
 11 12  2  0
 12 13  1  0
 13 14  2  0
 14 15  1  0
 15 16  1  0
 16 17  2  0
 16 18  1  0
 18 19  1  0
 19 20  1  0
 20 21  1  0
 21 22  1  0
 22 23  1  0
 15 24  2  0
  6 25  1  0
 25 26  2  0
  2 27  1  0
 27 28  1  0
 28 29  1  0
 29 30  1  0
 30 31  1  0
 31 32  1  0
 26  3  1  0
 32 27  1  0
 24 11  1  0
 23 18  1  0
  4 33  1  0
  5 34  1  0
  7 35  1  0
 10 36  1  0
 12 37  1  0
 13 38  1  0
 14 39  1  0
 19 40  1  0
 19 41  1  0
 20 42  1  0
 20 43  1  0
 22 44  1  0
 22 45  1  0
 23 46  1  0
 23 47  1  0
 24 48  1  0
 25 49  1  0
 26 50  1  0
 28 51  1  0
 28 52  1  0
 29 53  1  0
 29 54  1  0
 31 55  1  0
 31 56  1  0
 32 57  1  0
 32 58  1  0
M  END
>  <UniqueID>  (52) 
51

>  <SMILES>  (52) 
O=C(c1ccc(NC(=S)Nc2cccc(C(=O)N3CCOCC3)c2)cc1)N1CCOCC1

>  <Energy>  (52) 
98.92173772100452

>  <Genealogy>  (52) 
O=C(c1ccc(NC(=S)Nc2cccc(C(=O)N3CCOCC3)c2)cc1)N1CCOCC1 (3D coordinates assigned)
O=C(c1ccc(NC(=S)Nc2cccc(C(=O)N3CCOCC3)c2)cc1)N1CCOCC1 (nonaromatic ring conformer: 98.92173772100452 kcal/mol)

>  <smiles>  (52) 
O=C(c1ccc(NC(=S)Nc2cccc(C(=O)N3CCOCC3)c2)cc1)N1CCOCC1

>  <score_type>  (52) 
oracle

>  <origin>  (52) 
adg

>  <m_score__min__energy>  (52) 
-10.029999999999999

>  <m_primary>  (52) 
energy

$$$$
52:0
     RDKit          3D

 38 39  0  0  0  0  0  0  0  0999 V2000
   58.9500   35.2120   50.5170 H   0  0  0  0  0  0  0  0  0  0  0  0
   59.2750   34.3140   50.2540 O   0  0  0  0  0  0  0  0  0  0  0  0
   60.2550   34.5840   48.9160 S   0  0  0  0  0  0  0  0  0  0  0  0
   59.4580   34.0890   47.4340 C   0  0  0  0  0  0  0  0  0  0  0  0
   60.0710   34.3070   46.1960 C   0  0  0  0  0  0  0  0  0  0  0  0
   61.0588   34.7887   46.1499 H   0  0  0  0  0  0  0  0  0  0  0  0
   59.4310   33.9140   45.0170 C   0  0  0  0  0  0  0  0  0  0  0  0
   59.9171   34.0951   44.0470 H   0  0  0  0  0  0  0  0  0  0  0  0
   58.1730   33.2900   45.0590 C   0  0  0  0  0  0  0  0  0  0  0  0
   57.5330   32.9000   43.7780 C   0  0  0  0  0  0  0  0  0  0  0  0
   57.1263   33.6976   43.1390 H   0  0  0  0  0  0  0  0  0  0  0  0
   57.4210   31.6320   43.3530 C   0  0  0  0  0  0  0  0  0  0  0  0
   57.5861   31.4167   42.2870 H   0  0  0  0  0  0  0  0  0  0  0  0
   57.0850   30.5130   44.2580 C   0  0  0  0  0  0  0  0  0  0  0  0
   55.8690   30.2900   44.4970 O   0  0  0  0  0  0  0  0  0  0  0  0
   58.1110   29.6600   44.9060 C   0  0  0  0  0  0  0  0  0  0  0  0
   58.2520   28.3190   44.5160 C   0  0  0  0  0  0  0  0  0  0  0  0
   57.6069   27.9085   43.7252 H   0  0  0  0  0  0  0  0  0  0  0  0
   59.2060   27.5040   45.1260 C   0  0  0  0  0  0  0  0  0  0  0  0
   59.3193   26.4583   44.8040 H   0  0  0  0  0  0  0  0  0  0  0  0
   60.0180   28.0100   46.1440 C   0  0  0  0  0  0  0  0  0  0  0  0
   60.7754   27.3639   46.6119 H   0  0  0  0  0  0  0  0  0  0  0  0
   59.8720   29.3420   46.5740 C   0  0  0  0  0  0  0  0  0  0  0  0
   60.7060   29.9310   47.6520 C   0  0  0  0  0  0  0  0  0  0  0  0
   61.7923   29.7626   47.6117 H   0  0  0  0  0  0  0  0  0  0  0  0
   60.2240   30.6510   48.6660 C   0  0  0  0  0  0  0  0  0  0  0  0
   60.9074   31.0548   49.4276 H   0  0  0  0  0  0  0  0  0  0  0  0
   59.1431   30.8410   48.7407 H   0  0  0  0  0  0  0  0  0  0  0  0
   58.9160   30.1590   45.9460 C   0  0  0  0  0  0  0  0  0  0  0  0
   58.7958   31.2026   46.2722 H   0  0  0  0  0  0  0  0  0  0  0  0
   57.5550   33.0890   46.3110 C   0  0  0  0  0  0  0  0  0  0  0  0
   56.5618   32.6189   46.3616 H   0  0  0  0  0  0  0  0  0  0  0  0
   58.1980   33.4840   47.4880 C   0  0  0  0  0  0  0  0  0  0  0  0
   57.7111   33.3183   48.4603 H   0  0  0  0  0  0  0  0  0  0  0  0
   61.8480   33.8140   49.1000 C   0  0  0  0  0  0  0  0  0  0  0  0
   62.0798   33.7020   50.1695 H   0  0  0  0  0  0  0  0  0  0  0  0
   61.8338   32.8233   48.6222 H   0  0  0  0  0  0  0  0  0  0  0  0
   62.6155   34.4406   48.6222 H   0  0  0  0  0  0  0  0  0  0  0  0
  1  2  1  0
  3  2  1  1
  3  4  1  0
  4  5  2  0
  5  6  1  0
  5  7  1  0
  7  8  1  0
  7  9  2  0
  9 10  1  0
 10 11  1  0
 10 12  2  0
 12 13  1  0
 12 14  1  0
 14 15  2  0
 14 16  1  0
 16 17  2  0
 17 18  1  0
 17 19  1  0
 19 20  1  0
 19 21  2  0
 21 22  1  0
 21 23  1  0
 23 24  1  0
 24 25  1  0
 24 26  2  0
 26 27  1  0
 26 28  1  0
 23 29  2  0
 29 30  1  0
  9 31  1  0
 31 32  1  0
 31 33  2  0
 33 34  1  0
  3 35  1  0
 35 36  1  0
 35 37  1  0
 35 38  1  0
 33  4  1  0
 29 16  1  0
M  CHG  1   3   1
M  END
>  <UniqueID>  (53) 
52

>  <SMILES>  (53) 
C=Cc1cccc(C(=O)/C=C/c2ccc([S@+](C)O)cc2)c1

>  <Energy>  (53) 
42.31118804333298

>  <Genealogy>  (53) 
C=Cc1cccc(C(=O)C=Cc2ccc([S+](C)O)cc2)c1 (protonated)
C=Cc1cccc(C(=O)C=Cc2ccc([S@+](C)O)cc2)c1 (chirality)
C=Cc1cccc(C(=O)/C=C/c2ccc([S@+](C)O)cc2)c1 (cis-trans isomerization)
C=Cc1cccc(C(=O)/C=C/c2ccc([S@+](C)O)cc2)c1 (3D coordinates assigned)
C=Cc1cccc(C(=O)/C=C/c2ccc([S@+](C)O)cc2)c1 (optimized conformer: 42.31118804333298 kcal/mol)

>  <smiles>  (53) 
C=Cc1cccc(C(=O)C=Cc2ccc([S+](C)[O-])cc2)c1

>  <score_type>  (53) 
oracle

>  <origin>  (53) 
adg

>  <m_score__min__energy>  (53) 
-7.0499999999999998

>  <m_primary>  (53) 
energy

$$$$
53:0
     RDKit          3D

 50 53  0  0  0  0  0  0  0  0999 V2000
   58.2570   32.4910   51.0650 O   0  0  0  0  0  0  0  0  0  0  0  0
   59.0860   32.8490   50.1820 C   0  0  0  0  0  0  0  0  0  0  0  0
   60.0000   33.8690   50.4650 O   0  0  0  0  0  0  0  0  0  0  0  0
   61.3900   33.6320   50.6550 C   0  0  0  0  0  0  0  0  0  0  0  0
   62.0440   33.4440   49.3190 C   0  0  0  0  0  0  0  0  0  0  0  0
   63.1560   32.5950   49.1890 C   0  0  0  0  0  0  0  0  0  0  0  0
   63.7410   32.3880   47.9340 C   0  0  0  0  0  0  0  0  0  0  0  0
   63.2120   33.0160   46.8030 C   0  0  0  0  0  0  0  0  0  0  0  0
   62.0950   33.8480   46.9230 C   0  0  0  0  0  0  0  0  0  0  0  0
   61.5090   34.0570   48.1740 C   0  0  0  0  0  0  0  0  0  0  0  0
   59.0860   32.1860   48.8530 C   0  0  0  0  0  0  0  0  0  0  0  0
   58.2940   32.7220   47.8100 C   0  0  0  0  0  0  0  0  0  0  0  0
   58.3060   32.0860   46.5720 C   0  0  0  0  0  0  0  0  0  0  0  0
   57.6180   32.3850   45.4190 C   0  0  0  0  0  0  0  0  0  0  0  0
   58.0000   31.4100   44.5030 C   0  0  0  0  0  0  0  0  0  0  0  0
   57.4900   31.3580   43.1210 C   0  0  0  0  0  0  0  0  0  0  0  0
   57.8190   32.2650   42.3110 O   0  0  0  0  0  0  0  0  0  0  0  0
   56.6440   30.2170   42.6420 C   0  0  0  0  0  0  0  0  0  0  0  0
   55.4740   29.7520   43.9010 Cl  0  0  0  0  0  0  0  0  0  0  0  0
   58.8790   30.5320   45.0660 N   0  0  0  0  0  0  0  0  0  0  0  0
   59.3600   29.2570   44.5140 C   0  0  0  0  0  0  0  0  0  0  0  0
   58.9300   28.1110   45.3920 C   0  0  0  0  0  0  0  0  0  0  0  0
   59.8820   27.3340   46.0730 C   0  0  0  0  0  0  0  0  0  0  0  0
   59.4740   26.2830   46.8990 C   0  0  0  0  0  0  0  0  0  0  0  0
   58.1140   25.9980   47.0500 C   0  0  0  0  0  0  0  0  0  0  0  0
   57.1610   26.7620   46.3730 C   0  0  0  0  0  0  0  0  0  0  0  0
   57.5650   27.8150   45.5450 C   0  0  0  0  0  0  0  0  0  0  0  0
   59.0540   30.9660   46.3340 C   0  0  0  0  0  0  0  0  0  0  0  0
   59.8460   30.4030   47.3370 C   0  0  0  0  0  0  0  0  0  0  0  0
   59.8640   31.0160   48.6030 C   0  0  0  0  0  0  0  0  0  0  0  0
   60.6580   30.4550   49.5970 O   0  0  0  0  0  0  0  0  0  0  0  0
   61.8433   34.4925   51.1689 H   0  0  0  0  0  0  0  0  0  0  0  0
   61.5312   32.7286   51.2665 H   0  0  0  0  0  0  0  0  0  0  0  0
   63.5681   32.0915   50.0759 H   0  0  0  0  0  0  0  0  0  0  0  0
   64.6177   31.7306   47.8380 H   0  0  0  0  0  0  0  0  0  0  0  0
   63.6748   32.8555   45.8181 H   0  0  0  0  0  0  0  0  0  0  0  0
   61.6770   34.3386   46.0316 H   0  0  0  0  0  0  0  0  0  0  0  0
   60.6244   34.7047   48.2627 H   0  0  0  0  0  0  0  0  0  0  0  0
   57.6824   33.6214   47.9740 H   0  0  0  0  0  0  0  0  0  0  0  0
   56.9164   33.2164   45.2562 H   0  0  0  0  0  0  0  0  0  0  0  0
   56.1008   30.5223   41.7355 H   0  0  0  0  0  0  0  0  0  0  0  0
   57.2925   29.3572   42.4180 H   0  0  0  0  0  0  0  0  0  0  0  0
   58.9428   29.1179   43.5057 H   0  0  0  0  0  0  0  0  0  0  0  0
   60.4588   29.2793   44.4678 H   0  0  0  0  0  0  0  0  0  0  0  0
   60.9534   27.5538   45.9556 H   0  0  0  0  0  0  0  0  0  0  0  0
   60.2241   25.6794   47.4309 H   0  0  0  0  0  0  0  0  0  0  0  0
   57.7943   25.1719   47.7021 H   0  0  0  0  0  0  0  0  0  0  0  0
   56.0910   26.5356   46.4909 H   0  0  0  0  0  0  0  0  0  0  0  0
   56.8114   28.4132   45.0119 H   0  0  0  0  0  0  0  0  0  0  0  0
   60.4428   29.4999   47.1413 H   0  0  0  0  0  0  0  0  0  0  0  0
  1  2  2  0
  2  3  1  0
  3  4  1  0
  4  5  1  0
  5  6  2  0
  6  7  1  0
  7  8  2  0
  8  9  1  0
  9 10  2  0
  2 11  1  0
 11 12  2  0
 12 13  1  0
 13 14  1  0
 14 15  2  0
 15 16  1  0
 16 17  2  0
 16 18  1  0
 18 19  1  0
 15 20  1  0
 20 21  1  0
 21 22  1  0
 22 23  2  0
 23 24  1  0
 24 25  2  0
 25 26  1  0
 26 27  2  0
 20 28  1  0
 28 29  1  0
 29 30  2  0
 30 31  1  0
 10  5  1  0
 30 11  1  0
 28 13  2  0
 27 22  1  0
  4 32  1  0
  4 33  1  0
  6 34  1  0
  7 35  1  0
  8 36  1  0
  9 37  1  0
 10 38  1  0
 12 39  1  0
 14 40  1  0
 18 41  1  0
 18 42  1  0
 21 43  1  0
 21 44  1  0
 23 45  1  0
 24 46  1  0
 25 47  1  0
 26 48  1  0
 27 49  1  0
 29 50  1  0
M  CHG  1  31  -1
M  END
>  <UniqueID>  (54) 
53

>  <SMILES>  (54) 
O=C(OCc1ccccc1)c1cc2cc(C(=O)CCl)n(Cc3ccccc3)c2cc1[O-]

>  <Energy>  (54) 
90.68978118739136

>  <Genealogy>  (54) 
O=C(OCc1ccccc1)c1cc2cc(C(=O)CCl)n(Cc3ccccc3)c2cc1[O-] (protonated)
O=C(OCc1ccccc1)c1cc2cc(C(=O)CCl)n(Cc3ccccc3)c2cc1[O-] (3D coordinates assigned)
O=C(OCc1ccccc1)c1cc2cc(C(=O)CCl)n(Cc3ccccc3)c2cc1[O-] (optimized conformer: 90.68978118739136 kcal/mol)

>  <smiles>  (54) 
O=C(OCc1ccccc1)c1cc2cc(C(=O)CCl)n(Cc3ccccc3)c2cc1O

>  <score_type>  (54) 
oracle

>  <origin>  (54) 
adg

>  <m_score__min__energy>  (54) 
-11.56

>  <m_primary>  (54) 
energy

$$$$
54:0
     RDKit          3D

 28 29  0  0  0  0  0  0  0  0999 V2000
   58.3340   25.0810   45.8430 O   0  0  0  0  0  0  0  0  0  0  0  0
   57.1710   25.5040   45.5990 C   0  0  0  0  0  0  0  0  0  0  0  0
   56.9740   26.8920   45.3060 N   0  0  0  0  0  0  0  0  0  0  0  0
   57.7080   27.9710   45.9590 C   0  0  0  0  0  0  0  0  0  0  0  0
   57.5970   29.2430   45.1550 C   0  0  0  0  0  0  0  0  0  0  0  0
   58.7500   30.0160   44.9290 C   0  0  0  0  0  0  0  0  0  0  0  0
   58.6770   31.2060   44.2010 C   0  0  0  0  0  0  0  0  0  0  0  0
   57.4530   31.6390   43.6920 C   0  0  0  0  0  0  0  0  0  0  0  0
   56.2990   30.8850   43.9110 C   0  0  0  0  0  0  0  0  0  0  0  0
   56.3560   29.6920   44.6400 C   0  0  0  0  0  0  0  0  0  0  0  0
   55.1690   28.9810   44.8350 O   0  0  0  0  0  0  0  0  0  0  0  0
   56.0240   24.5570   45.6100 C   0  0  0  0  0  0  0  0  0  0  0  0
   56.2570   23.1780   45.4520 C   0  0  0  0  0  0  0  0  0  0  0  0
   55.1940   22.2740   45.4580 C   0  0  0  0  0  0  0  0  0  0  0  0
   55.4360   20.9140   45.2970 O   0  0  0  0  0  0  0  0  0  0  0  0
   53.8930   22.7500   45.6260 C   0  0  0  0  0  0  0  0  0  0  0  0
   52.9190   21.9520   45.6330 O   0  0  0  0  0  0  0  0  0  0  0  0
   53.6740   24.0810   45.7820 N   0  0  0  0  0  0  0  0  0  0  0  0
   54.6880   24.9880   45.7810 C   0  0  0  0  0  0  0  0  0  0  0  0
   54.3780   26.3310   45.9560 O   0  0  0  0  0  0  0  0  0  0  0  0
   57.2898   28.1386   46.9625 H   0  0  0  0  0  0  0  0  0  0  0  0
   58.7681   27.6874   46.0344 H   0  0  0  0  0  0  0  0  0  0  0  0
   59.7181   29.6805   45.3292 H   0  0  0  0  0  0  0  0  0  0  0  0
   59.5855   31.8019   44.0291 H   0  0  0  0  0  0  0  0  0  0  0  0
   57.3969   32.5754   43.1175 H   0  0  0  0  0  0  0  0  0  0  0  0
   55.3364   31.2316   43.5070 H   0  0  0  0  0  0  0  0  0  0  0  0
   55.1370   27.9780   44.9610 H   0  0  0  0  0  0  0  0  0  0  0  0
   57.2855   22.8098   45.3227 H   0  0  0  0  0  0  0  0  0  0  0  0
  1  2  2  0
  2  3  1  0
  3  4  1  0
  4  5  1  0
  5  6  2  0
  6  7  1  0
  7  8  2  0
  8  9  1  0
  9 10  2  0
 10 11  1  0
  2 12  1  0
 12 13  1  0
 13 14  2  0
 14 15  1  0
 14 16  1  0
 16 17  2  0
 16 18  1  0
 18 19  1  0
 19 20  1  0
 10  5  1  0
 19 12  2  0
  4 21  1  0
  4 22  1  0
  6 23  1  0
  7 24  1  0
  8 25  1  0
  9 26  1  0
 11 27  1  0
 13 28  1  0
M  CHG  4   3  -1  15  -1  18  -1  20  -1
M  END
>  <UniqueID>  (55) 
54

>  <SMILES>  (55) 
O=C([N-]Cc1ccccc1O)c1cc([O-])c(=O)[n-]c1[O-]

>  <Energy>  (55) 
31.752292495856064

>  <Genealogy>  (55) 
O=C([N-]Cc1ccccc1O)c1cc([O-])c(=O)[n-]c1[O-] (protonated)
O=C([N-]Cc1ccccc1O)c1cc([O-])c(=O)[n-]c1[O-] (3D coordinates assigned)
O=C([N-]Cc1ccccc1O)c1cc([O-])c(=O)[n-]c1[O-] (optimized conformer: 31.752292495856064 kcal/mol)

>  <smiles>  (55) 
O=C(NCc1ccccc1O)c1cc(O)c(=O)[nH]c1O

>  <score_type>  (55) 
oracle

>  <origin>  (55) 
adg

>  <m_score__min__energy>  (55) 
-16.120000000000001

>  <m_primary>  (55) 
energy

$$$$
55:0
     RDKit          3D

 45 47  0  0  0  0  0  0  0  0999 V2000
   60.3166   29.9577   44.8588 H   0  0  0  0  0  0  0  0  0  0  0  0
   59.2340   29.7630   44.8600 C   0  0  0  0  0  0  0  0  0  0  0  0
   58.7730   28.4880   44.9560 N   0  0  0  0  0  0  0  0  0  0  0  0
   57.4410   28.1970   44.9560 C   0  0  0  0  0  0  0  0  0  0  0  0
   57.0180   26.9710   45.0820 N   0  0  0  0  0  0  0  0  0  0  0  0
   56.7680   26.2560   46.3020 C   0  0  0  0  0  0  0  0  0  0  0  0
   55.6710   25.6470   46.4280 O   0  0  0  0  0  0  0  0  0  0  0  0
   57.8360   26.0460   47.3460 C   0  0  0  0  0  0  0  0  0  0  0  0
   57.3614   25.7531   48.2941 H   0  0  0  0  0  0  0  0  0  0  0  0
   58.5179   25.2552   47.0000 H   0  0  0  0  0  0  0  0  0  0  0  0
   58.6050   27.2720   47.5530 N   0  0  0  0  0  0  0  0  0  0  0  0
   58.3620   28.1010   46.9650 H   0  0  0  0  0  0  0  0  0  0  0  0
   59.7130   27.3430   48.4670 C   0  0  0  0  0  0  0  0  0  0  0  0
   60.1100   26.2950   49.0470 O   0  0  0  0  0  0  0  0  0  0  0  0
   60.4140   28.6250   48.7250 C   0  0  0  0  0  0  0  0  0  0  0  0
   60.6220   29.5360   47.6740 C   0  0  0  0  0  0  0  0  0  0  0  0
   60.2647   29.2932   46.6624 H   0  0  0  0  0  0  0  0  0  0  0  0
   61.2790   30.7470   47.9050 C   0  0  0  0  0  0  0  0  0  0  0  0
   61.4272   31.4537   47.0751 H   0  0  0  0  0  0  0  0  0  0  0  0
   61.7500   31.0690   49.1820 C   0  0  0  0  0  0  0  0  0  0  0  0
   62.4130   32.3250   49.3740 N   0  0  0  0  0  0  0  0  0  0  0  0
   62.4100   33.6400   48.2440 S   0  0  0  0  0  0  0  0  0  0  0  0
   63.4970   33.4210   47.2300 O   0  0  0  0  0  0  0  0  0  0  0  0
   62.6850   34.9210   48.9800 O   0  0  0  0  0  0  0  0  0  0  0  0
   60.8360   33.7560   47.4650 C   0  0  0  0  0  0  0  0  0  0  0  0
   60.7320   34.0980   46.1090 C   0  0  0  0  0  0  0  0  0  0  0  0
   61.6408   34.2992   45.5228 H   0  0  0  0  0  0  0  0  0  0  0  0
   59.4760   34.1840   45.5000 C   0  0  0  0  0  0  0  0  0  0  0  0
   59.3982   34.4492   44.4353 H   0  0  0  0  0  0  0  0  0  0  0  0
   58.3190   33.9330   46.2440 C   0  0  0  0  0  0  0  0  0  0  0  0
   57.3314   34.0021   45.7646 H   0  0  0  0  0  0  0  0  0  0  0  0
   58.4170   33.5940   47.5980 C   0  0  0  0  0  0  0  0  0  0  0  0
   57.5067   33.3960   48.1829 H   0  0  0  0  0  0  0  0  0  0  0  0
   59.6720   33.5070   48.2070 C   0  0  0  0  0  0  0  0  0  0  0  0
   59.7472   33.2423   49.2720 H   0  0  0  0  0  0  0  0  0  0  0  0
   61.5610   30.1540   50.2330 C   0  0  0  0  0  0  0  0  0  0  0  0
   61.9334   30.3933   51.2400 H   0  0  0  0  0  0  0  0  0  0  0  0
   60.9020   28.9410   50.0050 C   0  0  0  0  0  0  0  0  0  0  0  0
   60.7648   28.2298   50.8329 H   0  0  0  0  0  0  0  0  0  0  0  0
   56.5090   29.2430   44.8720 C   0  0  0  0  0  0  0  0  0  0  0  0
   55.1430   28.9810   44.8880 O   0  0  0  0  0  0  0  0  0  0  0  0
   56.9640   30.5600   44.7710 C   0  0  0  0  0  0  0  0  0  0  0  0
   56.2429   31.3874   44.6978 H   0  0  0  0  0  0  0  0  0  0  0  0
   58.3340   30.8250   44.7630 C   0  0  0  0  0  0  0  0  0  0  0  0
   58.7002   31.8590   44.6812 H   0  0  0  0  0  0  0  0  0  0  0  0
  1  2  1  0
  2  3  1  0
  3  4  1  0
  4  5  2  0
  5  6  1  0
  6  7  2  0
  6  8  1  0
  8  9  1  0
  8 10  1  0
  8 11  1  0
 11 12  1  0
 11 13  1  0
 13 14  2  0
 13 15  1  0
 15 16  2  0
 16 17  1  0
 16 18  1  0
 18 19  1  0
 18 20  2  0
 20 21  1  0
 21 22  1  0
 22 23  2  0
 22 24  2  0
 22 25  1  0
 25 26  2  0
 26 27  1  0
 26 28  1  0
 28 29  1  0
 28 30  2  0
 30 31  1  0
 30 32  1  0
 32 33  1  0
 32 34  2  0
 34 35  1  0
 20 36  1  0
 36 37  1  0
 36 38  2  0
 38 39  1  0
  4 40  1  0
 40 41  1  0
 40 42  2  0
 42 43  1  0
 42 44  1  0
 44 45  1  0
 44  2  2  0
 38 15  1  0
 34 25  1  0
M  CHG  3   3  -1  21  -1  41  -1
M  END
>  <UniqueID>  (56) 
55

>  <SMILES>  (56) 
O=C(CNC(=O)c1ccc([N-]S(=O)(=O)c2ccccc2)cc1)/N=c1\[n-]cccc1[O-]

>  <Energy>  (56) 
59.11739467865154

>  <Genealogy>  (56) 
O=C(CNC(=O)c1ccc([N-]S(=O)(=O)c2ccccc2)cc1)N=c1[n-]cccc1[O-] (protonated)
O=C(CNC(=O)c1ccc([N-]S(=O)(=O)c2ccccc2)cc1)/N=c1\[n-]cccc1[O-] (cis-trans isomerization)
O=C(CNC(=O)c1ccc([N-]S(=O)(=O)c2ccccc2)cc1)/N=c1\[n-]cccc1[O-] (3D coordinates assigned)
O=C(CNC(=O)c1ccc([N-]S(=O)(=O)c2ccccc2)cc1)/N=c1\[n-]cccc1[O-] (optimized conformer: 59.11739467865154 kcal/mol)

>  <smiles>  (56) 
O=C(CNC(=O)c1ccc(NS(=O)(=O)c2ccccc2)cc1)N=c1[nH]cccc1O

>  <score_type>  (56) 
oracle

>  <origin>  (56) 
adg

>  <m_score__min__energy>  (56) 
-14.880000000000001

>  <m_primary>  (56) 
energy

$$$$
56:0
     RDKit          3D

 49 52  0  0  0  0  0  0  0  0999 V2000
   63.9713   31.1477   50.7391 H   0  0  0  0  0  0  0  0  0  0  0  0
   63.1380   31.5450   50.1410 C   0  0  0  0  0  0  0  0  0  0  0  0
   63.3590   31.7480   48.8360 C   0  0  0  0  0  0  0  0  0  0  0  0
   64.3521   31.4832   48.4440 H   0  0  0  0  0  0  0  0  0  0  0  0
   62.3780   32.2980   47.8820 C   0  0  0  0  0  0  0  0  0  0  0  0
   62.6840   33.4940   47.2170 C   0  0  0  0  0  0  0  0  0  0  0  0
   63.6753   33.9529   47.3464 H   0  0  0  0  0  0  0  0  0  0  0  0
   61.7390   34.1060   46.3920 C   0  0  0  0  0  0  0  0  0  0  0  0
   61.9905   35.0398   45.8677 H   0  0  0  0  0  0  0  0  0  0  0  0
   60.4750   33.5350   46.2310 C   0  0  0  0  0  0  0  0  0  0  0  0
   59.7270   34.0318   45.5956 H   0  0  0  0  0  0  0  0  0  0  0  0
   60.1540   32.3300   46.8760 C   0  0  0  0  0  0  0  0  0  0  0  0
   58.7770   31.7290   46.7410 C   0  0  0  0  0  0  0  0  0  0  0  0
   58.3848   31.9599   45.7395 H   0  0  0  0  0  0  0  0  0  0  0  0
   58.1384   32.1602   47.5260 H   0  0  0  0  0  0  0  0  0  0  0  0
   58.7960   30.2560   46.9210 N   0  0  0  0  0  0  0  0  0  0  0  0
   58.7480   29.3940   45.8340 C   0  0  0  0  0  0  0  0  0  0  0  0
   58.5510   29.8690   44.4030 C   0  0  0  0  0  0  0  0  0  0  0  0
   59.3982   29.5191   43.7949 H   0  0  0  0  0  0  0  0  0  0  0  0
   58.4929   30.9673   44.4193 H   0  0  0  0  0  0  0  0  0  0  0  0
   57.2450   29.3390   43.7830 C   0  0  0  0  0  0  0  0  0  0  0  0
   57.2688   28.2393   43.7946 H   0  0  0  0  0  0  0  0  0  0  0  0
   57.1775   29.7287   42.7566 H   0  0  0  0  0  0  0  0  0  0  0  0
   56.0330   29.8020   44.5290 C   0  0  0  0  0  0  0  0  0  0  0  0
   55.1490   28.9770   44.8770 O   0  0  0  0  0  0  0  0  0  0  0  0
   55.8850   31.1430   44.8520 O   0  0  0  0  0  0  0  0  0  0  0  0
   58.8470   28.0070   46.0410 C   0  0  0  0  0  0  0  0  0  0  0  0
   58.8317   27.3223   45.1802 H   0  0  0  0  0  0  0  0  0  0  0  0
   58.9640   27.4980   47.3270 C   0  0  0  0  0  0  0  0  0  0  0  0
   59.0492   26.4129   47.4860 H   0  0  0  0  0  0  0  0  0  0  0  0
   58.9730   28.3630   48.4100 C   0  0  0  0  0  0  0  0  0  0  0  0
   59.0492   27.9658   49.4330 H   0  0  0  0  0  0  0  0  0  0  0  0
   58.8850   29.7400   48.1980 C   0  0  0  0  0  0  0  0  0  0  0  0
   58.8840   30.4980   49.2060 O   0  0  0  0  0  0  0  0  0  0  0  0
   61.1030   31.7310   47.7270 C   0  0  0  0  0  0  0  0  0  0  0  0
   60.8435   30.8126   48.2740 H   0  0  0  0  0  0  0  0  0  0  0  0
   61.8730   31.8100   50.8380 C   0  0  0  0  0  0  0  0  0  0  0  0
   61.0450   30.8410   51.3030 N   0  0  0  0  0  0  0  0  0  0  0  0
   59.8760   31.3710   51.7450 C   0  0  0  0  0  0  0  0  0  0  0  0
   58.8190   30.6300   52.2770 C   0  0  0  0  0  0  0  0  0  0  0  0
   58.8891   29.5354   52.3607 H   0  0  0  0  0  0  0  0  0  0  0  0
   57.6630   31.3080   52.7040 C   0  0  0  0  0  0  0  0  0  0  0  0
   56.8279   30.7419   53.1424 H   0  0  0  0  0  0  0  0  0  0  0  0
   57.5680   32.7050   52.5740 C   0  0  0  0  0  0  0  0  0  0  0  0
   56.6569   33.2241   52.9064 H   0  0  0  0  0  0  0  0  0  0  0  0
   58.6280   33.4410   52.0230 C   0  0  0  0  0  0  0  0  0  0  0  0
   58.5602   34.5331   51.9106 H   0  0  0  0  0  0  0  0  0  0  0  0
   59.7670   32.7500   51.6230 C   0  0  0  0  0  0  0  0  0  0  0  0
   61.1640   33.3480   50.9160 S   0  0  0  0  0  0  0  0  0  0  0  0
  1  2  1  0
  2  3  2  0
  3  4  1  0
  3  5  1  0
  5  6  2  0
  6  7  1  0
  6  8  1  0
  8  9  1  0
  8 10  2  0
 10 11  1  0
 10 12  1  0
 12 13  1  0
 13 14  1  0
 13 15  1  0
 13 16  1  0
 16 17  1  0
 17 18  1  0
 18 19  1  0
 18 20  1  0
 18 21  1  0
 21 22  1  0
 21 23  1  0
 21 24  1  0
 24 25  2  0
 24 26  1  0
 17 27  2  0
 27 28  1  0
 27 29  1  0
 29 30  1  0
 29 31  2  0
 31 32  1  0
 31 33  1  0
 33 34  2  0
 12 35  2  0
 35 36  1  0
  2 37  1  0
 37 38  2  0
 38 39  1  0
 39 40  2  0
 40 41  1  0
 40 42  1  0
 42 43  1  0
 42 44  2  0
 44 45  1  0
 44 46  1  0
 46 47  1  0
 46 48  2  0
 48 49  1  0
 35  5  1  0
 49 37  1  0
 33 16  1  0
 48 39  1  0
M  CHG  1  26  -1
M  END
>  <UniqueID>  (57) 
56

>  <SMILES>  (57) 
O=C([O-])CCc1cccc(=O)n1Cc1cccc(/C=C\c2nc3ccccc3s2)c1

>  <Energy>  (57) 
100.50940352013163

>  <Genealogy>  (57) 
O=C([O-])CCc1cccc(=O)n1Cc1cccc(C=Cc2nc3ccccc3s2)c1 (protonated)
O=C([O-])CCc1cccc(=O)n1Cc1cccc(/C=C\c2nc3ccccc3s2)c1 (cis-trans isomerization)
O=C([O-])CCc1cccc(=O)n1Cc1cccc(/C=C\c2nc3ccccc3s2)c1 (3D coordinates assigned)
O=C([O-])CCc1cccc(=O)n1Cc1cccc(/C=C\c2nc3ccccc3s2)c1 (optimized conformer: 100.50940352013163 kcal/mol)

>  <smiles>  (57) 
O=C(O)CCc1cccc(=O)n1Cc1cccc(C=Cc2nc3ccccc3s2)c1

>  <score_type>  (57) 
oracle

>  <origin>  (57) 
adg

>  <m_score__min__energy>  (57) 
-13

>  <m_primary>  (57) 
energy

$$$$
57:0
     RDKit          3D

 49 52  0  0  0  0  0  0  0  0999 V2000
   54.8993   27.4969   53.7416 H   0  0  0  0  0  0  0  0  0  0  0  0
   54.1650   28.2020   53.3250 C   0  0  0  0  0  0  0  0  0  0  0  0
   53.1007   27.9271   53.2834 H   0  0  0  0  0  0  0  0  0  0  0  0
   54.5680   29.3990   52.8670 C   0  0  0  0  0  0  0  0  0  0  0  0
   53.7510   30.3900   52.3140 C   0  0  0  0  0  0  0  0  0  0  0  0
   52.4120   30.3600   52.1640 C   0  0  0  0  0  0  0  0  0  0  0  0
   51.8078   29.9791   53.0006 H   0  0  0  0  0  0  0  0  0  0  0  0
   51.7060   30.8060   50.9480 C   0  0  0  0  0  0  0  0  0  0  0  0
   51.6580   30.0830   49.8160 N   0  0  0  0  0  0  0  0  0  0  0  0
   50.9940   30.8870   48.9580 C   0  0  0  0  0  0  0  0  0  0  0  0
   50.7340   30.5480   47.7760 O   0  0  0  0  0  0  0  0  0  0  0  0
   50.6380   32.0870   49.4660 N   0  0  0  0  0  0  0  0  0  0  0  0
   51.1070   32.0270   50.7220 C   0  0  0  0  0  0  0  0  0  0  0  0
   51.0280   33.0820   51.6240 O   0  0  0  0  0  0  0  0  0  0  0  0
   54.5910   31.4440   51.9850 C   0  0  0  0  0  0  0  0  0  0  0  0
   54.2931   32.4071   51.5449 H   0  0  0  0  0  0  0  0  0  0  0  0
   55.8720   31.0520   52.3160 C   0  0  0  0  0  0  0  0  0  0  0  0
   57.0680   31.8920   52.1010 C   0  0  0  0  0  0  0  0  0  0  0  0
   56.9970   33.1220   52.3690 O   0  0  0  0  0  0  0  0  0  0  0  0
   58.2820   31.3510   51.5460 N   0  0  0  0  0  0  0  0  0  0  0  0
   58.2260   30.3790   50.4410 C   0  0  0  0  0  0  0  0  0  0  0  0
   57.2434   29.8846   50.4442 H   0  0  0  0  0  0  0  0  0  0  0  0
   58.3810   30.9127   49.4917 H   0  0  0  0  0  0  0  0  0  0  0  0
   59.3270   29.3160   50.5970 C   0  0  0  0  0  0  0  0  0  0  0  0
   58.9921   28.5598   51.3223 H   0  0  0  0  0  0  0  0  0  0  0  0
   59.5087   28.8636   49.6109 H   0  0  0  0  0  0  0  0  0  0  0  0
   60.5900   29.9050   51.0710 N   0  0  0  0  0  0  0  0  0  0  0  0
   61.6430   29.0420   51.5460 C   0  0  0  0  0  0  0  0  0  0  0  0
   61.3430   27.7610   52.0450 C   0  0  0  0  0  0  0  0  0  0  0  0
   60.2986   27.4172   52.0772 H   0  0  0  0  0  0  0  0  0  0  0  0
   62.3650   26.9230   52.5000 C   0  0  0  0  0  0  0  0  0  0  0  0
   62.1228   25.9232   52.8894 H   0  0  0  0  0  0  0  0  0  0  0  0
   63.6930   27.3530   52.4610 C   0  0  0  0  0  0  0  0  0  0  0  0
   64.4954   26.6933   52.8229 H   0  0  0  0  0  0  0  0  0  0  0  0
   64.0030   28.6220   51.9620 C   0  0  0  0  0  0  0  0  0  0  0  0
   65.2930   29.0380   51.9240 F   0  0  0  0  0  0  0  0  0  0  0  0
   62.9830   29.4610   51.5000 C   0  0  0  0  0  0  0  0  0  0  0  0
   63.2319   30.4544   51.0985 H   0  0  0  0  0  0  0  0  0  0  0  0
   60.7290   31.3650   51.1260 C   0  0  0  0  0  0  0  0  0  0  0  0
   61.6802   31.6243   51.6138 H   0  0  0  0  0  0  0  0  0  0  0  0
   60.7167   31.7724   50.1043 H   0  0  0  0  0  0  0  0  0  0  0  0
   59.5680   31.9600   51.9250 C   0  0  0  0  0  0  0  0  0  0  0  0
   59.7445   31.7840   52.9964 H   0  0  0  0  0  0  0  0  0  0  0  0
   59.5164   33.0371   51.7075 H   0  0  0  0  0  0  0  0  0  0  0  0
   55.8600   29.8140   52.8680 N   0  0  0  0  0  0  0  0  0  0  0  0
   57.0010   29.0930   53.4420 C   0  0  0  0  0  0  0  0  0  0  0  0
   56.9431   29.1296   54.5399 H   0  0  0  0  0  0  0  0  0  0  0  0
   56.9780   28.0451   53.1083 H   0  0  0  0  0  0  0  0  0  0  0  0
   57.9376   29.5636   53.1083 H   0  0  0  0  0  0  0  0  0  0  0  0
  1  2  1  0
  2  3  1  0
  2  4  2  0
  4  5  1  0
  5  6  2  0
  6  7  1  0
  6  8  1  0
  8  9  1  0
  9 10  1  0
 10 11  2  0
 10 12  1  0
 12 13  1  0
 13 14  1  0
  5 15  1  0
 15 16  1  0
 15 17  2  0
 17 18  1  0
 18 19  2  0
 18 20  1  0
 20 21  1  0
 21 22  1  0
 21 23  1  0
 21 24  1  0
 24 25  1  0
 24 26  1  0
 24 27  1  0
 27 28  1  0
 28 29  2  0
 29 30  1  0
 29 31  1  0
 31 32  1  0
 31 33  2  0
 33 34  1  0
 33 35  1  0
 35 36  1  0
 35 37  2  0
 37 38  1  0
 27 39  1  0
 39 40  1  0
 39 41  1  0
 39 42  1  0
 42 43  1  0
 42 44  1  0
 17 45  1  0
 45 46  1  0
 46 47  1  0
 46 48  1  0
 46 49  1  0
 45  4  1  0
 13  8  2  0
 42 20  1  0
 37 28  1  0
M  CHG  3   9  -1  12  -1  14  -1
M  END
>  <UniqueID>  (58) 
57

>  <SMILES>  (58) 
C=c1/c(=C/c2[n-]c(=O)[n-]c2[O-])cc(C(=O)N2CCN(c3cccc(F)c3)CC2)n1C

>  <Energy>  (58) 
127.77253179605408

>  <Genealogy>  (58) 
C=c1c(=Cc2[n-]c(=O)[n-]c2[O-])cc(C(=O)N2CCN(c3cccc(F)c3)CC2)n1C (protonated)
C=c1/c(=C/c2[n-]c(=O)[n-]c2[O-])cc(C(=O)N2CCN(c3cccc(F)c3)CC2)n1C (cis-trans isomerization)
C=c1/c(=C/c2[n-]c(=O)[n-]c2[O-])cc(C(=O)N2CCN(c3cccc(F)c3)CC2)n1C (3D coordinates assigned)
C=c1/c(=C/c2[n-]c(=O)[n-]c2[O-])cc(C(=O)N2CCN(c3cccc(F)c3)CC2)n1C (nonaromatic ring conformer: 127.77253179605408 kcal/mol)

>  <smiles>  (58) 
C=c1c(=Cc2[nH]c(=O)[nH]c2O)cc(C(=O)N2CCN(c3cccc(F)c3)CC2)n1C

>  <score_type>  (58) 
oracle

>  <origin>  (58) 
adg

>  <m_score__min__energy>  (58) 
-17.399999999999999

>  <m_primary>  (58) 
energy

$$$$
58:0
     RDKit          3D

 61 65  0  0  0  0  0  0  0  0999 V2000
   59.8955   28.2480   44.3682 H   0  0  0  0  0  0  0  0  0  0  0  0
   58.8320   28.4890   44.5130 C   0  0  0  0  0  0  0  0  0  0  0  0
   57.9980   27.5740   45.0720 N   0  0  0  0  0  0  0  0  0  0  0  0
   56.6730   27.8150   45.2800 C   0  0  0  0  0  0  0  0  0  0  0  0
   55.9690   26.8730   45.8440 N   0  0  0  0  0  0  0  0  0  0  0  0
   56.4250   25.6800   46.4990 C   0  0  0  0  0  0  0  0  0  0  0  0
   55.6610   24.6830   46.6130 O   0  0  0  0  0  0  0  0  0  0  0  0
   57.7500   25.6790   47.1960 C   0  0  0  0  0  0  0  0  0  0  0  0
   58.4998   25.2066   46.5443 H   0  0  0  0  0  0  0  0  0  0  0  0
   57.6524   25.1182   48.1372 H   0  0  0  0  0  0  0  0  0  0  0  0
   58.1760   27.0440   47.5060 N   0  0  0  0  0  0  0  0  0  0  0  0
   57.5670   27.8480   47.2320 H   0  0  0  0  0  0  0  0  0  0  0  0
   59.3770   27.3000   48.2500 C   0  0  0  0  0  0  0  0  0  0  0  0
   59.9690   26.3460   48.8240 O   0  0  0  0  0  0  0  0  0  0  0  0
   59.9250   28.6710   48.3640 C   0  0  0  0  0  0  0  0  0  0  0  0
   59.4020   29.7280   47.5750 C   0  0  0  0  0  0  0  0  0  0  0  0
   58.5725   29.5276   46.8809 H   0  0  0  0  0  0  0  0  0  0  0  0
   59.9290   31.0270   47.6680 C   0  0  0  0  0  0  0  0  0  0  0  0
   59.5260   31.8451   47.0530 H   0  0  0  0  0  0  0  0  0  0  0  0
   60.9780   31.2520   48.5620 C   0  0  0  0  0  0  0  0  0  0  0  0
   61.6980   32.4020   48.8500 C   0  0  0  0  0  0  0  0  0  0  0  0
   61.5140   33.7610   48.1930 C   0  0  0  0  0  0  0  0  0  0  0  0
   62.2839   34.3850   48.6704 H   0  0  0  0  0  0  0  0  0  0  0  0
   60.1180   34.3440   48.4340 C   0  0  0  0  0  0  0  0  0  0  0  0
   59.4231   33.5515   48.7487 H   0  0  0  0  0  0  0  0  0  0  0  0
   60.1329   35.1032   49.2299 H   0  0  0  0  0  0  0  0  0  0  0  0
   59.6720   34.9400   47.1090 C   0  0  0  0  0  0  0  0  0  0  0  0
   58.5861   34.8200   46.9807 H   0  0  0  0  0  0  0  0  0  0  0  0
   59.8863   36.0176   47.0561 H   0  0  0  0  0  0  0  0  0  0  0  0
   60.4200   34.1670   46.0380 C   0  0  0  0  0  0  0  0  0  0  0  0
   59.8429   33.2823   45.7308 H   0  0  0  0  0  0  0  0  0  0  0  0
   60.5820   34.7773   45.1373 H   0  0  0  0  0  0  0  0  0  0  0  0
   61.7370   33.7460   46.6730 C   0  0  0  0  0  0  0  0  0  0  0  0
   62.0133   32.7348   46.3396 H   0  0  0  0  0  0  0  0  0  0  0  0
   62.5525   34.4254   46.3843 H   0  0  0  0  0  0  0  0  0  0  0  0
   62.6540   32.0020   49.7990 C   0  0  0  0  0  0  0  0  0  0  0  0
   63.6990   32.8530   50.3960 C   0  0  0  0  0  0  0  0  0  0  0  0
   65.0450   32.6640   50.0520 C   0  0  0  0  0  0  0  0  0  0  0  0
   65.3212   31.8934   49.3172 H   0  0  0  0  0  0  0  0  0  0  0  0
   66.0370   33.4540   50.6420 C   0  0  0  0  0  0  0  0  0  0  0  0
   67.0909   33.3161   50.3586 H   0  0  0  0  0  0  0  0  0  0  0  0
   65.6890   34.4190   51.5920 C   0  0  0  0  0  0  0  0  0  0  0  0
   66.4688   35.0464   52.0484 H   0  0  0  0  0  0  0  0  0  0  0  0
   64.3510   34.5880   51.9630 C   0  0  0  0  0  0  0  0  0  0  0  0
   64.0180   35.5140   52.8960 F   0  0  0  0  0  0  0  0  0  0  0  0
   63.3580   33.7990   51.3750 C   0  0  0  0  0  0  0  0  0  0  0  0
   62.3081   33.9198   51.6800 H   0  0  0  0  0  0  0  0  0  0  0  0
   62.5090   30.6830   50.0940 N   0  0  0  0  0  0  0  0  0  0  0  0
   63.3410   29.8770   50.9880 C   0  0  0  0  0  0  0  0  0  0  0  0
   63.0944   30.1159   52.0330 H   0  0  0  0  0  0  0  0  0  0  0  0
   63.1521   28.8095   50.8015 H   0  0  0  0  0  0  0  0  0  0  0  0
   64.4020   30.0997   50.8015 H   0  0  0  0  0  0  0  0  0  0  0  0
   61.4950   30.2360   49.3260 C   0  0  0  0  0  0  0  0  0  0  0  0
   60.9980   28.9310   49.2440 C   0  0  0  0  0  0  0  0  0  0  0  0
   61.4338   28.1246   49.8521 H   0  0  0  0  0  0  0  0  0  0  0  0
   56.1320   29.0560   44.8490 C   0  0  0  0  0  0  0  0  0  0  0  0
   54.7720   29.3400   44.9090 O   0  0  0  0  0  0  0  0  0  0  0  0
   56.9840   30.0120   44.2890 C   0  0  0  0  0  0  0  0  0  0  0  0
   56.5833   30.9881   43.9781 H   0  0  0  0  0  0  0  0  0  0  0  0
   58.3400   29.7330   44.1230 C   0  0  0  0  0  0  0  0  0  0  0  0
   59.0138   30.4864   43.6891 H   0  0  0  0  0  0  0  0  0  0  0  0
  1  2  1  0
  2  3  1  0
  3  4  1  0
  4  5  2  0
  5  6  1  0
  6  7  2  0
  6  8  1  0
  8  9  1  0
  8 10  1  0
  8 11  1  0
 11 12  1  0
 11 13  1  0
 13 14  2  0
 13 15  1  0
 15 16  2  0
 16 17  1  0
 16 18  1  0
 18 19  1  0
 18 20  2  0
 20 21  1  0
 21 22  1  0
 22 23  1  0
 22 24  1  0
 24 25  1  0
 24 26  1  0
 24 27  1  0
 27 28  1  0
 27 29  1  0
 27 30  1  0
 30 31  1  0
 30 32  1  0
 30 33  1  0
 33 34  1  0
 33 35  1  0
 21 36  2  0
 36 37  1  0
 37 38  2  0
 38 39  1  0
 38 40  1  0
 40 41  1  0
 40 42  2  0
 42 43  1  0
 42 44  1  0
 44 45  1  0
 44 46  2  0
 46 47  1  0
 36 48  1  0
 48 49  1  0
 49 50  1  0
 49 51  1  0
 49 52  1  0
 48 53  1  0
 53 54  2  0
 54 55  1  0
  4 56  1  0
 56 57  1  0
 56 58  2  0
 58 59  1  0
 58 60  1  0
 60 61  1  0
 60  2  2  0
 54 15  1  0
 53 20  1  0
 33 22  1  0
 46 37  1  0
M  CHG  2   3  -1  57  -1
M  END
>  <UniqueID>  (59) 
58

>  <SMILES>  (59) 
Cn1c(-c2cccc(F)c2)c(C2CCCC2)c2ccc(C(=O)NCC(=O)/N=c3/[n-]cccc3[O-])cc21

>  <Energy>  (59) 
120.41108374842808

>  <Genealogy>  (59) 
Cn1c(-c2cccc(F)c2)c(C2CCCC2)c2ccc(C(=O)NCC(=O)N=c3[n-]cccc3[O-])cc21 (protonated)
Cn1c(-c2cccc(F)c2)c(C2CCCC2)c2ccc(C(=O)NCC(=O)/N=c3/[n-]cccc3[O-])cc21 (cis-trans isomerization)
Cn1c(-c2cccc(F)c2)c(C2CCCC2)c2ccc(C(=O)NCC(=O)/N=c3/[n-]cccc3[O-])cc21 (3D coordinates assigned)
Cn1c(-c2cccc(F)c2)c(C2CCCC2)c2ccc(C(=O)NCC(=O)/N=c3/[n-]cccc3[O-])cc21 (nonaromatic ring conformer: 120.41108374842808 kcal/mol)

>  <smiles>  (59) 
Cn1c(-c2cccc(F)c2)c(C2CCCC2)c2ccc(C(=O)NCC(=O)N=c3[nH]cccc3O)cc21

>  <score_type>  (59) 
oracle

>  <origin>  (59) 
adg

>  <m_score__min__energy>  (59) 
-15.01

>  <m_primary>  (59) 
energy

$$$$
59:0
     RDKit          3D

 48 51  0  0  0  0  0  0  0  0999 V2000
   57.8600   32.3650   41.5420 C   0  0  0  0  0  0  0  0  0  0  0  0
   58.3940   32.0050   42.8110 O   0  0  0  0  0  0  0  0  0  0  0  0
   57.8940   30.9310   43.5200 C   0  0  0  0  0  0  0  0  0  0  0  0
   56.5030   30.8350   43.6390 C   0  0  0  0  0  0  0  0  0  0  0  0
   55.9100   29.8020   44.3250 C   0  0  0  0  0  0  0  0  0  0  0  0
   56.7490   28.8540   44.8980 C   0  0  0  0  0  0  0  0  0  0  0  0
   56.1840   27.8240   45.5810 N   0  0  0  0  0  0  0  0  0  0  0  0
   56.9810   26.8880   46.1480 C   0  0  0  0  0  0  0  0  0  0  0  0
   56.4210   25.9510   46.7710 O   0  0  0  0  0  0  0  0  0  0  0  0
   58.3310   26.9770   46.0330 N   0  0  0  0  0  0  0  0  0  0  0  0
   58.8990   27.9930   45.3590 C   0  0  0  0  0  0  0  0  0  0  0  0
   60.4010   28.0520   45.2590 C   0  0  0  0  0  0  0  0  0  0  0  0
   60.7630   29.4220   45.7950 C   0  0  0  0  0  0  0  0  0  0  0  0
   60.2410   29.6920   47.1420 C   0  0  0  0  0  0  0  0  0  0  0  0
   60.3590   28.8120   48.2020 C   0  0  0  0  0  0  0  0  0  0  0  0
   59.8190   29.1880   49.4320 C   0  0  0  0  0  0  0  0  0  0  0  0
   59.9170   28.4010   50.4050 O   0  0  0  0  0  0  0  0  0  0  0  0
   59.1980   30.3780   49.5970 N   0  0  0  0  0  0  0  0  0  0  0  0
   59.0960   31.2160   48.5510 C   0  0  0  0  0  0  0  0  0  0  0  0
   58.4300   32.5450   48.6340 C   0  0  0  0  0  0  0  0  0  0  0  0
   58.5280   33.2900   47.3510 C   0  0  0  0  0  0  0  0  0  0  0  0
   59.6090   34.0760   47.0140 C   0  0  0  0  0  0  0  0  0  0  0  0
   59.5720   34.7190   45.7800 C   0  0  0  0  0  0  0  0  0  0  0  0
   58.4980   34.5850   44.9170 C   0  0  0  0  0  0  0  0  0  0  0  0
   57.4210   33.7980   45.2620 C   0  0  0  0  0  0  0  0  0  0  0  0
   57.4380   33.1480   46.4860 C   0  0  0  0  0  0  0  0  0  0  0  0
   59.6110   30.8840   47.3320 N   0  0  0  0  0  0  0  0  0  0  0  0
   58.1270   28.9700   44.7660 C   0  0  0  0  0  0  0  0  0  0  0  0
   58.6990   29.9910   44.0880 N   0  0  0  0  0  0  0  0  0  0  0  0
   56.9556   32.9747   41.6844 H   0  0  0  0  0  0  0  0  0  0  0  0
   58.6079   32.9440   40.9804 H   0  0  0  0  0  0  0  0  0  0  0  0
   57.6038   31.4546   40.9804 H   0  0  0  0  0  0  0  0  0  0  0  0
   55.8695   31.6040   43.1728 H   0  0  0  0  0  0  0  0  0  0  0  0
   54.8163   29.7288   44.4166 H   0  0  0  0  0  0  0  0  0  0  0  0
   55.1460   27.7300   45.6850 H   0  0  0  0  0  0  0  0  0  0  0  0
   60.8627   27.2614   45.8688 H   0  0  0  0  0  0  0  0  0  0  0  0
   60.7582   27.8974   44.2302 H   0  0  0  0  0  0  0  0  0  0  0  0
   61.8596   29.5030   45.8259 H   0  0  0  0  0  0  0  0  0  0  0  0
   60.3036   30.1599   45.1209 H   0  0  0  0  0  0  0  0  0  0  0  0
   60.8644   27.8428   48.0788 H   0  0  0  0  0  0  0  0  0  0  0  0
   58.7890   30.6840   50.4930 H   0  0  0  0  0  0  0  0  0  0  0  0
   57.3682   32.3969   48.8801 H   0  0  0  0  0  0  0  0  0  0  0  0
   58.9364   33.1345   49.4125 H   0  0  0  0  0  0  0  0  0  0  0  0
   60.4667   34.1906   47.6931 H   0  0  0  0  0  0  0  0  0  0  0  0
   60.4208   35.3520   45.4820 H   0  0  0  0  0  0  0  0  0  0  0  0
   58.5044   35.1098   43.9503 H   0  0  0  0  0  0  0  0  0  0  0  0
   56.5651   33.6878   44.5799 H   0  0  0  0  0  0  0  0  0  0  0  0
   56.5874   32.5153   46.7796 H   0  0  0  0  0  0  0  0  0  0  0  0
  1  2  1  0
  2  3  1  0
  3  4  2  0
  4  5  1  0
  5  6  2  0
  6  7  1  0
  7  8  1  0
  8  9  2  0
  8 10  1  0
 10 11  2  0
 11 12  1  0
 12 13  1  0
 13 14  1  0
 14 15  2  0
 15 16  1  0
 16 17  2  0
 16 18  1  0
 18 19  1  0
 19 20  1  0
 20 21  1  0
 21 22  2  0
 22 23  1  0
 23 24  2  0
 24 25  1  0
 25 26  2  0
 19 27  2  0
 11 28  1  0
 28 29  2  0
 29  3  1  0
 28  6  1  0
 27 14  1  0
 26 21  1  0
  1 30  1  0
  1 31  1  0
  1 32  1  0
  4 33  1  0
  5 34  1  0
  7 35  1  0
 12 36  1  0
 12 37  1  0
 13 38  1  0
 13 39  1  0
 15 40  1  0
 18 41  1  0
 20 42  1  0
 20 43  1  0
 22 44  1  0
 23 45  1  0
 24 46  1  0
 25 47  1  0
 26 48  1  0
M  END
>  <smiles>  (60) 
COc1ccc2[nH]c(=O)nc(CCc3cc(=O)[nH]c(Cc4ccccc4)n3)c2n1

>  <score_type>  (60) 
oracle

>  <origin>  (60) 
adg

>  <m_score__min__energy>  (60) 
-9.0399999999999991

>  <m_primary>  (60) 
energy

$$$$
60:0
     RDKit          3D

 68 71  0  0  0  0  0  0  0  0999 V2000
   64.0240   33.1190   50.4320 C   0  0  0  0  0  0  0  0  0  0  0  0
   63.2020   33.3320   49.1900 C   0  0  0  0  0  0  0  0  0  0  0  0
   63.7780   33.1260   47.9250 C   0  0  0  0  0  0  0  0  0  0  0  0
   63.0250   33.3180   46.7650 C   0  0  0  0  0  0  0  0  0  0  0  0
   61.6880   33.7080   46.8560 C   0  0  0  0  0  0  0  0  0  0  0  0
   61.0980   33.8960   48.1070 C   0  0  0  0  0  0  0  0  0  0  0  0
   61.8420   33.6930   49.2850 C   0  0  0  0  0  0  0  0  0  0  0  0
   61.2540   33.9110   50.5760 N   0  0  0  0  0  0  0  0  0  0  0  0
   59.8970   33.6290   50.9400 C   0  0  0  0  0  0  0  0  0  0  0  0
   59.1150   34.5710   51.2460 O   0  0  0  0  0  0  0  0  0  0  0  0
   59.4010   32.2350   50.9050 C   0  0  0  0  0  0  0  0  0  0  0  0
   58.0830   31.9390   51.2910 C   0  0  0  0  0  0  0  0  0  0  0  0
   57.6350   30.6200   51.2520 C   0  0  0  0  0  0  0  0  0  0  0  0
   58.4990   29.6030   50.8500 C   0  0  0  0  0  0  0  0  0  0  0  0
   59.8110   29.9210   50.4740 C   0  0  0  0  0  0  0  0  0  0  0  0
   60.7880   28.8250   50.1410 C   0  0  0  0  0  0  0  0  0  0  0  0
   60.7840   28.5790   48.6930 N   0  0  0  0  0  0  0  0  0  0  0  0
   60.4050   27.2370   48.2230 C   0  0  0  0  0  0  0  0  0  0  0  0
   60.3640   27.1160   46.6860 C   0  0  0  0  0  0  0  0  0  0  0  0
   59.8630   28.3380   46.0290 N   0  0  0  0  0  0  0  0  0  0  0  0
   58.4410   28.6330   46.3240 C   0  0  0  0  0  0  0  0  0  0  0  0
   57.8810   29.5060   45.2390 C   0  0  0  0  0  0  0  0  0  0  0  0
   57.1280   28.9500   44.1920 C   0  0  0  0  0  0  0  0  0  0  0  0
   56.6070   29.7690   43.1890 C   0  0  0  0  0  0  0  0  0  0  0  0
   56.8370   31.1470   43.2180 C   0  0  0  0  0  0  0  0  0  0  0  0
   57.5960   31.7190   44.2520 C   0  0  0  0  0  0  0  0  0  0  0  0
   57.8450   33.2130   44.2830 C   0  0  0  0  0  0  0  0  0  0  0  0
   58.5950   33.6720   45.4750 N   0  0  0  0  0  0  0  0  0  0  0  0
   57.7670   33.6920   46.6930 C   0  0  0  0  0  0  0  0  0  0  0  0
   59.2560   34.9700   45.2670 C   0  0  0  0  0  0  0  0  0  0  0  0
   58.1270   30.8880   45.2530 C   0  0  0  0  0  0  0  0  0  0  0  0
   60.7580   29.4750   46.3010 C   0  0  0  0  0  0  0  0  0  0  0  0
   60.9590   29.6760   47.7730 C   0  0  0  0  0  0  0  0  0  0  0  0
   61.3440   30.8050   48.1830 O   0  0  0  0  0  0  0  0  0  0  0  0
   60.2270   31.2210   50.5070 N   0  0  0  0  0  0  0  0  0  0  0  0
   63.3956   33.2818   51.3200 H   0  0  0  0  0  0  0  0  0  0  0  0
   64.4134   32.0903   50.4420 H   0  0  0  0  0  0  0  0  0  0  0  0
   64.8640   33.8291   50.4420 H   0  0  0  0  0  0  0  0  0  0  0  0
   64.8292   32.8114   47.8481 H   0  0  0  0  0  0  0  0  0  0  0  0
   63.4859   33.1618   45.7785 H   0  0  0  0  0  0  0  0  0  0  0  0
   61.0986   33.8674   45.9410 H   0  0  0  0  0  0  0  0  0  0  0  0
   60.0443   34.2049   48.1730 H   0  0  0  0  0  0  0  0  0  0  0  0
   57.4092   32.7430   51.6218 H   0  0  0  0  0  0  0  0  0  0  0  0
   56.6000   30.3817   51.5383 H   0  0  0  0  0  0  0  0  0  0  0  0
   58.1538   28.5588   50.8280 H   0  0  0  0  0  0  0  0  0  0  0  0
   61.7973   29.1268   50.4575 H   0  0  0  0  0  0  0  0  0  0  0  0
   60.4948   27.9045   50.6669 H   0  0  0  0  0  0  0  0  0  0  0  0
   61.1362   26.5123   48.6106 H   0  0  0  0  0  0  0  0  0  0  0  0
   59.3879   27.0386   48.5919 H   0  0  0  0  0  0  0  0  0  0  0  0
   61.3822   26.9137   46.3222 H   0  0  0  0  0  0  0  0  0  0  0  0
   59.6714   26.2986   46.4368 H   0  0  0  0  0  0  0  0  0  0  0  0
   57.8722   27.6926   46.3694 H   0  0  0  0  0  0  0  0  0  0  0  0
   58.3648   29.1517   47.2910 H   0  0  0  0  0  0  0  0  0  0  0  0
   56.9482   27.8652   44.1623 H   0  0  0  0  0  0  0  0  0  0  0  0
   56.0140   29.3287   42.3739 H   0  0  0  0  0  0  0  0  0  0  0  0
   56.4211   31.7875   42.4263 H   0  0  0  0  0  0  0  0  0  0  0  0
   58.4193   33.4871   43.3858 H   0  0  0  0  0  0  0  0  0  0  0  0
   56.8594   33.7002   44.3188 H   0  0  0  0  0  0  0  0  0  0  0  0
   58.4182   33.6763   47.5794 H   0  0  0  0  0  0  0  0  0  0  0  0
   57.1539   34.6052   46.7046 H   0  0  0  0  0  0  0  0  0  0  0  0
   57.1105   32.8095   46.7046 H   0  0  0  0  0  0  0  0  0  0  0  0
   59.4872   35.4241   46.2418 H   0  0  0  0  0  0  0  0  0  0  0  0
   60.1878   34.8206   44.7018 H   0  0  0  0  0  0  0  0  0  0  0  0
   58.5871   35.6357   44.7018 H   0  0  0  0  0  0  0  0  0  0  0  0
   58.7409   31.3243   46.0547 H   0  0  0  0  0  0  0  0  0  0  0  0
   61.7333   29.2828   45.8300 H   0  0  0  0  0  0  0  0  0  0  0  0
   60.2963   30.3841   45.8884 H   0  0  0  0  0  0  0  0  0  0  0  0
   61.2150   31.4360   50.2400 H   0  0  0  0  0  0  0  0  0  0  0  0
  1  2  1  0
  2  3  2  0
  3  4  1  0
  4  5  2  0
  5  6  1  0
  6  7  2  0
  7  8  1  0
  8  9  1  0
  9 10  2  0
  9 11  1  0
 11 12  2  0
 12 13  1  0
 13 14  2  0
 14 15  1  0
 15 16  1  0
 16 17  1  0
 17 18  1  0
 18 19  1  0
 19 20  1  0
 20 21  1  0
 21 22  1  0
 22 23  2  0
 23 24  1  0
 24 25  2  0
 25 26  1  0
 26 27  1  0
 27 28  1  0
 28 29  1  0
 28 30  1  0
 26 31  2  0
 20 32  1  0
 32 33  1  0
 33 34  2  0
 15 35  2  0
  7  2  1  0
 35 11  1  0
 33 17  1  0
 31 22  1  0
  1 36  1  0
  1 37  1  0
  1 38  1  0
  3 39  1  0
  4 40  1  0
  5 41  1  0
  6 42  1  0
 12 43  1  0
 13 44  1  0
 14 45  1  0
 16 46  1  0
 16 47  1  0
 18 48  1  0
 18 49  1  0
 19 50  1  0
 19 51  1  0
 21 52  1  0
 21 53  1  0
 23 54  1  0
 24 55  1  0
 25 56  1  0
 27 57  1  0
 27 58  1  0
 29 59  1  0
 29 60  1  0
 29 61  1  0
 30 62  1  0
 30 63  1  0
 30 64  1  0
 31 65  1  0
 32 66  1  0
 32 67  1  0
 35 68  1  0
M  CHG  2   8  -1  35   1
M  END
>  <UniqueID>  (61) 
59

>  <SMILES>  (61) 
Cc1ccccc1[N-]C(=O)c1cccc(CN2CCN(Cc3cccc(CN(C)C)c3)CC2=O)[nH+]1

>  <Energy>  (61) 
81.92641035438822

>  <Genealogy>  (61) 
Cc1ccccc1[N-]C(=O)c1cccc(CN2CCN(Cc3cccc(CN(C)C)c3)CC2=O)[nH+]1 (protonated)
Cc1ccccc1[N-]C(=O)c1cccc(CN2CCN(Cc3cccc(CN(C)C)c3)CC2=O)[nH+]1 (3D coordinates assigned)
Cc1ccccc1[N-]C(=O)c1cccc(CN2CCN(Cc3cccc(CN(C)C)c3)CC2=O)[nH+]1 (nonaromatic ring conformer: 81.92641035438822 kcal/mol)

>  <smiles>  (61) 
Cc1ccccc1NC(=O)c1cccc(CN2CCN(Cc3cccc(CN(C)C)c3)CC2=O)n1

>  <score_type>  (61) 
oracle

>  <origin>  (61) 
adg

>  <m_score__min__energy>  (61) 
-9.8599999999999994

>  <m_primary>  (61) 
energy

$$$$
61:0
     RDKit          3D

 25 26  0  0  0  0  0  0  0  0999 V2000
   53.8060   31.2752   51.2122 H   0  0  0  0  0  0  0  0  0  0  0  0
   52.9880   30.6010   51.5060 C   0  0  0  0  0  0  0  0  0  0  0  0
   52.5925   30.0678   50.6289 H   0  0  0  0  0  0  0  0  0  0  0  0
   53.5150   29.5860   52.4850 C   0  0  0  0  0  0  0  0  0  0  0  0
   52.7530   28.6720   52.8990 O   0  0  0  0  0  0  0  0  0  0  0  0
   54.8550   29.6460   52.9960 N   0  0  0  0  0  0  0  0  0  0  0  0
   55.8070   30.4430   52.6070 C   0  0  0  0  0  0  0  0  0  0  0  0
   56.1840   30.5290   51.3130 N   0  0  0  0  0  0  0  0  0  0  0  0
   57.1420   31.4310   51.1040 N   0  0  0  0  0  0  0  0  0  0  0  0
   57.5190   32.0840   52.2270 C   0  0  0  0  0  0  0  0  0  0  0  0
   58.6140   33.1010   52.2650 C   0  0  0  0  0  0  0  0  0  0  0  0
   59.3599   32.8015   53.0159 H   0  0  0  0  0  0  0  0  0  0  0  0
   58.1822   34.0782   52.5271 H   0  0  0  0  0  0  0  0  0  0  0  0
   59.2900   33.2110   50.9030 C   0  0  0  0  0  0  0  0  0  0  0  0
   60.3671   33.3863   51.0413 H   0  0  0  0  0  0  0  0  0  0  0  0
   59.1396   32.2766   50.3425 H   0  0  0  0  0  0  0  0  0  0  0  0
   58.8511   34.0495   50.3425 H   0  0  0  0  0  0  0  0  0  0  0  0
   56.6640   31.5350   53.5720 S   0  0  0  0  0  0  0  0  0  0  0  0
   51.8800   31.4100   52.1110 C   0  0  0  0  0  0  0  0  0  0  0  0
   51.5350   31.3670   53.4100 N   0  0  0  0  0  0  0  0  0  0  0  0
   50.5470   32.2850   53.4980 C   0  0  0  0  0  0  0  0  0  0  0  0
   49.9520   32.5370   54.5770 O   0  0  0  0  0  0  0  0  0  0  0  0
   50.2510   32.9140   52.3400 N   0  0  0  0  0  0  0  0  0  0  0  0
   51.1080   32.3500   51.4740 C   0  0  0  0  0  0  0  0  0  0  0  0
   51.1880   32.6940   50.1300 O   0  0  0  0  0  0  0  0  0  0  0  0
  1  2  1  0
  2  3  1  0
  2  4  1  0
  4  5  2  0
  4  6  1  0
  6  7  2  0
  7  8  1  0
  8  9  1  0
  9 10  2  0
 10 11  1  0
 11 12  1  0
 11 13  1  0
 11 14  1  0
 14 15  1  0
 14 16  1  0
 14 17  1  0
 10 18  1  0
  2 19  1  0
 19 20  1  0
 20 21  1  0
 21 22  2  0
 21 23  1  0
 23 24  1  0
 24 25  1  0
 18  7  1  0
 24 19  2  0
M  CHG  4   8  -1  20  -1  23  -1  25  -1
M  END
>  <UniqueID>  (62) 
60

>  <SMILES>  (62) 
CCc1n[n-]/c(=N/C(=O)Cc2[n-]c(=O)[n-]c2[O-])s1

>  <Energy>  (62) 
89.78337988666289

>  <Genealogy>  (62) 
CCc1n[n-]c(=NC(=O)Cc2[n-]c(=O)[n-]c2[O-])s1 (protonated)
CCc1n[n-]/c(=N/C(=O)Cc2[n-]c(=O)[n-]c2[O-])s1 (cis-trans isomerization)
CCc1n[n-]/c(=N/C(=O)Cc2[n-]c(=O)[n-]c2[O-])s1 (3D coordinates assigned)
CCc1n[n-]/c(=N/C(=O)Cc2[n-]c(=O)[n-]c2[O-])s1 (optimized conformer: 89.78337988666289 kcal/mol)

>  <smiles>  (62) 
CCc1n[nH]c(=NC(=O)Cc2[nH]c(=O)[nH]c2O)s1

>  <score_type>  (62) 
oracle

>  <origin>  (62) 
adg

>  <m_score__min__energy>  (62) 
-16.469999999999999

>  <m_primary>  (62) 
energy

$$$$
62:0
     RDKit          3D

 39 41  0  0  0  0  0  0  0  0999 V2000
   56.5690   29.3140   43.8300 C   0  0  0  0  0  0  0  0  0  0  0  0
   57.4220   29.5450   44.8480 C   0  0  0  0  0  0  0  0  0  0  0  0
   57.6180   30.8890   45.2260 C   0  0  0  0  0  0  0  0  0  0  0  0
   58.4400   31.2260   46.2960 C   0  0  0  0  0  0  0  0  0  0  0  0
   59.1090   30.2360   47.0150 C   0  0  0  0  0  0  0  0  0  0  0  0
   59.9800   30.6090   48.1550 C   0  0  0  0  0  0  0  0  0  0  0  0
   59.7100   30.1620   49.3010 O   0  0  0  0  0  0  0  0  0  0  0  0
   61.1300   31.4600   47.9830 N   0  0  0  0  0  0  0  0  0  0  0  0
   62.3360   31.2020   48.7760 C   0  0  0  0  0  0  0  0  0  0  0  0
   63.4030   32.2670   48.5060 C   0  0  0  0  0  0  0  0  0  0  0  0
   62.8190   33.6110   48.5980 N   0  0  0  0  0  0  0  0  0  0  0  0
   61.7170   33.8460   47.6410 C   0  0  0  0  0  0  0  0  0  0  0  0
   61.1240   32.5660   47.0160 C   0  0  0  0  0  0  0  0  0  0  0  0
   58.9250   28.8920   46.6640 C   0  0  0  0  0  0  0  0  0  0  0  0
   58.0980   28.5090   45.5780 C   0  0  0  0  0  0  0  0  0  0  0  0
   58.0070   27.1960   45.2340 C   0  0  0  0  0  0  0  0  0  0  0  0
   57.4240   26.1360   46.0810 C   0  0  0  0  0  0  0  0  0  0  0  0
   58.1460   25.1320   46.6090 N   0  0  0  0  0  0  0  0  0  0  0  0
   57.2200   24.3780   47.2380 C   0  0  0  0  0  0  0  0  0  0  0  0
   57.5160   23.3340   47.8760 O   0  0  0  0  0  0  0  0  0  0  0  0
   55.9510   24.8250   47.1250 N   0  0  0  0  0  0  0  0  0  0  0  0
   56.0910   25.9320   46.3770 C   0  0  0  0  0  0  0  0  0  0  0  0
   55.0160   26.7110   45.9570 O   0  0  0  0  0  0  0  0  0  0  0  0
   56.3793   28.2838   43.4944 H   0  0  0  0  0  0  0  0  0  0  0  0
   56.0626   30.1557   43.3350 H   0  0  0  0  0  0  0  0  0  0  0  0
   57.1108   31.6868   44.6636 H   0  0  0  0  0  0  0  0  0  0  0  0
   58.5635   32.2822   46.5775 H   0  0  0  0  0  0  0  0  0  0  0  0
   62.0748   31.2160   49.8445 H   0  0  0  0  0  0  0  0  0  0  0  0
   62.7400   30.2187   48.4933 H   0  0  0  0  0  0  0  0  0  0  0  0
   64.2082   32.1700   49.2491 H   0  0  0  0  0  0  0  0  0  0  0  0
   63.8047   32.1209   47.4924 H   0  0  0  0  0  0  0  0  0  0  0  0
   62.4550   33.7420   49.5720 H   0  0  0  0  0  0  0  0  0  0  0  0
   60.9104   34.3748   48.1699 H   0  0  0  0  0  0  0  0  0  0  0  0
   62.1440   34.4286   46.8114 H   0  0  0  0  0  0  0  0  0  0  0  0
   60.0886   32.7646   46.7022 H   0  0  0  0  0  0  0  0  0  0  0  0
   61.7392   32.2797   46.1502 H   0  0  0  0  0  0  0  0  0  0  0  0
   59.4365   28.1122   47.2474 H   0  0  0  0  0  0  0  0  0  0  0  0
   58.3978   26.9011   44.2490 H   0  0  0  0  0  0  0  0  0  0  0  0
   55.1490   27.5150   45.3560 H   0  0  0  0  0  0  0  0  0  0  0  0
  1  2  2  0
  2  3  1  0
  3  4  2  0
  4  5  1  0
  5  6  1  0
  6  7  2  0
  6  8  1  0
  8  9  1  0
  9 10  1  0
 10 11  1  0
 11 12  1  0
 12 13  1  0
  5 14  2  0
 14 15  1  0
 15 16  2  3
 16 17  1  0
 17 18  1  0
 18 19  1  0
 19 20  2  0
 19 21  1  0
 21 22  1  0
 22 23  1  0
 15  2  1  0
 22 17  2  0
 13  8  1  0
  1 24  1  0
  1 25  1  0
  3 26  1  0
  4 27  1  0
  9 28  1  0
  9 29  1  0
 10 30  1  0
 10 31  1  0
 11 32  1  0
 12 33  1  0
 12 34  1  0
 13 35  1  0
 13 36  1  0
 14 37  1  0
 16 38  1  0
 23 39  1  0
M  CHG  2  18  -1  21  -1
M  END
>  <UniqueID>  (63) 
61

>  <SMILES>  (63) 
C=c1ccc(C(=O)N2CCNCC2)cc1=Cc1[n-]c(=O)[n-]c1O

>  <Energy>  (63) 
94.8344025154817

>  <Genealogy>  (63) 
C=c1ccc(C(=O)N2CCNCC2)cc1=Cc1[n-]c(=O)[n-]c1O (protonated)
C=c1ccc(C(=O)N2CCNCC2)cc1=Cc1[n-]c(=O)[n-]c1O (3D coordinates assigned)
C=c1ccc(C(=O)N2CCNCC2)cc1=Cc1[n-]c(=O)[n-]c1O (nonaromatic ring conformer: 94.8344025154817 kcal/mol)

>  <smiles>  (63) 
C=c1ccc(C(=O)N2CCNCC2)cc1=Cc1[nH]c(=O)[nH]c1O

>  <score_type>  (63) 
oracle

>  <origin>  (63) 
adg

>  <m_score__min__energy>  (63) 
-12.390000000000001

>  <m_primary>  (63) 
energy

$$$$
63:0
     RDKit          3D

 52 54  0  0  0  0  0  0  0  0999 V2000
   60.5670   26.0580   46.5050 O   0  0  0  0  0  0  0  0  0  0  0  0
   59.5030   26.6130   46.8910 C   0  0  0  0  0  0  0  0  0  0  0  0
   58.1980   26.2200   46.2670 C   0  0  0  0  0  0  0  0  0  0  0  0
   57.5030   27.4200   45.6990 C   0  0  0  0  0  0  0  0  0  0  0  0
   58.1040   28.5630   45.2170 C   0  0  0  0  0  0  0  0  0  0  0  0
   57.0670   29.4050   44.8430 C   0  0  0  0  0  0  0  0  0  0  0  0
   57.2380   30.7390   44.2380 C   0  0  0  0  0  0  0  0  0  0  0  0
   56.8280   30.9410   43.0650 O   0  0  0  0  0  0  0  0  0  0  0  0
   57.8400   31.8180   44.9740 N   0  0  0  0  0  0  0  0  0  0  0  0
   57.2510   33.1610   44.8770 C   0  0  0  0  0  0  0  0  0  0  0  0
   58.0000   34.1730   45.7560 C   0  0  0  0  0  0  0  0  0  0  0  0
   58.2940   33.5670   47.1360 C   0  0  0  0  0  0  0  0  0  0  0  0
   59.1100   32.2570   47.0510 C   0  0  0  0  0  0  0  0  0  0  0  0
   59.1360   31.6380   45.6440 C   0  0  0  0  0  0  0  0  0  0  0  0
   55.8640   28.8350   45.0710 N   0  0  0  0  0  0  0  0  0  0  0  0
   56.1440   27.6290   45.6010 C   0  0  0  0  0  0  0  0  0  0  0  0
   55.1670   26.7200   45.9920 O   0  0  0  0  0  0  0  0  0  0  0  0
   59.5400   27.6060   47.9290 N   0  0  0  0  0  0  0  0  0  0  0  0
   60.7830   28.0230   48.5760 C   0  0  0  0  0  0  0  0  0  0  0  0
   60.5600   28.2680   50.0700 C   0  0  0  0  0  0  0  0  0  0  0  0
   59.2470   28.8660   50.3000 N   0  0  0  0  0  0  0  0  0  0  0  0
   58.7910   30.1110   49.7510 C   0  0  0  0  0  0  0  0  0  0  0  0
   58.4350   30.1470   48.5440 O   0  0  0  0  0  0  0  0  0  0  0  0
   58.7310   31.3500   50.5540 C   0  0  0  0  0  0  0  0  0  0  0  0
   59.6850   32.3630   50.3660 C   0  0  0  0  0  0  0  0  0  0  0  0
   59.6100   33.5480   51.1040 C   0  0  0  0  0  0  0  0  0  0  0  0
   58.5760   33.7360   52.0250 C   0  0  0  0  0  0  0  0  0  0  0  0
   57.6120   32.7420   52.2060 C   0  0  0  0  0  0  0  0  0  0  0  0
   57.6820   31.5530   51.4700 C   0  0  0  0  0  0  0  0  0  0  0  0
   56.7380   30.5970   51.6640 F   0  0  0  0  0  0  0  0  0  0  0  0
   58.3863   25.4958   45.4607 H   0  0  0  0  0  0  0  0  0  0  0  0
   57.5564   25.7708   47.0394 H   0  0  0  0  0  0  0  0  0  0  0  0
   59.1827   28.7655   45.1440 H   0  0  0  0  0  0  0  0  0  0  0  0
   57.2962   33.4956   43.8301 H   0  0  0  0  0  0  0  0  0  0  0  0
   56.2099   33.1056   45.2278 H   0  0  0  0  0  0  0  0  0  0  0  0
   58.9485   34.4440   45.2693 H   0  0  0  0  0  0  0  0  0  0  0  0
   57.3729   35.0675   45.8847 H   0  0  0  0  0  0  0  0  0  0  0  0
   58.8638   34.2987   47.7275 H   0  0  0  0  0  0  0  0  0  0  0  0
   57.3288   33.3271   47.6059 H   0  0  0  0  0  0  0  0  0  0  0  0
   60.1450   32.4716   47.3556 H   0  0  0  0  0  0  0  0  0  0  0  0
   58.6209   31.5288   47.7147 H   0  0  0  0  0  0  0  0  0  0  0  0
   59.9214   32.1268   45.0488 H   0  0  0  0  0  0  0  0  0  0  0  0
   59.3410   30.5611   45.7348 H   0  0  0  0  0  0  0  0  0  0  0  0
   58.6560   28.0890   48.2020 H   0  0  0  0  0  0  0  0  0  0  0  0
   61.5387   27.2339   48.4484 H   0  0  0  0  0  0  0  0  0  0  0  0
   61.1263   28.9593   48.1117 H   0  0  0  0  0  0  0  0  0  0  0  0
   60.6205   27.3099   50.6069 H   0  0  0  0  0  0  0  0  0  0  0  0
   61.3343   28.9578   50.4369 H   0  0  0  0  0  0  0  0  0  0  0  0
   60.4949   32.2236   49.6348 H   0  0  0  0  0  0  0  0  0  0  0  0
   60.3662   34.3337   50.9594 H   0  0  0  0  0  0  0  0  0  0  0  0
   58.5214   34.6674   52.6077 H   0  0  0  0  0  0  0  0  0  0  0  0
   56.7962   32.8934   52.9281 H   0  0  0  0  0  0  0  0  0  0  0  0
  1  2  2  0
  2  3  1  0
  3  4  1  0
  4  5  1  0
  5  6  2  0
  6  7  1  0
  7  8  2  0
  7  9  1  0
  9 10  1  0
 10 11  1  0
 11 12  1  0
 12 13  1  0
 13 14  1  0
  6 15  1  0
 15 16  1  0
 16 17  1  0
  2 18  1  0
 18 19  1  0
 19 20  1  0
 20 21  1  0
 21 22  1  0
 22 23  2  0
 22 24  1  0
 24 25  2  0
 25 26  1  0
 26 27  2  0
 27 28  1  0
 28 29  2  0
 29 30  1  0
 16  4  2  0
 29 24  1  0
 14  9  1  0
  3 31  1  0
  3 32  1  0
  5 33  1  0
 10 34  1  0
 10 35  1  0
 11 36  1  0
 11 37  1  0
 12 38  1  0
 12 39  1  0
 13 40  1  0
 13 41  1  0
 14 42  1  0
 14 43  1  0
 18 44  1  0
 19 45  1  0
 19 46  1  0
 20 47  1  0
 20 48  1  0
 25 49  1  0
 26 50  1  0
 27 51  1  0
 28 52  1  0
M  CHG  3  15  -1  17  -1  21  -1
M  END
>  <UniqueID>  (64) 
62

>  <SMILES>  (64) 
O=C(Cc1cc(C(=O)N2CCCCC2)[n-]c1[O-])NCC[N-]C(=O)c1ccccc1F

>  <Energy>  (64) 
80.63557729789929

>  <Genealogy>  (64) 
O=C(Cc1cc(C(=O)N2CCCCC2)[n-]c1[O-])NCC[N-]C(=O)c1ccccc1F (protonated)
O=C(Cc1cc(C(=O)N2CCCCC2)[n-]c1[O-])NCC[N-]C(=O)c1ccccc1F (3D coordinates assigned)
O=C(Cc1cc(C(=O)N2CCCCC2)[n-]c1[O-])NCC[N-]C(=O)c1ccccc1F (nonaromatic ring conformer: 80.63557729789929 kcal/mol)

>  <smiles>  (64) 
O=C(Cc1cc(C(=O)N2CCCCC2)[nH]c1O)NCCNC(=O)c1ccccc1F

>  <score_type>  (64) 
oracle

>  <origin>  (64) 
adg

>  <m_score__min__energy>  (64) 
-14.81

>  <m_primary>  (64) 
energy

$$$$
64:0
     RDKit          3D

 48 50  0  0  0  0  0  0  0  0999 V2000
   63.3360   33.8500   46.4020 C   0  0  0  0  0  0  0  0  0  0  0  0
   62.2620   33.9700   47.3290 O   0  0  0  0  0  0  0  0  0  0  0  0
   61.8920   32.9780   48.2520 C   0  0  0  0  0  0  0  0  0  0  0  0
   62.7840   31.9650   48.6580 C   0  0  0  0  0  0  0  0  0  0  0  0
   62.3810   30.9970   49.5790 C   0  0  0  0  0  0  0  0  0  0  0  0
   61.0920   31.0310   50.1110 C   0  0  0  0  0  0  0  0  0  0  0  0
   60.1980   32.0290   49.7160 C   0  0  0  0  0  0  0  0  0  0  0  0
   60.5870   32.9980   48.7720 C   0  0  0  0  0  0  0  0  0  0  0  0
   59.6950   34.0490   48.3690 N   0  0  0  0  0  0  0  0  0  0  0  0
   58.9290   34.0890   47.1600 C   0  0  0  0  0  0  0  0  0  0  0  0
   57.6720   33.9980   47.1960 O   0  0  0  0  0  0  0  0  0  0  0  0
   59.6090   34.1870   45.9040 N   0  0  0  0  0  0  0  0  0  0  0  0
   58.8990   34.2700   44.6280 C   0  0  0  0  0  0  0  0  0  0  0  0
   58.3740   32.9160   44.2330 C   0  0  0  0  0  0  0  0  0  0  0  0
   57.8010   32.7150   42.9690 C   0  0  0  0  0  0  0  0  0  0  0  0
   57.3460   31.4480   42.5960 C   0  0  0  0  0  0  0  0  0  0  0  0
   57.4650   30.3720   43.4780 C   0  0  0  0  0  0  0  0  0  0  0  0
   58.0400   30.5520   44.7490 C   0  0  0  0  0  0  0  0  0  0  0  0
   58.1750   29.4070   45.6840 C   0  0  0  0  0  0  0  0  0  0  0  0
   59.1340   29.4360   46.7130 C   0  0  0  0  0  0  0  0  0  0  0  0
   59.2520   28.3620   47.5990 C   0  0  0  0  0  0  0  0  0  0  0  0
   58.4210   27.2470   47.4670 C   0  0  0  0  0  0  0  0  0  0  0  0
   57.4670   27.2000   46.4420 C   0  0  0  0  0  0  0  0  0  0  0  0
   56.4070   25.8020   46.2780 S   0  0  0  0  0  0  0  0  0  0  0  0
   54.7910   26.3360   45.9830 N   0  0  0  0  0  0  0  0  0  0  0  0
   56.8730   24.9460   45.1340 O   0  0  0  0  0  0  0  0  0  0  0  0
   56.4400   24.9820   47.5370 O   0  0  0  0  0  0  0  0  0  0  0  0
   57.3420   28.2800   45.5590 C   0  0  0  0  0  0  0  0  0  0  0  0
   58.4920   31.8330   45.1170 C   0  0  0  0  0  0  0  0  0  0  0  0
   64.2836   33.7441   46.9504 H   0  0  0  0  0  0  0  0  0  0  0  0
   63.1773   32.9640   45.7697 H   0  0  0  0  0  0  0  0  0  0  0  0
   63.3768   34.7492   45.7697 H   0  0  0  0  0  0  0  0  0  0  0  0
   63.8038   31.9372   48.2465 H   0  0  0  0  0  0  0  0  0  0  0  0
   63.0810   30.2059   49.8859 H   0  0  0  0  0  0  0  0  0  0  0  0
   60.7792   30.2712   50.8423 H   0  0  0  0  0  0  0  0  0  0  0  0
   59.1854   32.0578   50.1446 H   0  0  0  0  0  0  0  0  0  0  0  0
   60.6530   34.2070   45.8990 H   0  0  0  0  0  0  0  0  0  0  0  0
   58.0571   34.9711   44.7262 H   0  0  0  0  0  0  0  0  0  0  0  0
   59.5955   34.6235   43.8534 H   0  0  0  0  0  0  0  0  0  0  0  0
   57.7095   33.5582   42.2685 H   0  0  0  0  0  0  0  0  0  0  0  0
   56.8929   31.2976   41.6050 H   0  0  0  0  0  0  0  0  0  0  0  0
   57.1066   29.3766   43.1767 H   0  0  0  0  0  0  0  0  0  0  0  0
   59.7945   30.3090   46.8206 H   0  0  0  0  0  0  0  0  0  0  0  0
   60.0018   28.3947   48.4032 H   0  0  0  0  0  0  0  0  0  0  0  0
   58.5157   26.4050   48.1685 H   0  0  0  0  0  0  0  0  0  0  0  0
   54.5870   27.0860   46.6800 H   0  0  0  0  0  0  0  0  0  0  0  0
   56.5859   28.2468   44.7607 H   0  0  0  0  0  0  0  0  0  0  0  0
   58.9427   31.9868   46.1086 H   0  0  0  0  0  0  0  0  0  0  0  0
  1  2  1  0
  2  3  1  0
  3  4  2  0
  4  5  1  0
  5  6  2  0
  6  7  1  0
  7  8  2  0
  8  9  1  0
  9 10  1  0
 10 11  2  0
 10 12  1  0
 12 13  1  0
 13 14  1  0
 14 15  2  0
 15 16  1  0
 16 17  2  0
 17 18  1  0
 18 19  1  0
 19 20  2  0
 20 21  1  0
 21 22  2  0
 22 23  1  0
 23 24  1  0
 24 25  1  0
 24 26  2  0
 24 27  2  0
 23 28  2  0
 18 29  2  0
  8  3  1  0
 29 14  1  0
 28 19  1  0
  1 30  1  0
  1 31  1  0
  1 32  1  0
  4 33  1  0
  5 34  1  0
  6 35  1  0
  7 36  1  0
 12 37  1  0
 13 38  1  0
 13 39  1  0
 15 40  1  0
 16 41  1  0
 17 42  1  0
 20 43  1  0
 21 44  1  0
 22 45  1  0
 25 46  1  0
 28 47  1  0
 29 48  1  0
M  CHG  2   9  -1  25  -1
M  END
>  <UniqueID>  (65) 
63

>  <SMILES>  (65) 
COc1ccccc1[N-]C(=O)NCc1cccc(-c2cccc(S([NH-])(=O)=O)c2)c1

>  <Energy>  (65) 
55.45278488196946

>  <Genealogy>  (65) 
COc1ccccc1[N-]C(=O)NCc1cccc(-c2cccc(S([NH-])(=O)=O)c2)c1 (protonated)
COc1ccccc1[N-]C(=O)NCc1cccc(-c2cccc(S([NH-])(=O)=O)c2)c1 (3D coordinates assigned)
COc1ccccc1[N-]C(=O)NCc1cccc(-c2cccc(S([NH-])(=O)=O)c2)c1 (optimized conformer: 55.45278488196946 kcal/mol)

>  <smiles>  (65) 
COc1ccccc1NC(=O)NCc1cccc(-c2cccc(S(N)(=O)=O)c2)c1

>  <score_type>  (65) 
oracle

>  <origin>  (65) 
adg

>  <m_score__min__energy>  (65) 
-13

>  <m_primary>  (65) 
energy

$$$$
65:0
     RDKit          3D

 64 68  0  0  0  0  0  0  0  0999 V2000
   57.8140   25.4300   46.8410 O   0  0  0  0  0  0  0  0  0  0  0  0
   58.4040   26.4950   46.4980 C   0  0  0  0  0  0  0  0  0  0  0  0
   59.8190   26.6290   46.6630 N   0  0  0  0  0  0  0  0  0  0  0  0
   60.4640   26.8840   47.9440 C   0  0  0  0  0  0  0  0  0  0  0  0
   59.7360   28.0100   48.6800 C   0  0  0  0  0  0  0  0  0  0  0  0
   60.7330   29.0220   49.2600 C   0  0  0  0  0  0  0  0  0  0  0  0
   60.0200   30.0670   50.0820 C   0  0  0  0  0  0  0  0  0  0  0  0
   58.6130   30.1250   50.0990 C   0  0  0  0  0  0  0  0  0  0  0  0
   57.9570   31.0990   50.8620 C   0  0  0  0  0  0  0  0  0  0  0  0
   58.6970   32.0280   51.6040 C   0  0  0  0  0  0  0  0  0  0  0  0
   60.0970   31.9780   51.5870 C   0  0  0  0  0  0  0  0  0  0  0  0
   60.7580   31.0100   50.8240 C   0  0  0  0  0  0  0  0  0  0  0  0
   57.6310   27.6140   45.9470 C   0  0  0  0  0  0  0  0  0  0  0  0
   56.2770   27.6140   45.6190 C   0  0  0  0  0  0  0  0  0  0  0  0
   55.4370   26.5070   45.7110 O   0  0  0  0  0  0  0  0  0  0  0  0
   55.8520   28.8250   45.1920 N   0  0  0  0  0  0  0  0  0  0  0  0
   56.9550   29.5990   45.2630 C   0  0  0  0  0  0  0  0  0  0  0  0
   57.0190   30.9670   45.0050 C   0  0  0  0  0  0  0  0  0  0  0  0
   58.2420   31.6320   45.2390 C   0  0  0  0  0  0  0  0  0  0  0  0
   58.3110   33.3810   45.0500 S   0  0  0  0  0  0  0  0  0  0  0  0
   57.2340   33.8080   44.0910 O   0  0  0  0  0  0  0  0  0  0  0  0
   59.6530   33.7820   44.5010 O   0  0  0  0  0  0  0  0  0  0  0  0
   58.0480   34.1070   46.6220 N   0  0  0  0  0  0  0  0  0  0  0  0
   58.1030   33.1070   47.7030 C   0  0  0  0  0  0  0  0  0  0  0  0
   59.5030   32.7920   48.1630 C   0  0  0  0  0  0  0  0  0  0  0  0
   60.5420   33.6300   47.9790 C   0  0  0  0  0  0  0  0  0  0  0  0
   61.8670   33.3260   48.5840 C   0  0  0  0  0  0  0  0  0  0  0  0
   62.7030   32.3430   48.0220 C   0  0  0  0  0  0  0  0  0  0  0  0
   63.9530   32.0730   48.5840 C   0  0  0  0  0  0  0  0  0  0  0  0
   64.3890   32.7750   49.7100 C   0  0  0  0  0  0  0  0  0  0  0  0
   63.5720   33.7590   50.2740 C   0  0  0  0  0  0  0  0  0  0  0  0
   62.3200   34.0360   49.7140 C   0  0  0  0  0  0  0  0  0  0  0  0
   60.4000   34.8320   47.0740 C   0  0  0  0  0  0  0  0  0  0  0  0
   58.9380   35.2550   46.8820 C   0  0  0  0  0  0  0  0  0  0  0  0
   59.3700   30.9080   45.7050 C   0  0  0  0  0  0  0  0  0  0  0  0
   59.2810   29.5270   45.9490 C   0  0  0  0  0  0  0  0  0  0  0  0
   58.0540   28.9020   45.7130 C   0  0  0  0  0  0  0  0  0  0  0  0
   60.4343   25.9700   48.5554 H   0  0  0  0  0  0  0  0  0  0  0  0
   61.5085   27.1819   47.7699 H   0  0  0  0  0  0  0  0  0  0  0  0
   59.0674   28.5268   47.9758 H   0  0  0  0  0  0  0  0  0  0  0  0
   59.1592   27.5721   49.5080 H   0  0  0  0  0  0  0  0  0  0  0  0
   61.4546   28.4916   49.8987 H   0  0  0  0  0  0  0  0  0  0  0  0
   61.2517   29.5215   48.4285 H   0  0  0  0  0  0  0  0  0  0  0  0
   58.0274   29.4029   49.5111 H   0  0  0  0  0  0  0  0  0  0  0  0
   56.8577   31.1344   50.8785 H   0  0  0  0  0  0  0  0  0  0  0  0
   58.1801   32.7954   52.1989 H   0  0  0  0  0  0  0  0  0  0  0  0
   60.6784   32.7027   52.1759 H   0  0  0  0  0  0  0  0  0  0  0  0
   61.8575   30.9849   50.8032 H   0  0  0  0  0  0  0  0  0  0  0  0
   55.8120   25.5950   45.9420 H   0  0  0  0  0  0  0  0  0  0  0  0
   56.1411   31.5133   44.6296 H   0  0  0  0  0  0  0  0  0  0  0  0
   57.5331   33.4915   48.5617 H   0  0  0  0  0  0  0  0  0  0  0  0
   57.6779   32.1750   47.3021 H   0  0  0  0  0  0  0  0  0  0  0  0
   59.6851   31.8341   48.6723 H   0  0  0  0  0  0  0  0  0  0  0  0
   62.3701   31.7841   47.1350 H   0  0  0  0  0  0  0  0  0  0  0  0
   64.5982   31.3025   48.1368 H   0  0  0  0  0  0  0  0  0  0  0  0
   65.3720   32.5543   50.1515 H   0  0  0  0  0  0  0  0  0  0  0  0
   63.9136   34.3161   51.1588 H   0  0  0  0  0  0  0  0  0  0  0  0
   61.6837   34.8148   50.1597 H   0  0  0  0  0  0  0  0  0  0  0  0
   60.9553   35.6729   47.5151 H   0  0  0  0  0  0  0  0  0  0  0  0
   60.7998   34.5557   46.0872 H   0  0  0  0  0  0  0  0  0  0  0  0
   58.5962   35.7672   47.7935 H   0  0  0  0  0  0  0  0  0  0  0  0
   58.8938   35.9180   46.0053 H   0  0  0  0  0  0  0  0  0  0  0  0
   60.3218   31.4321   45.8766 H   0  0  0  0  0  0  0  0  0  0  0  0
   60.1484   28.9571   46.3136 H   0  0  0  0  0  0  0  0  0  0  0  0
  1  2  2  0
  2  3  1  0
  3  4  1  0
  4  5  1  0
  5  6  1  0
  6  7  1  0
  7  8  2  0
  8  9  1  0
  9 10  2  0
 10 11  1  0
 11 12  2  0
  2 13  1  0
 13 14  2  0
 14 15  1  0
 14 16  1  0
 16 17  1  0
 17 18  2  0
 18 19  1  0
 19 20  1  0
 20 21  2  0
 20 22  2  0
 20 23  1  0
 23 24  1  0
 24 25  1  0
 25 26  2  0
 26 27  1  0
 27 28  2  0
 28 29  1  0
 29 30  2  0
 30 31  1  0
 31 32  2  0
 26 33  1  0
 33 34  1  0
 19 35  2  0
 35 36  1  0
 36 37  2  0
 12  7  1  0
 37 13  1  0
 37 17  1  0
 34 23  1  0
 32 27  1  0
  4 38  1  0
  4 39  1  0
  5 40  1  0
  5 41  1  0
  6 42  1  0
  6 43  1  0
  8 44  1  0
  9 45  1  0
 10 46  1  0
 11 47  1  0
 12 48  1  0
 15 49  1  0
 18 50  1  0
 24 51  1  0
 24 52  1  0
 25 53  1  0
 28 54  1  0
 29 55  1  0
 30 56  1  0
 31 57  1  0
 32 58  1  0
 33 59  1  0
 33 60  1  0
 34 61  1  0
 34 62  1  0
 35 63  1  0
 36 64  1  0
M  CHG  2   3  -1  16  -1
M  END
>  <UniqueID>  (66) 
64

>  <SMILES>  (66) 
O=C([N-]CCCc1ccccc1)c1c(O)[n-]c2cc(S(=O)(=O)N3CC=C(c4ccccc4)CC3)ccc12

>  <Energy>  (66) 
107.93804653596716

>  <Genealogy>  (66) 
O=C([N-]CCCc1ccccc1)c1c(O)[n-]c2cc(S(=O)(=O)N3CC=C(c4ccccc4)CC3)ccc12 (protonated)
O=C([N-]CCCc1ccccc1)c1c(O)[n-]c2cc(S(=O)(=O)N3CC=C(c4ccccc4)CC3)ccc12 (3D coordinates assigned)
O=C([N-]CCCc1ccccc1)c1c(O)[n-]c2cc(S(=O)(=O)N3CC=C(c4ccccc4)CC3)ccc12 (nonaromatic ring conformer: 107.93804653596716 kcal/mol)

>  <smiles>  (66) 
O=C(NCCCc1ccccc1)c1c(O)[nH]c2cc(S(=O)(=O)N3CC=C(c4ccccc4)CC3)ccc12

>  <score_type>  (66) 
oracle

>  <origin>  (66) 
adg

>  <m_score__min__energy>  (66) 
-13.619999999999999

>  <m_primary>  (66) 
energy

$$$$
66:0
     RDKit          3D

 49 51  0  0  0  0  0  0  0  0999 V2000
   58.7750   29.2655   43.6114 H   0  0  0  0  0  0  0  0  0  0  0  0
   58.7230   30.2390   44.1210 C   0  0  0  0  0  0  0  0  0  0  0  0
   58.7881   31.1693   43.5377 H   0  0  0  0  0  0  0  0  0  0  0  0
   58.5790   30.2920   45.4640 C   0  0  0  0  0  0  0  0  0  0  0  0
   58.5100   31.5590   46.1390 C   0  0  0  0  0  0  0  0  0  0  0  0
   58.2960   32.8850   45.3830 C   0  0  0  0  0  0  0  0  0  0  0  0
   58.2426   32.6086   44.3196 H   0  0  0  0  0  0  0  0  0  0  0  0
   59.4580   33.8890   45.4870 C   0  0  0  0  0  0  0  0  0  0  0  0
   59.6818   34.0824   46.5465 H   0  0  0  0  0  0  0  0  0  0  0  0
   60.3485   33.4715   44.9944 H   0  0  0  0  0  0  0  0  0  0  0  0
   59.1741   34.8307   44.9944 H   0  0  0  0  0  0  0  0  0  0  0  0
   56.9920   33.5460   45.8440 C   0  0  0  0  0  0  0  0  0  0  0  0
   56.9583   33.5631   46.9434 H   0  0  0  0  0  0  0  0  0  0  0  0
   56.9471   34.5757   45.4597 H   0  0  0  0  0  0  0  0  0  0  0  0
   56.1349   32.9735   45.4597 H   0  0  0  0  0  0  0  0  0  0  0  0
   58.5980   31.5780   47.5480 C   0  0  0  0  0  0  0  0  0  0  0  0
   58.4788   32.5339   48.0792 H   0  0  0  0  0  0  0  0  0  0  0  0
   58.8320   30.4170   48.2840 C   0  0  0  0  0  0  0  0  0  0  0  0
   59.0110   30.4900   49.7540 C   0  0  0  0  0  0  0  0  0  0  0  0
   58.2480   29.8210   50.5020 O   0  0  0  0  0  0  0  0  0  0  0  0
   60.0330   31.3150   50.3460 N   0  0  0  0  0  0  0  0  0  0  0  0
   61.4470   30.9500   50.2360 C   0  0  0  0  0  0  0  0  0  0  0  0
   61.5480   30.0959   49.5502 H   0  0  0  0  0  0  0  0  0  0  0  0
   61.8237   30.6818   51.2341 H   0  0  0  0  0  0  0  0  0  0  0  0
   62.2500   32.1060   49.7080 C   0  0  0  0  0  0  0  0  0  0  0  0
   63.4050   31.8850   49.2500 O   0  0  0  0  0  0  0  0  0  0  0  0
   61.7470   33.4570   49.7890 N   0  0  0  0  0  0  0  0  0  0  0  0
   62.6120   34.5700   49.3890 C   0  0  0  0  0  0  0  0  0  0  0  0
   63.0022   35.0721   50.2866 H   0  0  0  0  0  0  0  0  0  0  0  0
   63.4508   34.1856   48.7901 H   0  0  0  0  0  0  0  0  0  0  0  0
   62.0324   35.2879   48.7901 H   0  0  0  0  0  0  0  0  0  0  0  0
   60.3270   33.7180   50.0690 C   0  0  0  0  0  0  0  0  0  0  0  0
   59.7796   33.7723   49.1164 H   0  0  0  0  0  0  0  0  0  0  0  0
   60.2540   34.6678   50.6191 H   0  0  0  0  0  0  0  0  0  0  0  0
   59.7120   32.6180   50.9320 C   0  0  0  0  0  0  0  0  0  0  0  0
   58.6202   32.7463   50.9697 H   0  0  0  0  0  0  0  0  0  0  0  0
   60.1184   32.6762   51.9525 H   0  0  0  0  0  0  0  0  0  0  0  0
   58.8760   29.1880   47.6260 C   0  0  0  0  0  0  0  0  0  0  0  0
   59.1113   28.2787   48.1986 H   0  0  0  0  0  0  0  0  0  0  0  0
   58.6260   29.0870   46.2470 C   0  0  0  0  0  0  0  0  0  0  0  0
   58.4110   27.8330   45.7670 C   0  0  0  0  0  0  0  0  0  0  0  0
   59.2103   27.3853   45.1581 H   0  0  0  0  0  0  0  0  0  0  0  0
   57.1990   27.0190   45.9910 C   0  0  0  0  0  0  0  0  0  0  0  0
   57.1930   25.7480   46.4340 N   0  0  0  0  0  0  0  0  0  0  0  0
   55.8900   25.4010   46.3720 C   0  0  0  0  0  0  0  0  0  0  0  0
   55.4730   24.2660   46.7220 O   0  0  0  0  0  0  0  0  0  0  0  0
   55.0700   26.3620   45.8960 N   0  0  0  0  0  0  0  0  0  0  0  0
   55.9170   27.3740   45.6480 C   0  0  0  0  0  0  0  0  0  0  0  0
   55.5250   28.5970   45.1200 O   0  0  0  0  0  0  0  0  0  0  0  0
  1  2  1  0
  2  3  1  0
  2  4  2  0
  4  5  1  0
  5  6  1  0
  6  7  1  0
  6  8  1  0
  8  9  1  0
  8 10  1  0
  8 11  1  0
  6 12  1  0
 12 13  1  0
 12 14  1  0
 12 15  1  0
  5 16  2  0
 16 17  1  0
 16 18  1  0
 18 19  1  0
 19 20  2  0
 19 21  1  0
 21 22  1  0
 22 23  1  0
 22 24  1  0
 22 25  1  0
 25 26  2  0
 25 27  1  0
 27 28  1  0
 28 29  1  0
 28 30  1  0
 28 31  1  0
 27 32  1  0
 32 33  1  0
 32 34  1  0
 32 35  1  0
 35 36  1  0
 35 37  1  0
 18 38  2  0
 38 39  1  0
 38 40  1  0
 40 41  2  0
 41 42  1  0
 41 43  1  0
 43 44  1  0
 44 45  1  0
 45 46  2  0
 45 47  1  0
 47 48  1  0
 48 49  1  0
 40  4  1  0
 48 43  2  0
 35 21  1  0
M  CHG  3  44  -1  47  -1  49  -1
M  END
>  <UniqueID>  (67) 
65

>  <SMILES>  (67) 
C=c1c(C(C)C)cc(C(=O)N2CCN(C)C(=O)C2)c/c1=C/c1[n-]c(=O)[n-]c1[O-]

>  <Energy>  (67) 
109.80467300321465

>  <Genealogy>  (67) 
C=c1c(C(C)C)cc(C(=O)N2CCN(C)C(=O)C2)cc1=Cc1[n-]c(=O)[n-]c1[O-] (protonated)
C=c1c(C(C)C)cc(C(=O)N2CCN(C)C(=O)C2)c/c1=C/c1[n-]c(=O)[n-]c1[O-] (cis-trans isomerization)
C=c1c(C(C)C)cc(C(=O)N2CCN(C)C(=O)C2)c/c1=C/c1[n-]c(=O)[n-]c1[O-] (3D coordinates assigned)
C=c1c(C(C)C)cc(C(=O)N2CCN(C)C(=O)C2)c/c1=C/c1[n-]c(=O)[n-]c1[O-] (nonaromatic ring conformer: 109.80467300321465 kcal/mol)

>  <smiles>  (67) 
C=c1c(C(C)C)cc(C(=O)N2CCN(C)C(=O)C2)cc1=Cc1[nH]c(=O)[nH]c1O

>  <score_type>  (67) 
oracle

>  <origin>  (67) 
adg

>  <m_score__min__energy>  (67) 
-15.85

>  <m_primary>  (67) 
energy

$$$$
67:0
     RDKit          3D

 38 39  0  0  0  0  0  0  0  0999 V2000
   58.0800   33.0320   43.9050 O   0  0  0  0  0  0  0  0  0  0  0  0
   57.4840   32.1000   44.5120 C   0  0  0  0  0  0  0  0  0  0  0  0
   56.9610   30.9280   43.7430 C   0  0  0  0  0  0  0  0  0  0  0  0
   57.4330   29.6450   44.3780 C   0  0  0  0  0  0  0  0  0  0  0  0
   58.8120   29.3840   44.4800 C   0  0  0  0  0  0  0  0  0  0  0  0
   59.2660   28.2210   45.1080 C   0  0  0  0  0  0  0  0  0  0  0  0
   58.3510   27.3150   45.6530 C   0  0  0  0  0  0  0  0  0  0  0  0
   56.9790   27.5710   45.5690 C   0  0  0  0  0  0  0  0  0  0  0  0
   56.5160   28.7300   44.9360 C   0  0  0  0  0  0  0  0  0  0  0  0
   55.1450   28.9650   44.8620 O   0  0  0  0  0  0  0  0  0  0  0  0
   57.3560   32.1270   45.9370 N   0  0  0  0  0  0  0  0  0  0  0  0
   57.3700   33.3550   46.7240 C   0  0  0  0  0  0  0  0  0  0  0  0
   58.7640   33.8960   46.8220 C   0  0  0  0  0  0  0  0  0  0  0  0
   59.0030   34.8630   47.5950 O   0  0  0  0  0  0  0  0  0  0  0  0
   59.8190   33.3030   46.0510 N   0  0  0  0  0  0  0  0  0  0  0  0
   61.1680   33.8620   46.0010 C   0  0  0  0  0  0  0  0  0  0  0  0
   62.0290   33.2040   47.0420 C   0  0  0  0  0  0  0  0  0  0  0  0
   63.3070   33.7140   47.3380 C   0  0  0  0  0  0  0  0  0  0  0  0
   64.1190   33.0720   48.2800 C   0  0  0  0  0  0  0  0  0  0  0  0
   63.6650   31.9190   48.9280 C   0  0  0  0  0  0  0  0  0  0  0  0
   62.4040   31.3950   48.6250 C   0  0  0  0  0  0  0  0  0  0  0  0
   61.5880   32.0320   47.6840 C   0  0  0  0  0  0  0  0  0  0  0  0
   55.8613   30.9524   43.7443 H   0  0  0  0  0  0  0  0  0  0  0  0
   57.3331   30.9784   42.7091 H   0  0  0  0  0  0  0  0  0  0  0  0
   59.5365   30.0992   44.0632 H   0  0  0  0  0  0  0  0  0  0  0  0
   60.3451   28.0180   45.1737 H   0  0  0  0  0  0  0  0  0  0  0  0
   58.7106   26.4008   46.1479 H   0  0  0  0  0  0  0  0  0  0  0  0
   56.2611   26.8589   46.0020 H   0  0  0  0  0  0  0  0  0  0  0  0
   56.7240   34.1028   46.2407 H   0  0  0  0  0  0  0  0  0  0  0  0
   57.0005   33.1346   47.7364 H   0  0  0  0  0  0  0  0  0  0  0  0
   59.5870   32.5170   45.4040 H   0  0  0  0  0  0  0  0  0  0  0  0
   61.5999   33.6857   45.0048 H   0  0  0  0  0  0  0  0  0  0  0  0
   61.1213   34.9432   46.1979 H   0  0  0  0  0  0  0  0  0  0  0  0
   63.6684   34.6191   46.8279 H   0  0  0  0  0  0  0  0  0  0  0  0
   65.1161   33.4751   48.5110 H   0  0  0  0  0  0  0  0  0  0  0  0
   64.3003   31.4235   49.6769 H   0  0  0  0  0  0  0  0  0  0  0  0
   62.0536   30.4812   49.1271 H   0  0  0  0  0  0  0  0  0  0  0  0
   60.5984   31.6153   47.4451 H   0  0  0  0  0  0  0  0  0  0  0  0
  1  2  2  0
  2  3  1  0
  3  4  1  0
  4  5  2  0
  5  6  1  0
  6  7  2  0
  7  8  1  0
  8  9  2  0
  9 10  1  0
  2 11  1  0
 11 12  1  0
 12 13  1  0
 13 14  2  0
 13 15  1  0
 15 16  1  0
 16 17  1  0
 17 18  2  0
 18 19  1  0
 19 20  2  0
 20 21  1  0
 21 22  2  0
  9  4  1  0
 22 17  1  0
  3 23  1  0
  3 24  1  0
  5 25  1  0
  6 26  1  0
  7 27  1  0
  8 28  1  0
 12 29  1  0
 12 30  1  0
 15 31  1  0
 16 32  1  0
 16 33  1  0
 18 34  1  0
 19 35  1  0
 20 36  1  0
 21 37  1  0
 22 38  1  0
M  CHG  2  10  -1  11  -1
M  END
>  <UniqueID>  (68) 
66

>  <SMILES>  (68) 
O=C(Cc1ccccc1[O-])[N-]CC(=O)NCc1ccccc1

>  <Energy>  (68) 
31.724752461578667

>  <Genealogy>  (68) 
O=C(Cc1ccccc1[O-])[N-]CC(=O)NCc1ccccc1 (protonated)
O=C(Cc1ccccc1[O-])[N-]CC(=O)NCc1ccccc1 (3D coordinates assigned)
O=C(Cc1ccccc1[O-])[N-]CC(=O)NCc1ccccc1 (optimized conformer: 31.724752461578667 kcal/mol)

>  <smiles>  (68) 
O=C(CNC(=O)Cc1ccccc1O)NCc1ccccc1

>  <score_type>  (68) 
oracle

>  <origin>  (68) 
adg

>  <m_score__min__energy>  (68) 
-12.880000000000001

>  <m_primary>  (68) 
energy

$$$$
68:0
     RDKit          3D

 44 46  0  0  0  0  0  0  0  0999 V2000
   59.5160   32.7040   50.4850 C   0  0  0  0  0  0  0  0  0  0  0  0
   59.0990   32.8660   49.0190 C   0  0  0  0  0  0  0  0  0  0  0  0
   59.6640   31.7140   48.1490 C   0  0  0  0  0  0  0  0  0  0  0  0
   59.9630   32.1290   46.6970 C   0  0  0  0  0  0  0  0  0  0  0  0
   59.0760   33.2160   46.2580 N   0  0  0  0  0  0  0  0  0  0  0  0
   58.4980   33.1970   44.9410 C   0  0  0  0  0  0  0  0  0  0  0  0
   58.5590   34.2320   44.2230 O   0  0  0  0  0  0  0  0  0  0  0  0
   57.8160   31.9900   44.4180 C   0  0  0  0  0  0  0  0  0  0  0  0
   57.3940   31.9340   43.0790 C   0  0  0  0  0  0  0  0  0  0  0  0
   56.7680   30.7870   42.5850 C   0  0  0  0  0  0  0  0  0  0  0  0
   56.5510   29.6900   43.4210 C   0  0  0  0  0  0  0  0  0  0  0  0
   56.9530   29.7330   44.7620 C   0  0  0  0  0  0  0  0  0  0  0  0
   56.7120   28.5880   45.5930 N   0  0  0  0  0  0  0  0  0  0  0  0
   57.6690   27.5790   45.9430 C   0  0  0  0  0  0  0  0  0  0  0  0
   58.8940   27.8330   45.8000 O   0  0  0  0  0  0  0  0  0  0  0  0
   57.2580   26.2350   46.4200 C   0  0  0  0  0  0  0  0  0  0  0  0
   55.9080   25.8360   46.4110 C   0  0  0  0  0  0  0  0  0  0  0  0
   54.9210   26.6820   45.9150 O   0  0  0  0  0  0  0  0  0  0  0  0
   55.5620   24.6060   46.8740 N   0  0  0  0  0  0  0  0  0  0  0  0
   56.4980   23.7400   47.3370 C   0  0  0  0  0  0  0  0  0  0  0  0
   56.1510   22.6080   47.7610 O   0  0  0  0  0  0  0  0  0  0  0  0
   57.8080   24.0920   47.3390 N   0  0  0  0  0  0  0  0  0  0  0  0
   58.2090   25.3100   46.8920 C   0  0  0  0  0  0  0  0  0  0  0  0
   59.4340   25.6030   46.9210 O   0  0  0  0  0  0  0  0  0  0  0  0
   57.6130   30.8750   45.2480 C   0  0  0  0  0  0  0  0  0  0  0  0
   58.9750   34.4430   47.0600 C   0  0  0  0  0  0  0  0  0  0  0  0
   59.5280   34.2410   48.4790 C   0  0  0  0  0  0  0  0  0  0  0  0
   58.6911   33.0245   51.1384 H   0  0  0  0  0  0  0  0  0  0  0  0
   59.7528   31.6485   50.6844 H   0  0  0  0  0  0  0  0  0  0  0  0
   60.4033   33.3228   50.6844 H   0  0  0  0  0  0  0  0  0  0  0  0
   58.0016   32.8120   48.9660 H   0  0  0  0  0  0  0  0  0  0  0  0
   60.5977   31.3570   48.6081 H   0  0  0  0  0  0  0  0  0  0  0  0
   58.8922   30.9313   48.1087 H   0  0  0  0  0  0  0  0  0  0  0  0
   61.0069   32.4691   46.6294 H   0  0  0  0  0  0  0  0  0  0  0  0
   59.7939   31.2588   46.0457 H   0  0  0  0  0  0  0  0  0  0  0  0
   57.5572   32.7971   42.4168 H   0  0  0  0  0  0  0  0  0  0  0  0
   56.4451   30.7480   41.5342 H   0  0  0  0  0  0  0  0  0  0  0  0
   56.0621   28.7878   43.0247 H   0  0  0  0  0  0  0  0  0  0  0  0
   55.1470   27.6180   45.5990 H   0  0  0  0  0  0  0  0  0  0  0  0
   57.9736   30.8957   46.2870 H   0  0  0  0  0  0  0  0  0  0  0  0
   59.5474   35.2410   46.5645 H   0  0  0  0  0  0  0  0  0  0  0  0
   57.9118   34.7131   47.1414 H   0  0  0  0  0  0  0  0  0  0  0  0
   60.6263   34.2960   48.4534 H   0  0  0  0  0  0  0  0  0  0  0  0
   59.1308   35.0278   49.1372 H   0  0  0  0  0  0  0  0  0  0  0  0
  1  2  1  0
  2  3  1  0
  3  4  1  0
  4  5  1  0
  5  6  1  0
  6  7  2  0
  6  8  1  0
  8  9  2  0
  9 10  1  0
 10 11  2  0
 11 12  1  0
 12 13  1  0
 13 14  1  0
 14 15  2  0
 14 16  1  0
 16 17  2  0
 17 18  1  0
 17 19  1  0
 19 20  1  0
 20 21  2  0
 20 22  1  0
 22 23  1  0
 23 24  2  0
 12 25  2  0
  5 26  1  0
 26 27  1  0
 27  2  1  0
 25  8  1  0
 23 16  1  0
  1 28  1  0
  1 29  1  0
  1 30  1  0
  2 31  1  0
  3 32  1  0
  3 33  1  0
  4 34  1  0
  4 35  1  0
  9 36  1  0
 10 37  1  0
 11 38  1  0
 18 39  1  0
 25 40  1  0
 26 41  1  0
 26 42  1  0
 27 43  1  0
 27 44  1  0
M  CHG  3  13  -1  19  -1  22  -1
M  END
>  <UniqueID>  (69) 
67

>  <SMILES>  (69) 
CC1CCN(C(=O)c2cccc([N-]C(=O)c3c(O)[n-]c(=O)[n-]c3=O)c2)CC1

>  <Energy>  (69) 
59.25321280249396

>  <Genealogy>  (69) 
CC1CCN(C(=O)c2cccc([N-]C(=O)c3c(O)[n-]c(=O)[n-]c3=O)c2)CC1 (protonated)
CC1CCN(C(=O)c2cccc([N-]C(=O)c3c(O)[n-]c(=O)[n-]c3=O)c2)CC1 (3D coordinates assigned)
CC1CCN(C(=O)c2cccc([N-]C(=O)c3c(O)[n-]c(=O)[n-]c3=O)c2)CC1 (nonaromatic ring conformer: 59.25321280249396 kcal/mol)

>  <smiles>  (69) 
CC1CCN(C(=O)c2cccc(NC(=O)c3c(O)[nH]c(=O)[nH]c3=O)c2)CC1

>  <score_type>  (69) 
oracle

>  <origin>  (69) 
adg

>  <m_score__min__energy>  (69) 
-14.65

>  <m_primary>  (69) 
energy

$$$$
69:0
     RDKit          3D

 57 60  0  0  0  0  0  0  0  0999 V2000
   55.2710   28.9640   44.6340 O   0  0  0  0  0  0  0  0  0  0  0  0
   56.3910   29.3270   45.0810 C   0  0  0  0  0  0  0  0  0  0  0  0
   57.4370   28.2820   45.3480 C   0  0  0  0  0  0  0  0  0  0  0  0
   56.8150   26.9440   45.6200 C   0  0  0  0  0  0  0  0  0  0  0  0
   55.4850   26.7410   45.6240 N   0  0  0  0  0  0  0  0  0  0  0  0
   55.3670   25.4350   45.9280 C   0  0  0  0  0  0  0  0  0  0  0  0
   54.2520   24.8590   46.0230 O   0  0  0  0  0  0  0  0  0  0  0  0
   56.5360   24.7940   46.1240 N   0  0  0  0  0  0  0  0  0  0  0  0
   57.4580   25.7560   45.9350 C   0  0  0  0  0  0  0  0  0  0  0  0
   58.9370   25.5150   46.0770 C   0  0  0  0  0  0  0  0  0  0  0  0
   59.5140   26.2440   47.2950 C   0  0  0  0  0  0  0  0  0  0  0  0
   59.8120   27.6890   46.9860 C   0  0  0  0  0  0  0  0  0  0  0  0
   59.4800   28.6890   47.9160 C   0  0  0  0  0  0  0  0  0  0  0  0
   59.7890   30.0260   47.6500 C   0  0  0  0  0  0  0  0  0  0  0  0
   60.4410   30.3690   46.4640 C   0  0  0  0  0  0  0  0  0  0  0  0
   60.7800   29.3790   45.5380 C   0  0  0  0  0  0  0  0  0  0  0  0
   60.4680   28.0420   45.7970 C   0  0  0  0  0  0  0  0  0  0  0  0
   56.6530   30.7330   45.2190 N   0  0  0  0  0  0  0  0  0  0  0  0
   57.2980   31.5930   44.2310 C   0  0  0  0  0  0  0  0  0  0  0  0
   58.0170   32.7350   44.9050 C   0  0  0  0  0  0  0  0  0  0  0  0
   58.6480   33.7210   44.1300 C   0  0  0  0  0  0  0  0  0  0  0  0
   59.2860   34.7990   44.7470 C   0  0  0  0  0  0  0  0  0  0  0  0
   59.3110   34.8960   46.1410 C   0  0  0  0  0  0  0  0  0  0  0  0
   58.7070   33.9080   46.9300 C   0  0  0  0  0  0  0  0  0  0  0  0
   58.7410   34.0430   48.3560 N   0  0  0  0  0  0  0  0  0  0  0  0
   59.8530   33.2150   49.3990 S   0  0  0  0  0  0  0  0  0  0  0  0
   59.3160   31.8750   49.8300 O   0  0  0  0  0  0  0  0  0  0  0  0
   60.0760   34.0470   50.6330 O   0  0  0  0  0  0  0  0  0  0  0  0
   61.3770   32.9820   48.5480 C   0  0  0  0  0  0  0  0  0  0  0  0
   62.2020   31.8840   48.8440 C   0  0  0  0  0  0  0  0  0  0  0  0
   63.4020   31.6990   48.1480 C   0  0  0  0  0  0  0  0  0  0  0  0
   63.7920   32.6130   47.1630 C   0  0  0  0  0  0  0  0  0  0  0  0
   62.9810   33.7160   46.8750 C   0  0  0  0  0  0  0  0  0  0  0  0
   61.7780   33.9030   47.5690 C   0  0  0  0  0  0  0  0  0  0  0  0
   58.0360   32.8420   46.3060 C   0  0  0  0  0  0  0  0  0  0  0  0
   58.0936   28.1998   44.4693 H   0  0  0  0  0  0  0  0  0  0  0  0
   58.0109   28.5847   46.2362 H   0  0  0  0  0  0  0  0  0  0  0  0
   59.1132   24.4352   46.1910 H   0  0  0  0  0  0  0  0  0  0  0  0
   59.4362   25.9022   45.1765 H   0  0  0  0  0  0  0  0  0  0  0  0
   58.7849   26.1977   48.1174 H   0  0  0  0  0  0  0  0  0  0  0  0
   60.4559   25.7508   47.5773 H   0  0  0  0  0  0  0  0  0  0  0  0
   58.9757   28.4189   48.8555 H   0  0  0  0  0  0  0  0  0  0  0  0
   59.5185   30.8078   48.3750 H   0  0  0  0  0  0  0  0  0  0  0  0
   60.6884   31.4209   46.2581 H   0  0  0  0  0  0  0  0  0  0  0  0
   61.2930   29.6526   44.6042 H   0  0  0  0  0  0  0  0  0  0  0  0
   60.7373   27.2643   45.0671 H   0  0  0  0  0  0  0  0  0  0  0  0
   58.0233   30.9998   43.6548 H   0  0  0  0  0  0  0  0  0  0  0  0
   56.5263   32.0057   43.5645 H   0  0  0  0  0  0  0  0  0  0  0  0
   58.6398   33.6441   43.0327 H   0  0  0  0  0  0  0  0  0  0  0  0
   59.7701   35.5738   44.1344 H   0  0  0  0  0  0  0  0  0  0  0  0
   59.8073   35.7522   46.6212 H   0  0  0  0  0  0  0  0  0  0  0  0
   61.9041   31.1683   49.6244 H   0  0  0  0  0  0  0  0  0  0  0  0
   64.0403   30.8326   48.3760 H   0  0  0  0  0  0  0  0  0  0  0  0
   64.7347   32.4646   46.6160 H   0  0  0  0  0  0  0  0  0  0  0  0
   63.2879   34.4371   46.1031 H   0  0  0  0  0  0  0  0  0  0  0  0
   61.1460   34.7751   47.3452 H   0  0  0  0  0  0  0  0  0  0  0  0
   57.5223   32.0864   46.9186 H   0  0  0  0  0  0  0  0  0  0  0  0
  1  2  2  0
  2  3  1  0
  3  4  1  0
  4  5  1  0
  5  6  1  0
  6  7  2  0
  6  8  1  0
  8  9  1  0
  9 10  1  0
 10 11  1  0
 11 12  1  0
 12 13  2  0
 13 14  1  0
 14 15  2  0
 15 16  1  0
 16 17  2  0
  2 18  1  0
 18 19  1  0
 19 20  1  0
 20 21  2  0
 21 22  1  0
 22 23  2  0
 23 24  1  0
 24 25  1  0
 25 26  1  0
 26 27  2  0
 26 28  2  0
 26 29  1  0
 29 30  2  0
 30 31  1  0
 31 32  2  0
 32 33  1  0
 33 34  2  0
 24 35  2  0
  9  4  2  0
 17 12  1  0
 35 20  1  0
 34 29  1  0
  3 36  1  0
  3 37  1  0
 10 38  1  0
 10 39  1  0
 11 40  1  0
 11 41  1  0
 13 42  1  0
 14 43  1  0
 15 44  1  0
 16 45  1  0
 17 46  1  0
 19 47  1  0
 19 48  1  0
 21 49  1  0
 22 50  1  0
 23 51  1  0
 30 52  1  0
 31 53  1  0
 32 54  1  0
 33 55  1  0
 34 56  1  0
 35 57  1  0
M  CHG  4   5  -1   8  -1  18  -1  25  -1
M  END
>  <UniqueID>  (70) 
68

>  <SMILES>  (70) 
O=C(Cc1[n-]c(=O)[n-]c1CCc1ccccc1)[N-]Cc1cccc([N-]S(=O)(=O)c2ccccc2)c1

>  <Energy>  (70) 
86.75743586633573

>  <Genealogy>  (70) 
O=C(Cc1[n-]c(=O)[n-]c1CCc1ccccc1)[N-]Cc1cccc([N-]S(=O)(=O)c2ccccc2)c1 (protonated)
O=C(Cc1[n-]c(=O)[n-]c1CCc1ccccc1)[N-]Cc1cccc([N-]S(=O)(=O)c2ccccc2)c1 (3D coordinates assigned)
O=C(Cc1[n-]c(=O)[n-]c1CCc1ccccc1)[N-]Cc1cccc([N-]S(=O)(=O)c2ccccc2)c1 (optimized conformer: 86.75743586633573 kcal/mol)

>  <smiles>  (70) 
O=C(Cc1[nH]c(=O)[nH]c1CCc1ccccc1)NCc1cccc(NS(=O)(=O)c2ccccc2)c1

>  <score_type>  (70) 
oracle

>  <origin>  (70) 
adg

>  <m_score__min__energy>  (70) 
-16.609999999999999

>  <m_primary>  (70) 
energy

$$$$
70:0
     RDKit          3D

 41 43  0  0  0  0  0  0  0  0999 V2000
   58.8325   24.7005   47.4387 H   0  0  0  0  0  0  0  0  0  0  0  0
   58.3710   25.0380   46.4990 C   0  0  0  0  0  0  0  0  0  0  0  0
   58.0840   24.1050   45.5800 C   0  0  0  0  0  0  0  0  0  0  0  0
   56.5590   24.1830   44.6260 S   0  0  0  0  0  0  0  0  0  0  0  0
   57.0330   22.6290   43.8610 C   0  0  0  0  0  0  0  0  0  0  0  0
   56.2860   22.0230   43.0520 O   0  0  0  0  0  0  0  0  0  0  0  0
   58.3050   22.1190   44.2300 N   0  0  0  0  0  0  0  0  0  0  0  0
   58.7340   21.2490   43.8400 H   0  0  0  0  0  0  0  0  0  0  0  0
   58.9190   22.9620   45.1850 C   0  0  0  0  0  0  0  0  0  0  0  0
   60.0940   22.7590   45.5910 O   0  0  0  0  0  0  0  0  0  0  0  0
   58.1150   26.4830   46.3460 C   0  0  0  0  0  0  0  0  0  0  0  0
   56.9610   26.9460   45.6960 C   0  0  0  0  0  0  0  0  0  0  0  0
   56.2184   26.2239   45.3257 H   0  0  0  0  0  0  0  0  0  0  0  0
   56.7450   28.3140   45.5140 C   0  0  0  0  0  0  0  0  0  0  0  0
   55.5660   28.7200   44.8700 O   0  0  0  0  0  0  0  0  0  0  0  0
   55.5060   29.7050   43.8440 C   0  0  0  0  0  0  0  0  0  0  0  0
   55.4451   30.7048   44.2987 H   0  0  0  0  0  0  0  0  0  0  0  0
   56.4098   29.6403   43.2203 H   0  0  0  0  0  0  0  0  0  0  0  0
   54.6168   29.5311   43.2203 H   0  0  0  0  0  0  0  0  0  0  0  0
   57.7080   29.2320   45.9740 C   0  0  0  0  0  0  0  0  0  0  0  0
   57.5385   30.3110   45.8435 H   0  0  0  0  0  0  0  0  0  0  0  0
   58.8850   28.7820   46.5990 C   0  0  0  0  0  0  0  0  0  0  0  0
   59.9060   29.7520   47.0690 C   0  0  0  0  0  0  0  0  0  0  0  0
   60.1820   30.9160   46.3280 C   0  0  0  0  0  0  0  0  0  0  0  0
   59.6373   31.1090   45.3920 H   0  0  0  0  0  0  0  0  0  0  0  0
   61.1430   31.8290   46.7720 C   0  0  0  0  0  0  0  0  0  0  0  0
   61.3461   32.7385   46.1876 H   0  0  0  0  0  0  0  0  0  0  0  0
   61.8480   31.5900   47.9580 C   0  0  0  0  0  0  0  0  0  0  0  0
   63.0460   32.7490   48.5250 S   0  0  0  0  0  0  0  0  0  0  0  0
   64.0430   32.0570   49.4120 O   0  0  0  0  0  0  0  0  0  0  0  0
   63.7750   33.3430   47.3530 O   0  0  0  0  0  0  0  0  0  0  0  0
   62.2330   34.0400   49.4370 C   0  0  0  0  0  0  0  0  0  0  0  0
   62.3489   33.8560   50.5153 H   0  0  0  0  0  0  0  0  0  0  0  0
   62.6835   35.0101   49.1800 H   0  0  0  0  0  0  0  0  0  0  0  0
   61.1635   34.0528   49.1800 H   0  0  0  0  0  0  0  0  0  0  0  0
   61.5740   30.4380   48.7050 C   0  0  0  0  0  0  0  0  0  0  0  0
   62.1182   30.2512   49.6425 H   0  0  0  0  0  0  0  0  0  0  0  0
   60.6120   29.5240   48.2650 C   0  0  0  0  0  0  0  0  0  0  0  0
   60.4055   28.6205   48.8575 H   0  0  0  0  0  0  0  0  0  0  0  0
   59.0830   27.4010   46.7700 C   0  0  0  0  0  0  0  0  0  0  0  0
   60.0080   27.0379   47.2418 H   0  0  0  0  0  0  0  0  0  0  0  0
  1  2  1  0
  2  3  2  0
  3  4  1  0
  4  5  1  0
  5  6  2  0
  5  7  1  0
  7  8  1  0
  7  9  1  0
  9 10  2  0
  2 11  1  0
 11 12  2  0
 12 13  1  0
 12 14  1  0
 14 15  1  0
 15 16  1  0
 16 17  1  0
 16 18  1  0
 16 19  1  0
 14 20  2  0
 20 21  1  0
 20 22  1  0
 22 23  1  0
 23 24  2  0
 24 25  1  0
 24 26  1  0
 26 27  1  0
 26 28  2  0
 28 29  1  0
 29 30  2  0
 29 31  2  0
 29 32  1  0
 32 33  1  0
 32 34  1  0
 32 35  1  0
 28 36  1  0
 36 37  1  0
 36 38  2  0
 38 39  1  0
 22 40  2  0
 40 41  1  0
  9  3  1  0
 40 11  1  0
 38 23  1  0
M  END
>  <UniqueID>  (71) 
69

>  <SMILES>  (71) 
COc1cc(/C=C2/SC(=O)NC2=O)cc(-c2ccc(S(C)(=O)=O)cc2)c1

>  <Energy>  (71) 
71.45289187899272

>  <Genealogy>  (71) 
COc1cc(/C=C2/SC(=O)NC2=O)cc(-c2ccc(S(C)(=O)=O)cc2)c1 (cis-trans isomerization)
COc1cc(/C=C2/SC(=O)NC2=O)cc(-c2ccc(S(C)(=O)=O)cc2)c1 (3D coordinates assigned)
COc1cc(/C=C2/SC(=O)NC2=O)cc(-c2ccc(S(C)(=O)=O)cc2)c1 (nonaromatic ring conformer: 71.45289187899272 kcal/mol)

>  <smiles>  (71) 
COc1cc(C=C2SC(=O)NC2=O)cc(-c2ccc(S(C)(=O)=O)cc2)c1

>  <score_type>  (71) 
oracle

>  <origin>  (71) 
adg

>  <m_score__min__energy>  (71) 
-8.9600000000000009

>  <m_primary>  (71) 
energy

$$$$
71:0
     RDKit          3D

 30 31  0  0  0  0  0  0  0  0999 V2000
   55.2200   26.7060   46.0250 N   0  0  0  0  0  0  0  0  0  0  0  0
   56.9040   26.9920   45.7630 S   0  0  0  0  0  0  0  0  0  0  0  0
   57.6590   26.7290   47.0350 O   0  0  0  0  0  0  0  0  0  0  0  0
   57.4120   26.0600   44.6990 O   0  0  0  0  0  0  0  0  0  0  0  0
   57.1460   28.6610   45.2600 C   0  0  0  0  0  0  0  0  0  0  0  0
   56.2270   29.2800   44.4020 C   0  0  0  0  0  0  0  0  0  0  0  0
   56.4270   30.6010   43.9900 C   0  0  0  0  0  0  0  0  0  0  0  0
   57.5490   31.3180   44.4340 C   0  0  0  0  0  0  0  0  0  0  0  0
   57.7930   32.7270   43.9600 C   0  0  0  0  0  0  0  0  0  0  0  0
   58.4710   33.5180   44.9910 N   0  0  0  0  0  0  0  0  0  0  0  0
   59.6330   34.3640   44.7580 C   0  0  0  0  0  0  0  0  0  0  0  0
   59.7290   35.2300   46.0230 C   0  0  0  0  0  0  0  0  0  0  0  0
   58.5390   34.9030   46.7960 N   0  0  0  0  0  0  0  0  0  0  0  0
   57.8820   33.9690   46.2030 C   0  0  0  0  0  0  0  0  0  0  0  0
   56.6510   33.4660   46.7260 N   0  0  0  0  0  0  0  0  0  0  0  0
   58.4780   30.6900   45.2770 C   0  0  0  0  0  0  0  0  0  0  0  0
   58.2770   29.3690   45.6890 C   0  0  0  0  0  0  0  0  0  0  0  0
   54.7600   26.7150   45.0880 H   0  0  0  0  0  0  0  0  0  0  0  0
   55.3448   28.7244   44.0513 H   0  0  0  0  0  0  0  0  0  0  0  0
   55.7023   31.0802   43.3153 H   0  0  0  0  0  0  0  0  0  0  0  0
   58.4207   32.6992   43.0571 H   0  0  0  0  0  0  0  0  0  0  0  0
   56.8225   33.1959   43.7403 H   0  0  0  0  0  0  0  0  0  0  0  0
   60.5402   33.7547   44.6327 H   0  0  0  0  0  0  0  0  0  0  0  0
   59.5390   34.9656   43.8419 H   0  0  0  0  0  0  0  0  0  0  0  0
   60.6384   34.9847   46.5912 H   0  0  0  0  0  0  0  0  0  0  0  0
   59.7852   36.3026   45.7856 H   0  0  0  0  0  0  0  0  0  0  0  0
   56.2710   33.8460   47.6210 H   0  0  0  0  0  0  0  0  0  0  0  0
   56.1090   32.7240   46.2340 H   0  0  0  0  0  0  0  0  0  0  0  0
   59.3688   31.2394   45.6155 H   0  0  0  0  0  0  0  0  0  0  0  0
   59.0087   28.8840   46.3518 H   0  0  0  0  0  0  0  0  0  0  0  0
  1  2  1  0
  2  3  2  0
  2  4  2  0
  2  5  1  0
  5  6  2  0
  6  7  1  0
  7  8  2  0
  8  9  1  0
  9 10  1  0
 10 11  1  0
 11 12  1  0
 12 13  1  0
 13 14  2  0
 14 15  1  0
  8 16  1  0
 16 17  2  0
 17  5  1  0
 14 10  1  0
  1 18  1  0
  6 19  1  0
  7 20  1  0
  9 21  1  0
  9 22  1  0
 11 23  1  0
 11 24  1  0
 12 25  1  0
 12 26  1  0
 15 27  1  0
 15 28  1  0
 16 29  1  0
 17 30  1  0
M  CHG  1   1  -1
M  END
>  <UniqueID>  (72) 
70

>  <SMILES>  (72) 
[NH-]S(=O)(=O)c1ccc(CN2CCN=C2N)cc1

>  <Energy>  (72) 
39.48062862952738

>  <Genealogy>  (72) 
[NH-]S(=O)(=O)c1ccc(CN2CCN=C2N)cc1 (protonated)
[NH-]S(=O)(=O)c1ccc(CN2CCN=C2N)cc1 (3D coordinates assigned)
[NH-]S(=O)(=O)c1ccc(CN2CCN=C2N)cc1 (nonaromatic ring conformer: 39.48062862952738 kcal/mol)

>  <smiles>  (72) 
NC1=NCCN1Cc1ccc(S(N)(=O)=O)cc1

>  <score_type>  (72) 
oracle

>  <origin>  (72) 
adg

>  <m_score__min__energy>  (72) 
-9.3399999999999999

>  <m_primary>  (72) 
energy

$$$$
72:0
     RDKit          3D

 49 50  0  0  0  0  0  0  0  0999 V2000
   58.4121   28.5169   43.3290 H   0  0  0  0  0  0  0  0  0  0  0  0
   58.1920   27.6250   43.9340 C   0  0  0  0  0  0  0  0  0  0  0  0
   57.6463   26.7797   43.4894 H   0  0  0  0  0  0  0  0  0  0  0  0
   58.5900   27.5680   45.2170 C   0  0  0  0  0  0  0  0  0  0  0  0
   58.3760   26.4980   46.0940 C   0  0  0  0  0  0  0  0  0  0  0  0
   57.7780   25.3210   45.8190 C   0  0  0  0  0  0  0  0  0  0  0  0
   58.4173   24.4647   45.5582 H   0  0  0  0  0  0  0  0  0  0  0  0
   56.3180   25.1130   45.8470 C   0  0  0  0  0  0  0  0  0  0  0  0
   55.7470   23.8960   45.8570 N   0  0  0  0  0  0  0  0  0  0  0  0
   54.4260   24.1700   45.7940 C   0  0  0  0  0  0  0  0  0  0  0  0
   53.5470   23.2690   45.7950 O   0  0  0  0  0  0  0  0  0  0  0  0
   54.1210   25.4830   45.7180 N   0  0  0  0  0  0  0  0  0  0  0  0
   55.3300   26.0670   45.7400 C   0  0  0  0  0  0  0  0  0  0  0  0
   55.5220   27.4370   45.6150 O   0  0  0  0  0  0  0  0  0  0  0  0
   58.9500   26.8610   47.3020 C   0  0  0  0  0  0  0  0  0  0  0  0
   58.9830   26.2576   48.2211 H   0  0  0  0  0  0  0  0  0  0  0  0
   59.4720   28.1260   47.1280 C   0  0  0  0  0  0  0  0  0  0  0  0
   60.2150   28.8860   48.1850 C   0  0  0  0  0  0  0  0  0  0  0  0
   59.8855   28.5490   49.1789 H   0  0  0  0  0  0  0  0  0  0  0  0
   61.2946   28.7055   48.0759 H   0  0  0  0  0  0  0  0  0  0  0  0
   60.0101   29.9612   48.0759 H   0  0  0  0  0  0  0  0  0  0  0  0
   59.2560   28.5630   45.8650 N   0  0  0  0  0  0  0  0  0  0  0  0
   59.6750   29.8710   45.3400 C   0  0  0  0  0  0  0  0  0  0  0  0
   60.4464   30.2909   46.0023 H   0  0  0  0  0  0  0  0  0  0  0  0
   60.0677   29.7235   44.3231 H   0  0  0  0  0  0  0  0  0  0  0  0
   58.5140   30.8390   45.2630 C   0  0  0  0  0  0  0  0  0  0  0  0
   57.6950   30.8350   46.1720 O   0  0  0  0  0  0  0  0  0  0  0  0
   58.4180   31.8260   44.1930 N   0  0  0  0  0  0  0  0  0  0  0  0
   59.2330   31.6760   43.5530 H   0  0  0  0  0  0  0  0  0  0  0  0
   58.5750   33.2100   44.7480 C   0  0  0  0  0  0  0  0  0  0  0  0
   59.0020   33.8079   43.9293 H   0  0  0  0  0  0  0  0  0  0  0  0
   59.5300   33.2570   45.9600 C   0  0  0  0  0  0  0  0  0  0  0  0
   58.9436   33.2281   46.8902 H   0  0  0  0  0  0  0  0  0  0  0  0
   60.2076   32.3911   45.9267 H   0  0  0  0  0  0  0  0  0  0  0  0
   60.1193   34.1852   45.9267 H   0  0  0  0  0  0  0  0  0  0  0  0
   57.2150   33.7990   45.1900 C   0  0  0  0  0  0  0  0  0  0  0  0
   57.1646   33.8208   46.2886 H   0  0  0  0  0  0  0  0  0  0  0  0
   57.1135   34.8217   44.7979 H   0  0  0  0  0  0  0  0  0  0  0  0
   56.3996   33.1734   44.7979 H   0  0  0  0  0  0  0  0  0  0  0  0
   57.1940   31.6320   43.3440 C   0  0  0  0  0  0  0  0  0  0  0  0
   56.4709   32.3475   43.7625 H   0  0  0  0  0  0  0  0  0  0  0  0
   57.4500   31.9700   41.8650 C   0  0  0  0  0  0  0  0  0  0  0  0
   58.1129   32.8453   41.7983 H   0  0  0  0  0  0  0  0  0  0  0  0
   57.9260   31.1109   41.3696 H   0  0  0  0  0  0  0  0  0  0  0  0
   56.4941   32.1955   41.3696 H   0  0  0  0  0  0  0  0  0  0  0  0
   56.5470   30.2330   43.4530 C   0  0  0  0  0  0  0  0  0  0  0  0
   56.4242   29.9674   44.5134 H   0  0  0  0  0  0  0  0  0  0  0  0
   55.5629   30.2448   42.9616 H   0  0  0  0  0  0  0  0  0  0  0  0
   57.1933   29.4908   42.9616 H   0  0  0  0  0  0  0  0  0  0  0  0
  1  2  1  0
  2  3  1  0
  2  4  2  0
  4  5  1  0
  5  6  2  0
  6  7  1  0
  6  8  1  0
  8  9  1  0
  9 10  1  0
 10 11  2  0
 10 12  1  0
 12 13  1  0
 13 14  1  0
  5 15  1  0
 15 16  1  0
 15 17  2  0
 17 18  1  0
 18 19  1  0
 18 20  1  0
 18 21  1  0
 17 22  1  0
 22 23  1  0
 23 24  1  0
 23 25  1  0
 23 26  1  0
 26 27  2  0
 26 28  1  0
 28 29  1  0
 28 30  1  0
 30 31  1  0
 30 32  1  0
 32 33  1  0
 32 34  1  0
 32 35  1  0
 30 36  1  0
 36 37  1  0
 36 38  1  0
 36 39  1  0
 28 40  1  0
 40 41  1  0
 40 42  1  0
 42 43  1  0
 42 44  1  0
 42 45  1  0
 40 46  1  0
 46 47  1  0
 46 48  1  0
 46 49  1  0
 22  4  1  0
 13  8  2  0
M  CHG  4   9  -1  12  -1  14  -1  28   1
M  END
>  <UniqueID>  (73) 
71

>  <SMILES>  (73) 
C=c1/c(=C/c2[n-]c(=O)[n-]c2[O-])cc(C)n1CC(=O)[NH+](C(C)C)C(C)C

>  <Energy>  (73) 
115.72853242294664

>  <Genealogy>  (73) 
C=c1c(=Cc2[n-]c(=O)[n-]c2[O-])cc(C)n1CC(=O)[NH+](C(C)C)C(C)C (protonated)
C=c1/c(=C/c2[n-]c(=O)[n-]c2[O-])cc(C)n1CC(=O)[NH+](C(C)C)C(C)C (cis-trans isomerization)
C=c1/c(=C/c2[n-]c(=O)[n-]c2[O-])cc(C)n1CC(=O)[NH+](C(C)C)C(C)C (3D coordinates assigned)
C=c1/c(=C/c2[n-]c(=O)[n-]c2[O-])cc(C)n1CC(=O)[NH+](C(C)C)C(C)C (optimized conformer: 115.72853242294664 kcal/mol)

>  <smiles>  (73) 
C=c1c(=Cc2[nH]c(=O)[nH]c2O)cc(C)n1CC(=O)N(C(C)C)C(C)C

>  <score_type>  (73) 
oracle

>  <origin>  (73) 
adg

>  <m_score__min__energy>  (73) 
-13.69

>  <m_primary>  (73) 
energy

$$$$
73:0
     RDKit          3D

 63 67  0  0  0  0  0  0  0  0999 V2000
   58.8061   28.7909   44.2367 H   0  0  0  0  0  0  0  0  0  0  0  0
   57.8030   28.5400   44.6120 C   0  0  0  0  0  0  0  0  0  0  0  0
   57.4840   27.4310   45.3030 N   0  0  0  0  0  0  0  0  0  0  0  0
   56.1670   27.5830   45.5550 C   0  0  0  0  0  0  0  0  0  0  0  0
   55.4930   26.7090   46.2460 N   0  0  0  0  0  0  0  0  0  0  0  0
   55.9720   25.4180   46.6510 C   0  0  0  0  0  0  0  0  0  0  0  0
   55.3800   24.3900   46.2330 O   0  0  0  0  0  0  0  0  0  0  0  0
   57.1250   25.2620   47.4920 N   0  0  0  0  0  0  0  0  0  0  0  0
   58.4350   25.7820   47.2170 C   0  0  0  0  0  0  0  0  0  0  0  0
   58.9180   26.9300   47.8680 C   0  0  0  0  0  0  0  0  0  0  0  0
   58.2812   27.4573   48.5936 H   0  0  0  0  0  0  0  0  0  0  0  0
   60.2040   27.4040   47.5970 C   0  0  0  0  0  0  0  0  0  0  0  0
   60.5785   28.3021   48.1101 H   0  0  0  0  0  0  0  0  0  0  0  0
   61.0140   26.7380   46.6750 C   0  0  0  0  0  0  0  0  0  0  0  0
   62.0297   27.1067   46.4689 H   0  0  0  0  0  0  0  0  0  0  0  0
   60.5360   25.6040   46.0140 C   0  0  0  0  0  0  0  0  0  0  0  0
   61.1750   25.0822   45.2864 H   0  0  0  0  0  0  0  0  0  0  0  0
   59.2460   25.1310   46.2760 C   0  0  0  0  0  0  0  0  0  0  0  0
   58.7850   24.0340   45.6240 F   0  0  0  0  0  0  0  0  0  0  0  0
   55.6320   28.7170   45.0560 N   0  0  0  0  0  0  0  0  0  0  0  0
   56.6730   29.3120   44.4490 C   0  0  0  0  0  0  0  0  0  0  0  0
   56.6080   30.6800   43.8450 C   0  0  0  0  0  0  0  0  0  0  0  0
   57.0276   30.6437   42.8288 H   0  0  0  0  0  0  0  0  0  0  0  0
   55.5557   30.9994   43.8194 H   0  0  0  0  0  0  0  0  0  0  0  0
   57.3880   31.6750   44.6630 C   0  0  0  0  0  0  0  0  0  0  0  0
   57.7950   31.3510   45.9680 C   0  0  0  0  0  0  0  0  0  0  0  0
   57.5283   30.3745   46.3985 H   0  0  0  0  0  0  0  0  0  0  0  0
   58.5370   32.2640   46.7210 C   0  0  0  0  0  0  0  0  0  0  0  0
   58.8631   31.9992   47.7376 H   0  0  0  0  0  0  0  0  0  0  0  0
   58.8670   33.5150   46.1860 C   0  0  0  0  0  0  0  0  0  0  0  0
   59.6160   34.4820   46.9970 C   0  0  0  0  0  0  0  0  0  0  0  0
   58.9900   35.2600   47.7650 O   0  0  0  0  0  0  0  0  0  0  0  0
   61.0400   34.5880   46.8980 N   0  0  0  0  0  0  0  0  0  0  0  0
   61.9160   33.5190   46.4200 C   0  0  2  0  0  0  0  0  0  0  0  0
   61.7863   33.4679   45.3289 H   0  0  0  0  0  0  0  0  0  0  0  0
   61.5650   32.2070   47.1130 C   0  0  0  0  0  0  0  0  0  0  0  0
   61.5615   31.3877   46.3790 H   0  0  0  0  0  0  0  0  0  0  0  0
   60.5668   32.2744   47.5701 H   0  0  0  0  0  0  0  0  0  0  0  0
   62.5790   31.9460   48.1450 N   0  0  0  0  0  0  0  0  0  0  0  0
   62.1780   32.4950   49.4600 C   0  0  0  0  0  0  0  0  0  0  0  0
   62.8637   32.1173   50.2328 H   0  0  0  0  0  0  0  0  0  0  0  0
   62.2226   33.5931   49.4122 H   0  0  0  0  0  0  0  0  0  0  0  0
   60.7690   32.0830   49.8050 C   0  0  0  0  0  0  0  0  0  0  0  0
   59.8650   33.0270   50.3220 C   0  0  0  0  0  0  0  0  0  0  0  0
   60.1744   34.0759   50.4405 H   0  0  0  0  0  0  0  0  0  0  0  0
   58.5730   32.6350   50.6860 C   0  0  0  0  0  0  0  0  0  0  0  0
   57.8700   33.3750   51.0960 H   0  0  0  0  0  0  0  0  0  0  0  0
   58.1730   31.3050   50.5300 C   0  0  0  0  0  0  0  0  0  0  0  0
   57.1564   30.9993   50.8183 H   0  0  0  0  0  0  0  0  0  0  0  0
   59.0620   30.3650   50.0090 C   0  0  0  0  0  0  0  0  0  0  0  0
   58.7437   29.3197   49.8824 H   0  0  0  0  0  0  0  0  0  0  0  0
   60.3580   30.7490   49.6470 C   0  0  0  0  0  0  0  0  0  0  0  0
   61.0567   30.0045   49.2377 H   0  0  0  0  0  0  0  0  0  0  0  0
   63.7930   32.6030   47.6480 C   0  0  0  0  0  0  0  0  0  0  0  0
   64.3764   31.8981   47.0374 H   0  0  0  0  0  0  0  0  0  0  0  0
   64.4199   32.9365   48.4881 H   0  0  0  0  0  0  0  0  0  0  0  0
   63.3670   33.7900   46.8010 C   0  0  0  0  0  0  0  0  0  0  0  0
   63.9936   33.8639   45.9000 H   0  0  0  0  0  0  0  0  0  0  0  0
   63.4753   34.7396   47.3456 H   0  0  0  0  0  0  0  0  0  0  0  0
   58.4830   33.8370   44.8740 C   0  0  0  0  0  0  0  0  0  0  0  0
   58.7556   34.8128   44.4457 H   0  0  0  0  0  0  0  0  0  0  0  0
   57.7540   32.9180   44.1110 C   0  0  0  0  0  0  0  0  0  0  0  0
   57.4664   33.1667   43.0788 H   0  0  0  0  0  0  0  0  0  0  0  0
  1  2  1  0
  2  3  1  0
  3  4  1  0
  4  5  2  0
  5  6  1  0
  6  7  2  0
  6  8  1  0
  8  9  1  0
  9 10  2  0
 10 11  1  0
 10 12  1  0
 12 13  1  0
 12 14  2  0
 14 15  1  0
 14 16  1  0
 16 17  1  0
 16 18  2  0
 18 19  1  0
  4 20  1  0
 20 21  1  0
 21 22  1  0
 22 23  1  0
 22 24  1  0
 22 25  1  0
 25 26  2  0
 26 27  1  0
 26 28  1  0
 28 29  1  0
 28 30  2  0
 30 31  1  0
 31 32  2  0
 31 33  1  0
 33 34  1  0
 34 35  1  6
 34 36  1  0
 36 37  1  0
 36 38  1  0
 36 39  1  0
 39 40  1  0
 40 41  1  0
 40 42  1  0
 40 43  1  0
 43 44  2  0
 44 45  1  0
 44 46  1  0
 46 47  1  0
 46 48  2  0
 48 49  1  0
 48 50  1  0
 50 51  1  0
 50 52  2  0
 52 53  1  0
 39 54  1  0
 54 55  1  0
 54 56  1  0
 54 57  1  0
 57 58  1  0
 57 59  1  0
 30 60  1  0
 60 61  1  0
 60 62  2  0
 62 63  1  0
 21  2  2  0
 62 25  1  0
 18  9  1  0
 57 34  1  0
 52 43  1  0
M  CHG  4   3  -1   8  -1  20  -1  33  -1
M  END
>  <UniqueID>  (74) 
72

>  <SMILES>  (74) 
O=C(/N=c1/[n-]cc(Cc2ccc(C(=O)[N-][C@H]3CCN(Cc4ccccc4)C3)cc2)[n-]1)[N-]c1ccccc1F

>  <Energy>  (74) 
111.35476945923809

>  <Genealogy>  (74) 
O=C(N=c1[n-]cc(Cc2ccc(C(=O)[N-]C3CCN(Cc4ccccc4)C3)cc2)[n-]1)[N-]c1ccccc1F (protonated)
O=C(N=c1[n-]cc(Cc2ccc(C(=O)[N-][C@H]3CCN(Cc4ccccc4)C3)cc2)[n-]1)[N-]c1ccccc1F (chirality)
O=C(/N=c1/[n-]cc(Cc2ccc(C(=O)[N-][C@H]3CCN(Cc4ccccc4)C3)cc2)[n-]1)[N-]c1ccccc1F (cis-trans isomerization)
O=C(/N=c1/[n-]cc(Cc2ccc(C(=O)[N-][C@H]3CCN(Cc4ccccc4)C3)cc2)[n-]1)[N-]c1ccccc1F (3D coordinates assigned)
O=C(/N=c1/[n-]cc(Cc2ccc(C(=O)[N-][C@H]3CCN(Cc4ccccc4)C3)cc2)[n-]1)[N-]c1ccccc1F (nonaromatic ring conformer: 111.35476945923809 kcal/mol)

>  <smiles>  (74) 
O=C(N=c1[nH]cc(Cc2ccc(C(=O)NC3CCN(Cc4ccccc4)C3)cc2)[nH]1)Nc1ccccc1F

>  <score_type>  (74) 
oracle

>  <origin>  (74) 
adg

>  <m_score__min__energy>  (74) 
-15.75

>  <m_primary>  (74) 
energy

$$$$
74:0
     RDKit          3D

 73 75  0  0  0  0  0  0  0  0999 V2000
   58.0645   30.0137   48.3302 H   0  0  0  0  0  0  0  0  0  0  0  0
   58.9190   30.6470   48.6110 C   0  0  0  0  0  0  0  0  0  0  0  0
   58.6240   32.0370   49.0120 C   0  0  0  0  0  0  0  0  0  0  0  0
   58.5410   32.3100   50.2390 O   0  0  0  0  0  0  0  0  0  0  0  0
   58.4960   33.0770   48.0360 N   0  0  0  0  0  0  0  0  0  0  0  0
   59.3990   34.2190   47.9360 C   0  0  0  0  0  0  0  0  0  0  0  0
   60.2531   34.0615   48.6110 H   0  0  0  0  0  0  0  0  0  0  0  0
   58.8455   35.1270   48.2172 H   0  0  0  0  0  0  0  0  0  0  0  0
   59.9180   34.3900   46.5040 C   0  0  0  0  0  0  0  0  0  0  0  0
   60.5095   33.5034   46.2319 H   0  0  0  0  0  0  0  0  0  0  0  0
   60.5322   35.3020   46.4707 H   0  0  0  0  0  0  0  0  0  0  0  0
   58.7720   34.5510   45.4950 C   0  0  0  0  0  0  0  0  0  0  0  0
   59.0474   35.3205   44.7588 H   0  0  0  0  0  0  0  0  0  0  0  0
   57.8644   34.8455   46.0424 H   0  0  0  0  0  0  0  0  0  0  0  0
   58.4910   33.2340   44.7610 C   0  0  0  0  0  0  0  0  0  0  0  0
   59.2711   32.5028   45.0194 H   0  0  0  0  0  0  0  0  0  0  0  0
   58.4916   33.4252   43.6777 H   0  0  0  0  0  0  0  0  0  0  0  0
   57.1130   32.6690   45.1650 C   0  0  0  0  0  0  0  0  0  0  0  0
   56.3411   33.1825   44.5730 H   0  0  0  0  0  0  0  0  0  0  0  0
   57.0013   32.8420   46.2456 H   0  0  0  0  0  0  0  0  0  0  0  0
   56.9750   31.2130   44.9470 N   0  0  0  0  0  0  0  0  0  0  0  0
   57.9990   30.3880   45.6390 C   0  0  0  0  0  0  0  0  0  0  0  0
   57.4877   29.6833   46.3112 H   0  0  0  0  0  0  0  0  0  0  0  0
   58.6585   31.0724   46.1927 H   0  0  0  0  0  0  0  0  0  0  0  0
   58.8750   29.5880   44.6620 C   0  0  0  0  0  0  0  0  0  0  0  0
   59.5765   28.9660   45.2373 H   0  0  0  0  0  0  0  0  0  0  0  0
   59.4182   30.2990   44.0222 H   0  0  0  0  0  0  0  0  0  0  0  0
   58.0180   28.6730   43.7550 C   0  0  0  0  0  0  0  0  0  0  0  0
   58.5844   28.5190   42.8247 H   0  0  0  0  0  0  0  0  0  0  0  0
   57.7870   27.3750   44.4010 N   0  0  0  0  0  0  0  0  0  0  0  0
   56.8780   26.8780   44.2480 H   0  0  0  0  0  0  0  0  0  0  0  0
   58.7630   26.7560   45.2510 C   0  0  0  0  0  0  0  0  0  0  0  0
   59.8840   27.3050   45.4330 O   0  0  0  0  0  0  0  0  0  0  0  0
   58.4780   25.4210   45.8790 C   0  0  0  0  0  0  0  0  0  0  0  0
   58.4552   25.5363   46.9727 H   0  0  0  0  0  0  0  0  0  0  0  0
   59.2701   24.7186   45.5801 H   0  0  0  0  0  0  0  0  0  0  0  0
   57.1550   24.8740   45.4150 C   0  0  0  0  0  0  0  0  0  0  0  0
   57.1050   23.9520   44.3580 C   0  0  0  0  0  0  0  0  0  0  0  0
   58.0371   23.6113   43.8835 H   0  0  0  0  0  0  0  0  0  0  0  0
   55.8750   23.4650   43.9060 C   0  0  0  0  0  0  0  0  0  0  0  0
   55.8456   22.7410   43.0784 H   0  0  0  0  0  0  0  0  0  0  0  0
   54.6790   23.8920   44.4990 C   0  0  0  0  0  0  0  0  0  0  0  0
   53.4410   23.3660   44.0030 N   0  0  0  0  0  0  0  0  0  0  0  0
   51.9460   23.3420   44.8810 S   0  0  0  0  0  0  0  0  0  0  0  0
   52.2190   23.3990   46.3580 O   0  0  0  0  0  0  0  0  0  0  0  0
   51.1790   22.0920   44.5490 O   0  0  0  0  0  0  0  0  0  0  0  0
   50.9790   24.7580   44.4140 C   0  0  0  0  0  0  0  0  0  0  0  0
   50.6258   25.2752   45.3183 H   0  0  0  0  0  0  0  0  0  0  0  0
   51.5980   25.4441   43.8173 H   0  0  0  0  0  0  0  0  0  0  0  0
   50.1146   24.4311   43.8173 H   0  0  0  0  0  0  0  0  0  0  0  0
   54.7290   24.8210   45.5530 C   0  0  0  0  0  0  0  0  0  0  0  0
   53.7968   25.1638   46.0256 H   0  0  0  0  0  0  0  0  0  0  0  0
   55.9590   25.3110   46.0030 C   0  0  0  0  0  0  0  0  0  0  0  0
   55.9887   26.0436   46.8230 H   0  0  0  0  0  0  0  0  0  0  0  0
   56.6640   29.3280   43.3780 C   0  0  0  0  0  0  0  0  0  0  0  0
   55.8778   28.9225   44.0318 H   0  0  0  0  0  0  0  0  0  0  0  0
   56.4557   29.1003   42.3222 H   0  0  0  0  0  0  0  0  0  0  0  0
   56.7060   30.8490   43.5380 C   0  0  0  0  0  0  0  0  0  0  0  0
   55.7376   31.2723   43.2330 H   0  0  0  0  0  0  0  0  0  0  0  0
   57.5110   31.2519   42.9058 H   0  0  0  0  0  0  0  0  0  0  0  0
   60.1390   30.0880   48.5590 C   0  0  0  0  0  0  0  0  0  0  0  0
   60.1975   29.0239   48.2863 H   0  0  0  0  0  0  0  0  0  0  0  0
   61.4080   30.7890   48.8390 C   0  0  0  0  0  0  0  0  0  0  0  0
   62.0710   30.6230   50.0660 C   0  0  0  0  0  0  0  0  0  0  0  0
   61.6556   29.9448   50.8259 H   0  0  0  0  0  0  0  0  0  0  0  0
   63.2560   31.3160   50.3250 C   0  0  0  0  0  0  0  0  0  0  0  0
   63.7775   31.1705   51.2825 H   0  0  0  0  0  0  0  0  0  0  0  0
   63.7820   32.1940   49.3720 C   0  0  0  0  0  0  0  0  0  0  0  0
   65.2810   33.0410   49.7300 Cl  0  0  0  0  0  0  0  0  0  0  0  0
   63.1080   32.3880   48.1540 C   0  0  0  0  0  0  0  0  0  0  0  0
   63.7320   33.4870   46.9320 Cl  0  0  0  0  0  0  0  0  0  0  0  0
   61.9180   31.6950   47.8980 C   0  0  0  0  0  0  0  0  0  0  0  0
   61.3803   31.8625   46.9531 H   0  0  0  0  0  0  0  0  0  0  0  0
  1  2  1  0
  2  3  1  0
  3  4  2  0
  3  5  1  0
  5  6  1  0
  6  7  1  0
  6  8  1  0
  6  9  1  0
  9 10  1  0
  9 11  1  0
  9 12  1  0
 12 13  1  0
 12 14  1  0
 12 15  1  0
 15 16  1  0
 15 17  1  0
 15 18  1  0
 18 19  1  0
 18 20  1  0
 18 21  1  0
 21 22  1  0
 22 23  1  0
 22 24  1  0
 22 25  1  0
 25 26  1  0
 25 27  1  0
 25 28  1  0
 28 29  1  0
 28 30  1  0
 30 31  1  0
 30 32  1  0
 32 33  2  0
 32 34  1  0
 34 35  1  0
 34 36  1  0
 34 37  1  0
 37 38  2  0
 38 39  1  0
 38 40  1  0
 40 41  1  0
 40 42  2  0
 42 43  1  0
 43 44  1  0
 44 45  2  0
 44 46  2  0
 44 47  1  0
 47 48  1  0
 47 49  1  0
 47 50  1  0
 42 51  1  0
 51 52  1  0
 51 53  2  0
 53 54  1  0
 28 55  1  0
 55 56  1  0
 55 57  1  0
 55 58  1  0
 58 59  1  0
 58 60  1  0
  2 61  2  0
 61 62  1  0
 61 63  1  0
 63 64  2  0
 64 65  1  0
 64 66  1  0
 66 67  1  0
 66 68  2  0
 68 69  1  0
 68 70  1  0
 70 71  1  0
 70 72  2  0
 72 73  1  0
 58 21  1  0
 72 63  1  0
 53 37  1  0
M  CHG  2   5  -1  43  -1
M  END
>  <UniqueID>  (75) 
73

>  <SMILES>  (75) 
CS(=O)(=O)[N-]c1ccc(CC(=O)NC2CCN(CCCCC[N-]C(=O)/C=C\c3ccc(Cl)c(Cl)c3)CC2)cc1

>  <Energy>  (75) 
79.08364551037286

>  <Genealogy>  (75) 
CS(=O)(=O)[N-]c1ccc(CC(=O)NC2CCN(CCCCC[N-]C(=O)C=Cc3ccc(Cl)c(Cl)c3)CC2)cc1 (protonated)
CS(=O)(=O)[N-]c1ccc(CC(=O)NC2CCN(CCCCC[N-]C(=O)/C=C\c3ccc(Cl)c(Cl)c3)CC2)cc1 (cis-trans isomerization)
CS(=O)(=O)[N-]c1ccc(CC(=O)NC2CCN(CCCCC[N-]C(=O)/C=C\c3ccc(Cl)c(Cl)c3)CC2)cc1 (3D coordinates assigned)
CS(=O)(=O)[N-]c1ccc(CC(=O)NC2CCN(CCCCC[N-]C(=O)/C=C\c3ccc(Cl)c(Cl)c3)CC2)cc1 (nonaromatic ring conformer: 79.08364551037286 kcal/mol)

>  <smiles>  (75) 
CS(=O)(=O)Nc1ccc(CC(=O)NC2CCN(CCCCCNC(=O)C=Cc3ccc(Cl)c(Cl)c3)CC2)cc1

>  <score_type>  (75) 
oracle

>  <origin>  (75) 
adg

>  <m_score__min__energy>  (75) 
-12.67

>  <m_primary>  (75) 
energy

$$$$
75:0
     RDKit          3D

 49 51  0  0  0  0  0  0  0  0999 V2000
   57.0593   29.4270   42.3326 H   0  0  0  0  0  0  0  0  0  0  0  0
   57.0120   29.0910   43.3790 C   0  0  0  0  0  0  0  0  0  0  0  0
   56.1040   29.8240   44.2820 C   0  0  0  0  0  0  0  0  0  0  0  0
   55.1620   29.1980   44.8330 O   0  0  0  0  0  0  0  0  0  0  0  0
   56.2770   31.2300   44.5100 N   0  0  0  0  0  0  0  0  0  0  0  0
   57.3580   31.8720   45.1980 C   0  0  0  0  0  0  0  0  0  0  0  0
   58.0430   31.1520   46.1830 C   0  0  0  0  0  0  0  0  0  0  0  0
   57.7321   30.1242   46.4218 H   0  0  0  0  0  0  0  0  0  0  0  0
   59.1180   31.7260   46.8660 C   0  0  0  0  0  0  0  0  0  0  0  0
   59.6408   31.1546   47.6471 H   0  0  0  0  0  0  0  0  0  0  0  0
   59.5310   33.0290   46.5570 C   0  0  0  0  0  0  0  0  0  0  0  0
   60.9050   33.7580   47.3850 S   0  0  0  0  0  0  0  0  0  0  0  0
   60.4090   34.9560   48.1460 O   0  0  0  0  0  0  0  0  0  0  0  0
   61.9260   34.2140   46.3790 O   0  0  0  0  0  0  0  0  0  0  0  0
   61.6250   32.6160   48.5020 N   0  0  0  0  0  0  0  0  0  0  0  0
   62.2440   31.4760   47.8030 C   0  0  0  0  0  0  0  0  0  0  0  0
   62.4236   30.6708   48.5307 H   0  0  0  0  0  0  0  0  0  0  0  0
   61.5540   31.1552   47.0086 H   0  0  0  0  0  0  0  0  0  0  0  0
   63.5890   31.8520   47.1360 C   0  0  0  0  0  0  0  0  0  0  0  0
   64.3083   31.0409   47.3220 H   0  0  0  0  0  0  0  0  0  0  0  0
   63.3888   31.9954   46.0639 H   0  0  0  0  0  0  0  0  0  0  0  0
   64.1430   33.0620   47.6210 O   0  0  0  0  0  0  0  0  0  0  0  0
   64.0330   33.1170   49.0260 C   0  0  0  0  0  0  0  0  0  0  0  0
   64.4325   32.1876   49.4580 H   0  0  0  0  0  0  0  0  0  0  0  0
   64.6047   33.9807   49.3964 H   0  0  0  0  0  0  0  0  0  0  0  0
   62.5590   33.2770   49.4400 C   0  0  0  0  0  0  0  0  0  0  0  0
   62.4246   32.8362   50.4388 H   0  0  0  0  0  0  0  0  0  0  0  0
   62.3283   34.3525   49.4342 H   0  0  0  0  0  0  0  0  0  0  0  0
   58.8670   33.7450   45.5540 C   0  0  0  0  0  0  0  0  0  0  0  0
   59.1961   34.7632   45.2993 H   0  0  0  0  0  0  0  0  0  0  0  0
   57.7870   33.1720   44.8740 C   0  0  0  0  0  0  0  0  0  0  0  0
   57.2722   33.7391   44.0844 H   0  0  0  0  0  0  0  0  0  0  0  0
   57.7850   28.0500   43.7240 C   0  0  0  0  0  0  0  0  0  0  0  0
   58.0291   27.3191   42.9390 H   0  0  0  0  0  0  0  0  0  0  0  0
   58.3340   27.8070   45.0720 C   0  0  0  0  0  0  0  0  0  0  0  0
   59.4360   28.4070   45.6600 C   0  0  0  0  0  0  0  0  0  0  0  0
   60.1347   29.0972   45.1646 H   0  0  0  0  0  0  0  0  0  0  0  0
   59.5050   28.0000   46.9430 N   0  0  0  0  0  0  0  0  0  0  0  0
   60.4630   28.4660   47.9360 C   0  0  0  0  0  0  0  0  0  0  0  0
   60.0683   28.2740   48.9446 H   0  0  0  0  0  0  0  0  0  0  0  0
   61.4150   27.9303   47.8067 H   0  0  0  0  0  0  0  0  0  0  0  0
   60.6293   29.5456   47.8067 H   0  0  0  0  0  0  0  0  0  0  0  0
   58.4780   27.2090   47.2100 N   0  0  0  0  0  0  0  0  0  0  0  0
   58.2650   26.7990   48.1490 H   0  0  0  0  0  0  0  0  0  0  0  0
   57.7470   27.0670   46.0880 C   0  0  0  0  0  0  0  0  0  0  0  0
   56.4570   26.3170   46.0170 C   0  0  0  0  0  0  0  0  0  0  0  0
   56.0978   26.1081   47.0355 H   0  0  0  0  0  0  0  0  0  0  0  0
   55.7103   26.9218   45.4816 H   0  0  0  0  0  0  0  0  0  0  0  0
   56.6131   25.3688   45.4816 H   0  0  0  0  0  0  0  0  0  0  0  0
  1  2  1  0
  2  3  1  0
  3  4  2  0
  3  5  1  0
  5  6  1  0
  6  7  2  0
  7  8  1  0
  7  9  1  0
  9 10  1  0
  9 11  2  0
 11 12  1  0
 12 13  2  0
 12 14  2  0
 12 15  1  0
 15 16  1  0
 16 17  1  0
 16 18  1  0
 16 19  1  0
 19 20  1  0
 19 21  1  0
 19 22  1  0
 22 23  1  0
 23 24  1  0
 23 25  1  0
 23 26  1  0
 26 27  1  0
 26 28  1  0
 11 29  1  0
 29 30  1  0
 29 31  2  0
 31 32  1  0
  2 33  2  0
 33 34  1  0
 33 35  1  0
 35 36  2  0
 36 37  1  0
 36 38  1  0
 38 39  1  0
 39 40  1  0
 39 41  1  0
 39 42  1  0
 38 43  1  0
 43 44  1  0
 43 45  2  0
 45 46  1  0
 46 47  1  0
 46 48  1  0
 46 49  1  0
 31  6  1  0
 45 35  1  0
 26 15  1  0
M  CHG  2   5  -1  43   1
M  END
>  <UniqueID>  (76) 
74

>  <SMILES>  (76) 
Cc1[nH+]n(C)cc1/C=C\C(=O)[N-]c1ccc(S(=O)(=O)N2CCOCC2)cc1

>  <Energy>  (76) 
98.47016686680564

>  <Genealogy>  (76) 
Cc1[nH+]n(C)cc1C=CC(=O)[N-]c1ccc(S(=O)(=O)N2CCOCC2)cc1 (protonated)
Cc1[nH+]n(C)cc1/C=C\C(=O)[N-]c1ccc(S(=O)(=O)N2CCOCC2)cc1 (cis-trans isomerization)
Cc1[nH+]n(C)cc1/C=C\C(=O)[N-]c1ccc(S(=O)(=O)N2CCOCC2)cc1 (3D coordinates assigned)
Cc1[nH+]n(C)cc1/C=C\C(=O)[N-]c1ccc(S(=O)(=O)N2CCOCC2)cc1 (nonaromatic ring conformer: 98.47016686680564 kcal/mol)

>  <smiles>  (76) 
Cc1nn(C)cc1C=CC(=O)Nc1ccc(S(=O)(=O)N2CCOCC2)cc1

>  <score_type>  (76) 
oracle

>  <origin>  (76) 
adg

>  <m_score__min__energy>  (76) 
-8.6600000000000001

>  <m_primary>  (76) 
energy

$$$$
76:0
     RDKit          3D

 61 64  0  0  0  0  0  0  0  0999 V2000
   61.3550   29.9780   51.0560 C   0  0  0  0  0  0  0  0  0  0  0  0
   60.7950   30.6180   49.8570 N   0  0  0  0  0  0  0  0  0  0  0  0
   61.8680   30.9230   48.9010 C   0  0  0  0  0  0  0  0  0  0  0  0
   61.3230   31.8360   47.8100 C   0  0  0  0  0  0  0  0  0  0  0  0
   59.9540   31.4820   47.3940 N   0  0  0  0  0  0  0  0  0  0  0  0
   59.3030   32.3050   46.4060 C   0  0  0  0  0  0  0  0  0  0  0  0
   59.1830   33.6930   46.5990 C   0  0  0  0  0  0  0  0  0  0  0  0
   58.5270   34.4860   45.6550 C   0  0  0  0  0  0  0  0  0  0  0  0
   57.9470   33.9020   44.5270 C   0  0  0  0  0  0  0  0  0  0  0  0
   58.0140   32.5140   44.3380 C   0  0  0  0  0  0  0  0  0  0  0  0
   57.3950   31.9230   43.1320 C   0  0  0  0  0  0  0  0  0  0  0  0
   56.6810   30.7860   43.1000 C   0  0  0  0  0  0  0  0  0  0  0  0
   56.7820   29.6640   44.0610 C   0  0  0  0  0  0  0  0  0  0  0  0
   55.8370   29.4170   44.8560 O   0  0  0  0  0  0  0  0  0  0  0  0
   57.9650   28.8450   44.0570 N   0  0  0  0  0  0  0  0  0  0  0  0
   58.3310   27.9210   45.1010 C   0  0  0  0  0  0  0  0  0  0  0  0
   59.6270   27.9820   45.6360 C   0  0  0  0  0  0  0  0  0  0  0  0
   60.0110   27.1250   46.6670 C   0  0  0  0  0  0  0  0  0  0  0  0
   59.1060   26.1990   47.1830 C   0  0  0  0  0  0  0  0  0  0  0  0
   57.8070   26.1100   46.6510 C   0  0  0  0  0  0  0  0  0  0  0  0
   56.8220   25.2050   47.1870 N   0  0  0  0  0  0  0  0  0  0  0  0
   55.5190   24.5380   46.2570 S   0  0  0  0  0  0  0  0  0  0  0  0
   54.6290   23.7300   47.1610 O   0  0  0  0  0  0  0  0  0  0  0  0
   54.7170   25.6580   45.6520 O   0  0  0  0  0  0  0  0  0  0  0  0
   56.1740   23.4870   45.0010 C   0  0  0  0  0  0  0  0  0  0  0  0
   55.5800   23.4620   43.7300 C   0  0  0  0  0  0  0  0  0  0  0  0
   56.0670   22.5960   42.7470 C   0  0  0  0  0  0  0  0  0  0  0  0
   57.1540   21.7630   43.0240 C   0  0  0  0  0  0  0  0  0  0  0  0
   57.7590   21.7940   44.2850 C   0  0  0  0  0  0  0  0  0  0  0  0
   57.2700   22.6530   45.2740 C   0  0  0  0  0  0  0  0  0  0  0  0
   57.4400   26.9480   45.5890 C   0  0  0  0  0  0  0  0  0  0  0  0
   58.7280   31.7250   45.2590 C   0  0  0  0  0  0  0  0  0  0  0  0
   59.1800   30.3610   47.9700 C   0  0  0  0  0  0  0  0  0  0  0  0
   59.8340   29.7160   49.2130 C   0  0  0  0  0  0  0  0  0  0  0  0
   60.9376   30.4550   51.9551 H   0  0  0  0  0  0  0  0  0  0  0  0
   61.0973   28.9086   51.0551 H   0  0  0  0  0  0  0  0  0  0  0  0
   62.4491   30.0915   51.0551 H   0  0  0  0  0  0  0  0  0  0  0  0
   62.6941   31.4272   49.4238 H   0  0  0  0  0  0  0  0  0  0  0  0
   62.2380   29.9899   48.4511 H   0  0  0  0  0  0  0  0  0  0  0  0
   61.3187   32.8693   48.1873 H   0  0  0  0  0  0  0  0  0  0  0  0
   61.9739   31.7229   46.9305 H   0  0  0  0  0  0  0  0  0  0  0  0
   59.6091   34.1575   47.5005 H   0  0  0  0  0  0  0  0  0  0  0  0
   58.4670   35.5747   45.8006 H   0  0  0  0  0  0  0  0  0  0  0  0
   57.4360   34.5325   43.7845 H   0  0  0  0  0  0  0  0  0  0  0  0
   57.5308   32.4597   42.1814 H   0  0  0  0  0  0  0  0  0  0  0  0
   55.9525   30.6780   42.2829 H   0  0  0  0  0  0  0  0  0  0  0  0
   58.7060   29.0860   43.3620 H   0  0  0  0  0  0  0  0  0  0  0  0
   60.3467   28.7127   45.2384 H   0  0  0  0  0  0  0  0  0  0  0  0
   61.0313   27.1800   47.0743 H   0  0  0  0  0  0  0  0  0  0  0  0
   59.4082   25.5367   48.0077 H   0  0  0  0  0  0  0  0  0  0  0  0
   54.7305   24.1244   43.5071 H   0  0  0  0  0  0  0  0  0  0  0  0
   55.5940   22.5702   41.7542 H   0  0  0  0  0  0  0  0  0  0  0  0
   57.5348   21.0815   42.2491 H   0  0  0  0  0  0  0  0  0  0  0  0
   58.6193   21.1427   44.4985 H   0  0  0  0  0  0  0  0  0  0  0  0
   57.7442   22.6754   46.2663 H   0  0  0  0  0  0  0  0  0  0  0  0
   56.4447   26.8437   45.1324 H   0  0  0  0  0  0  0  0  0  0  0  0
   58.8379   30.6451   45.0812 H   0  0  0  0  0  0  0  0  0  0  0  0
   58.1878   30.7384   48.2583 H   0  0  0  0  0  0  0  0  0  0  0  0
   59.1292   29.5801   47.1969 H   0  0  0  0  0  0  0  0  0  0  0  0
   59.0461   29.4606   49.9369 H   0  0  0  0  0  0  0  0  0  0  0  0
   60.3776   28.8180   48.8843 H   0  0  0  0  0  0  0  0  0  0  0  0
  1  2  1  0
  2  3  1  0
  3  4  1  0
  4  5  1  0
  5  6  1  0
  6  7  2  0
  7  8  1  0
  8  9  2  0
  9 10  1  0
 10 11  1  0
 11 12  2  3
 12 13  1  0
 13 14  2  0
 13 15  1  0
 15 16  1  0
 16 17  2  0
 17 18  1  0
 18 19  2  0
 19 20  1  0
 20 21  1  0
 21 22  1  0
 22 23  2  0
 22 24  2  0
 22 25  1  0
 25 26  2  0
 26 27  1  0
 27 28  2  0
 28 29  1  0
 29 30  2  0
 20 31  2  0
 10 32  2  0
  5 33  1  0
 33 34  1  0
 34  2  1  0
 32  6  1  0
 31 16  1  0
 30 25  1  0
  1 35  1  0
  1 36  1  0
  1 37  1  0
  3 38  1  0
  3 39  1  0
  4 40  1  0
  4 41  1  0
  7 42  1  0
  8 43  1  0
  9 44  1  0
 11 45  1  0
 12 46  1  0
 15 47  1  0
 17 48  1  0
 18 49  1  0
 19 50  1  0
 26 51  1  0
 27 52  1  0
 28 53  1  0
 29 54  1  0
 30 55  1  0
 31 56  1  0
 32 57  1  0
 33 58  1  0
 33 59  1  0
 34 60  1  0
 34 61  1  0
M  CHG  1  21  -1
M  END
>  <UniqueID>  (77) 
75

>  <SMILES>  (77) 
CN1CCN(c2cccc(C=CC(=O)Nc3cccc([N-]S(=O)(=O)c4ccccc4)c3)c2)CC1

>  <Energy>  (77) 
85.93691726371748

>  <Genealogy>  (77) 
CN1CCN(c2cccc(C=CC(=O)Nc3cccc([N-]S(=O)(=O)c4ccccc4)c3)c2)CC1 (protonated)
CN1CCN(c2cccc(C=CC(=O)Nc3cccc([N-]S(=O)(=O)c4ccccc4)c3)c2)CC1 (3D coordinates assigned)
CN1CCN(c2cccc(C=CC(=O)Nc3cccc([N-]S(=O)(=O)c4ccccc4)c3)c2)CC1 (nonaromatic ring conformer: 85.93691726371748 kcal/mol)

>  <smiles>  (77) 
CN1CCN(c2cccc(C=CC(=O)Nc3cccc(NS(=O)(=O)c4ccccc4)c3)c2)CC1

>  <score_type>  (77) 
oracle

>  <origin>  (77) 
adg

>  <m_score__min__energy>  (77) 
-13.35

>  <m_primary>  (77) 
energy

$$$$
77:0
     RDKit          3D

 43 45  0  0  0  0  0  0  0  0999 V2000
   57.9520   32.2460   41.6300 C   0  0  0  0  0  0  0  0  0  0  0  0
   57.8800   32.3770   43.1220 C   0  0  0  0  0  0  0  0  0  0  0  0
   58.5200   33.4350   43.7770 C   0  0  0  0  0  0  0  0  0  0  0  0
   58.4140   33.5700   45.1620 C   0  0  0  0  0  0  0  0  0  0  0  0
   57.6580   32.6330   45.8960 C   0  0  0  0  0  0  0  0  0  0  0  0
   57.5110   32.7020   47.1900 N   0  0  0  0  0  0  0  0  0  0  0  0
   58.5190   32.5400   48.2010 C   0  0  0  0  0  0  0  0  0  0  0  0
   58.1510   32.3650   49.3920 O   0  0  0  0  0  0  0  0  0  0  0  0
   59.9560   32.4200   47.8530 C   0  0  0  0  0  0  0  0  0  0  0  0
   60.7050   33.6010   47.7070 C   0  0  0  0  0  0  0  0  0  0  0  0
   62.0540   33.5510   47.3520 C   0  0  0  0  0  0  0  0  0  0  0  0
   62.6730   32.3230   47.1360 C   0  0  0  0  0  0  0  0  0  0  0  0
   61.9520   31.1390   47.2870 C   0  0  0  0  0  0  0  0  0  0  0  0
   60.5960   31.1670   47.6550 C   0  0  0  0  0  0  0  0  0  0  0  0
   59.7580   29.6220   47.9010 S   0  0  0  0  0  0  0  0  0  0  0  0
   60.7510   28.5770   48.3270 O   0  0  0  0  0  0  0  0  0  0  0  0
   58.7520   29.8000   49.0040 O   0  0  0  0  0  0  0  0  0  0  0  0
   58.9600   29.0720   46.4140 C   0  0  0  0  0  0  0  0  0  0  0  0
   57.5620   28.9190   46.4080 C   0  0  0  0  0  0  0  0  0  0  0  0
   56.8990   28.4770   45.2630 C   0  0  0  0  0  0  0  0  0  0  0  0
   57.6200   28.1840   44.1070 C   0  0  0  0  0  0  0  0  0  0  0  0
   59.0070   28.3440   44.0880 C   0  0  0  0  0  0  0  0  0  0  0  0
   59.6900   28.8030   45.2280 C   0  0  0  0  0  0  0  0  0  0  0  0
   61.1870   28.9560   45.1630 C   0  0  0  0  0  0  0  0  0  0  0  0
   57.0170   31.6370   45.2270 N   0  0  0  0  0  0  0  0  0  0  0  0
   57.1060   31.4880   43.8790 C   0  0  0  0  0  0  0  0  0  0  0  0
   58.4666   31.3096   41.3686 H   0  0  0  0  0  0  0  0  0  0  0  0
   56.9340   32.2335   41.2135 H   0  0  0  0  0  0  0  0  0  0  0  0
   58.5082   33.0987   41.2135 H   0  0  0  0  0  0  0  0  0  0  0  0
   59.1084   34.1625   43.1986 H   0  0  0  0  0  0  0  0  0  0  0  0
   58.9167   34.4016   45.6775 H   0  0  0  0  0  0  0  0  0  0  0  0
   60.2225   34.5752   47.8744 H   0  0  0  0  0  0  0  0  0  0  0  0
   62.6284   34.4827   47.2428 H   0  0  0  0  0  0  0  0  0  0  0  0
   63.7333   32.2865   46.8455 H   0  0  0  0  0  0  0  0  0  0  0  0
   62.4498   30.1731   47.1163 H   0  0  0  0  0  0  0  0  0  0  0  0
   56.9853   29.1503   47.3157 H   0  0  0  0  0  0  0  0  0  0  0  0
   55.8053   28.3596   45.2726 H   0  0  0  0  0  0  0  0  0  0  0  0
   57.0959   27.8263   43.2085 H   0  0  0  0  0  0  0  0  0  0  0  0
   59.5703   28.1088   43.1729 H   0  0  0  0  0  0  0  0  0  0  0  0
   61.5959   28.9978   46.1833 H   0  0  0  0  0  0  0  0  0  0  0  0
   61.6205   28.0975   44.6291 H   0  0  0  0  0  0  0  0  0  0  0  0
   61.4378   29.8845   44.6291 H   0  0  0  0  0  0  0  0  0  0  0  0
   56.5689   30.6672   43.3811 H   0  0  0  0  0  0  0  0  0  0  0  0
  1  2  1  0
  2  3  1  0
  3  4  2  0
  4  5  1  0
  5  6  2  3
  6  7  1  0
  7  8  2  0
  7  9  1  0
  9 10  2  0
 10 11  1  0
 11 12  2  0
 12 13  1  0
 13 14  2  0
 14 15  1  0
 15 16  2  0
 15 17  2  0
 15 18  1  0
 18 19  2  0
 19 20  1  0
 20 21  2  0
 21 22  1  0
 22 23  2  0
 23 24  1  0
  5 25  1  0
 25 26  1  0
 26  2  2  0
 14  9  1  0
 23 18  1  0
  1 27  1  0
  1 28  1  0
  1 29  1  0
  3 30  1  0
  4 31  1  0
 10 32  1  0
 11 33  1  0
 12 34  1  0
 13 35  1  0
 19 36  1  0
 20 37  1  0
 21 38  1  0
 22 39  1  0
 24 40  1  0
 24 41  1  0
 24 42  1  0
 26 43  1  0
M  CHG  1  25  -1
M  END
>  <UniqueID>  (78) 
76

>  <SMILES>  (78) 
Cc1ccc(=NC(=O)c2ccccc2S(=O)(=O)c2ccccc2C)[n-]c1

>  <Energy>  (78) 
63.30864480227361

>  <Genealogy>  (78) 
Cc1ccc(=NC(=O)c2ccccc2S(=O)(=O)c2ccccc2C)[n-]c1 (protonated)
Cc1ccc(=NC(=O)c2ccccc2S(=O)(=O)c2ccccc2C)[n-]c1 (3D coordinates assigned)
Cc1ccc(=NC(=O)c2ccccc2S(=O)(=O)c2ccccc2C)[n-]c1 (optimized conformer: 63.30864480227361 kcal/mol)

>  <smiles>  (78) 
Cc1ccc(=NC(=O)c2ccccc2S(=O)(=O)c2ccccc2C)[nH]c1

>  <score_type>  (78) 
oracle

>  <origin>  (78) 
adg

>  <m_score__min__energy>  (78) 
-10.94

>  <m_primary>  (78) 
energy

$$$$
78:0
     RDKit          3D

 54 57  0  0  0  0  0  0  0  0999 V2000
   53.7310   29.7590   53.2290 O   0  0  0  0  0  0  0  0  0  0  0  0
   53.8310   30.7370   52.4390 C   0  0  0  0  0  0  0  0  0  0  0  0
   55.1230   31.2890   52.1350 N   0  0  0  0  0  0  0  0  0  0  0  0
   56.3630   30.6040   52.3790 C   0  0  0  0  0  0  0  0  0  0  0  0
   56.3890   29.2740   52.8320 C   0  0  0  0  0  0  0  0  0  0  0  0
   57.6070   28.6210   53.0350 C   0  0  0  0  0  0  0  0  0  0  0  0
   58.8100   29.2830   52.7780 C   0  0  0  0  0  0  0  0  0  0  0  0
   58.8030   30.6040   52.3060 C   0  0  0  0  0  0  0  0  0  0  0  0
   60.1040   31.3010   52.0080 C   0  0  0  0  0  0  0  0  0  0  0  0
   60.3630   31.3080   50.5540 N   0  0  0  0  0  0  0  0  0  0  0  0
   59.7610   32.4900   49.8800 C   0  0  0  0  0  0  0  0  0  0  0  0
   60.7800   33.6070   49.6070 C   0  0  0  0  0  0  0  0  0  0  0  0
   61.9560   33.1090   48.7280 C   0  0  0  0  0  0  0  0  0  0  0  0
   61.8620   33.5680   47.2500 C   0  0  0  0  0  0  0  0  0  0  0  0
   60.4750   33.4890   46.6510 C   0  0  0  0  0  0  0  0  0  0  0  0
   59.8360   34.6460   46.1720 C   0  0  0  0  0  0  0  0  0  0  0  0
   58.5510   34.5700   45.6260 C   0  0  0  0  0  0  0  0  0  0  0  0
   57.8990   33.3380   45.5390 C   0  0  0  0  0  0  0  0  0  0  0  0
   56.6530   33.2660   45.0090 F   0  0  0  0  0  0  0  0  0  0  0  0
   58.5340   32.1780   45.9900 C   0  0  0  0  0  0  0  0  0  0  0  0
   59.8190   32.2510   46.5370 C   0  0  0  0  0  0  0  0  0  0  0  0
   62.1810   31.5840   48.8690 C   0  0  0  0  0  0  0  0  0  0  0  0
   61.8100   31.1230   50.2810 C   0  0  0  0  0  0  0  0  0  0  0  0
   57.5760   31.2570   52.1020 C   0  0  0  0  0  0  0  0  0  0  0  0
   52.6070   31.3290   51.8690 C   0  0  0  0  0  0  0  0  0  0  0  0
   51.5750   31.9140   52.5830 C   0  0  0  0  0  0  0  0  0  0  0  0
   50.6020   32.3420   51.7530 N   0  0  0  0  0  0  0  0  0  0  0  0
   51.0280   32.0190   50.5170 C   0  0  0  0  0  0  0  0  0  0  0  0
   50.3000   32.2910   49.3670 O   0  0  0  0  0  0  0  0  0  0  0  0
   52.2550   31.3930   50.5360 C   0  0  0  0  0  0  0  0  0  0  0  0
   55.1710   32.2810   51.8100 H   0  0  0  0  0  0  0  0  0  0  0  0
   55.4450   28.7443   53.0278 H   0  0  0  0  0  0  0  0  0  0  0  0
   57.6189   27.5828   53.3982 H   0  0  0  0  0  0  0  0  0  0  0  0
   59.7665   28.7664   52.9464 H   0  0  0  0  0  0  0  0  0  0  0  0
   60.0514   32.3378   52.3718 H   0  0  0  0  0  0  0  0  0  0  0  0
   60.9204   30.7641   52.5133 H   0  0  0  0  0  0  0  0  0  0  0  0
   59.3307   32.1656   48.9210 H   0  0  0  0  0  0  0  0  0  0  0  0
   58.9953   32.9000   50.5550 H   0  0  0  0  0  0  0  0  0  0  0  0
   60.2723   34.4335   49.0881 H   0  0  0  0  0  0  0  0  0  0  0  0
   61.1904   33.9397   50.5718 H   0  0  0  0  0  0  0  0  0  0  0  0
   62.8571   33.6011   49.1228 H   0  0  0  0  0  0  0  0  0  0  0  0
   62.2007   34.6130   47.1935 H   0  0  0  0  0  0  0  0  0  0  0  0
   62.4912   32.8774   46.6694 H   0  0  0  0  0  0  0  0  0  0  0  0
   60.3500   35.6169   46.2271 H   0  0  0  0  0  0  0  0  0  0  0  0
   58.0530   35.4818   45.2645 H   0  0  0  0  0  0  0  0  0  0  0  0
   58.0229   31.2068   45.9148 H   0  0  0  0  0  0  0  0  0  0  0  0
   60.3197   31.3337   46.8803 H   0  0  0  0  0  0  0  0  0  0  0  0
   61.5528   31.0549   48.1373 H   0  0  0  0  0  0  0  0  0  0  0  0
   63.2420   31.3593   48.6853 H   0  0  0  0  0  0  0  0  0  0  0  0
   62.0594   30.0567   50.3854 H   0  0  0  0  0  0  0  0  0  0  0  0
   62.3764   31.7315   51.0013 H   0  0  0  0  0  0  0  0  0  0  0  0
   57.5647   32.2892   51.7219 H   0  0  0  0  0  0  0  0  0  0  0  0
   51.5519   32.0158   53.6780 H   0  0  0  0  0  0  0  0  0  0  0  0
   52.8304   31.0237   49.6743 H   0  0  0  0  0  0  0  0  0  0  0  0
  1  2  2  0
  2  3  1  0
  3  4  1  0
  4  5  2  0
  5  6  1  0
  6  7  2  0
  7  8  1  0
  8  9  1  0
  9 10  1  0
 10 11  1  0
 11 12  1  0
 12 13  1  0
 13 14  1  0
 14 15  1  0
 15 16  2  0
 16 17  1  0
 17 18  2  0
 18 19  1  0
 18 20  1  0
 20 21  2  0
 13 22  1  0
 22 23  1  0
  8 24  2  0
  2 25  1  0
 25 26  2  0
 26 27  1  0
 27 28  1  0
 28 29  1  0
 28 30  2  0
 24  4  1  0
 30 25  1  0
 23 10  1  0
 21 15  1  0
  3 31  1  0
  5 32  1  0
  6 33  1  0
  7 34  1  0
  9 35  1  0
  9 36  1  0
 11 37  1  0
 11 38  1  0
 12 39  1  0
 12 40  1  0
 13 41  1  0
 14 42  1  0
 14 43  1  0
 16 44  1  0
 17 45  1  0
 20 46  1  0
 21 47  1  0
 22 48  1  0
 22 49  1  0
 23 50  1  0
 23 51  1  0
 24 52  1  0
 26 53  1  0
 30 54  1  0
M  CHG  2  27  -1  29  -1
M  END
>  <UniqueID>  (79) 
77

>  <SMILES>  (79) 
O=C(Nc1cccc(CN2CCC(Cc3ccc(F)cc3)CC2)c1)c1c[n-]c([O-])c1

>  <Energy>  (79) 
94.00150155759964

>  <Genealogy>  (79) 
O=C(Nc1cccc(CN2CCC(Cc3ccc(F)cc3)CC2)c1)c1c[n-]c([O-])c1 (protonated)
O=C(Nc1cccc(CN2CCC(Cc3ccc(F)cc3)CC2)c1)c1c[n-]c([O-])c1 (3D coordinates assigned)
O=C(Nc1cccc(CN2CCC(Cc3ccc(F)cc3)CC2)c1)c1c[n-]c([O-])c1 (nonaromatic ring conformer: 94.00150155759964 kcal/mol)

>  <smiles>  (79) 
O=C(Nc1cccc(CN2CCC(Cc3ccc(F)cc3)CC2)c1)c1c[nH]c(O)c1

>  <score_type>  (79) 
oracle

>  <origin>  (79) 
adg

>  <m_score__min__energy>  (79) 
-15.699999999999999

>  <m_primary>  (79) 
energy

$$$$
79:0
     RDKit          3D

 66 70  0  0  0  0  0  0  0  0999 V2000
   58.1881   31.2385   43.9293 H   0  0  0  0  0  0  0  0  0  0  0  0
   58.1560   30.1820   44.2340 C   0  0  0  0  0  0  0  0  0  0  0  0
   58.0928   29.3914   43.4718 H   0  0  0  0  0  0  0  0  0  0  0  0
   58.1940   29.8570   45.5380 C   0  0  0  0  0  0  0  0  0  0  0  0
   58.1600   28.5540   46.0550 C   0  0  0  0  0  0  0  0  0  0  0  0
   57.8130   27.3800   45.4900 C   0  0  0  0  0  0  0  0  0  0  0  0
   57.9404   27.2930   44.4009 H   0  0  0  0  0  0  0  0  0  0  0  0
   57.2790   26.2030   46.1970 C   0  0  0  0  0  0  0  0  0  0  0  0
   58.0130   25.1600   46.6260 N   0  0  0  0  0  0  0  0  0  0  0  0
   57.0860   24.2890   47.0800 C   0  0  0  0  0  0  0  0  0  0  0  0
   57.3890   23.1790   47.5890 O   0  0  0  0  0  0  0  0  0  0  0  0
   55.8080   24.6990   46.9410 N   0  0  0  0  0  0  0  0  0  0  0  0
   55.9490   25.9060   46.3680 C   0  0  0  0  0  0  0  0  0  0  0  0
   54.8820   26.7160   46.0000 O   0  0  0  0  0  0  0  0  0  0  0  0
   58.5200   28.6600   47.3790 C   0  0  0  0  0  0  0  0  0  0  0  0
   58.6534   27.8290   48.0873 H   0  0  0  0  0  0  0  0  0  0  0  0
   58.6820   29.9990   47.6520 C   0  0  0  0  0  0  0  0  0  0  0  0
   59.0330   30.4670   49.0080 C   0  0  0  0  0  0  0  0  0  0  0  0
   58.3320   30.0620   49.9760 O   0  0  0  0  0  0  0  0  0  0  0  0
   60.2370   31.2400   49.2340 N   0  0  0  0  0  0  0  0  0  0  0  0
   60.6300   30.9510   50.1560 H   0  0  0  0  0  0  0  0  0  0  0  0
   59.9130   32.6820   49.2990 C   0  0  0  0  0  0  0  0  0  0  0  0
   59.2700   32.9412   48.4450 H   0  0  0  0  0  0  0  0  0  0  0  0
   59.4003   32.8744   50.2530 H   0  0  0  0  0  0  0  0  0  0  0  0
   61.1830   33.5580   49.2520 C   0  0  0  0  0  0  0  0  0  0  0  0
   61.2988   33.9709   48.2390 H   0  0  0  0  0  0  0  0  0  0  0  0
   61.0785   34.3695   49.9872 H   0  0  0  0  0  0  0  0  0  0  0  0
   62.3850   32.7620   49.5920 N   0  0  0  0  0  0  0  0  0  0  0  0
   63.5590   33.6600   49.7990 C   0  0  0  0  0  0  0  0  0  0  0  0
   63.3000   34.5625   49.2260 H   0  0  0  0  0  0  0  0  0  0  0  0
   63.7930   33.8480   51.3030 C   0  0  0  0  0  0  0  0  0  0  0  0
   64.2320   34.8374   51.4987 H   0  0  0  0  0  0  0  0  0  0  0  0
   62.8485   33.7879   51.8636 H   0  0  0  0  0  0  0  0  0  0  0  0
   64.7610   32.7470   51.7310 C   0  0  0  0  0  0  0  0  0  0  0  0
   65.5473   33.1645   52.3770 H   0  0  0  0  0  0  0  0  0  0  0  0
   64.2398   31.9633   52.3003 H   0  0  0  0  0  0  0  0  0  0  0  0
   65.3760   32.1790   50.4560 C   0  0  0  0  0  0  0  0  0  0  0  0
   66.4739   32.1854   50.5240 H   0  0  0  0  0  0  0  0  0  0  0  0
   65.0690   31.1363   50.2869 H   0  0  0  0  0  0  0  0  0  0  0  0
   64.9100   33.0890   49.3340 C   0  0  0  0  0  0  0  0  0  0  0  0
   65.6346   33.9006   49.1717 H   0  0  0  0  0  0  0  0  0  0  0  0
   64.8166   32.5463   48.3818 H   0  0  0  0  0  0  0  0  0  0  0  0
   62.5840   31.7130   48.5600 C   0  0  0  0  0  0  0  0  0  0  0  0
   62.9937   32.1811   47.6528 H   0  0  0  0  0  0  0  0  0  0  0  0
   63.2761   30.9623   48.9691 H   0  0  0  0  0  0  0  0  0  0  0  0
   61.2640   30.9960   48.1980 C   0  0  0  0  0  0  0  0  0  0  0  0
   60.8999   31.3754   47.2318 H   0  0  0  0  0  0  0  0  0  0  0  0
   61.4540   29.9143   48.1354 H   0  0  0  0  0  0  0  0  0  0  0  0
   58.4460   30.7540   46.5380 N   0  0  0  0  0  0  0  0  0  0  0  0
   58.4440   32.2310   46.3730 C   0  0  0  0  0  0  0  0  0  0  0  0
   58.2190   32.6278   47.3740 H   0  0  0  0  0  0  0  0  0  0  0  0
   57.3430   32.6920   45.3970 C   0  0  0  0  0  0  0  0  0  0  0  0
   57.5610   32.2965   44.3940 H   0  0  0  0  0  0  0  0  0  0  0  0
   56.3734   32.3144   45.7539 H   0  0  0  0  0  0  0  0  0  0  0  0
   57.2820   34.2250   45.3320 C   0  0  0  0  0  0  0  0  0  0  0  0
   56.5465   34.5219   44.5698 H   0  0  0  0  0  0  0  0  0  0  0  0
   56.9908   34.6021   46.3234 H   0  0  0  0  0  0  0  0  0  0  0  0
   58.6470   34.8250   44.9690 C   0  0  0  0  0  0  0  0  0  0  0  0
   58.9210   34.5054   43.9527 H   0  0  0  0  0  0  0  0  0  0  0  0
   58.5721   35.9211   45.0228 H   0  0  0  0  0  0  0  0  0  0  0  0
   59.7330   34.3620   45.9500 C   0  0  0  0  0  0  0  0  0  0  0  0
   60.7047   34.7668   45.6309 H   0  0  0  0  0  0  0  0  0  0  0  0
   59.4805   34.7270   46.9565 H   0  0  0  0  0  0  0  0  0  0  0  0
   59.8120   32.8300   45.9850 C   0  0  0  0  0  0  0  0  0  0  0  0
   60.1016   32.4589   44.9908 H   0  0  0  0  0  0  0  0  0  0  0  0
   60.5597   32.5277   46.7331 H   0  0  0  0  0  0  0  0  0  0  0  0
  1  2  1  0
  2  3  1  0
  2  4  2  0
  4  5  1  0
  5  6  2  0
  6  7  1  0
  6  8  1  0
  8  9  1  0
  9 10  1  0
 10 11  2  0
 10 12  1  0
 12 13  1  0
 13 14  1  0
  5 15  1  0
 15 16  1  0
 15 17  2  0
 17 18  1  0
 18 19  2  0
 18 20  1  0
 20 21  1  0
 20 22  1  0
 22 23  1  0
 22 24  1  0
 22 25  1  0
 25 26  1  0
 25 27  1  0
 25 28  1  0
 28 29  1  0
 29 30  1  0
 29 31  1  0
 31 32  1  0
 31 33  1  0
 31 34  1  0
 34 35  1  0
 34 36  1  0
 34 37  1  0
 37 38  1  0
 37 39  1  0
 37 40  1  0
 40 41  1  0
 40 42  1  0
 28 43  1  0
 43 44  1  0
 43 45  1  0
 43 46  1  0
 46 47  1  0
 46 48  1  0
 17 49  1  0
 49 50  1  0
 50 51  1  0
 50 52  1  0
 52 53  1  0
 52 54  1  0
 52 55  1  0
 55 56  1  0
 55 57  1  0
 55 58  1  0
 58 59  1  0
 58 60  1  0
 58 61  1  0
 61 62  1  0
 61 63  1  0
 61 64  1  0
 64 65  1  0
 64 66  1  0
 49  4  1  0
 64 50  1  0
 13  8  2  0
 46 20  1  0
 40 29  1  0
M  CHG  4   9  -1  12  -1  14  -1  20   1
M  END
>  <UniqueID>  (80) 
78

>  <SMILES>  (80) 
C=c1/c(=C\c2[n-]c(=O)[n-]c2[O-])cc(C(=O)[NH+]2CCN(C3CCCC3)CC2)n1C1CCCCC1

>  <Energy>  (80) 
162.43696216811335

>  <Genealogy>  (80) 
C=c1c(=Cc2[n-]c(=O)[n-]c2[O-])cc(C(=O)[NH+]2CCN(C3CCCC3)CC2)n1C1CCCCC1 (protonated)
C=c1/c(=C\c2[n-]c(=O)[n-]c2[O-])cc(C(=O)[NH+]2CCN(C3CCCC3)CC2)n1C1CCCCC1 (cis-trans isomerization)
C=c1/c(=C\c2[n-]c(=O)[n-]c2[O-])cc(C(=O)[NH+]2CCN(C3CCCC3)CC2)n1C1CCCCC1 (3D coordinates assigned)
C=c1/c(=C\c2[n-]c(=O)[n-]c2[O-])cc(C(=O)[NH+]2CCN(C3CCCC3)CC2)n1C1CCCCC1 (nonaromatic ring conformer: 162.43696216811335 kcal/mol)

>  <smiles>  (80) 
C=c1c(=Cc2[nH]c(=O)[nH]c2O)cc(C(=O)N2CCN(C3CCCC3)CC2)n1C1CCCCC1

>  <score_type>  (80) 
oracle

>  <origin>  (80) 
adg

>  <m_score__min__energy>  (80) 
-17.129999999999999

>  <m_primary>  (80) 
energy

$$$$
80:0
     RDKit          3D

 45 47  0  0  0  0  0  0  0  0999 V2000
   61.0990   26.9850   47.2960 O   0  0  0  0  0  0  0  0  0  0  0  0
   60.0750   26.8450   46.5740 C   0  0  0  0  0  0  0  0  0  0  0  0
   59.8400   27.7790   45.4170 C   0  0  0  0  0  0  0  0  0  0  0  0
   60.6090   29.4230   45.6760 S   0  0  0  0  0  0  0  0  0  0  0  0
   59.2350   30.1620   46.6290 C   0  0  0  0  0  0  0  0  0  0  0  0
   58.0020   30.2670   45.7830 C   0  0  0  0  0  0  0  0  0  0  0  0
   57.1080   29.2690   45.6600 N   0  0  0  0  0  0  0  0  0  0  0  0
   56.1640   29.7910   44.8530 C   0  0  0  0  0  0  0  0  0  0  0  0
   55.1450   29.1470   44.4940 O   0  0  0  0  0  0  0  0  0  0  0  0
   56.4010   31.0570   44.4570 N   0  0  0  0  0  0  0  0  0  0  0  0
   57.5630   31.3650   45.0630 C   0  0  0  0  0  0  0  0  0  0  0  0
   58.2760   32.6480   44.8920 C   0  0  0  0  0  0  0  0  0  0  0  0
   58.3580   33.6120   45.8220 C   0  0  0  0  0  0  0  0  0  0  0  0
   59.4870   33.8090   46.7570 C   0  0  0  0  0  0  0  0  0  0  0  0
   59.2740   34.0840   48.1210 C   0  0  0  0  0  0  0  0  0  0  0  0
   60.3590   34.2060   48.9950 C   0  0  0  0  0  0  0  0  0  0  0  0
   61.6620   34.0360   48.5200 C   0  0  0  0  0  0  0  0  0  0  0  0
   61.8810   33.7350   47.1730 C   0  0  0  0  0  0  0  0  0  0  0  0
   60.7980   33.6110   46.2970 C   0  0  0  0  0  0  0  0  0  0  0  0
   59.1930   25.7480   46.8450 N   0  0  0  0  0  0  0  0  0  0  0  0
   58.9680   24.6010   45.9690 C   0  0  0  0  0  0  0  0  0  0  0  0
   57.4980   24.4120   45.7060 C   0  0  0  0  0  0  0  0  0  0  0  0
   57.0140   23.2000   45.1870 C   0  0  0  0  0  0  0  0  0  0  0  0
   55.6470   23.0340   44.9460 C   0  0  0  0  0  0  0  0  0  0  0  0
   54.7550   24.0750   45.2170 C   0  0  0  0  0  0  0  0  0  0  0  0
   55.2300   25.2860   45.7270 C   0  0  0  0  0  0  0  0  0  0  0  0
   54.3430   26.3230   45.9940 O   0  0  0  0  0  0  0  0  0  0  0  0
   56.5980   25.4570   45.9700 C   0  0  0  0  0  0  0  0  0  0  0  0
   60.2662   27.3292   44.5081 H   0  0  0  0  0  0  0  0  0  0  0  0
   58.7543   27.9285   45.3228 H   0  0  0  0  0  0  0  0  0  0  0  0
   59.0206   29.5299   47.5034 H   0  0  0  0  0  0  0  0  0  0  0  0
   59.5302   31.1712   46.9519 H   0  0  0  0  0  0  0  0  0  0  0  0
   58.7776   32.8264   43.9294 H   0  0  0  0  0  0  0  0  0  0  0  0
   57.5148   34.3146   45.8951 H   0  0  0  0  0  0  0  0  0  0  0  0
   58.2488   34.2036   48.5014 H   0  0  0  0  0  0  0  0  0  0  0  0
   60.1865   34.4359   50.0568 H   0  0  0  0  0  0  0  0  0  0  0  0
   62.5154   34.1391   49.2063 H   0  0  0  0  0  0  0  0  0  0  0  0
   62.9068   33.5954   46.8012 H   0  0  0  0  0  0  0  0  0  0  0  0
   60.9747   33.3568   45.2415 H   0  0  0  0  0  0  0  0  0  0  0  0
   59.4869   24.7690   45.0138 H   0  0  0  0  0  0  0  0  0  0  0  0
   59.3578   23.6981   46.4618 H   0  0  0  0  0  0  0  0  0  0  0  0
   57.7128   22.3788   44.9695 H   0  0  0  0  0  0  0  0  0  0  0  0
   55.2727   22.0818   44.5421 H   0  0  0  0  0  0  0  0  0  0  0  0
   53.6795   23.9411   45.0289 H   0  0  0  0  0  0  0  0  0  0  0  0
   56.9689   26.4127   46.3689 H   0  0  0  0  0  0  0  0  0  0  0  0
  1  2  2  0
  2  3  1  0
  3  4  1  0
  4  5  1  0
  5  6  1  0
  6  7  1  0
  7  8  1  0
  8  9  2  0
  8 10  1  0
 10 11  1  0
 11 12  1  0
 12 13  2  3
 13 14  1  0
 14 15  2  0
 15 16  1  0
 16 17  2  0
 17 18  1  0
 18 19  2  0
  2 20  1  0
 20 21  1  0
 21 22  1  0
 22 23  2  0
 23 24  1  0
 24 25  2  0
 25 26  1  0
 26 27  1  0
 26 28  2  0
 11  6  2  0
 19 14  1  0
 28 22  1  0
  3 29  1  0
  3 30  1  0
  5 31  1  0
  5 32  1  0
 12 33  1  0
 13 34  1  0
 15 35  1  0
 16 36  1  0
 17 37  1  0
 18 38  1  0
 19 39  1  0
 21 40  1  0
 21 41  1  0
 23 42  1  0
 24 43  1  0
 25 44  1  0
 28 45  1  0
M  CHG  4   7  -1  10  -1  20  -1  27  -1
M  END
>  <UniqueID>  (81) 
79

>  <SMILES>  (81) 
O=C(CSCc1[n-]c(=O)[n-]c1C=Cc1ccccc1)[N-]Cc1cccc([O-])c1

>  <Energy>  (81) 
74.46403168133463

>  <Genealogy>  (81) 
O=C(CSCc1[n-]c(=O)[n-]c1C=Cc1ccccc1)[N-]Cc1cccc([O-])c1 (protonated)
O=C(CSCc1[n-]c(=O)[n-]c1C=Cc1ccccc1)[N-]Cc1cccc([O-])c1 (3D coordinates assigned)
O=C(CSCc1[n-]c(=O)[n-]c1C=Cc1ccccc1)[N-]Cc1cccc([O-])c1 (optimized conformer: 74.46403168133463 kcal/mol)

>  <smiles>  (81) 
O=C(CSCc1[nH]c(=O)[nH]c1C=Cc1ccccc1)NCc1cccc(O)c1

>  <score_type>  (81) 
oracle

>  <origin>  (81) 
adg

>  <m_score__min__energy>  (81) 
-16.370000000000001

>  <m_primary>  (81) 
energy

$$$$
81:0
     RDKit          3D

 41 42  0  0  1  0  0  0  0  0999 V2000
   59.2650   33.6970   52.9560 C   0  0  0  0  0  0  0  0  0  0  0  0
   60.5000   33.2870   52.3990 O   0  0  0  0  0  0  0  0  0  0  0  0
   60.6820   33.4770   51.0330 C   0  0  0  0  0  0  0  0  0  0  0  0
   59.6360   33.8080   50.1970 C   0  0  0  0  0  0  0  0  0  0  0  0
   59.8780   33.9850   48.8510 C   0  0  0  0  0  0  0  0  0  0  0  0
   58.9670   34.2940   47.9940 N   0  0  0  0  0  0  0  0  0  0  0  0
   59.2610   35.2580   46.9830 C   0  0  0  0  0  0  0  0  0  0  0  0
   59.6410   34.6630   45.6460 C   0  0  0  0  0  0  0  0  0  0  0  0
   58.9820   33.3260   45.4500 C   0  0  0  0  0  0  0  0  0  0  0  0
   59.5170   32.1740   45.9960 C   0  0  0  0  0  0  0  0  0  0  0  0
   58.8590   30.9650   45.7780 C   0  0  0  0  0  0  0  0  0  0  0  0
   57.6970   30.8900   45.0380 C   0  0  0  0  0  0  0  0  0  0  0  0
   56.9460   29.3380   44.8190 S   0  0  0  0  0  0  0  0  0  0  0  0
   57.4570   28.5520   43.3640 N   0  0  0  0  0  0  0  0  0  0  0  0
   55.4380   29.4660   44.7120 O   0  0  0  0  0  0  0  0  0  0  0  0
   57.1900   28.4290   45.9970 O   0  0  0  0  0  0  0  0  0  0  0  0
   57.1820   32.0540   44.5030 C   0  0  0  0  0  0  0  0  0  0  0  0
   57.8120   33.2880   44.6980 C   0  0  0  0  0  0  0  0  0  0  0  0
   61.1210   33.8260   48.4040 N   0  0  0  0  0  0  0  0  0  0  0  0
   62.1460   33.5030   49.2110 C   0  0  0  0  0  0  0  0  0  0  0  0
   63.7650   33.3210   48.4830 S   0  0  0  0  0  0  0  0  0  0  0  0
   63.6390   33.3830   46.6850 C   0  0  0  0  0  0  0  0  0  0  0  0
   61.9080   33.3330   50.5200 N   0  0  0  0  0  0  0  0  0  0  0  0
   59.3324   33.6746   54.0537 H   0  0  0  0  0  0  0  0  0  0  0  0
   59.0344   34.7199   52.6236 H   0  0  0  0  0  0  0  0  0  0  0  0
   58.4684   33.0151   52.6236 H   0  0  0  0  0  0  0  0  0  0  0  0
   58.6196   33.9295   50.5997 H   0  0  0  0  0  0  0  0  0  0  0  0
   58.3710   35.8882   46.8389 H   0  0  0  0  0  0  0  0  0  0  0  0
   60.1352   35.8257   47.3345 H   0  0  0  0  0  0  0  0  0  0  0  0
   59.3204   35.3441   44.8439 H   0  0  0  0  0  0  0  0  0  0  0  0
   60.7321   34.5257   45.6184 H   0  0  0  0  0  0  0  0  0  0  0  0
   60.4422   32.2109   46.5898 H   0  0  0  0  0  0  0  0  0  0  0  0
   59.2783   30.0437   46.2085 H   0  0  0  0  0  0  0  0  0  0  0  0
   57.7410   29.2490   42.6350 H   0  0  0  0  0  0  0  0  0  0  0  0
   56.6670   27.9460   43.0580 H   0  0  0  0  0  0  0  0  0  0  0  0
   56.2562   32.0103   43.9105 H   0  0  0  0  0  0  0  0  0  0  0  0
   57.3914   34.2081   44.2662 H   0  0  0  0  0  0  0  0  0  0  0  0
   62.6857   33.8521   46.4002 H   0  0  0  0  0  0  0  0  0  0  0  0
   64.4738   33.9732   46.2791 H   0  0  0  0  0  0  0  0  0  0  0  0
   63.6807   32.3615   46.2791 H   0  0  0  0  0  0  0  0  0  0  0  0
   62.6840   33.0840   51.1570 H   0  0  0  0  0  0  0  0  0  0  0  0
  1  2  1  0
  2  3  1  0
  3  4  2  0
  4  5  1  0
  5  6  2  0
  6  7  1  0
  7  8  1  0
  8  9  1  0
  9 10  2  0
 10 11  1  0
 11 12  2  0
 12 13  1  0
 13 14  1  0
 13 15  2  0
 13 16  2  0
 12 17  1  0
 17 18  2  0
  5 19  1  0
 19 20  2  0
 20 21  1  0
 21 22  1  0
 20 23  1  0
 23  3  1  0
 18  9  1  0
  1 24  1  0
  1 25  1  0
  1 26  1  0
  4 27  1  0
  7 28  1  0
  7 29  1  0
  8 30  1  0
  8 31  1  0
 10 32  1  0
 11 33  1  0
 14 34  1  0
 14 35  1  0
 17 36  1  0
 18 37  1  0
 22 38  1  0
 22 39  1  0
 22 40  1  0
 23 41  1  0
M  END
>  <smiles>  (82) 
COc1cc(=NCCc2ccc(S(N)(=O)=O)cc2)nc(SC)[nH]1

>  <score_type>  (82) 
oracle

>  <origin>  (82) 
adg

>  <m_score__min__energy>  (82) 
-7.5499999999999998

>  <m_primary>  (82) 
energy

$$$$
82:0
     RDKit          3D

 39 42  0  0  0  0  0  0  0  0999 V2000
   59.5260   27.6080   47.5170 C   0  0  0  0  0  0  0  0  0  0  0  0
   58.9670   28.5620   46.7630 C   0  0  0  0  0  0  0  0  0  0  0  0
   59.1810   29.8720   46.9880 N   0  0  0  0  0  0  0  0  0  0  0  0
   58.4840   30.5540   46.0620 C   0  0  0  0  0  0  0  0  0  0  0  0
   58.4540   32.0520   45.9990 C   0  0  0  0  0  0  0  0  0  0  0  0
   59.4960   32.6260   46.9190 C   0  0  0  0  0  0  0  0  0  0  0  0
   59.1520   33.6520   47.8120 C   0  0  0  0  0  0  0  0  0  0  0  0
   60.1300   34.2110   48.6340 C   0  0  0  0  0  0  0  0  0  0  0  0
   61.4490   33.7530   48.5570 C   0  0  0  0  0  0  0  0  0  0  0  0
   62.4540   34.3000   49.3700 C   0  0  0  0  0  0  0  0  0  0  0  0
   63.7660   33.8280   49.2730 C   0  0  0  0  0  0  0  0  0  0  0  0
   64.0830   32.8120   48.3660 C   0  0  0  0  0  0  0  0  0  0  0  0
   63.0890   32.2610   47.5520 C   0  0  0  0  0  0  0  0  0  0  0  0
   61.7660   32.7250   47.6410 C   0  0  0  0  0  0  0  0  0  0  0  0
   60.7900   32.1930   46.8480 N   0  0  0  0  0  0  0  0  0  0  0  0
   57.7880   29.6820   45.2370 C   0  0  0  0  0  0  0  0  0  0  0  0
   56.8680   30.2280   43.6410 Br  0  0  0  0  0  0  0  0  0  0  0  0
   58.0900   28.3910   45.6860 C   0  0  0  0  0  0  0  0  0  0  0  0
   57.6740   27.2080   45.1840 C   0  0  0  0  0  0  0  0  0  0  0  0
   57.1640   26.0820   45.9800 C   0  0  0  0  0  0  0  0  0  0  0  0
   57.8960   25.0180   46.3560 N   0  0  0  0  0  0  0  0  0  0  0  0
   56.9830   24.1940   46.9170 C   0  0  0  0  0  0  0  0  0  0  0  0
   57.2910   23.0790   47.4120 O   0  0  0  0  0  0  0  0  0  0  0  0
   55.7140   24.6540   46.8930 N   0  0  0  0  0  0  0  0  0  0  0  0
   55.8450   25.8430   46.2830 C   0  0  0  0  0  0  0  0  0  0  0  0
   54.7810   26.6900   46.0010 O   0  0  0  0  0  0  0  0  0  0  0  0
   59.3261   26.5482   47.3005 H   0  0  0  0  0  0  0  0  0  0  0  0
   60.1854   27.8837   48.3532 H   0  0  0  0  0  0  0  0  0  0  0  0
   59.7800   30.2880   47.7360 H   0  0  0  0  0  0  0  0  0  0  0  0
   58.6587   32.3775   44.9684 H   0  0  0  0  0  0  0  0  0  0  0  0
   57.4609   32.4069   46.3118 H   0  0  0  0  0  0  0  0  0  0  0  0
   58.1146   34.0142   47.8635 H   0  0  0  0  0  0  0  0  0  0  0  0
   59.8645   35.0104   49.3414 H   0  0  0  0  0  0  0  0  0  0  0  0
   62.2090   35.1004   50.0837 H   0  0  0  0  0  0  0  0  0  0  0  0
   64.5517   34.2571   49.9122 H   0  0  0  0  0  0  0  0  0  0  0  0
   65.1175   32.4453   48.2928 H   0  0  0  0  0  0  0  0  0  0  0  0
   63.3434   31.4621   46.8400 H   0  0  0  0  0  0  0  0  0  0  0  0
   61.0350   31.4360   46.1710 H   0  0  0  0  0  0  0  0  0  0  0  0
   57.7205   27.0766   44.0929 H   0  0  0  0  0  0  0  0  0  0  0  0
  1  2  2  0
  2  3  1  0
  3  4  1  0
  4  5  1  0
  5  6  1  0
  6  7  2  0
  7  8  1  0
  8  9  2  0
  9 10  1  0
 10 11  2  0
 11 12  1  0
 12 13  2  0
 13 14  1  0
 14 15  2  0
  4 16  2  0
 16 17  1  0
 16 18  1  0
 18 19  2  3
 19 20  1  0
 20 21  1  0
 21 22  1  0
 22 23  2  0
 22 24  1  0
 24 25  1  0
 25 26  1  0
 18  2  1  0
 25 20  2  0
 15  6  1  0
 14  9  1  0
  1 27  1  0
  1 28  1  0
  3 29  1  0
  5 30  1  0
  5 31  1  0
  7 32  1  0
  8 33  1  0
 10 34  1  0
 11 35  1  0
 12 36  1  0
 13 37  1  0
 15 38  1  0
 19 39  1  0
M  CHG  4  15   1  21  -1  24  -1  26  -1
M  END
>  <UniqueID>  (83) 
80

>  <SMILES>  (83) 
C=c1[nH]c(Cc2ccc3ccccc3[nH+]2)c(Br)c1=Cc1[n-]c(=O)[n-]c1[O-]

>  <Energy>  (83) 
111.87742585071496

>  <Genealogy>  (83) 
C=c1[nH]c(Cc2ccc3ccccc3[nH+]2)c(Br)c1=Cc1[n-]c(=O)[n-]c1[O-] (protonated)
C=c1[nH]c(Cc2ccc3ccccc3[nH+]2)c(Br)c1=Cc1[n-]c(=O)[n-]c1[O-] (3D coordinates assigned)
C=c1[nH]c(Cc2ccc3ccccc3[nH+]2)c(Br)c1=Cc1[n-]c(=O)[n-]c1[O-] (optimized conformer: 111.87742585071496 kcal/mol)

>  <smiles>  (83) 
C=c1[nH]c(Cc2ccc3ccccc3n2)c(Br)c1=Cc1[nH]c(=O)[nH]c1O

>  <score_type>  (83) 
oracle

>  <origin>  (83) 
adg

>  <m_score__min__energy>  (83) 
-15.18

>  <m_primary>  (83) 
energy

$$$$
83:0
     RDKit          3D

 48 49  0  0  0  0  0  0  0  0999 V2000
   58.7055   34.7049   44.1433 H   0  0  0  0  0  0  0  0  0  0  0  0
   58.3300   33.6880   44.3300 C   0  0  0  0  0  0  0  0  0  0  0  0
   58.0990   32.4910   43.1700 S   0  0  0  0  0  0  0  0  0  0  0  0
   57.5340   31.3760   44.2900 C   0  0  0  0  0  0  0  0  0  0  0  0
   57.2100   30.1550   43.9870 N   0  0  0  0  0  0  0  0  0  0  0  0
   56.3780   29.2970   44.7770 C   0  0  0  0  0  0  0  0  0  0  0  0
   55.1430   29.2520   44.5360 O   0  0  0  0  0  0  0  0  0  0  0  0
   56.9200   28.5790   45.8940 N   0  0  0  0  0  0  0  0  0  0  0  0
   57.2080   27.1740   45.9110 C   0  0  0  0  0  0  0  0  0  0  0  0
   58.5310   26.7020   45.8990 C   0  0  0  0  0  0  0  0  0  0  0  0
   59.3665   27.4150   45.8398 H   0  0  0  0  0  0  0  0  0  0  0  0
   58.7900   25.3300   45.9620 C   0  0  0  0  0  0  0  0  0  0  0  0
   59.8286   24.9680   45.9443 H   0  0  0  0  0  0  0  0  0  0  0  0
   57.7290   24.4090   46.0480 C   0  0  0  0  0  0  0  0  0  0  0  0
   57.9380   23.0240   46.1190 O   0  0  0  0  0  0  0  0  0  0  0  0
   58.3290   22.2130   45.0170 C   0  0  0  0  0  0  0  0  0  0  0  0
   58.7785   21.2806   45.3892 H   0  0  0  0  0  0  0  0  0  0  0  0
   57.4463   21.9757   44.4050 H   0  0  0  0  0  0  0  0  0  0  0  0
   59.0644   22.7558   44.4050 H   0  0  0  0  0  0  0  0  0  0  0  0
   56.4130   24.8850   46.0670 C   0  0  0  0  0  0  0  0  0  0  0  0
   55.5770   24.1735   46.1368 H   0  0  0  0  0  0  0  0  0  0  0  0
   56.1510   26.2580   45.9980 C   0  0  0  0  0  0  0  0  0  0  0  0
   54.8350   26.7060   45.9990 O   0  0  0  0  0  0  0  0  0  0  0  0
   57.5210   31.8780   45.5460 N   0  0  0  0  0  0  0  0  0  0  0  0
   57.9620   33.1650   45.5700 C   0  0  0  0  0  0  0  0  0  0  0  0
   58.0890   33.9310   46.8530 C   0  0  0  0  0  0  0  0  0  0  0  0
   57.9581   33.2380   47.6972 H   0  0  0  0  0  0  0  0  0  0  0  0
   57.3164   34.7139   46.8647 H   0  0  0  0  0  0  0  0  0  0  0  0
   59.4370   34.5960   46.9700 C   0  0  0  0  0  0  0  0  0  0  0  0
   59.5730   35.7550   46.4930 O   0  0  0  0  0  0  0  0  0  0  0  0
   60.5800   33.9180   47.5550 N   0  0  0  0  0  0  0  0  0  0  0  0
   60.9050   34.0810   48.9820 C   0  0  0  0  0  0  0  0  0  0  0  0
   61.1485   35.1356   49.1784 H   0  0  0  0  0  0  0  0  0  0  0  0
   61.7645   33.4385   49.2238 H   0  0  0  0  0  0  0  0  0  0  0  0
   59.7220   33.6680   49.8580 C   0  0  0  0  0  0  0  0  0  0  0  0
   59.9993   33.7648   50.9181 H   0  0  0  0  0  0  0  0  0  0  0  0
   58.8617   34.3190   49.6431 H   0  0  0  0  0  0  0  0  0  0  0  0
   59.4538   32.6231   49.6431 H   0  0  0  0  0  0  0  0  0  0  0  0
   61.4750   33.0720   46.7370 C   0  0  0  0  0  0  0  0  0  0  0  0
   61.1410   33.1478   45.6917 H   0  0  0  0  0  0  0  0  0  0  0  0
   62.9230   33.5750   46.7820 C   0  0  0  0  0  0  0  0  0  0  0  0
   63.2405   33.6853   47.8294 H   0  0  0  0  0  0  0  0  0  0  0  0
   63.5783   32.8518   46.2744 H   0  0  0  0  0  0  0  0  0  0  0  0
   62.9889   34.5487   46.2744 H   0  0  0  0  0  0  0  0  0  0  0  0
   61.3710   31.5980   47.1440 C   0  0  0  0  0  0  0  0  0  0  0  0
   61.3655   31.5201   48.2412 H   0  0  0  0  0  0  0  0  0  0  0  0
   60.4405   31.1712   46.7414 H   0  0  0  0  0  0  0  0  0  0  0  0
   62.2323   31.0448   46.7414 H   0  0  0  0  0  0  0  0  0  0  0  0
  1  2  1  0
  2  3  1  0
  3  4  1  0
  4  5  2  0
  5  6  1  0
  6  7  2  0
  6  8  1  0
  8  9  1  0
  9 10  2  0
 10 11  1  0
 10 12  1  0
 12 13  1  0
 12 14  2  0
 14 15  1  0
 15 16  1  0
 16 17  1  0
 16 18  1  0
 16 19  1  0
 14 20  1  0
 20 21  1  0
 20 22  2  0
 22 23  1  0
  4 24  1  0
 24 25  1  0
 25 26  1  0
 26 27  1  0
 26 28  1  0
 26 29  1  0
 29 30  2  0
 29 31  1  0
 31 32  1  0
 32 33  1  0
 32 34  1  0
 32 35  1  0
 35 36  1  0
 35 37  1  0
 35 38  1  0
 31 39  1  0
 39 40  1  0
 39 41  1  0
 41 42  1  0
 41 43  1  0
 41 44  1  0
 39 45  1  0
 45 46  1  0
 45 47  1  0
 45 48  1  0
 25  2  2  0
 22  9  1  0
M  CHG  3   8  -1  23  -1  24  -1
M  END
>  <UniqueID>  (84) 
81

>  <SMILES>  (84) 
CCN(C(=O)Cc1cs/c(=N/C(=O)[N-]c2ccc(OC)cc2[O-])[n-]1)C(C)C

>  <Energy>  (84) 
75.80139451459435

>  <Genealogy>  (84) 
CCN(C(=O)Cc1csc(=NC(=O)[N-]c2ccc(OC)cc2[O-])[n-]1)C(C)C (protonated)
CCN(C(=O)Cc1cs/c(=N/C(=O)[N-]c2ccc(OC)cc2[O-])[n-]1)C(C)C (cis-trans isomerization)
CCN(C(=O)Cc1cs/c(=N/C(=O)[N-]c2ccc(OC)cc2[O-])[n-]1)C(C)C (3D coordinates assigned)
CCN(C(=O)Cc1cs/c(=N/C(=O)[N-]c2ccc(OC)cc2[O-])[n-]1)C(C)C (optimized conformer: 75.80139451459435 kcal/mol)

>  <smiles>  (84) 
CCN(C(=O)Cc1csc(=NC(=O)Nc2ccc(OC)cc2O)[nH]1)C(C)C

>  <score_type>  (84) 
oracle

>  <origin>  (84) 
adg

>  <m_score__min__energy>  (84) 
-14.470000000000001

>  <m_primary>  (84) 
energy

$$$$
84:0
     RDKit          3D

 59 62  0  0  1  0  0  0  0  0999 V2000
   51.4160   23.1880   46.3030 C   0  0  0  0  0  0  0  0  0  0  0  0
   52.5690   23.5110   45.3840 C   0  0  1  0  0  0  0  0  0  0  0  0
   53.5370   22.4800   45.3680 O   0  0  0  0  0  0  0  0  0  0  0  0
   54.8090   22.8030   44.9150 C   0  0  0  0  0  0  0  0  0  0  0  0
   55.5370   21.9320   44.1880 N   0  0  0  0  0  0  0  0  0  0  0  0
   56.7640   22.2590   43.7580 C   0  0  0  0  0  0  0  0  0  0  0  0
   57.4370   21.4000   43.0610 N   0  0  0  0  0  0  0  0  0  0  0  0
   57.2920   23.4740   44.0490 N   0  0  0  0  0  0  0  0  0  0  0  0
   56.6190   24.3970   44.7750 C   0  0  0  0  0  0  0  0  0  0  0  0
   57.2240   25.6630   45.0550 N   0  0  0  0  0  0  0  0  0  0  0  0
   57.1720   26.0940   46.4270 C   0  0  0  0  0  0  0  0  0  0  0  0
   57.7130   27.4820   46.6790 C   0  0  0  0  0  0  0  0  0  0  0  0
   57.4710   28.2700   45.4300 C   0  0  0  0  0  0  0  0  0  0  0  0
   57.4450   29.7090   45.5360 C   0  0  0  0  0  0  0  0  0  0  0  0
   56.5210   30.3300   44.8740 O   0  0  0  0  0  0  0  0  0  0  0  0
   58.3200   30.5810   46.2930 C   0  0  0  0  0  0  0  0  0  0  0  0
   58.1660   31.9620   46.1390 C   0  0  0  0  0  0  0  0  0  0  0  0
   58.9860   32.8570   46.8360 C   0  0  0  0  0  0  0  0  0  0  0  0
   59.9570   32.4210   47.6810 C   0  0  0  0  0  0  0  0  0  0  0  0
   60.9840   33.5250   48.5540 S   0  0  0  0  0  0  0  0  0  0  0  0
   60.9700   33.2060   50.0060 O   0  0  0  0  0  0  0  0  0  0  0  0
   60.5010   34.9590   48.4070 O   0  0  0  0  0  0  0  0  0  0  0  0
   62.6440   33.4650   47.9530 C   0  0  0  0  0  0  0  0  0  0  0  0
   62.9560   33.5710   46.5160 C   0  0  0  0  0  0  0  0  0  0  0  0
   63.0990   32.2380   47.1530 C   0  0  0  0  0  0  0  0  0  0  0  0
   60.1250   31.0720   47.8460 C   0  0  0  0  0  0  0  0  0  0  0  0
   59.3070   30.1780   47.1510 C   0  0  0  0  0  0  0  0  0  0  0  0
   58.4060   27.6930   44.3860 C   0  0  0  0  0  0  0  0  0  0  0  0
   57.8150   26.3640   43.9510 C   0  0  0  0  0  0  0  0  0  0  0  0
   55.3640   24.0440   45.2050 C   0  0  0  0  0  0  0  0  0  0  0  0
   54.6040   24.8840   45.9340 F   0  0  0  0  0  0  0  0  0  0  0  0
   51.9710   23.7220   43.9910 C   0  0  0  0  0  0  0  0  0  0  0  0
   52.9450   23.7170   43.0380 F   0  0  0  0  0  0  0  0  0  0  0  0
   51.0830   22.6520   43.8040 F   0  0  0  0  0  0  0  0  0  0  0  0
   51.2230   24.8890   44.0130 F   0  0  0  0  0  0  0  0  0  0  0  0
   51.7439   23.2799   47.3490 H   0  0  0  0  0  0  0  0  0  0  0  0
   50.5896   23.8892   46.1149 H   0  0  0  0  0  0  0  0  0  0  0  0
   51.0742   22.1595   46.1149 H   0  0  0  0  0  0  0  0  0  0  0  0
   53.0949   24.4116   45.7337 H   0  0  0  0  0  0  0  0  0  0  0  0
   57.4550   20.4140   43.3780 H   0  0  0  0  0  0  0  0  0  0  0  0
   58.2550   23.6390   43.6710 H   0  0  0  0  0  0  0  0  0  0  0  0
   56.1214   26.0726   46.7523 H   0  0  0  0  0  0  0  0  0  0  0  0
   57.8169   25.4045   46.9915 H   0  0  0  0  0  0  0  0  0  0  0  0
   57.1882   27.9454   47.5275 H   0  0  0  0  0  0  0  0  0  0  0  0
   58.7844   27.4507   46.9263 H   0  0  0  0  0  0  0  0  0  0  0  0
   56.4208   28.1459   45.1273 H   0  0  0  0  0  0  0  0  0  0  0  0
   57.3909   32.3500   45.4618 H   0  0  0  0  0  0  0  0  0  0  0  0
   58.8411   33.9385   46.6966 H   0  0  0  0  0  0  0  0  0  0  0  0
   62.9792   34.0043   48.8512 H   0  0  0  0  0  0  0  0  0  0  0  0
   62.1433   33.7441   45.7951 H   0  0  0  0  0  0  0  0  0  0  0  0
   63.6287   34.2111   45.9264 H   0  0  0  0  0  0  0  0  0  0  0  0
   62.3865   31.4330   46.9198 H   0  0  0  0  0  0  0  0  0  0  0  0
   63.9023   31.4922   47.2453 H   0  0  0  0  0  0  0  0  0  0  0  0
   60.9030   30.6929   48.5249 H   0  0  0  0  0  0  0  0  0  0  0  0
   59.4636   29.0995   47.3004 H   0  0  0  0  0  0  0  0  0  0  0  0
   58.4788   28.3744   43.5255 H   0  0  0  0  0  0  0  0  0  0  0  0
   59.4182   27.5587   44.7952 H   0  0  0  0  0  0  0  0  0  0  0  0
   57.0422   26.5487   43.1903 H   0  0  0  0  0  0  0  0  0  0  0  0
   58.6264   25.7431   43.5434 H   0  0  0  0  0  0  0  0  0  0  0  0
  1  2  1  0
  2  3  1  0
  3  4  1  0
  4  5  2  0
  5  6  1  0
  6  7  2  3
  6  8  1  0
  8  9  1  0
  9 10  1  0
 10 11  1  0
 11 12  1  0
 12 13  1  0
 13 14  1  0
 14 15  2  0
 14 16  1  0
 16 17  2  0
 17 18  1  0
 18 19  2  0
 19 20  1  0
 20 21  2  0
 20 22  2  0
 20 23  1  0
 23 24  1  0
 24 25  1  0
 19 26  1  0
 26 27  2  0
 13 28  1  0
 28 29  1  0
  9 30  2  0
 30 31  1  0
  2 32  1  0
 32 33  1  0
 32 34  1  0
 32 35  1  0
 30  4  1  0
 29 10  1  0
 27 16  1  0
 25 23  1  0
  1 36  1  0
  1 37  1  0
  1 38  1  0
  2 39  1  1
  7 40  1  0
  8 41  1  0
 11 42  1  0
 11 43  1  0
 12 44  1  0
 12 45  1  0
 13 46  1  0
 17 47  1  0
 18 48  1  0
 23 49  1  0
 24 50  1  0
 24 51  1  0
 25 52  1  0
 25 53  1  0
 26 54  1  0
 27 55  1  0
 28 56  1  0
 28 57  1  0
 29 58  1  0
 29 59  1  0
M  END
>  <smiles>  (85) 
CC(Oc1nc(=N)[nH]c(N2CCC(C(=O)c3ccc(S(=O)(=O)C4CC4)cc3)CC2)c1F)C(F)(F)F

>  <score_type>  (85) 
oracle

>  <origin>  (85) 
adg

>  <m_score__min__energy>  (85) 
-9.4800000000000004

>  <m_primary>  (85) 
energy

$$$$
85:0
     RDKit          3D

 37 39  0  0  0  0  0  0  0  0999 V2000
   56.7110   29.5780   43.9810 O   0  0  0  0  0  0  0  0  0  0  0  0
   57.2230   30.2800   44.8970 C   0  0  0  0  0  0  0  0  0  0  0  0
   57.0190   31.6180   44.8890 N   0  0  0  0  0  0  0  0  0  0  0  0
   57.5340   32.4330   45.8400 C   0  0  0  0  0  0  0  0  0  0  0  0
   57.2070   33.7900   45.7650 O   0  0  0  0  0  0  0  0  0  0  0  0
   58.3500   31.8850   46.8580 C   0  0  0  0  0  0  0  0  0  0  0  0
   59.0390   32.7380   47.9170 C   0  0  0  0  0  0  0  0  0  0  0  0
   60.5210   32.9080   47.6410 C   0  0  0  0  0  0  0  0  0  0  0  0
   61.4370   32.1100   48.3510 C   0  0  0  0  0  0  0  0  0  0  0  0
   62.8040   32.1770   48.0760 C   0  0  0  0  0  0  0  0  0  0  0  0
   63.2770   33.0380   47.0880 C   0  0  0  0  0  0  0  0  0  0  0  0
   62.3870   33.8460   46.3810 C   0  0  0  0  0  0  0  0  0  0  0  0
   61.0090   33.8080   46.6560 C   0  0  0  0  0  0  0  0  0  0  0  0
   60.1290   34.6790   45.9300 N   0  0  0  0  0  0  0  0  0  0  0  0
   59.5930   35.6480   46.5080 O   0  0  0  0  0  0  0  0  0  0  0  0
   59.6840   34.3240   44.6790 O   0  0  0  0  0  0  0  0  0  0  0  0
   58.5040   30.4800   46.8800 C   0  0  0  0  0  0  0  0  0  0  0  0
   59.1650   29.9390   47.8110 O   0  0  0  0  0  0  0  0  0  0  0  0
   57.9510   29.7010   45.8980 N   0  0  0  0  0  0  0  0  0  0  0  0
   58.1430   28.2710   45.9150 C   0  0  0  0  0  0  0  0  0  0  0  0
   59.4380   27.7290   45.9100 C   0  0  0  0  0  0  0  0  0  0  0  0
   59.6220   26.3430   45.9280 C   0  0  0  0  0  0  0  0  0  0  0  0
   58.5150   25.4900   45.9540 C   0  0  0  0  0  0  0  0  0  0  0  0
   57.2220   26.0220   45.9590 C   0  0  0  0  0  0  0  0  0  0  0  0
   57.0350   27.4070   45.9410 C   0  0  0  0  0  0  0  0  0  0  0  0
   57.8780   34.5450   45.7770 H   0  0  0  0  0  0  0  0  0  0  0  0
   58.5659   33.7309   47.9350 H   0  0  0  0  0  0  0  0  0  0  0  0
   58.9324   32.2260   48.8847 H   0  0  0  0  0  0  0  0  0  0  0  0
   61.0719   31.4259   49.1312 H   0  0  0  0  0  0  0  0  0  0  0  0
   63.5090   31.5489   48.6404 H   0  0  0  0  0  0  0  0  0  0  0  0
   64.3534   33.0805   46.8654 H   0  0  0  0  0  0  0  0  0  0  0  0
   62.7674   34.5204   45.5997 H   0  0  0  0  0  0  0  0  0  0  0  0
   60.3115   28.3974   45.8918 H   0  0  0  0  0  0  0  0  0  0  0  0
   60.6389   25.9236   45.9217 H   0  0  0  0  0  0  0  0  0  0  0  0
   58.6611   24.3999   45.9705 H   0  0  0  0  0  0  0  0  0  0  0  0
   56.3513   25.3500   45.9771 H   0  0  0  0  0  0  0  0  0  0  0  0
   56.0165   27.8224   45.9472 H   0  0  0  0  0  0  0  0  0  0  0  0
  1  2  2  0
  2  3  1  0
  3  4  1  0
  4  5  1  0
  4  6  2  0
  6  7  1  0
  7  8  1  0
  8  9  2  0
  9 10  1  0
 10 11  2  0
 11 12  1  0
 12 13  2  0
 13 14  1  0
 14 15  2  0
 14 16  1  0
  6 17  1  0
 17 18  2  0
 17 19  1  0
 19 20  1  0
 20 21  2  0
 21 22  1  0
 22 23  2  0
 23 24  1  0
 24 25  2  0
 19  2  1  0
 25 20  1  0
 13  8  1  0
  5 26  1  0
  7 27  1  0
  7 28  1  0
  9 29  1  0
 10 30  1  0
 11 31  1  0
 12 32  1  0
 21 33  1  0
 22 34  1  0
 23 35  1  0
 24 36  1  0
 25 37  1  0
M  CHG  3   3  -1  14   1  16  -1
M  END
>  <UniqueID>  (86) 
82

>  <SMILES>  (86) 
O=c1[n-]c(O)c(Cc2ccccc2[N+](=O)[O-])c(=O)n1-c1ccccc1

>  <Energy>  (86) 
62.21152994795391

>  <Genealogy>  (86) 
O=c1[n-]c(O)c(Cc2ccccc2[N+](=O)[O-])c(=O)n1-c1ccccc1 (protonated)
O=c1[n-]c(O)c(Cc2ccccc2[N+](=O)[O-])c(=O)n1-c1ccccc1 (3D coordinates assigned)
O=c1[n-]c(O)c(Cc2ccccc2[N+](=O)[O-])c(=O)n1-c1ccccc1 (optimized conformer: 62.21152994795391 kcal/mol)

>  <smiles>  (86) 
O=c1[nH]c(O)c(Cc2ccccc2[N+](=O)[O-])c(=O)n1-c1ccccc1

>  <score_type>  (86) 
oracle

>  <origin>  (86) 
adg

>  <m_score__min__energy>  (86) 
-9.5800000000000001

>  <m_primary>  (86) 
energy

$$$$
86:0
     RDKit          3D

 45 46  0  0  0  0  0  0  0  0999 V2000
   58.9400   28.2350   48.5060 C   0  0  0  0  0  0  0  0  0  0  0  0
   59.7180   29.4920   48.2440 C   0  0  0  0  0  0  0  0  0  0  0  0
   60.6810   29.5160   47.2270 C   0  0  0  0  0  0  0  0  0  0  0  0
   61.4170   30.6780   46.9780 C   0  0  0  0  0  0  0  0  0  0  0  0
   61.2030   31.8270   47.7530 C   0  0  0  0  0  0  0  0  0  0  0  0
   62.1250   33.2980   47.4580 S   0  0  0  0  0  0  0  0  0  0  0  0
   62.0170   34.2310   48.6330 O   0  0  0  0  0  0  0  0  0  0  0  0
   63.5710   32.9300   47.2770 O   0  0  0  0  0  0  0  0  0  0  0  0
   61.5580   34.0830   46.0110 N   0  0  0  0  0  0  0  0  0  0  0  0
   60.4220   34.9630   46.2890 C   0  0  0  0  0  0  0  0  0  0  0  0
   59.1680   34.1730   46.5190 C   0  0  0  0  0  0  0  0  0  0  0  0
   58.2790   34.6300   47.2880 O   0  0  0  0  0  0  0  0  0  0  0  0
   58.9700   32.9200   45.8510 N   0  0  0  0  0  0  0  0  0  0  0  0
   57.7620   32.1250   46.0700 C   0  0  0  0  0  0  0  0  0  0  0  0
   57.9050   30.7390   45.4930 C   0  0  0  0  0  0  0  0  0  0  0  0
   58.8950   30.4770   44.7600 O   0  0  0  0  0  0  0  0  0  0  0  0
   56.9080   29.7280   45.6850 N   0  0  0  0  0  0  0  0  0  0  0  0
   56.6660   28.6170   44.7750 C   0  0  0  0  0  0  0  0  0  0  0  0
   57.1410   27.3380   45.4050 C   0  0  0  0  0  0  0  0  0  0  0  0
   58.5160   27.0510   45.4520 C   0  0  0  0  0  0  0  0  0  0  0  0
   58.9720   25.8760   46.0580 C   0  0  0  0  0  0  0  0  0  0  0  0
   58.0610   24.9850   46.6310 C   0  0  0  0  0  0  0  0  0  0  0  0
   56.6940   25.2690   46.6040 C   0  0  0  0  0  0  0  0  0  0  0  0
   56.2290   26.4430   46.0000 C   0  0  0  0  0  0  0  0  0  0  0  0
   54.8650   26.7130   45.9960 O   0  0  0  0  0  0  0  0  0  0  0  0
   60.2520   31.8000   48.7800 C   0  0  0  0  0  0  0  0  0  0  0  0
   59.5110   30.6400   49.0250 C   0  0  0  0  0  0  0  0  0  0  0  0
   58.8452   28.0819   49.5912 H   0  0  0  0  0  0  0  0  0  0  0  0
   57.9387   28.3237   48.0594 H   0  0  0  0  0  0  0  0  0  0  0  0
   59.4661   27.3784   48.0594 H   0  0  0  0  0  0  0  0  0  0  0  0
   60.8590   28.6154   46.6210 H   0  0  0  0  0  0  0  0  0  0  0  0
   62.1658   30.6912   46.1723 H   0  0  0  0  0  0  0  0  0  0  0  0
   60.6409   35.5585   47.1876 H   0  0  0  0  0  0  0  0  0  0  0  0
   60.2669   35.6174   45.4185 H   0  0  0  0  0  0  0  0  0  0  0  0
   59.7300   32.5620   45.2300 H   0  0  0  0  0  0  0  0  0  0  0  0
   57.5768   32.0454   47.1514 H   0  0  0  0  0  0  0  0  0  0  0  0
   56.9216   32.6252   45.5665 H   0  0  0  0  0  0  0  0  0  0  0  0
   55.5888   28.5437   44.5648 H   0  0  0  0  0  0  0  0  0  0  0  0
   57.2132   28.7874   43.8361 H   0  0  0  0  0  0  0  0  0  0  0  0
   59.2372   27.7542   45.0099 H   0  0  0  0  0  0  0  0  0  0  0  0
   60.0489   25.6531   46.0836 H   0  0  0  0  0  0  0  0  0  0  0  0
   58.4208   24.0592   47.1037 H   0  0  0  0  0  0  0  0  0  0  0  0
   55.9797   24.5672   47.0593 H   0  0  0  0  0  0  0  0  0  0  0  0
   60.0870   32.6956   49.3970 H   0  0  0  0  0  0  0  0  0  0  0  0
   58.7637   30.6268   49.8320 H   0  0  0  0  0  0  0  0  0  0  0  0
  1  2  1  0
  2  3  2  0
  3  4  1  0
  4  5  2  0
  5  6  1  0
  6  7  2  0
  6  8  2  0
  6  9  1  0
  9 10  1  0
 10 11  1  0
 11 12  2  0
 11 13  1  0
 13 14  1  0
 14 15  1  0
 15 16  2  0
 15 17  1  0
 17 18  1  0
 18 19  1  0
 19 20  2  0
 20 21  1  0
 21 22  2  0
 22 23  1  0
 23 24  2  0
 24 25  1  0
  5 26  1  0
 26 27  2  0
 27  2  1  0
 24 19  1  0
  1 28  1  0
  1 29  1  0
  1 30  1  0
  3 31  1  0
  4 32  1  0
 10 33  1  0
 10 34  1  0
 13 35  1  0
 14 36  1  0
 14 37  1  0
 18 38  1  0
 18 39  1  0
 20 40  1  0
 21 41  1  0
 22 42  1  0
 23 43  1  0
 26 44  1  0
 27 45  1  0
M  CHG  3   9  -1  17  -1  25  -1
M  END
>  <UniqueID>  (87) 
83

>  <SMILES>  (87) 
Cc1ccc(S(=O)(=O)[N-]CC(=O)NCC(=O)[N-]Cc2ccccc2[O-])cc1

>  <Energy>  (87) 
34.96517082879287

>  <Genealogy>  (87) 
Cc1ccc(S(=O)(=O)[N-]CC(=O)NCC(=O)[N-]Cc2ccccc2[O-])cc1 (protonated)
Cc1ccc(S(=O)(=O)[N-]CC(=O)NCC(=O)[N-]Cc2ccccc2[O-])cc1 (3D coordinates assigned)
Cc1ccc(S(=O)(=O)[N-]CC(=O)NCC(=O)[N-]Cc2ccccc2[O-])cc1 (optimized conformer: 34.96517082879287 kcal/mol)

>  <smiles>  (87) 
Cc1ccc(S(=O)(=O)NCC(=O)NCC(=O)NCc2ccccc2O)cc1

>  <score_type>  (87) 
oracle

>  <origin>  (87) 
adg

>  <m_score__min__energy>  (87) 
-13.800000000000001

>  <m_primary>  (87) 
energy

$$$$
