0:0
     RDKit          3D

 45 47  0  0  0  0  0  0  0  0999 V2000
   57.9740   32.3270   41.1630 C   0  0  0  0  0  0  0  0  0  0  0  0
   57.5770   32.0220   42.5730 C   0  0  0  0  0  0  0  0  0  0  0  0
   57.0150   30.7830   42.9000 C   0  0  0  0  0  0  0  0  0  0  0  0
   56.6750   30.5380   44.2290 C   0  0  0  0  0  0  0  0  0  0  0  0
   56.8980   31.4880   45.1720 N   0  0  0  0  0  0  0  0  0  0  0  0
   57.4510   32.6890   44.8440 C   0  0  0  0  0  0  0  0  0  0  0  0
   57.6610   33.5970   45.7470 N   0  0  0  0  0  0  0  0  0  0  0  0
   59.0750   33.6530   46.7500 S   0  0  0  0  0  0  0  0  0  0  0  0
   59.1410   34.9850   47.4380 O   0  0  0  0  0  0  0  0  0  0  0  0
   60.3020   33.4930   45.8960 O   0  0  0  0  0  0  0  0  0  0  0  0
   58.9910   32.3810   47.9660 C   0  0  0  0  0  0  0  0  0  0  0  0
   58.8710   32.7220   49.3190 C   0  0  0  0  0  0  0  0  0  0  0  0
   58.7920   31.7220   50.2900 C   0  0  0  0  0  0  0  0  0  0  0  0
   58.8170   30.3760   49.9150 C   0  0  0  0  0  0  0  0  0  0  0  0
   58.9110   30.0180   48.5580 C   0  0  0  0  0  0  0  0  0  0  0  0
   58.9560   28.6410   48.1470 N   0  0  0  0  0  0  0  0  0  0  0  0
   59.0260   28.2200   46.7750 C   0  0  0  0  0  0  0  0  0  0  0  0
   59.4650   29.0160   45.8990 O   0  0  0  0  0  0  0  0  0  0  0  0
   58.6380   26.8440   46.3810 C   0  0  0  0  0  0  0  0  0  0  0  0
   59.6260   25.8980   46.0500 C   0  0  0  0  0  0  0  0  0  0  0  0
   59.2660   24.6030   45.6700 C   0  0  0  0  0  0  0  0  0  0  0  0
   57.9210   24.2350   45.6110 C   0  0  0  0  0  0  0  0  0  0  0  0
   56.9240   25.1650   45.9340 C   0  0  0  0  0  0  0  0  0  0  0  0
   55.2250   24.7150   45.8330 S   0  0  0  0  0  0  0  0  0  0  0  0
   54.9880   23.6500   44.4920 N   0  0  0  0  0  0  0  0  0  0  0  0
   54.3850   25.9480   45.6500 O   0  0  0  0  0  0  0  0  0  0  0  0
   54.8010   24.0260   47.0980 O   0  0  0  0  0  0  0  0  0  0  0  0
   57.2840   26.4670   46.3090 C   0  0  0  0  0  0  0  0  0  0  0  0
   59.0150   31.0300   47.5900 C   0  0  0  0  0  0  0  0  0  0  0  0
   57.7870   32.9430   43.5520 N   0  0  0  0  0  0  0  0  0  0  0  0
   58.8463   32.9972   41.1645 H   0  0  0  0  0  0  0  0  0  0  0  0
   58.2310   31.3918   40.6440 H   0  0  0  0  0  0  0  0  0  0  0  0
   57.1366   32.8163   40.6440 H   0  0  0  0  0  0  0  0  0  0  0  0
   56.8455   30.0201   42.1259 H   0  0  0  0  0  0  0  0  0  0  0  0
   56.2260   29.5749   44.5136 H   0  0  0  0  0  0  0  0  0  0  0  0
   58.8389   33.7803   49.6174 H   0  0  0  0  0  0  0  0  0  0  0  0
   58.7099   31.9942   51.3526 H   0  0  0  0  0  0  0  0  0  0  0  0
   58.7629   29.5924   50.6851 H   0  0  0  0  0  0  0  0  0  0  0  0
   59.0580   27.9140   48.8900 H   0  0  0  0  0  0  0  0  0  0  0  0
   60.6884   26.1802   46.0908 H   0  0  0  0  0  0  0  0  0  0  0  0
   60.0459   23.8700   45.4161 H   0  0  0  0  0  0  0  0  0  0  0  0
   57.6434   23.2139   45.3106 H   0  0  0  0  0  0  0  0  0  0  0  0
   54.0800   23.9160   44.0490 H   0  0  0  0  0  0  0  0  0  0  0  0
   56.5007   27.2009   46.5493 H   0  0  0  0  0  0  0  0  0  0  0  0
   59.1161   30.7610   46.5282 H   0  0  0  0  0  0  0  0  0  0  0  0
  1  2  1  0
  2  3  1  0
  3  4  2  0
  4  5  1  0
  5  6  1  0
  6  7  2  3
  7  8  1  0
  8  9  2  0
  8 10  2  0
  8 11  1  0
 11 12  2  0
 12 13  1  0
 13 14  2  0
 14 15  1  0
 15 16  1  0
 16 17  1  0
 17 18  2  0
 17 19  1  0
 19 20  2  0
 20 21  1  0
 21 22  2  0
 22 23  1  0
 23 24  1  0
 24 25  1  0
 24 26  2  0
 24 27  2  0
 23 28  2  0
 15 29  2  0
  6 30  1  0
 30  2  2  0
 29 11  1  0
 28 19  1  0
  1 31  1  0
  1 32  1  0
  1 33  1  0
  3 34  1  0
  4 35  1  0
 12 36  1  0
 13 37  1  0
 14 38  1  0
 16 39  1  0
 20 40  1  0
 21 41  1  0
 22 42  1  0
 25 43  1  0
 28 44  1  0
 29 45  1  0
M  CHG  2   5  -1  25  -1
M  END
>  <UniqueID>  (1) 
1

>  <SMILES>  (1) 
Cc1cc[n-]c(=NS(=O)(=O)c2cccc(NC(=O)c3cccc(S([NH-])(=O)=O)c3)c2)n1

>  <Energy>  (1) 
55.37925476588028

>  <Genealogy>  (1) 
Cc1cc[n-]c(=NS(=O)(=O)c2cccc(NC(=O)c3cccc(S([NH-])(=O)=O)c3)c2)n1 (protonated)
Cc1cc[n-]c(=NS(=O)(=O)c2cccc(NC(=O)c3cccc(S([NH-])(=O)=O)c3)c2)n1 (3D coordinates assigned)
Cc1cc[n-]c(=NS(=O)(=O)c2cccc(NC(=O)c3cccc(S([NH-])(=O)=O)c3)c2)n1 (optimized conformer: 55.37925476588028 kcal/mol)

>  <smiles>  (1) 
Cc1cc[nH]c(=NS(=O)(=O)c2cccc(NC(=O)c3cccc(S(N)(=O)=O)c3)c2)n1

>  <score_type>  (1) 
oracle

>  <origin>  (1) 
adg

>  <m_score__min__energy>  (1) 
-13.65

>  <m_primary>  (1) 
energy

$$$$
1:0
     RDKit          3D

 42 44  0  0  1  0  0  0  0  0999 V2000
   57.1290   20.2840   44.9880 N   0  0  0  0  0  0  0  0  0  0  0  0
   57.1220   21.5600   43.7920 S   0  0  0  0  0  0  0  0  0  0  0  0
   56.2670   21.2290   42.6250 O   0  0  0  0  0  0  0  0  0  0  0  0
   58.5500   21.8540   43.4250 O   0  0  0  0  0  0  0  0  0  0  0  0
   56.5090   22.9700   44.6730 C   0  0  0  0  0  0  0  0  0  0  0  0
   55.1550   23.2310   44.5290 C   0  0  0  0  0  0  0  0  0  0  0  0
   54.6160   24.3200   45.1930 C   0  0  0  0  0  0  0  0  0  0  0  0
   55.4350   25.1130   45.9770 C   0  0  0  0  0  0  0  0  0  0  0  0
   56.7830   24.8500   46.1170 C   0  0  0  0  0  0  0  0  0  0  0  0
   57.6530   25.6470   46.9160 N   0  0  0  0  0  0  0  0  0  0  0  0
   58.3820   26.5740   46.4440 C   0  0  0  0  0  0  0  0  0  0  0  0
   57.9110   27.3900   45.4410 C   0  0  0  0  0  0  0  0  0  0  0  0
   58.6630   28.4180   44.8870 C   0  0  0  0  0  0  0  0  0  0  0  0
   58.1080   29.2220   43.8690 N   0  0  0  0  0  0  0  0  0  0  0  0
   57.0220   30.5220   44.0780 S   0  0  0  0  0  0  0  0  0  0  0  0
   56.5270   30.9550   42.7010 O   0  0  0  0  0  0  0  0  0  0  0  0
   55.8360   29.9840   44.8500 O   0  0  0  0  0  0  0  0  0  0  0  0
   57.6880   31.8790   44.9380 C   0  0  0  0  0  0  0  0  0  0  0  0
   58.1570   31.8480   46.2240 C   0  0  0  0  0  0  0  0  0  0  0  0
   58.6850   32.9840   46.8400 C   0  0  0  0  0  0  0  0  0  0  0  0
   58.7500   34.1800   46.1670 C   0  0  0  0  0  0  0  0  0  0  0  0
   59.2550   35.3030   46.7320 F   0  0  0  0  0  0  0  0  0  0  0  0
   58.2740   34.2170   44.8610 C   0  0  0  0  0  0  0  0  0  0  0  0
   57.7580   33.0860   44.2690 C   0  0  0  0  0  0  0  0  0  0  0  0
   59.8950   28.5730   45.3990 N   0  0  0  0  0  0  0  0  0  0  0  0
   60.3920   27.7910   46.3840 C   0  0  0  0  0  0  0  0  0  0  0  0
   59.6360   26.7980   46.9030 N   0  0  0  0  0  0  0  0  0  0  0  0
   57.3250   23.7490   45.4450 C   0  0  0  0  0  0  0  0  0  0  0  0
   56.8860   19.4120   44.4500 H   0  0  0  0  0  0  0  0  0  0  0  0
   58.1380   20.1160   45.2730 H   0  0  0  0  0  0  0  0  0  0  0  0
   54.5224   22.5867   43.9007 H   0  0  0  0  0  0  0  0  0  0  0  0
   53.5451   24.5528   45.0979 H   0  0  0  0  0  0  0  0  0  0  0  0
   55.0005   25.9760   46.5028 H   0  0  0  0  0  0  0  0  0  0  0  0
   56.8928   27.2205   45.0608 H   0  0  0  0  0  0  0  0  0  0  0  0
   58.4050   28.9860   42.8790 H   0  0  0  0  0  0  0  0  0  0  0  0
   58.1167   30.9035   46.7863 H   0  0  0  0  0  0  0  0  0  0  0  0
   59.0528   32.9209   47.8748 H   0  0  0  0  0  0  0  0  0  0  0  0
   58.3100   35.1595   44.2950 H   0  0  0  0  0  0  0  0  0  0  0  0
   57.3909   33.1450   43.2337 H   0  0  0  0  0  0  0  0  0  0  0  0
   60.5140   29.3190   45.0480 H   0  0  0  0  0  0  0  0  0  0  0  0
   61.4104   27.9629   46.7624 H   0  0  0  0  0  0  0  0  0  0  0  0
   58.3954   23.5129   45.5368 H   0  0  0  0  0  0  0  0  0  0  0  0
  1  2  1  0
  2  3  2  0
  2  4  2  0
  2  5  1  0
  5  6  2  0
  6  7  1  0
  7  8  2  0
  8  9  1  0
  9 10  1  0
 10 11  2  0
 11 12  1  0
 12 13  2  0
 13 14  1  0
 14 15  1  0
 15 16  2  0
 15 17  2  0
 15 18  1  0
 18 19  2  0
 19 20  1  0
 20 21  2  0
 21 22  1  0
 21 23  1  0
 23 24  2  0
 13 25  1  0
 25 26  1  0
 26 27  2  0
  9 28  2  0
 28  5  1  0
 27 11  1  0
 24 18  1  0
  1 29  1  0
  1 30  1  0
  6 31  1  0
  7 32  1  0
  8 33  1  0
 12 34  1  0
 14 35  1  0
 19 36  1  0
 20 37  1  0
 23 38  1  0
 24 39  1  0
 25 40  1  0
 26 41  1  0
 28 42  1  0
M  END
>  <smiles>  (2) 
NS(=O)(=O)c1cccc(N=c2cc(NS(=O)(=O)c3ccc(F)cc3)[nH]cn2)c1

>  <score_type>  (2) 
oracle

>  <origin>  (2) 
adg

>  <m_score__min__energy>  (2) 
-9.6999999999999993

>  <m_primary>  (2) 
energy

$$$$
2:0
     RDKit          3D

 42 44  0  0  0  0  0  0  0  0999 V2000
   56.9420   20.9010   43.0210 C   0  0  0  0  0  0  0  0  0  0  0  0
   55.9450   21.8970   43.2240 O   0  0  0  0  0  0  0  0  0  0  0  0
   56.1510   23.0900   43.9320 C   0  0  0  0  0  0  0  0  0  0  0  0
   55.1210   23.5610   44.7560 C   0  0  0  0  0  0  0  0  0  0  0  0
   55.2800   24.7430   45.4860 C   0  0  0  0  0  0  0  0  0  0  0  0
   56.4730   25.4730   45.3990 C   0  0  0  0  0  0  0  0  0  0  0  0
   56.6510   26.7320   46.2070 C   0  0  0  0  0  0  0  0  0  0  0  0
   55.9240   27.8580   45.6130 N   0  0  0  0  0  0  0  0  0  0  0  0
   56.9160   28.7490   44.4920 S   0  0  0  0  0  0  0  0  0  0  0  0
   57.7900   27.7810   43.7470 O   0  0  0  0  0  0  0  0  0  0  0  0
   56.0190   29.4320   43.4990 O   0  0  0  0  0  0  0  0  0  0  0  0
   57.9650   29.8900   45.3540 C   0  0  0  0  0  0  0  0  0  0  0  0
   58.5040   29.4670   46.5790 C   0  0  0  0  0  0  0  0  0  0  0  0
   59.3250   30.3110   47.3280 C   0  0  0  0  0  0  0  0  0  0  0  0
   59.6280   31.5980   46.8670 C   0  0  0  0  0  0  0  0  0  0  0  0
   60.4820   32.4700   47.6360 N   0  0  0  0  0  0  0  0  0  0  0  0
   61.8130   32.1760   47.7420 C   0  0  0  0  0  0  0  0  0  0  0  0
   62.6600   32.9940   48.4850 C   0  0  0  0  0  0  0  0  0  0  0  0
   62.1220   34.1140   49.1140 C   0  0  0  0  0  0  0  0  0  0  0  0
   62.8580   34.8730   49.7970 O   0  0  0  0  0  0  0  0  0  0  0  0
   60.8000   34.3860   48.9890 N   0  0  0  0  0  0  0  0  0  0  0  0
   59.9790   33.5840   48.2600 C   0  0  0  0  0  0  0  0  0  0  0  0
   58.7610   33.8900   48.1550 O   0  0  0  0  0  0  0  0  0  0  0  0
   59.1090   32.0220   45.6350 C   0  0  0  0  0  0  0  0  0  0  0  0
   58.2850   31.1840   44.8740 C   0  0  0  0  0  0  0  0  0  0  0  0
   57.7020   31.8140   43.3380 Cl  0  0  0  0  0  0  0  0  0  0  0  0
   57.5060   25.0080   44.5700 C   0  0  0  0  0  0  0  0  0  0  0  0
   57.3490   23.8260   43.8420 C   0  0  0  0  0  0  0  0  0  0  0  0
   57.3034   20.5400   43.9952 H   0  0  0  0  0  0  0  0  0  0  0  0
   56.5117   20.0614   42.4555 H   0  0  0  0  0  0  0  0  0  0  0  0
   57.7812   21.3322   42.4555 H   0  0  0  0  0  0  0  0  0  0  0  0
   54.1796   22.9967   44.8295 H   0  0  0  0  0  0  0  0  0  0  0  0
   54.4647   25.1015   46.1316 H   0  0  0  0  0  0  0  0  0  0  0  0
   56.2730   26.5597   47.2255 H   0  0  0  0  0  0  0  0  0  0  0  0
   57.7219   26.9828   46.2244 H   0  0  0  0  0  0  0  0  0  0  0  0
   58.2765   28.4579   46.9532 H   0  0  0  0  0  0  0  0  0  0  0  0
   59.7368   29.9630   48.2868 H   0  0  0  0  0  0  0  0  0  0  0  0
   62.2177   31.2867   47.2366 H   0  0  0  0  0  0  0  0  0  0  0  0
   63.7313   32.7606   48.5733 H   0  0  0  0  0  0  0  0  0  0  0  0
   59.3528   33.0274   45.2612 H   0  0  0  0  0  0  0  0  0  0  0  0
   58.4441   25.5773   44.4932 H   0  0  0  0  0  0  0  0  0  0  0  0
   58.1642   23.4684   43.1958 H   0  0  0  0  0  0  0  0  0  0  0  0
  1  2  1  0
  2  3  1  0
  3  4  2  0
  4  5  1  0
  5  6  2  0
  6  7  1  0
  7  8  1  0
  8  9  1  0
  9 10  2  0
  9 11  2  0
  9 12  1  0
 12 13  2  0
 13 14  1  0
 14 15  2  0
 15 16  1  0
 16 17  1  0
 17 18  2  0
 18 19  1  0
 19 20  2  0
 19 21  1  0
 21 22  1  0
 22 23  2  0
 15 24  1  0
 24 25  2  0
 25 26  1  0
  6 27  1  0
 27 28  2  0
 28  3  1  0
 25 12  1  0
 22 16  1  0
  1 29  1  0
  1 30  1  0
  1 31  1  0
  4 32  1  0
  5 33  1  0
  7 34  1  0
  7 35  1  0
 13 36  1  0
 14 37  1  0
 17 38  1  0
 18 39  1  0
 24 40  1  0
 27 41  1  0
 28 42  1  0
M  CHG  2   8  -1  21  -1
M  END
>  <UniqueID>  (3) 
2

>  <SMILES>  (3) 
COc1ccc(C[N-]S(=O)(=O)c2ccc(-n3ccc(=O)[n-]c3=O)cc2Cl)cc1

>  <Energy>  (3) 
54.87312971895434

>  <Genealogy>  (3) 
COc1ccc(C[N-]S(=O)(=O)c2ccc(-n3ccc(=O)[n-]c3=O)cc2Cl)cc1 (protonated)
COc1ccc(C[N-]S(=O)(=O)c2ccc(-n3ccc(=O)[n-]c3=O)cc2Cl)cc1 (3D coordinates assigned)
COc1ccc(C[N-]S(=O)(=O)c2ccc(-n3ccc(=O)[n-]c3=O)cc2Cl)cc1 (optimized conformer: 54.87312971895434 kcal/mol)

>  <smiles>  (3) 
COc1ccc(CNS(=O)(=O)c2ccc(-n3ccc(=O)[nH]c3=O)cc2Cl)cc1

>  <score_type>  (3) 
oracle

>  <origin>  (3) 
adg

>  <m_score__min__energy>  (3) 
-11.359999999999999

>  <m_primary>  (3) 
energy

$$$$
3:0
     RDKit          3D

 50 52  0  0  0  0  0  0  0  0999 V2000
   61.7080   30.8580   48.7140 C   0  0  0  0  0  0  0  0  0  0  0  0
   60.7560   30.0640   47.8690 C   0  0  0  0  0  0  0  0  0  0  0  0
   60.7940   30.1870   46.4760 C   0  0  0  0  0  0  0  0  0  0  0  0
   59.8790   29.4950   45.6790 C   0  0  0  0  0  0  0  0  0  0  0  0
   58.9210   28.6650   46.2690 C   0  0  0  0  0  0  0  0  0  0  0  0
   57.7520   27.8270   45.2500 S   0  0  0  0  0  0  0  0  0  0  0  0
   57.3640   26.5360   45.9130 O   0  0  0  0  0  0  0  0  0  0  0  0
   58.3680   27.5210   43.9150 O   0  0  0  0  0  0  0  0  0  0  0  0
   56.3220   28.7720   45.0070 N   0  0  0  0  0  0  0  0  0  0  0  0
   56.2560   29.9340   44.1760 C   0  0  0  0  0  0  0  0  0  0  0  0
   55.4720   30.8630   44.4990 O   0  0  0  0  0  0  0  0  0  0  0  0
   57.0770   30.0590   43.0050 N   0  0  0  0  0  0  0  0  0  0  0  0
   57.0150   31.2350   42.1400 C   0  0  0  0  0  0  0  0  0  0  0  0
   58.1430   32.2230   42.4560 C   0  0  0  0  0  0  0  0  0  0  0  0
   57.7500   33.1570   43.4680 O   0  0  0  0  0  0  0  0  0  0  0  0
   58.2640   33.2410   44.7750 C   0  0  0  0  0  0  0  0  0  0  0  0
   59.2910   34.1590   45.0150 C   0  0  0  0  0  0  0  0  0  0  0  0
   59.8610   34.2800   46.2850 C   0  0  0  0  0  0  0  0  0  0  0  0
   59.4040   33.4910   47.3540 C   0  0  0  0  0  0  0  0  0  0  0  0
   60.0170   33.6140   48.7050 C   0  0  0  0  0  0  0  0  0  0  0  0
   59.2980   33.2400   49.8580 C   0  0  0  0  0  0  0  0  0  0  0  0
   59.8780   33.3510   51.1250 C   0  0  0  0  0  0  0  0  0  0  0  0
   61.1820   33.8420   51.2610 C   0  0  0  0  0  0  0  0  0  0  0  0
   61.9040   34.2260   50.1280 C   0  0  0  0  0  0  0  0  0  0  0  0
   61.3280   34.1140   48.8580 C   0  0  0  0  0  0  0  0  0  0  0  0
   58.3630   32.5790   47.1140 C   0  0  0  0  0  0  0  0  0  0  0  0
   57.8040   32.4460   45.8400 C   0  0  0  0  0  0  0  0  0  0  0  0
   58.8960   28.5200   47.6620 C   0  0  0  0  0  0  0  0  0  0  0  0
   59.8010   29.2270   48.4580 C   0  0  0  0  0  0  0  0  0  0  0  0
   61.4921   30.6779   49.7775 H   0  0  0  0  0  0  0  0  0  0  0  0
   62.7402   30.5494   48.4921 H   0  0  0  0  0  0  0  0  0  0  0  0
   61.5897   31.9289   48.4921 H   0  0  0  0  0  0  0  0  0  0  0  0
   61.5495   30.8330   46.0051 H   0  0  0  0  0  0  0  0  0  0  0  0
   59.9123   29.6033   44.5849 H   0  0  0  0  0  0  0  0  0  0  0  0
   57.9220   29.4570   42.9440 H   0  0  0  0  0  0  0  0  0  0  0  0
   57.1045   30.9132   41.0919 H   0  0  0  0  0  0  0  0  0  0  0  0
   56.0537   31.7410   42.3128 H   0  0  0  0  0  0  0  0  0  0  0  0
   59.0218   31.6626   42.8077 H   0  0  0  0  0  0  0  0  0  0  0  0
   58.3794   32.7838   41.5397 H   0  0  0  0  0  0  0  0  0  0  0  0
   59.6548   34.7939   44.1937 H   0  0  0  0  0  0  0  0  0  0  0  0
   60.6759   35.0004   46.4496 H   0  0  0  0  0  0  0  0  0  0  0  0
   58.2714   32.8574   49.7600 H   0  0  0  0  0  0  0  0  0  0  0  0
   59.3085   33.0519   52.0173 H   0  0  0  0  0  0  0  0  0  0  0  0
   61.6377   33.9254   52.2587 H   0  0  0  0  0  0  0  0  0  0  0  0
   62.9266   34.6169   50.2348 H   0  0  0  0  0  0  0  0  0  0  0  0
   61.9021   34.4184   47.9705 H   0  0  0  0  0  0  0  0  0  0  0  0
   57.9824   31.9608   47.9404 H   0  0  0  0  0  0  0  0  0  0  0  0
   56.9996   31.7153   45.6693 H   0  0  0  0  0  0  0  0  0  0  0  0
   58.1620   27.8478   48.1305 H   0  0  0  0  0  0  0  0  0  0  0  0
   59.7628   29.1254   49.5526 H   0  0  0  0  0  0  0  0  0  0  0  0
  1  2  1  0
  2  3  2  0
  3  4  1  0
  4  5  2  0
  5  6  1  0
  6  7  2  0
  6  8  2  0
  6  9  1  0
  9 10  1  0
 10 11  2  0
 10 12  1  0
 12 13  1  0
 13 14  1  0
 14 15  1  0
 15 16  1  0
 16 17  2  0
 17 18  1  0
 18 19  2  0
 19 20  1  0
 20 21  2  0
 21 22  1  0
 22 23  2  0
 23 24  1  0
 24 25  2  0
 19 26  1  0
 26 27  2  0
  5 28  1  0
 28 29  2  0
 29  2  1  0
 27 16  1  0
 25 20  1  0
  1 30  1  0
  1 31  1  0
  1 32  1  0
  3 33  1  0
  4 34  1  0
 12 35  1  0
 13 36  1  0
 13 37  1  0
 14 38  1  0
 14 39  1  0
 17 40  1  0
 18 41  1  0
 21 42  1  0
 22 43  1  0
 23 44  1  0
 24 45  1  0
 25 46  1  0
 26 47  1  0
 27 48  1  0
 28 49  1  0
 29 50  1  0
M  CHG  1   9  -1
M  END
>  <UniqueID>  (4) 
3

>  <SMILES>  (4) 
Cc1ccc(S(=O)(=O)[N-]C(=O)NCCOc2ccc(-c3ccccc3)cc2)cc1

>  <Energy>  (4) 
53.294487311925934

>  <Genealogy>  (4) 
Cc1ccc(S(=O)(=O)[N-]C(=O)NCCOc2ccc(-c3ccccc3)cc2)cc1 (protonated)
Cc1ccc(S(=O)(=O)[N-]C(=O)NCCOc2ccc(-c3ccccc3)cc2)cc1 (3D coordinates assigned)
Cc1ccc(S(=O)(=O)[N-]C(=O)NCCOc2ccc(-c3ccccc3)cc2)cc1 (optimized conformer: 53.294487311925934 kcal/mol)

>  <smiles>  (4) 
Cc1ccc(S(=O)(=O)NC(=O)NCCOc2ccc(-c3ccccc3)cc2)cc1

>  <score_type>  (4) 
oracle

>  <origin>  (4) 
adg

>  <m_score__min__energy>  (4) 
-10.4

>  <m_primary>  (4) 
energy

$$$$
4:0
     RDKit          3D

 37 39  0  0  0  0  0  0  0  0999 V2000
   56.3900   21.5835   44.8621 H   0  0  0  0  0  0  0  0  0  0  0  0
   55.9640   22.5710   45.0930 C   0  0  0  0  0  0  0  0  0  0  0  0
   56.6160   23.4110   45.9400 N   0  0  0  0  0  0  0  0  0  0  0  0
   56.1220   24.6410   46.2630 C   0  0  0  0  0  0  0  0  0  0  0  0
   56.7740   25.4400   47.0580 N   0  0  0  0  0  0  0  0  0  0  0  0
   57.1610   26.7920   46.7720 C   0  0  0  0  0  0  0  0  0  0  0  0
   57.9140   27.3860   47.5890 O   0  0  0  0  0  0  0  0  0  0  0  0
   56.7390   27.4470   45.5610 N   0  0  0  0  0  0  0  0  0  0  0  0
   56.1300   26.9250   44.8940 H   0  0  0  0  0  0  0  0  0  0  0  0
   57.0370   28.8160   45.2400 C   0  0  0  0  0  0  0  0  0  0  0  0
   56.1330   29.5490   44.4590 C   0  0  0  0  0  0  0  0  0  0  0  0
   55.1999   29.0778   44.1167 H   0  0  0  0  0  0  0  0  0  0  0  0
   56.4090   30.8750   44.1120 C   0  0  0  0  0  0  0  0  0  0  0  0
   55.6901   31.4426   43.5029 H   0  0  0  0  0  0  0  0  0  0  0  0
   57.6010   31.4860   44.5380 C   0  0  0  0  0  0  0  0  0  0  0  0
   57.9210   32.8090   44.1980 O   0  0  0  0  0  0  0  0  0  0  0  0
   58.5080   33.7500   45.0560 C   0  0  0  0  0  0  0  0  0  0  0  0
   59.1550   34.9010   44.5710 C   0  0  0  0  0  0  0  0  0  0  0  0
   59.2223   35.0758   43.4871 H   0  0  0  0  0  0  0  0  0  0  0  0
   59.7130   35.8240   45.4610 C   0  0  0  0  0  0  0  0  0  0  0  0
   60.2269   36.7173   45.0763 H   0  0  0  0  0  0  0  0  0  0  0  0
   59.6180   35.6120   46.8390 C   0  0  0  0  0  0  0  0  0  0  0  0
   60.0620   36.3354   47.5387 H   0  0  0  0  0  0  0  0  0  0  0  0
   58.9590   34.4810   47.3280 C   0  0  0  0  0  0  0  0  0  0  0  0
   58.8790   34.3181   48.4129 H   0  0  0  0  0  0  0  0  0  0  0  0
   58.4010   33.5560   46.4400 C   0  0  0  0  0  0  0  0  0  0  0  0
   57.8755   32.6717   46.8296 H   0  0  0  0  0  0  0  0  0  0  0  0
   58.5250   30.7400   45.2790 C   0  0  0  0  0  0  0  0  0  0  0  0
   59.4751   31.1998   45.5888 H   0  0  0  0  0  0  0  0  0  0  0  0
   58.2490   29.4150   45.6280 C   0  0  0  0  0  0  0  0  0  0  0  0
   58.9833   28.8378   46.2090 H   0  0  0  0  0  0  0  0  0  0  0  0
   54.9140   25.0680   45.6910 C   0  0  0  0  0  0  0  0  0  0  0  0
   54.3930   26.3240   45.9840 O   0  0  0  0  0  0  0  0  0  0  0  0
   54.2290   24.2180   44.8170 C   0  0  0  0  0  0  0  0  0  0  0  0
   53.2780   24.5399   44.3677 H   0  0  0  0  0  0  0  0  0  0  0  0
   54.7540   22.9610   44.5160 C   0  0  0  0  0  0  0  0  0  0  0  0
   54.2206   22.2848   43.8317 H   0  0  0  0  0  0  0  0  0  0  0  0
  1  2  1  0
  2  3  1  0
  3  4  1  0
  4  5  2  0
  5  6  1  0
  6  7  2  0
  6  8  1  0
  8  9  1  0
  8 10  1  0
 10 11  2  0
 11 12  1  0
 11 13  1  0
 13 14  1  0
 13 15  2  0
 15 16  1  0
 16 17  1  0
 17 18  2  0
 18 19  1  0
 18 20  1  0
 20 21  1  0
 20 22  2  0
 22 23  1  0
 22 24  1  0
 24 25  1  0
 24 26  2  0
 26 27  1  0
 15 28  1  0
 28 29  1  0
 28 30  2  0
 30 31  1  0
  4 32  1  0
 32 33  1  0
 32 34  2  0
 34 35  1  0
 34 36  1  0
 36 37  1  0
 36  2  2  0
 30 10  1  0
 26 17  1  0
M  CHG  2   3  -1  33  -1
M  END
>  <UniqueID>  (5) 
4

>  <SMILES>  (5) 
O=C(/N=c1\[n-]cccc1[O-])Nc1ccc(Oc2ccccc2)cc1

>  <Energy>  (5) 
57.088370948630015

>  <Genealogy>  (5) 
O=C(N=c1[n-]cccc1[O-])Nc1ccc(Oc2ccccc2)cc1 (protonated)
O=C(/N=c1\[n-]cccc1[O-])Nc1ccc(Oc2ccccc2)cc1 (cis-trans isomerization)
O=C(/N=c1\[n-]cccc1[O-])Nc1ccc(Oc2ccccc2)cc1 (3D coordinates assigned)
O=C(/N=c1\[n-]cccc1[O-])Nc1ccc(Oc2ccccc2)cc1 (optimized conformer: 57.088370948630015 kcal/mol)

>  <smiles>  (5) 
O=C(N=c1[nH]cccc1O)Nc1ccc(Oc2ccccc2)cc1

>  <score_type>  (5) 
oracle

>  <origin>  (5) 
adg

>  <m_score__min__energy>  (5) 
-12.460000000000001

>  <m_primary>  (5) 
energy

$$$$
5:0
     RDKit          3D

 46 49  0  0  0  0  0  0  0  0999 V2000
   59.9730   35.6710   46.1380 C   0  0  0  0  0  0  0  0  0  0  0  0
   58.9760   34.6080   45.7740 C   0  0  0  0  0  0  0  0  0  0  0  0
   58.9670   34.0430   44.4870 C   0  0  0  0  0  0  0  0  0  0  0  0
   58.0420   33.0450   44.1640 C   0  0  0  0  0  0  0  0  0  0  0  0
   57.1340   32.5830   45.1280 C   0  0  0  0  0  0  0  0  0  0  0  0
   56.2300   31.5580   44.8360 O   0  0  0  0  0  0  0  0  0  0  0  0
   56.5870   30.3760   44.1830 C   0  0  0  0  0  0  0  0  0  0  0  0
   56.4860   30.2940   42.9300 O   0  0  0  0  0  0  0  0  0  0  0  0
   56.9840   29.2020   44.9760 C   0  0  0  0  0  0  0  0  0  0  0  0
   56.1400   28.1780   45.2420 N   0  0  0  0  0  0  0  0  0  0  0  0
   56.8630   27.2630   45.9120 C   0  0  0  0  0  0  0  0  0  0  0  0
   56.4380   26.0120   46.3530 C   0  0  0  0  0  0  0  0  0  0  0  0
   57.3780   25.1820   46.9930 C   0  0  0  0  0  0  0  0  0  0  0  0
   58.7130   25.6110   47.1600 C   0  0  0  0  0  0  0  0  0  0  0  0
   59.1150   26.8740   46.6910 C   0  0  0  0  0  0  0  0  0  0  0  0
   58.1550   27.6890   46.0900 C   0  0  0  0  0  0  0  0  0  0  0  0
   58.2480   28.9440   45.5200 C   0  0  0  0  0  0  0  0  0  0  0  0
   59.7260   29.9760   45.4540 S   0  0  0  0  0  0  0  0  0  0  0  0
   59.6230   30.5300   47.1740 C   0  0  0  0  0  0  0  0  0  0  0  0
   58.7460   29.8520   48.0350 C   0  0  0  0  0  0  0  0  0  0  0  0
   58.5800   30.2660   49.3550 C   0  0  0  0  0  0  0  0  0  0  0  0
   59.2940   31.3610   49.8370 C   0  0  0  0  0  0  0  0  0  0  0  0
   60.1670   32.0520   48.9950 C   0  0  0  0  0  0  0  0  0  0  0  0
   60.3170   31.6690   47.6510 C   0  0  0  0  0  0  0  0  0  0  0  0
   61.2350   32.4700   46.7720 C   0  0  0  0  0  0  0  0  0  0  0  0
   57.1620   33.1240   46.4230 C   0  0  0  0  0  0  0  0  0  0  0  0
   58.0690   34.1420   46.7380 C   0  0  0  0  0  0  0  0  0  0  0  0
   60.0444   35.7472   47.2330 H   0  0  0  0  0  0  0  0  0  0  0  0
   60.9574   35.4077   45.7238 H   0  0  0  0  0  0  0  0  0  0  0  0
   59.6472   36.6365   45.7238 H   0  0  0  0  0  0  0  0  0  0  0  0
   59.6893   34.3867   43.7319 H   0  0  0  0  0  0  0  0  0  0  0  0
   58.0265   32.6205   43.1493 H   0  0  0  0  0  0  0  0  0  0  0  0
   55.1430   28.0890   44.9440 H   0  0  0  0  0  0  0  0  0  0  0  0
   55.3989   25.6824   46.2056 H   0  0  0  0  0  0  0  0  0  0  0  0
   57.0707   24.1935   47.3651 H   0  0  0  0  0  0  0  0  0  0  0  0
   59.4411   24.9546   47.6589 H   0  0  0  0  0  0  0  0  0  0  0  0
   60.1572   27.2103   46.7949 H   0  0  0  0  0  0  0  0  0  0  0  0
   58.1829   28.9833   47.6631 H   0  0  0  0  0  0  0  0  0  0  0  0
   57.8851   29.7282   50.0167 H   0  0  0  0  0  0  0  0  0  0  0  0
   59.1697   31.6813   50.8820 H   0  0  0  0  0  0  0  0  0  0  0  0
   60.7425   32.9036   49.3867 H   0  0  0  0  0  0  0  0  0  0  0  0
   61.9163   33.0644   47.3985 H   0  0  0  0  0  0  0  0  0  0  0  0
   61.8209   31.7893   46.1369 H   0  0  0  0  0  0  0  0  0  0  0  0
   60.6400   33.1428   46.1369 H   0  0  0  0  0  0  0  0  0  0  0  0
   56.4703   32.7474   47.1909 H   0  0  0  0  0  0  0  0  0  0  0  0
   58.0710   34.5795   47.7472 H   0  0  0  0  0  0  0  0  0  0  0  0
  1  2  1  0
  2  3  2  0
  3  4  1  0
  4  5  2  0
  5  6  1  0
  6  7  1  0
  7  8  2  0
  7  9  1  0
  9 10  1  0
 10 11  1  0
 11 12  2  0
 12 13  1  0
 13 14  2  0
 14 15  1  0
 15 16  2  0
 16 17  1  0
 17 18  1  0
 18 19  1  0
 19 20  2  0
 20 21  1  0
 21 22  2  0
 22 23  1  0
 23 24  2  0
 24 25  1  0
  5 26  1  0
 26 27  2  0
 27  2  1  0
 17  9  2  0
 24 19  1  0
 16 11  1  0
  1 28  1  0
  1 29  1  0
  1 30  1  0
  3 31  1  0
  4 32  1  0
 10 33  1  0
 12 34  1  0
 13 35  1  0
 14 36  1  0
 15 37  1  0
 20 38  1  0
 21 39  1  0
 22 40  1  0
 23 41  1  0
 25 42  1  0
 25 43  1  0
 25 44  1  0
 26 45  1  0
 27 46  1  0
M  END
>  <UniqueID>  (6) 
5

>  <SMILES>  (6) 
Cc1ccc(OC(=O)c2[nH]c3ccccc3c2Sc2ccccc2C)cc1

>  <Energy>  (6) 
85.8556612851205

>  <Genealogy>  (6) 
Cc1ccc(OC(=O)c2[nH]c3ccccc3c2Sc2ccccc2C)cc1 (3D coordinates assigned)
Cc1ccc(OC(=O)c2[nH]c3ccccc3c2Sc2ccccc2C)cc1 (optimized conformer: 85.8556612851205 kcal/mol)

>  <smiles>  (6) 
Cc1ccc(OC(=O)c2[nH]c3ccccc3c2Sc2ccccc2C)cc1

>  <score_type>  (6) 
oracle

>  <origin>  (6) 
adg

>  <m_score__min__energy>  (6) 
-9.0999999999999996

>  <m_primary>  (6) 
energy

$$$$
6:0
     RDKit          3D

 48 50  0  0  0  0  0  0  0  0999 V2000
   58.7332   29.9948   46.5524 H   0  0  0  0  0  0  0  0  0  0  0  0
   58.5220   31.0590   46.3710 C   0  0  0  0  0  0  0  0  0  0  0  0
   58.9880   32.0220   47.2700 C   0  0  0  0  0  0  0  0  0  0  0  0
   59.5548   31.7107   48.1598 H   0  0  0  0  0  0  0  0  0  0  0  0
   58.7370   33.3830   47.0440 C   0  0  0  0  0  0  0  0  0  0  0  0
   59.2610   34.4140   48.0080 C   0  0  0  0  0  0  0  0  0  0  0  0
   58.7190   35.3593   47.8576 H   0  0  0  0  0  0  0  0  0  0  0  0
   59.1102   34.0508   49.0353 H   0  0  0  0  0  0  0  0  0  0  0  0
   60.7040   34.6400   47.7870 N   0  0  0  0  0  0  0  0  0  0  0  0
   61.1470   33.9820   46.5360 C   0  0  0  0  0  0  0  0  0  0  0  0
   60.6668   32.9952   46.4605 H   0  0  0  0  0  0  0  0  0  0  0  0
   60.8598   34.6200   45.6872 H   0  0  0  0  0  0  0  0  0  0  0  0
   62.6700   33.8000   46.5120 C   0  0  0  0  0  0  0  0  0  0  0  0
   62.9567   33.3375   45.5560 H   0  0  0  0  0  0  0  0  0  0  0  0
   63.1309   34.7917   46.6306 H   0  0  0  0  0  0  0  0  0  0  0  0
   63.1500   32.9360   47.6260 N   0  0  0  0  0  0  0  0  0  0  0  0
   64.0670   33.3210   47.9550 H   0  0  0  0  0  0  0  0  0  0  0  0
   63.4040   31.5620   47.1570 C   0  0  0  0  0  0  0  0  0  0  0  0
   63.5272   30.8957   48.0235 H   0  0  0  0  0  0  0  0  0  0  0  0
   62.5540   31.2192   46.5487 H   0  0  0  0  0  0  0  0  0  0  0  0
   64.3204   31.5457   46.5487 H   0  0  0  0  0  0  0  0  0  0  0  0
   62.2270   32.9130   48.7900 C   0  0  0  0  0  0  0  0  0  0  0  0
   61.4694   32.1316   48.6303 H   0  0  0  0  0  0  0  0  0  0  0  0
   62.8171   32.7064   49.6950 H   0  0  0  0  0  0  0  0  0  0  0  0
   61.5200   34.2640   48.9730 C   0  0  0  0  0  0  0  0  0  0  0  0
   60.8602   34.2018   49.8509 H   0  0  0  0  0  0  0  0  0  0  0  0
   62.2946   35.0336   49.1060 H   0  0  0  0  0  0  0  0  0  0  0  0
   58.0200   33.7690   45.9020 C   0  0  0  0  0  0  0  0  0  0  0  0
   57.8208   34.8346   45.7157 H   0  0  0  0  0  0  0  0  0  0  0  0
   57.5570   32.8070   44.9990 C   0  0  0  0  0  0  0  0  0  0  0  0
   57.0109   33.1216   44.0975 H   0  0  0  0  0  0  0  0  0  0  0  0
   57.7850   31.4410   45.2360 C   0  0  0  0  0  0  0  0  0  0  0  0
   57.3230   30.4070   44.2380 C   0  0  0  0  0  0  0  0  0  0  0  0
   58.2049   29.9628   43.7533 H   0  0  0  0  0  0  0  0  0  0  0  0
   56.6754   30.9096   43.5045 H   0  0  0  0  0  0  0  0  0  0  0  0
   56.5210   29.3080   44.8900 C   0  0  0  0  0  0  0  0  0  0  0  0
   55.2650   29.3930   44.8620 O   0  0  0  0  0  0  0  0  0  0  0  0
   57.1070   28.1710   45.5500 N   0  0  0  0  0  0  0  0  0  0  0  0
   56.6100   26.9820   45.7270 C   0  0  0  0  0  0  0  0  0  0  0  0
   55.3270   26.7100   46.0320 N   0  0  0  0  0  0  0  0  0  0  0  0
   55.2380   25.4160   46.1270 O   0  0  0  0  0  0  0  0  0  0  0  0
   56.4000   24.8440   45.9020 C   0  0  0  0  0  0  0  0  0  0  0  0
   56.6340   23.3710   45.9070 C   0  0  0  0  0  0  0  0  0  0  0  0
   56.6910   23.0123   46.9453 H   0  0  0  0  0  0  0  0  0  0  0  0
   55.8048   22.8662   45.3897 H   0  0  0  0  0  0  0  0  0  0  0  0
   57.5788   23.1481   45.3897 H   0  0  0  0  0  0  0  0  0  0  0  0
   57.3380   25.8180   45.6310 C   0  0  0  0  0  0  0  0  0  0  0  0
   58.4055   25.6948   45.3959 H   0  0  0  0  0  0  0  0  0  0  0  0
  1  2  1  0
  2  3  2  0
  3  4  1  0
  3  5  1  0
  5  6  1  0
  6  7  1  0
  6  8  1  0
  6  9  1  0
  9 10  1  0
 10 11  1  0
 10 12  1  0
 10 13  1  0
 13 14  1  0
 13 15  1  0
 13 16  1  0
 16 17  1  0
 16 18  1  0
 18 19  1  0
 18 20  1  0
 18 21  1  0
 16 22  1  0
 22 23  1  0
 22 24  1  0
 22 25  1  0
 25 26  1  0
 25 27  1  0
  5 28  2  0
 28 29  1  0
 28 30  1  0
 30 31  1  0
 30 32  2  0
 32 33  1  0
 33 34  1  0
 33 35  1  0
 33 36  1  0
 36 37  2  0
 36 38  1  0
 38 39  2  0
 39 40  1  0
 40 41  1  0
 41 42  1  0
 42 43  1  0
 43 44  1  0
 43 45  1  0
 43 46  1  0
 42 47  2  0
 47 48  1  0
 32  2  1  0
 47 39  1  0
 25  9  1  0
M  CHG  2  16   1  40  -1
M  END
>  <UniqueID>  (7) 
6

>  <SMILES>  (7) 
Cc1c/c(=N/C(=O)Cc2ccc(CN3CC[NH+](C)CC3)cc2)[n-]o1

>  <Energy>  (7) 
93.95098629297674

>  <Genealogy>  (7) 
Cc1cc(=NC(=O)Cc2ccc(CN3CC[NH+](C)CC3)cc2)[n-]o1 (protonated)
Cc1c/c(=N/C(=O)Cc2ccc(CN3CC[NH+](C)CC3)cc2)[n-]o1 (cis-trans isomerization)
Cc1c/c(=N/C(=O)Cc2ccc(CN3CC[NH+](C)CC3)cc2)[n-]o1 (3D coordinates assigned)
Cc1c/c(=N/C(=O)Cc2ccc(CN3CC[NH+](C)CC3)cc2)[n-]o1 (nonaromatic ring conformer: 93.95098629297674 kcal/mol)

>  <smiles>  (7) 
Cc1cc(=NC(=O)Cc2ccc(CN3CCN(C)CC3)cc2)[nH]o1

>  <score_type>  (7) 
oracle

>  <origin>  (7) 
adg

>  <m_score__min__energy>  (7) 
-9.8599999999999994

>  <m_primary>  (7) 
energy

$$$$
7:0
     RDKit          3D

 41 43  0  0  0  0  0  0  0  0999 V2000
   59.2330   30.6430   48.3300 O   0  0  0  0  0  0  0  0  0  0  0  0
   60.4340   30.3830   48.0440 C   0  0  0  0  0  0  0  0  0  0  0  0
   61.5210   30.8520   48.9600 C   0  0  0  0  0  0  0  0  0  0  0  0
   62.3320   31.9130   48.2890 C   0  0  0  0  0  0  0  0  0  0  0  0
   63.6250   32.2870   48.6310 C   0  0  0  0  0  0  0  0  0  0  0  0
   64.1060   33.3630   47.8750 C   0  0  0  0  0  0  0  0  0  0  0  0
   63.1900   33.8470   46.9490 C   0  0  0  0  0  0  0  0  0  0  0  0
   61.7800   32.9360   47.0730 S   0  0  0  0  0  0  0  0  0  0  0  0
   60.7680   29.7280   46.8100 N   0  0  0  0  0  0  0  0  0  0  0  0
   59.8040   29.1260   45.9300 C   0  0  0  0  0  0  0  0  0  0  0  0
   59.8190   27.7460   45.6560 C   0  0  0  0  0  0  0  0  0  0  0  0
   58.8800   27.1910   44.7840 C   0  0  0  0  0  0  0  0  0  0  0  0
   57.9290   28.0040   44.1650 C   0  0  0  0  0  0  0  0  0  0  0  0
   57.9210   29.3850   44.4040 C   0  0  0  0  0  0  0  0  0  0  0  0
   56.7230   30.4180   43.6320 S   0  0  0  0  0  0  0  0  0  0  0  0
   56.3210   29.8120   42.3170 O   0  0  0  0  0  0  0  0  0  0  0  0
   55.5130   30.5360   44.5160 O   0  0  0  0  0  0  0  0  0  0  0  0
   57.4200   31.9840   43.3770 N   0  0  0  0  0  0  0  0  0  0  0  0
   57.7300   32.8120   44.3290 C   0  0  0  0  0  0  0  0  0  0  0  0
   58.8320   33.7880   44.2140 C   0  0  0  0  0  0  0  0  0  0  0  0
   58.7900   34.5360   45.5550 C   0  0  0  0  0  0  0  0  0  0  0  0
   57.6760   33.8950   46.4060 C   0  0  0  0  0  0  0  0  0  0  0  0
   57.0680   32.8750   45.5770 N   0  0  0  0  0  0  0  0  0  0  0  0
   58.8600   29.9400   45.2850 C   0  0  0  0  0  0  0  0  0  0  0  0
   61.0730   31.2614   49.8774 H   0  0  0  0  0  0  0  0  0  0  0  0
   62.1737   30.0028   49.2106 H   0  0  0  0  0  0  0  0  0  0  0  0
   64.2119   31.7884   49.4164 H   0  0  0  0  0  0  0  0  0  0  0  0
   65.1138   33.7852   48.0021 H   0  0  0  0  0  0  0  0  0  0  0  0
   63.3576   34.6827   46.2537 H   0  0  0  0  0  0  0  0  0  0  0  0
   61.7620   29.7750   46.4900 H   0  0  0  0  0  0  0  0  0  0  0  0
   60.5736   27.1016   46.1307 H   0  0  0  0  0  0  0  0  0  0  0  0
   58.8898   26.1093   44.5842 H   0  0  0  0  0  0  0  0  0  0  0  0
   57.1843   27.5598   43.4882 H   0  0  0  0  0  0  0  0  0  0  0  0
   59.7969   33.2774   44.0787 H   0  0  0  0  0  0  0  0  0  0  0  0
   58.7236   34.4563   43.3471 H   0  0  0  0  0  0  0  0  0  0  0  0
   59.7578   34.4407   46.0691 H   0  0  0  0  0  0  0  0  0  0  0  0
   58.5905   35.6061   45.3966 H   0  0  0  0  0  0  0  0  0  0  0  0
   58.1022   33.4438   47.3141 H   0  0  0  0  0  0  0  0  0  0  0  0
   56.9364   34.6436   46.7263 H   0  0  0  0  0  0  0  0  0  0  0  0
   56.2740   32.2730   45.8860 H   0  0  0  0  0  0  0  0  0  0  0  0
   58.8568   31.0239   45.4725 H   0  0  0  0  0  0  0  0  0  0  0  0
  1  2  2  0
  2  3  1  0
  3  4  1  0
  4  5  2  0
  5  6  1  0
  6  7  2  0
  7  8  1  0
  2  9  1  0
  9 10  1  0
 10 11  2  0
 11 12  1  0
 12 13  2  0
 13 14  1  0
 14 15  1  0
 15 16  2  0
 15 17  2  0
 15 18  1  0
 18 19  2  3
 19 20  1  0
 20 21  1  0
 21 22  1  0
 22 23  1  0
 14 24  2  0
  8  4  1  0
 24 10  1  0
 23 19  1  0
  3 25  1  0
  3 26  1  0
  5 27  1  0
  6 28  1  0
  7 29  1  0
  9 30  1  0
 11 31  1  0
 12 32  1  0
 13 33  1  0
 20 34  1  0
 20 35  1  0
 21 36  1  0
 21 37  1  0
 22 38  1  0
 22 39  1  0
 23 40  1  0
 24 41  1  0
M  END
>  <UniqueID>  (8) 
7

>  <SMILES>  (8) 
O=C(Cc1cccs1)Nc1cccc(S(=O)(=O)N=C2CCCN2)c1

>  <Energy>  (8) 
77.56489606722424

>  <Genealogy>  (8) 
O=C(Cc1cccs1)Nc1cccc(S(=O)(=O)N=C2CCCN2)c1 (3D coordinates assigned)
O=C(Cc1cccs1)Nc1cccc(S(=O)(=O)N=C2CCCN2)c1 (nonaromatic ring conformer: 77.56489606722424 kcal/mol)

>  <smiles>  (8) 
O=C(Cc1cccs1)Nc1cccc(S(=O)(=O)N=C2CCCN2)c1

>  <score_type>  (8) 
oracle

>  <origin>  (8) 
adg

>  <m_score__min__energy>  (8) 
-9.3499999999999996

>  <m_primary>  (8) 
energy

$$$$
8:0
     RDKit          3D

 52 54  0  0  0  0  0  0  0  0999 V2000
   55.8470   21.5130   44.8120 C   0  0  0  0  0  0  0  0  0  0  0  0
   56.8720   22.5760   45.1070 C   0  0  0  0  0  0  0  0  0  0  0  0
   58.2340   22.2410   45.0270 C   0  0  0  0  0  0  0  0  0  0  0  0
   59.2170   23.1920   45.2960 C   0  0  0  0  0  0  0  0  0  0  0  0
   58.8580   24.4920   45.6700 C   0  0  0  0  0  0  0  0  0  0  0  0
   59.8470   25.4950   45.9120 N   0  0  0  0  0  0  0  0  0  0  0  0
   59.6790   26.7250   47.1220 S   0  0  0  0  0  0  0  0  0  0  0  0
   58.6080   26.3140   48.0900 O   0  0  0  0  0  0  0  0  0  0  0  0
   60.9740   26.8570   47.8730 O   0  0  0  0  0  0  0  0  0  0  0  0
   59.2370   28.2720   46.4080 C   0  0  0  0  0  0  0  0  0  0  0  0
   58.7510   28.3290   45.0960 C   0  0  0  0  0  0  0  0  0  0  0  0
   58.4570   29.5620   44.5090 C   0  0  0  0  0  0  0  0  0  0  0  0
   58.6540   30.7560   45.2200 C   0  0  0  0  0  0  0  0  0  0  0  0
   58.3720   32.0110   44.5780 N   0  0  0  0  0  0  0  0  0  0  0  0
   58.0680   33.4820   45.4480 S   0  0  0  0  0  0  0  0  0  0  0  0
   56.6870   33.4320   46.0400 O   0  0  0  0  0  0  0  0  0  0  0  0
   58.1450   34.6460   44.5000 O   0  0  0  0  0  0  0  0  0  0  0  0
   59.2890   33.6930   46.7000 C   0  0  0  0  0  0  0  0  0  0  0  0
   58.9010   34.0880   47.9830 C   0  0  0  0  0  0  0  0  0  0  0  0
   59.8560   34.2540   48.9880 C   0  0  0  0  0  0  0  0  0  0  0  0
   61.2120   34.0370   48.7170 C   0  0  0  0  0  0  0  0  0  0  0  0
   62.3630   34.2140   50.0380 Cl  0  0  0  0  0  0  0  0  0  0  0  0
   61.6180   33.6660   47.4190 C   0  0  0  0  0  0  0  0  0  0  0  0
   63.3250   33.4180   47.0330 S   0  0  0  0  0  0  0  0  0  0  0  0
   63.7330   31.7400   47.1340 N   0  0  0  0  0  0  0  0  0  0  0  0
   64.1740   34.1870   48.0070 O   0  0  0  0  0  0  0  0  0  0  0  0
   63.5990   33.8970   45.6340 O   0  0  0  0  0  0  0  0  0  0  0  0
   60.6470   33.4860   46.4200 C   0  0  0  0  0  0  0  0  0  0  0  0
   59.1200   30.6900   46.5460 C   0  0  0  0  0  0  0  0  0  0  0  0
   59.4140   29.4570   47.1320 C   0  0  0  0  0  0  0  0  0  0  0  0
   57.5050   24.8380   45.7500 C   0  0  0  0  0  0  0  0  0  0  0  0
   56.5030   23.8870   45.4980 C   0  0  0  0  0  0  0  0  0  0  0  0
   54.8070   24.3750   45.6580 S   0  0  0  0  0  0  0  0  0  0  0  0
   54.7130   26.0820   45.9190 N   0  0  0  0  0  0  0  0  0  0  0  0
   54.1720   23.6710   46.8250 O   0  0  0  0  0  0  0  0  0  0  0  0
   54.0520   24.0100   44.4120 O   0  0  0  0  0  0  0  0  0  0  0  0
   55.4564   21.1079   45.7572 H   0  0  0  0  0  0  0  0  0  0  0  0
   55.0214   21.9507   44.2317 H   0  0  0  0  0  0  0  0  0  0  0  0
   56.3145   20.7039   44.2317 H   0  0  0  0  0  0  0  0  0  0  0  0
   58.5277   21.2179   44.7493 H   0  0  0  0  0  0  0  0  0  0  0  0
   60.2796   22.9195   45.2140 H   0  0  0  0  0  0  0  0  0  0  0  0
   58.6003   27.4003   44.5260 H   0  0  0  0  0  0  0  0  0  0  0  0
   58.0678   29.5975   43.4808 H   0  0  0  0  0  0  0  0  0  0  0  0
   58.4690   32.0850   43.5390 H   0  0  0  0  0  0  0  0  0  0  0  0
   57.8384   34.2690   48.2022 H   0  0  0  0  0  0  0  0  0  0  0  0
   59.5412   34.5568   49.9976 H   0  0  0  0  0  0  0  0  0  0  0  0
   64.5690   31.5900   46.5240 H   0  0  0  0  0  0  0  0  0  0  0  0
   60.9548   33.1800   45.4093 H   0  0  0  0  0  0  0  0  0  0  0  0
   59.2536   31.6158   47.1249 H   0  0  0  0  0  0  0  0  0  0  0  0
   59.7861   29.4167   48.1664 H   0  0  0  0  0  0  0  0  0  0  0  0
   57.2224   25.8679   46.0136 H   0  0  0  0  0  0  0  0  0  0  0  0
   53.6990   26.3230   45.9840 H   0  0  0  0  0  0  0  0  0  0  0  0
  1  2  1  0
  2  3  2  0
  3  4  1  0
  4  5  2  0
  5  6  1  0
  6  7  1  0
  7  8  2  0
  7  9  2  0
  7 10  1  0
 10 11  2  0
 11 12  1  0
 12 13  2  0
 13 14  1  0
 14 15  1  0
 15 16  2  0
 15 17  2  0
 15 18  1  0
 18 19  2  0
 19 20  1  0
 20 21  2  0
 21 22  1  0
 21 23  1  0
 23 24  1  0
 24 25  1  0
 24 26  2  0
 24 27  2  0
 23 28  2  0
 13 29  1  0
 29 30  2  0
  5 31  1  0
 31 32  2  0
 32 33  1  0
 33 34  1  0
 33 35  2  0
 33 36  2  0
 32  2  1  0
 30 10  1  0
 28 18  1  0
  1 37  1  0
  1 38  1  0
  1 39  1  0
  3 40  1  0
  4 41  1  0
 11 42  1  0
 12 43  1  0
 14 44  1  0
 19 45  1  0
 20 46  1  0
 25 47  1  0
 28 48  1  0
 29 49  1  0
 30 50  1  0
 31 51  1  0
 34 52  1  0
M  CHG  3   6  -1  25  -1  34  -1
M  END
>  <UniqueID>  (9) 
8

>  <SMILES>  (9) 
Cc1ccc([N-]S(=O)(=O)c2ccc(NS(=O)(=O)c3ccc(Cl)c(S([NH-])(=O)=O)c3)cc2)cc1S([NH-])(=O)=O

>  <Energy>  (9) 
65.5974461512352

>  <Genealogy>  (9) 
Cc1ccc([N-]S(=O)(=O)c2ccc(NS(=O)(=O)c3ccc(Cl)c(S([NH-])(=O)=O)c3)cc2)cc1S([NH-])(=O)=O (protonated)
Cc1ccc([N-]S(=O)(=O)c2ccc(NS(=O)(=O)c3ccc(Cl)c(S([NH-])(=O)=O)c3)cc2)cc1S([NH-])(=O)=O (3D coordinates assigned)
Cc1ccc([N-]S(=O)(=O)c2ccc(NS(=O)(=O)c3ccc(Cl)c(S([NH-])(=O)=O)c3)cc2)cc1S([NH-])(=O)=O (optimized conformer: 65.5974461512352 kcal/mol)

>  <smiles>  (9) 
Cc1ccc(NS(=O)(=O)c2ccc(NS(=O)(=O)c3ccc(Cl)c(S(N)(=O)=O)c3)cc2)cc1S(N)(=O)=O

>  <score_type>  (9) 
oracle

>  <origin>  (9) 
adg

>  <m_score__min__energy>  (9) 
-16.420000000000002

>  <m_primary>  (9) 
energy

$$$$
9:0
     RDKit          3D

 42 44  0  0  0  0  0  0  0  0999 V2000
   55.8830   32.1400   51.2610 H   0  0  0  0  0  0  0  0  0  0  0  0
   56.7680   31.8320   51.6480 O   0  0  0  0  0  0  0  0  0  0  0  0
   57.8260   31.4480   50.8280 C   0  0  0  0  0  0  0  0  0  0  0  0
   58.2710   30.1210   50.8490 C   0  0  0  0  0  0  0  0  0  0  0  0
   57.7838   29.3899   51.5109 H   0  0  0  0  0  0  0  0  0  0  0  0
   59.3320   29.7220   50.0320 C   0  0  0  0  0  0  0  0  0  0  0  0
   59.6725   28.6762   50.0493 H   0  0  0  0  0  0  0  0  0  0  0  0
   59.9660   30.6490   49.1890 C   0  0  0  0  0  0  0  0  0  0  0  0
   61.0860   30.2120   48.2830 C   0  0  0  0  0  0  0  0  0  0  0  0
   61.6307   29.3816   48.7561 H   0  0  0  0  0  0  0  0  0  0  0  0
   61.7613   31.0643   48.1172 H   0  0  0  0  0  0  0  0  0  0  0  0
   60.5370   29.7490   46.9350 C   0  0  0  0  0  0  0  0  0  0  0  0
   61.3703   29.4394   46.2871 H   0  0  0  0  0  0  0  0  0  0  0  0
   59.9891   30.5762   46.4601 H   0  0  0  0  0  0  0  0  0  0  0  0
   59.6330   28.6210   47.1360 N   0  0  0  0  0  0  0  0  0  0  0  0
   58.4820   28.4990   46.5470 C   0  0  0  0  0  0  0  0  0  0  0  0
   57.7980   27.3230   46.5830 N   0  0  0  0  0  0  0  0  0  0  0  0
   56.5970   27.2130   45.9620 C   0  0  0  0  0  0  0  0  0  0  0  0
   55.8790   25.9720   46.0010 C   0  0  0  0  0  0  0  0  0  0  0  0
   55.2990   24.9710   46.0320 N   0  0  0  0  0  0  0  0  0  0  0  0
   56.0760   28.2790   45.3030 N   0  0  0  0  0  0  0  0  0  0  0  0
   56.7540   29.4570   45.2620 C   0  0  0  0  0  0  0  0  0  0  0  0
   56.2690   30.4860   44.6360 N   0  0  0  0  0  0  0  0  0  0  0  0
   57.0530   31.3610   43.7700 C   0  0  0  0  0  0  0  0  0  0  0  0
   57.8496   30.7786   43.2840 H   0  0  0  0  0  0  0  0  0  0  0  0
   56.3995   31.7990   43.0011 H   0  0  0  0  0  0  0  0  0  0  0  0
   57.6650   32.4580   44.5930 C   0  0  0  0  0  0  0  0  0  0  0  0
   57.4140   32.5310   45.9740 C   0  0  0  0  0  0  0  0  0  0  0  0
   56.7905   31.7655   46.4591 H   0  0  0  0  0  0  0  0  0  0  0  0
   57.9540   33.5730   46.7330 C   0  0  0  0  0  0  0  0  0  0  0  0
   57.7629   33.6207   47.8152 H   0  0  0  0  0  0  0  0  0  0  0  0
   58.7370   34.5550   46.1180 C   0  0  0  0  0  0  0  0  0  0  0  0
   59.1642   35.3726   46.7172 H   0  0  0  0  0  0  0  0  0  0  0  0
   58.9770   34.4980   44.7420 C   0  0  0  0  0  0  0  0  0  0  0  0
   59.5904   35.2727   44.2588 H   0  0  0  0  0  0  0  0  0  0  0  0
   58.4380   33.4570   43.9790 C   0  0  0  0  0  0  0  0  0  0  0  0
   58.6201   33.4206   42.8948 H   0  0  0  0  0  0  0  0  0  0  0  0
   57.9550   29.5610   45.8860 N   0  0  0  0  0  0  0  0  0  0  0  0
   59.5090   31.9770   49.1610 C   0  0  0  0  0  0  0  0  0  0  0  0
   59.9883   32.7071   48.4922 H   0  0  0  0  0  0  0  0  0  0  0  0
   58.4470   32.3750   49.9800 C   0  0  0  0  0  0  0  0  0  0  0  0
   58.0985   33.4181   49.9583 H   0  0  0  0  0  0  0  0  0  0  0  0
  1  2  1  0
  2  3  1  0
  3  4  2  0
  4  5  1  0
  4  6  1  0
  6  7  1  0
  6  8  2  0
  8  9  1  0
  9 10  1  0
  9 11  1  0
  9 12  1  0
 12 13  1  0
 12 14  1  0
 12 15  1  0
 15 16  2  0
 16 17  1  0
 17 18  2  0
 18 19  1  0
 19 20  3  0
 18 21  1  0
 21 22  1  0
 22 23  2  0
 23 24  1  0
 24 25  1  0
 24 26  1  0
 24 27  1  0
 27 28  2  0
 28 29  1  0
 28 30  1  0
 30 31  1  0
 30 32  2  0
 32 33  1  0
 32 34  1  0
 34 35  1  0
 34 36  2  0
 36 37  1  0
 22 38  1  0
  8 39  1  0
 39 40  1  0
 39 41  2  0
 41 42  1  0
 41  3  1  0
 38 16  1  0
 36 27  1  0
M  CHG  2  21  -1  38  -1
M  END
>  <UniqueID>  (10) 
9

>  <SMILES>  (10) 
N#Cc1n/c(=N\CCc2ccc(O)cc2)[n-]/c(=N/Cc2ccccc2)[n-]1

>  <Energy>  (10) 
38.59204503656808

>  <Genealogy>  (10) 
N#Cc1nc(=NCCc2ccc(O)cc2)[n-]c(=NCc2ccccc2)[n-]1 (protonated)
N#Cc1n/c(=N\CCc2ccc(O)cc2)[n-]/c(=N/Cc2ccccc2)[n-]1 (cis-trans isomerization)
N#Cc1n/c(=N\CCc2ccc(O)cc2)[n-]/c(=N/Cc2ccccc2)[n-]1 (3D coordinates assigned)
N#Cc1n/c(=N\CCc2ccc(O)cc2)[n-]/c(=N/Cc2ccccc2)[n-]1 (optimized conformer: 38.59204503656808 kcal/mol)

>  <smiles>  (10) 
N#Cc1nc(=NCCc2ccc(O)cc2)[nH]c(=NCc2ccccc2)[nH]1

>  <score_type>  (10) 
oracle

>  <origin>  (10) 
adg

>  <m_score__min__energy>  (10) 
-10.890000000000001

>  <m_primary>  (10) 
energy

$$$$
10:0
     RDKit          3D

 50 53  0  0  0  0  0  0  0  0999 V2000
   56.8807   32.3905   42.8592 H   0  0  0  0  0  0  0  0  0  0  0  0
   57.3930   32.2060   43.8150 C   0  0  0  0  0  0  0  0  0  0  0  0
   58.0590   33.3800   44.8240 S   0  0  0  0  0  0  0  0  0  0  0  0
   58.5840   32.2550   45.9670 C   0  0  0  0  0  0  0  0  0  0  0  0
   59.1640   32.5220   47.1010 N   0  0  0  0  0  0  0  0  0  0  0  0
   60.5800   32.6160   47.3320 C   0  0  0  0  0  0  0  0  0  0  0  0
   61.3890   33.4640   46.5530 C   0  0  0  0  0  0  0  0  0  0  0  0
   60.9323   34.0923   45.7741 H   0  0  0  0  0  0  0  0  0  0  0  0
   62.7700   33.5120   46.7640 C   0  0  0  0  0  0  0  0  0  0  0  0
   63.3939   34.1904   46.1636 H   0  0  0  0  0  0  0  0  0  0  0  0
   63.3590   32.7000   47.7360 C   0  0  0  0  0  0  0  0  0  0  0  0
   64.4447   32.7460   47.9067 H   0  0  0  0  0  0  0  0  0  0  0  0
   62.5700   31.8300   48.4910 C   0  0  0  0  0  0  0  0  0  0  0  0
   63.0371   31.1863   49.2509 H   0  0  0  0  0  0  0  0  0  0  0  0
   61.1850   31.7740   48.2840 C   0  0  0  0  0  0  0  0  0  0  0  0
   60.2040   30.6280   49.2600 S   0  0  0  0  0  0  0  0  0  0  0  0
   59.8080   29.6230   47.8360 C   0  0  0  0  0  0  0  0  0  0  0  0
   58.7230   28.8080   47.8610 N   0  0  0  0  0  0  0  0  0  0  0  0
   58.4290   28.0240   46.7930 C   0  0  0  0  0  0  0  0  0  0  0  0
   57.3730   27.2650   46.8350 N   0  0  0  0  0  0  0  0  0  0  0  0
   57.1950   25.9960   46.1840 C   0  0  0  0  0  0  0  0  0  0  0  0
   57.4320   25.9080   44.8110 C   0  0  0  0  0  0  0  0  0  0  0  0
   57.7790   26.7949   44.2605 H   0  0  0  0  0  0  0  0  0  0  0  0
   57.2330   24.7050   44.1290 C   0  0  0  0  0  0  0  0  0  0  0  0
   57.4414   24.6525   43.0502 H   0  0  0  0  0  0  0  0  0  0  0  0
   56.7680   23.5550   44.8050 C   0  0  0  0  0  0  0  0  0  0  0  0
   56.5600   22.2990   44.0980 N   0  0  0  0  0  0  0  0  0  0  0  0
   56.4870   22.2680   42.6300 C   0  0  0  0  0  0  0  0  0  0  0  0
   55.5156   21.8555   42.3198 H   0  0  0  0  0  0  0  0  0  0  0  0
   56.5943   23.2894   42.2359 H   0  0  0  0  0  0  0  0  0  0  0  0
   57.2964   21.6360   42.2359 H   0  0  0  0  0  0  0  0  0  0  0  0
   56.4100   21.0380   44.8380 C   0  0  0  0  0  0  0  0  0  0  0  0
   56.4343   21.2419   45.9187 H   0  0  0  0  0  0  0  0  0  0  0  0
   55.4499   20.5703   44.5746 H   0  0  0  0  0  0  0  0  0  0  0  0
   57.2336   20.3581   44.5746 H   0  0  0  0  0  0  0  0  0  0  0  0
   56.5000   23.6670   46.1890 C   0  0  0  0  0  0  0  0  0  0  0  0
   56.1260   22.7920   46.7408 H   0  0  0  0  0  0  0  0  0  0  0  0
   56.7030   24.8720   46.8660 C   0  0  0  0  0  0  0  0  0  0  0  0
   56.4759   24.9405   47.9401 H   0  0  0  0  0  0  0  0  0  0  0  0
   59.2180   28.0790   45.6850 N   0  0  0  0  0  0  0  0  0  0  0  0
   60.3000   28.8980   45.6560 C   0  0  0  0  0  0  0  0  0  0  0  0
   61.0270   28.9450   44.6310 O   0  0  0  0  0  0  0  0  0  0  0  0
   60.5960   29.6680   46.7330 N   0  0  0  0  0  0  0  0  0  0  0  0
   58.2480   30.9990   45.6050 N   0  0  0  0  0  0  0  0  0  0  0  0
   58.4460   30.1560   46.1890 H   0  0  0  0  0  0  0  0  0  0  0  0
   57.6050   30.9590   44.4040 C   0  0  0  0  0  0  0  0  0  0  0  0
   57.0710   29.6830   43.8240 C   0  0  0  0  0  0  0  0  0  0  0  0
   58.1070   28.8090   43.5510 F   0  0  0  0  0  0  0  0  0  0  0  0
   56.2100   29.0950   44.7320 F   0  0  0  0  0  0  0  0  0  0  0  0
   56.3870   29.9380   42.6500 F   0  0  0  0  0  0  0  0  0  0  0  0
  1  2  1  0
  2  3  1  0
  3  4  1  0
  4  5  2  0
  5  6  1  0
  6  7  2  0
  7  8  1  0
  7  9  1  0
  9 10  1  0
  9 11  2  0
 11 12  1  0
 11 13  1  0
 13 14  1  0
 13 15  2  0
 15 16  1  0
 16 17  1  0
 17 18  2  0
 18 19  1  0
 19 20  2  0
 20 21  1  0
 21 22  2  0
 22 23  1  0
 22 24  1  0
 24 25  1  0
 24 26  2  0
 26 27  1  0
 27 28  1  0
 28 29  1  0
 28 30  1  0
 28 31  1  0
 27 32  1  0
 32 33  1  0
 32 34  1  0
 32 35  1  0
 26 36  1  0
 36 37  1  0
 36 38  2  0
 38 39  1  0
 19 40  1  0
 40 41  1  0
 41 42  2  0
 41 43  1  0
  4 44  1  0
 44 45  1  0
 44 46  1  0
 46 47  1  0
 47 48  1  0
 47 49  1  0
 47 50  1  0
 46  2  2  0
 15  6  1  0
 43 17  1  0
 38 21  1  0
M  CHG  2  40  -1  43  -1
M  END
>  <UniqueID>  (11) 
10

>  <SMILES>  (11) 
CN(C)c1ccc(/N=c2/nc(Sc3ccccc3/N=c3/[nH]c(C(F)(F)F)cs3)[n-]c(=O)[n-]2)cc1

>  <Energy>  (11) 
95.39664358058589

>  <Genealogy>  (11) 
CN(C)c1ccc(N=c2nc(Sc3ccccc3N=c3[nH]c(C(F)(F)F)cs3)[n-]c(=O)[n-]2)cc1 (protonated)
CN(C)c1ccc(/N=c2/nc(Sc3ccccc3/N=c3/[nH]c(C(F)(F)F)cs3)[n-]c(=O)[n-]2)cc1 (cis-trans isomerization)
CN(C)c1ccc(/N=c2/nc(Sc3ccccc3/N=c3/[nH]c(C(F)(F)F)cs3)[n-]c(=O)[n-]2)cc1 (3D coordinates assigned)
CN(C)c1ccc(/N=c2/nc(Sc3ccccc3/N=c3/[nH]c(C(F)(F)F)cs3)[n-]c(=O)[n-]2)cc1 (optimized conformer: 95.39664358058589 kcal/mol)

>  <smiles>  (11) 
CN(C)c1ccc(N=c2nc(Sc3ccccc3N=c3[nH]c(C(F)(F)F)cs3)[nH]c(=O)[nH]2)cc1

>  <score_type>  (11) 
oracle

>  <origin>  (11) 
adg

>  <m_score__min__energy>  (11) 
-11.06

>  <m_primary>  (11) 
energy

$$$$
11:0
     RDKit          3D

 60 63  0  0  0  0  0  0  0  0999 V2000
   57.4230   34.3870   44.5160 O   0  0  0  0  0  0  0  0  0  0  0  0
   57.4640   33.4990   45.4080 C   0  0  0  0  0  0  0  0  0  0  0  0
   56.6670   32.3200   45.2460 N   0  0  0  0  0  0  0  0  0  0  0  0
   57.1620   31.0390   44.8330 C   0  0  0  0  0  0  0  0  0  0  0  0
   56.4650   30.2440   43.9080 C   0  0  0  0  0  0  0  0  0  0  0  0
   57.0070   29.0330   43.4720 C   0  0  0  0  0  0  0  0  0  0  0  0
   58.2380   28.5970   43.9660 C   0  0  0  0  0  0  0  0  0  0  0  0
   58.9260   29.3570   44.9230 C   0  0  0  0  0  0  0  0  0  0  0  0
   60.2260   28.8590   45.5120 C   0  0  0  0  0  0  0  0  0  0  0  0
   60.0660   27.7210   46.4490 N   0  0  0  0  0  0  0  0  0  0  0  0
   59.2510   27.9510   47.6590 C   0  0  0  0  0  0  0  0  0  0  0  0
   57.7800   27.5570   47.4620 C   0  0  0  0  0  0  0  0  0  0  0  0
   57.6500   26.1270   46.9270 C   0  0  0  0  0  0  0  0  0  0  0  0
   56.2030   25.8210   46.6480 C   0  0  0  0  0  0  0  0  0  0  0  0
   55.4960   26.6480   46.0130 O   0  0  0  0  0  0  0  0  0  0  0  0
   55.6530   24.5650   47.0650 N   0  0  0  0  0  0  0  0  0  0  0  0
   55.6440   23.3530   46.2510 C   0  0  0  0  0  0  0  0  0  0  0  0
   54.9570   23.6600   44.8970 C   0  0  0  0  0  0  0  0  0  0  0  0
   55.9680   24.1010   43.8330 C   0  0  0  0  0  0  0  0  0  0  0  0
   57.0160   23.0020   43.5530 C   0  0  0  0  0  0  0  0  0  0  0  0
   57.2680   22.0720   44.7580 C   0  0  0  0  0  0  0  0  0  0  0  0
   57.0890   22.8170   46.0840 C   0  0  0  0  0  0  0  0  0  0  0  0
   58.4880   25.9380   45.6510 C   0  0  0  0  0  0  0  0  0  0  0  0
   59.9430   26.3720   45.8580 C   0  0  0  0  0  0  0  0  0  0  0  0
   58.4000   30.6010   45.3170 C   0  0  0  0  0  0  0  0  0  0  0  0
   58.3610   33.6730   46.5690 C   0  0  0  0  0  0  0  0  0  0  0  0
   59.2720   34.7040   46.7450 C   0  0  0  0  0  0  0  0  0  0  0  0
   59.8340   34.5160   47.9940 C   0  0  0  0  0  0  0  0  0  0  0  0
   59.2450   33.3860   48.5180 C   0  0  0  0  0  0  0  0  0  0  0  0
   59.6090   32.6830   50.0830 Cl  0  0  0  0  0  0  0  0  0  0  0  0
   58.3430   32.8800   47.6560 N   0  0  0  0  0  0  0  0  0  0  0  0
   55.4887   30.5766   43.5257 H   0  0  0  0  0  0  0  0  0  0  0  0
   56.4627   28.4211   42.7376 H   0  0  0  0  0  0  0  0  0  0  0  0
   58.6702   27.6529   43.6028 H   0  0  0  0  0  0  0  0  0  0  0  0
   60.8794   28.5388   44.6871 H   0  0  0  0  0  0  0  0  0  0  0  0
   60.6527   29.6911   46.0913 H   0  0  0  0  0  0  0  0  0  0  0  0
   59.6683   27.3547   48.4838 H   0  0  0  0  0  0  0  0  0  0  0  0
   59.2812   29.0277   47.8821 H   0  0  0  0  0  0  0  0  0  0  0  0
   57.2587   27.6262   48.4281 H   0  0  0  0  0  0  0  0  0  0  0  0
   57.3337   28.2430   46.7270 H   0  0  0  0  0  0  0  0  0  0  0  0
   58.0301   25.4315   47.6898 H   0  0  0  0  0  0  0  0  0  0  0  0
   55.0673   22.5575   46.7455 H   0  0  0  0  0  0  0  0  0  0  0  0
   54.4424   22.7537   44.5452 H   0  0  0  0  0  0  0  0  0  0  0  0
   54.2446   24.4834   45.0539 H   0  0  0  0  0  0  0  0  0  0  0  0
   55.4294   24.3262   42.9007 H   0  0  0  0  0  0  0  0  0  0  0  0
   56.4950   24.9909   44.2077 H   0  0  0  0  0  0  0  0  0  0  0  0
   56.6631   22.3909   42.7092 H   0  0  0  0  0  0  0  0  0  0  0  0
   57.9664   23.5095   43.3311 H   0  0  0  0  0  0  0  0  0  0  0  0
   56.5562   21.2343   44.7189 H   0  0  0  0  0  0  0  0  0  0  0  0
   58.3039   21.7060   44.7029 H   0  0  0  0  0  0  0  0  0  0  0  0
   57.3116   22.1284   46.9124 H   0  0  0  0  0  0  0  0  0  0  0  0
   57.7758   23.6762   46.0896 H   0  0  0  0  0  0  0  0  0  0  0  0
   58.4701   24.8754   45.3671 H   0  0  0  0  0  0  0  0  0  0  0  0
   58.0527   26.5654   44.8593 H   0  0  0  0  0  0  0  0  0  0  0  0
   60.4319   25.6499   46.5285 H   0  0  0  0  0  0  0  0  0  0  0  0
   60.4208   26.4024   44.8676 H   0  0  0  0  0  0  0  0  0  0  0  0
   58.9678   31.2361   46.0129 H   0  0  0  0  0  0  0  0  0  0  0  0
   59.5015   35.5103   46.0329 H   0  0  0  0  0  0  0  0  0  0  0  0
   60.5992   35.1437   48.4740 H   0  0  0  0  0  0  0  0  0  0  0  0
   57.7510   32.0330   47.8110 H   0  0  0  0  0  0  0  0  0  0  0  0
  1  2  2  0
  2  3  1  0
  3  4  1  0
  4  5  2  0
  5  6  1  0
  6  7  2  0
  7  8  1  0
  8  9  1  0
  9 10  1  0
 10 11  1  0
 11 12  1  0
 12 13  1  0
 13 14  1  0
 14 15  2  0
 14 16  1  0
 16 17  1  0
 17 18  1  0
 18 19  1  0
 19 20  1  0
 20 21  1  0
 21 22  1  0
 13 23  1  0
 23 24  1  0
  8 25  2  0
  2 26  1  0
 26 27  2  0
 27 28  1  0
 28 29  2  0
 29 30  1  0
 29 31  1  0
 25  4  1  0
 31 26  1  0
 24 10  1  0
 22 17  1  0
  5 32  1  0
  6 33  1  0
  7 34  1  0
  9 35  1  0
  9 36  1  0
 11 37  1  0
 11 38  1  0
 12 39  1  0
 12 40  1  0
 13 41  1  0
 17 42  1  0
 18 43  1  0
 18 44  1  0
 19 45  1  0
 19 46  1  0
 20 47  1  0
 20 48  1  0
 21 49  1  0
 21 50  1  0
 22 51  1  0
 22 52  1  0
 23 53  1  0
 23 54  1  0
 24 55  1  0
 24 56  1  0
 25 57  1  0
 27 58  1  0
 28 59  1  0
 31 60  1  0
M  CHG  2   3  -1  16  -1
M  END
>  <UniqueID>  (12) 
11

>  <SMILES>  (12) 
O=C([N-]c1cccc(CN2CCC(C(=O)[N-]C3CCCCC3)CC2)c1)c1ccc(Cl)[nH]1

>  <Energy>  (12) 
92.05897046959306

>  <Genealogy>  (12) 
O=C([N-]c1cccc(CN2CCC(C(=O)[N-]C3CCCCC3)CC2)c1)c1ccc(Cl)[nH]1 (protonated)
O=C([N-]c1cccc(CN2CCC(C(=O)[N-]C3CCCCC3)CC2)c1)c1ccc(Cl)[nH]1 (3D coordinates assigned)
O=C([N-]c1cccc(CN2CCC(C(=O)[N-]C3CCCCC3)CC2)c1)c1ccc(Cl)[nH]1 (nonaromatic ring conformer: 92.05897046959306 kcal/mol)

>  <smiles>  (12) 
O=C(Nc1cccc(CN2CCC(C(=O)NC3CCCCC3)CC2)c1)c1ccc(Cl)[nH]1

>  <score_type>  (12) 
oracle

>  <origin>  (12) 
adg

>  <m_score__min__energy>  (12) 
-12.42

>  <m_primary>  (12) 
energy

$$$$
12:0
     RDKit          3D

 20 21  0  0  0  0  0  0  0  0999 V2000
   58.1060   32.5120   42.4390 O   0  0  0  0  0  0  0  0  0  0  0  0
   57.4630   31.5720   42.9750 C   0  0  0  0  0  0  0  0  0  0  0  0
   56.6470   30.6000   42.2520 C   0  0  0  0  0  0  0  0  0  0  0  0
   56.1680   29.7290   43.1370 C   0  0  0  0  0  0  0  0  0  0  0  0
   56.6570   30.1180   44.4580 C   0  0  0  0  0  0  0  0  0  0  0  0
   56.3580   29.5390   45.5360 O   0  0  0  0  0  0  0  0  0  0  0  0
   57.4770   31.2800   44.3690 N   0  0  0  0  0  0  0  0  0  0  0  0
   58.1500   31.9850   45.4270 C   0  0  0  0  0  0  0  0  0  0  0  0
   58.4250   31.3450   46.6460 C   0  0  0  0  0  0  0  0  0  0  0  0
   59.0790   32.0310   47.6730 C   0  0  0  0  0  0  0  0  0  0  0  0
   59.4680   33.3630   47.4970 C   0  0  0  0  0  0  0  0  0  0  0  0
   60.2900   34.1920   48.8120 Cl  0  0  0  0  0  0  0  0  0  0  0  0
   59.1980   34.0130   46.2810 C   0  0  0  0  0  0  0  0  0  0  0  0
   59.6630   35.6880   46.0210 Cl  0  0  0  0  0  0  0  0  0  0  0  0
   58.5430   33.3240   45.2540 C   0  0  0  0  0  0  0  0  0  0  0  0
   56.4612   30.5897   41.1678 H   0  0  0  0  0  0  0  0  0  0  0  0
   55.5193   28.8691   42.9138 H   0  0  0  0  0  0  0  0  0  0  0  0
   58.1239   30.2974   46.7936 H   0  0  0  0  0  0  0  0  0  0  0  0
   59.2889   31.5208   48.6247 H   0  0  0  0  0  0  0  0  0  0  0  0
   58.3336   33.8347   44.3025 H   0  0  0  0  0  0  0  0  0  0  0  0
  1  2  2  0
  2  3  1  0
  3  4  2  0
  4  5  1  0
  5  6  2  0
  5  7  1  0
  7  8  1  0
  8  9  2  0
  9 10  1  0
 10 11  2  0
 11 12  1  0
 11 13  1  0
 13 14  1  0
 13 15  2  0
  7  2  1  0
 15  8  1  0
  3 16  1  0
  4 17  1  0
  9 18  1  0
 10 19  1  0
 15 20  1  0
M  END
>  <UniqueID>  (13) 
12

>  <SMILES>  (13) 
O=C1C=CC(=O)N1c1ccc(Cl)c(Cl)c1

>  <Energy>  (13) 
51.95095978210043

>  <Genealogy>  (13) 
O=C1C=CC(=O)N1c1ccc(Cl)c(Cl)c1 (3D coordinates assigned)
O=C1C=CC(=O)N1c1ccc(Cl)c(Cl)c1 (nonaromatic ring conformer: 51.95095978210043 kcal/mol)

>  <smiles>  (13) 
O=C1C=CC(=O)N1c1ccc(Cl)c(Cl)c1

>  <score_type>  (13) 
oracle

>  <origin>  (13) 
adg

>  <m_score__min__energy>  (13) 
-6.4699999999999998

>  <m_primary>  (13) 
energy

$$$$
13:0
     RDKit          3D

 43 45  0  0  0  0  0  0  0  0999 V2000
   55.5210   28.8950   44.9640 N   0  0  0  0  0  0  0  0  0  0  0  0
   56.6070   30.1520   44.4870 S   0  0  0  0  0  0  0  0  0  0  0  0
   57.0480   29.9250   43.0690 O   0  0  0  0  0  0  0  0  0  0  0  0
   55.8960   31.4740   44.5740 O   0  0  0  0  0  0  0  0  0  0  0  0
   58.0150   30.1410   45.5450 C   0  0  0  0  0  0  0  0  0  0  0  0
   58.1900   31.1740   46.4750 C   0  0  0  0  0  0  0  0  0  0  0  0
   59.3080   31.1870   47.3130 C   0  0  0  0  0  0  0  0  0  0  0  0
   60.2680   30.1630   47.2280 C   0  0  0  0  0  0  0  0  0  0  0  0
   61.4520   30.1590   48.0360 N   0  0  0  0  0  0  0  0  0  0  0  0
   61.4890   30.1890   49.7700 S   0  0  0  0  0  0  0  0  0  0  0  0
   61.5260   28.7730   50.2720 O   0  0  0  0  0  0  0  0  0  0  0  0
   62.7340   30.8990   50.2170 O   0  0  0  0  0  0  0  0  0  0  0  0
   60.0870   31.0390   50.4400 C   0  0  0  0  0  0  0  0  0  0  0  0
   58.8640   30.3550   50.5390 C   0  0  0  0  0  0  0  0  0  0  0  0
   57.7330   30.9950   51.0480 C   0  0  0  0  0  0  0  0  0  0  0  0
   57.8120   32.3220   51.4700 C   0  0  0  0  0  0  0  0  0  0  0  0
   59.0220   33.0130   51.3840 C   0  0  0  0  0  0  0  0  0  0  0  0
   60.1660   32.3840   50.8600 C   0  0  0  0  0  0  0  0  0  0  0  0
   61.4170   33.0820   50.7880 N   0  0  0  0  0  0  0  0  0  0  0  0
   61.7780   34.0550   49.7990 C   0  0  0  0  0  0  0  0  0  0  0  0
   62.6580   34.9190   50.0650 O   0  0  0  0  0  0  0  0  0  0  0  0
   61.0460   34.0980   48.5040 C   0  0  0  0  0  0  0  0  0  0  0  0
   59.7040   34.5300   48.4980 C   0  0  0  0  0  0  0  0  0  0  0  0
   58.9860   34.6210   47.3030 C   0  0  0  0  0  0  0  0  0  0  0  0
   59.5900   34.2750   46.0960 C   0  0  0  0  0  0  0  0  0  0  0  0
   60.9130   33.8310   46.0790 C   0  0  0  0  0  0  0  0  0  0  0  0
   61.6480   33.7360   47.2690 C   0  0  0  0  0  0  0  0  0  0  0  0
   63.2950   33.1210   47.1430 Cl  0  0  0  0  0  0  0  0  0  0  0  0
   60.0820   29.1260   46.3060 C   0  0  0  0  0  0  0  0  0  0  0  0
   58.9660   29.1160   45.4640 C   0  0  0  0  0  0  0  0  0  0  0  0
   54.6270   29.3560   45.2500 H   0  0  0  0  0  0  0  0  0  0  0  0
   57.4436   31.9789   46.5459 H   0  0  0  0  0  0  0  0  0  0  0  0
   59.4376   32.0009   48.0416 H   0  0  0  0  0  0  0  0  0  0  0  0
   58.7972   29.3066   50.2128 H   0  0  0  0  0  0  0  0  0  0  0  0
   56.7786   30.4524   51.1164 H   0  0  0  0  0  0  0  0  0  0  0  0
   56.9197   32.8248   51.8711 H   0  0  0  0  0  0  0  0  0  0  0  0
   59.0812   34.0561   51.7282 H   0  0  0  0  0  0  0  0  0  0  0  0
   59.2160   34.7989   49.4464 H   0  0  0  0  0  0  0  0  0  0  0  0
   57.9417   34.9665   47.3150 H   0  0  0  0  0  0  0  0  0  0  0  0
   59.0238   34.3518   45.1560 H   0  0  0  0  0  0  0  0  0  0  0  0
   61.3829   33.5533   45.1240 H   0  0  0  0  0  0  0  0  0  0  0  0
   60.8199   28.3126   46.2436 H   0  0  0  0  0  0  0  0  0  0  0  0
   58.8346   28.3015   44.7365 H   0  0  0  0  0  0  0  0  0  0  0  0
  1  2  1  0
  2  3  2  0
  2  4  2  0
  2  5  1  0
  5  6  2  0
  6  7  1  0
  7  8  2  0
  8  9  1  0
  9 10  1  0
 10 11  2  0
 10 12  2  0
 10 13  1  0
 13 14  2  0
 14 15  1  0
 15 16  2  0
 16 17  1  0
 17 18  2  0
 18 19  1  0
 19 20  1  0
 20 21  2  0
 20 22  1  0
 22 23  2  0
 23 24  1  0
 24 25  2  0
 25 26  1  0
 26 27  2  0
 27 28  1  0
  8 29  1  0
 29 30  2  0
 30  5  1  0
 18 13  1  0
 27 22  1  0
  1 31  1  0
  6 32  1  0
  7 33  1  0
 14 34  1  0
 15 35  1  0
 16 36  1  0
 17 37  1  0
 23 38  1  0
 24 39  1  0
 25 40  1  0
 26 41  1  0
 29 42  1  0
 30 43  1  0
M  CHG  3   1  -1   9  -1  19  -1
M  END
>  <UniqueID>  (14) 
13

>  <SMILES>  (14) 
[NH-]S(=O)(=O)c1ccc([N-]S(=O)(=O)c2ccccc2[N-]C(=O)c2ccccc2Cl)cc1

>  <Energy>  (14) 
55.158174939263155

>  <Genealogy>  (14) 
[NH-]S(=O)(=O)c1ccc([N-]S(=O)(=O)c2ccccc2[N-]C(=O)c2ccccc2Cl)cc1 (protonated)
[NH-]S(=O)(=O)c1ccc([N-]S(=O)(=O)c2ccccc2[N-]C(=O)c2ccccc2Cl)cc1 (3D coordinates assigned)
[NH-]S(=O)(=O)c1ccc([N-]S(=O)(=O)c2ccccc2[N-]C(=O)c2ccccc2Cl)cc1 (optimized conformer: 55.158174939263155 kcal/mol)

>  <smiles>  (14) 
NS(=O)(=O)c1ccc(NS(=O)(=O)c2ccccc2NC(=O)c2ccccc2Cl)cc1

>  <score_type>  (14) 
oracle

>  <origin>  (14) 
adg

>  <m_score__min__energy>  (14) 
-13.34

>  <m_primary>  (14) 
energy

$$$$
14:0
     RDKit          3D

 50 52  0  0  0  0  0  0  0  0999 V2000
   58.2530   34.7200   45.2160 O   0  0  0  0  0  0  0  0  0  0  0  0
   58.9250   33.9100   45.9080 C   0  0  0  0  0  0  0  0  0  0  0  0
   58.7870   32.4300   45.6550 C   0  0  0  0  0  0  0  0  0  0  0  0
   57.4390   32.0790   45.0250 C   0  0  0  0  0  0  0  0  0  0  0  0
   57.0460   30.7190   45.3760 N   0  0  0  0  0  0  0  0  0  0  0  0
   56.1340   29.9550   44.5840 C   0  0  0  0  0  0  0  0  0  0  0  0
   55.7210   30.4260   43.4910 O   0  0  0  0  0  0  0  0  0  0  0  0
   55.6680   28.6820   45.0510 N   0  0  0  0  0  0  0  0  0  0  0  0
   56.4710   27.6330   45.6140 C   0  0  0  0  0  0  0  0  0  0  0  0
   57.8640   27.7670   45.7600 C   0  0  0  0  0  0  0  0  0  0  0  0
   58.6090   26.7480   46.3640 C   0  0  0  0  0  0  0  0  0  0  0  0
   57.9720   25.5980   46.8360 C   0  0  0  0  0  0  0  0  0  0  0  0
   56.5880   25.4640   46.7050 C   0  0  0  0  0  0  0  0  0  0  0  0
   55.8370   26.4790   46.1010 C   0  0  0  0  0  0  0  0  0  0  0  0
   54.4590   26.3300   45.9760 O   0  0  0  0  0  0  0  0  0  0  0  0
   59.7570   34.4240   46.9550 N   0  0  0  0  0  0  0  0  0  0  0  0
   60.9950   33.8660   47.4230 C   0  0  0  0  0  0  0  0  0  0  0  0
   62.1300   33.8330   46.5930 C   0  0  0  0  0  0  0  0  0  0  0  0
   63.3250   33.2700   47.0460 C   0  0  0  0  0  0  0  0  0  0  0  0
   63.4050   32.7450   48.3360 C   0  0  0  0  0  0  0  0  0  0  0  0
   62.2970   32.8030   49.1850 C   0  0  0  0  0  0  0  0  0  0  0  0
   61.0940   33.3850   48.7500 C   0  0  0  0  0  0  0  0  0  0  0  0
   59.9480   33.4560   49.6870 C   0  0  0  0  0  0  0  0  0  0  0  0
   59.5900   34.5820   50.1330 O   0  0  0  0  0  0  0  0  0  0  0  0
   59.2280   32.2720   50.0830 N   0  0  0  0  0  0  0  0  0  0  0  0
   58.8190   31.2910   49.0700 C   0  0  0  0  0  0  0  0  0  0  0  0
   58.6300   29.9220   49.7280 C   0  0  0  0  0  0  0  0  0  0  0  0
   57.7450   30.0150   50.8280 O   0  0  0  0  0  0  0  0  0  0  0  0
   58.3290   30.8120   51.8440 C   0  0  0  0  0  0  0  0  0  0  0  0
   58.5170   32.2570   51.3650 C   0  0  0  0  0  0  0  0  0  0  0  0
   59.5905   32.1096   44.9756 H   0  0  0  0  0  0  0  0  0  0  0  0
   58.8541   31.9125   46.6233 H   0  0  0  0  0  0  0  0  0  0  0  0
   56.6755   32.7815   45.3904 H   0  0  0  0  0  0  0  0  0  0  0  0
   57.5299   32.1504   43.9311 H   0  0  0  0  0  0  0  0  0  0  0  0
   58.3687   28.6751   45.3984 H   0  0  0  0  0  0  0  0  0  0  0  0
   59.6991   26.8529   46.4673 H   0  0  0  0  0  0  0  0  0  0  0  0
   58.5599   24.7985   47.3105 H   0  0  0  0  0  0  0  0  0  0  0  0
   56.0869   24.5584   47.0775 H   0  0  0  0  0  0  0  0  0  0  0  0
   62.0759   34.2543   45.5783 H   0  0  0  0  0  0  0  0  0  0  0  0
   64.2039   33.2405   46.3852 H   0  0  0  0  0  0  0  0  0  0  0  0
   64.3413   32.2850   48.6850 H   0  0  0  0  0  0  0  0  0  0  0  0
   62.3667   32.3898   50.2021 H   0  0  0  0  0  0  0  0  0  0  0  0
   57.8715   31.6110   48.6120 H   0  0  0  0  0  0  0  0  0  0  0  0
   59.5968   31.2198   48.2954 H   0  0  0  0  0  0  0  0  0  0  0  0
   58.2157   29.2202   48.9893 H   0  0  0  0  0  0  0  0  0  0  0  0
   59.6060   29.5643   50.0879 H   0  0  0  0  0  0  0  0  0  0  0  0
   57.6730   30.8076   52.7270 H   0  0  0  0  0  0  0  0  0  0  0  0
   59.3148   30.3939   52.0960 H   0  0  0  0  0  0  0  0  0  0  0  0
   57.5320   32.7306   51.2408 H   0  0  0  0  0  0  0  0  0  0  0  0
   59.1060   32.8108   52.1109 H   0  0  0  0  0  0  0  0  0  0  0  0
  1  2  2  0
  2  3  1  0
  3  4  1  0
  4  5  1  0
  5  6  1  0
  6  7  2  0
  6  8  1  0
  8  9  1  0
  9 10  2  0
 10 11  1  0
 11 12  2  0
 12 13  1  0
 13 14  2  0
 14 15  1  0
  2 16  1  0
 16 17  1  0
 17 18  2  0
 18 19  1  0
 19 20  2  0
 20 21  1  0
 21 22  2  0
 22 23  1  0
 23 24  2  0
 23 25  1  0
 25 26  1  0
 26 27  1  0
 27 28  1  0
 28 29  1  0
 29 30  1  0
 14  9  1  0
 22 17  1  0
 30 25  1  0
  3 31  1  0
  3 32  1  0
  4 33  1  0
  4 34  1  0
 10 35  1  0
 11 36  1  0
 12 37  1  0
 13 38  1  0
 18 39  1  0
 19 40  1  0
 20 41  1  0
 21 42  1  0
 26 43  1  0
 26 44  1  0
 27 45  1  0
 27 46  1  0
 29 47  1  0
 29 48  1  0
 30 49  1  0
 30 50  1  0
M  CHG  4   5  -1   8  -1  15  -1  16  -1
M  END
>  <UniqueID>  (15) 
14

>  <SMILES>  (15) 
O=C(CC[N-]C(=O)[N-]c1ccccc1[O-])[N-]c1ccccc1C(=O)N1CCOCC1

>  <Energy>  (15) 
62.620776697694595

>  <Genealogy>  (15) 
O=C(CC[N-]C(=O)[N-]c1ccccc1[O-])[N-]c1ccccc1C(=O)N1CCOCC1 (protonated)
O=C(CC[N-]C(=O)[N-]c1ccccc1[O-])[N-]c1ccccc1C(=O)N1CCOCC1 (3D coordinates assigned)
O=C(CC[N-]C(=O)[N-]c1ccccc1[O-])[N-]c1ccccc1C(=O)N1CCOCC1 (nonaromatic ring conformer: 62.620776697694595 kcal/mol)

>  <smiles>  (15) 
O=C(CCNC(=O)Nc1ccccc1O)Nc1ccccc1C(=O)N1CCOCC1

>  <score_type>  (15) 
oracle

>  <origin>  (15) 
adg

>  <m_score__min__energy>  (15) 
-17.390000000000001

>  <m_primary>  (15) 
energy

$$$$
15:0
     RDKit          3D

 42 44  0  0  0  0  0  0  0  0999 V2000
   58.2730   32.2340   42.4770 N   0  0  0  0  0  0  0  0  0  0  0  0
   58.1300   32.7560   43.8040 C   0  0  0  0  0  0  0  0  0  0  0  0
   58.9800   33.7860   44.2350 C   0  0  0  0  0  0  0  0  0  0  0  0
   58.8560   34.3150   45.5230 C   0  0  0  0  0  0  0  0  0  0  0  0
   59.9230   35.6040   46.0500 Cl  0  0  0  0  0  0  0  0  0  0  0  0
   57.8880   33.8110   46.3940 C   0  0  0  0  0  0  0  0  0  0  0  0
   57.0380   32.7850   45.9770 C   0  0  0  0  0  0  0  0  0  0  0  0
   57.1370   32.2620   44.6740 C   0  0  0  0  0  0  0  0  0  0  0  0
   56.2680   31.2050   44.2360 N   0  0  0  0  0  0  0  0  0  0  0  0
   56.2580   29.8570   44.7250 C   0  0  0  0  0  0  0  0  0  0  0  0
   55.1500   29.2800   44.8810 O   0  0  0  0  0  0  0  0  0  0  0  0
   57.5050   29.1460   45.1000 C   0  0  0  0  0  0  0  0  0  0  0  0
   57.7980   27.8940   44.5340 C   0  0  0  0  0  0  0  0  0  0  0  0
   58.9800   27.2280   44.8660 C   0  0  0  0  0  0  0  0  0  0  0  0
   59.8730   27.7950   45.7770 C   0  0  0  0  0  0  0  0  0  0  0  0
   59.5820   29.0250   46.3850 C   0  0  0  0  0  0  0  0  0  0  0  0
   60.5300   29.5960   47.3020 N   0  0  0  0  0  0  0  0  0  0  0  0
   60.1740   30.3150   48.4900 C   0  0  0  0  0  0  0  0  0  0  0  0
   58.9890   30.2910   48.9260 O   0  0  0  0  0  0  0  0  0  0  0  0
   61.1800   31.0550   49.1900 N   0  0  0  0  0  0  0  0  0  0  0  0
   62.0680   31.9880   48.5640 C   0  0  0  0  0  0  0  0  0  0  0  0
   61.7040   32.5400   47.3300 C   0  0  0  0  0  0  0  0  0  0  0  0
   62.5420   33.4560   46.6890 C   0  0  0  0  0  0  0  0  0  0  0  0
   63.7620   33.8130   47.2700 C   0  0  0  0  0  0  0  0  0  0  0  0
   64.1490   33.2440   48.4860 C   0  0  0  0  0  0  0  0  0  0  0  0
   63.3150   32.3260   49.1360 C   0  0  0  0  0  0  0  0  0  0  0  0
   63.9630   31.4910   50.7360 Br  0  0  0  0  0  0  0  0  0  0  0  0
   58.3990   29.7000   46.0350 C   0  0  0  0  0  0  0  0  0  0  0  0
   58.1420   31.2190   42.2710 H   0  0  0  0  0  0  0  0  0  0  0  0
   58.5110   32.8660   41.6810 H   0  0  0  0  0  0  0  0  0  0  0  0
   59.7493   34.1799   43.5545 H   0  0  0  0  0  0  0  0  0  0  0  0
   57.7951   34.2228   47.4098 H   0  0  0  0  0  0  0  0  0  0  0  0
   56.2858   32.3826   46.6715 H   0  0  0  0  0  0  0  0  0  0  0  0
   57.0925   27.4356   43.8253 H   0  0  0  0  0  0  0  0  0  0  0  0
   59.2079   26.2540   44.4084 H   0  0  0  0  0  0  0  0  0  0  0  0
   60.8108   27.2738   46.0195 H   0  0  0  0  0  0  0  0  0  0  0  0
   61.5470   29.4200   47.1370 H   0  0  0  0  0  0  0  0  0  0  0  0
   60.7516   32.2506   46.8618 H   0  0  0  0  0  0  0  0  0  0  0  0
   62.2415   33.8963   45.7268 H   0  0  0  0  0  0  0  0  0  0  0  0
   64.4172   34.5416   46.7702 H   0  0  0  0  0  0  0  0  0  0  0  0
   65.1147   33.5188   48.9354 H   0  0  0  0  0  0  0  0  0  0  0  0
   58.1700   30.6716   46.4971 H   0  0  0  0  0  0  0  0  0  0  0  0
  1  2  1  0
  2  3  2  0
  3  4  1  0
  4  5  1  0
  4  6  2  0
  6  7  1  0
  7  8  2  0
  8  9  1  0
  9 10  1  0
 10 11  2  0
 10 12  1  0
 12 13  2  0
 13 14  1  0
 14 15  2  0
 15 16  1  0
 16 17  1  0
 17 18  1  0
 18 19  2  0
 18 20  1  0
 20 21  1  0
 21 22  2  0
 22 23  1  0
 23 24  2  0
 24 25  1  0
 25 26  2  0
 26 27  1  0
 16 28  2  0
  8  2  1  0
 28 12  1  0
 26 21  1  0
  1 29  1  0
  1 30  1  0
  3 31  1  0
  6 32  1  0
  7 33  1  0
 13 34  1  0
 14 35  1  0
 15 36  1  0
 17 37  1  0
 22 38  1  0
 23 39  1  0
 24 40  1  0
 25 41  1  0
 28 42  1  0
M  CHG  2   9  -1  20  -1
M  END
>  <UniqueID>  (16) 
15

>  <SMILES>  (16) 
Nc1cc(Cl)ccc1[N-]C(=O)c1cccc(NC(=O)[N-]c2ccccc2Br)c1

>  <Energy>  (16) 
61.55847557387083

>  <Genealogy>  (16) 
Nc1cc(Cl)ccc1[N-]C(=O)c1cccc(NC(=O)[N-]c2ccccc2Br)c1 (protonated)
Nc1cc(Cl)ccc1[N-]C(=O)c1cccc(NC(=O)[N-]c2ccccc2Br)c1 (3D coordinates assigned)
Nc1cc(Cl)ccc1[N-]C(=O)c1cccc(NC(=O)[N-]c2ccccc2Br)c1 (optimized conformer: 61.55847557387083 kcal/mol)

>  <smiles>  (16) 
Nc1cc(Cl)ccc1NC(=O)c1cccc(NC(=O)Nc2ccccc2Br)c1

>  <score_type>  (16) 
oracle

>  <origin>  (16) 
adg

>  <m_score__min__energy>  (16) 
-12.029999999999999

>  <m_primary>  (16) 
energy

$$$$
16:0
     RDKit          3D

 36 40  0  0  0  0  0  0  0  0999 V2000
   58.4369   26.7614   44.3022 H   0  0  0  0  0  0  0  0  0  0  0  0
   57.7950   27.1020   45.1280 C   0  0  0  0  0  0  0  0  0  0  0  0
   57.2670   26.0920   46.0500 C   0  0  0  0  0  0  0  0  0  0  0  0
   57.9980   25.0810   46.5520 N   0  0  0  0  0  0  0  0  0  0  0  0
   57.0830   24.3340   47.2070 C   0  0  0  0  0  0  0  0  0  0  0  0
   57.3860   23.2860   47.8360 O   0  0  0  0  0  0  0  0  0  0  0  0
   55.8130   24.7880   47.1220 N   0  0  0  0  0  0  0  0  0  0  0  0
   55.9480   25.8960   46.3770 C   0  0  0  0  0  0  0  0  0  0  0  0
   54.8830   26.6930   45.9750 O   0  0  0  0  0  0  0  0  0  0  0  0
   57.5440   28.4150   45.2290 C   0  0  0  0  0  0  0  0  0  0  0  0
   56.5580   29.1010   44.5380 C   0  0  0  0  0  0  0  0  0  0  0  0
   55.8251   28.6412   43.8586 H   0  0  0  0  0  0  0  0  0  0  0  0
   56.6320   30.4190   44.8240 N   0  0  0  0  0  0  0  0  0  0  0  0
   57.6280   30.5980   45.6750 N   0  0  0  0  0  0  0  0  0  0  0  0
   58.1540   31.7600   46.1740 C   0  0  0  0  0  0  0  0  0  0  0  0
   57.6510   32.9620   46.0180 N   0  0  0  0  0  0  0  0  0  0  0  0
   58.0350   34.3700   45.7900 C   0  0  0  0  0  0  0  0  0  0  0  0
   56.9890   34.7097   45.7704 H   0  0  0  0  0  0  0  0  0  0  0  0
   59.2520   34.6380   44.9320 C   0  0  0  0  0  0  0  0  0  0  0  0
   59.8047   33.8004   44.4815 H   0  0  0  0  0  0  0  0  0  0  0  0
   59.4619   35.2514   44.0433 H   0  0  0  0  0  0  0  0  0  0  0  0
   59.3000   34.8650   46.4530 C   0  0  0  0  0  0  0  0  0  0  0  0
   59.8875   34.1903   47.0930 H   0  0  0  0  0  0  0  0  0  0  0  0
   59.5591   35.7093   47.1088 H   0  0  0  0  0  0  0  0  0  0  0  0
   59.3010   31.6620   46.8990 N   0  0  0  0  0  0  0  0  0  0  0  0
   59.8980   30.4620   47.1480 C   0  0  0  0  0  0  0  0  0  0  0  0
   61.0280   30.4490   47.7920 N   0  0  0  0  0  0  0  0  0  0  0  0
   61.9910   31.5080   47.8230 C   0  0  0  0  0  0  0  0  0  0  0  0
   63.1540   31.4650   47.1500 N   0  0  0  0  0  0  0  0  0  0  0  0
   63.7530   32.6370   47.3020 N   0  0  0  0  0  0  0  0  0  0  0  0
   62.9620   33.4310   48.0500 C   0  0  0  0  0  0  0  0  0  0  0  0
   63.1970   34.4646   48.3440 H   0  0  0  0  0  0  0  0  0  0  0  0
   61.8140   32.7500   48.3900 C   0  0  0  0  0  0  0  0  0  0  0  0
   60.9572   33.1131   48.9766 H   0  0  0  0  0  0  0  0  0  0  0  0
   59.3440   29.3140   46.6600 N   0  0  0  0  0  0  0  0  0  0  0  0
   58.2020   29.4100   45.9350 C   0  0  0  0  0  0  0  0  0  0  0  0
  1  2  1  0
  2  3  1  0
  3  4  1  0
  4  5  1  0
  5  6  2  0
  5  7  1  0
  7  8  1  0
  8  9  1  0
  2 10  2  3
 10 11  1  0
 11 12  1  0
 11 13  2  0
 13 14  1  0
 14 15  1  0
 15 16  2  3
 16 17  1  0
 17 18  1  0
 17 19  1  0
 19 20  1  0
 19 21  1  0
 19 22  1  0
 22 23  1  0
 22 24  1  0
 15 25  1  0
 25 26  1  0
 26 27  2  0
 27 28  1  0
 28 29  2  0
 29 30  1  0
 30 31  1  0
 31 32  1  0
 31 33  2  0
 33 34  1  0
 26 35  1  0
 35 36  2  0
  8  3  2  0
 36 10  1  0
 36 14  1  0
 22 17  1  0
 33 28  1  0
M  CHG  5   4  -1   7  -1   9  -1  25  -1  30  -1
M  END
>  <UniqueID>  (17) 
16

>  <SMILES>  (17) 
O=c1[n-]c([O-])c(C=c2cnn3c(=NC4CC4)[n-]/c(=N/c4cc[n-]n4)nc23)[n-]1

>  <Energy>  (17) 
442.32615541295854

>  <Genealogy>  (17) 
O=c1[n-]c([O-])c(C=c2cnn3c(=NC4CC4)[n-]c(=Nc4cc[n-]n4)nc23)[n-]1 (protonated)
O=c1[n-]c([O-])c(C=c2cnn3c(=NC4CC4)[n-]/c(=N/c4cc[n-]n4)nc23)[n-]1 (cis-trans isomerization)
O=c1[n-]c([O-])c(C=c2cnn3c(=NC4CC4)[n-]/c(=N/c4cc[n-]n4)nc23)[n-]1 (3D coordinates assigned)
O=c1[n-]c([O-])c(C=c2cnn3c(=NC4CC4)[n-]/c(=N/c4cc[n-]n4)nc23)[n-]1 (nonaromatic ring conformer: 442.32615541295854 kcal/mol)

>  <smiles>  (17) 
O=c1[nH]c(O)c(C=c2cnn3c(=NC4CC4)[nH]c(=Nc4cc[nH]n4)nc23)[nH]1

>  <score_type>  (17) 
oracle

>  <origin>  (17) 
adg

>  <m_score__min__energy>  (17) 
-17.120000000000001

>  <m_primary>  (17) 
energy

$$$$
17:0
     RDKit          3D

 51 54  0  0  0  0  0  0  0  0999 V2000
   57.4240   34.5890   44.8800 C   0  0  0  0  0  0  0  0  0  0  0  0
   58.4260   33.7670   45.6230 C   0  0  0  0  0  0  0  0  0  0  0  0
   59.5170   34.2650   46.3070 C   0  0  0  0  0  0  0  0  0  0  0  0
   60.1970   33.1570   46.7900 C   0  0  0  0  0  0  0  0  0  0  0  0
   61.4470   33.1490   47.5810 C   0  0  0  0  0  0  0  0  0  0  0  0
   62.5230   32.3430   47.1680 C   0  0  0  0  0  0  0  0  0  0  0  0
   63.7140   32.3200   47.8990 C   0  0  0  0  0  0  0  0  0  0  0  0
   63.8470   33.1040   49.0480 C   0  0  0  0  0  0  0  0  0  0  0  0
   65.3390   33.0670   49.9680 Cl  0  0  0  0  0  0  0  0  0  0  0  0
   62.7850   33.9100   49.4680 C   0  0  0  0  0  0  0  0  0  0  0  0
   61.5900   33.9320   48.7430 C   0  0  0  0  0  0  0  0  0  0  0  0
   59.5620   32.0620   46.4360 O   0  0  0  0  0  0  0  0  0  0  0  0
   58.4900   32.3860   45.7500 C   0  0  0  0  0  0  0  0  0  0  0  0
   57.5610   31.3710   45.2210 C   0  0  0  0  0  0  0  0  0  0  0  0
   57.0070   31.5880   44.1120 O   0  0  0  0  0  0  0  0  0  0  0  0
   57.2770   30.1390   45.8980 N   0  0  0  0  0  0  0  0  0  0  0  0
   57.7550   28.8200   45.5840 C   0  0  0  0  0  0  0  0  0  0  0  0
   57.4080   28.2950   44.3320 C   0  0  0  0  0  0  0  0  0  0  0  0
   57.7860   27.0010   43.9710 C   0  0  0  0  0  0  0  0  0  0  0  0
   58.5320   26.2210   44.8510 C   0  0  0  0  0  0  0  0  0  0  0  0
   58.9210   26.7390   46.0870 C   0  0  0  0  0  0  0  0  0  0  0  0
   58.5570   28.0450   46.4660 C   0  0  0  0  0  0  0  0  0  0  0  0
   59.0810   28.5690   47.7470 C   0  0  0  0  0  0  0  0  0  0  0  0
   59.5310   27.7670   48.6080 O   0  0  0  0  0  0  0  0  0  0  0  0
   59.1020   29.9890   47.9820 N   0  0  0  0  0  0  0  0  0  0  0  0
   59.5010   30.6270   49.2110 C   0  0  0  0  0  0  0  0  0  0  0  0
   60.7950   30.4810   49.7400 C   0  0  0  0  0  0  0  0  0  0  0  0
   61.1390   31.1060   50.9410 C   0  0  0  0  0  0  0  0  0  0  0  0
   60.1920   31.8570   51.6410 C   0  0  0  0  0  0  0  0  0  0  0  0
   58.8810   31.9780   51.1530 C   0  0  0  0  0  0  0  0  0  0  0  0
   57.8690   32.7400   51.9170 C   0  0  0  0  0  0  0  0  0  0  0  0
   58.1080   33.9150   52.3030 O   0  0  0  0  0  0  0  0  0  0  0  0
   56.6380   32.1690   52.2200 O   0  0  0  0  0  0  0  0  0  0  0  0
   58.5470   31.3590   49.9370 C   0  0  0  0  0  0  0  0  0  0  0  0
   56.7793   35.1179   45.5974 H   0  0  0  0  0  0  0  0  0  0  0  0
   57.9471   35.3216   44.2478 H   0  0  0  0  0  0  0  0  0  0  0  0
   56.8078   33.9328   44.2478 H   0  0  0  0  0  0  0  0  0  0  0  0
   59.7904   35.3220   46.4411 H   0  0  0  0  0  0  0  0  0  0  0  0
   62.4264   31.7259   46.2626 H   0  0  0  0  0  0  0  0  0  0  0  0
   64.5483   31.6835   47.5692 H   0  0  0  0  0  0  0  0  0  0  0  0
   62.8899   34.5287   50.3715 H   0  0  0  0  0  0  0  0  0  0  0  0
   60.7564   34.5646   49.0820 H   0  0  0  0  0  0  0  0  0  0  0  0
   56.8310   28.9099   43.6256 H   0  0  0  0  0  0  0  0  0  0  0  0
   57.4944   26.5968   42.9904 H   0  0  0  0  0  0  0  0  0  0  0  0
   58.8149   25.1954   44.5715 H   0  0  0  0  0  0  0  0  0  0  0  0
   59.5185   26.1201   46.7726 H   0  0  0  0  0  0  0  0  0  0  0  0
   58.9390   30.6070   47.1550 H   0  0  0  0  0  0  0  0  0  0  0  0
   61.5397   29.8723   49.2062 H   0  0  0  0  0  0  0  0  0  0  0  0
   62.1603   31.0062   51.3372 H   0  0  0  0  0  0  0  0  0  0  0  0
   60.4747   32.3563   52.5795 H   0  0  0  0  0  0  0  0  0  0  0  0
   57.5223   31.4489   49.5472 H   0  0  0  0  0  0  0  0  0  0  0  0
  1  2  1  0
  2  3  1  0
  3  4  2  0
  4  5  1  0
  5  6  2  0
  6  7  1  0
  7  8  2  0
  8  9  1  0
  8 10  1  0
 10 11  2  0
  4 12  1  0
 12 13  1  0
 13 14  1  0
 14 15  2  0
 14 16  1  0
 16 17  1  0
 17 18  2  0
 18 19  1  0
 19 20  2  0
 20 21  1  0
 21 22  2  0
 22 23  1  0
 23 24  2  0
 23 25  1  0
 25 26  1  0
 26 27  2  0
 27 28  1  0
 28 29  2  0
 29 30  1  0
 30 31  1  0
 31 32  2  0
 31 33  1  0
 30 34  2  0
 13  2  2  0
 22 17  1  0
 34 26  1  0
 11  5  1  0
  1 35  1  0
  1 36  1  0
  1 37  1  0
  3 38  1  0
  6 39  1  0
  7 40  1  0
 10 41  1  0
 11 42  1  0
 18 43  1  0
 19 44  1  0
 20 45  1  0
 21 46  1  0
 25 47  1  0
 27 48  1  0
 28 49  1  0
 29 50  1  0
 34 51  1  0
M  CHG  2  16  -1  33  -1
M  END
>  <UniqueID>  (18) 
17

>  <SMILES>  (18) 
Cc1cc(-c2ccc(Cl)cc2)oc1C(=O)[N-]c1ccccc1C(=O)Nc1cccc(C(=O)[O-])c1

>  <Energy>  (18) 
93.64043711975314

>  <Genealogy>  (18) 
Cc1cc(-c2ccc(Cl)cc2)oc1C(=O)[N-]c1ccccc1C(=O)Nc1cccc(C(=O)[O-])c1 (protonated)
Cc1cc(-c2ccc(Cl)cc2)oc1C(=O)[N-]c1ccccc1C(=O)Nc1cccc(C(=O)[O-])c1 (3D coordinates assigned)
Cc1cc(-c2ccc(Cl)cc2)oc1C(=O)[N-]c1ccccc1C(=O)Nc1cccc(C(=O)[O-])c1 (optimized conformer: 93.64043711975314 kcal/mol)

>  <smiles>  (18) 
Cc1cc(-c2ccc(Cl)cc2)oc1C(=O)Nc1ccccc1C(=O)Nc1cccc(C(=O)O)c1

>  <score_type>  (18) 
oracle

>  <origin>  (18) 
adg

>  <m_score__min__energy>  (18) 
-13.800000000000001

>  <m_primary>  (18) 
energy

$$$$
18:0
     RDKit          3D

 63 67  0  0  0  0  0  0  0  0999 V2000
   56.2720   26.9280   46.3930 H   0  0  0  0  0  0  0  0  0  0  0  0
   55.4530   26.3330   46.3400 O   0  0  0  0  0  0  0  0  0  0  0  0
   55.4850   25.1010   45.6880 C   0  0  0  0  0  0  0  0  0  0  0  0
   54.3060   24.3570   45.5330 C   0  0  0  0  0  0  0  0  0  0  0  0
   53.3555   24.7490   45.9240 H   0  0  0  0  0  0  0  0  0  0  0  0
   54.3340   23.1200   44.8840 C   0  0  0  0  0  0  0  0  0  0  0  0
   53.4060   22.5421   44.7622 H   0  0  0  0  0  0  0  0  0  0  0  0
   55.5390   22.6170   44.3900 C   0  0  0  0  0  0  0  0  0  0  0  0
   55.5591   21.6418   43.8814 H   0  0  0  0  0  0  0  0  0  0  0  0
   56.7190   23.3490   44.5400 C   0  0  0  0  0  0  0  0  0  0  0  0
   57.6658   22.9466   44.1505 H   0  0  0  0  0  0  0  0  0  0  0  0
   56.7030   24.5990   45.1870 C   0  0  0  0  0  0  0  0  0  0  0  0
   57.9900   25.3650   45.3820 C   0  0  0  0  0  0  0  0  0  0  0  0
   58.0015   26.2311   44.7039 H   0  0  0  0  0  0  0  0  0  0  0  0
   58.8365   24.6980   45.1617 H   0  0  0  0  0  0  0  0  0  0  0  0
   58.1060   25.8340   46.7630 N   0  0  0  0  0  0  0  0  0  0  0  0
   58.3150   27.0680   47.1100 C   0  0  0  0  0  0  0  0  0  0  0  0
   59.0300   27.3320   48.2330 N   0  0  0  0  0  0  0  0  0  0  0  0
   59.3060   28.6150   48.5840 C   0  0  0  0  0  0  0  0  0  0  0  0
   59.9630   28.8440   49.6820 N   0  0  0  0  0  0  0  0  0  0  0  0
   61.1310   29.7190   49.8130 C   0  0  0  0  0  0  0  0  0  0  0  0
   61.5513   29.5976   50.8223 H   0  0  0  0  0  0  0  0  0  0  0  0
   61.8542   29.4297   49.0363 H   0  0  0  0  0  0  0  0  0  0  0  0
   60.7870   31.1850   49.6010 C   0  0  0  0  0  0  0  0  0  0  0  0
   59.6520   31.7450   50.2270 C   0  0  0  0  0  0  0  0  0  0  0  0
   59.0334   31.1177   50.8857 H   0  0  0  0  0  0  0  0  0  0  0  0
   59.3020   33.0780   50.0250 C   0  0  0  0  0  0  0  0  0  0  0  0
   58.4209   33.4954   50.5344 H   0  0  0  0  0  0  0  0  0  0  0  0
   60.0610   33.8850   49.1820 C   0  0  0  0  0  0  0  0  0  0  0  0
   59.7807   34.9382   49.0330 H   0  0  0  0  0  0  0  0  0  0  0  0
   61.1800   33.3610   48.5230 C   0  0  0  0  0  0  0  0  0  0  0  0
   61.9320   34.1840   47.6690 C   0  0  0  0  0  0  0  0  0  0  0  0
   61.6465   35.2375   47.5324 H   0  0  0  0  0  0  0  0  0  0  0  0
   63.0380   33.6720   46.9940 C   0  0  0  0  0  0  0  0  0  0  0  0
   63.6260   34.3235   46.3308 H   0  0  0  0  0  0  0  0  0  0  0  0
   63.4010   32.3370   47.1570 C   0  0  0  0  0  0  0  0  0  0  0  0
   64.2708   31.9367   46.6154 H   0  0  0  0  0  0  0  0  0  0  0  0
   62.6670   31.5040   48.0040 C   0  0  0  0  0  0  0  0  0  0  0  0
   62.9603   30.4501   48.1191 H   0  0  0  0  0  0  0  0  0  0  0  0
   61.5510   32.0010   48.7150 C   0  0  0  0  0  0  0  0  0  0  0  0
   58.8670   29.6350   47.7980 N   0  0  0  0  0  0  0  0  0  0  0  0
   58.1200   29.3800   46.6900 C   0  0  0  0  0  0  0  0  0  0  0  0
   57.6640   30.3420   45.9380 N   0  0  0  0  0  0  0  0  0  0  0  0
   57.1250   30.2580   44.5730 C   0  0  1  0  0  0  0  0  0  0  0  0
   57.7697   29.5731   44.0026 H   0  0  0  0  0  0  0  0  0  0  0  0
   55.7660   29.6030   44.5140 C   0  0  0  0  0  0  0  0  0  0  0  0
   55.5250   28.6030   45.2430 O   0  0  0  0  0  0  0  0  0  0  0  0
   54.7800   30.0620   43.6520 O   0  0  0  0  0  0  0  0  0  0  0  0
   57.2160   31.6220   43.8460 C   0  0  0  0  0  0  0  0  0  0  0  0
   57.8461   31.4925   42.9537 H   0  0  0  0  0  0  0  0  0  0  0  0
   56.1826   31.9158   43.6097 H   0  0  0  0  0  0  0  0  0  0  0  0
   57.7980   32.7450   44.6730 C   0  0  0  0  0  0  0  0  0  0  0  0
   57.2670   33.0370   45.9440 C   0  0  0  0  0  0  0  0  0  0  0  0
   56.4179   32.4535   46.3295 H   0  0  0  0  0  0  0  0  0  0  0  0
   57.8130   34.0640   46.7180 C   0  0  0  0  0  0  0  0  0  0  0  0
   57.3727   34.3085   47.6959 H   0  0  0  0  0  0  0  0  0  0  0  0
   58.9180   34.7810   46.2510 C   0  0  0  0  0  0  0  0  0  0  0  0
   59.3491   35.5882   46.8615 H   0  0  0  0  0  0  0  0  0  0  0  0
   59.4740   34.4710   45.0080 C   0  0  0  0  0  0  0  0  0  0  0  0
   60.3592   35.0185   44.6521 H   0  0  0  0  0  0  0  0  0  0  0  0
   58.9110   33.4690   44.2150 C   0  0  0  0  0  0  0  0  0  0  0  0
   59.3410   33.2457   43.2274 H   0  0  0  0  0  0  0  0  0  0  0  0
   57.8490   28.0960   46.3530 N   0  0  0  0  0  0  0  0  0  0  0  0
  1  2  1  0
  2  3  1  0
  3  4  2  0
  4  5  1  0
  4  6  1  0
  6  7  1  0
  6  8  2  0
  8  9  1  0
  8 10  1  0
 10 11  1  0
 10 12  2  0
 12 13  1  0
 13 14  1  0
 13 15  1  0
 13 16  1  0
 16 17  2  0
 17 18  1  0
 18 19  1  0
 19 20  2  3
 20 21  1  0
 21 22  1  0
 21 23  1  0
 21 24  1  0
 24 25  2  0
 25 26  1  0
 25 27  1  0
 27 28  1  0
 27 29  2  0
 29 30  1  0
 29 31  1  0
 31 32  2  0
 32 33  1  0
 32 34  1  0
 34 35  1  0
 34 36  2  0
 36 37  1  0
 36 38  1  0
 38 39  1  0
 38 40  2  0
 19 41  1  0
 41 42  1  0
 42 43  2  0
 43 44  1  0
 44 45  1  6
 44 46  1  0
 46 47  2  0
 46 48  1  0
 44 49  1  0
 49 50  1  0
 49 51  1  0
 49 52  1  0
 52 53  2  0
 53 54  1  0
 53 55  1  0
 55 56  1  0
 55 57  2  0
 57 58  1  0
 57 59  1  0
 59 60  1  0
 59 61  2  0
 61 62  1  0
 42 63  1  0
 12  3  1  0
 63 17  1  0
 40 24  1  0
 61 52  1  0
 40 31  1  0
M  CHG  4  18  -1  41  -1  48  -1  63  -1
M  END
>  <UniqueID>  (19) 
18

>  <SMILES>  (19) 
O=C([O-])[C@@H](Cc1ccccc1)/N=c1\[n-]c(=NCc2cccc3ccccc23)[n-]/c(=N/Cc2ccccc2O)[n-]1

>  <Energy>  (19) 
76.57832002473673

>  <Genealogy>  (19) 
O=C([O-])C(Cc1ccccc1)N=c1[n-]c(=NCc2ccccc2O)[n-]c(=NCc2cccc3ccccc23)[n-]1 (protonated)
O=C([O-])[C@@H](Cc1ccccc1)N=c1[n-]c(=NCc2ccccc2O)[n-]c(=NCc2cccc3ccccc23)[n-]1 (chirality)
O=C([O-])[C@@H](Cc1ccccc1)/N=c1\[n-]c(=NCc2cccc3ccccc23)[n-]/c(=N/Cc2ccccc2O)[n-]1 (cis-trans isomerization)
O=C([O-])[C@@H](Cc1ccccc1)/N=c1\[n-]c(=NCc2cccc3ccccc23)[n-]/c(=N/Cc2ccccc2O)[n-]1 (3D coordinates assigned)
O=C([O-])[C@@H](Cc1ccccc1)/N=c1\[n-]c(=NCc2cccc3ccccc23)[n-]/c(=N/Cc2ccccc2O)[n-]1 (optimized conformer: 76.57832002473673 kcal/mol)

>  <smiles>  (19) 
O=C(O)C(Cc1ccccc1)N=c1[nH]c(=NCc2ccccc2O)[nH]c(=NCc2cccc3ccccc23)[nH]1

>  <score_type>  (19) 
oracle

>  <origin>  (19) 
adg

>  <m_score__min__energy>  (19) 
-16.079999999999998

>  <m_primary>  (19) 
energy

$$$$
19:0
     RDKit          3D

 38 40  0  0  0  0  0  0  0  0999 V2000
   55.5060   29.1820   44.8860 N   0  0  0  0  0  0  0  0  0  0  0  0
   56.6540   29.7060   43.7040 S   0  0  0  0  0  0  0  0  0  0  0  0
   55.9410   29.9030   42.3950 O   0  0  0  0  0  0  0  0  0  0  0  0
   57.7180   28.6580   43.5390 O   0  0  0  0  0  0  0  0  0  0  0  0
   57.3960   31.2170   44.2200 C   0  0  0  0  0  0  0  0  0  0  0  0
   57.9140   32.1020   43.2660 C   0  0  0  0  0  0  0  0  0  0  0  0
   58.4760   33.3160   43.6680 C   0  0  0  0  0  0  0  0  0  0  0  0
   58.5280   33.6500   45.0230 C   0  0  0  0  0  0  0  0  0  0  0  0
   58.0320   32.7670   45.9910 C   0  0  0  0  0  0  0  0  0  0  0  0
   58.0860   33.1580   47.3710 N   0  0  0  0  0  0  0  0  0  0  0  0
   58.8360   32.5180   48.4110 C   0  0  0  0  0  0  0  0  0  0  0  0
   59.1800   33.1550   49.4420 O   0  0  0  0  0  0  0  0  0  0  0  0
   59.1610   31.0920   48.3060 C   0  0  0  0  0  0  0  0  0  0  0  0
   59.0390   30.1540   49.3150 C   0  0  0  0  0  0  0  0  0  0  0  0
   59.4500   28.9580   48.7650 C   0  0  0  0  0  0  0  0  0  0  0  0
   59.7990   29.2470   47.4610 C   0  0  0  0  0  0  0  0  0  0  0  0
   60.2780   28.2590   46.4460 C   0  0  0  0  0  0  0  0  0  0  0  0
   59.1790   27.3860   46.0520 N   0  0  0  0  0  0  0  0  0  0  0  0
   58.0720   27.1350   46.7770 C   0  0  0  0  0  0  0  0  0  0  0  0
   57.2600   26.3240   46.0170 C   0  0  0  0  0  0  0  0  0  0  0  0
   55.9740   25.8110   46.3760 N   0  0  0  0  0  0  0  0  0  0  0  0
   54.9360   26.3500   45.9400 O   0  0  0  0  0  0  0  0  0  0  0  0
   55.8720   24.7190   47.2070 O   0  0  0  0  0  0  0  0  0  0  0  0
   57.9270   26.1220   44.8260 C   0  0  0  0  0  0  0  0  0  0  0  0
   59.0980   26.7900   44.8710 N   0  0  0  0  0  0  0  0  0  0  0  0
   59.6120   30.5220   47.2120 O   0  0  0  0  0  0  0  0  0  0  0  0
   57.4430   31.5560   45.5810 C   0  0  0  0  0  0  0  0  0  0  0  0
   55.5330   28.1370   44.8960 H   0  0  0  0  0  0  0  0  0  0  0  0
   57.8782   31.8406   42.1981 H   0  0  0  0  0  0  0  0  0  0  0  0
   58.8784   34.0104   42.9157 H   0  0  0  0  0  0  0  0  0  0  0  0
   58.9612   34.6126   45.3323 H   0  0  0  0  0  0  0  0  0  0  0  0
   58.6872   30.3262   50.3429 H   0  0  0  0  0  0  0  0  0  0  0  0
   59.4912   27.9776   49.2620 H   0  0  0  0  0  0  0  0  0  0  0  0
   60.6533   28.7958   45.5622 H   0  0  0  0  0  0  0  0  0  0  0  0
   61.0861   27.6528   46.8813 H   0  0  0  0  0  0  0  0  0  0  0  0
   57.8567   27.5088   47.7889 H   0  0  0  0  0  0  0  0  0  0  0  0
   57.5645   25.5175   43.9815 H   0  0  0  0  0  0  0  0  0  0  0  0
   57.0177   30.8725   46.3306 H   0  0  0  0  0  0  0  0  0  0  0  0
  1  2  1  0
  2  3  2  0
  2  4  2  0
  2  5  1  0
  5  6  2  0
  6  7  1  0
  7  8  2  0
  8  9  1  0
  9 10  1  0
 10 11  1  0
 11 12  2  0
 11 13  1  0
 13 14  2  0
 14 15  1  0
 15 16  2  0
 16 17  1  0
 17 18  1  0
 18 19  1  0
 19 20  2  0
 20 21  1  0
 21 22  2  0
 21 23  1  0
 20 24  1  0
 24 25  2  0
 16 26  1  0
  9 27  2  0
 27  5  1  0
 26 13  1  0
 25 18  1  0
  1 28  1  0
  6 29  1  0
  7 30  1  0
  8 31  1  0
 14 32  1  0
 15 33  1  0
 17 34  1  0
 17 35  1  0
 19 36  1  0
 24 37  1  0
 27 38  1  0
M  CHG  4   1  -1  10  -1  21   1  23  -1
M  END
>  <UniqueID>  (20) 
19

>  <SMILES>  (20) 
[NH-]S(=O)(=O)c1cccc([N-]C(=O)c2ccc(Cn3cc([N+](=O)[O-])cn3)o2)c1

>  <Energy>  (20) 
96.98808060495297

>  <Genealogy>  (20) 
[NH-]S(=O)(=O)c1cccc([N-]C(=O)c2ccc(Cn3cc([N+](=O)[O-])cn3)o2)c1 (protonated)
[NH-]S(=O)(=O)c1cccc([N-]C(=O)c2ccc(Cn3cc([N+](=O)[O-])cn3)o2)c1 (3D coordinates assigned)
[NH-]S(=O)(=O)c1cccc([N-]C(=O)c2ccc(Cn3cc([N+](=O)[O-])cn3)o2)c1 (optimized conformer: 96.98808060495297 kcal/mol)

>  <smiles>  (20) 
NS(=O)(=O)c1cccc(NC(=O)c2ccc(Cn3cc([N+](=O)[O-])cn3)o2)c1

>  <score_type>  (20) 
oracle

>  <origin>  (20) 
adg

>  <m_score__min__energy>  (20) 
-12.85

>  <m_primary>  (20) 
energy

$$$$
20:0
     RDKit          3D

 56 59  0  0  0  0  0  0  0  0999 V2000
   58.7650   28.0890   47.3610 O   0  0  0  0  0  0  0  0  0  0  0  0
   59.0700   29.3100   47.3400 C   0  0  0  0  0  0  0  0  0  0  0  0
   59.9280   29.8190   48.3690 N   0  0  0  0  0  0  0  0  0  0  0  0
   59.5800   30.7600   49.3970 C   0  0  0  0  0  0  0  0  0  0  0  0
   60.5190   31.6590   49.9320 C   0  0  0  0  0  0  0  0  0  0  0  0
   60.1620   32.5050   50.9850 C   0  0  0  0  0  0  0  0  0  0  0  0
   58.8740   32.4540   51.5200 C   0  0  0  0  0  0  0  0  0  0  0  0
   57.9290   31.5560   51.0010 C   0  0  0  0  0  0  0  0  0  0  0  0
   56.5490   31.4940   51.5960 C   0  0  0  0  0  0  0  0  0  0  0  0
   56.6230   31.5240   53.0670 N   0  0  0  0  0  0  0  0  0  0  0  0
   56.8980   30.2020   53.6490 C   0  0  0  0  0  0  0  0  0  0  0  0
   55.6270   29.4180   53.8510 C   0  0  0  0  0  0  0  0  0  0  0  0
   55.6580   28.0160   53.9200 C   0  0  0  0  0  0  0  0  0  0  0  0
   54.4750   27.2940   54.0890 C   0  0  0  0  0  0  0  0  0  0  0  0
   53.2510   27.9620   54.1790 C   0  0  0  0  0  0  0  0  0  0  0  0
   53.2060   29.3660   54.1230 C   0  0  0  0  0  0  0  0  0  0  0  0
   51.9610   30.0800   54.1590 N   0  0  0  0  0  0  0  0  0  0  0  0
   51.6540   31.2880   53.4490 C   0  0  0  0  0  0  0  0  0  0  0  0
   51.4070   32.3330   54.1080 O   0  0  0  0  0  0  0  0  0  0  0  0
   51.5460   31.3260   51.9790 C   0  0  0  0  0  0  0  0  0  0  0  0
   51.9700   30.3330   51.1130 C   0  0  0  0  0  0  0  0  0  0  0  0
   51.6380   30.7560   49.8470 C   0  0  0  0  0  0  0  0  0  0  0  0
   51.0250   31.9760   50.0140 C   0  0  0  0  0  0  0  0  0  0  0  0
   50.5230   32.7550   48.9790 O   0  0  0  0  0  0  0  0  0  0  0  0
   50.9550   32.3360   51.3090 N   0  0  0  0  0  0  0  0  0  0  0  0
   54.3950   30.0850   53.9510 C   0  0  0  0  0  0  0  0  0  0  0  0
   58.2890   30.7170   49.9350 C   0  0  0  0  0  0  0  0  0  0  0  0
   58.4940   30.1830   46.2910 C   0  0  0  0  0  0  0  0  0  0  0  0
   57.9160   29.6330   45.1350 C   0  0  0  0  0  0  0  0  0  0  0  0
   57.3560   30.4640   44.1640 C   0  0  0  0  0  0  0  0  0  0  0  0
   57.3840   31.8520   44.3240 C   0  0  0  0  0  0  0  0  0  0  0  0
   57.9950   32.4250   45.4510 C   0  0  0  0  0  0  0  0  0  0  0  0
   57.9840   33.9190   45.6490 C   0  0  0  0  0  0  0  0  0  0  0  0
   59.1540   34.4830   45.1700 F   0  0  0  0  0  0  0  0  0  0  0  0
   56.9200   34.4930   44.9770 F   0  0  0  0  0  0  0  0  0  0  0  0
   57.8700   34.1990   46.9980 F   0  0  0  0  0  0  0  0  0  0  0  0
   58.5330   31.5800   46.4400 C   0  0  0  0  0  0  0  0  0  0  0  0
   61.5383   31.6965   49.5202 H   0  0  0  0  0  0  0  0  0  0  0  0
   60.8980   33.2131   51.3934 H   0  0  0  0  0  0  0  0  0  0  0  0
   58.5988   33.1199   52.3512 H   0  0  0  0  0  0  0  0  0  0  0  0
   55.9636   32.3565   51.2447 H   0  0  0  0  0  0  0  0  0  0  0  0
   56.0663   30.5568   51.2817 H   0  0  0  0  0  0  0  0  0  0  0  0
   55.6860   31.8260   53.4240 H   0  0  0  0  0  0  0  0  0  0  0  0
   57.5601   29.6429   52.9716 H   0  0  0  0  0  0  0  0  0  0  0  0
   57.3764   30.3466   54.6289 H   0  0  0  0  0  0  0  0  0  0  0  0
   56.6178   27.4845   53.8406 H   0  0  0  0  0  0  0  0  0  0  0  0
   54.5066   26.1962   54.1515 H   0  0  0  0  0  0  0  0  0  0  0  0
   52.3199   27.3876   54.2940 H   0  0  0  0  0  0  0  0  0  0  0  0
   52.4725   29.3926   51.3834 H   0  0  0  0  0  0  0  0  0  0  0  0
   51.8238   30.2290   48.8995 H   0  0  0  0  0  0  0  0  0  0  0  0
   54.3640   31.1831   53.8936 H   0  0  0  0  0  0  0  0  0  0  0  0
   57.5486   30.0184   49.5182 H   0  0  0  0  0  0  0  0  0  0  0  0
   57.9048   28.5421   44.9945 H   0  0  0  0  0  0  0  0  0  0  0  0
   56.8907   30.0249   43.2692 H   0  0  0  0  0  0  0  0  0  0  0  0
   56.9247   32.4995   43.5626 H   0  0  0  0  0  0  0  0  0  0  0  0
   58.9892   32.0182   47.3399 H   0  0  0  0  0  0  0  0  0  0  0  0
  1  2  2  0
  2  3  1  0
  3  4  1  0
  4  5  2  0
  5  6  1  0
  6  7  2  0
  7  8  1  0
  8  9  1  0
  9 10  1  0
 10 11  1  0
 11 12  1  0
 12 13  2  0
 13 14  1  0
 14 15  2  0
 15 16  1  0
 16 17  1  0
 17 18  1  0
 18 19  2  0
 18 20  1  0
 20 21  2  0
 21 22  1  0
 22 23  2  0
 23 24  1  0
 23 25  1  0
 16 26  2  0
  8 27  2  0
  2 28  1  0
 28 29  2  0
 29 30  1  0
 30 31  2  0
 31 32  1  0
 32 33  1  0
 33 34  1  0
 33 35  1  0
 33 36  1  0
 32 37  2  0
 27  4  1  0
 37 28  1  0
 26 12  1  0
 25 20  1  0
  5 38  1  0
  6 39  1  0
  7 40  1  0
  9 41  1  0
  9 42  1  0
 10 43  1  0
 11 44  1  0
 11 45  1  0
 13 46  1  0
 14 47  1  0
 15 48  1  0
 21 49  1  0
 22 50  1  0
 26 51  1  0
 27 52  1  0
 29 53  1  0
 30 54  1  0
 31 55  1  0
 37 56  1  0
M  CHG  4   3  -1  17  -1  24  -1  25  -1
M  END
>  <UniqueID>  (21) 
20

>  <SMILES>  (21) 
O=C([N-]c1cccc(CNCc2cccc([N-]C(=O)c3ccc([O-])[n-]3)c2)c1)c1cccc(C(F)(F)F)c1

>  <Energy>  (21) 
92.4419132325099

>  <Genealogy>  (21) 
O=C([N-]c1cccc(CNCc2cccc([N-]C(=O)c3ccc([O-])[n-]3)c2)c1)c1cccc(C(F)(F)F)c1 (protonated)
O=C([N-]c1cccc(CNCc2cccc([N-]C(=O)c3ccc([O-])[n-]3)c2)c1)c1cccc(C(F)(F)F)c1 (3D coordinates assigned)
O=C([N-]c1cccc(CNCc2cccc([N-]C(=O)c3ccc([O-])[n-]3)c2)c1)c1cccc(C(F)(F)F)c1 (optimized conformer: 92.4419132325099 kcal/mol)

>  <smiles>  (21) 
O=C(Nc1cccc(CNCc2cccc(NC(=O)c3ccc(O)[nH]3)c2)c1)c1cccc(C(F)(F)F)c1

>  <score_type>  (21) 
oracle

>  <origin>  (21) 
adg

>  <m_score__min__energy>  (21) 
-18.760000000000002

>  <m_primary>  (21) 
energy

$$$$
21:0
     RDKit          3D

 57 60  0  0  0  0  0  0  0  0999 V2000
   65.6770   32.2920   50.1330 C   0  0  0  0  0  0  0  0  0  0  0  0
   65.0710   33.4350   49.5360 O   0  0  0  0  0  0  0  0  0  0  0  0
   63.8000   33.4390   48.9430 C   0  0  0  0  0  0  0  0  0  0  0  0
   62.7040   34.1140   49.5110 C   0  0  0  0  0  0  0  0  0  0  0  0
   61.4520   34.0760   48.8910 C   0  0  0  0  0  0  0  0  0  0  0  0
   61.2640   33.3530   47.6980 C   0  0  0  0  0  0  0  0  0  0  0  0
   59.9690   33.2960   47.0540 N   0  0  0  0  0  0  0  0  0  0  0  0
   59.7660   33.3870   45.6140 C   0  0  0  0  0  0  0  0  0  0  0  0
   58.2320   33.4180   45.3870 C   0  0  1  0  0  0  0  0  0  0  0  0
   57.7710   32.3140   44.4450 C   0  0  0  0  0  0  0  0  0  0  0  0
   57.5930   32.6100   43.0810 C   0  0  0  0  0  0  0  0  0  0  0  0
   57.2130   31.6150   42.1800 C   0  0  0  0  0  0  0  0  0  0  0  0
   57.0080   30.3110   42.6230 C   0  0  0  0  0  0  0  0  0  0  0  0
   57.1820   29.9940   43.9710 C   0  0  0  0  0  0  0  0  0  0  0  0
   57.5630   30.9860   44.8970 C   0  0  0  0  0  0  0  0  0  0  0  0
   57.7420   30.6930   46.2620 O   0  0  0  0  0  0  0  0  0  0  0  0
   58.8100   29.9250   46.8150 C   0  0  0  0  0  0  0  0  0  0  0  0
   58.4790   28.4690   46.7360 C   0  0  0  0  0  0  0  0  0  0  0  0
   58.2560   27.8170   47.7940 O   0  0  0  0  0  0  0  0  0  0  0  0
   58.4130   27.8250   45.4570 N   0  0  0  0  0  0  0  0  0  0  0  0
   57.6130   26.6640   45.1830 C   0  0  0  0  0  0  0  0  0  0  0  0
   57.8600   25.9150   44.0250 C   0  0  0  0  0  0  0  0  0  0  0  0
   57.0630   24.8120   43.7080 C   0  0  0  0  0  0  0  0  0  0  0  0
   55.9910   24.4460   44.5410 C   0  0  0  0  0  0  0  0  0  0  0  0
   55.1430   23.2790   44.2110 C   0  0  0  0  0  0  0  0  0  0  0  0
   55.5250   22.4280   43.3640 O   0  0  0  0  0  0  0  0  0  0  0  0
   53.9110   23.1070   44.8330 O   0  0  0  0  0  0  0  0  0  0  0  0
   55.7340   25.2070   45.6950 C   0  0  0  0  0  0  0  0  0  0  0  0
   56.5340   26.3090   46.0110 C   0  0  0  0  0  0  0  0  0  0  0  0
   57.5630   33.3360   46.7750 C   0  0  0  0  0  0  0  0  0  0  0  0
   58.7060   33.1870   47.6970 C   0  0  0  0  0  0  0  0  0  0  0  0
   58.5690   32.9230   48.9210 O   0  0  0  0  0  0  0  0  0  0  0  0
   62.3740   32.7120   47.1190 C   0  0  0  0  0  0  0  0  0  0  0  0
   63.6240   32.7470   47.7420 C   0  0  0  0  0  0  0  0  0  0  0  0
   65.6294   32.3818   51.2283 H   0  0  0  0  0  0  0  0  0  0  0  0
   65.1412   31.3852   49.8158 H   0  0  0  0  0  0  0  0  0  0  0  0
   66.7282   32.2266   49.8158 H   0  0  0  0  0  0  0  0  0  0  0  0
   62.8332   34.6749   50.4484 H   0  0  0  0  0  0  0  0  0  0  0  0
   60.6054   34.6163   49.3396 H   0  0  0  0  0  0  0  0  0  0  0  0
   60.2268   34.3059   45.2225 H   0  0  0  0  0  0  0  0  0  0  0  0
   60.2283   32.5360   45.0924 H   0  0  0  0  0  0  0  0  0  0  0  0
   57.9362   34.3521   44.8870 H   0  0  0  0  0  0  0  0  0  0  0  0
   57.7552   33.6368   42.7213 H   0  0  0  0  0  0  0  0  0  0  0  0
   57.0750   31.8613   41.1168 H   0  0  0  0  0  0  0  0  0  0  0  0
   56.7084   29.5294   41.9094 H   0  0  0  0  0  0  0  0  0  0  0  0
   57.0204   28.9613   44.3137 H   0  0  0  0  0  0  0  0  0  0  0  0
   59.7325   30.1213   46.2489 H   0  0  0  0  0  0  0  0  0  0  0  0
   58.9546   30.2085   47.8679 H   0  0  0  0  0  0  0  0  0  0  0  0
   58.9700   28.2380   44.6750 H   0  0  0  0  0  0  0  0  0  0  0  0
   58.6888   26.1978   43.3594 H   0  0  0  0  0  0  0  0  0  0  0  0
   57.2755   24.2265   42.8013 H   0  0  0  0  0  0  0  0  0  0  0  0
   54.8971   24.9332   46.3542 H   0  0  0  0  0  0  0  0  0  0  0  0
   56.3180   26.9014   46.9123 H   0  0  0  0  0  0  0  0  0  0  0  0
   56.9974   34.2536   46.9942 H   0  0  0  0  0  0  0  0  0  0  0  0
   56.8372   32.5132   46.8541 H   0  0  0  0  0  0  0  0  0  0  0  0
   62.2566   32.1771   46.1650 H   0  0  0  0  0  0  0  0  0  0  0  0
   64.4768   32.2254   47.2831 H   0  0  0  0  0  0  0  0  0  0  0  0
  1  2  1  0
  2  3  1  0
  3  4  2  0
  4  5  1  0
  5  6  2  0
  6  7  1  0
  7  8  1  0
  8  9  1  0
  9 10  1  0
 10 11  2  0
 11 12  1  0
 12 13  2  0
 13 14  1  0
 14 15  2  0
 15 16  1  0
 16 17  1  0
 17 18  1  0
 18 19  2  0
 18 20  1  0
 20 21  1  0
 21 22  2  0
 22 23  1  0
 23 24  2  0
 24 25  1  0
 25 26  2  0
 25 27  1  0
 24 28  1  0
 28 29  2  0
  9 30  1  0
 30 31  1  0
 31 32  2  0
  6 33  1  0
 33 34  2  0
 34  3  1  0
 31  7  1  0
 15 10  1  0
 29 21  1  0
  1 35  1  0
  1 36  1  0
  1 37  1  0
  4 38  1  0
  5 39  1  0
  8 40  1  0
  8 41  1  0
  9 42  1  6
 11 43  1  0
 12 44  1  0
 13 45  1  0
 14 46  1  0
 17 47  1  0
 17 48  1  0
 20 49  1  0
 22 50  1  0
 23 51  1  0
 28 52  1  0
 29 53  1  0
 30 54  1  0
 30 55  1  0
 33 56  1  0
 34 57  1  0
M  CHG  1  27  -1
M  END
>  <UniqueID>  (22) 
21

>  <SMILES>  (22) 
COc1ccc(N2C[C@@H](c3ccccc3OCC(=O)Nc3ccc(C(=O)[O-])cc3)CC2=O)cc1

>  <Energy>  (22) 
73.20798853624821

>  <Genealogy>  (22) 
COc1ccc(N2CC(c3ccccc3OCC(=O)Nc3ccc(C(=O)[O-])cc3)CC2=O)cc1 (protonated)
COc1ccc(N2C[C@@H](c3ccccc3OCC(=O)Nc3ccc(C(=O)[O-])cc3)CC2=O)cc1 (chirality)
COc1ccc(N2C[C@@H](c3ccccc3OCC(=O)Nc3ccc(C(=O)[O-])cc3)CC2=O)cc1 (3D coordinates assigned)
COc1ccc(N2C[C@@H](c3ccccc3OCC(=O)Nc3ccc(C(=O)[O-])cc3)CC2=O)cc1 (nonaromatic ring conformer: 73.20798853624821 kcal/mol)

>  <smiles>  (22) 
COc1ccc(N2CC(c3ccccc3OCC(=O)Nc3ccc(C(=O)O)cc3)CC2=O)cc1

>  <score_type>  (22) 
oracle

>  <origin>  (22) 
adg

>  <m_score__min__energy>  (22) 
-11.529999999999999

>  <m_primary>  (22) 
energy

$$$$
22:0
     RDKit          3D

 42 44  0  0  0  0  0  0  0  0999 V2000
   60.6477   28.1341   49.1241 H   0  0  0  0  0  0  0  0  0  0  0  0
   59.9090   28.3670   48.3430 C   0  0  0  0  0  0  0  0  0  0  0  0
   58.9680   27.2460   47.5150 S   0  0  0  0  0  0  0  0  0  0  0  0
   58.1630   28.3690   46.5590 C   0  0  0  0  0  0  0  0  0  0  0  0
   56.9310   27.9820   45.3740 S   0  0  0  0  0  0  0  0  0  0  0  0
   57.5830   27.3520   44.1760 O   0  0  0  0  0  0  0  0  0  0  0  0
   55.9400   27.0320   45.9860 O   0  0  0  0  0  0  0  0  0  0  0  0
   56.1190   29.4480   44.9120 N   0  0  0  0  0  0  0  0  0  0  0  0
   56.6470   30.4660   44.3000 C   0  0  0  0  0  0  0  0  0  0  0  0
   57.0220   31.5430   45.0430 N   0  0  0  0  0  0  0  0  0  0  0  0
   57.5910   32.6530   44.4950 C   0  0  0  0  0  0  0  0  0  0  0  0
   57.9430   33.7770   45.3200 N   0  0  0  0  0  0  0  0  0  0  0  0
   57.3940   34.6600   45.2040 H   0  0  0  0  0  0  0  0  0  0  0  0
   58.9170   33.7250   46.3760 C   0  0  0  0  0  0  0  0  0  0  0  0
   58.5410   33.4740   47.7050 C   0  0  0  0  0  0  0  0  0  0  0  0
   57.4788   33.3283   47.9511 H   0  0  0  0  0  0  0  0  0  0  0  0
   59.5010   33.4070   48.7200 C   0  0  0  0  0  0  0  0  0  0  0  0
   59.0650   33.1630   50.0310 O   0  0  0  0  0  0  0  0  0  0  0  0
   58.4560   31.9520   50.4670 C   0  0  0  0  0  0  0  0  0  0  0  0
   58.4419   31.9239   51.5665 H   0  0  0  0  0  0  0  0  0  0  0  0
   57.4254   31.9018   50.0856 H   0  0  0  0  0  0  0  0  0  0  0  0
   59.0302   31.0948   50.0856 H   0  0  0  0  0  0  0  0  0  0  0  0
   60.8610   33.5820   48.3970 C   0  0  0  0  0  0  0  0  0  0  0  0
   61.6214   33.5418   49.1908 H   0  0  0  0  0  0  0  0  0  0  0  0
   61.2520   33.8080   47.0640 C   0  0  0  0  0  0  0  0  0  0  0  0
   62.5940   33.9750   46.6910 O   0  0  0  0  0  0  0  0  0  0  0  0
   63.6630   33.1410   47.1290 C   0  0  0  0  0  0  0  0  0  0  0  0
   63.6867   33.1225   48.2286 H   0  0  0  0  0  0  0  0  0  0  0  0
   63.5113   32.1202   46.7483 H   0  0  0  0  0  0  0  0  0  0  0  0
   64.6162   33.5365   46.7483 H   0  0  0  0  0  0  0  0  0  0  0  0
   60.2760   33.8680   46.0640 C   0  0  0  0  0  0  0  0  0  0  0  0
   60.5789   34.0295   45.0189 H   0  0  0  0  0  0  0  0  0  0  0  0
   57.7820   32.7150   43.1100 C   0  0  0  0  0  0  0  0  0  0  0  0
   58.2219   33.6123   42.6503 H   0  0  0  0  0  0  0  0  0  0  0  0
   57.4100   31.6300   42.3180 C   0  0  0  0  0  0  0  0  0  0  0  0
   57.5642   31.6658   41.2294 H   0  0  0  0  0  0  0  0  0  0  0  0
   56.8420   30.4980   42.9050 C   0  0  0  0  0  0  0  0  0  0  0  0
   56.5493   29.6386   42.2839 H   0  0  0  0  0  0  0  0  0  0  0  0
   58.6150   29.6410   46.8750 C   0  0  0  0  0  0  0  0  0  0  0  0
   58.2422   30.5562   46.3918 H   0  0  0  0  0  0  0  0  0  0  0  0
   59.5960   29.6380   47.8740 C   0  0  0  0  0  0  0  0  0  0  0  0
   60.0737   30.5540   48.2519 H   0  0  0  0  0  0  0  0  0  0  0  0
  1  2  1  0
  2  3  1  0
  3  4  1  0
  4  5  1  0
  5  6  2  0
  5  7  2  0
  5  8  1  0
  8  9  2  0
  9 10  1  0
 10 11  1  0
 11 12  1  0
 12 13  1  0
 12 14  1  0
 14 15  2  0
 15 16  1  0
 15 17  1  0
 17 18  1  0
 18 19  1  0
 19 20  1  0
 19 21  1  0
 19 22  1  0
 17 23  2  0
 23 24  1  0
 23 25  1  0
 25 26  1  0
 26 27  1  0
 27 28  1  0
 27 29  1  0
 27 30  1  0
 25 31  2  0
 31 32  1  0
 11 33  2  0
 33 34  1  0
 33 35  1  0
 35 36  1  0
 35 37  2  0
 37 38  1  0
  4 39  2  0
 39 40  1  0
 39 41  1  0
 41 42  1  0
 41  2  2  0
 37  9  1  0
 31 14  1  0
M  CHG  1  10  -1
M  END
>  <UniqueID>  (23) 
22

>  <SMILES>  (23) 
COc1cc(Nc2ccc/c(=N\S(=O)(=O)c3cccs3)[n-]2)cc(OC)c1

>  <Energy>  (23) 
79.35726525883841

>  <Genealogy>  (23) 
COc1cc(Nc2cccc(=NS(=O)(=O)c3cccs3)[n-]2)cc(OC)c1 (protonated)
COc1cc(Nc2ccc/c(=N\S(=O)(=O)c3cccs3)[n-]2)cc(OC)c1 (cis-trans isomerization)
COc1cc(Nc2ccc/c(=N\S(=O)(=O)c3cccs3)[n-]2)cc(OC)c1 (3D coordinates assigned)
COc1cc(Nc2ccc/c(=N\S(=O)(=O)c3cccs3)[n-]2)cc(OC)c1 (optimized conformer: 79.35726525883841 kcal/mol)

>  <smiles>  (23) 
COc1cc(Nc2cccc(=NS(=O)(=O)c3cccs3)[nH]2)cc(OC)c1

>  <score_type>  (23) 
oracle

>  <origin>  (23) 
adg

>  <m_score__min__energy>  (23) 
-10.51

>  <m_primary>  (23) 
energy

$$$$
23:0
     RDKit          3D

 39 41  0  0  0  0  0  0  0  0999 V2000
   57.2400   34.2740   46.2660 H   0  0  0  0  0  0  0  0  0  0  0  0
   57.7010   34.2190   47.1660 O   0  0  0  0  0  0  0  0  0  0  0  0
   59.0770   34.0260   47.2920 C   0  0  0  0  0  0  0  0  0  0  0  0
   59.6510   34.0820   48.5680 C   0  0  0  0  0  0  0  0  0  0  0  0
   59.0152   34.2722   49.4453 H   0  0  0  0  0  0  0  0  0  0  0  0
   61.0250   33.8980   48.7340 C   0  0  0  0  0  0  0  0  0  0  0  0
   61.4696   33.9484   49.7389 H   0  0  0  0  0  0  0  0  0  0  0  0
   61.8340   33.6500   47.6240 C   0  0  0  0  0  0  0  0  0  0  0  0
   62.9160   33.5022   47.7558 H   0  0  0  0  0  0  0  0  0  0  0  0
   61.2730   33.5890   46.3460 C   0  0  0  0  0  0  0  0  0  0  0  0
   61.9159   33.3906   45.4757 H   0  0  0  0  0  0  0  0  0  0  0  0
   59.8890   33.7800   46.1650 C   0  0  0  0  0  0  0  0  0  0  0  0
   59.2840   33.7180   44.8660 N   0  0  0  0  0  0  0  0  0  0  0  0
   57.8880   32.7760   44.4510 S   0  0  0  0  0  0  0  0  0  0  0  0
   56.6590   33.4630   44.9760 O   0  0  0  0  0  0  0  0  0  0  0  0
   57.7890   32.6740   42.9540 O   0  0  0  0  0  0  0  0  0  0  0  0
   58.0370   31.1570   45.1250 C   0  0  0  0  0  0  0  0  0  0  0  0
   58.8460   30.9220   46.2440 C   0  0  0  0  0  0  0  0  0  0  0  0
   59.3794   31.7581   46.7200 H   0  0  0  0  0  0  0  0  0  0  0  0
   58.9780   29.6290   46.7580 C   0  0  0  0  0  0  0  0  0  0  0  0
   59.6245   29.4516   47.6301 H   0  0  0  0  0  0  0  0  0  0  0  0
   58.2910   28.5540   46.1690 C   0  0  0  0  0  0  0  0  0  0  0  0
   58.4410   27.1760   46.7000 C   0  0  0  0  0  0  0  0  0  0  0  0
   59.5960   26.7010   46.8720 O   0  0  0  0  0  0  0  0  0  0  0  0
   57.3090   26.3830   47.0920 N   0  0  0  0  0  0  0  0  0  0  0  0
   56.7970   25.4010   46.4080 C   0  0  0  0  0  0  0  0  0  0  0  0
   57.4790   24.2310   46.2410 N   0  0  0  0  0  0  0  0  0  0  0  0
   56.9640   23.1880   45.5380 C   0  0  0  0  0  0  0  0  0  0  0  0
   57.5457   22.2616   45.4224 H   0  0  0  0  0  0  0  0  0  0  0  0
   55.6970   23.2930   44.9630 C   0  0  0  0  0  0  0  0  0  0  0  0
   55.2749   22.4542   44.3902 H   0  0  0  0  0  0  0  0  0  0  0  0
   54.9710   24.4750   45.1230 C   0  0  0  0  0  0  0  0  0  0  0  0
   53.9708   24.5715   44.6755 H   0  0  0  0  0  0  0  0  0  0  0  0
   55.5160   25.5350   45.8520 C   0  0  0  0  0  0  0  0  0  0  0  0
   54.7930   26.7110   46.0110 O   0  0  0  0  0  0  0  0  0  0  0  0
   57.4860   28.7950   45.0420 C   0  0  0  0  0  0  0  0  0  0  0  0
   56.9537   27.9607   44.5619 H   0  0  0  0  0  0  0  0  0  0  0  0
   57.3580   30.0880   44.5280 C   0  0  0  0  0  0  0  0  0  0  0  0
   56.7204   30.2670   43.6497 H   0  0  0  0  0  0  0  0  0  0  0  0
  1  2  1  0
  2  3  1  0
  3  4  2  0
  4  5  1  0
  4  6  1  0
  6  7  1  0
  6  8  2  0
  8  9  1  0
  8 10  1  0
 10 11  1  0
 10 12  2  0
 12 13  1  0
 13 14  1  0
 14 15  2  0
 14 16  2  0
 14 17  1  0
 17 18  2  0
 18 19  1  0
 18 20  1  0
 20 21  1  0
 20 22  2  0
 22 23  1  0
 23 24  2  0
 23 25  1  0
 25 26  2  0
 26 27  1  0
 27 28  1  0
 28 29  1  0
 28 30  2  0
 30 31  1  0
 30 32  1  0
 32 33  1  0
 32 34  2  0
 34 35  1  0
 22 36  1  0
 36 37  1  0
 36 38  2  0
 38 39  1  0
 12  3  1  0
 38 17  1  0
 34 26  1  0
M  CHG  3  13  -1  27  -1  35  -1
M  END
>  <UniqueID>  (24) 
23

>  <SMILES>  (24) 
O=C(/N=c1\[n-]cccc1[O-])c1ccc(S(=O)(=O)[N-]c2ccccc2O)cc1

>  <Energy>  (24) 
54.670857399570814

>  <Genealogy>  (24) 
O=C(N=c1[n-]cccc1[O-])c1ccc(S(=O)(=O)[N-]c2ccccc2O)cc1 (protonated)
O=C(/N=c1\[n-]cccc1[O-])c1ccc(S(=O)(=O)[N-]c2ccccc2O)cc1 (cis-trans isomerization)
O=C(/N=c1\[n-]cccc1[O-])c1ccc(S(=O)(=O)[N-]c2ccccc2O)cc1 (3D coordinates assigned)
O=C(/N=c1\[n-]cccc1[O-])c1ccc(S(=O)(=O)[N-]c2ccccc2O)cc1 (optimized conformer: 54.670857399570814 kcal/mol)

>  <smiles>  (24) 
O=C(N=c1[nH]cccc1O)c1ccc(S(=O)(=O)Nc2ccccc2O)cc1

>  <score_type>  (24) 
oracle

>  <origin>  (24) 
adg

>  <m_score__min__energy>  (24) 
-14.75

>  <m_primary>  (24) 
energy

$$$$
24:0
     RDKit          3D

 39 41  0  0  0  0  0  0  0  0999 V2000
   56.8910   31.2970   44.3210 O   0  0  0  0  0  0  0  0  0  0  0  0
   57.4680   31.0700   45.4200 C   0  0  0  0  0  0  0  0  0  0  0  0
   57.5290   29.7300   45.9400 N   0  0  0  0  0  0  0  0  0  0  0  0
   57.1970   28.5580   45.1740 C   0  0  0  0  0  0  0  0  0  0  0  0
   56.6370   28.6700   44.0500 O   0  0  0  0  0  0  0  0  0  0  0  0
   57.4710   27.2040   45.7100 C   0  0  0  0  0  0  0  0  0  0  0  0
   58.8030   26.7870   45.8810 C   0  0  0  0  0  0  0  0  0  0  0  0
   59.0900   25.5110   46.3750 C   0  0  0  0  0  0  0  0  0  0  0  0
   58.0520   24.6410   46.7110 C   0  0  0  0  0  0  0  0  0  0  0  0
   56.7240   25.0480   46.5630 C   0  0  0  0  0  0  0  0  0  0  0  0
   56.4270   26.3250   46.0750 C   0  0  0  0  0  0  0  0  0  0  0  0
   55.0960   26.7170   45.9870 O   0  0  0  0  0  0  0  0  0  0  0  0
   58.0600   32.2010   46.1730 C   0  0  0  0  0  0  0  0  0  0  0  0
   58.1390   33.4760   45.5850 C   0  0  0  0  0  0  0  0  0  0  0  0
   58.6860   34.5490   46.2940 C   0  0  0  0  0  0  0  0  0  0  0  0
   59.1680   34.3620   47.5900 C   0  0  0  0  0  0  0  0  0  0  0  0
   59.1220   33.0920   48.1840 C   0  0  0  0  0  0  0  0  0  0  0  0
   59.6220   32.8890   49.5900 C   0  0  0  0  0  0  0  0  0  0  0  0
   58.6870   31.9840   50.3530 C   0  0  0  0  0  0  0  0  0  0  0  0
   57.8290   32.5130   51.3270 C   0  0  0  0  0  0  0  0  0  0  0  0
   57.0130   31.6930   52.0370 N   0  0  0  0  0  0  0  0  0  0  0  0
   57.0160   30.3520   51.8250 C   0  0  0  0  0  0  0  0  0  0  0  0
   56.2510   29.6090   52.4920 O   0  0  0  0  0  0  0  0  0  0  0  0
   57.8450   29.8110   50.8960 N   0  0  0  0  0  0  0  0  0  0  0  0
   58.6800   30.5920   50.1610 C   0  0  0  0  0  0  0  0  0  0  0  0
   59.4410   30.0530   49.3130 O   0  0  0  0  0  0  0  0  0  0  0  0
   58.5650   32.0180   47.4730 C   0  0  0  0  0  0  0  0  0  0  0  0
   57.7680   29.6020   46.9480 H   0  0  0  0  0  0  0  0  0  0  0  0
   59.6258   27.4703   45.6240 H   0  0  0  0  0  0  0  0  0  0  0  0
   60.1355   25.1924   46.4990 H   0  0  0  0  0  0  0  0  0  0  0  0
   58.2796   23.6347   47.0924 H   0  0  0  0  0  0  0  0  0  0  0  0
   55.9078   24.3611   46.8314 H   0  0  0  0  0  0  0  0  0  0  0  0
   57.7680   33.6297   44.5609 H   0  0  0  0  0  0  0  0  0  0  0  0
   58.7367   35.5445   45.8287 H   0  0  0  0  0  0  0  0  0  0  0  0
   59.5854   35.2133   48.1478 H   0  0  0  0  0  0  0  0  0  0  0  0
   60.6223   32.4325   49.5570 H   0  0  0  0  0  0  0  0  0  0  0  0
   59.6691   33.8640   50.0971 H   0  0  0  0  0  0  0  0  0  0  0  0
   57.8169   33.5965   51.5166 H   0  0  0  0  0  0  0  0  0  0  0  0
   58.5228   31.0218   47.9375 H   0  0  0  0  0  0  0  0  0  0  0  0
  1  2  2  0
  2  3  1  0
  3  4  1  0
  4  5  2  0
  4  6  1  0
  6  7  2  0
  7  8  1  0
  8  9  2  0
  9 10  1  0
 10 11  2  0
 11 12  1  0
  2 13  1  0
 13 14  2  0
 14 15  1  0
 15 16  2  0
 16 17  1  0
 17 18  1  0
 18 19  1  0
 19 20  2  0
 20 21  1  0
 21 22  1  0
 22 23  2  0
 22 24  1  0
 24 25  1  0
 25 26  2  0
 17 27  2  0
 11  6  1  0
 27 13  1  0
 25 19  1  0
  3 28  1  0
  7 29  1  0
  8 30  1  0
  9 31  1  0
 10 32  1  0
 14 33  1  0
 15 34  1  0
 16 35  1  0
 18 36  1  0
 18 37  1  0
 20 38  1  0
 27 39  1  0
M  CHG  3  12  -1  21  -1  24  -1
M  END
>  <UniqueID>  (25) 
24

>  <SMILES>  (25) 
O=C(NC(=O)c1ccccc1[O-])c1cccc(Cc2c[n-]c(=O)[n-]c2=O)c1

>  <Energy>  (25) 
50.095428758219605

>  <Genealogy>  (25) 
O=C(NC(=O)c1ccccc1[O-])c1cccc(Cc2c[n-]c(=O)[n-]c2=O)c1 (protonated)
O=C(NC(=O)c1ccccc1[O-])c1cccc(Cc2c[n-]c(=O)[n-]c2=O)c1 (3D coordinates assigned)
O=C(NC(=O)c1ccccc1[O-])c1cccc(Cc2c[n-]c(=O)[n-]c2=O)c1 (optimized conformer: 50.095428758219605 kcal/mol)

>  <smiles>  (25) 
O=C(NC(=O)c1ccccc1O)c1cccc(Cc2c[nH]c(=O)[nH]c2=O)c1

>  <score_type>  (25) 
oracle

>  <origin>  (25) 
adg

>  <m_score__min__energy>  (25) 
-14.58

>  <m_primary>  (25) 
energy

$$$$
25:0
     RDKit          3D

 46 49  0  0  1  0  0  0  0  0999 V2000
   55.9760   29.3480   42.6760 N   0  0  0  0  0  0  0  0  0  0  0  0
   56.9720   30.3180   43.7020 S   0  0  0  0  0  0  0  0  0  0  0  0
   56.1140   31.1210   44.6190 O   0  0  0  0  0  0  0  0  0  0  0  0
   57.8310   31.2550   42.8730 O   0  0  0  0  0  0  0  0  0  0  0  0
   58.0190   29.2420   44.5690 C   0  0  0  0  0  0  0  0  0  0  0  0
   57.4640   28.2480   45.3320 C   0  0  0  0  0  0  0  0  0  0  0  0
   58.2350   27.3700   46.0370 C   0  0  0  0  0  0  0  0  0  0  0  0
   59.6370   27.4190   46.0330 C   0  0  0  0  0  0  0  0  0  0  0  0
   60.4210   26.4880   46.8340 C   0  0  0  0  0  0  0  0  0  0  0  0
   59.2720   30.7240   49.8860 N   0  0  0  0  0  0  0  0  0  0  0  0
   58.9280   31.2130   48.7420 C   0  0  0  0  0  0  0  0  0  0  0  0
   60.1050   28.6650   48.9460 N   0  0  0  0  0  0  0  0  0  0  0  0
   59.8980   29.4520   50.0360 C   0  0  0  0  0  0  0  0  0  0  0  0
   60.8950   26.7250   48.0940 N   0  0  0  0  0  0  0  0  0  0  0  0
   60.6970   27.4560   49.0730 C   0  0  0  0  0  0  0  0  0  0  0  0
   58.8200   32.5550   48.4430 C   0  0  0  0  0  0  0  0  0  0  0  0
   58.4290   32.6070   47.1200 C   0  0  0  0  0  0  0  0  0  0  0  0
   58.1930   33.8750   46.3830 C   0  0  0  0  0  0  0  0  0  0  0  0
   57.7090   33.8130   44.9820 C   0  0  0  0  0  0  0  0  0  0  0  0
   59.1330   34.1580   45.2740 C   0  0  0  0  0  0  0  0  0  0  0  0
   58.3190   31.3370   46.6880 N   0  0  0  0  0  0  0  0  0  0  0  0
   58.6150   30.4860   47.6520 N   0  0  0  0  0  0  0  0  0  0  0  0
   60.3060   28.9940   51.2960 C   0  0  0  0  0  0  0  0  0  0  0  0
   60.9050   27.7540   51.3680 C   0  0  0  0  0  0  0  0  0  0  0  0
   61.0830   27.0310   50.2820 N   0  0  0  0  0  0  0  0  0  0  0  0
   60.1830   28.4370   45.2500 C   0  0  0  0  0  0  0  0  0  0  0  0
   59.3970   29.3210   44.5400 C   0  0  0  0  0  0  0  0  0  0  0  0
   55.8730   29.7750   41.7240 H   0  0  0  0  0  0  0  0  0  0  0  0
   56.3170   28.3650   42.6310 H   0  0  0  0  0  0  0  0  0  0  0  0
   56.3688   28.1555   45.3773 H   0  0  0  0  0  0  0  0  0  0  0  0
   57.7364   26.5915   46.6332 H   0  0  0  0  0  0  0  0  0  0  0  0
   59.7978   25.5860   46.9233 H   0  0  0  0  0  0  0  0  0  0  0  0
   61.3650   26.4976   46.2694 H   0  0  0  0  0  0  0  0  0  0  0  0
   59.0061   33.4046   49.1165 H   0  0  0  0  0  0  0  0  0  0  0  0
   57.8422   34.4037   47.2816 H   0  0  0  0  0  0  0  0  0  0  0  0
   57.4591   32.8428   44.5278 H   0  0  0  0  0  0  0  0  0  0  0  0
   56.8920   34.2861   44.4175 H   0  0  0  0  0  0  0  0  0  0  0  0
   59.9331   33.4422   45.0343 H   0  0  0  0  0  0  0  0  0  0  0  0
   59.8017   34.9916   45.0133 H   0  0  0  0  0  0  0  0  0  0  0  0
   58.0290   31.1060   45.6950 H   0  0  0  0  0  0  0  0  0  0  0  0
   58.6060   29.4450   47.5720 H   0  0  0  0  0  0  0  0  0  0  0  0
   60.1534   29.6040   52.1986 H   0  0  0  0  0  0  0  0  0  0  0  0
   61.2373   27.3652   52.3419 H   0  0  0  0  0  0  0  0  0  0  0  0
   61.5290   26.1100   50.3460 H   0  0  0  0  0  0  0  0  0  0  0  0
   61.2771   28.5380   45.1971 H   0  0  0  0  0  0  0  0  0  0  0  0
   59.8786   30.1056   43.9379 H   0  0  0  0  0  0  0  0  0  0  0  0
  1  2  1  0
  2  3  2  0
  2  4  2  0
  2  5  1  0
  5  6  2  0
  6  7  1  0
  7  8  2  0
  8  9  1  0
  9 10  1  0
 10 11  2  0
 11 12  1  0
 12 13  2  0
 13 14  1  0
 14 15  2  0
 15 16  1  0
 16 17  2  0
 17 18  1  0
 18 19  1  0
 19 20  1  0
 17 21  1  0
 21 22  1  0
 13 23  1  0
 23 24  2  0
 24 25  1  0
  8 26  1  0
 26 27  2  0
 27  5  1  0
 25 11  1  0
 22 15  1  0
 20 18  1  0
  1 28  1  0
  1 29  1  0
  6 30  1  0
  7 31  1  0
  9 32  1  0
  9 33  1  0
 16 34  1  0
 18 35  1  0
 19 36  1  0
 19 37  1  0
 20 38  1  0
 20 39  1  0
 21 40  1  0
 22 41  1  0
 23 42  1  0
 24 43  1  0
 25 44  1  0
 26 45  1  0
 27 46  1  0
M  END
>  <smiles>  (26) 
NS(=O)(=O)c1ccc(CN=c2nc(N=c3cc(C4CC4)[nH][nH]3)cc[nH]2)cc1

>  <score_type>  (26) 
oracle

>  <origin>  (26) 
adg

>  <m_score__min__energy>  (26) 
-9.5199999999999996

>  <m_primary>  (26) 
energy

$$$$
26:0
     RDKit          3D

 43 45  0  0  0  0  0  0  0  0999 V2000
   62.8774   31.3661   51.3609 H   0  0  0  0  0  0  0  0  0  0  0  0
   62.5460   31.9550   50.4930 C   0  0  0  0  0  0  0  0  0  0  0  0
   61.2840   32.6120   50.5280 C   0  0  0  0  0  0  0  0  0  0  0  0
   60.4310   32.5380   51.6400 O   0  0  0  0  0  0  0  0  0  0  0  0
   59.1640   33.1800   51.7230 C   0  0  0  0  0  0  0  0  0  0  0  0
   58.8915   33.3181   52.7797 H   0  0  0  0  0  0  0  0  0  0  0  0
   59.2165   34.1603   51.2267 H   0  0  0  0  0  0  0  0  0  0  0  0
   58.4045   32.5580   51.2267 H   0  0  0  0  0  0  0  0  0  0  0  0
   60.8620   33.3680   49.4170 C   0  0  0  0  0  0  0  0  0  0  0  0
   59.8902   33.8834   49.4212 H   0  0  0  0  0  0  0  0  0  0  0  0
   61.7090   33.4460   48.3110 C   0  0  0  0  0  0  0  0  0  0  0  0
   61.5660   34.0870   47.0960 C   0  0  0  0  0  0  0  0  0  0  0  0
   60.3750   34.8460   46.5950 C   0  0  0  0  0  0  0  0  0  0  0  0
   60.6932   35.5457   45.8081 H   0  0  0  0  0  0  0  0  0  0  0  0
   59.9244   35.4037   47.4292 H   0  0  0  0  0  0  0  0  0  0  0  0
   59.3640   33.8970   46.0350 C   0  0  0  0  0  0  0  0  0  0  0  0
   59.3890   32.2220   46.2330 S   0  0  0  0  0  0  0  0  0  0  0  0
   57.9280   32.0170   45.4310 C   0  0  0  0  0  0  0  0  0  0  0  0
   57.3710   30.8590   45.2420 N   0  0  0  0  0  0  0  0  0  0  0  0
   57.4750   30.0820   44.0090 C   0  0  0  0  0  0  0  0  0  0  0  0
   56.9479   29.1251   44.1379 H   0  0  0  0  0  0  0  0  0  0  0  0
   58.5376   29.9013   43.7894 H   0  0  0  0  0  0  0  0  0  0  0  0
   56.8490   30.8500   42.8400 C   0  0  0  0  0  0  0  0  0  0  0  0
   55.9294   31.3367   43.1970 H   0  0  0  0  0  0  0  0  0  0  0  0
   56.6541   30.1182   42.0422 H   0  0  0  0  0  0  0  0  0  0  0  0
   57.7700   31.9290   42.2450 C   0  0  0  0  0  0  0  0  0  0  0  0
   58.7980   31.5383   42.2197 H   0  0  0  0  0  0  0  0  0  0  0  0
   57.6877   32.8220   42.8821 H   0  0  0  0  0  0  0  0  0  0  0  0
   57.3680   32.3370   40.8280 C   0  0  0  0  0  0  0  0  0  0  0  0
   56.5967   33.1198   40.8767 H   0  0  0  0  0  0  0  0  0  0  0  0
   58.2487   32.7228   40.2937 H   0  0  0  0  0  0  0  0  0  0  0  0
   56.9692   31.4621   40.2937 H   0  0  0  0  0  0  0  0  0  0  0  0
   57.4070   33.1990   45.0210 N   0  0  0  0  0  0  0  0  0  0  0  0
   56.5040   33.3130   44.5110 H   0  0  0  0  0  0  0  0  0  0  0  0
   58.1970   34.2500   45.3620 C   0  0  0  0  0  0  0  0  0  0  0  0
   57.9368   35.2925   45.1263 H   0  0  0  0  0  0  0  0  0  0  0  0
   62.7160   33.7840   46.3730 C   0  0  0  0  0  0  0  0  0  0  0  0
   62.9223   34.1270   45.3484 H   0  0  0  0  0  0  0  0  0  0  0  0
   63.5440   33.0080   47.1090 N   0  0  0  0  0  0  0  0  0  0  0  0
   64.4700   32.6280   46.8140 H   0  0  0  0  0  0  0  0  0  0  0  0
   62.9200   32.8080   48.2830 C   0  0  0  0  0  0  0  0  0  0  0  0
   63.3730   32.0510   49.3610 C   0  0  0  0  0  0  0  0  0  0  0  0
   64.3485   31.5438   49.3272 H   0  0  0  0  0  0  0  0  0  0  0  0
  1  2  1  0
  2  3  2  0
  3  4  1  0
  4  5  1  0
  5  6  1  0
  5  7  1  0
  5  8  1  0
  3  9  1  0
  9 10  1  0
  9 11  2  0
 11 12  1  0
 12 13  1  0
 13 14  1  0
 13 15  1  0
 13 16  1  0
 16 17  1  0
 17 18  1  0
 18 19  2  0
 19 20  1  0
 20 21  1  0
 20 22  1  0
 20 23  1  0
 23 24  1  0
 23 25  1  0
 23 26  1  0
 26 27  1  0
 26 28  1  0
 26 29  1  0
 29 30  1  0
 29 31  1  0
 29 32  1  0
 18 33  1  0
 33 34  1  0
 33 35  1  0
 35 36  1  0
 12 37  2  0
 37 38  1  0
 37 39  1  0
 39 40  1  0
 39 41  1  0
 41 42  2  0
 42 43  1  0
 42  2  1  0
 41 11  1  0
 35 16  2  0
M  END
>  <UniqueID>  (27) 
25

>  <SMILES>  (27) 
CCCC/N=c1\[nH]cc(Cc2c[nH]c3ccc(OC)cc23)s1

>  <Energy>  (27) 
97.66072501093781

>  <Genealogy>  (27) 
CCCC/N=c1\[nH]cc(Cc2c[nH]c3ccc(OC)cc23)s1 (cis-trans isomerization)
CCCC/N=c1\[nH]cc(Cc2c[nH]c3ccc(OC)cc23)s1 (3D coordinates assigned)
CCCC/N=c1\[nH]cc(Cc2c[nH]c3ccc(OC)cc23)s1 (optimized conformer: 97.66072501093781 kcal/mol)

>  <smiles>  (27) 
CCCCN=c1[nH]cc(Cc2c[nH]c3ccc(OC)cc23)s1

>  <score_type>  (27) 
oracle

>  <origin>  (27) 
adg

>  <m_score__min__energy>  (27) 
-7.1900000000000004

>  <m_primary>  (27) 
energy

$$$$
27:0
     RDKit          3D

 55 58  0  0  0  0  0  0  0  0999 V2000
   60.9510   27.1400   49.0490 O   0  0  0  0  0  0  0  0  0  0  0  0
   60.5300   28.3260   48.9640 C   0  0  0  0  0  0  0  0  0  0  0  0
   60.7660   29.2170   50.0620 N   0  0  0  0  0  0  0  0  0  0  0  0
   59.9350   30.3270   50.4370 C   0  0  0  0  0  0  0  0  0  0  0  0
   58.7720   30.1300   51.2040 C   0  0  0  0  0  0  0  0  0  0  0  0
   57.9410   31.2080   51.5160 C   0  0  0  0  0  0  0  0  0  0  0  0
   58.2520   32.4870   51.0530 C   0  0  0  0  0  0  0  0  0  0  0  0
   59.3950   32.6920   50.2770 C   0  0  0  0  0  0  0  0  0  0  0  0
   60.2410   31.6170   49.9630 C   0  0  0  0  0  0  0  0  0  0  0  0
   61.4290   31.8490   49.1900 N   0  0  0  0  0  0  0  0  0  0  0  0
   62.7660   31.5970   49.6960 C   0  0  0  0  0  0  0  0  0  0  0  0
   63.7060   31.9670   48.5560 C   0  0  0  0  0  0  0  0  0  0  0  0
   62.8830   32.8250   47.5960 C   0  0  0  0  0  0  0  0  0  0  0  0
   61.4230   32.5210   47.9030 C   0  0  0  0  0  0  0  0  0  0  0  0
   59.7640   28.7420   47.7660 C   0  0  0  0  0  0  0  0  0  0  0  0
   60.2480   29.7540   46.9190 C   0  0  0  0  0  0  0  0  0  0  0  0
   59.5180   30.1420   45.7910 C   0  0  0  0  0  0  0  0  0  0  0  0
   58.2880   29.5390   45.5050 C   0  0  0  0  0  0  0  0  0  0  0  0
   57.3720   30.0390   44.0870 S   0  0  0  0  0  0  0  0  0  0  0  0
   56.0460   30.6150   44.5060 O   0  0  0  0  0  0  0  0  0  0  0  0
   57.1330   28.8410   43.2120 O   0  0  0  0  0  0  0  0  0  0  0  0
   58.2640   31.2330   43.1950 N   0  0  0  0  0  0  0  0  0  0  0  0
   57.6110   32.5390   43.3170 C   0  0  0  0  0  0  0  0  0  0  0  0
   58.0450   33.1970   44.5950 C   0  0  0  0  0  0  0  0  0  0  0  0
   59.1300   34.0900   44.6030 C   0  0  0  0  0  0  0  0  0  0  0  0
   59.5520   34.6720   45.8030 C   0  0  0  0  0  0  0  0  0  0  0  0
   58.9040   34.3580   47.0020 C   0  0  0  0  0  0  0  0  0  0  0  0
   59.3160   34.9230   48.1630 F   0  0  0  0  0  0  0  0  0  0  0  0
   57.8340   33.4580   47.0020 C   0  0  0  0  0  0  0  0  0  0  0  0
   57.4090   32.8730   45.8050 C   0  0  0  0  0  0  0  0  0  0  0  0
   57.7950   28.5380   46.3520 C   0  0  0  0  0  0  0  0  0  0  0  0
   58.5240   28.1460   47.4790 C   0  0  0  0  0  0  0  0  0  0  0  0
   58.5159   29.1211   51.5599 H   0  0  0  0  0  0  0  0  0  0  0  0
   57.0405   31.0487   52.1273 H   0  0  0  0  0  0  0  0  0  0  0  0
   57.5961   33.3350   51.2995 H   0  0  0  0  0  0  0  0  0  0  0  0
   59.6334   33.7012   49.9100 H   0  0  0  0  0  0  0  0  0  0  0  0
   62.9674   32.2213   50.5790 H   0  0  0  0  0  0  0  0  0  0  0  0
   62.8945   30.5503   50.0090 H   0  0  0  0  0  0  0  0  0  0  0  0
   64.5651   32.5376   48.9384 H   0  0  0  0  0  0  0  0  0  0  0  0
   64.1062   31.0726   48.0562 H   0  0  0  0  0  0  0  0  0  0  0  0
   63.0937   33.8919   47.7614 H   0  0  0  0  0  0  0  0  0  0  0  0
   63.1278   32.6016   46.5471 H   0  0  0  0  0  0  0  0  0  0  0  0
   60.8398   33.4521   47.9582 H   0  0  0  0  0  0  0  0  0  0  0  0
   60.9622   31.9001   47.1206 H   0  0  0  0  0  0  0  0  0  0  0  0
   61.2067   30.2437   47.1448 H   0  0  0  0  0  0  0  0  0  0  0  0
   59.9123   30.9244   45.1259 H   0  0  0  0  0  0  0  0  0  0  0  0
   58.2370   30.9480   42.1890 H   0  0  0  0  0  0  0  0  0  0  0  0
   57.8949   33.1723   42.4635 H   0  0  0  0  0  0  0  0  0  0  0  0
   56.5193   32.4042   43.3258 H   0  0  0  0  0  0  0  0  0  0  0  0
   59.6486   34.3319   43.6636 H   0  0  0  0  0  0  0  0  0  0  0  0
   60.3954   35.3782   45.8036 H   0  0  0  0  0  0  0  0  0  0  0  0
   57.3255   33.2096   47.9453 H   0  0  0  0  0  0  0  0  0  0  0  0
   56.5741   32.1569   45.8109 H   0  0  0  0  0  0  0  0  0  0  0  0
   56.8304   28.0584   46.1296 H   0  0  0  0  0  0  0  0  0  0  0  0
   58.1247   27.3667   48.1447 H   0  0  0  0  0  0  0  0  0  0  0  0
  1  2  2  0
  2  3  1  0
  3  4  1  0
  4  5  2  0
  5  6  1  0
  6  7  2  0
  7  8  1  0
  8  9  2  0
  9 10  1  0
 10 11  1  0
 11 12  1  0
 12 13  1  0
 13 14  1  0
  2 15  1  0
 15 16  2  0
 16 17  1  0
 17 18  2  0
 18 19  1  0
 19 20  2  0
 19 21  2  0
 19 22  1  0
 22 23  1  0
 23 24  1  0
 24 25  2  0
 25 26  1  0
 26 27  2  0
 27 28  1  0
 27 29  1  0
 29 30  2  0
 18 31  1  0
 31 32  2  0
  9  4  1  0
 14 10  1  0
 32 15  1  0
 30 24  1  0
  5 33  1  0
  6 34  1  0
  7 35  1  0
  8 36  1  0
 11 37  1  0
 11 38  1  0
 12 39  1  0
 12 40  1  0
 13 41  1  0
 13 42  1  0
 14 43  1  0
 14 44  1  0
 16 45  1  0
 17 46  1  0
 22 47  1  0
 23 48  1  0
 23 49  1  0
 25 50  1  0
 26 51  1  0
 29 52  1  0
 30 53  1  0
 31 54  1  0
 32 55  1  0
M  CHG  1   3  -1
M  END
>  <UniqueID>  (28) 
26

>  <SMILES>  (28) 
O=C([N-]c1ccccc1N1CCCC1)c1ccc(S(=O)(=O)NCc2ccc(F)cc2)cc1

>  <Energy>  (28) 
66.94541022154885

>  <Genealogy>  (28) 
O=C([N-]c1ccccc1N1CCCC1)c1ccc(S(=O)(=O)NCc2ccc(F)cc2)cc1 (protonated)
O=C([N-]c1ccccc1N1CCCC1)c1ccc(S(=O)(=O)NCc2ccc(F)cc2)cc1 (3D coordinates assigned)
O=C([N-]c1ccccc1N1CCCC1)c1ccc(S(=O)(=O)NCc2ccc(F)cc2)cc1 (nonaromatic ring conformer: 66.94541022154885 kcal/mol)

>  <smiles>  (28) 
O=C(Nc1ccccc1N1CCCC1)c1ccc(S(=O)(=O)NCc2ccc(F)cc2)cc1

>  <score_type>  (28) 
oracle

>  <origin>  (28) 
adg

>  <m_score__min__energy>  (28) 
-10.83

>  <m_primary>  (28) 
energy

$$$$
28:0
     RDKit          3D

 66 69  0  0  0  0  0  0  0  0999 V2000
   65.1114   25.6294   52.0123 H   0  0  0  0  0  0  0  0  0  0  0  0
   65.6540   26.5300   51.6890 C   0  0  0  0  0  0  0  0  0  0  0  0
   66.2480   27.5160   51.3350 C   0  0  0  0  0  0  0  0  0  0  0  0
   66.9780   28.6890   50.9200 C   0  0  0  0  0  0  0  0  0  0  0  0
   67.9030   28.5490   50.0720 O   0  0  0  0  0  0  0  0  0  0  0  0
   66.6340   30.0040   51.4130 N   0  0  0  0  0  0  0  0  0  0  0  0
   67.1580   31.1720   50.6650 C   0  0  0  0  0  0  0  0  0  0  0  0
   68.2493   31.2016   50.7996 H   0  0  0  0  0  0  0  0  0  0  0  0
   66.8504   31.0297   49.6185 H   0  0  0  0  0  0  0  0  0  0  0  0
   66.5860   32.5340   51.1000 C   0  0  0  0  0  0  0  0  0  0  0  0
   67.3304   33.0548   51.7202 H   0  0  0  0  0  0  0  0  0  0  0  0
   66.3558   33.1204   50.1982 H   0  0  0  0  0  0  0  0  0  0  0  0
   65.3560   32.3660   51.8710 N   0  0  0  0  0  0  0  0  0  0  0  0
   64.0610   32.4840   51.2500 C   0  0  0  0  0  0  0  0  0  0  0  0
   63.4450   33.7360   51.1340 C   0  0  0  0  0  0  0  0  0  0  0  0
   63.9784   34.6399   51.4632 H   0  0  0  0  0  0  0  0  0  0  0  0
   62.1550   33.8450   50.6020 C   0  0  0  0  0  0  0  0  0  0  0  0
   61.6791   34.8333   50.5192 H   0  0  0  0  0  0  0  0  0  0  0  0
   61.4610   32.6930   50.1710 C   0  0  0  0  0  0  0  0  0  0  0  0
   60.0940   32.7120   49.7190 N   0  0  0  0  0  0  0  0  0  0  0  0
   59.5680   33.0690   48.5860 C   0  0  0  0  0  0  0  0  0  0  0  0
   59.6460   34.3440   48.1150 N   0  0  0  0  0  0  0  0  0  0  0  0
   59.1150   34.6790   46.9060 C   0  0  0  0  0  0  0  0  0  0  0  0
   59.1897   35.7144   46.5421 H   0  0  0  0  0  0  0  0  0  0  0  0
   58.4750   33.7100   46.1260 C   0  0  0  0  0  0  0  0  0  0  0  0
   57.7530   34.1440   44.5860 Cl  0  0  0  0  0  0  0  0  0  0  0  0
   58.3890   32.4100   46.6310 C   0  0  0  0  0  0  0  0  0  0  0  0
   57.7000   31.4130   45.9270 O   0  0  0  0  0  0  0  0  0  0  0  0
   58.2700   30.1540   45.7150 C   0  0  0  0  0  0  0  0  0  0  0  0
   59.5300   29.8880   46.2560 C   0  0  0  0  0  0  0  0  0  0  0  0
   60.0984   30.6950   46.7414 H   0  0  0  0  0  0  0  0  0  0  0  0
   60.0710   28.6050   46.1840 C   0  0  0  0  0  0  0  0  0  0  0  0
   61.0707   28.4047   46.5970 H   0  0  0  0  0  0  0  0  0  0  0  0
   59.3420   27.5750   45.5870 C   0  0  0  0  0  0  0  0  0  0  0  0
   59.7517   26.5543   45.5722 H   0  0  0  0  0  0  0  0  0  0  0  0
   58.0960   27.8300   45.0080 C   0  0  0  0  0  0  0  0  0  0  0  0
   57.3250   26.7320   44.5160 N   0  0  0  0  0  0  0  0  0  0  0  0
   57.0680   26.6980   43.5060 H   0  0  0  0  0  0  0  0  0  0  0  0
   56.4720   25.7180   45.6370 S   0  0  0  0  0  0  0  0  0  0  0  0
   55.1560   26.3540   45.9860 O   0  0  0  0  0  0  0  0  0  0  0  0
   57.2930   25.5420   46.8890 O   0  0  0  0  0  0  0  0  0  0  0  0
   56.1690   24.1280   44.9020 C   0  0  0  0  0  0  0  0  0  0  0  0
   56.0262   23.3788   45.6947 H   0  0  0  0  0  0  0  0  0  0  0  0
   55.2644   24.1788   44.2783 H   0  0  0  0  0  0  0  0  0  0  0  0
   57.0289   23.8425   44.2783 H   0  0  0  0  0  0  0  0  0  0  0  0
   57.5720   29.1390   45.0150 C   0  0  0  0  0  0  0  0  0  0  0  0
   56.3610   29.4900   44.1730 C   0  0  0  0  0  0  0  0  0  0  0  0
   56.3762   30.5651   43.9407 H   0  0  0  0  0  0  0  0  0  0  0  0
   56.3862   28.9101   43.2386 H   0  0  0  0  0  0  0  0  0  0  0  0
   55.1890   29.1820   44.8800 O   0  0  0  0  0  0  0  0  0  0  0  0
   55.1430   28.1930   44.9310 H   0  0  0  0  0  0  0  0  0  0  0  0
   58.9600   32.1200   47.8340 N   0  0  0  0  0  0  0  0  0  0  0  0
   62.0670   31.4350   50.3130 C   0  0  0  0  0  0  0  0  0  0  0  0
   61.3290   30.2930   49.9520 O   0  0  0  0  0  0  0  0  0  0  0  0
   60.2170   29.7920   50.6810 C   0  0  0  0  0  0  0  0  0  0  0  0
   60.4152   29.8813   51.7593 H   0  0  0  0  0  0  0  0  0  0  0  0
   59.3186   30.3723   50.4240 H   0  0  0  0  0  0  0  0  0  0  0  0
   60.0564   28.7346   50.4240 H   0  0  0  0  0  0  0  0  0  0  0  0
   63.3700   31.3390   50.8290 C   0  0  0  0  0  0  0  0  0  0  0  0
   63.8539   30.3540   50.9036 H   0  0  0  0  0  0  0  0  0  0  0  0
   65.4940   31.5250   53.0520 C   0  0  0  0  0  0  0  0  0  0  0  0
   66.3424   31.8727   53.6596 H   0  0  0  0  0  0  0  0  0  0  0  0
   64.5804   31.5747   53.6626 H   0  0  0  0  0  0  0  0  0  0  0  0
   65.7420   30.0930   52.5910 C   0  0  0  0  0  0  0  0  0  0  0  0
   66.2009   29.5338   53.4197 H   0  0  0  0  0  0  0  0  0  0  0  0
   64.7694   29.6723   52.2961 H   0  0  0  0  0  0  0  0  0  0  0  0
  1  2  1  0
  2  3  3  0
  3  4  1  0
  4  5  2  0
  4  6  1  0
  6  7  1  0
  7  8  1  0
  7  9  1  0
  7 10  1  0
 10 11  1  0
 10 12  1  0
 10 13  1  0
 13 14  1  0
 14 15  2  0
 15 16  1  0
 15 17  1  0
 17 18  1  0
 17 19  2  0
 19 20  1  0
 20 21  2  0
 21 22  1  0
 22 23  2  0
 23 24  1  0
 23 25  1  0
 25 26  1  0
 25 27  2  0
 27 28  1  0
 28 29  1  0
 29 30  2  0
 30 31  1  0
 30 32  1  0
 32 33  1  0
 32 34  2  0
 34 35  1  0
 34 36  1  0
 36 37  1  0
 37 38  1  0
 37 39  1  0
 39 40  2  0
 39 41  2  0
 39 42  1  0
 42 43  1  0
 42 44  1  0
 42 45  1  0
 36 46  2  0
 46 47  1  0
 47 48  1  0
 47 49  1  0
 47 50  1  0
 50 51  1  0
 27 52  1  0
 19 53  1  0
 53 54  1  0
 54 55  1  0
 55 56  1  0
 55 57  1  0
 55 58  1  0
 53 59  2  0
 59 60  1  0
 13 61  1  0
 61 62  1  0
 61 63  1  0
 61 64  1  0
 64 65  1  0
 64 66  1  0
 64  6  1  0
 59 14  1  0
 52 21  1  0
 46 29  1  0
M  CHG  1  52  -1
M  END
>  <UniqueID>  (29) 
27

>  <SMILES>  (29) 
C#CC(=O)N1CCN(c2ccc(/N=c3\ncc(Cl)c(Oc4cccc(NS(C)(=O)=O)c4CO)[n-]3)c(OC)c2)CC1

>  <Energy>  (29) 
99.69974150325476

>  <Genealogy>  (29) 
C#CC(=O)N1CCN(c2ccc(N=c3ncc(Cl)c(Oc4cccc(NS(C)(=O)=O)c4CO)[n-]3)c(OC)c2)CC1 (protonated)
C#CC(=O)N1CCN(c2ccc(/N=c3\ncc(Cl)c(Oc4cccc(NS(C)(=O)=O)c4CO)[n-]3)c(OC)c2)CC1 (cis-trans isomerization)
C#CC(=O)N1CCN(c2ccc(/N=c3\ncc(Cl)c(Oc4cccc(NS(C)(=O)=O)c4CO)[n-]3)c(OC)c2)CC1 (3D coordinates assigned)
C#CC(=O)N1CCN(c2ccc(/N=c3\ncc(Cl)c(Oc4cccc(NS(C)(=O)=O)c4CO)[n-]3)c(OC)c2)CC1 (nonaromatic ring conformer: 99.69974150325476 kcal/mol)

>  <smiles>  (29) 
C#CC(=O)N1CCN(c2ccc(N=c3ncc(Cl)c(Oc4cccc(NS(C)(=O)=O)c4CO)[nH]3)c(OC)c2)CC1

>  <score_type>  (29) 
oracle

>  <origin>  (29) 
adg

>  <m_score__min__energy>  (29) 
-12.029999999999999

>  <m_primary>  (29) 
energy

$$$$
29:0
     RDKit          3D

 46 47  0  0  0  0  0  0  0  0999 V2000
   66.2900   33.0510   49.1100 H   0  0  0  0  0  0  0  0  0  0  0  0
   65.3560   33.1200   49.5740 N   0  0  0  0  0  0  0  0  0  0  0  0
   64.2740   32.6810   49.0120 C   0  0  0  0  0  0  0  0  0  0  0  0
   63.2390   32.1770   49.8080 C   0  0  0  0  0  0  0  0  0  0  0  0
   63.3427   32.1530   50.9028 H   0  0  0  0  0  0  0  0  0  0  0  0
   62.0740   31.7050   49.2010 C   0  0  0  0  0  0  0  0  0  0  0  0
   61.2541   31.3065   49.8166 H   0  0  0  0  0  0  0  0  0  0  0  0
   61.9520   31.7400   47.8100 C   0  0  0  0  0  0  0  0  0  0  0  0
   60.7580   31.2570   47.1700 C   0  0  0  0  0  0  0  0  0  0  0  0
   59.7620   30.8530   46.6260 C   0  0  0  0  0  0  0  0  0  0  0  0
   58.5760   30.3610   45.9670 C   0  0  0  0  0  0  0  0  0  0  0  0
   57.7490   31.2090   45.2010 C   0  0  0  0  0  0  0  0  0  0  0  0
   58.0390   32.6780   45.0360 C   0  0  0  0  0  0  0  0  0  0  0  0
   59.1282   32.8321   45.0345 H   0  0  0  0  0  0  0  0  0  0  0  0
   57.6014   33.0179   44.0857 H   0  0  0  0  0  0  0  0  0  0  0  0
   57.4220   33.4860   46.1730 C   0  0  0  0  0  0  0  0  0  0  0  0
   57.7429   33.0658   47.1376 H   0  0  0  0  0  0  0  0  0  0  0  0
   57.7529   34.5326   46.1007 H   0  0  0  0  0  0  0  0  0  0  0  0
   56.3252   33.4424   46.1007 H   0  0  0  0  0  0  0  0  0  0  0  0
   56.6330   30.6970   44.6140 N   0  0  0  0  0  0  0  0  0  0  0  0
   56.2820   29.3900   44.7360 C   0  0  0  0  0  0  0  0  0  0  0  0
   55.3761   29.0175   44.2354 H   0  0  0  0  0  0  0  0  0  0  0  0
   57.0680   28.5150   45.4960 C   0  0  0  0  0  0  0  0  0  0  0  0
   56.7170   27.0870   45.6380 C   0  0  0  0  0  0  0  0  0  0  0  0
   57.5450   26.2130   45.2700 O   0  0  0  0  0  0  0  0  0  0  0  0
   55.5020   26.6630   46.2650 N   0  0  0  0  0  0  0  0  0  0  0  0
   54.5350   25.9610   45.6160 O   0  0  0  0  0  0  0  0  0  0  0  0
   54.9030   24.5970   45.6670 C   0  0  1  0  0  0  0  0  0  0  0  0
   55.6571   24.4494   46.4541 H   0  0  0  0  0  0  0  0  0  0  0  0
   53.6870   23.7260   46.0240 C   0  0  0  0  0  0  0  0  0  0  0  0
   53.5928   23.6585   47.1179 H   0  0  0  0  0  0  0  0  0  0  0  0
   52.7762   24.1784   45.6047 H   0  0  0  0  0  0  0  0  0  0  0  0
   53.8222   22.7181   45.6047 H   0  0  0  0  0  0  0  0  0  0  0  0
   55.5200   24.1790   44.3170 C   0  0  0  0  0  0  0  0  0  0  0  0
   54.7616   23.6238   43.7455 H   0  0  0  0  0  0  0  0  0  0  0  0
   55.8361   25.1017   43.8084 H   0  0  0  0  0  0  0  0  0  0  0  0
   56.7630   23.2960   44.4560 C   0  0  0  0  0  0  0  0  0  0  0  0
   56.9839   23.1391   45.5221 H   0  0  0  0  0  0  0  0  0  0  0  0
   56.5789   22.3251   43.9729 H   0  0  0  0  0  0  0  0  0  0  0  0
   57.6192   23.7895   43.9729 H   0  0  0  0  0  0  0  0  0  0  0  0
   58.2320   29.0110   46.0990 C   0  0  0  0  0  0  0  0  0  0  0  0
   58.8783   28.3357   46.6789 H   0  0  0  0  0  0  0  0  0  0  0  0
   63.0060   32.2510   47.0440 C   0  0  0  0  0  0  0  0  0  0  0  0
   62.9217   32.2845   45.9477 H   0  0  0  0  0  0  0  0  0  0  0  0
   64.1360   32.7070   47.6530 N   0  0  0  0  0  0  0  0  0  0  0  0
   64.9060   33.0830   47.0550 H   0  0  0  0  0  0  0  0  0  0  0  0
  1  2  1  0
  2  3  2  0
  3  4  1  0
  4  5  1  0
  4  6  2  0
  6  7  1  0
  6  8  1  0
  8  9  1  0
  9 10  3  0
 10 11  1  0
 11 12  2  0
 12 13  1  0
 13 14  1  0
 13 15  1  0
 13 16  1  0
 16 17  1  0
 16 18  1  0
 16 19  1  0
 12 20  1  0
 20 21  2  0
 21 22  1  0
 21 23  1  0
 23 24  1  0
 24 25  2  0
 24 26  1  0
 26 27  1  0
 27 28  1  0
 28 29  1  1
 28 30  1  0
 30 31  1  0
 30 32  1  0
 30 33  1  0
 28 34  1  0
 34 35  1  0
 34 36  1  0
 34 37  1  0
 37 38  1  0
 37 39  1  0
 37 40  1  0
 23 41  2  0
 41 42  1  0
  8 43  2  0
 43 44  1  0
 43 45  1  0
 45 46  1  0
 45  3  1  0
 41 11  1  0
M  CHG  1  26  -1
M  END
>  <UniqueID>  (30) 
28

>  <SMILES>  (30) 
[H]/N=c1/ccc(C#Cc2cc(C(=O)[N-]O[C@@H](C)CC)cnc2CC)c[nH]1

>  <Energy>  (30) 
40.39278007152525

>  <Genealogy>  (30) 
CCc1ncc(C(=O)[N-]OC(C)CC)cc1C#Cc1ccc(=N)[nH]c1 (protonated)
CCc1ncc(C(=O)[N-]O[C@@H](C)CC)cc1C#Cc1ccc(=N)[nH]c1 (chirality)
[H]/N=c1/ccc(C#Cc2cc(C(=O)[N-]O[C@@H](C)CC)cnc2CC)c[nH]1 (cis-trans isomerization)
[H]/N=c1/ccc(C#Cc2cc(C(=O)[N-]O[C@@H](C)CC)cnc2CC)c[nH]1 (3D coordinates assigned)
[H]/N=c1/ccc(C#Cc2cc(C(=O)[N-]O[C@@H](C)CC)cnc2CC)c[nH]1 (optimized conformer: 40.39278007152525 kcal/mol)

>  <smiles>  (30) 
CCc1ncc(C(=O)NOC(C)CC)cc1C#Cc1ccc(=N)[nH]c1

>  <score_type>  (30) 
oracle

>  <origin>  (30) 
adg

>  <m_score__min__energy>  (30) 
-10.199999999999999

>  <m_primary>  (30) 
energy

$$$$
30:0
     RDKit          3D

 44 46  0  0  0  0  0  0  0  0999 V2000
   57.8950   25.4240   45.0960 C   0  0  0  0  0  0  0  0  0  0  0  0
   56.8370   26.1670   46.3200 S   0  0  0  0  0  0  0  0  0  0  0  0
   55.8900   25.1450   46.8850 O   0  0  0  0  0  0  0  0  0  0  0  0
   57.6910   26.7030   47.4330 O   0  0  0  0  0  0  0  0  0  0  0  0
   55.9460   27.4800   45.6190 N   0  0  0  0  0  0  0  0  0  0  0  0
   56.4950   28.7410   45.2120 C   0  0  0  0  0  0  0  0  0  0  0  0
   55.7770   29.5150   44.2920 C   0  0  0  0  0  0  0  0  0  0  0  0
   56.2710   30.7520   43.8700 C   0  0  0  0  0  0  0  0  0  0  0  0
   57.4830   31.2300   44.3710 C   0  0  0  0  0  0  0  0  0  0  0  0
   58.2120   30.4720   45.3020 C   0  0  0  0  0  0  0  0  0  0  0  0
   59.4710   30.9340   45.8150 N   0  0  0  0  0  0  0  0  0  0  0  0
   59.6720   31.3390   47.1780 C   0  0  0  0  0  0  0  0  0  0  0  0
   58.7450   31.2070   48.0230 O   0  0  0  0  0  0  0  0  0  0  0  0
   60.9810   31.8740   47.6050 C   0  0  0  0  0  0  0  0  0  0  0  0
   62.1500   31.1930   47.2240 C   0  0  0  0  0  0  0  0  0  0  0  0
   63.4060   31.6750   47.5990 C   0  0  0  0  0  0  0  0  0  0  0  0
   63.5100   32.8370   48.3640 C   0  0  0  0  0  0  0  0  0  0  0  0
   62.3580   33.5170   48.7620 C   0  0  0  0  0  0  0  0  0  0  0  0
   61.0910   33.0410   48.3970 C   0  0  0  0  0  0  0  0  0  0  0  0
   59.6430   33.9160   49.0190 S   0  0  0  0  0  0  0  0  0  0  0  0
   58.9730   34.1770   47.3750 C   0  0  0  0  0  0  0  0  0  0  0  0
   57.6640   33.7760   47.0760 C   0  0  0  0  0  0  0  0  0  0  0  0
   57.1400   33.9900   45.7970 C   0  0  0  0  0  0  0  0  0  0  0  0
   57.9250   34.6000   44.8120 C   0  0  0  0  0  0  0  0  0  0  0  0
   59.2350   34.9920   45.1060 C   0  0  0  0  0  0  0  0  0  0  0  0
   59.7600   34.7790   46.3840 C   0  0  0  0  0  0  0  0  0  0  0  0
   57.7220   29.2210   45.7030 C   0  0  0  0  0  0  0  0  0  0  0  0
   58.6964   24.8612   45.5970 H   0  0  0  0  0  0  0  0  0  0  0  0
   57.3050   24.7409   44.4674 H   0  0  0  0  0  0  0  0  0  0  0  0
   58.3373   26.2109   44.4674 H   0  0  0  0  0  0  0  0  0  0  0  0
   54.8179   29.1467   43.8990 H   0  0  0  0  0  0  0  0  0  0  0  0
   55.7038   31.3502   43.1417 H   0  0  0  0  0  0  0  0  0  0  0  0
   57.8686   32.2040   44.0354 H   0  0  0  0  0  0  0  0  0  0  0  0
   60.3190   30.8090   45.2150 H   0  0  0  0  0  0  0  0  0  0  0  0
   62.0750   30.2730   46.6257 H   0  0  0  0  0  0  0  0  0  0  0  0
   64.3148   31.1375   47.2906 H   0  0  0  0  0  0  0  0  0  0  0  0
   64.5006   33.2175   48.6537 H   0  0  0  0  0  0  0  0  0  0  0  0
   62.4448   34.4323   49.3659 H   0  0  0  0  0  0  0  0  0  0  0  0
   57.0478   33.2923   47.8482 H   0  0  0  0  0  0  0  0  0  0  0  0
   56.1107   33.6788   45.5653 H   0  0  0  0  0  0  0  0  0  0  0  0
   57.5119   34.7711   43.8070 H   0  0  0  0  0  0  0  0  0  0  0  0
   59.8529   35.4685   44.3307 H   0  0  0  0  0  0  0  0  0  0  0  0
   60.7919   35.0842   46.6120 H   0  0  0  0  0  0  0  0  0  0  0  0
   58.3032   28.6091   46.4086 H   0  0  0  0  0  0  0  0  0  0  0  0
  1  2  1  0
  2  3  2  0
  2  4  2  0
  2  5  1  0
  5  6  1  0
  6  7  2  0
  7  8  1  0
  8  9  2  0
  9 10  1  0
 10 11  1  0
 11 12  1  0
 12 13  2  0
 12 14  1  0
 14 15  2  0
 15 16  1  0
 16 17  2  0
 17 18  1  0
 18 19  2  0
 19 20  1  0
 20 21  1  0
 21 22  2  0
 22 23  1  0
 23 24  2  0
 24 25  1  0
 25 26  2  0
 10 27  2  0
 27  6  1  0
 19 14  1  0
 26 21  1  0
  1 28  1  0
  1 29  1  0
  1 30  1  0
  7 31  1  0
  8 32  1  0
  9 33  1  0
 11 34  1  0
 15 35  1  0
 16 36  1  0
 17 37  1  0
 18 38  1  0
 22 39  1  0
 23 40  1  0
 24 41  1  0
 25 42  1  0
 26 43  1  0
 27 44  1  0
M  CHG  1   5  -1
M  END
>  <UniqueID>  (31) 
29

>  <SMILES>  (31) 
CS(=O)(=O)[N-]c1cccc(NC(=O)c2ccccc2Sc2ccccc2)c1

>  <Energy>  (31) 
48.212974594238496

>  <Genealogy>  (31) 
CS(=O)(=O)[N-]c1cccc(NC(=O)c2ccccc2Sc2ccccc2)c1 (protonated)
CS(=O)(=O)[N-]c1cccc(NC(=O)c2ccccc2Sc2ccccc2)c1 (3D coordinates assigned)
CS(=O)(=O)[N-]c1cccc(NC(=O)c2ccccc2Sc2ccccc2)c1 (optimized conformer: 48.212974594238496 kcal/mol)

>  <smiles>  (31) 
CS(=O)(=O)Nc1cccc(NC(=O)c2ccccc2Sc2ccccc2)c1

>  <score_type>  (31) 
oracle

>  <origin>  (31) 
adg

>  <m_score__min__energy>  (31) 
-11.77

>  <m_primary>  (31) 
energy

$$$$
31:0
     RDKit          3D

 55 57  0  0  0  0  0  0  0  0999 V2000
   55.3470   29.3140   44.8800 N   0  0  0  0  0  0  0  0  0  0  0  0
   57.0680   29.5220   44.8900 S   0  0  0  0  0  0  0  0  0  0  0  0
   57.4170   30.5490   45.9300 O   0  0  0  0  0  0  0  0  0  0  0  0
   57.5260   30.0100   43.5400 O   0  0  0  0  0  0  0  0  0  0  0  0
   57.8580   27.9800   45.2680 C   0  0  0  0  0  0  0  0  0  0  0  0
   57.4930   26.8270   44.5500 C   0  0  0  0  0  0  0  0  0  0  0  0
   58.1110   25.6010   44.8100 C   0  0  0  0  0  0  0  0  0  0  0  0
   59.1000   25.5100   45.7880 C   0  0  0  0  0  0  0  0  0  0  0  0
   59.4710   26.6460   46.5120 C   0  0  0  0  0  0  0  0  0  0  0  0
   58.8540   27.8830   46.2680 C   0  0  0  0  0  0  0  0  0  0  0  0
   59.2530   29.0420   47.0860 C   0  0  0  0  0  0  0  0  0  0  0  0
   60.2230   29.9360   46.6200 C   0  0  0  0  0  0  0  0  0  0  0  0
   60.5990   31.0360   47.3980 C   0  0  0  0  0  0  0  0  0  0  0  0
   60.0270   31.2370   48.6620 C   0  0  0  0  0  0  0  0  0  0  0  0
   60.3920   32.4370   49.4890 C   0  0  0  0  0  0  0  0  0  0  0  0
   60.2300   32.1230   50.9040 N   0  0  0  0  0  0  0  0  0  0  0  0
   59.1460   32.6470   51.6780 C   0  0  0  0  0  0  0  0  0  0  0  0
   58.5190   33.6670   51.2840 O   0  0  0  0  0  0  0  0  0  0  0  0
   58.7140   31.9550   52.9360 C   0  0  0  0  0  0  0  0  0  0  0  0
   57.1940   31.7810   52.9420 C   0  0  0  0  0  0  0  0  0  0  0  0
   56.8020   30.4120   52.4460 C   0  0  0  0  0  0  0  0  0  0  0  0
   57.5000   29.8660   51.5520 O   0  0  0  0  0  0  0  0  0  0  0  0
   55.6710   29.6980   52.9670 N   0  0  0  0  0  0  0  0  0  0  0  0
   54.4530   29.3560   52.2350 C   0  0  0  0  0  0  0  0  0  0  0  0
   53.3150   30.2780   52.5960 C   0  0  0  0  0  0  0  0  0  0  0  0
   52.8200   30.3020   53.9120 C   0  0  0  0  0  0  0  0  0  0  0  0
   51.7400   31.1250   54.2440 C   0  0  0  0  0  0  0  0  0  0  0  0
   51.1400   31.9250   53.2670 C   0  0  0  0  0  0  0  0  0  0  0  0
   51.6190   31.9010   51.9520 C   0  0  0  0  0  0  0  0  0  0  0  0
   51.0250   32.7010   50.9820 O   0  0  0  0  0  0  0  0  0  0  0  0
   52.6950   31.0730   51.6130 C   0  0  0  0  0  0  0  0  0  0  0  0
   59.0580   30.3380   49.1270 C   0  0  0  0  0  0  0  0  0  0  0  0
   58.6770   29.2450   48.3460 C   0  0  0  0  0  0  0  0  0  0  0  0
   55.1190   28.6510   45.6520 H   0  0  0  0  0  0  0  0  0  0  0  0
   56.7136   26.8910   43.7764 H   0  0  0  0  0  0  0  0  0  0  0  0
   57.8165   24.7062   44.2419 H   0  0  0  0  0  0  0  0  0  0  0  0
   59.5879   24.5449   45.9896 H   0  0  0  0  0  0  0  0  0  0  0  0
   60.2542   26.5702   47.2807 H   0  0  0  0  0  0  0  0  0  0  0  0
   60.6917   29.7733   45.6382 H   0  0  0  0  0  0  0  0  0  0  0  0
   61.3469   31.7466   47.0163 H   0  0  0  0  0  0  0  0  0  0  0  0
   61.4387   32.7125   49.2925 H   0  0  0  0  0  0  0  0  0  0  0  0
   59.7342   33.2777   49.2235 H   0  0  0  0  0  0  0  0  0  0  0  0
   60.8140   31.3540   51.3060 H   0  0  0  0  0  0  0  0  0  0  0  0
   59.1940   30.9668   52.9914 H   0  0  0  0  0  0  0  0  0  0  0  0
   59.0112   32.5633   53.8030 H   0  0  0  0  0  0  0  0  0  0  0  0
   56.8216   31.9113   53.9688 H   0  0  0  0  0  0  0  0  0  0  0  0
   56.7536   32.5344   52.2723 H   0  0  0  0  0  0  0  0  0  0  0  0
   54.6499   29.4364   51.1558 H   0  0  0  0  0  0  0  0  0  0  0  0
   54.1647   28.3292   52.5045 H   0  0  0  0  0  0  0  0  0  0  0  0
   53.2847   29.6704   54.6835 H   0  0  0  0  0  0  0  0  0  0  0  0
   51.3613   31.1432   55.2766 H   0  0  0  0  0  0  0  0  0  0  0  0
   50.2916   32.5732   53.5317 H   0  0  0  0  0  0  0  0  0  0  0  0
   53.0577   31.0431   50.5750 H   0  0  0  0  0  0  0  0  0  0  0  0
   58.5950   30.4941   50.1125 H   0  0  0  0  0  0  0  0  0  0  0  0
   57.9209   28.5402   48.7223 H   0  0  0  0  0  0  0  0  0  0  0  0
  1  2  1  0
  2  3  2  0
  2  4  2  0
  2  5  1  0
  5  6  2  0
  6  7  1  0
  7  8  2  0
  8  9  1  0
  9 10  2  0
 10 11  1  0
 11 12  2  0
 12 13  1  0
 13 14  2  0
 14 15  1  0
 15 16  1  0
 16 17  1  0
 17 18  2  0
 17 19  1  0
 19 20  1  0
 20 21  1  0
 21 22  2  0
 21 23  1  0
 23 24  1  0
 24 25  1  0
 25 26  2  0
 26 27  1  0
 27 28  2  0
 28 29  1  0
 29 30  1  0
 29 31  2  0
 14 32  1  0
 32 33  2  0
 10  5  1  0
 33 11  1  0
 31 25  1  0
  1 34  1  0
  6 35  1  0
  7 36  1  0
  8 37  1  0
  9 38  1  0
 12 39  1  0
 13 40  1  0
 15 41  1  0
 15 42  1  0
 16 43  1  0
 19 44  1  0
 19 45  1  0
 20 46  1  0
 20 47  1  0
 24 48  1  0
 24 49  1  0
 26 50  1  0
 27 51  1  0
 28 52  1  0
 31 53  1  0
 32 54  1  0
 33 55  1  0
M  CHG  3   1  -1  23  -1  30  -1
M  END
>  <UniqueID>  (32) 
30

>  <SMILES>  (32) 
[NH-]S(=O)(=O)c1ccccc1-c1ccc(CNC(=O)CCC(=O)[N-]Cc2cccc([O-])c2)cc1

>  <Energy>  (32) 
54.48175016318517

>  <Genealogy>  (32) 
[NH-]S(=O)(=O)c1ccccc1-c1ccc(CNC(=O)CCC(=O)[N-]Cc2cccc([O-])c2)cc1 (protonated)
[NH-]S(=O)(=O)c1ccccc1-c1ccc(CNC(=O)CCC(=O)[N-]Cc2cccc([O-])c2)cc1 (3D coordinates assigned)
[NH-]S(=O)(=O)c1ccccc1-c1ccc(CNC(=O)CCC(=O)[N-]Cc2cccc([O-])c2)cc1 (optimized conformer: 54.48175016318517 kcal/mol)

>  <smiles>  (32) 
NS(=O)(=O)c1ccccc1-c1ccc(CNC(=O)CCC(=O)NCc2cccc(O)c2)cc1

>  <score_type>  (32) 
oracle

>  <origin>  (32) 
adg

>  <m_score__min__energy>  (32) 
-17.07

>  <m_primary>  (32) 
energy

$$$$
32:0
     RDKit          3D

 54 56  0  0  0  0  0  0  0  0999 V2000
   58.2080   33.0020   43.9280 C   0  0  0  0  0  0  0  0  0  0  0  0
   58.3520   32.3410   45.2260 N   0  0  0  0  0  0  0  0  0  0  0  0
   57.5020   32.7630   46.3460 C   0  0  0  0  0  0  0  0  0  0  0  0
   58.3440   33.1250   47.5310 C   0  0  0  0  0  0  0  0  0  0  0  0
   58.0060   32.7300   48.6800 O   0  0  0  0  0  0  0  0  0  0  0  0
   59.4970   33.9550   47.3470 N   0  0  0  0  0  0  0  0  0  0  0  0
   60.8270   33.7000   47.8190 C   0  0  0  0  0  0  0  0  0  0  0  0
   61.0280   33.5240   49.1950 C   0  0  0  0  0  0  0  0  0  0  0  0
   62.3110   33.2930   49.7000 C   0  0  0  0  0  0  0  0  0  0  0  0
   63.4070   33.2520   48.8330 C   0  0  0  0  0  0  0  0  0  0  0  0
   65.0180   32.9690   49.4700 Cl  0  0  0  0  0  0  0  0  0  0  0  0
   63.2190   33.4490   47.4610 C   0  0  0  0  0  0  0  0  0  0  0  0
   61.9350   33.6780   46.9520 C   0  0  0  0  0  0  0  0  0  0  0  0
   59.1380   31.1410   45.3340 C   0  0  0  0  0  0  0  0  0  0  0  0
   60.0890   31.0240   46.3590 C   0  0  0  0  0  0  0  0  0  0  0  0
   60.8680   29.8710   46.4710 C   0  0  0  0  0  0  0  0  0  0  0  0
   60.6950   28.8220   45.5670 C   0  0  0  0  0  0  0  0  0  0  0  0
   59.7420   28.9210   44.5500 C   0  0  0  0  0  0  0  0  0  0  0  0
   58.9540   30.0820   44.4240 C   0  0  0  0  0  0  0  0  0  0  0  0
   57.9780   30.2140   43.4240 O   0  0  0  0  0  0  0  0  0  0  0  0
   56.8730   29.3320   43.2470 C   0  0  0  0  0  0  0  0  0  0  0  0
   56.0160   29.3690   44.4680 C   0  0  0  0  0  0  0  0  0  0  0  0
   55.4000   30.4280   44.7610 O   0  0  0  0  0  0  0  0  0  0  0  0
   55.8520   28.1780   45.2530 N   0  0  0  0  0  0  0  0  0  0  0  0
   56.8880   27.4290   45.9070 C   0  0  0  0  0  0  0  0  0  0  0  0
   57.7620   28.0160   46.8400 C   0  0  0  0  0  0  0  0  0  0  0  0
   58.7700   27.2520   47.4360 C   0  0  0  0  0  0  0  0  0  0  0  0
   58.9260   25.9070   47.0950 C   0  0  0  0  0  0  0  0  0  0  0  0
   58.0820   25.3190   46.1450 C   0  0  0  0  0  0  0  0  0  0  0  0
   58.2850   23.6250   45.7130 S   0  0  0  0  0  0  0  0  0  0  0  0
   57.5280   22.6300   46.9050 N   0  0  0  0  0  0  0  0  0  0  0  0
   59.7490   23.2960   45.6410 O   0  0  0  0  0  0  0  0  0  0  0  0
   57.6640   23.3590   44.3700 O   0  0  0  0  0  0  0  0  0  0  0  0
   57.0650   26.0840   45.5550 C   0  0  0  0  0  0  0  0  0  0  0  0
   57.9762   34.0662   44.0822 H   0  0  0  0  0  0  0  0  0  0  0  0
   59.1474   32.9095   43.3632 H   0  0  0  0  0  0  0  0  0  0  0  0
   57.3922   32.5271   43.3632 H   0  0  0  0  0  0  0  0  0  0  0  0
   56.9088   33.6379   46.0416 H   0  0  0  0  0  0  0  0  0  0  0  0
   56.8353   31.9326   46.6215 H   0  0  0  0  0  0  0  0  0  0  0  0
   60.1703   33.5679   49.8823 H   0  0  0  0  0  0  0  0  0  0  0  0
   62.4582   33.1435   50.7798 H   0  0  0  0  0  0  0  0  0  0  0  0
   64.0825   33.4239   46.7800 H   0  0  0  0  0  0  0  0  0  0  0  0
   61.7923   33.8408   45.8735 H   0  0  0  0  0  0  0  0  0  0  0  0
   60.2215   31.8455   47.0784 H   0  0  0  0  0  0  0  0  0  0  0  0
   61.6180   29.7893   47.2716 H   0  0  0  0  0  0  0  0  0  0  0  0
   61.3106   27.9147   45.6553 H   0  0  0  0  0  0  0  0  0  0  0  0
   59.6063   28.0883   43.8442 H   0  0  0  0  0  0  0  0  0  0  0  0
   56.2841   29.6504   42.3742 H   0  0  0  0  0  0  0  0  0  0  0  0
   57.2397   28.3079   43.0835 H   0  0  0  0  0  0  0  0  0  0  0  0
   57.6521   29.0788   47.1014 H   0  0  0  0  0  0  0  0  0  0  0  0
   59.4420   27.7118   48.1756 H   0  0  0  0  0  0  0  0  0  0  0  0
   59.7142   25.3076   47.5741 H   0  0  0  0  0  0  0  0  0  0  0  0
   57.6330   23.1190   47.8220 H   0  0  0  0  0  0  0  0  0  0  0  0
   56.4002   25.6240   44.8091 H   0  0  0  0  0  0  0  0  0  0  0  0
  1  2  1  0
  2  3  1  0
  3  4  1  0
  4  5  2  0
  4  6  1  0
  6  7  1  0
  7  8  2  0
  8  9  1  0
  9 10  2  0
 10 11  1  0
 10 12  1  0
 12 13  2  0
  2 14  1  0
 14 15  2  0
 15 16  1  0
 16 17  2  0
 17 18  1  0
 18 19  2  0
 19 20  1  0
 20 21  1  0
 21 22  1  0
 22 23  2  0
 22 24  1  0
 24 25  1  0
 25 26  2  0
 26 27  1  0
 27 28  2  0
 28 29  1  0
 29 30  1  0
 30 31  1  0
 30 32  2  0
 30 33  2  0
 29 34  2  0
 13  7  1  0
 19 14  1  0
 34 25  1  0
  1 35  1  0
  1 36  1  0
  1 37  1  0
  3 38  1  0
  3 39  1  0
  8 40  1  0
  9 41  1  0
 12 42  1  0
 13 43  1  0
 15 44  1  0
 16 45  1  0
 17 46  1  0
 18 47  1  0
 21 48  1  0
 21 49  1  0
 26 50  1  0
 27 51  1  0
 28 52  1  0
 31 53  1  0
 34 54  1  0
M  CHG  3   6  -1  24  -1  31  -1
M  END
>  <UniqueID>  (33) 
31

>  <SMILES>  (33) 
CN(CC(=O)[N-]c1ccc(Cl)cc1)c1ccccc1OCC(=O)[N-]c1cccc(S([NH-])(=O)=O)c1

>  <Energy>  (33) 
63.67070494589981

>  <Genealogy>  (33) 
CN(CC(=O)[N-]c1ccc(Cl)cc1)c1ccccc1OCC(=O)[N-]c1cccc(S([NH-])(=O)=O)c1 (protonated)
CN(CC(=O)[N-]c1ccc(Cl)cc1)c1ccccc1OCC(=O)[N-]c1cccc(S([NH-])(=O)=O)c1 (3D coordinates assigned)
CN(CC(=O)[N-]c1ccc(Cl)cc1)c1ccccc1OCC(=O)[N-]c1cccc(S([NH-])(=O)=O)c1 (optimized conformer: 63.67070494589981 kcal/mol)

>  <smiles>  (33) 
CN(CC(=O)Nc1ccc(Cl)cc1)c1ccccc1OCC(=O)Nc1cccc(S(N)(=O)=O)c1

>  <score_type>  (33) 
oracle

>  <origin>  (33) 
adg

>  <m_score__min__energy>  (33) 
-14.19

>  <m_primary>  (33) 
energy

$$$$
33:0
     RDKit          3D

 30 31  0  0  0  0  0  0  0  0999 V2000
   55.1470   26.7150   45.9880 N   0  0  0  0  0  0  0  0  0  0  0  0
   56.2480   25.3820   45.9970 S   0  0  0  0  0  0  0  0  0  0  0  0
   55.8860   24.4730   47.1370 O   0  0  0  0  0  0  0  0  0  0  0  0
   56.1230   24.6200   44.7090 O   0  0  0  0  0  0  0  0  0  0  0  0
   57.9060   25.9880   46.1590 C   0  0  0  0  0  0  0  0  0  0  0  0
   58.9970   25.0980   46.1940 C   0  0  0  0  0  0  0  0  0  0  0  0
   58.8150   23.7580   46.0900 F   0  0  0  0  0  0  0  0  0  0  0  0
   60.2980   25.5850   46.3360 C   0  0  0  0  0  0  0  0  0  0  0  0
   60.5260   26.9560   46.4400 C   0  0  0  0  0  0  0  0  0  0  0  0
   59.4560   27.8490   46.4000 C   0  0  0  0  0  0  0  0  0  0  0  0
   58.1370   27.3770   46.2570 C   0  0  0  0  0  0  0  0  0  0  0  0
   57.0230   28.2820   46.2070 N   0  0  0  0  0  0  0  0  0  0  0  0
   56.6500   29.3490   44.8930 S   0  0  0  0  0  0  0  0  0  0  0  0
   57.0910   28.7150   43.6040 O   0  0  0  0  0  0  0  0  0  0  0  0
   55.1650   29.5740   44.8480 O   0  0  0  0  0  0  0  0  0  0  0  0
   57.4520   30.8980   45.1340 C   0  0  0  0  0  0  0  0  0  0  0  0
   57.3930   31.8880   44.1430 C   0  0  0  0  0  0  0  0  0  0  0  0
   58.0400   33.1130   44.3350 C   0  0  0  0  0  0  0  0  0  0  0  0
   58.7470   33.3550   45.5190 C   0  0  0  0  0  0  0  0  0  0  0  0
   59.6320   35.0260   45.7790 Br  0  0  0  0  0  0  0  0  0  0  0  0
   58.8030   32.3700   46.5120 C   0  0  0  0  0  0  0  0  0  0  0  0
   58.1550   31.1460   46.3200 C   0  0  0  0  0  0  0  0  0  0  0  0
   55.5120   27.4070   45.2960 H   0  0  0  0  0  0  0  0  0  0  0  0
   61.1455   24.8844   46.3659 H   0  0  0  0  0  0  0  0  0  0  0  0
   61.5526   27.3344   46.5539 H   0  0  0  0  0  0  0  0  0  0  0  0
   59.6435   28.9299   46.4807 H   0  0  0  0  0  0  0  0  0  0  0  0
   56.8367   31.7009   43.2126 H   0  0  0  0  0  0  0  0  0  0  0  0
   57.9934   33.8872   43.5549 H   0  0  0  0  0  0  0  0  0  0  0  0
   59.3568   32.5589   47.4434 H   0  0  0  0  0  0  0  0  0  0  0  0
   58.1974   30.3748   47.1033 H   0  0  0  0  0  0  0  0  0  0  0  0
  1  2  1  0
  2  3  2  0
  2  4  2  0
  2  5  1  0
  5  6  2  0
  6  7  1  0
  6  8  1  0
  8  9  2  0
  9 10  1  0
 10 11  2  0
 11 12  1  0
 12 13  1  0
 13 14  2  0
 13 15  2  0
 13 16  1  0
 16 17  2  0
 17 18  1  0
 18 19  2  0
 19 20  1  0
 19 21  1  0
 21 22  2  0
 11  5  1  0
 22 16  1  0
  1 23  1  0
  8 24  1  0
  9 25  1  0
 10 26  1  0
 17 27  1  0
 18 28  1  0
 21 29  1  0
 22 30  1  0
M  CHG  2   1  -1  12  -1
M  END
>  <UniqueID>  (34) 
32

>  <SMILES>  (34) 
[NH-]S(=O)(=O)c1c(F)cccc1[N-]S(=O)(=O)c1ccc(Br)cc1

>  <Energy>  (34) 
35.269573090549315

>  <Genealogy>  (34) 
[NH-]S(=O)(=O)c1c(F)cccc1[N-]S(=O)(=O)c1ccc(Br)cc1 (protonated)
[NH-]S(=O)(=O)c1c(F)cccc1[N-]S(=O)(=O)c1ccc(Br)cc1 (3D coordinates assigned)
[NH-]S(=O)(=O)c1c(F)cccc1[N-]S(=O)(=O)c1ccc(Br)cc1 (optimized conformer: 35.269573090549315 kcal/mol)

>  <smiles>  (34) 
NS(=O)(=O)c1c(F)cccc1NS(=O)(=O)c1ccc(Br)cc1

>  <score_type>  (34) 
oracle

>  <origin>  (34) 
adg

>  <m_score__min__energy>  (34) 
-13.300000000000001

>  <m_primary>  (34) 
energy

$$$$
34:0
     RDKit          3D

 63 66  0  0  0  0  0  0  0  0999 V2000
   58.1510   27.5100   43.1130 C   0  0  0  0  0  0  0  0  0  0  0  0
   57.6630   28.2190   44.2910 N   0  0  0  0  0  0  0  0  0  0  0  0
   58.3800   28.1020   45.5250 C   0  0  0  0  0  0  0  0  0  0  0  0
   59.1220   29.1910   46.0010 C   0  0  0  0  0  0  0  0  0  0  0  0
   59.8380   29.0950   47.1980 C   0  0  0  0  0  0  0  0  0  0  0  0
   60.7150   30.4910   47.8070 S   0  0  0  0  0  0  0  0  0  0  0  0
   61.4700   30.1250   49.0530 O   0  0  0  0  0  0  0  0  0  0  0  0
   61.7050   30.9280   46.7630 O   0  0  0  0  0  0  0  0  0  0  0  0
   59.5640   31.7400   48.1750 N   0  0  0  0  0  0  0  0  0  0  0  0
   59.1280   32.1720   49.4710 C   0  0  0  0  0  0  0  0  0  0  0  0
   59.6540   33.3640   49.9830 C   0  0  0  0  0  0  0  0  0  0  0  0
   59.2640   33.8270   51.2430 C   0  0  0  0  0  0  0  0  0  0  0  0
   58.3440   33.1030   52.0020 C   0  0  0  0  0  0  0  0  0  0  0  0
   57.7880   31.9210   51.4920 C   0  0  0  0  0  0  0  0  0  0  0  0
   56.6210   30.9970   52.4320 S   0  0  0  0  0  0  0  0  0  0  0  0
   56.9640   31.1740   54.1170 N   0  0  0  0  0  0  0  0  0  0  0  0
   55.2270   31.4950   52.1690 O   0  0  0  0  0  0  0  0  0  0  0  0
   56.7050   29.5460   52.0470 O   0  0  0  0  0  0  0  0  0  0  0  0
   58.1650   31.4710   50.2190 C   0  0  0  0  0  0  0  0  0  0  0  0
   59.8090   27.9010   47.9280 C   0  0  0  0  0  0  0  0  0  0  0  0
   59.0790   26.8060   47.4560 C   0  0  0  0  0  0  0  0  0  0  0  0
   58.3690   26.8920   46.2450 C   0  0  0  0  0  0  0  0  0  0  0  0
   57.5760   25.7900   45.7770 N   0  0  0  0  0  0  0  0  0  0  0  0
   56.1440   25.7270   45.8950 C   0  0  0  0  0  0  0  0  0  0  0  0
   55.4990   26.7000   46.3670 O   0  0  0  0  0  0  0  0  0  0  0  0
   55.4220   24.5730   45.4500 N   0  0  0  0  0  0  0  0  0  0  0  0
   55.9860   23.4660   44.7330 C   0  0  0  0  0  0  0  0  0  0  0  0
   55.7860   23.3750   43.3490 C   0  0  0  0  0  0  0  0  0  0  0  0
   56.3140   22.2990   42.6300 C   0  0  0  0  0  0  0  0  0  0  0  0
   57.0290   21.2960   43.2910 C   0  0  0  0  0  0  0  0  0  0  0  0
   57.2080   21.3650   44.6760 C   0  0  0  0  0  0  0  0  0  0  0  0
   56.6800   22.4400   45.3980 C   0  0  0  0  0  0  0  0  0  0  0  0
   56.5120   29.5050   44.1120 S   0  0  0  0  0  0  0  0  0  0  0  0
   55.4510   29.3610   45.1670 O   0  0  0  0  0  0  0  0  0  0  0  0
   55.8530   29.4280   42.7630 O   0  0  0  0  0  0  0  0  0  0  0  0
   57.3250   31.0590   44.2680 C   0  0  0  0  0  0  0  0  0  0  0  0
   57.5190   31.6450   45.5290 C   0  0  0  0  0  0  0  0  0  0  0  0
   58.1800   32.8710   45.6390 C   0  0  0  0  0  0  0  0  0  0  0  0
   58.6630   33.5140   44.4940 C   0  0  0  0  0  0  0  0  0  0  0  0
   58.4800   32.9310   43.2360 C   0  0  0  0  0  0  0  0  0  0  0  0
   57.8090   31.7090   43.1220 C   0  0  0  0  0  0  0  0  0  0  0  0
   58.7484   26.6420   43.4288 H   0  0  0  0  0  0  0  0  0  0  0  0
   57.2964   27.1675   42.5110 H   0  0  0  0  0  0  0  0  0  0  0  0
   58.7761   28.1859   42.5110 H   0  0  0  0  0  0  0  0  0  0  0  0
   59.1414   30.1297   45.4279 H   0  0  0  0  0  0  0  0  0  0  0  0
   60.3792   33.9403   49.3897 H   0  0  0  0  0  0  0  0  0  0  0  0
   59.6835   34.7644   51.6371 H   0  0  0  0  0  0  0  0  0  0  0  0
   58.0545   33.4598   53.0015 H   0  0  0  0  0  0  0  0  0  0  0  0
   56.0920   30.9320   54.6390 H   0  0  0  0  0  0  0  0  0  0  0  0
   57.7044   30.5632   49.8021 H   0  0  0  0  0  0  0  0  0  0  0  0
   60.3621   27.8240   48.8757 H   0  0  0  0  0  0  0  0  0  0  0  0
   59.0598   25.8712   48.0355 H   0  0  0  0  0  0  0  0  0  0  0  0
   58.0820   24.9690   45.3750 H   0  0  0  0  0  0  0  0  0  0  0  0
   55.2111   24.1536   42.8263 H   0  0  0  0  0  0  0  0  0  0  0  0
   56.1666   22.2413   41.5415 H   0  0  0  0  0  0  0  0  0  0  0  0
   57.4501   20.4538   42.7224 H   0  0  0  0  0  0  0  0  0  0  0  0
   57.7647   20.5729   45.1982 H   0  0  0  0  0  0  0  0  0  0  0  0
   56.8081   22.4829   46.4897 H   0  0  0  0  0  0  0  0  0  0  0  0
   57.1497   31.1377   46.4325 H   0  0  0  0  0  0  0  0  0  0  0  0
   58.3210   33.3317   46.6279 H   0  0  0  0  0  0  0  0  0  0  0  0
   59.1863   34.4774   44.5832 H   0  0  0  0  0  0  0  0  0  0  0  0
   58.8639   33.4336   42.3360 H   0  0  0  0  0  0  0  0  0  0  0  0
   57.6601   31.2558   42.1308 H   0  0  0  0  0  0  0  0  0  0  0  0
  1  2  1  0
  2  3  1  0
  3  4  2  0
  4  5  1  0
  5  6  1  0
  6  7  2  0
  6  8  2  0
  6  9  1  0
  9 10  1  0
 10 11  2  0
 11 12  1  0
 12 13  2  0
 13 14  1  0
 14 15  1  0
 15 16  1  0
 15 17  2  0
 15 18  2  0
 14 19  2  0
  5 20  2  0
 20 21  1  0
 21 22  2  0
 22 23  1  0
 23 24  1  0
 24 25  2  0
 24 26  1  0
 26 27  1  0
 27 28  2  0
 28 29  1  0
 29 30  2  0
 30 31  1  0
 31 32  2  0
  2 33  1  0
 33 34  2  0
 33 35  2  0
 33 36  1  0
 36 37  2  0
 37 38  1  0
 38 39  2  0
 39 40  1  0
 40 41  2  0
 22  3  1  0
 32 27  1  0
 41 36  1  0
 19 10  1  0
  1 42  1  0
  1 43  1  0
  1 44  1  0
  4 45  1  0
 11 46  1  0
 12 47  1  0
 13 48  1  0
 16 49  1  0
 19 50  1  0
 20 51  1  0
 21 52  1  0
 23 53  1  0
 28 54  1  0
 29 55  1  0
 30 56  1  0
 31 57  1  0
 32 58  1  0
 37 59  1  0
 38 60  1  0
 39 61  1  0
 40 62  1  0
 41 63  1  0
M  CHG  3   9  -1  16  -1  26  -1
M  END
>  <UniqueID>  (35) 
33

>  <SMILES>  (35) 
CN(c1cc(S(=O)(=O)[N-]c2cccc(S([NH-])(=O)=O)c2)ccc1NC(=O)[N-]c1ccccc1)S(=O)(=O)c1ccccc1

>  <Energy>  (35) 
83.73194599165205

>  <Genealogy>  (35) 
CN(c1cc(S(=O)(=O)[N-]c2cccc(S([NH-])(=O)=O)c2)ccc1NC(=O)[N-]c1ccccc1)S(=O)(=O)c1ccccc1 (protonated)
CN(c1cc(S(=O)(=O)[N-]c2cccc(S([NH-])(=O)=O)c2)ccc1NC(=O)[N-]c1ccccc1)S(=O)(=O)c1ccccc1 (3D coordinates assigned)
CN(c1cc(S(=O)(=O)[N-]c2cccc(S([NH-])(=O)=O)c2)ccc1NC(=O)[N-]c1ccccc1)S(=O)(=O)c1ccccc1 (optimized conformer: 83.73194599165205 kcal/mol)

>  <smiles>  (35) 
CN(c1cc(S(=O)(=O)Nc2cccc(S(N)(=O)=O)c2)ccc1NC(=O)Nc1ccccc1)S(=O)(=O)c1ccccc1

>  <score_type>  (35) 
oracle

>  <origin>  (35) 
adg

>  <m_score__min__energy>  (35) 
-15.859999999999999

>  <m_primary>  (35) 
energy

$$$$
35:0
     RDKit          3D

 49 51  0  0  0  0  0  0  0  0999 V2000
   55.8640   23.6730   44.5440 C   0  0  0  0  0  0  0  0  0  0  0  0
   54.8420   24.3670   45.4360 C   0  0  0  0  0  0  0  0  0  0  0  0
   55.4340   24.7440   46.6780 O   0  0  0  0  0  0  0  0  0  0  0  0
   56.8170   24.7420   46.9080 C   0  0  0  0  0  0  0  0  0  0  0  0
   57.3450   23.8140   47.5800 O   0  0  0  0  0  0  0  0  0  0  0  0
   57.6540   25.8350   46.3660 C   0  0  0  0  0  0  0  0  0  0  0  0
   59.0270   25.9030   46.6680 C   0  0  0  0  0  0  0  0  0  0  0  0
   59.8140   26.9340   46.1480 C   0  0  0  0  0  0  0  0  0  0  0  0
   59.2410   27.9110   45.3310 C   0  0  0  0  0  0  0  0  0  0  0  0
   57.8760   27.8710   45.0350 C   0  0  0  0  0  0  0  0  0  0  0  0
   57.3210   28.8810   44.1830 N   0  0  0  0  0  0  0  0  0  0  0  0
   56.2800   29.7950   44.5510 C   0  0  0  0  0  0  0  0  0  0  0  0
   55.1480   29.3400   44.8560 O   0  0  0  0  0  0  0  0  0  0  0  0
   56.4750   31.2150   44.5190 N   0  0  0  0  0  0  0  0  0  0  0  0
   57.6120   31.9300   45.0970 C   0  0  0  0  0  0  0  0  0  0  0  0
   58.2700   31.0480   46.1690 C   0  0  0  0  0  0  0  0  0  0  0  0
   59.5230   31.7420   46.7320 C   0  0  0  0  0  0  0  0  0  0  0  0
   59.3020   33.1880   46.9100 N   0  0  0  0  0  0  0  0  0  0  0  0
   60.3980   34.1070   46.7440 C   0  0  0  0  0  0  0  0  0  0  0  0
   60.2510   35.1270   46.0180 O   0  0  0  0  0  0  0  0  0  0  0  0
   61.7040   33.8820   47.3870 C   0  0  0  0  0  0  0  0  0  0  0  0
   62.8580   33.4220   46.7800 C   0  0  0  0  0  0  0  0  0  0  0  0
   63.8030   33.3560   47.7800 C   0  0  0  0  0  0  0  0  0  0  0  0
   63.1700   33.7700   48.9330 C   0  0  0  0  0  0  0  0  0  0  0  0
   61.9210   34.0740   48.6680 O   0  0  0  0  0  0  0  0  0  0  0  0
   57.9260   33.6960   46.9520 C   0  0  0  0  0  0  0  0  0  0  0  0
   57.1620   33.2960   45.6780 C   0  0  0  0  0  0  0  0  0  0  0  0
   57.0870   26.8200   45.5390 C   0  0  0  0  0  0  0  0  0  0  0  0
   56.6122   23.1649   45.1702 H   0  0  0  0  0  0  0  0  0  0  0  0
   55.3542   22.9335   43.9089 H   0  0  0  0  0  0  0  0  0  0  0  0
   56.3634   24.4196   43.9089 H   0  0  0  0  0  0  0  0  0  0  0  0
   54.4685   25.2670   44.9255 H   0  0  0  0  0  0  0  0  0  0  0  0
   54.0137   23.6710   45.6346 H   0  0  0  0  0  0  0  0  0  0  0  0
   59.4829   25.1406   47.3167 H   0  0  0  0  0  0  0  0  0  0  0  0
   60.8878   26.9762   46.3828 H   0  0  0  0  0  0  0  0  0  0  0  0
   59.8672   28.7158   44.9186 H   0  0  0  0  0  0  0  0  0  0  0  0
   58.3531   32.1415   44.3122 H   0  0  0  0  0  0  0  0  0  0  0  0
   57.5538   30.8729   46.9853 H   0  0  0  0  0  0  0  0  0  0  0  0
   58.5635   30.0899   45.7152 H   0  0  0  0  0  0  0  0  0  0  0  0
   59.7725   31.2954   47.7058 H   0  0  0  0  0  0  0  0  0  0  0  0
   60.3469   31.6030   46.0165 H   0  0  0  0  0  0  0  0  0  0  0  0
   62.9932   33.1628   45.7196 H   0  0  0  0  0  0  0  0  0  0  0  0
   64.8510   33.0374   47.6792 H   0  0  0  0  0  0  0  0  0  0  0  0
   63.6407   33.8356   49.9250 H   0  0  0  0  0  0  0  0  0  0  0  0
   57.4120   33.2754   47.8289 H   0  0  0  0  0  0  0  0  0  0  0  0
   57.9551   34.7936   47.0182 H   0  0  0  0  0  0  0  0  0  0  0  0
   56.0900   33.2376   45.9174 H   0  0  0  0  0  0  0  0  0  0  0  0
   57.3752   34.0605   44.9163 H   0  0  0  0  0  0  0  0  0  0  0  0
   56.0183   26.7691   45.2837 H   0  0  0  0  0  0  0  0  0  0  0  0
  1  2  1  0
  2  3  1  0
  3  4  1  0
  4  5  2  0
  4  6  1  0
  6  7  2  0
  7  8  1  0
  8  9  2  0
  9 10  1  0
 10 11  1  0
 11 12  1  0
 12 13  2  0
 12 14  1  0
 14 15  1  0
 15 16  1  0
 16 17  1  0
 17 18  1  0
 18 19  1  0
 19 20  2  0
 19 21  1  0
 21 22  2  0
 22 23  1  0
 23 24  2  0
 24 25  1  0
 18 26  1  0
 26 27  1  0
 10 28  2  0
 28  6  1  0
 27 15  1  0
 25 21  1  0
  1 29  1  0
  1 30  1  0
  1 31  1  0
  2 32  1  0
  2 33  1  0
  7 34  1  0
  8 35  1  0
  9 36  1  0
 15 37  1  0
 16 38  1  0
 16 39  1  0
 17 40  1  0
 17 41  1  0
 22 42  1  0
 23 43  1  0
 24 44  1  0
 26 45  1  0
 26 46  1  0
 27 47  1  0
 27 48  1  0
 28 49  1  0
M  CHG  2  11  -1  14  -1
M  END
>  <UniqueID>  (36) 
34

>  <SMILES>  (36) 
CCOC(=O)c1cccc([N-]C(=O)[N-]C2CCN(C(=O)c3ccco3)CC2)c1

>  <Energy>  (36) 
82.08735154962002

>  <Genealogy>  (36) 
CCOC(=O)c1cccc([N-]C(=O)[N-]C2CCN(C(=O)c3ccco3)CC2)c1 (protonated)
CCOC(=O)c1cccc([N-]C(=O)[N-]C2CCN(C(=O)c3ccco3)CC2)c1 (3D coordinates assigned)
CCOC(=O)c1cccc([N-]C(=O)[N-]C2CCN(C(=O)c3ccco3)CC2)c1 (nonaromatic ring conformer: 82.08735154962002 kcal/mol)

>  <smiles>  (36) 
CCOC(=O)c1cccc(NC(=O)NC2CCN(C(=O)c3ccco3)CC2)c1

>  <score_type>  (36) 
oracle

>  <origin>  (36) 
adg

>  <m_score__min__energy>  (36) 
-11.51

>  <m_primary>  (36) 
energy

$$$$
36:0
     RDKit          3D

 37 39  0  0  0  0  0  0  0  0999 V2000
   62.1642   31.9553   48.9078 H   0  0  0  0  0  0  0  0  0  0  0  0
   61.4070   31.2850   48.4750 C   0  0  0  0  0  0  0  0  0  0  0  0
   60.3370   30.8420   49.2570 C   0  0  0  0  0  0  0  0  0  0  0  0
   60.2557   31.1584   50.3074 H   0  0  0  0  0  0  0  0  0  0  0  0
   59.3700   29.9970   48.7050 C   0  0  0  0  0  0  0  0  0  0  0  0
   58.5361   29.6401   49.3273 H   0  0  0  0  0  0  0  0  0  0  0  0
   59.4570   29.6010   47.3600 C   0  0  0  0  0  0  0  0  0  0  0  0
   58.4650   28.7360   46.7820 N   0  0  0  0  0  0  0  0  0  0  0  0
   58.1580   27.5500   47.2850 N   0  0  0  0  0  0  0  0  0  0  0  0
   57.2230   26.9960   46.4880 C   0  0  0  0  0  0  0  0  0  0  0  0
   56.6320   25.6680   46.7150 C   0  0  0  0  0  0  0  0  0  0  0  0
   55.5200   25.3780   46.1970 O   0  0  0  0  0  0  0  0  0  0  0  0
   57.3050   24.7000   47.5210 N   0  0  0  0  0  0  0  0  0  0  0  0
   56.8780   23.7600   47.6770 H   0  0  0  0  0  0  0  0  0  0  0  0
   58.2250   24.9130   47.9640 H   0  0  0  0  0  0  0  0  0  0  0  0
   56.9290   27.8440   45.4330 C   0  0  0  0  0  0  0  0  0  0  0  0
   56.2146   27.6842   44.6120 H   0  0  0  0  0  0  0  0  0  0  0  0
   57.7470   28.9420   45.6550 C   0  0  0  0  0  0  0  0  0  0  0  0
   57.9060   29.9830   44.8830 N   0  0  0  0  0  0  0  0  0  0  0  0
   56.9840   31.0590   44.6360 C   0  0  0  0  0  0  0  0  0  0  0  0
   55.7550   30.8410   44.4770 O   0  0  0  0  0  0  0  0  0  0  0  0
   57.4640   32.4020   44.5230 N   0  0  0  0  0  0  0  0  0  0  0  0
   58.2050   33.1010   45.5320 C   0  0  0  0  0  0  0  0  0  0  0  0
   57.9250   32.9200   46.8970 C   0  0  0  0  0  0  0  0  0  0  0  0
   57.1279   32.2276   47.2057 H   0  0  0  0  0  0  0  0  0  0  0  0
   58.6560   33.6170   47.8650 C   0  0  0  0  0  0  0  0  0  0  0  0
   58.4449   33.4594   48.9330 H   0  0  0  0  0  0  0  0  0  0  0  0
   59.6540   34.5130   47.4750 C   0  0  0  0  0  0  0  0  0  0  0  0
   60.2353   35.0533   48.2367 H   0  0  0  0  0  0  0  0  0  0  0  0
   59.9150   34.7240   46.1180 C   0  0  0  0  0  0  0  0  0  0  0  0
   60.6934   35.4386   45.8124 H   0  0  0  0  0  0  0  0  0  0  0  0
   59.1860   34.0260   45.1480 C   0  0  0  0  0  0  0  0  0  0  0  0
   59.4480   34.2380   43.8330 F   0  0  0  0  0  0  0  0  0  0  0  0
   60.5480   30.0330   46.5870 C   0  0  0  0  0  0  0  0  0  0  0  0
   60.6415   29.7064   45.5408 H   0  0  0  0  0  0  0  0  0  0  0  0
   61.5150   30.8760   47.1420 C   0  0  0  0  0  0  0  0  0  0  0  0
   62.3621   31.2182   46.5294 H   0  0  0  0  0  0  0  0  0  0  0  0
  1  2  1  0
  2  3  2  0
  3  4  1  0
  3  5  1  0
  5  6  1  0
  5  7  2  0
  7  8  1  0
  8  9  1  0
  9 10  1  0
 10 11  1  0
 11 12  2  0
 11 13  1  0
 13 14  1  0
 13 15  1  0
 10 16  2  0
 16 17  1  0
 16 18  1  0
 18 19  2  0
 19 20  1  0
 20 21  2  0
 20 22  1  0
 22 23  1  0
 23 24  2  0
 24 25  1  0
 24 26  1  0
 26 27  1  0
 26 28  2  0
 28 29  1  0
 28 30  1  0
 30 31  1  0
 30 32  2  0
 32 33  1  0
  7 34  1  0
 34 35  1  0
 34 36  2  0
 36 37  1  0
 36  2  1  0
 18  8  1  0
 32 23  1  0
M  CHG  2   9  -1  22  -1
M  END
>  <UniqueID>  (37) 
35

>  <SMILES>  (37) 
NC(=O)c1c/c(=N\C(=O)[N-]c2ccccc2F)n(-c2ccccc2)[n-]1

>  <Energy>  (37) 
80.33011593924935

>  <Genealogy>  (37) 
NC(=O)c1cc(=NC(=O)[N-]c2ccccc2F)n(-c2ccccc2)[n-]1 (protonated)
NC(=O)c1c/c(=N\C(=O)[N-]c2ccccc2F)n(-c2ccccc2)[n-]1 (cis-trans isomerization)
NC(=O)c1c/c(=N\C(=O)[N-]c2ccccc2F)n(-c2ccccc2)[n-]1 (3D coordinates assigned)
NC(=O)c1c/c(=N\C(=O)[N-]c2ccccc2F)n(-c2ccccc2)[n-]1 (optimized conformer: 80.33011593924935 kcal/mol)

>  <smiles>  (37) 
NC(=O)c1cc(=NC(=O)Nc2ccccc2F)n(-c2ccccc2)[nH]1

>  <score_type>  (37) 
oracle

>  <origin>  (37) 
adg

>  <m_score__min__energy>  (37) 
-10.119999999999999

>  <m_primary>  (37) 
energy

$$$$
37:0
     RDKit          3D

 29 30  0  0  0  0  0  0  0  0999 V2000
   63.8230   33.1140   47.4040 C   0  0  0  0  0  0  0  0  0  0  0  0
   62.8670   33.7280   46.3880 C   0  0  0  0  0  0  0  0  0  0  0  0
   61.4830   33.8530   46.9650 C   0  0  0  0  0  0  0  0  0  0  0  0
   61.3070   34.0990   48.3350 C   0  0  0  0  0  0  0  0  0  0  0  0
   60.0250   34.2640   48.8620 C   0  0  0  0  0  0  0  0  0  0  0  0
   58.9070   34.1850   48.0270 C   0  0  0  0  0  0  0  0  0  0  0  0
   59.0620   33.9290   46.6570 C   0  0  0  0  0  0  0  0  0  0  0  0
   57.8990   33.8840   45.8120 N   0  0  0  0  0  0  0  0  0  0  0  0
   57.6330   32.8340   44.8670 C   0  0  0  0  0  0  0  0  0  0  0  0
   58.0670   32.9590   43.5430 C   0  0  0  0  0  0  0  0  0  0  0  0
   57.7700   31.9360   42.6420 C   0  0  0  0  0  0  0  0  0  0  0  0
   58.1570   32.0200   41.4450 O   0  0  0  0  0  0  0  0  0  0  0  0
   57.0630   30.8480   43.0550 N   0  0  0  0  0  0  0  0  0  0  0  0
   56.6360   30.7480   44.3430 C   0  0  0  0  0  0  0  0  0  0  0  0
   55.9770   29.7420   44.7150 O   0  0  0  0  0  0  0  0  0  0  0  0
   56.9170   31.7360   45.2320 N   0  0  0  0  0  0  0  0  0  0  0  0
   60.3570   33.7890   46.1260 C   0  0  0  0  0  0  0  0  0  0  0  0
   63.4713   33.3399   48.4215 H   0  0  0  0  0  0  0  0  0  0  0  0
   63.8585   32.0238   47.2619 H   0  0  0  0  0  0  0  0  0  0  0  0
   64.8292   33.5352   47.2619 H   0  0  0  0  0  0  0  0  0  0  0  0
   63.2322   34.7268   46.1068 H   0  0  0  0  0  0  0  0  0  0  0  0
   62.8232   33.0739   45.5047 H   0  0  0  0  0  0  0  0  0  0  0  0
   62.1833   34.1621   48.9969 H   0  0  0  0  0  0  0  0  0  0  0  0
   59.8943   34.4567   49.9371 H   0  0  0  0  0  0  0  0  0  0  0  0
   57.8999   34.3244   48.4468 H   0  0  0  0  0  0  0  0  0  0  0  0
   57.1650   34.6140   45.9530 H   0  0  0  0  0  0  0  0  0  0  0  0
   58.6311   33.8460   43.2188 H   0  0  0  0  0  0  0  0  0  0  0  0
   56.8420   30.0850   42.3750 H   0  0  0  0  0  0  0  0  0  0  0  0
   60.4896   33.6282   45.0459 H   0  0  0  0  0  0  0  0  0  0  0  0
  1  2  1  0
  2  3  1  0
  3  4  2  0
  4  5  1  0
  5  6  2  0
  6  7  1  0
  7  8  1  0
  8  9  1  0
  9 10  2  0
 10 11  1  0
 11 12  2  0
 11 13  1  0
 13 14  1  0
 14 15  2  0
 14 16  1  0
  7 17  2  0
 17  3  1  0
 16  9  1  0
  1 18  1  0
  1 19  1  0
  1 20  1  0
  2 21  1  0
  2 22  1  0
  4 23  1  0
  5 24  1  0
  6 25  1  0
  8 26  1  0
 10 27  1  0
 13 28  1  0
 17 29  1  0
M  CHG  1  16  -1
M  END
>  <UniqueID>  (38) 
36

>  <SMILES>  (38) 
CCc1cccc(Nc2cc(=O)[nH]c(=O)[n-]2)c1

>  <Energy>  (38) 
30.69247149167203

>  <Genealogy>  (38) 
CCc1cccc(Nc2cc(=O)[nH]c(=O)[n-]2)c1 (protonated)
CCc1cccc(Nc2cc(=O)[nH]c(=O)[n-]2)c1 (3D coordinates assigned)
CCc1cccc(Nc2cc(=O)[nH]c(=O)[n-]2)c1 (optimized conformer: 30.69247149167203 kcal/mol)

>  <smiles>  (38) 
CCc1cccc(Nc2cc(=O)[nH]c(=O)[nH]2)c1

>  <score_type>  (38) 
oracle

>  <origin>  (38) 
adg

>  <m_score__min__energy>  (38) 
-8.7599999999999998

>  <m_primary>  (38) 
energy

$$$$
38:0
     RDKit          3D

 51 53  0  0  1  0  0  0  0  0999 V2000
   54.9970   24.0370   45.3070 C   0  0  0  0  0  0  0  0  0  0  0  0
   55.6420   25.3310   45.6280 C   0  0  0  0  0  0  0  0  0  0  0  0
   54.9850   26.3470   46.0130 O   0  0  0  0  0  0  0  0  0  0  0  0
   57.0520   25.5040   45.5200 N   0  0  0  0  0  0  0  0  0  0  0  0
   57.6380   26.7690   45.8390 C   0  0  0  0  0  0  0  0  0  0  0  0
   58.4450   26.8460   46.9560 C   0  0  0  0  0  0  0  0  0  0  0  0
   59.0200   28.0560   47.2810 C   0  0  0  0  0  0  0  0  0  0  0  0
   58.7820   29.1740   46.4890 C   0  0  0  0  0  0  0  0  0  0  0  0
   57.9780   29.1270   45.3650 C   0  0  0  0  0  0  0  0  0  0  0  0
   57.7260   30.3330   44.5140 C   0  0  0  0  0  0  0  0  0  0  0  0
   57.4410   31.4130   45.4060 N   0  0  0  0  0  0  0  0  0  0  0  0
   58.3390   32.2610   45.7270 C   0  0  0  0  0  0  0  0  0  0  0  0
   58.0810   33.5850   45.3890 C   0  0  0  0  0  0  0  0  0  0  0  0
   59.0250   34.5270   45.7180 C   0  0  0  0  0  0  0  0  0  0  0  0
   60.1420   34.1420   46.3430 N   0  0  0  0  0  0  0  0  0  0  0  0
   60.4210   32.8720   46.6840 C   0  0  0  0  0  0  0  0  0  0  0  0
   61.6470   32.5060   47.3420 N   0  0  0  0  0  0  0  0  0  0  0  0
   61.7010   31.5460   48.4190 C   0  0  0  0  0  0  0  0  0  0  0  0
   60.5320   31.7660   49.3130 C   0  0  0  0  0  0  0  0  0  0  0  0
   59.5570   30.7720   49.4670 C   0  0  0  0  0  0  0  0  0  0  0  0
   58.4610   30.9600   50.3010 C   0  0  0  0  0  0  0  0  0  0  0  0
   58.2860   32.1180   51.0030 C   0  0  0  0  0  0  0  0  0  0  0  0
   59.2270   33.1040   50.8670 C   0  0  0  0  0  0  0  0  0  0  0  0
   59.0600   34.2460   51.5560 F   0  0  0  0  0  0  0  0  0  0  0  0
   60.3240   32.9170   50.0340 C   0  0  0  0  0  0  0  0  0  0  0  0
   62.8660   33.1390   46.9040 C   0  0  0  0  0  0  0  0  0  0  0  0
   64.1390   32.5550   47.1020 N   0  0  0  0  0  0  0  0  0  0  0  0
   62.8520   34.2610   46.3150 O   0  0  0  0  0  0  0  0  0  0  0  0
   59.4920   31.9430   46.3600 N   0  0  0  0  0  0  0  0  0  0  0  0
   57.4190   27.8920   45.0700 C   0  0  0  0  0  0  0  0  0  0  0  0
   54.7370   23.5155   46.2400 H   0  0  0  0  0  0  0  0  0  0  0  0
   54.0836   24.2179   44.7213 H   0  0  0  0  0  0  0  0  0  0  0  0
   55.6913   23.4166   44.7213 H   0  0  0  0  0  0  0  0  0  0  0  0
   57.6520   24.6990   45.2050 H   0  0  0  0  0  0  0  0  0  0  0  0
   58.6264   25.9563   47.5769 H   0  0  0  0  0  0  0  0  0  0  0  0
   59.6671   28.1372   48.1668 H   0  0  0  0  0  0  0  0  0  0  0  0
   59.2501   30.1299   46.7666 H   0  0  0  0  0  0  0  0  0  0  0  0
   58.6165   30.5643   43.9110 H   0  0  0  0  0  0  0  0  0  0  0  0
   56.8890   30.1606   43.8214 H   0  0  0  0  0  0  0  0  0  0  0  0
   57.1509   33.8688   44.8748 H   0  0  0  0  0  0  0  0  0  0  0  0
   58.8635   35.5864   45.4699 H   0  0  0  0  0  0  0  0  0  0  0  0
   60.8180   34.9300   46.5730 H   0  0  0  0  0  0  0  0  0  0  0  0
   61.6660   30.5263   48.0080 H   0  0  0  0  0  0  0  0  0  0  0  0
   62.6353   31.6709   48.9860 H   0  0  0  0  0  0  0  0  0  0  0  0
   59.6607   29.8247   48.9175 H   0  0  0  0  0  0  0  0  0  0  0  0
   57.7164   30.1562   50.3978 H   0  0  0  0  0  0  0  0  0  0  0  0
   57.4139   32.2552   51.6592 H   0  0  0  0  0  0  0  0  0  0  0  0
   61.0608   33.7293   49.9479 H   0  0  0  0  0  0  0  0  0  0  0  0
   64.6270   32.7750   47.9940 H   0  0  0  0  0  0  0  0  0  0  0  0
   64.5070   31.9460   46.3480 H   0  0  0  0  0  0  0  0  0  0  0  0
   56.7729   27.8051   44.1840 H   0  0  0  0  0  0  0  0  0  0  0  0
  1  2  1  0
  2  3  2  0
  2  4  1  0
  4  5  1  0
  5  6  2  0
  6  7  1  0
  7  8  2  0
  8  9  1  0
  9 10  1  0
 10 11  1  0
 11 12  2  0
 12 13  1  0
 13 14  2  0
 14 15  1  0
 15 16  1  0
 16 17  1  0
 17 18  1  0
 18 19  1  0
 19 20  2  0
 20 21  1  0
 21 22  2  0
 22 23  1  0
 23 24  1  0
 23 25  2  0
 17 26  1  0
 26 27  1  0
 26 28  2  0
 16 29  2  0
  9 30  2  0
 30  5  1  0
 29 12  1  0
 25 19  1  0
  1 31  1  0
  1 32  1  0
  1 33  1  0
  4 34  1  0
  6 35  1  0
  7 36  1  0
  8 37  1  0
 10 38  1  0
 10 39  1  0
 13 40  1  0
 14 41  1  0
 15 42  1  0
 18 43  1  0
 18 44  1  0
 20 45  1  0
 21 46  1  0
 22 47  1  0
 25 48  1  0
 27 49  1  0
 27 50  1  0
 30 51  1  0
M  END
>  <smiles>  (39) 
CC(=O)Nc1cccc(CN=c2cc[nH]c(N(Cc3cccc(F)c3)C(N)=O)n2)c1

>  <score_type>  (39) 
oracle

>  <origin>  (39) 
adg

>  <m_score__min__energy>  (39) 
-9.1799999999999997

>  <m_primary>  (39) 
energy

$$$$
39:0
     RDKit          3D

 43 46  0  0  0  0  0  0  0  0999 V2000
   60.8990   28.6244   49.3021 H   0  0  0  0  0  0  0  0  0  0  0  0
   60.3490   29.3800   48.7220 C   0  0  0  0  0  0  0  0  0  0  0  0
   60.2050   29.1860   47.4420 N   0  0  0  0  0  0  0  0  0  0  0  0
   58.9730   29.2110   46.7130 C   0  0  0  0  0  0  0  0  0  0  0  0
   58.6340   30.3060   45.9590 N   0  0  0  0  0  0  0  0  0  0  0  0
   57.4830   30.2490   45.2490 C   0  0  0  0  0  0  0  0  0  0  0  0
   56.6810   29.1680   45.2390 C   0  0  0  0  0  0  0  0  0  0  0  0
   55.6630   29.3830   44.3830 N   0  0  0  0  0  0  0  0  0  0  0  0
   55.8760   30.6030   43.8820 N   0  0  0  0  0  0  0  0  0  0  0  0
   56.9810   31.1450   44.3910 N   0  0  0  0  0  0  0  0  0  0  0  0
   57.5480   32.4290   43.9870 C   0  0  0  0  0  0  0  0  0  0  0  0
   58.3172   32.2542   43.2203 H   0  0  0  0  0  0  0  0  0  0  0  0
   56.7346   33.0552   43.5917 H   0  0  0  0  0  0  0  0  0  0  0  0
   58.1750   33.1510   45.1540 C   0  0  0  0  0  0  0  0  0  0  0  0
   57.6210   33.0330   46.4450 C   0  0  0  0  0  0  0  0  0  0  0  0
   56.7724   32.3542   46.6154 H   0  0  0  0  0  0  0  0  0  0  0  0
   58.1430   33.7730   47.5100 C   0  0  0  0  0  0  0  0  0  0  0  0
   57.7199   33.6579   48.5188 H   0  0  0  0  0  0  0  0  0  0  0  0
   59.2010   34.6580   47.2940 C   0  0  0  0  0  0  0  0  0  0  0  0
   59.6088   35.2417   48.1324 H   0  0  0  0  0  0  0  0  0  0  0  0
   59.7420   34.8030   46.0150 C   0  0  0  0  0  0  0  0  0  0  0  0
   60.5702   35.5072   45.8469 H   0  0  0  0  0  0  0  0  0  0  0  0
   59.2340   34.0550   44.9450 C   0  0  0  0  0  0  0  0  0  0  0  0
   59.7640   34.2300   43.7100 F   0  0  0  0  0  0  0  0  0  0  0  0
   57.0220   28.0460   45.9740 C   0  0  0  0  0  0  0  0  0  0  0  0
   56.3100   27.0090   45.9600 O   0  0  0  0  0  0  0  0  0  0  0  0
   58.1780   28.0900   46.7000 N   0  0  0  0  0  0  0  0  0  0  0  0
   59.8150   30.5590   49.4410 C   0  0  0  0  0  0  0  0  0  0  0  0
   58.7350   30.3860   50.3280 C   0  0  0  0  0  0  0  0  0  0  0  0
   58.2423   29.4053   50.4019 H   0  0  0  0  0  0  0  0  0  0  0  0
   58.2840   31.4470   51.1140 C   0  0  0  0  0  0  0  0  0  0  0  0
   57.4300   31.3042   51.7925 H   0  0  0  0  0  0  0  0  0  0  0  0
   58.9150   32.6880   51.0400 C   0  0  0  0  0  0  0  0  0  0  0  0
   58.5722   33.5175   51.6760 H   0  0  0  0  0  0  0  0  0  0  0  0
   59.9810   32.8790   50.1600 C   0  0  0  0  0  0  0  0  0  0  0  0
   60.4674   33.8638   50.0993 H   0  0  0  0  0  0  0  0  0  0  0  0
   60.4390   31.8260   49.3510 C   0  0  0  0  0  0  0  0  0  0  0  0
   61.7750   32.1410   48.2300 S   0  0  0  0  0  0  0  0  0  0  0  0
   61.9240   33.6190   48.0020 O   0  0  0  0  0  0  0  0  0  0  0  0
   63.0580   31.6240   48.8180 O   0  0  0  0  0  0  0  0  0  0  0  0
   61.4830   31.3440   46.7240 N   0  0  0  0  0  0  0  0  0  0  0  0
   60.4510   31.2130   46.6350 H   0  0  0  0  0  0  0  0  0  0  0  0
   61.9070   30.3890   46.7950 H   0  0  0  0  0  0  0  0  0  0  0  0
  1  2  1  0
  2  3  2  0
  3  4  1  0
  4  5  2  0
  5  6  1  0
  6  7  2  0
  7  8  1  0
  8  9  2  0
  9 10  1  0
 10 11  1  0
 11 12  1  0
 11 13  1  0
 11 14  1  0
 14 15  2  0
 15 16  1  0
 15 17  1  0
 17 18  1  0
 17 19  2  0
 19 20  1  0
 19 21  1  0
 21 22  1  0
 21 23  2  0
 23 24  1  0
  7 25  1  0
 25 26  2  0
 25 27  1  0
  2 28  1  0
 28 29  2  0
 29 30  1  0
 29 31  1  0
 31 32  1  0
 31 33  2  0
 33 34  1  0
 33 35  1  0
 35 36  1  0
 35 37  2  0
 37 38  1  0
 38 39  2  0
 38 40  2  0
 38 41  1  0
 41 42  1  0
 41 43  1  0
 27  4  1  0
 37 28  1  0
 10  6  1  0
 23 14  1  0
M  CHG  1  27  -1
M  END
>  <UniqueID>  (40) 
37

>  <SMILES>  (40) 
NS(=O)(=O)c1ccccc1/C=N\c1nc2c(nnn2Cc2ccccc2F)c(=O)[n-]1

>  <Energy>  (40) 
103.68785710716246

>  <Genealogy>  (40) 
NS(=O)(=O)c1ccccc1C=Nc1nc2c(nnn2Cc2ccccc2F)c(=O)[n-]1 (protonated)
NS(=O)(=O)c1ccccc1/C=N\c1nc2c(nnn2Cc2ccccc2F)c(=O)[n-]1 (cis-trans isomerization)
NS(=O)(=O)c1ccccc1/C=N\c1nc2c(nnn2Cc2ccccc2F)c(=O)[n-]1 (3D coordinates assigned)
NS(=O)(=O)c1ccccc1/C=N\c1nc2c(nnn2Cc2ccccc2F)c(=O)[n-]1 (optimized conformer: 103.68785710716246 kcal/mol)

>  <smiles>  (40) 
NS(=O)(=O)c1ccccc1C=Nc1nc2c(nnn2Cc2ccccc2F)c(=O)[nH]1

>  <score_type>  (40) 
oracle

>  <origin>  (40) 
adg

>  <m_score__min__energy>  (40) 
-10.960000000000001

>  <m_primary>  (40) 
energy

$$$$
40:0
     RDKit          3D

 49 51  0  0  0  0  0  0  0  0999 V2000
   55.9200   28.4120   45.2460 N   0  0  0  0  0  0  0  0  0  0  0  0
   56.9900   29.3170   45.5180 C   0  0  0  0  0  0  0  0  0  0  0  0
   57.0080   30.4470   44.9600 O   0  0  0  0  0  0  0  0  0  0  0  0
   58.0770   28.9260   46.4760 C   0  0  1  0  0  0  0  0  0  0  0  0
   59.4150   28.7670   45.7380 C   0  0  0  0  0  0  0  0  0  0  0  0
   60.2340   29.8860   45.9500 O   0  0  0  0  0  0  0  0  0  0  0  0
   58.1940   29.9540   47.5040 N   0  0  0  0  0  0  0  0  0  0  0  0
   58.8890   29.8150   48.7530 C   0  0  0  0  0  0  0  0  0  0  0  0
   60.1370   29.6470   48.7320 O   0  0  0  0  0  0  0  0  0  0  0  0
   58.1840   29.9060   50.0830 C   0  0  0  0  0  0  0  0  0  0  0  0
   58.5240   31.1940   50.8050 C   0  0  0  0  0  0  0  0  0  0  0  0
   59.8420   31.6820   50.7550 C   0  0  0  0  0  0  0  0  0  0  0  0
   60.2040   32.8310   51.4590 C   0  0  0  0  0  0  0  0  0  0  0  0
   59.2550   33.5160   52.2170 C   0  0  0  0  0  0  0  0  0  0  0  0
   57.9370   33.0600   52.2610 C   0  0  0  0  0  0  0  0  0  0  0  0
   57.5540   31.9100   51.5490 C   0  0  0  0  0  0  0  0  0  0  0  0
   56.1780   31.4940   51.5680 N   0  0  0  0  0  0  0  0  0  0  0  0
   55.7160   30.3830   52.3570 C   0  0  0  0  0  0  0  0  0  0  0  0
   56.6090   29.3410   52.6700 C   0  0  0  0  0  0  0  0  0  0  0  0
   56.1750   28.2230   53.3850 C   0  0  0  0  0  0  0  0  0  0  0  0
   57.0690   27.2030   53.6860 O   0  0  0  0  0  0  0  0  0  0  0  0
   54.8460   28.1300   53.7970 C   0  0  0  0  0  0  0  0  0  0  0  0
   53.9480   29.1550   53.4990 C   0  0  0  0  0  0  0  0  0  0  0  0
   54.3630   30.2880   52.7740 C   0  0  0  0  0  0  0  0  0  0  0  0
   53.3750   31.4130   52.5800 C   0  0  0  0  0  0  0  0  0  0  0  0
   52.5230   31.1440   51.3760 C   0  0  0  0  0  0  0  0  0  0  0  0
   52.7350   29.8610   50.3000 S   0  0  0  0  0  0  0  0  0  0  0  0
   51.4740   30.3770   49.3140 C   0  0  0  0  0  0  0  0  0  0  0  0
   51.1120   29.7880   48.2630 O   0  0  0  0  0  0  0  0  0  0  0  0
   50.8820   31.5050   49.7670 N   0  0  0  0  0  0  0  0  0  0  0  0
   51.4690   31.9360   50.9150 C   0  0  0  0  0  0  0  0  0  0  0  0
   51.0360   33.0860   51.5710 O   0  0  0  0  0  0  0  0  0  0  0  0
   55.4870   27.8500   46.0120 H   0  0  0  0  0  0  0  0  0  0  0  0
   57.8231   27.9612   46.9393 H   0  0  0  0  0  0  0  0  0  0  0  0
   59.9282   27.8681   46.1103 H   0  0  0  0  0  0  0  0  0  0  0  0
   59.2156   28.6736   44.6603 H   0  0  0  0  0  0  0  0  0  0  0  0
   59.8490   30.3770   46.7230 H   0  0  0  0  0  0  0  0  0  0  0  0
   57.0976   29.8665   49.9151 H   0  0  0  0  0  0  0  0  0  0  0  0
   58.5148   29.0629   50.7073 H   0  0  0  0  0  0  0  0  0  0  0  0
   60.5958   31.1520   50.1543 H   0  0  0  0  0  0  0  0  0  0  0  0
   61.2403   33.1973   51.4159 H   0  0  0  0  0  0  0  0  0  0  0  0
   59.5452   34.4154   52.7800 H   0  0  0  0  0  0  0  0  0  0  0  0
   57.1911   33.6052   52.8581 H   0  0  0  0  0  0  0  0  0  0  0  0
   55.5200   31.9340   50.8880 H   0  0  0  0  0  0  0  0  0  0  0  0
   57.6588   29.4081   52.3483 H   0  0  0  0  0  0  0  0  0  0  0  0
   54.5053   27.2471   54.3578 H   0  0  0  0  0  0  0  0  0  0  0  0
   52.9033   29.0770   53.8345 H   0  0  0  0  0  0  0  0  0  0  0  0
   52.7335   31.4922   53.4701 H   0  0  0  0  0  0  0  0  0  0  0  0
   53.9239   32.3546   52.4313 H   0  0  0  0  0  0  0  0  0  0  0  0
  1  2  1  0
  2  3  2  0
  2  4  1  0
  4  5  1  0
  5  6  1  0
  4  7  1  0
  7  8  1  0
  8  9  2  0
  8 10  1  0
 10 11  1  0
 11 12  2  0
 12 13  1  0
 13 14  2  0
 14 15  1  0
 15 16  2  0
 16 17  1  0
 17 18  1  0
 18 19  2  0
 19 20  1  0
 20 21  1  0
 20 22  2  0
 22 23  1  0
 23 24  2  0
 24 25  1  0
 25 26  1  0
 26 27  1  0
 27 28  1  0
 28 29  2  0
 28 30  1  0
 30 31  1  0
 31 32  1  0
 16 11  1  0
 24 18  1  0
 31 26  2  0
  1 33  1  0
  4 34  1  1
  5 35  1  0
  5 36  1  0
  6 37  1  0
 10 38  1  0
 10 39  1  0
 12 40  1  0
 13 41  1  0
 14 42  1  0
 15 43  1  0
 17 44  1  0
 19 45  1  0
 22 46  1  0
 23 47  1  0
 25 48  1  0
 25 49  1  0
M  CHG  5   1  -1   7  -1  21  -1  30  -1  32  -1
M  END
>  <UniqueID>  (41) 
38

>  <SMILES>  (41) 
[NH-]C(=O)[C@@H](CO)[N-]C(=O)Cc1ccccc1Nc1cc([O-])ccc1Cc1sc(=O)[n-]c1[O-]

>  <Energy>  (41) 
84.5137236018288

>  <Genealogy>  (41) 
[NH-]C(=O)C(CO)[N-]C(=O)Cc1ccccc1Nc1cc([O-])ccc1Cc1sc(=O)[n-]c1[O-] (protonated)
[NH-]C(=O)[C@@H](CO)[N-]C(=O)Cc1ccccc1Nc1cc([O-])ccc1Cc1sc(=O)[n-]c1[O-] (chirality)
[NH-]C(=O)[C@@H](CO)[N-]C(=O)Cc1ccccc1Nc1cc([O-])ccc1Cc1sc(=O)[n-]c1[O-] (3D coordinates assigned)
[NH-]C(=O)[C@@H](CO)[N-]C(=O)Cc1ccccc1Nc1cc([O-])ccc1Cc1sc(=O)[n-]c1[O-] (optimized conformer: 84.5137236018288 kcal/mol)

>  <smiles>  (41) 
NC(=O)C(CO)NC(=O)Cc1ccccc1Nc1cc(O)ccc1Cc1sc(=O)[nH]c1O

>  <score_type>  (41) 
oracle

>  <origin>  (41) 
adg

>  <m_score__min__energy>  (41) 
-18.57

>  <m_primary>  (41) 
energy

$$$$
41:0
     RDKit          3D

 71 76  0  0  0  0  0  0  0  0999 V2000
   58.8446   22.0051   45.7918 H   0  0  0  0  0  0  0  0  0  0  0  0
   58.2270   22.5990   45.1020 C   0  0  0  0  0  0  0  0  0  0  0  0
   58.3540   23.9510   45.0700 N   0  0  0  0  0  0  0  0  0  0  0  0
   57.6040   24.7250   44.2350 C   0  0  0  0  0  0  0  0  0  0  0  0
   57.8020   26.2110   44.2250 C   0  0  0  0  0  0  0  0  0  0  0  0
   57.0870   26.6673   43.5246 H   0  0  0  0  0  0  0  0  0  0  0  0
   58.8326   26.4318   43.9100 H   0  0  0  0  0  0  0  0  0  0  0  0
   57.5810   26.7750   45.5920 C   0  0  0  0  0  0  0  0  0  0  0  0
   56.4090   27.0470   45.9700 O   0  0  0  0  0  0  0  0  0  0  0  0
   58.7060   26.9610   46.4630 N   0  0  0  0  0  0  0  0  0  0  0  0
   59.0960   28.0880   46.9820 C   0  0  0  0  0  0  0  0  0  0  0  0
   59.6790   29.0860   46.2830 N   0  0  0  0  0  0  0  0  0  0  0  0
   60.0380   30.1270   47.0870 C   0  0  0  0  0  0  0  0  0  0  0  0
   60.6770   31.3770   46.5390 C   0  0  0  0  0  0  0  0  0  0  0  0
   61.1928   31.1322   45.5988 H   0  0  0  0  0  0  0  0  0  0  0  0
   59.8866   32.1229   46.3689 H   0  0  0  0  0  0  0  0  0  0  0  0
   61.6690   31.9540   47.5030 C   0  0  0  0  0  0  0  0  0  0  0  0
   61.4830   33.1560   48.1120 N   0  0  0  0  0  0  0  0  0  0  0  0
   62.5600   33.2470   48.9030 C   0  0  0  0  0  0  0  0  0  0  0  0
   62.8890   34.2790   49.7810 C   0  0  0  0  0  0  0  0  0  0  0  0
   62.2444   35.1641   49.8868 H   0  0  0  0  0  0  0  0  0  0  0  0
   64.0750   34.1480   50.5270 C   0  0  0  0  0  0  0  0  0  0  0  0
   64.3693   34.9420   51.2291 H   0  0  0  0  0  0  0  0  0  0  0  0
   64.8920   33.0010   50.3800 C   0  0  0  0  0  0  0  0  0  0  0  0
   65.8175   32.9091   50.9674 H   0  0  0  0  0  0  0  0  0  0  0  0
   64.5250   31.9770   49.4850 C   0  0  0  0  0  0  0  0  0  0  0  0
   65.1487   31.0796   49.3597 H   0  0  0  0  0  0  0  0  0  0  0  0
   63.3440   32.1410   48.7640 C   0  0  0  0  0  0  0  0  0  0  0  0
   62.7990   31.2960   47.8780 N   0  0  0  0  0  0  0  0  0  0  0  0
   59.7010   29.9540   48.4330 C   0  0  0  0  0  0  0  0  0  0  0  0
   59.9910   30.8740   49.5480 C   0  0  0  0  0  0  0  0  0  0  0  0
   61.0050   30.5290   50.4560 C   0  0  0  0  0  0  0  0  0  0  0  0
   61.6209   29.6361   50.2730 H   0  0  0  0  0  0  0  0  0  0  0  0
   61.2370   31.3090   51.5870 C   0  0  0  0  0  0  0  0  0  0  0  0
   62.0419   31.0381   52.2861 H   0  0  0  0  0  0  0  0  0  0  0  0
   60.4490   32.4330   51.8330 C   0  0  0  0  0  0  0  0  0  0  0  0
   60.6205   33.0358   52.7370 H   0  0  0  0  0  0  0  0  0  0  0  0
   59.4440   32.7950   50.9360 C   0  0  0  0  0  0  0  0  0  0  0  0
   58.8193   33.6761   51.1446 H   0  0  0  0  0  0  0  0  0  0  0  0
   59.2210   32.0430   49.7650 C   0  0  0  0  0  0  0  0  0  0  0  0
   58.1350   32.4630   48.7920 C   0  0  0  0  0  0  0  0  0  0  0  0
   57.3629   33.0228   49.3402 H   0  0  0  0  0  0  0  0  0  0  0  0
   57.7154   31.5546   48.3351 H   0  0  0  0  0  0  0  0  0  0  0  0
   58.6620   33.3080   47.7220 N   0  0  0  0  0  0  0  0  0  0  0  0
   59.6770   33.5530   47.7280 H   0  0  0  0  0  0  0  0  0  0  0  0
   57.8540   33.7700   46.6340 C   0  0  0  0  0  0  0  0  0  0  0  0
   56.6130   33.5410   46.6200 O   0  0  0  0  0  0  0  0  0  0  0  0
   58.4620   34.4580   45.5770 O   0  0  0  0  0  0  0  0  0  0  0  0
   59.1210   33.8020   44.4950 C   0  0  0  0  0  0  0  0  0  0  0  0
   60.1051   33.4449   44.8328 H   0  0  0  0  0  0  0  0  0  0  0  0
   59.2420   34.5147   43.6659 H   0  0  0  0  0  0  0  0  0  0  0  0
   58.3050   32.6300   44.0170 C   0  0  0  0  0  0  0  0  0  0  0  0
   57.8820   32.5730   42.6810 C   0  0  0  0  0  0  0  0  0  0  0  0
   58.1429   33.3876   41.9893 H   0  0  0  0  0  0  0  0  0  0  0  0
   57.1310   31.4870   42.2240 C   0  0  0  0  0  0  0  0  0  0  0  0
   56.8047   31.4472   41.1743 H   0  0  0  0  0  0  0  0  0  0  0  0
   56.7940   30.4510   43.1000 C   0  0  0  0  0  0  0  0  0  0  0  0
   56.2008   29.5983   42.7380 H   0  0  0  0  0  0  0  0  0  0  0  0
   57.2090   30.4950   44.4370 C   0  0  0  0  0  0  0  0  0  0  0  0
   56.8550   29.4380   45.3330 N   0  0  0  0  0  0  0  0  0  0  0  0
   57.5940   28.8570   45.7890 H   0  0  0  0  0  0  0  0  0  0  0  0
   55.8550   29.2330   45.5520 H   0  0  0  0  0  0  0  0  0  0  0  0
   57.9650   31.5850   44.8930 C   0  0  0  0  0  0  0  0  0  0  0  0
   58.2936   31.6220   45.9421 H   0  0  0  0  0  0  0  0  0  0  0  0
   58.9730   28.4470   48.6160 S   0  0  0  0  0  0  0  0  0  0  0  0
   56.6790   24.1190   43.3710 C   0  0  0  0  0  0  0  0  0  0  0  0
   56.0732   24.7315   42.6870 H   0  0  0  0  0  0  0  0  0  0  0  0
   56.5360   22.7310   43.3890 C   0  0  0  0  0  0  0  0  0  0  0  0
   55.8129   22.2432   42.7188 H   0  0  0  0  0  0  0  0  0  0  0  0
   57.3120   21.9620   44.2590 C   0  0  0  0  0  0  0  0  0  0  0  0
   57.2043   20.8675   44.2806 H   0  0  0  0  0  0  0  0  0  0  0  0
  1  2  1  0
  2  3  2  0
  3  4  1  0
  4  5  1  0
  5  6  1  0
  5  7  1  0
  5  8  1  0
  8  9  2  0
  8 10  1  0
 10 11  2  0
 11 12  1  0
 12 13  1  0
 13 14  1  0
 14 15  1  0
 14 16  1  0
 14 17  1  0
 17 18  2  0
 18 19  1  0
 19 20  2  0
 20 21  1  0
 20 22  1  0
 22 23  1  0
 22 24  2  0
 24 25  1  0
 24 26  1  0
 26 27  1  0
 26 28  2  0
 28 29  1  0
 13 30  2  0
 30 31  1  0
 31 32  2  0
 32 33  1  0
 32 34  1  0
 34 35  1  0
 34 36  2  0
 36 37  1  0
 36 38  1  0
 38 39  1  0
 38 40  2  0
 40 41  1  0
 41 42  1  0
 41 43  1  0
 41 44  1  0
 44 45  1  0
 44 46  1  0
 46 47  2  0
 46 48  1  0
 48 49  1  0
 49 50  1  0
 49 51  1  0
 49 52  1  0
 52 53  2  0
 53 54  1  0
 53 55  1  0
 55 56  1  0
 55 57  2  0
 57 58  1  0
 57 59  1  0
 59 60  1  0
 60 61  1  0
 60 62  1  0
 59 63  2  0
 63 64  1  0
 30 65  1  0
  4 66  2  0
 66 67  1  0
 66 68  1  0
 68 69  1  0
 68 70  2  0
 70 71  1  0
 70  2  1  0
 65 11  1  0
 29 17  1  0
 40 31  1  0
 63 52  1  0
 28 19  1  0
M  CHG  2  12  -1  29  -1
M  END
>  <UniqueID>  (42) 
39

>  <SMILES>  (42) 
Nc1cccc(COC(=O)NCc2ccccc2-c2s/c(=N/C(=O)Cc3ccccn3)[n-]c2Cc2nc3ccccc3[n-]2)c1

>  <Energy>  (42) 
145.93657609979005

>  <Genealogy>  (42) 
Nc1cccc(COC(=O)NCc2ccccc2-c2sc(=NC(=O)Cc3ccccn3)[n-]c2Cc2nc3ccccc3[n-]2)c1 (protonated)
Nc1cccc(COC(=O)NCc2ccccc2-c2s/c(=N/C(=O)Cc3ccccn3)[n-]c2Cc2nc3ccccc3[n-]2)c1 (cis-trans isomerization)
Nc1cccc(COC(=O)NCc2ccccc2-c2s/c(=N/C(=O)Cc3ccccn3)[n-]c2Cc2nc3ccccc3[n-]2)c1 (3D coordinates assigned)
Nc1cccc(COC(=O)NCc2ccccc2-c2s/c(=N/C(=O)Cc3ccccn3)[n-]c2Cc2nc3ccccc3[n-]2)c1 (optimized conformer: 145.93657609979005 kcal/mol)

>  <smiles>  (42) 
Nc1cccc(COC(=O)NCc2ccccc2-c2sc(=NC(=O)Cc3ccccn3)[nH]c2Cc2nc3ccccc3[nH]2)c1

>  <score_type>  (42) 
oracle

>  <origin>  (42) 
adg

>  <m_score__min__energy>  (42) 
-12.52

>  <m_primary>  (42) 
energy

$$$$
42:0
     RDKit          3D

 52 54  0  0  0  0  0  0  0  0999 V2000
   57.8920   32.0260   42.5970 C   0  0  0  0  0  0  0  0  0  0  0  0
   58.3460   32.4780   43.8660 O   0  0  0  0  0  0  0  0  0  0  0  0
   57.5110   32.5530   44.9850 C   0  0  0  0  0  0  0  0  0  0  0  0
   56.2710   32.3460   44.8720 O   0  0  0  0  0  0  0  0  0  0  0  0
   58.1010   32.8250   46.3500 C   0  0  2  0  0  0  0  0  0  0  0  0
   59.2600   33.8070   46.3250 C   0  0  0  0  0  0  0  0  0  0  0  0
   59.4000   34.8600   45.2590 C   0  0  0  0  0  0  0  0  0  0  0  0
   60.0010   33.9360   47.3820 N   0  0  0  0  0  0  0  0  0  0  0  0
   59.8720   33.0910   48.5280 C   0  0  0  0  0  0  0  0  0  0  0  0
   60.2520   33.5710   49.7210 C   0  0  0  0  0  0  0  0  0  0  0  0
   60.0720   32.7800   51.0010 C   0  0  0  0  0  0  0  0  0  0  0  0
   61.2930   31.8610   51.2130 C   0  0  0  0  0  0  0  0  0  0  0  0
   59.9720   33.7550   52.1910 C   0  0  0  0  0  0  0  0  0  0  0  0
   58.7670   31.9500   50.9170 C   0  0  0  0  0  0  0  0  0  0  0  0
   58.7050   31.1550   49.6390 C   0  0  0  0  0  0  0  0  0  0  0  0
   58.1570   30.0630   49.6420 O   0  0  0  0  0  0  0  0  0  0  0  0
   59.3600   31.6700   48.3670 C   0  0  1  0  0  0  0  0  0  0  0  0
   58.4370   31.4980   47.1070 C   0  0  2  0  0  0  0  0  0  0  0  0
   58.9370   30.3690   46.1940 C   0  0  0  0  0  0  0  0  0  0  0  0
   60.3170   30.0840   46.1760 C   0  0  0  0  0  0  0  0  0  0  0  0
   60.8270   29.0610   45.3780 C   0  0  0  0  0  0  0  0  0  0  0  0
   59.9780   28.3370   44.5460 C   0  0  0  0  0  0  0  0  0  0  0  0
   58.6110   28.6140   44.5190 C   0  0  0  0  0  0  0  0  0  0  0  0
   57.8300   27.9670   43.5630 O   0  0  0  0  0  0  0  0  0  0  0  0
   58.0660   29.5710   45.4070 C   0  0  0  0  0  0  0  0  0  0  0  0
   56.6800   29.7460   45.5160 O   0  0  0  0  0  0  0  0  0  0  0  0
   55.8020   29.6960   44.3930 C   0  0  0  0  0  0  0  0  0  0  0  0
   57.1188   31.2562   42.7371 H   0  0  0  0  0  0  0  0  0  0  0  0
   57.4693   32.8725   42.0360 H   0  0  0  0  0  0  0  0  0  0  0  0
   58.7366   31.5995   42.0360 H   0  0  0  0  0  0  0  0  0  0  0  0
   57.3178   33.3343   46.9307 H   0  0  0  0  0  0  0  0  0  0  0  0
   59.5309   35.8448   45.7313 H   0  0  0  0  0  0  0  0  0  0  0  0
   60.2760   34.6341   44.6332 H   0  0  0  0  0  0  0  0  0  0  0  0
   58.4954   34.8708   44.6332 H   0  0  0  0  0  0  0  0  0  0  0  0
   60.7088   34.5704   49.7722 H   0  0  0  0  0  0  0  0  0  0  0  0
   61.4693   31.7283   52.2906 H   0  0  0  0  0  0  0  0  0  0  0  0
   61.1000   30.8821   50.7498 H   0  0  0  0  0  0  0  0  0  0  0  0
   62.1802   32.3173   50.7498 H   0  0  0  0  0  0  0  0  0  0  0  0
   60.0299   33.1905   53.1334 H   0  0  0  0  0  0  0  0  0  0  0  0
   60.8008   34.4767   52.1444 H   0  0  0  0  0  0  0  0  0  0  0  0
   59.0139   34.2934   52.1444 H   0  0  0  0  0  0  0  0  0  0  0  0
   58.7266   31.2584   51.7715 H   0  0  0  0  0  0  0  0  0  0  0  0
   57.9130   32.6431   50.9364 H   0  0  0  0  0  0  0  0  0  0  0  0
   60.2422   31.0387   48.1848 H   0  0  0  0  0  0  0  0  0  0  0  0
   57.4565   31.1854   47.4955 H   0  0  0  0  0  0  0  0  0  0  0  0
   61.0014   30.6771   46.8004 H   0  0  0  0  0  0  0  0  0  0  0  0
   61.9012   28.8258   45.4059 H   0  0  0  0  0  0  0  0  0  0  0  0
   60.3874   27.5416   43.9059 H   0  0  0  0  0  0  0  0  0  0  0  0
   56.8920   27.6430   43.7600 H   0  0  0  0  0  0  0  0  0  0  0  0
   54.7611   29.6367   44.7437 H   0  0  0  0  0  0  0  0  0  0  0  0
   55.9328   30.6030   43.7846 H   0  0  0  0  0  0  0  0  0  0  0  0
   56.0350   28.8097   43.7846 H   0  0  0  0  0  0  0  0  0  0  0  0
  1  2  1  0
  2  3  1  0
  3  4  2  0
  3  5  1  0
  5  6  1  0
  6  7  1  0
  6  8  2  0
  8  9  1  0
  9 10  2  0
 10 11  1  0
 11 12  1  0
 11 13  1  0
 11 14  1  0
 14 15  1  0
 15 16  2  0
 15 17  1  0
 17 18  1  0
 18 19  1  0
 19 20  2  0
 20 21  1  0
 21 22  2  0
 22 23  1  0
 23 24  1  0
 23 25  2  0
 25 26  1  0
 26 27  1  0
 18  5  1  0
 25 19  1  0
 17  9  1  0
  1 28  1  0
  1 29  1  0
  1 30  1  0
  5 31  1  1
  7 32  1  0
  7 33  1  0
  7 34  1  0
 10 35  1  0
 12 36  1  0
 12 37  1  0
 12 38  1  0
 13 39  1  0
 13 40  1  0
 13 41  1  0
 14 42  1  0
 14 43  1  0
 17 44  1  6
 18 45  1  1
 20 46  1  0
 21 47  1  0
 22 48  1  0
 24 49  1  0
 27 50  1  0
 27 51  1  0
 27 52  1  0
M  END
>  <UniqueID>  (43) 
40

>  <SMILES>  (43) 
COC(=O)[C@@H]1C(C)=NC2=CC(C)(C)CC(=O)[C@H]2C1c1cccc(O)c1OC

>  <Energy>  (43) 
69.96555125033589

>  <Genealogy>  (43) 
COC(=O)[C@@H]1C(C)=NC2=CC(C)(C)CC(=O)[C@H]2C1c1cccc(O)c1OC (chirality)
COC(=O)[C@@H]1C(C)=NC2=CC(C)(C)CC(=O)[C@H]2C1c1cccc(O)c1OC (3D coordinates assigned)
COC(=O)[C@@H]1C(C)=NC2=CC(C)(C)CC(=O)[C@H]2C1c1cccc(O)c1OC (nonaromatic ring conformer: 69.96555125033589 kcal/mol)

>  <smiles>  (43) 
COC(=O)C1C(C)=NC2=CC(C)(C)CC(=O)C2C1c1cccc(O)c1OC

>  <score_type>  (43) 
oracle

>  <origin>  (43) 
adg

>  <m_score__min__energy>  (43) 
-7.8399999999999999

>  <m_primary>  (43) 
energy

$$$$
43:0
     RDKit          3D

 60 61  0  0  0  0  0  0  0  0999 V2000
   63.2590   33.7970   49.1780 C   0  0  0  0  0  0  0  0  0  0  0  0
   63.2620   32.8040   48.2870 C   0  0  0  0  0  0  0  0  0  0  0  0
   63.3780   33.0810   46.8190 C   0  0  0  0  0  0  0  0  0  0  0  0
   62.2510   33.8340   46.3870 O   0  0  0  0  0  0  0  0  0  0  0  0
   60.9190   33.4980   46.6630 C   0  0  0  0  0  0  0  0  0  0  0  0
   60.0550   34.5200   47.0710 C   0  0  0  0  0  0  0  0  0  0  0  0
   58.7150   34.2450   47.3520 C   0  0  0  0  0  0  0  0  0  0  0  0
   58.2290   32.9420   47.2350 C   0  0  0  0  0  0  0  0  0  0  0  0
   59.0840   31.9020   46.8420 C   0  0  0  0  0  0  0  0  0  0  0  0
   58.5520   30.5310   46.7320 C   0  0  0  0  0  0  0  0  0  0  0  0
   57.7440   30.0600   45.6980 C   0  0  0  0  0  0  0  0  0  0  0  0
   57.0980   30.8670   44.6370 C   0  0  0  0  0  0  0  0  0  0  0  0
   55.8520   30.7780   44.4680 O   0  0  0  0  0  0  0  0  0  0  0  0
   57.8960   31.7540   43.7100 C   0  0  0  0  0  0  0  0  0  0  0  0
   57.4130   31.5790   42.2670 C   0  0  0  0  0  0  0  0  0  0  0  0
   57.7930   33.2190   44.1450 C   0  0  0  0  0  0  0  0  0  0  0  0
   57.6390   28.6930   45.9000 C   0  0  0  0  0  0  0  0  0  0  0  0
   56.9730   27.7780   45.0900 O   0  0  0  0  0  0  0  0  0  0  0  0
   58.3540   28.3950   47.0370 C   0  0  0  0  0  0  0  0  0  0  0  0
   58.5210   27.1210   47.5660 O   0  0  0  0  0  0  0  0  0  0  0  0
   58.8920   29.5130   47.5610 N   0  0  0  0  0  0  0  0  0  0  0  0
   59.7250   29.5880   48.7680 C   0  0  0  0  0  0  0  0  0  0  0  0
   58.9120   30.0380   49.9890 C   0  0  0  0  0  0  0  0  0  0  0  0
   58.7520   31.5190   50.0000 N   0  0  0  0  0  0  0  0  0  0  0  0
   60.0730   32.1750   50.1440 C   0  0  0  0  0  0  0  0  0  0  0  0
   59.9680   33.6580   50.5010 C   0  0  0  0  0  0  0  0  0  0  0  0
   57.7720   31.9780   51.0220 C   0  0  0  0  0  0  0  0  0  0  0  0
   57.0870   30.7840   51.6860 C   0  0  0  0  0  0  0  0  0  0  0  0
   60.4260   32.1800   46.5460 C   0  0  0  0  0  0  0  0  0  0  0  0
   63.1729   33.5725   50.2514 H   0  0  0  0  0  0  0  0  0  0  0  0
   63.3426   34.8402   48.8392 H   0  0  0  0  0  0  0  0  0  0  0  0
   63.1779   31.7642   48.6360 H   0  0  0  0  0  0  0  0  0  0  0  0
   64.2972   33.6534   46.6256 H   0  0  0  0  0  0  0  0  0  0  0  0
   63.4154   32.1293   46.2686 H   0  0  0  0  0  0  0  0  0  0  0  0
   60.4340   35.5478   47.1712 H   0  0  0  0  0  0  0  0  0  0  0  0
   58.0418   35.0563   47.6659 H   0  0  0  0  0  0  0  0  0  0  0  0
   57.1716   32.7299   47.4518 H   0  0  0  0  0  0  0  0  0  0  0  0
   58.9540   31.4576   43.7618 H   0  0  0  0  0  0  0  0  0  0  0  0
   56.3788   31.2043   42.2694 H   0  0  0  0  0  0  0  0  0  0  0  0
   57.4507   32.5479   41.7477 H   0  0  0  0  0  0  0  0  0  0  0  0
   58.0626   30.8591   41.7477 H   0  0  0  0  0  0  0  0  0  0  0  0
   57.7890   33.2759   45.2435 H   0  0  0  0  0  0  0  0  0  0  0  0
   58.6539   33.7796   43.7519 H   0  0  0  0  0  0  0  0  0  0  0  0
   56.8621   33.6536   43.7519 H   0  0  0  0  0  0  0  0  0  0  0  0
   56.6190   28.0470   44.1800 H   0  0  0  0  0  0  0  0  0  0  0  0
   60.1514   28.5942   48.9697 H   0  0  0  0  0  0  0  0  0  0  0  0
   60.5194   30.3283   48.5921 H   0  0  0  0  0  0  0  0  0  0  0  0
   57.9181   29.5679   49.9539 H   0  0  0  0  0  0  0  0  0  0  0  0
   59.4468   29.7339   50.9009 H   0  0  0  0  0  0  0  0  0  0  0  0
   60.6343   31.6620   50.9389 H   0  0  0  0  0  0  0  0  0  0  0  0
   60.5823   32.1060   49.1715 H   0  0  0  0  0  0  0  0  0  0  0  0
   59.9599   33.7721   51.5950 H   0  0  0  0  0  0  0  0  0  0  0  0
   60.8302   34.1979   50.0824 H   0  0  0  0  0  0  0  0  0  0  0  0
   59.0384   34.0710   50.0824 H   0  0  0  0  0  0  0  0  0  0  0  0
   58.2981   32.5653   51.7890 H   0  0  0  0  0  0  0  0  0  0  0  0
   57.0074   32.5952   50.5276 H   0  0  0  0  0  0  0  0  0  0  0  0
   57.1469   30.8884   52.7794 H   0  0  0  0  0  0  0  0  0  0  0  0
   56.0315   30.7491   51.3783 H   0  0  0  0  0  0  0  0  0  0  0  0
   57.5896   29.8552   51.3783 H   0  0  0  0  0  0  0  0  0  0  0  0
   61.0960   31.3699   46.2221 H   0  0  0  0  0  0  0  0  0  0  0  0
  1  2  2  0
  2  3  1  0
  3  4  1  0
  4  5  1  0
  5  6  2  0
  6  7  1  0
  7  8  2  0
  8  9  1  0
  9 10  1  0
 10 11  2  0
 11 12  1  0
 12 13  2  0
 12 14  1  0
 14 15  1  0
 14 16  1  0
 11 17  1  0
 17 18  1  0
 17 19  2  0
 19 20  1  0
 19 21  1  0
 21 22  1  0
 22 23  1  0
 23 24  1  0
 24 25  1  0
 25 26  1  0
 24 27  1  0
 27 28  1  0
  9 29  2  0
 29  5  1  0
 21 10  1  0
  1 30  1  0
  1 31  1  0
  2 32  1  0
  3 33  1  0
  3 34  1  0
  6 35  1  0
  7 36  1  0
  8 37  1  0
 14 38  1  0
 15 39  1  0
 15 40  1  0
 15 41  1  0
 16 42  1  0
 16 43  1  0
 16 44  1  0
 18 45  1  0
 22 46  1  0
 22 47  1  0
 23 48  1  0
 23 49  1  0
 25 50  1  0
 25 51  1  0
 26 52  1  0
 26 53  1  0
 26 54  1  0
 27 55  1  0
 27 56  1  0
 28 57  1  0
 28 58  1  0
 28 59  1  0
 29 60  1  0
M  CHG  1  20  -1
M  END
>  <UniqueID>  (44) 
41

>  <SMILES>  (44) 
C=CCOc1cccc(-c2c(C(=O)C(C)C)c(O)c([O-])n2CCN(CC)CC)c1

>  <Energy>  (44) 
87.47933963983205

>  <Genealogy>  (44) 
C=CCOc1cccc(-c2c(C(=O)C(C)C)c(O)c([O-])n2CCN(CC)CC)c1 (protonated)
C=CCOc1cccc(-c2c(C(=O)C(C)C)c(O)c([O-])n2CCN(CC)CC)c1 (3D coordinates assigned)
C=CCOc1cccc(-c2c(C(=O)C(C)C)c(O)c([O-])n2CCN(CC)CC)c1 (optimized conformer: 87.47933963983205 kcal/mol)

>  <smiles>  (44) 
C=CCOc1cccc(-c2c(C(=O)C(C)C)c(O)c(O)n2CCN(CC)CC)c1

>  <score_type>  (44) 
oracle

>  <origin>  (44) 
adg

>  <m_score__min__energy>  (44) 
-9.3300000000000001

>  <m_primary>  (44) 
energy

$$$$
44:0
     RDKit          3D

 46 48  0  0  0  0  0  0  0  0999 V2000
   63.3457   31.9451   47.6091 H   0  0  0  0  0  0  0  0  0  0  0  0
   62.3140   32.2880   47.4420 C   0  0  0  0  0  0  0  0  0  0  0  0
   62.0790   33.5080   46.8030 C   0  0  0  0  0  0  0  0  0  0  0  0
   62.9259   34.1248   46.4678 H   0  0  0  0  0  0  0  0  0  0  0  0
   60.7680   33.9460   46.5890 C   0  0  0  0  0  0  0  0  0  0  0  0
   60.5862   34.9084   46.0882 H   0  0  0  0  0  0  0  0  0  0  0  0
   59.6820   33.1600   47.0120 C   0  0  0  0  0  0  0  0  0  0  0  0
   58.2750   33.6560   46.8340 C   0  0  0  0  0  0  0  0  0  0  0  0
   58.1389   34.5728   47.4264 H   0  0  0  0  0  0  0  0  0  0  0  0
   57.5812   32.8725   47.1727 H   0  0  0  0  0  0  0  0  0  0  0  0
   57.9360   34.0140   45.1160 S   0  0  0  0  0  0  0  0  0  0  0  0
   56.5680   34.6220   44.9700 O   0  0  0  0  0  0  0  0  0  0  0  0
   58.9500   35.0080   44.6250 O   0  0  0  0  0  0  0  0  0  0  0  0
   58.0700   32.5710   44.1560 N   0  0  0  0  0  0  0  0  0  0  0  0
   57.7380   31.3740   44.5360 C   0  0  0  0  0  0  0  0  0  0  0  0
   56.4700   30.9190   44.4430 N   0  0  0  0  0  0  0  0  0  0  0  0
   56.3680   29.6360   44.8780 C   0  0  0  0  0  0  0  0  0  0  0  0
   55.1520   28.9640   44.8870 O   0  0  0  0  0  0  0  0  0  0  0  0
   57.5580   29.0560   45.3100 C   0  0  0  0  0  0  0  0  0  0  0  0
   57.7250   27.6860   45.8910 C   0  0  0  0  0  0  0  0  0  0  0  0
   58.1418   27.0143   45.1261 H   0  0  0  0  0  0  0  0  0  0  0  0
   56.7447   27.3123   46.2218 H   0  0  0  0  0  0  0  0  0  0  0  0
   58.6570   27.7370   47.0700 C   0  0  0  0  0  0  0  0  0  0  0  0
   58.5600   28.7790   48.0030 C   0  0  0  0  0  0  0  0  0  0  0  0
   57.8191   29.5784   47.8548 H   0  0  0  0  0  0  0  0  0  0  0  0
   59.3990   28.8080   49.1200 C   0  0  0  0  0  0  0  0  0  0  0  0
   59.3168   29.6358   49.8398 H   0  0  0  0  0  0  0  0  0  0  0  0
   60.3500   27.7890   49.3360 C   0  0  0  0  0  0  0  0  0  0  0  0
   61.2210   27.8180   50.4980 N   0  0  0  0  0  0  0  0  0  0  0  0
   61.5000   26.5900   51.2530 C   0  0  0  0  0  0  0  0  0  0  0  0
   61.4515   26.8034   52.3310 H   0  0  0  0  0  0  0  0  0  0  0  0
   60.7529   25.8243   50.9968 H   0  0  0  0  0  0  0  0  0  0  0  0
   62.5046   26.2223   50.9968 H   0  0  0  0  0  0  0  0  0  0  0  0
   61.8380   29.0770   50.9370 C   0  0  0  0  0  0  0  0  0  0  0  0
   61.8556   29.1129   52.0363 H   0  0  0  0  0  0  0  0  0  0  0  0
   62.8667   29.1351   50.5517 H   0  0  0  0  0  0  0  0  0  0  0  0
   61.2537   29.9256   50.5517 H   0  0  0  0  0  0  0  0  0  0  0  0
   60.4280   26.7390   48.3980 C   0  0  0  0  0  0  0  0  0  0  0  0
   61.1592   25.9309   48.5472 H   0  0  0  0  0  0  0  0  0  0  0  0
   59.5880   26.7120   47.2810 C   0  0  0  0  0  0  0  0  0  0  0  0
   59.6585   25.8811   46.5636 H   0  0  0  0  0  0  0  0  0  0  0  0
   58.7790   30.2040   45.1720 S   0  0  0  0  0  0  0  0  0  0  0  0
   59.9270   31.9360   47.6560 C   0  0  0  0  0  0  0  0  0  0  0  0
   59.0836   31.3159   47.9939 H   0  0  0  0  0  0  0  0  0  0  0  0
   61.2400   31.5030   47.8690 C   0  0  0  0  0  0  0  0  0  0  0  0
   61.4271   30.5434   48.3732 H   0  0  0  0  0  0  0  0  0  0  0  0
  1  2  1  0
  2  3  2  0
  3  4  1  0
  3  5  1  0
  5  6  1  0
  5  7  2  0
  7  8  1  0
  8  9  1  0
  8 10  1  0
  8 11  1  0
 11 12  2  0
 11 13  2  0
 11 14  1  0
 14 15  2  0
 15 16  1  0
 16 17  1  0
 17 18  1  0
 17 19  2  0
 19 20  1  0
 20 21  1  0
 20 22  1  0
 20 23  1  0
 23 24  2  0
 24 25  1  0
 24 26  1  0
 26 27  1  0
 26 28  2  0
 28 29  1  0
 29 30  1  0
 30 31  1  0
 30 32  1  0
 30 33  1  0
 29 34  1  0
 34 35  1  0
 34 36  1  0
 34 37  1  0
 28 38  1  0
 38 39  1  0
 38 40  2  0
 40 41  1  0
 19 42  1  0
  7 43  1  0
 43 44  1  0
 43 45  2  0
 45 46  1  0
 45  2  1  0
 42 15  1  0
 40 23  1  0
M  CHG  2  16  -1  18  -1
M  END
>  <UniqueID>  (45) 
42

>  <SMILES>  (45) 
CN(C)c1ccc(Cc2s/c(=N\S(=O)(=O)Cc3ccccc3)[n-]c2[O-])cc1

>  <Energy>  (45) 
75.11048457744953

>  <Genealogy>  (45) 
CN(C)c1ccc(Cc2sc(=NS(=O)(=O)Cc3ccccc3)[n-]c2[O-])cc1 (protonated)
CN(C)c1ccc(Cc2s/c(=N\S(=O)(=O)Cc3ccccc3)[n-]c2[O-])cc1 (cis-trans isomerization)
CN(C)c1ccc(Cc2s/c(=N\S(=O)(=O)Cc3ccccc3)[n-]c2[O-])cc1 (3D coordinates assigned)
CN(C)c1ccc(Cc2s/c(=N\S(=O)(=O)Cc3ccccc3)[n-]c2[O-])cc1 (optimized conformer: 75.11048457744953 kcal/mol)

>  <smiles>  (45) 
CN(C)c1ccc(Cc2sc(=NS(=O)(=O)Cc3ccccc3)[nH]c2O)cc1

>  <score_type>  (45) 
oracle

>  <origin>  (45) 
adg

>  <m_score__min__energy>  (45) 
-13.74

>  <m_primary>  (45) 
energy

$$$$
45:0
     RDKit          3D

 47 49  0  0  0  0  0  0  0  0999 V2000
   58.4410   34.6720   46.0250 O   0  0  0  0  0  0  0  0  0  0  0  0
   58.8490   33.5000   46.2400 C   0  0  0  0  0  0  0  0  0  0  0  0
   58.5230   32.4180   45.2430 C   0  0  0  0  0  0  0  0  0  0  0  0
   57.6200   31.3280   45.8410 C   0  0  0  0  0  0  0  0  0  0  0  0
   56.7630   30.7140   44.8270 N   0  0  0  0  0  0  0  0  0  0  0  0
   56.2770   29.3650   44.8410 C   0  0  0  0  0  0  0  0  0  0  0  0
   55.0890   29.1460   44.4860 O   0  0  0  0  0  0  0  0  0  0  0  0
   57.1180   28.2300   45.2700 C   0  0  0  0  0  0  0  0  0  0  0  0
   58.5110   28.2820   45.0980 C   0  0  0  0  0  0  0  0  0  0  0  0
   59.3110   27.2070   45.4940 C   0  0  0  0  0  0  0  0  0  0  0  0
   58.7270   26.0690   46.0570 C   0  0  0  0  0  0  0  0  0  0  0  0
   57.3410   26.0020   46.2170 C   0  0  0  0  0  0  0  0  0  0  0  0
   56.5340   27.0760   45.8240 C   0  0  0  0  0  0  0  0  0  0  0  0
   55.1560   26.9920   45.9980 O   0  0  0  0  0  0  0  0  0  0  0  0
   59.6810   33.2590   47.3810 N   0  0  0  0  0  0  0  0  0  0  0  0
   61.1020   33.0820   47.3520 C   0  0  0  0  0  0  0  0  0  0  0  0
   61.9300   34.0450   46.7550 C   0  0  0  0  0  0  0  0  0  0  0  0
   63.3170   33.8660   46.7370 C   0  0  0  0  0  0  0  0  0  0  0  0
   63.8820   32.7240   47.3070 C   0  0  0  0  0  0  0  0  0  0  0  0
   63.0640   31.7530   47.8890 C   0  0  0  0  0  0  0  0  0  0  0  0
   61.6700   31.9170   47.9030 C   0  0  0  0  0  0  0  0  0  0  0  0
   60.8380   30.9330   48.5330 N   0  0  0  0  0  0  0  0  0  0  0  0
   60.3010   29.8160   47.7480 C   0  0  0  0  0  0  0  0  0  0  0  0
   58.9090   29.3760   48.2640 C   0  0  0  0  0  0  0  0  0  0  0  0
   58.4980   30.0520   49.4400 O   0  0  0  0  0  0  0  0  0  0  0  0
   59.5310   30.0180   50.4020 C   0  0  0  0  0  0  0  0  0  0  0  0
   60.6410   30.9810   49.9860 C   0  0  0  0  0  0  0  0  0  0  0  0
   58.0079   32.8721   44.3837 H   0  0  0  0  0  0  0  0  0  0  0  0
   59.4680   31.9436   44.9396 H   0  0  0  0  0  0  0  0  0  0  0  0
   58.2529   30.5490   46.2910 H   0  0  0  0  0  0  0  0  0  0  0  0
   56.9726   31.7975   46.5962 H   0  0  0  0  0  0  0  0  0  0  0  0
   58.9743   29.1731   44.6495 H   0  0  0  0  0  0  0  0  0  0  0  0
   60.4020   27.2565   45.3624 H   0  0  0  0  0  0  0  0  0  0  0  0
   59.3587   25.2262   46.3741 H   0  0  0  0  0  0  0  0  0  0  0  0
   56.8823   25.1024   46.6532 H   0  0  0  0  0  0  0  0  0  0  0  0
   61.4869   34.9431   46.2999 H   0  0  0  0  0  0  0  0  0  0  0  0
   63.9632   34.6259   46.2732 H   0  0  0  0  0  0  0  0  0  0  0  0
   64.9736   32.5885   47.2978 H   0  0  0  0  0  0  0  0  0  0  0  0
   63.5142   30.8556   48.3385 H   0  0  0  0  0  0  0  0  0  0  0  0
   60.2100   30.1289   46.6974 H   0  0  0  0  0  0  0  0  0  0  0  0
   60.9898   28.9639   47.8451 H   0  0  0  0  0  0  0  0  0  0  0  0
   58.1683   29.5709   47.4744 H   0  0  0  0  0  0  0  0  0  0  0  0
   58.9822   28.3078   48.5160 H   0  0  0  0  0  0  0  0  0  0  0  0
   59.1310   30.3196   51.3813 H   0  0  0  0  0  0  0  0  0  0  0  0
   59.9358   28.9976   50.4717 H   0  0  0  0  0  0  0  0  0  0  0  0
   60.3637   32.0038   50.2811 H   0  0  0  0  0  0  0  0  0  0  0  0
   61.5763   30.6859   50.4841 H   0  0  0  0  0  0  0  0  0  0  0  0
  1  2  2  0
  2  3  1  0
  3  4  1  0
  4  5  1  0
  5  6  1  0
  6  7  2  0
  6  8  1  0
  8  9  2  0
  9 10  1  0
 10 11  2  0
 11 12  1  0
 12 13  2  0
 13 14  1  0
  2 15  1  0
 15 16  1  0
 16 17  2  0
 17 18  1  0
 18 19  2  0
 19 20  1  0
 20 21  2  0
 21 22  1  0
 22 23  1  0
 23 24  1  0
 24 25  1  0
 25 26  1  0
 26 27  1  0
 13  8  1  0
 21 16  1  0
 27 22  1  0
  3 28  1  0
  3 29  1  0
  4 30  1  0
  4 31  1  0
  9 32  1  0
 10 33  1  0
 11 34  1  0
 12 35  1  0
 17 36  1  0
 18 37  1  0
 19 38  1  0
 20 39  1  0
 23 40  1  0
 23 41  1  0
 24 42  1  0
 24 43  1  0
 26 44  1  0
 26 45  1  0
 27 46  1  0
 27 47  1  0
M  CHG  3   5  -1  14  -1  15  -1
M  END
>  <UniqueID>  (46) 
43

>  <SMILES>  (46) 
O=C(CC[N-]C(=O)c1ccccc1[O-])[N-]c1ccccc1N1CCOCC1

>  <Energy>  (46) 
66.3692191583264

>  <Genealogy>  (46) 
O=C(CC[N-]C(=O)c1ccccc1[O-])[N-]c1ccccc1N1CCOCC1 (protonated)
O=C(CC[N-]C(=O)c1ccccc1[O-])[N-]c1ccccc1N1CCOCC1 (3D coordinates assigned)
O=C(CC[N-]C(=O)c1ccccc1[O-])[N-]c1ccccc1N1CCOCC1 (nonaromatic ring conformer: 66.3692191583264 kcal/mol)

>  <smiles>  (46) 
O=C(CCNC(=O)c1ccccc1O)Nc1ccccc1N1CCOCC1

>  <score_type>  (46) 
oracle

>  <origin>  (46) 
adg

>  <m_score__min__energy>  (46) 
-14.66

>  <m_primary>  (46) 
energy

$$$$
46:0
     RDKit          3D

 47 49  0  0  0  0  0  0  0  0999 V2000
   55.0490   26.3450   46.0030 N   0  0  0  0  0  0  0  0  0  0  0  0
   56.7480   26.6290   45.8640 S   0  0  0  0  0  0  0  0  0  0  0  0
   57.3230   25.7350   44.8020 O   0  0  0  0  0  0  0  0  0  0  0  0
   57.4140   26.3120   47.1740 O   0  0  0  0  0  0  0  0  0  0  0  0
   57.0300   28.3140   45.4390 C   0  0  0  0  0  0  0  0  0  0  0  0
   58.2550   28.9260   45.7370 C   0  0  0  0  0  0  0  0  0  0  0  0
   58.4690   30.2680   45.4100 C   0  0  0  0  0  0  0  0  0  0  0  0
   57.4620   31.0120   44.7760 C   0  0  0  0  0  0  0  0  0  0  0  0
   57.6810   32.4660   44.4550 C   0  0  0  0  0  0  0  0  0  0  0  0
   57.7300   33.3010   45.7400 C   0  0  0  0  0  0  0  0  0  0  0  0
   58.8430   34.2530   45.7090 N   0  0  0  0  0  0  0  0  0  0  0  0
   59.8730   34.1060   47.1070 S   0  0  0  0  0  0  0  0  0  0  0  0
   61.2520   34.5790   46.7480 O   0  0  0  0  0  0  0  0  0  0  0  0
   59.3500   34.9590   48.2300 O   0  0  0  0  0  0  0  0  0  0  0  0
   59.9740   32.4220   47.6110 C   0  0  0  0  0  0  0  0  0  0  0  0
   60.9820   31.5840   47.1150 C   0  0  0  0  0  0  0  0  0  0  0  0
   61.0690   30.2590   47.5500 C   0  0  0  0  0  0  0  0  0  0  0  0
   60.1450   29.7620   48.4740 C   0  0  0  0  0  0  0  0  0  0  0  0
   59.1160   30.5870   48.9590 C   0  0  0  0  0  0  0  0  0  0  0  0
   58.1680   30.1180   49.9270 N   0  0  0  0  0  0  0  0  0  0  0  0
   57.6810   30.8550   51.0570 C   0  0  0  0  0  0  0  0  0  0  0  0
   56.6650   30.4290   51.6660 O   0  0  0  0  0  0  0  0  0  0  0  0
   58.3720   32.0590   51.5580 C   0  0  0  0  0  0  0  0  0  0  0  0
   57.7690   33.0910   52.2540 C   0  0  0  0  0  0  0  0  0  0  0  0
   58.7730   33.9880   52.5620 C   0  0  0  0  0  0  0  0  0  0  0  0
   59.9430   33.4610   52.0520 C   0  0  0  0  0  0  0  0  0  0  0  0
   59.6950   32.2860   51.4460 N   0  0  0  0  0  0  0  0  0  0  0  0
   59.0470   31.9200   48.5340 C   0  0  0  0  0  0  0  0  0  0  0  0
   56.2280   30.4030   44.4970 C   0  0  0  0  0  0  0  0  0  0  0  0
   56.0150   29.0600   44.8250 C   0  0  0  0  0  0  0  0  0  0  0  0
   54.6720   27.0670   46.6570 H   0  0  0  0  0  0  0  0  0  0  0  0
   59.0508   28.3483   46.2299 H   0  0  0  0  0  0  0  0  0  0  0  0
   59.4314   30.7433   45.6508 H   0  0  0  0  0  0  0  0  0  0  0  0
   58.6327   32.5776   43.9149 H   0  0  0  0  0  0  0  0  0  0  0  0
   56.8464   32.8214   43.8328 H   0  0  0  0  0  0  0  0  0  0  0  0
   56.7858   33.8556   45.8441 H   0  0  0  0  0  0  0  0  0  0  0  0
   57.8756   32.6214   46.5926 H   0  0  0  0  0  0  0  0  0  0  0  0
   61.7058   31.9700   46.3821 H   0  0  0  0  0  0  0  0  0  0  0  0
   61.8659   29.6058   47.1648 H   0  0  0  0  0  0  0  0  0  0  0  0
   60.2237   28.7217   48.8225 H   0  0  0  0  0  0  0  0  0  0  0  0
   56.7031   33.1796   52.5108 H   0  0  0  0  0  0  0  0  0  0  0  0
   58.6622   34.9370   53.1072 H   0  0  0  0  0  0  0  0  0  0  0  0
   60.9334   33.9332   52.1299 H   0  0  0  0  0  0  0  0  0  0  0  0
   60.4090   31.6650   51.0040 H   0  0  0  0  0  0  0  0  0  0  0  0
   58.2586   32.5781   48.9281 H   0  0  0  0  0  0  0  0  0  0  0  0
   55.4258   30.9842   44.0187 H   0  0  0  0  0  0  0  0  0  0  0  0
   55.0473   28.5878   44.6002 H   0  0  0  0  0  0  0  0  0  0  0  0
  1  2  1  0
  2  3  2  0
  2  4  2  0
  2  5  1  0
  5  6  2  0
  6  7  1  0
  7  8  2  0
  8  9  1  0
  9 10  1  0
 10 11  1  0
 11 12  1  0
 12 13  2  0
 12 14  2  0
 12 15  1  0
 15 16  2  0
 16 17  1  0
 17 18  2  0
 18 19  1  0
 19 20  1  0
 20 21  1  0
 21 22  2  0
 21 23  1  0
 23 24  2  0
 24 25  1  0
 25 26  2  0
 26 27  1  0
 19 28  2  0
  8 29  1  0
 29 30  2  0
 30  5  1  0
 28 15  1  0
 27 23  1  0
  1 31  1  0
  6 32  1  0
  7 33  1  0
  9 34  1  0
  9 35  1  0
 10 36  1  0
 10 37  1  0
 16 38  1  0
 17 39  1  0
 18 40  1  0
 24 41  1  0
 25 42  1  0
 26 43  1  0
 27 44  1  0
 28 45  1  0
 29 46  1  0
 30 47  1  0
M  CHG  3   1  -1  11  -1  20  -1
M  END
>  <UniqueID>  (47) 
44

>  <SMILES>  (47) 
[NH-]S(=O)(=O)c1ccc(CC[N-]S(=O)(=O)c2cccc([N-]C(=O)c3ccc[nH]3)c2)cc1

>  <Energy>  (47) 
76.24246067122517

>  <Genealogy>  (47) 
[NH-]S(=O)(=O)c1ccc(CC[N-]S(=O)(=O)c2cccc([N-]C(=O)c3ccc[nH]3)c2)cc1 (protonated)
[NH-]S(=O)(=O)c1ccc(CC[N-]S(=O)(=O)c2cccc([N-]C(=O)c3ccc[nH]3)c2)cc1 (3D coordinates assigned)
[NH-]S(=O)(=O)c1ccc(CC[N-]S(=O)(=O)c2cccc([N-]C(=O)c3ccc[nH]3)c2)cc1 (optimized conformer: 76.24246067122517 kcal/mol)

>  <smiles>  (47) 
NS(=O)(=O)c1ccc(CCNS(=O)(=O)c2cccc(NC(=O)c3ccc[nH]3)c2)cc1

>  <score_type>  (47) 
oracle

>  <origin>  (47) 
adg

>  <m_score__min__energy>  (47) 
-14.02

>  <m_primary>  (47) 
energy

$$$$
47:0
     RDKit          3D

 37 40  0  0  0  0  0  0  0  0999 V2000
   56.7950   34.6670   44.8990 O   0  0  0  0  0  0  0  0  0  0  0  0
   57.8230   33.9380   44.9010 C   0  0  0  0  0  0  0  0  0  0  0  0
   59.0850   34.5340   45.2340 N   0  0  0  0  0  0  0  0  0  0  0  0
   59.8360   34.3110   46.4360 C   0  0  0  0  0  0  0  0  0  0  0  0
   61.1550   33.8460   46.3340 C   0  0  0  0  0  0  0  0  0  0  0  0
   61.9100   33.6070   47.4870 C   0  0  0  0  0  0  0  0  0  0  0  0
   61.3460   33.8170   48.7480 C   0  0  0  0  0  0  0  0  0  0  0  0
   60.0250   34.2580   48.8590 C   0  0  0  0  0  0  0  0  0  0  0  0
   59.2680   34.4980   47.7090 C   0  0  0  0  0  0  0  0  0  0  0  0
   57.6880   32.4910   44.6140 C   0  0  0  0  0  0  0  0  0  0  0  0
   57.4970   32.0480   43.2780 C   0  0  0  0  0  0  0  0  0  0  0  0
   57.3670   30.6760   42.9870 C   0  0  0  0  0  0  0  0  0  0  0  0
   57.4230   29.7810   44.0500 C   0  0  0  0  0  0  0  0  0  0  0  0
   57.3200   28.4460   44.0060 N   0  0  0  0  0  0  0  0  0  0  0  0
   57.4360   28.0900   45.3150 C   0  0  0  0  0  0  0  0  0  0  0  0
   57.3820   26.6760   45.7690 C   0  0  0  0  0  0  0  0  0  0  0  0
   58.5790   25.9420   45.8880 C   0  0  0  0  0  0  0  0  0  0  0  0
   58.5590   24.6100   46.3130 C   0  0  0  0  0  0  0  0  0  0  0  0
   57.3470   23.9920   46.6250 C   0  0  0  0  0  0  0  0  0  0  0  0
   57.3310   22.6680   47.0470 O   0  0  0  0  0  0  0  0  0  0  0  0
   56.1520   24.7060   46.5120 C   0  0  0  0  0  0  0  0  0  0  0  0
   56.1610   26.0400   46.0890 C   0  0  0  0  0  0  0  0  0  0  0  0
   54.9480   26.7140   45.9910 O   0  0  0  0  0  0  0  0  0  0  0  0
   57.6030   29.1430   46.1600 N   0  0  0  0  0  0  0  0  0  0  0  0
   57.5910   30.1960   45.3320 C   0  0  0  0  0  0  0  0  0  0  0  0
   57.7210   31.5410   45.6640 C   0  0  0  0  0  0  0  0  0  0  0  0
   61.5979   33.6684   45.3429 H   0  0  0  0  0  0  0  0  0  0  0  0
   62.9481   33.2536   47.4010 H   0  0  0  0  0  0  0  0  0  0  0  0
   61.9426   33.6350   49.6541 H   0  0  0  0  0  0  0  0  0  0  0  0
   59.5803   34.4165   49.8525 H   0  0  0  0  0  0  0  0  0  0  0  0
   58.2246   34.8342   47.7998 H   0  0  0  0  0  0  0  0  0  0  0  0
   57.4501   32.7842   42.4620 H   0  0  0  0  0  0  0  0  0  0  0  0
   57.2260   30.3245   41.9543 H   0  0  0  0  0  0  0  0  0  0  0  0
   59.5385   26.4215   45.6442 H   0  0  0  0  0  0  0  0  0  0  0  0
   59.5004   24.0480   46.4016 H   0  0  0  0  0  0  0  0  0  0  0  0
   55.1977   24.2168   46.7570 H   0  0  0  0  0  0  0  0  0  0  0  0
   57.8456   31.8569   46.7103 H   0  0  0  0  0  0  0  0  0  0  0  0
  1  2  2  0
  2  3  1  0
  3  4  1  0
  4  5  2  0
  5  6  1  0
  6  7  2  0
  7  8  1  0
  8  9  2  0
  2 10  1  0
 10 11  2  0
 11 12  1  0
 12 13  2  0
 13 14  1  0
 14 15  1  0
 15 16  1  0
 16 17  2  0
 17 18  1  0
 18 19  2  0
 19 20  1  0
 19 21  1  0
 21 22  2  0
 22 23  1  0
 15 24  2  0
 24 25  1  0
 25 26  2  0
  9  4  1  0
 26 10  1  0
 25 13  1  0
 22 16  1  0
  5 27  1  0
  6 28  1  0
  7 29  1  0
  8 30  1  0
  9 31  1  0
 11 32  1  0
 12 33  1  0
 17 34  1  0
 18 35  1  0
 21 36  1  0
 26 37  1  0
M  CHG  4   3  -1  14  -1  20  -1  23  -1
M  END
>  <UniqueID>  (48) 
45

>  <SMILES>  (48) 
O=C([N-]c1ccccc1)c1ccc2[n-]c(-c3ccc([O-])cc3[O-])nc2c1

>  <Energy>  (48) 
86.04298070874353

>  <Genealogy>  (48) 
O=C([N-]c1ccccc1)c1ccc2[n-]c(-c3ccc([O-])cc3[O-])nc2c1 (protonated)
O=C([N-]c1ccccc1)c1ccc2[n-]c(-c3ccc([O-])cc3[O-])nc2c1 (3D coordinates assigned)
O=C([N-]c1ccccc1)c1ccc2[n-]c(-c3ccc([O-])cc3[O-])nc2c1 (optimized conformer: 86.04298070874353 kcal/mol)

>  <smiles>  (48) 
O=C(Nc1ccccc1)c1ccc2[nH]c(-c3ccc(O)cc3O)nc2c1

>  <score_type>  (48) 
oracle

>  <origin>  (48) 
adg

>  <m_score__min__energy>  (48) 
-16.57

>  <m_primary>  (48) 
energy

$$$$
48:0
     RDKit          3D

 51 54  0  0  0  0  0  0  0  0999 V2000
   57.9550   27.2518   43.2113 H   0  0  0  0  0  0  0  0  0  0  0  0
   58.1470   26.6200   44.0910 C   0  0  0  0  0  0  0  0  0  0  0  0
   58.2751   25.5341   43.9708 H   0  0  0  0  0  0  0  0  0  0  0  0
   58.2250   27.1740   45.3110 C   0  0  0  0  0  0  0  0  0  0  0  0
   58.4600   26.5390   46.5350 C   0  0  0  0  0  0  0  0  0  0  0  0
   58.5300   25.2370   46.8700 C   0  0  0  0  0  0  0  0  0  0  0  0
   59.1743   24.9666   47.7195 H   0  0  0  0  0  0  0  0  0  0  0  0
   57.8110   24.1440   46.1880 C   0  0  0  0  0  0  0  0  0  0  0  0
   58.5080   23.0940   45.5780 C   0  0  0  0  0  0  0  0  0  0  0  0
   59.8970   23.0370   45.6270 O   0  0  0  0  0  0  0  0  0  0  0  0
   57.8270   22.1210   44.9280 N   0  0  0  0  0  0  0  0  0  0  0  0
   56.4730   22.1430   44.8350 C   0  0  0  0  0  0  0  0  0  0  0  0
   55.8880   21.2170   44.2100 O   0  0  0  0  0  0  0  0  0  0  0  0
   55.7580   23.1680   45.3990 N   0  0  0  0  0  0  0  0  0  0  0  0
   54.3200   23.1910   45.2900 C   0  0  0  0  0  0  0  0  0  0  0  0
   53.5220   22.6760   46.3250 C   0  0  0  0  0  0  0  0  0  0  0  0
   53.9959   22.2527   47.2229 H   0  0  0  0  0  0  0  0  0  0  0  0
   52.1280   22.6990   46.2190 C   0  0  0  0  0  0  0  0  0  0  0  0
   51.5080   22.2958   47.0333 H   0  0  0  0  0  0  0  0  0  0  0  0
   51.5220   23.2340   45.0790 C   0  0  0  0  0  0  0  0  0  0  0  0
   50.1360   23.2570   44.9740 O   0  0  0  0  0  0  0  0  0  0  0  0
   52.3090   23.7490   44.0440 C   0  0  0  0  0  0  0  0  0  0  0  0
   51.8308   24.1702   43.1474 H   0  0  0  0  0  0  0  0  0  0  0  0
   53.7030   23.7290   44.1480 C   0  0  0  0  0  0  0  0  0  0  0  0
   54.3192   24.1360   43.3327 H   0  0  0  0  0  0  0  0  0  0  0  0
   56.4130   24.1720   46.0670 C   0  0  0  0  0  0  0  0  0  0  0  0
   55.7630   25.1170   46.5950 O   0  0  0  0  0  0  0  0  0  0  0  0
   58.5820   27.5760   47.4450 C   0  0  0  0  0  0  0  0  0  0  0  0
   58.8084   27.4558   48.5147 H   0  0  0  0  0  0  0  0  0  0  0  0
   58.3820   28.7520   46.8240 N   0  0  0  0  0  0  0  0  0  0  0  0
   58.1660   28.5090   45.5410 N   0  0  0  0  0  0  0  0  0  0  0  0
   57.8700   29.5730   44.5770 C   0  0  0  0  0  0  0  0  0  0  0  0
   58.5956   30.3896   44.7057 H   0  0  0  0  0  0  0  0  0  0  0  0
   57.9391   29.1596   43.5600 H   0  0  0  0  0  0  0  0  0  0  0  0
   56.4860   30.1060   44.7890 C   0  0  0  0  0  0  0  0  0  0  0  0
   55.5180   29.3020   44.8700 O   0  0  0  0  0  0  0  0  0  0  0  0
   56.2640   31.5210   44.8090 N   0  0  0  0  0  0  0  0  0  0  0  0
   57.2240   32.5370   45.1410 C   0  0  0  0  0  0  0  0  0  0  0  0
   57.3260   33.0480   46.4490 C   0  0  0  0  0  0  0  0  0  0  0  0
   56.6432   32.6860   47.2318 H   0  0  0  0  0  0  0  0  0  0  0  0
   58.2880   34.0110   46.7590 C   0  0  0  0  0  0  0  0  0  0  0  0
   58.3532   34.4127   47.7810 H   0  0  0  0  0  0  0  0  0  0  0  0
   59.1670   34.4650   45.7750 C   0  0  0  0  0  0  0  0  0  0  0  0
   59.9182   35.2303   46.0200 H   0  0  0  0  0  0  0  0  0  0  0  0
   59.0940   33.9490   44.4800 C   0  0  0  0  0  0  0  0  0  0  0  0
   59.7941   34.3043   43.7095 H   0  0  0  0  0  0  0  0  0  0  0  0
   58.1310   32.9780   44.1550 C   0  0  0  0  0  0  0  0  0  0  0  0
   58.0720   32.4170   42.7600 C   0  0  0  0  0  0  0  0  0  0  0  0
   57.9571   31.3241   42.8089 H   0  0  0  0  0  0  0  0  0  0  0  0
   57.2147   32.8523   42.2257 H   0  0  0  0  0  0  0  0  0  0  0  0
   59.0011   32.6644   42.2257 H   0  0  0  0  0  0  0  0  0  0  0  0
  1  2  1  0
  2  3  1  0
  2  4  2  0
  4  5  1  0
  5  6  2  0
  6  7  1  0
  6  8  1  0
  8  9  2  0
  9 10  1  0
  9 11  1  0
 11 12  1  0
 12 13  2  0
 12 14  1  0
 14 15  1  0
 15 16  2  0
 16 17  1  0
 16 18  1  0
 18 19  1  0
 18 20  2  0
 20 21  1  0
 20 22  1  0
 22 23  1  0
 22 24  2  0
 24 25  1  0
 14 26  1  0
 26 27  2  0
  5 28  1  0
 28 29  1  0
 28 30  2  0
 30 31  1  0
 31 32  1  0
 32 33  1  0
 32 34  1  0
 32 35  1  0
 35 36  2  0
 35 37  1  0
 37 38  1  0
 38 39  2  0
 39 40  1  0
 39 41  1  0
 41 42  1  0
 41 43  2  0
 43 44  1  0
 43 45  1  0
 45 46  1  0
 45 47  2  0
 47 48  1  0
 48 49  1  0
 48 50  1  0
 48 51  1  0
 31  4  1  0
 47 38  1  0
 26  8  1  0
 24 15  1  0
M  CHG  4  10  -1  11  -1  21  -1  37  -1
M  END
>  <UniqueID>  (49) 
46

>  <SMILES>  (49) 
C=c1/c(=C\c2c([O-])[n-]c(=O)n(-c3ccc([O-])cc3)c2=O)cnn1CC(=O)[N-]c1ccccc1C

>  <Energy>  (49) 
113.40769814090437

>  <Genealogy>  (49) 
C=c1c(=Cc2c([O-])[n-]c(=O)n(-c3ccc([O-])cc3)c2=O)cnn1CC(=O)[N-]c1ccccc1C (protonated)
C=c1/c(=C\c2c([O-])[n-]c(=O)n(-c3ccc([O-])cc3)c2=O)cnn1CC(=O)[N-]c1ccccc1C (cis-trans isomerization)
C=c1/c(=C\c2c([O-])[n-]c(=O)n(-c3ccc([O-])cc3)c2=O)cnn1CC(=O)[N-]c1ccccc1C (3D coordinates assigned)
C=c1/c(=C\c2c([O-])[n-]c(=O)n(-c3ccc([O-])cc3)c2=O)cnn1CC(=O)[N-]c1ccccc1C (optimized conformer: 113.40769814090437 kcal/mol)

>  <smiles>  (49) 
C=c1c(=Cc2c(O)[nH]c(=O)n(-c3ccc(O)cc3)c2=O)cnn1CC(=O)Nc1ccccc1C

>  <score_type>  (49) 
oracle

>  <origin>  (49) 
adg

>  <m_score__min__energy>  (49) 
-15.51

>  <m_primary>  (49) 
energy

$$$$
49:0
     RDKit          3D

 54 56  0  0  0  0  0  0  0  0999 V2000
   61.9250   30.4670   46.6250 O   0  0  0  0  0  0  0  0  0  0  0  0
   61.1470   30.8150   47.5560 C   0  0  0  0  0  0  0  0  0  0  0  0
   60.9070   29.9280   48.6550 N   0  0  0  0  0  0  0  0  0  0  0  0
   59.6070   29.3480   48.9820 C   0  0  0  0  0  0  0  0  0  0  0  0
   59.3840   28.0260   48.2280 C   0  0  0  0  0  0  0  0  0  0  0  0
   60.3630   27.7990   47.1450 N   0  0  0  0  0  0  0  0  0  0  0  0
   59.8180   27.9490   45.7820 C   0  0  2  0  0  0  0  0  0  0  0  0
   59.6790   29.3070   45.4370 O   0  0  0  0  0  0  0  0  0  0  0  0
   58.5040   27.2200   45.6540 C   0  0  0  0  0  0  0  0  0  0  0  0
   57.2490   27.6950   45.9940 C   0  0  0  0  0  0  0  0  0  0  0  0
   56.3790   26.6570   45.7380 C   0  0  0  0  0  0  0  0  0  0  0  0
   55.0070   26.7090   45.9450 O   0  0  0  0  0  0  0  0  0  0  0  0
   57.0380   25.5780   45.2600 N   0  0  0  0  0  0  0  0  0  0  0  0
   56.4720   24.2780   44.8670 C   0  0  0  0  0  0  0  0  0  0  0  0
   56.7660   23.9960   43.3590 C   0  0  0  0  0  0  0  0  0  0  0  0
   56.2840   22.6310   42.8270 C   0  0  0  0  0  0  0  0  0  0  0  0
   57.2290   21.4410   43.1140 C   0  0  0  0  0  0  0  0  0  0  0  0
   57.2750   20.9500   44.5720 C   0  0  0  0  0  0  0  0  0  0  0  0
   56.4170   21.7720   45.5470 C   0  0  0  0  0  0  0  0  0  0  0  0
   56.9410   23.1860   45.8590 C   0  0  0  0  0  0  0  0  0  0  0  0
   58.3430   25.9160   45.2170 C   0  0  0  0  0  0  0  0  0  0  0  0
   60.4760   32.1380   47.5080 C   0  0  0  0  0  0  0  0  0  0  0  0
   60.8820   33.1770   48.3680 C   0  0  0  0  0  0  0  0  0  0  0  0
   60.2510   34.4250   48.3160 C   0  0  0  0  0  0  0  0  0  0  0  0
   59.2140   34.6520   47.4080 C   0  0  0  0  0  0  0  0  0  0  0  0
   58.8070   33.6310   46.5450 C   0  0  0  0  0  0  0  0  0  0  0  0
   57.3900   33.9450   45.2990 Br  0  0  0  0  0  0  0  0  0  0  0  0
   59.4340   32.3800   46.5920 C   0  0  0  0  0  0  0  0  0  0  0  0
   59.5613   29.1563   50.0642 H   0  0  0  0  0  0  0  0  0  0  0  0
   58.8225   30.0580   48.6812 H   0  0  0  0  0  0  0  0  0  0  0  0
   59.4600   27.1969   48.9469 H   0  0  0  0  0  0  0  0  0  0  0  0
   58.3891   28.0804   47.7619 H   0  0  0  0  0  0  0  0  0  0  0  0
   61.1940   28.4230   47.2540 H   0  0  0  0  0  0  0  0  0  0  0  0
   60.5316   27.4982   45.0766 H   0  0  0  0  0  0  0  0  0  0  0  0
   60.2760   29.8190   46.0430 H   0  0  0  0  0  0  0  0  0  0  0  0
   56.9986   28.6917   46.3862 H   0  0  0  0  0  0  0  0  0  0  0  0
   55.3744   24.2810   44.9390 H   0  0  0  0  0  0  0  0  0  0  0  0
   56.2752   24.7820   42.7663 H   0  0  0  0  0  0  0  0  0  0  0  0
   57.8619   23.9844   43.2645 H   0  0  0  0  0  0  0  0  0  0  0  0
   55.3099   22.4108   43.2882 H   0  0  0  0  0  0  0  0  0  0  0  0
   56.2401   22.7285   41.7322 H   0  0  0  0  0  0  0  0  0  0  0  0
   56.9080   20.5975   42.4852 H   0  0  0  0  0  0  0  0  0  0  0  0
   58.2422   21.8081   42.8935 H   0  0  0  0  0  0  0  0  0  0  0  0
   56.9205   19.9090   44.5956 H   0  0  0  0  0  0  0  0  0  0  0  0
   58.3177   21.0561   44.9058 H   0  0  0  0  0  0  0  0  0  0  0  0
   55.4112   21.8712   45.1129 H   0  0  0  0  0  0  0  0  0  0  0  0
   56.4354   21.2251   46.5012 H   0  0  0  0  0  0  0  0  0  0  0  0
   56.5967   23.4656   46.8656 H   0  0  0  0  0  0  0  0  0  0  0  0
   58.0369   23.1386   45.7768 H   0  0  0  0  0  0  0  0  0  0  0  0
   59.1571   25.2551   44.8847 H   0  0  0  0  0  0  0  0  0  0  0  0
   61.6993   33.0065   49.0842 H   0  0  0  0  0  0  0  0  0  0  0  0
   60.5728   35.2303   48.9927 H   0  0  0  0  0  0  0  0  0  0  0  0
   58.7183   35.6333   47.3723 H   0  0  0  0  0  0  0  0  0  0  0  0
   59.1105   31.5808   45.9089 H   0  0  0  0  0  0  0  0  0  0  0  0
  1  2  2  0
  2  3  1  0
  3  4  1  0
  4  5  1  0
  5  6  1  0
  6  7  1  0
  7  8  1  0
  7  9  1  0
  9 10  1  0
 10 11  2  0
 11 12  1  0
 11 13  1  0
 13 14  1  0
 14 15  1  0
 15 16  1  0
 16 17  1  0
 17 18  1  0
 18 19  1  0
 19 20  1  0
 13 21  1  0
  2 22  1  0
 22 23  2  0
 23 24  1  0
 24 25  2  0
 25 26  1  0
 26 27  1  0
 26 28  2  0
 21  9  2  0
 28 22  1  0
 20 14  1  0
  4 29  1  0
  4 30  1  0
  5 31  1  0
  5 32  1  0
  6 33  1  0
  7 34  1  6
  8 35  1  0
 10 36  1  0
 14 37  1  0
 15 38  1  0
 15 39  1  0
 16 40  1  0
 16 41  1  0
 17 42  1  0
 17 43  1  0
 18 44  1  0
 18 45  1  0
 19 46  1  0
 19 47  1  0
 20 48  1  0
 20 49  1  0
 21 50  1  0
 23 51  1  0
 24 52  1  0
 25 53  1  0
 28 54  1  0
M  CHG  2   3  -1  12  -1
M  END
>  <UniqueID>  (50) 
47

>  <SMILES>  (50) 
O=C([N-]CCN[C@H](O)c1cc([O-])n(C2CCCCCC2)c1)c1cccc(Br)c1

>  <Energy>  (50) 
92.6858744557751

>  <Genealogy>  (50) 
O=C([N-]CCNC(O)c1cc([O-])n(C2CCCCCC2)c1)c1cccc(Br)c1 (protonated)
O=C([N-]CCN[C@H](O)c1cc([O-])n(C2CCCCCC2)c1)c1cccc(Br)c1 (chirality)
O=C([N-]CCN[C@H](O)c1cc([O-])n(C2CCCCCC2)c1)c1cccc(Br)c1 (3D coordinates assigned)
O=C([N-]CCN[C@H](O)c1cc([O-])n(C2CCCCCC2)c1)c1cccc(Br)c1 (nonaromatic ring conformer: 92.6858744557751 kcal/mol)

>  <smiles>  (50) 
O=C(NCCNC(O)c1cc(O)n(C2CCCCCC2)c1)c1cccc(Br)c1

>  <score_type>  (50) 
oracle

>  <origin>  (50) 
adg

>  <m_score__min__energy>  (50) 
-10.449999999999999

>  <m_primary>  (50) 
energy

$$$$
50:0
     RDKit          3D

 43 45  0  0  0  0  0  0  0  0999 V2000
   57.4190   31.2260   43.0900 C   0  0  0  0  0  0  0  0  0  0  0  0
   57.9070   32.0820   44.2290 C   0  0  0  0  0  0  0  0  0  0  0  0
   57.7790   33.4770   44.1340 C   0  0  0  0  0  0  0  0  0  0  0  0
   58.2450   34.2880   45.1670 C   0  0  0  0  0  0  0  0  0  0  0  0
   58.8150   33.7330   46.2670 N   0  0  0  0  0  0  0  0  0  0  0  0
   58.9420   32.3870   46.4020 C   0  0  0  0  0  0  0  0  0  0  0  0
   58.4770   31.5230   45.3980 C   0  0  0  0  0  0  0  0  0  0  0  0
   58.6060   30.0610   45.5960 C   0  0  0  0  0  0  0  0  0  0  0  0
   57.4580   29.2580   45.6770 C   0  0  0  0  0  0  0  0  0  0  0  0
   57.5750   27.8760   45.8550 C   0  0  0  0  0  0  0  0  0  0  0  0
   58.8360   27.2740   45.9290 C   0  0  0  0  0  0  0  0  0  0  0  0
   58.9100   25.8540   46.1330 N   0  0  0  0  0  0  0  0  0  0  0  0
   58.0480   25.0670   46.9640 C   0  0  0  0  0  0  0  0  0  0  0  0
   58.0730   25.2000   48.2170 O   0  0  0  0  0  0  0  0  0  0  0  0
   57.2190   24.0670   46.3590 N   0  0  0  0  0  0  0  0  0  0  0  0
   56.2300   23.3140   47.0830 C   0  0  0  0  0  0  0  0  0  0  0  0
   56.6070   22.5600   48.2090 C   0  0  0  0  0  0  0  0  0  0  0  0
   55.6520   21.8550   48.9430 C   0  0  0  0  0  0  0  0  0  0  0  0
   54.3080   21.9030   48.5710 C   0  0  0  0  0  0  0  0  0  0  0  0
   53.9160   22.6550   47.4630 C   0  0  0  0  0  0  0  0  0  0  0  0
   54.8660   23.3650   46.7090 C   0  0  0  0  0  0  0  0  0  0  0  0
   54.3340   24.2800   45.2920 S   0  0  0  0  0  0  0  0  0  0  0  0
   54.2870   25.9670   45.6670 N   0  0  0  0  0  0  0  0  0  0  0  0
   55.2880   24.0700   44.1490 O   0  0  0  0  0  0  0  0  0  0  0  0
   52.9660   23.8150   44.8800 O   0  0  0  0  0  0  0  0  0  0  0  0
   59.9880   28.0790   45.8580 C   0  0  0  0  0  0  0  0  0  0  0  0
   59.8710   29.4610   45.6820 C   0  0  0  0  0  0  0  0  0  0  0  0
   56.9117   30.3362   43.4912 H   0  0  0  0  0  0  0  0  0  0  0  0
   56.7142   31.8031   42.4734 H   0  0  0  0  0  0  0  0  0  0  0  0
   58.2747   30.9135   42.4734 H   0  0  0  0  0  0  0  0  0  0  0  0
   57.3120   33.9286   43.2463 H   0  0  0  0  0  0  0  0  0  0  0  0
   58.1507   35.3813   45.0908 H   0  0  0  0  0  0  0  0  0  0  0  0
   59.4128   31.9711   47.3050 H   0  0  0  0  0  0  0  0  0  0  0  0
   56.4617   29.7178   45.6001 H   0  0  0  0  0  0  0  0  0  0  0  0
   56.6691   27.2575   45.9375 H   0  0  0  0  0  0  0  0  0  0  0  0
   57.3770   23.8540   45.3490 H   0  0  0  0  0  0  0  0  0  0  0  0
   57.6634   22.5257   48.5136 H   0  0  0  0  0  0  0  0  0  0  0  0
   55.9593   21.2606   49.8161 H   0  0  0  0  0  0  0  0  0  0  0  0
   53.5569   21.3475   49.1517 H   0  0  0  0  0  0  0  0  0  0  0  0
   52.8544   22.6925   47.1772 H   0  0  0  0  0  0  0  0  0  0  0  0
   53.3770   26.3330   45.3090 H   0  0  0  0  0  0  0  0  0  0  0  0
   60.9839   27.6194   45.9413 H   0  0  0  0  0  0  0  0  0  0  0  0
   60.7764   30.0816   45.6105 H   0  0  0  0  0  0  0  0  0  0  0  0
  1  2  1  0
  2  3  2  0
  3  4  1  0
  4  5  2  0
  5  6  1  0
  6  7  2  0
  7  8  1  0
  8  9  2  0
  9 10  1  0
 10 11  2  0
 11 12  1  0
 12 13  1  0
 13 14  2  0
 13 15  1  0
 15 16  1  0
 16 17  2  0
 17 18  1  0
 18 19  2  0
 19 20  1  0
 20 21  2  0
 21 22  1  0
 22 23  1  0
 22 24  2  0
 22 25  2  0
 11 26  1  0
 26 27  2  0
  7  2  1  0
 27  8  1  0
 21 16  1  0
  1 28  1  0
  1 29  1  0
  1 30  1  0
  3 31  1  0
  4 32  1  0
  6 33  1  0
  9 34  1  0
 10 35  1  0
 15 36  1  0
 17 37  1  0
 18 38  1  0
 19 39  1  0
 20 40  1  0
 23 41  1  0
 26 42  1  0
 27 43  1  0
M  CHG  2  12  -1  23  -1
M  END
>  <UniqueID>  (51) 
48

>  <SMILES>  (51) 
Cc1ccncc1-c1ccc([N-]C(=O)Nc2ccccc2S([NH-])(=O)=O)cc1

>  <Energy>  (51) 
61.667278922265304

>  <Genealogy>  (51) 
Cc1ccncc1-c1ccc([N-]C(=O)Nc2ccccc2S([NH-])(=O)=O)cc1 (protonated)
Cc1ccncc1-c1ccc([N-]C(=O)Nc2ccccc2S([NH-])(=O)=O)cc1 (3D coordinates assigned)
Cc1ccncc1-c1ccc([N-]C(=O)Nc2ccccc2S([NH-])(=O)=O)cc1 (optimized conformer: 61.667278922265304 kcal/mol)

>  <smiles>  (51) 
Cc1ccncc1-c1ccc(NC(=O)Nc2ccccc2S(N)(=O)=O)cc1

>  <score_type>  (51) 
oracle

>  <origin>  (51) 
adg

>  <m_score__min__energy>  (51) 
-12.68

>  <m_primary>  (51) 
energy

$$$$
51:0
     RDKit          3D

 54 57  0  0  0  0  0  0  0  0999 V2000
   58.1110   32.3010   41.9410 C   0  0  0  0  0  0  0  0  0  0  0  0
   57.3860   32.1650   43.1640 O   0  0  0  0  0  0  0  0  0  0  0  0
   57.5920   31.1480   44.1110 C   0  0  0  0  0  0  0  0  0  0  0  0
   57.4030   29.7880   43.7880 C   0  0  0  0  0  0  0  0  0  0  0  0
   57.5880   28.7840   44.7540 C   0  0  0  0  0  0  0  0  0  0  0  0
   57.3880   27.3920   44.4510 N   0  0  0  0  0  0  0  0  0  0  0  0
   56.9670   26.1980   45.6370 S   0  0  0  0  0  0  0  0  0  0  0  0
   57.8160   26.3680   46.8630 O   0  0  0  0  0  0  0  0  0  0  0  0
   55.5190   26.3370   46.0100 O   0  0  0  0  0  0  0  0  0  0  0  0
   57.2280   24.6010   44.9620 C   0  0  0  0  0  0  0  0  0  0  0  0
   58.2870   23.7590   45.2650 C   0  0  0  0  0  0  0  0  0  0  0  0
   58.2500   22.5590   44.5460 C   0  0  0  0  0  0  0  0  0  0  0  0
   57.1710   22.4640   43.6760 C   0  0  0  0  0  0  0  0  0  0  0  0
   56.2600   23.8730   43.8010 S   0  0  0  0  0  0  0  0  0  0  0  0
   57.9670   29.1520   46.0480 C   0  0  0  0  0  0  0  0  0  0  0  0
   58.1710   30.4910   46.3750 C   0  0  0  0  0  0  0  0  0  0  0  0
   57.9790   31.5000   45.4200 C   0  0  0  0  0  0  0  0  0  0  0  0
   58.2050   32.9170   45.7960 C   0  0  0  0  0  0  0  0  0  0  0  0
   57.8550   33.8320   45.0070 O   0  0  0  0  0  0  0  0  0  0  0  0
   58.9010   33.2760   46.9970 N   0  0  0  0  0  0  0  0  0  0  0  0
   60.3200   33.2000   47.1990 C   0  0  0  0  0  0  0  0  0  0  0  0
   61.2080   33.9280   46.3890 C   0  0  0  0  0  0  0  0  0  0  0  0
   62.5880   33.8170   46.5800 C   0  0  0  0  0  0  0  0  0  0  0  0
   63.0920   32.9750   47.5710 C   0  0  0  0  0  0  0  0  0  0  0  0
   62.2180   32.2370   48.3720 C   0  0  0  0  0  0  0  0  0  0  0  0
   60.8340   32.3420   48.1890 C   0  0  0  0  0  0  0  0  0  0  0  0
   59.9540   31.5860   49.0330 N   0  0  0  0  0  0  0  0  0  0  0  0
   59.9530   30.1290   48.9170 C   0  0  0  0  0  0  0  0  0  0  0  0
   59.3410   29.4960   50.1740 C   0  0  0  0  0  0  0  0  0  0  0  0
   58.1080   30.1030   50.5040 O   0  0  0  0  0  0  0  0  0  0  0  0
   58.3150   31.4610   50.8430 C   0  0  0  0  0  0  0  0  0  0  0  0
   58.7940   32.2530   49.6250 C   0  0  0  0  0  0  0  0  0  0  0  0
   59.1700   32.4996   42.1627 H   0  0  0  0  0  0  0  0  0  0  0  0
   58.0263   31.3713   41.3592 H   0  0  0  0  0  0  0  0  0  0  0  0
   57.6951   33.1368   41.3592 H   0  0  0  0  0  0  0  0  0  0  0  0
   57.1067   29.5093   42.7660 H   0  0  0  0  0  0  0  0  0  0  0  0
   57.3970   27.0840   43.4540 H   0  0  0  0  0  0  0  0  0  0  0  0
   59.0729   24.0078   45.9933 H   0  0  0  0  0  0  0  0  0  0  0  0
   59.0039   21.7660   44.6590 H   0  0  0  0  0  0  0  0  0  0  0  0
   56.9497   21.6116   43.0168 H   0  0  0  0  0  0  0  0  0  0  0  0
   58.1056   28.3768   46.8160 H   0  0  0  0  0  0  0  0  0  0  0  0
   58.4863   30.7598   47.3940 H   0  0  0  0  0  0  0  0  0  0  0  0
   60.8154   34.5879   45.6014 H   0  0  0  0  0  0  0  0  0  0  0  0
   63.2780   34.3948   45.9475 H   0  0  0  0  0  0  0  0  0  0  0  0
   64.1785   32.8922   47.7217 H   0  0  0  0  0  0  0  0  0  0  0  0
   62.6186   31.5704   49.1499 H   0  0  0  0  0  0  0  0  0  0  0  0
   59.3611   29.8352   48.0376 H   0  0  0  0  0  0  0  0  0  0  0  0
   60.9896   29.7777   48.8074 H   0  0  0  0  0  0  0  0  0  0  0  0
   59.1756   28.4239   49.9915 H   0  0  0  0  0  0  0  0  0  0  0  0
   60.0373   29.6441   51.0126 H   0  0  0  0  0  0  0  0  0  0  0  0
   57.3697   31.8914   51.2051 H   0  0  0  0  0  0  0  0  0  0  0  0
   59.0840   31.5174   51.6275 H   0  0  0  0  0  0  0  0  0  0  0  0
   57.9845   32.3081   48.8823 H   0  0  0  0  0  0  0  0  0  0  0  0
   59.0760   33.2694   49.9371 H   0  0  0  0  0  0  0  0  0  0  0  0
  1  2  1  0
  2  3  1  0
  3  4  2  0
  4  5  1  0
  5  6  1  0
  6  7  1  0
  7  8  2  0
  7  9  2  0
  7 10  1  0
 10 11  2  0
 11 12  1  0
 12 13  2  0
 13 14  1  0
  5 15  2  0
 15 16  1  0
 16 17  2  0
 17 18  1  0
 18 19  2  0
 18 20  1  0
 20 21  1  0
 21 22  2  0
 22 23  1  0
 23 24  2  0
 24 25  1  0
 25 26  2  0
 26 27  1  0
 27 28  1  0
 28 29  1  0
 29 30  1  0
 30 31  1  0
 31 32  1  0
 17  3  1  0
 26 21  1  0
 32 27  1  0
 14 10  1  0
  1 33  1  0
  1 34  1  0
  1 35  1  0
  4 36  1  0
  6 37  1  0
 11 38  1  0
 12 39  1  0
 13 40  1  0
 15 41  1  0
 16 42  1  0
 22 43  1  0
 23 44  1  0
 24 45  1  0
 25 46  1  0
 28 47  1  0
 28 48  1  0
 29 49  1  0
 29 50  1  0
 31 51  1  0
 31 52  1  0
 32 53  1  0
 32 54  1  0
M  CHG  1  20  -1
M  END
>  <UniqueID>  (52) 
49

>  <SMILES>  (52) 
COc1cc(NS(=O)(=O)c2cccs2)ccc1C(=O)[N-]c1ccccc1N1CCOCC1

>  <Energy>  (52) 
100.91481863044257

>  <Genealogy>  (52) 
COc1cc(NS(=O)(=O)c2cccs2)ccc1C(=O)[N-]c1ccccc1N1CCOCC1 (protonated)
COc1cc(NS(=O)(=O)c2cccs2)ccc1C(=O)[N-]c1ccccc1N1CCOCC1 (3D coordinates assigned)
COc1cc(NS(=O)(=O)c2cccs2)ccc1C(=O)[N-]c1ccccc1N1CCOCC1 (nonaromatic ring conformer: 100.91481863044257 kcal/mol)

>  <smiles>  (52) 
COc1cc(NS(=O)(=O)c2cccs2)ccc1C(=O)Nc1ccccc1N1CCOCC1

>  <score_type>  (52) 
oracle

>  <origin>  (52) 
adg

>  <m_score__min__energy>  (52) 
-10.880000000000001

>  <m_primary>  (52) 
energy

$$$$
52:0
     RDKit          3D

 51 54  0  0  0  0  0  0  0  0999 V2000
   56.1110   19.0700   45.5440 C   0  0  0  0  0  0  0  0  0  0  0  0
   55.0340   19.9950   45.4510 O   0  0  0  0  0  0  0  0  0  0  0  0
   55.1590   21.3790   45.6350 C   0  0  0  0  0  0  0  0  0  0  0  0
   54.8070   22.0090   46.8420 C   0  0  0  0  0  0  0  0  0  0  0  0
   54.9300   23.3930   46.9850 C   0  0  0  0  0  0  0  0  0  0  0  0
   55.4180   24.1680   45.9220 C   0  0  0  0  0  0  0  0  0  0  0  0
   55.5100   25.6000   45.9920 N   0  0  0  0  0  0  0  0  0  0  0  0
   56.6900   26.4080   46.0540 C   0  0  0  0  0  0  0  0  0  0  0  0
   56.7190   27.4560   46.7500 O   0  0  0  0  0  0  0  0  0  0  0  0
   57.9270   25.9390   45.3630 C   0  0  0  0  0  0  0  0  0  0  0  0
   58.7000   27.3360   44.4750 S   0  0  0  0  0  0  0  0  0  0  0  0
   59.1650   28.2470   45.9560 C   0  0  0  0  0  0  0  0  0  0  0  0
   59.6670   27.6050   47.0320 N   0  0  0  0  0  0  0  0  0  0  0  0
   59.9510   28.5200   47.9470 N   0  0  0  0  0  0  0  0  0  0  0  0
   59.6150   29.7040   47.4090 C   0  0  0  0  0  0  0  0  0  0  0  0
   59.7830   30.9320   48.0300 C   0  0  0  0  0  0  0  0  0  0  0  0
   59.4210   32.0900   47.3300 C   0  0  0  0  0  0  0  0  0  0  0  0
   59.6190   33.4260   48.0000 C   0  0  0  0  0  0  0  0  0  0  0  0
   58.8830   31.9760   46.0110 C   0  0  0  0  0  0  0  0  0  0  0  0
   58.5230   33.1170   45.2620 C   0  0  0  0  0  0  0  0  0  0  0  0
   58.0010   32.9920   43.9750 C   0  0  0  0  0  0  0  0  0  0  0  0
   57.7830   31.7280   43.4220 C   0  0  0  0  0  0  0  0  0  0  0  0
   57.2590   31.6040   42.0220 C   0  0  0  0  0  0  0  0  0  0  0  0
   58.1270   30.5830   44.1500 C   0  0  0  0  0  0  0  0  0  0  0  0
   58.7070   30.6820   45.4320 C   0  0  0  0  0  0  0  0  0  0  0  0
   59.1070   29.5890   46.1670 N   0  0  0  0  0  0  0  0  0  0  0  0
   55.7660   23.5380   44.7190 C   0  0  0  0  0  0  0  0  0  0  0  0
   55.6410   22.1480   44.5670 C   0  0  0  0  0  0  0  0  0  0  0  0
   55.9690   21.4940   43.3670 O   0  0  0  0  0  0  0  0  0  0  0  0
   57.2860   21.1070   42.9940 C   0  0  0  0  0  0  0  0  0  0  0  0
   56.3371   18.8758   46.6028 H   0  0  0  0  0  0  0  0  0  0  0  0
   55.8291   18.1282   45.0505 H   0  0  0  0  0  0  0  0  0  0  0  0
   56.9995   19.4909   45.0505 H   0  0  0  0  0  0  0  0  0  0  0  0
   54.4311   21.4060   47.6817 H   0  0  0  0  0  0  0  0  0  0  0  0
   54.6442   23.8755   47.9313 H   0  0  0  0  0  0  0  0  0  0  0  0
   58.6336   25.5420   46.1067 H   0  0  0  0  0  0  0  0  0  0  0  0
   57.6664   25.1484   44.6440 H   0  0  0  0  0  0  0  0  0  0  0  0
   60.1914   30.9956   49.0494 H   0  0  0  0  0  0  0  0  0  0  0  0
   59.5996   33.2950   49.0920 H   0  0  0  0  0  0  0  0  0  0  0  0
   60.5894   33.8472   47.6984 H   0  0  0  0  0  0  0  0  0  0  0  0
   58.8125   34.1105   47.6984 H   0  0  0  0  0  0  0  0  0  0  0  0
   58.6559   34.1176   45.6992 H   0  0  0  0  0  0  0  0  0  0  0  0
   57.7597   33.8933   43.3924 H   0  0  0  0  0  0  0  0  0  0  0  0
   56.1890   31.3508   42.0521 H   0  0  0  0  0  0  0  0  0  0  0  0
   57.3951   32.5591   41.4936 H   0  0  0  0  0  0  0  0  0  0  0  0
   57.8087   30.8111   41.4936 H   0  0  0  0  0  0  0  0  0  0  0  0
   57.9420   29.5897   43.7152 H   0  0  0  0  0  0  0  0  0  0  0  0
   56.1430   24.1424   43.8808 H   0  0  0  0  0  0  0  0  0  0  0  0
   57.8864   20.9306   43.8987 H   0  0  0  0  0  0  0  0  0  0  0  0
   57.2418   20.1839   42.3975 H   0  0  0  0  0  0  0  0  0  0  0  0
   57.7482   21.9073   42.3975 H   0  0  0  0  0  0  0  0  0  0  0  0
  1  2  1  0
  2  3  1  0
  3  4  2  0
  4  5  1  0
  5  6  2  0
  6  7  1  0
  7  8  1  0
  8  9  2  0
  8 10  1  0
 10 11  1  0
 11 12  1  0
 12 13  2  0
 13 14  1  0
 14 15  2  0
 15 16  1  0
 16 17  2  0
 17 18  1  0
 17 19  1  0
 19 20  2  0
 20 21  1  0
 21 22  2  0
 22 23  1  0
 22 24  1  0
 24 25  2  0
 25 26  1  0
  6 27  1  0
 27 28  2  0
 28 29  1  0
 29 30  1  0
 28  3  1  0
 26 12  1  0
 26 15  1  0
 25 19  1  0
  1 31  1  0
  1 32  1  0
  1 33  1  0
  4 34  1  0
  5 35  1  0
 10 36  1  0
 10 37  1  0
 16 38  1  0
 18 39  1  0
 18 40  1  0
 18 41  1  0
 20 42  1  0
 21 43  1  0
 23 44  1  0
 23 45  1  0
 23 46  1  0
 24 47  1  0
 27 48  1  0
 30 49  1  0
 30 50  1  0
 30 51  1  0
M  CHG  1   7  -1
M  END
>  <UniqueID>  (53) 
50

>  <SMILES>  (53) 
COc1ccc([N-]C(=O)CSc2nnc3cc(C)c4ccc(C)cc4n23)cc1OC

>  <Energy>  (53) 
101.8726753422524

>  <Genealogy>  (53) 
COc1ccc([N-]C(=O)CSc2nnc3cc(C)c4ccc(C)cc4n23)cc1OC (protonated)
COc1ccc([N-]C(=O)CSc2nnc3cc(C)c4ccc(C)cc4n23)cc1OC (3D coordinates assigned)
COc1ccc([N-]C(=O)CSc2nnc3cc(C)c4ccc(C)cc4n23)cc1OC (optimized conformer: 101.8726753422524 kcal/mol)

>  <smiles>  (53) 
COc1ccc(NC(=O)CSc2nnc3cc(C)c4ccc(C)cc4n23)cc1OC

>  <score_type>  (53) 
oracle

>  <origin>  (53) 
adg

>  <m_score__min__energy>  (53) 
-10.76

>  <m_primary>  (53) 
energy

$$$$
53:0
     RDKit          3D

 46 48  0  0  0  0  0  0  0  0999 V2000
   57.3880   24.9990   44.0030 C   0  0  0  0  0  0  0  0  0  0  0  0
   57.7070   26.1220   44.9850 C   0  0  0  0  0  0  0  0  0  0  0  0
   56.4700   26.5750   45.7140 C   0  0  0  0  0  0  0  0  0  0  0  0
   55.8870   25.7780   46.4960 O   0  0  0  0  0  0  0  0  0  0  0  0
   55.9060   27.8760   45.5090 N   0  0  0  0  0  0  0  0  0  0  0  0
   56.5610   28.9900   44.8850 C   0  0  0  0  0  0  0  0  0  0  0  0
   55.9290   29.7070   43.8530 C   0  0  0  0  0  0  0  0  0  0  0  0
   56.6110   30.7250   43.1820 C   0  0  0  0  0  0  0  0  0  0  0  0
   57.9340   31.0200   43.5150 C   0  0  0  0  0  0  0  0  0  0  0  0
   58.5770   30.3020   44.5260 C   0  0  0  0  0  0  0  0  0  0  0  0
   57.8950   29.3000   45.2280 C   0  0  0  0  0  0  0  0  0  0  0  0
   58.5760   28.6110   46.2420 O   0  0  0  0  0  0  0  0  0  0  0  0
   59.1180   29.2080   47.3900 C   0  0  0  0  0  0  0  0  0  0  0  0
   59.1500   28.5440   48.6300 C   0  0  0  0  0  0  0  0  0  0  0  0
   59.6960   29.1740   49.7490 C   0  0  0  0  0  0  0  0  0  0  0  0
   60.2020   30.4720   49.6460 C   0  0  0  0  0  0  0  0  0  0  0  0
   60.1580   31.1570   48.4270 C   0  0  0  0  0  0  0  0  0  0  0  0
   60.6690   32.4650   48.3820 O   0  0  0  0  0  0  0  0  0  0  0  0
   59.8860   33.6580   48.4140 C   0  0  0  0  0  0  0  0  0  0  0  0
   59.0920   33.8130   47.1440 C   0  0  0  0  0  0  0  0  0  0  0  0
   59.6350   34.4910   46.0390 C   0  0  0  0  0  0  0  0  0  0  0  0
   58.8880   34.6380   44.8660 C   0  0  0  0  0  0  0  0  0  0  0  0
   57.5920   34.1190   44.7910 C   0  0  0  0  0  0  0  0  0  0  0  0
   57.0410   33.4540   45.8890 C   0  0  0  0  0  0  0  0  0  0  0  0
   57.7850   33.3040   47.0630 C   0  0  0  0  0  0  0  0  0  0  0  0
   59.6110   30.5160   47.2980 C   0  0  0  0  0  0  0  0  0  0  0  0
   57.1289   24.0869   44.5606 H   0  0  0  0  0  0  0  0  0  0  0  0
   56.5386   25.2956   43.3701 H   0  0  0  0  0  0  0  0  0  0  0  0
   58.2665   24.8048   43.3701 H   0  0  0  0  0  0  0  0  0  0  0  0
   58.4430   25.7596   45.7178 H   0  0  0  0  0  0  0  0  0  0  0  0
   58.1104   26.9751   44.4198 H   0  0  0  0  0  0  0  0  0  0  0  0
   54.8931   29.4651   43.5730 H   0  0  0  0  0  0  0  0  0  0  0  0
   56.1043   31.2953   42.3895 H   0  0  0  0  0  0  0  0  0  0  0  0
   58.4705   31.8182   42.9811 H   0  0  0  0  0  0  0  0  0  0  0  0
   59.6256   30.5249   44.7724 H   0  0  0  0  0  0  0  0  0  0  0  0
   58.7436   27.5256   48.7176 H   0  0  0  0  0  0  0  0  0  0  0  0
   59.7280   28.6474   50.7142 H   0  0  0  0  0  0  0  0  0  0  0  0
   60.6385   30.9593   50.5303 H   0  0  0  0  0  0  0  0  0  0  0  0
   59.1943   33.6121   49.2680 H   0  0  0  0  0  0  0  0  0  0  0  0
   60.5621   34.5199   48.5135 H   0  0  0  0  0  0  0  0  0  0  0  0
   60.6514   34.9076   46.0971 H   0  0  0  0  0  0  0  0  0  0  0  0
   59.3206   35.1626   44.0013 H   0  0  0  0  0  0  0  0  0  0  0  0
   57.0061   34.2343   43.8672 H   0  0  0  0  0  0  0  0  0  0  0  0
   56.0204   33.0479   45.8298 H   0  0  0  0  0  0  0  0  0  0  0  0
   57.3451   32.7850   47.9274 H   0  0  0  0  0  0  0  0  0  0  0  0
   59.5707   31.0473   46.3357 H   0  0  0  0  0  0  0  0  0  0  0  0
  1  2  1  0
  2  3  1  0
  3  4  2  0
  3  5  1  0
  5  6  1  0
  6  7  2  0
  7  8  1  0
  8  9  2  0
  9 10  1  0
 10 11  2  0
 11 12  1  0
 12 13  1  0
 13 14  2  0
 14 15  1  0
 15 16  2  0
 16 17  1  0
 17 18  1  0
 18 19  1  0
 19 20  1  0
 20 21  2  0
 21 22  1  0
 22 23  2  0
 23 24  1  0
 24 25  2  0
 17 26  2  0
 11  6  1  0
 26 13  1  0
 25 20  1  0
  1 27  1  0
  1 28  1  0
  1 29  1  0
  2 30  1  0
  2 31  1  0
  7 32  1  0
  8 33  1  0
  9 34  1  0
 10 35  1  0
 14 36  1  0
 15 37  1  0
 16 38  1  0
 19 39  1  0
 19 40  1  0
 21 41  1  0
 22 42  1  0
 23 43  1  0
 24 44  1  0
 25 45  1  0
 26 46  1  0
M  CHG  1   5  -1
M  END
>  <UniqueID>  (54) 
51

>  <SMILES>  (54) 
CCC(=O)[N-]c1ccccc1Oc1cccc(OCc2ccccc2)c1

>  <Energy>  (54) 
56.177671402265936

>  <Genealogy>  (54) 
CCC(=O)[N-]c1ccccc1Oc1cccc(OCc2ccccc2)c1 (protonated)
CCC(=O)[N-]c1ccccc1Oc1cccc(OCc2ccccc2)c1 (3D coordinates assigned)
CCC(=O)[N-]c1ccccc1Oc1cccc(OCc2ccccc2)c1 (optimized conformer: 56.177671402265936 kcal/mol)

>  <smiles>  (54) 
CCC(=O)Nc1ccccc1Oc1cccc(OCc2ccccc2)c1

>  <score_type>  (54) 
oracle

>  <origin>  (54) 
adg

>  <m_score__min__energy>  (54) 
-11.07

>  <m_primary>  (54) 
energy

$$$$
54:0
     RDKit          3D

 74 77  0  0  0  0  0  0  0  0999 V2000
   60.4480   30.7370   46.5090 C   0  0  0  0  0  0  0  0  0  0  0  0
   59.9280   30.6620   47.9350 C   0  0  0  0  0  0  0  0  0  0  0  0
   59.6500   29.3920   48.5050 C   0  0  0  0  0  0  0  0  0  0  0  0
   59.9030   28.1100   47.8060 C   0  0  0  0  0  0  0  0  0  0  0  0
   60.8990   27.4110   48.1380 O   0  0  0  0  0  0  0  0  0  0  0  0
   58.9740   27.6040   46.8250 N   0  0  0  0  0  0  0  0  0  0  0  0
   57.8140   26.7940   47.2290 C   0  0  0  0  0  0  0  0  0  0  0  0
   57.3760   25.8450   46.1030 C   0  0  0  0  0  0  0  0  0  0  0  0
   55.9140   25.4120   46.2200 C   0  0  0  0  0  0  0  0  0  0  0  0
   55.0660   26.5050   45.9920 O   0  0  0  0  0  0  0  0  0  0  0  0
   59.2030   27.8850   45.4040 C   0  0  0  0  0  0  0  0  0  0  0  0
   58.2270   28.9290   44.9300 C   0  0  0  0  0  0  0  0  0  0  0  0
   58.6760   30.0540   44.2180 C   0  0  0  0  0  0  0  0  0  0  0  0
   57.7600   30.9810   43.7130 C   0  0  0  0  0  0  0  0  0  0  0  0
   56.3910   30.7870   43.9050 C   0  0  0  0  0  0  0  0  0  0  0  0
   55.9350   29.6650   44.6060 C   0  0  0  0  0  0  0  0  0  0  0  0
   56.8480   28.7380   45.1150 C   0  0  0  0  0  0  0  0  0  0  0  0
   59.1450   29.3240   49.8030 C   0  0  0  0  0  0  0  0  0  0  0  0
   58.9380   30.4790   50.5470 C   0  0  0  0  0  0  0  0  0  0  0  0
   58.3220   30.3720   51.9210 C   0  0  0  0  0  0  0  0  0  0  0  0
   56.8730   30.7420   51.8580 C   0  0  0  0  0  0  0  0  0  0  0  0
   56.5420   31.9480   51.6950 O   0  0  0  0  0  0  0  0  0  0  0  0
   55.8740   29.7270   51.9990 N   0  0  0  0  0  0  0  0  0  0  0  0
   54.8880   29.7030   53.0760 C   0  0  0  0  0  0  0  0  0  0  0  0
   53.6340   30.4250   52.6610 C   0  0  0  0  0  0  0  0  0  0  0  0
   53.4470   30.8260   51.3270 C   0  0  0  0  0  0  0  0  0  0  0  0
   52.2670   31.4720   50.9460 C   0  0  0  0  0  0  0  0  0  0  0  0
   51.2660   31.7200   51.8890 C   0  0  0  0  0  0  0  0  0  0  0  0
   51.4440   31.3240   53.2170 C   0  0  0  0  0  0  0  0  0  0  0  0
   52.6220   30.6770   53.6030 C   0  0  0  0  0  0  0  0  0  0  0  0
   59.2520   31.7220   49.9780 C   0  0  0  0  0  0  0  0  0  0  0  0
   59.0700   32.7650   50.6650 O   0  0  0  0  0  0  0  0  0  0  0  0
   59.7510   31.8080   48.6930 N   0  0  0  0  0  0  0  0  0  0  0  0
   60.1140   33.1430   48.1540 C   0  0  0  0  0  0  0  0  0  0  0  0
   59.2220   33.5270   47.0010 C   0  0  0  0  0  0  0  0  0  0  0  0
   57.8650   33.1640   46.9970 C   0  0  0  0  0  0  0  0  0  0  0  0
   57.0370   33.5440   45.9360 C   0  0  0  0  0  0  0  0  0  0  0  0
   57.5540   34.2980   44.8780 C   0  0  0  0  0  0  0  0  0  0  0  0
   58.8990   34.6720   44.8790 C   0  0  0  0  0  0  0  0  0  0  0  0
   59.7320   34.2910   45.9370 C   0  0  0  0  0  0  0  0  0  0  0  0
   61.5366   30.8940   46.5235 H   0  0  0  0  0  0  0  0  0  0  0  0
   60.2201   29.7967   45.9857 H   0  0  0  0  0  0  0  0  0  0  0  0
   59.9637   31.5746   45.9857 H   0  0  0  0  0  0  0  0  0  0  0  0
   58.0832   26.1993   48.1143 H   0  0  0  0  0  0  0  0  0  0  0  0
   56.9786   27.4729   47.4553 H   0  0  0  0  0  0  0  0  0  0  0  0
   57.5135   26.3576   45.1395 H   0  0  0  0  0  0  0  0  0  0  0  0
   57.9943   24.9383   46.1783 H   0  0  0  0  0  0  0  0  0  0  0  0
   55.7061   24.6292   45.4756 H   0  0  0  0  0  0  0  0  0  0  0  0
   55.7345   25.0235   47.2333 H   0  0  0  0  0  0  0  0  0  0  0  0
   54.1860   26.2590   46.3820 H   0  0  0  0  0  0  0  0  0  0  0  0
   60.2298   28.2543   45.2650 H   0  0  0  0  0  0  0  0  0  0  0  0
   59.0608   26.9622   44.8224 H   0  0  0  0  0  0  0  0  0  0  0  0
   59.7535   30.2059   44.0573 H   0  0  0  0  0  0  0  0  0  0  0  0
   58.1181   31.8642   43.1638 H   0  0  0  0  0  0  0  0  0  0  0  0
   55.6708   31.5160   43.5053 H   0  0  0  0  0  0  0  0  0  0  0  0
   54.8561   29.5126   44.7565 H   0  0  0  0  0  0  0  0  0  0  0  0
   56.4855   27.8555   45.6625 H   0  0  0  0  0  0  0  0  0  0  0  0
   58.9077   28.3442   50.2431 H   0  0  0  0  0  0  0  0  0  0  0  0
   58.4194   29.3386   52.2853 H   0  0  0  0  0  0  0  0  0  0  0  0
   58.8421   31.0575   52.6063 H   0  0  0  0  0  0  0  0  0  0  0  0
   54.6411   28.6585   53.3171 H   0  0  0  0  0  0  0  0  0  0  0  0
   55.3124   30.2063   53.9572 H   0  0  0  0  0  0  0  0  0  0  0  0
   54.2312   30.6311   50.5806 H   0  0  0  0  0  0  0  0  0  0  0  0
   52.1262   31.7859   49.9012 H   0  0  0  0  0  0  0  0  0  0  0  0
   50.3380   32.2269   51.5858 H   0  0  0  0  0  0  0  0  0  0  0  0
   50.6568   31.5214   53.9595 H   0  0  0  0  0  0  0  0  0  0  0  0
   52.7572   30.3638   54.6488 H   0  0  0  0  0  0  0  0  0  0  0  0
   60.0106   33.8924   48.9525 H   0  0  0  0  0  0  0  0  0  0  0  0
   61.1520   33.1018   47.7923 H   0  0  0  0  0  0  0  0  0  0  0  0
   57.4520   32.5786   47.8317 H   0  0  0  0  0  0  0  0  0  0  0  0
   55.9772   33.2492   45.9338 H   0  0  0  0  0  0  0  0  0  0  0  0
   56.9008   34.5965   44.0448 H   0  0  0  0  0  0  0  0  0  0  0  0
   59.3045   35.2668   44.0473 H   0  0  0  0  0  0  0  0  0  0  0  0
   60.7904   34.5907   45.9360 H   0  0  0  0  0  0  0  0  0  0  0  0
  1  2  1  0
  2  3  2  0
  3  4  1  0
  4  5  2  0
  4  6  1  0
  6  7  1  0
  7  8  1  0
  8  9  1  0
  9 10  1  0
  6 11  1  0
 11 12  1  0
 12 13  2  0
 13 14  1  0
 14 15  2  0
 15 16  1  0
 16 17  2  0
  3 18  1  0
 18 19  2  0
 19 20  1  0
 20 21  1  0
 21 22  2  0
 21 23  1  0
 23 24  1  0
 24 25  1  0
 25 26  2  0
 26 27  1  0
 27 28  2  0
 28 29  1  0
 29 30  2  0
 19 31  1  0
 31 32  2  0
 31 33  1  0
 33 34  1  0
 34 35  1  0
 35 36  2  0
 36 37  1  0
 37 38  2  0
 38 39  1  0
 39 40  2  0
 33  2  1  0
 40 35  1  0
 17 12  1  0
 30 25  1  0
  1 41  1  0
  1 42  1  0
  1 43  1  0
  7 44  1  0
  7 45  1  0
  8 46  1  0
  8 47  1  0
  9 48  1  0
  9 49  1  0
 10 50  1  0
 11 51  1  0
 11 52  1  0
 13 53  1  0
 14 54  1  0
 15 55  1  0
 16 56  1  0
 17 57  1  0
 18 58  1  0
 20 59  1  0
 20 60  1  0
 24 61  1  0
 24 62  1  0
 26 63  1  0
 27 64  1  0
 28 65  1  0
 29 66  1  0
 30 67  1  0
 34 68  1  0
 34 69  1  0
 36 70  1  0
 37 71  1  0
 38 72  1  0
 39 73  1  0
 40 74  1  0
M  CHG  1  23  -1
M  END
>  <UniqueID>  (55) 
52

>  <SMILES>  (55) 
Cc1c(C(=O)N(CCCO)Cc2ccccc2)cc(CC(=O)[N-]Cc2ccccc2)c(=O)n1Cc1ccccc1

>  <Energy>  (55) 
81.06648513847351

>  <Genealogy>  (55) 
Cc1c(C(=O)N(CCCO)Cc2ccccc2)cc(CC(=O)[N-]Cc2ccccc2)c(=O)n1Cc1ccccc1 (protonated)
Cc1c(C(=O)N(CCCO)Cc2ccccc2)cc(CC(=O)[N-]Cc2ccccc2)c(=O)n1Cc1ccccc1 (3D coordinates assigned)
Cc1c(C(=O)N(CCCO)Cc2ccccc2)cc(CC(=O)[N-]Cc2ccccc2)c(=O)n1Cc1ccccc1 (optimized conformer: 81.06648513847351 kcal/mol)

>  <smiles>  (55) 
Cc1c(C(=O)N(CCCO)Cc2ccccc2)cc(CC(=O)NCc2ccccc2)c(=O)n1Cc1ccccc1

>  <score_type>  (55) 
oracle

>  <origin>  (55) 
adg

>  <m_score__min__energy>  (55) 
-12.119999999999999

>  <m_primary>  (55) 
energy

$$$$
55:0
     RDKit          3D

 54 57  0  0  0  0  0  0  0  0999 V2000
   58.9043   27.5456   48.6085 H   0  0  0  0  0  0  0  0  0  0  0  0
   59.4370   28.1530   47.8620 C   0  0  0  0  0  0  0  0  0  0  0  0
   60.3930   29.1610   48.3590 C   0  0  0  0  0  0  0  0  0  0  0  0
   61.1760   29.7140   47.5440 O   0  0  0  0  0  0  0  0  0  0  0  0
   60.3620   29.6120   49.7270 N   0  0  0  0  0  0  0  0  0  0  0  0
   60.9740   28.7480   50.7410 C   0  0  0  0  0  0  0  0  0  0  0  0
   61.1959   27.7718   50.2851 H   0  0  0  0  0  0  0  0  0  0  0  0
   60.2611   28.6535   51.5734 H   0  0  0  0  0  0  0  0  0  0  0  0
   62.2860   29.3390   51.3110 C   0  0  0  0  0  0  0  0  0  0  0  0
   63.1021   28.6361   51.0876 H   0  0  0  0  0  0  0  0  0  0  0  0
   62.1156   29.4827   52.3882 H   0  0  0  0  0  0  0  0  0  0  0  0
   62.6710   30.6980   50.7580 C   0  0  0  0  0  0  0  0  0  0  0  0
   63.9980   31.1330   50.9230 C   0  0  0  0  0  0  0  0  0  0  0  0
   64.7449   30.4522   51.3574 H   0  0  0  0  0  0  0  0  0  0  0  0
   64.3750   32.4190   50.5410 C   0  0  0  0  0  0  0  0  0  0  0  0
   65.4223   32.7392   50.6443 H   0  0  0  0  0  0  0  0  0  0  0  0
   63.4240   33.2990   50.0280 C   0  0  0  0  0  0  0  0  0  0  0  0
   63.7197   34.3204   49.7465 H   0  0  0  0  0  0  0  0  0  0  0  0
   62.0960   32.8910   49.8690 C   0  0  0  0  0  0  0  0  0  0  0  0
   61.2100   33.8040   49.4150 F   0  0  0  0  0  0  0  0  0  0  0  0
   61.7070   31.5720   50.1940 C   0  0  0  0  0  0  0  0  0  0  0  0
   60.2840   31.0510   50.0520 C   0  0  1  0  0  0  0  0  0  0  0  0
   59.7730   31.2137   51.0124 H   0  0  0  0  0  0  0  0  0  0  0  0
   59.4060   31.8130   49.0720 C   0  0  0  0  0  0  0  0  0  0  0  0
   58.3120   32.3090   49.4620 O   0  0  0  0  0  0  0  0  0  0  0  0
   59.8230   31.9760   47.7050 N   0  0  0  0  0  0  0  0  0  0  0  0
   60.7940   31.6810   47.4530 H   0  0  0  0  0  0  0  0  0  0  0  0
   59.1510   32.8490   46.7750 C   0  0  0  0  0  0  0  0  0  0  0  0
   57.7710   32.6920   46.5820 C   0  0  0  0  0  0  0  0  0  0  0  0
   57.2253   31.9335   47.1625 H   0  0  0  0  0  0  0  0  0  0  0  0
   57.0790   33.4850   45.6630 C   0  0  0  0  0  0  0  0  0  0  0  0
   56.0019   33.3317   45.5009 H   0  0  0  0  0  0  0  0  0  0  0  0
   57.7630   34.4740   44.9510 C   0  0  0  0  0  0  0  0  0  0  0  0
   57.2261   35.0873   44.2123 H   0  0  0  0  0  0  0  0  0  0  0  0
   59.1240   34.6870   45.1730 C   0  0  0  0  0  0  0  0  0  0  0  0
   59.6516   35.4759   44.6168 H   0  0  0  0  0  0  0  0  0  0  0  0
   59.8260   33.8990   46.1040 C   0  0  0  0  0  0  0  0  0  0  0  0
   61.2700   34.2210   46.3780 C   0  0  0  0  0  0  0  0  0  0  0  0
   61.4376   34.2584   47.4645 H   0  0  0  0  0  0  0  0  0  0  0  0
   61.9095   33.4434   45.9349 H   0  0  0  0  0  0  0  0  0  0  0  0
   61.5186   35.1966   45.9349 H   0  0  0  0  0  0  0  0  0  0  0  0
   59.1690   27.9220   46.5700 C   0  0  0  0  0  0  0  0  0  0  0  0
   59.5381   26.9843   46.1290 H   0  0  0  0  0  0  0  0  0  0  0  0
   58.4120   28.8410   45.6990 C   0  0  0  0  0  0  0  0  0  0  0  0
   59.0900   29.8040   44.9410 C   0  0  0  0  0  0  0  0  0  0  0  0
   60.1801   29.9118   45.0417 H   0  0  0  0  0  0  0  0  0  0  0  0
   58.3890   30.6280   44.0580 C   0  0  0  0  0  0  0  0  0  0  0  0
   58.9244   31.3983   43.4835 H   0  0  0  0  0  0  0  0  0  0  0  0
   57.0100   30.4760   43.9030 C   0  0  0  0  0  0  0  0  0  0  0  0
   56.4586   31.1290   43.2105 H   0  0  0  0  0  0  0  0  0  0  0  0
   56.3310   29.4940   44.6280 C   0  0  0  0  0  0  0  0  0  0  0  0
   54.9990   29.3220   44.4500 F   0  0  0  0  0  0  0  0  0  0  0  0
   57.0290   28.6750   45.5200 C   0  0  0  0  0  0  0  0  0  0  0  0
   56.4930   27.8974   46.0840 H   0  0  0  0  0  0  0  0  0  0  0  0
  1  2  1  0
  2  3  1  0
  3  4  2  0
  3  5  1  0
  5  6  1  0
  6  7  1  0
  6  8  1  0
  6  9  1  0
  9 10  1  0
  9 11  1  0
  9 12  1  0
 12 13  2  0
 13 14  1  0
 13 15  1  0
 15 16  1  0
 15 17  2  0
 17 18  1  0
 17 19  1  0
 19 20  1  0
 19 21  2  0
 21 22  1  0
 22 23  1  1
 22 24  1  0
 24 25  2  0
 24 26  1  0
 26 27  1  0
 26 28  1  0
 28 29  2  0
 29 30  1  0
 29 31  1  0
 31 32  1  0
 31 33  2  0
 33 34  1  0
 33 35  1  0
 35 36  1  0
 35 37  2  0
 37 38  1  0
 38 39  1  0
 38 40  1  0
 38 41  1  0
  2 42  2  0
 42 43  1  0
 42 44  1  0
 44 45  2  0
 45 46  1  0
 45 47  1  0
 47 48  1  0
 47 49  2  0
 49 50  1  0
 49 51  1  0
 51 52  1  0
 51 53  2  0
 53 54  1  0
 22  5  1  0
 37 28  1  0
 53 44  1  0
 21 12  1  0
M  END
>  <UniqueID>  (56) 
53

>  <SMILES>  (56) 
Cc1ccccc1NC(=O)[C@@H]1c2c(F)cccc2CCN1C(=O)/C=C\c1cccc(F)c1

>  <Energy>  (56) 
90.37867392569359

>  <Genealogy>  (56) 
Cc1ccccc1NC(=O)[C@@H]1c2c(F)cccc2CCN1C(=O)C=Cc1cccc(F)c1 (chirality)
Cc1ccccc1NC(=O)[C@@H]1c2c(F)cccc2CCN1C(=O)/C=C\c1cccc(F)c1 (cis-trans isomerization)
Cc1ccccc1NC(=O)[C@@H]1c2c(F)cccc2CCN1C(=O)/C=C\c1cccc(F)c1 (3D coordinates assigned)
Cc1ccccc1NC(=O)[C@@H]1c2c(F)cccc2CCN1C(=O)/C=C\c1cccc(F)c1 (nonaromatic ring conformer: 90.37867392569359 kcal/mol)

>  <smiles>  (56) 
Cc1ccccc1NC(=O)C1c2c(F)cccc2CCN1C(=O)C=Cc1cccc(F)c1

>  <score_type>  (56) 
oracle

>  <origin>  (56) 
adg

>  <m_score__min__energy>  (56) 
-8.9600000000000009

>  <m_primary>  (56) 
energy

$$$$
56:0
     RDKit          3D

 36 38  0  0  0  0  0  0  0  0999 V2000
   58.5180   34.6680   44.8960 C   0  0  0  0  0  0  0  0  0  0  0  0
   59.5940   34.8110   45.7760 C   0  0  0  0  0  0  0  0  0  0  0  0
   59.5800   34.1600   47.0140 C   0  0  0  0  0  0  0  0  0  0  0  0
   58.4860   33.3550   47.3800 C   0  0  0  0  0  0  0  0  0  0  0  0
   58.4530   32.7110   48.6680 N   0  0  0  0  0  0  0  0  0  0  0  0
   59.0010   31.3830   48.5590 C   0  0  0  0  0  0  0  0  0  0  0  0
   59.0570   30.5410   49.6840 C   0  0  0  0  0  0  0  0  0  0  0  0
   59.6080   29.2620   49.5810 C   0  0  0  0  0  0  0  0  0  0  0  0
   60.1140   28.8100   48.3600 C   0  0  0  0  0  0  0  0  0  0  0  0
   60.0760   29.6410   47.2300 C   0  0  0  0  0  0  0  0  0  0  0  0
   60.5820   29.1460   45.8990 C   0  0  0  0  0  0  0  0  0  0  0  0
   59.5390   29.0740   44.9430 O   0  0  0  0  0  0  0  0  0  0  0  0
   58.3950   28.4200   45.4670 C   0  0  0  0  0  0  0  0  0  0  0  0
   57.1640   29.2120   45.1620 C   0  0  0  0  0  0  0  0  0  0  0  0
   55.9170   28.7070   45.1640 N   0  0  0  0  0  0  0  0  0  0  0  0
   55.1410   29.7380   44.8750 N   0  0  0  0  0  0  0  0  0  0  0  0
   55.8800   30.8240   44.7050 N   0  0  0  0  0  0  0  0  0  0  0  0
   57.1580   30.5260   44.8790 N   0  0  0  0  0  0  0  0  0  0  0  0
   59.5240   30.9270   47.3360 C   0  0  0  0  0  0  0  0  0  0  0  0
   57.4030   33.2250   46.4900 C   0  0  0  0  0  0  0  0  0  0  0  0
   57.4230   33.8770   45.2540 C   0  0  0  0  0  0  0  0  0  0  0  0
   58.5329   35.1780   43.9215 H   0  0  0  0  0  0  0  0  0  0  0  0
   60.4538   35.4368   45.4946 H   0  0  0  0  0  0  0  0  0  0  0  0
   60.4282   34.2781   47.7044 H   0  0  0  0  0  0  0  0  0  0  0  0
   57.4690   32.6650   49.0240 H   0  0  0  0  0  0  0  0  0  0  0  0
   58.9980   33.2710   49.3650 H   0  0  0  0  0  0  0  0  0  0  0  0
   58.6648   30.8917   50.6500 H   0  0  0  0  0  0  0  0  0  0  0  0
   59.6437   28.6080   50.4647 H   0  0  0  0  0  0  0  0  0  0  0  0
   60.5433   27.8001   48.2841 H   0  0  0  0  0  0  0  0  0  0  0  0
   61.3567   29.8353   45.5320 H   0  0  0  0  0  0  0  0  0  0  0  0
   60.9929   28.1353   46.0394 H   0  0  0  0  0  0  0  0  0  0  0  0
   58.3070   27.4219   45.0130 H   0  0  0  0  0  0  0  0  0  0  0  0
   58.5019   28.3276   46.5579 H   0  0  0  0  0  0  0  0  0  0  0  0
   59.5003   31.5842   46.4542 H   0  0  0  0  0  0  0  0  0  0  0  0
   56.5367   32.6071   46.7688 H   0  0  0  0  0  0  0  0  0  0  0  0
   56.5753   33.7673   44.5617 H   0  0  0  0  0  0  0  0  0  0  0  0
  1  2  2  0
  2  3  1  0
  3  4  2  0
  4  5  1  0
  5  6  1  0
  6  7  2  0
  7  8  1  0
  8  9  2  0
  9 10  1  0
 10 11  1  0
 11 12  1  0
 12 13  1  0
 13 14  1  0
 14 15  1  0
 15 16  2  0
 16 17  1  0
 17 18  1  0
 10 19  2  0
  4 20  1  0
 20 21  2  0
 21  1  1  0
 19  6  1  0
 18 14  2  0
  1 22  1  0
  2 23  1  0
  3 24  1  0
  5 25  1  0
  5 26  1  0
  7 27  1  0
  8 28  1  0
  9 29  1  0
 11 30  1  0
 11 31  1  0
 13 32  1  0
 13 33  1  0
 19 34  1  0
 20 35  1  0
 21 36  1  0
M  CHG  2   5   1  17  -1
M  END
>  <UniqueID>  (57) 
54

>  <SMILES>  (57) 
c1ccc([NH2+]c2cccc(COCc3nn[n-]n3)c2)cc1

>  <Energy>  (57) 
79.195374526446

>  <Genealogy>  (57) 
c1ccc([NH2+]c2cccc(COCc3nn[n-]n3)c2)cc1 (protonated)
c1ccc([NH2+]c2cccc(COCc3nn[n-]n3)c2)cc1 (3D coordinates assigned)
c1ccc([NH2+]c2cccc(COCc3nn[n-]n3)c2)cc1 (optimized conformer: 79.195374526446 kcal/mol)

>  <smiles>  (57) 
c1ccc(Nc2cccc(COCc3nn[nH]n3)c2)cc1

>  <score_type>  (57) 
oracle

>  <origin>  (57) 
adg

>  <m_score__min__energy>  (57) 
-8.4399999999999995

>  <m_primary>  (57) 
energy

$$$$
57:0
     RDKit          3D

 43 44  0  0  0  0  0  0  0  0999 V2000
   60.1720   29.3030   46.9040 C   0  0  0  0  0  0  0  0  0  0  0  0
   59.0760   29.8880   47.7880 C   0  0  0  0  0  0  0  0  0  0  0  0
   58.1260   30.6110   47.0050 O   0  0  0  0  0  0  0  0  0  0  0  0
   58.3680   31.8110   46.3140 C   0  0  0  0  0  0  0  0  0  0  0  0
   59.4310   32.6720   46.6570 C   0  0  0  0  0  0  0  0  0  0  0  0
   59.6790   33.8220   45.9040 C   0  0  0  0  0  0  0  0  0  0  0  0
   58.8810   34.1230   44.8000 C   0  0  0  0  0  0  0  0  0  0  0  0
   57.8180   33.2860   44.4590 C   0  0  0  0  0  0  0  0  0  0  0  0
   57.5300   32.1530   45.2300 C   0  0  0  0  0  0  0  0  0  0  0  0
   56.4250   31.3260   44.8430 N   0  0  0  0  0  0  0  0  0  0  0  0
   56.4110   29.8920   44.8150 C   0  0  0  0  0  0  0  0  0  0  0  0
   55.3060   29.2930   44.9000 O   0  0  0  0  0  0  0  0  0  0  0  0
   57.6770   29.0810   44.7190 C   0  0  0  0  0  0  0  0  0  0  0  0
   57.3860   27.7220   44.2240 N   0  0  0  0  0  0  0  0  0  0  0  0
   58.5130   27.2210   43.4270 C   0  0  0  0  0  0  0  0  0  0  0  0
   57.1100   26.6220   45.5590 S   0  0  0  0  0  0  0  0  0  0  0  0
   55.6740   26.7050   46.0010 O   0  0  0  0  0  0  0  0  0  0  0  0
   57.9900   26.9980   46.7180 O   0  0  0  0  0  0  0  0  0  0  0  0
   57.5030   24.9710   45.0900 C   0  0  0  0  0  0  0  0  0  0  0  0
   56.7180   24.3190   44.1270 C   0  0  0  0  0  0  0  0  0  0  0  0
   57.0140   23.0060   43.7520 C   0  0  0  0  0  0  0  0  0  0  0  0
   58.0980   22.3390   44.3290 C   0  0  0  0  0  0  0  0  0  0  0  0
   58.8880   22.9860   45.2840 C   0  0  0  0  0  0  0  0  0  0  0  0
   58.5910   24.2980   45.6670 C   0  0  0  0  0  0  0  0  0  0  0  0
   60.9660   28.8792   47.5364 H   0  0  0  0  0  0  0  0  0  0  0  0
   59.7474   28.5115   46.2689 H   0  0  0  0  0  0  0  0  0  0  0  0
   60.5933   30.0962   46.2689 H   0  0  0  0  0  0  0  0  0  0  0  0
   58.5620   29.0701   48.3142 H   0  0  0  0  0  0  0  0  0  0  0  0
   59.5361   30.5782   48.5104 H   0  0  0  0  0  0  0  0  0  0  0  0
   60.0682   32.4366   47.5222 H   0  0  0  0  0  0  0  0  0  0  0  0
   60.5058   34.4921   46.1822 H   0  0  0  0  0  0  0  0  0  0  0  0
   59.0898   35.0200   44.1985 H   0  0  0  0  0  0  0  0  0  0  0  0
   57.2016   33.5178   43.5779 H   0  0  0  0  0  0  0  0  0  0  0  0
   58.3726   29.5770   44.0261 H   0  0  0  0  0  0  0  0  0  0  0  0
   58.1268   29.0054   45.7200 H   0  0  0  0  0  0  0  0  0  0  0  0
   59.3088   26.8673   44.0990 H   0  0  0  0  0  0  0  0  0  0  0  0
   58.1724   26.3895   42.7925 H   0  0  0  0  0  0  0  0  0  0  0  0
   58.9021   28.0309   42.7925 H   0  0  0  0  0  0  0  0  0  0  0  0
   55.8675   24.8428   43.6662 H   0  0  0  0  0  0  0  0  0  0  0  0
   56.3925   22.4963   43.0010 H   0  0  0  0  0  0  0  0  0  0  0  0
   58.3296   21.3055   44.0320 H   0  0  0  0  0  0  0  0  0  0  0  0
   59.7441   22.4626   45.7347 H   0  0  0  0  0  0  0  0  0  0  0  0
   59.2113   24.8033   46.4219 H   0  0  0  0  0  0  0  0  0  0  0  0
  1  2  1  0
  2  3  1  0
  3  4  1  0
  4  5  2  0
  5  6  1  0
  6  7  2  0
  7  8  1  0
  8  9  2  0
  9 10  1  0
 10 11  1  0
 11 12  2  0
 11 13  1  0
 13 14  1  0
 14 15  1  0
 14 16  1  0
 16 17  2  0
 16 18  2  0
 16 19  1  0
 19 20  2  0
 20 21  1  0
 21 22  2  0
 22 23  1  0
 23 24  2  0
  9  4  1  0
 24 19  1  0
  1 25  1  0
  1 26  1  0
  1 27  1  0
  2 28  1  0
  2 29  1  0
  5 30  1  0
  6 31  1  0
  7 32  1  0
  8 33  1  0
 13 34  1  0
 13 35  1  0
 15 36  1  0
 15 37  1  0
 15 38  1  0
 20 39  1  0
 21 40  1  0
 22 41  1  0
 23 42  1  0
 24 43  1  0
M  CHG  1  10  -1
M  END
>  <UniqueID>  (58) 
55

>  <SMILES>  (58) 
CCOc1ccccc1[N-]C(=O)CN(C)S(=O)(=O)c1ccccc1

>  <Energy>  (58) 
43.57180419959129

>  <Genealogy>  (58) 
CCOc1ccccc1[N-]C(=O)CN(C)S(=O)(=O)c1ccccc1 (protonated)
CCOc1ccccc1[N-]C(=O)CN(C)S(=O)(=O)c1ccccc1 (3D coordinates assigned)
CCOc1ccccc1[N-]C(=O)CN(C)S(=O)(=O)c1ccccc1 (optimized conformer: 43.57180419959129 kcal/mol)

>  <smiles>  (58) 
CCOc1ccccc1NC(=O)CN(C)S(=O)(=O)c1ccccc1

>  <score_type>  (58) 
oracle

>  <origin>  (58) 
adg

>  <m_score__min__energy>  (58) 
-10.66

>  <m_primary>  (58) 
energy

$$$$
58:0
     RDKit          3D

 47 50  0  0  0  0  0  0  0  0999 V2000
   58.5250   33.3550   43.4450 N   0  0  0  0  0  0  0  0  0  0  0  0
   58.6530   33.7700   44.8100 C   0  0  0  0  0  0  0  0  0  0  0  0
   59.4070   34.9140   45.1140 C   0  0  0  0  0  0  0  0  0  0  0  0
   59.5460   35.3390   46.4380 C   0  0  0  0  0  0  0  0  0  0  0  0
   58.9410   34.6190   47.4690 C   0  0  0  0  0  0  0  0  0  0  0  0
   58.1890   33.4780   47.1790 C   0  0  0  0  0  0  0  0  0  0  0  0
   58.0210   33.0550   45.8480 C   0  0  0  0  0  0  0  0  0  0  0  0
   57.2610   31.8750   45.5390 N   0  0  0  0  0  0  0  0  0  0  0  0
   57.7810   30.6570   44.9890 C   0  0  0  0  0  0  0  0  0  0  0  0
   58.0870   30.6300   43.7680 O   0  0  0  0  0  0  0  0  0  0  0  0
   57.9000   29.4200   45.8010 C   0  0  0  0  0  0  0  0  0  0  0  0
   57.0030   28.3600   45.5920 C   0  0  0  0  0  0  0  0  0  0  0  0
   57.0870   27.1800   46.3480 C   0  0  0  0  0  0  0  0  0  0  0  0
   56.1240   26.0790   46.1180 C   0  0  0  0  0  0  0  0  0  0  0  0
   56.5190   24.8840   46.0560 O   0  0  0  0  0  0  0  0  0  0  0  0
   54.7680   26.3480   45.9680 O   0  0  0  0  0  0  0  0  0  0  0  0
   58.0940   27.0570   47.3190 C   0  0  0  0  0  0  0  0  0  0  0  0
   59.0080   28.1020   47.5360 C   0  0  0  0  0  0  0  0  0  0  0  0
   60.0210   28.0160   48.5040 C   0  0  0  0  0  0  0  0  0  0  0  0
   60.1510   26.9840   49.2180 O   0  0  0  0  0  0  0  0  0  0  0  0
   60.8930   29.0890   48.6840 C   0  0  0  0  0  0  0  0  0  0  0  0
   60.7430   30.2390   47.8900 C   0  0  0  0  0  0  0  0  0  0  0  0
   61.6170   31.3800   48.0370 N   0  0  0  0  0  0  0  0  0  0  0  0
   61.4410   32.2640   49.1970 C   0  0  0  0  0  0  0  0  0  0  0  0
   61.9420   33.6730   48.8740 C   0  0  0  0  0  0  0  0  0  0  0  0
   63.2560   33.6300   48.3530 O   0  0  0  0  0  0  0  0  0  0  0  0
   63.2450   32.9770   47.1000 C   0  0  0  0  0  0  0  0  0  0  0  0
   62.8530   31.5040   47.2520 C   0  0  0  0  0  0  0  0  0  0  0  0
   59.7660   30.2850   46.9860 O   0  0  0  0  0  0  0  0  0  0  0  0
   58.9100   29.2880   46.7740 C   0  0  0  0  0  0  0  0  0  0  0  0
   57.9040   32.5540   43.1880 H   0  0  0  0  0  0  0  0  0  0  0  0
   59.0450   33.8320   42.6770 H   0  0  0  0  0  0  0  0  0  0  0  0
   59.8918   35.4798   44.3048 H   0  0  0  0  0  0  0  0  0  0  0  0
   60.1323   36.2410   46.6675 H   0  0  0  0  0  0  0  0  0  0  0  0
   59.0564   34.9504   48.5115 H   0  0  0  0  0  0  0  0  0  0  0  0
   57.7253   32.9067   47.9967 H   0  0  0  0  0  0  0  0  0  0  0  0
   56.2218   28.4558   44.8235 H   0  0  0  0  0  0  0  0  0  0  0  0
   58.1679   26.1351   47.9146 H   0  0  0  0  0  0  0  0  0  0  0  0
   61.6904   29.0360   49.4399 H   0  0  0  0  0  0  0  0  0  0  0  0
   60.3737   32.3100   49.4592 H   0  0  0  0  0  0  0  0  0  0  0  0
   62.0206   31.8639   50.0420 H   0  0  0  0  0  0  0  0  0  0  0  0
   61.2738   34.1321   48.1305 H   0  0  0  0  0  0  0  0  0  0  0  0
   61.9484   34.2666   49.8001 H   0  0  0  0  0  0  0  0  0  0  0  0
   62.5196   33.4761   46.4406 H   0  0  0  0  0  0  0  0  0  0  0  0
   64.2559   33.0280   46.6694 H   0  0  0  0  0  0  0  0  0  0  0  0
   62.6944   31.0666   46.2552 H   0  0  0  0  0  0  0  0  0  0  0  0
   63.6618   30.9722   47.7745 H   0  0  0  0  0  0  0  0  0  0  0  0
  1  2  1  0
  2  3  2  0
  3  4  1  0
  4  5  2  0
  5  6  1  0
  6  7  2  0
  7  8  1  0
  8  9  1  0
  9 10  2  0
  9 11  1  0
 11 12  2  0
 12 13  1  0
 13 14  1  0
 14 15  2  0
 14 16  1  0
 13 17  2  0
 17 18  1  0
 18 19  1  0
 19 20  2  0
 19 21  1  0
 21 22  2  0
 22 23  1  0
 23 24  1  0
 24 25  1  0
 25 26  1  0
 26 27  1  0
 27 28  1  0
 22 29  1  0
 29 30  1  0
  7  2  1  0
 30 11  1  0
 30 18  2  0
 28 23  1  0
  1 31  1  0
  1 32  1  0
  3 33  1  0
  4 34  1  0
  5 35  1  0
  6 36  1  0
 12 37  1  0
 17 38  1  0
 21 39  1  0
 24 40  1  0
 24 41  1  0
 25 42  1  0
 25 43  1  0
 27 44  1  0
 27 45  1  0
 28 46  1  0
 28 47  1  0
M  CHG  2   8  -1  16  -1
M  END
>  <UniqueID>  (59) 
56

>  <SMILES>  (59) 
Nc1ccccc1[N-]C(=O)c1cc(C(=O)[O-])cc2c(=O)cc(N3CCOCC3)oc12

>  <Energy>  (59) 
67.41040179845

>  <Genealogy>  (59) 
Nc1ccccc1[N-]C(=O)c1cc(C(=O)[O-])cc2c(=O)cc(N3CCOCC3)oc12 (protonated)
Nc1ccccc1[N-]C(=O)c1cc(C(=O)[O-])cc2c(=O)cc(N3CCOCC3)oc12 (3D coordinates assigned)
Nc1ccccc1[N-]C(=O)c1cc(C(=O)[O-])cc2c(=O)cc(N3CCOCC3)oc12 (nonaromatic ring conformer: 67.41040179845 kcal/mol)

>  <smiles>  (59) 
Nc1ccccc1NC(=O)c1cc(C(=O)O)cc2c(=O)cc(N3CCOCC3)oc12

>  <score_type>  (59) 
oracle

>  <origin>  (59) 
adg

>  <m_score__min__energy>  (59) 
-11.779999999999999

>  <m_primary>  (59) 
energy

$$$$
59:0
     RDKit          3D

 51 53  0  0  0  0  0  0  0  0999 V2000
   55.5060   28.6240   43.4990 H   0  0  0  0  0  0  0  0  0  0  0  0
   55.5350   29.3320   44.2230 O   0  0  0  0  0  0  0  0  0  0  0  0
   56.7490   29.7910   44.7280 C   0  0  0  0  0  0  0  0  0  0  0  0
   56.8330   31.0490   45.2240 N   0  0  0  0  0  0  0  0  0  0  0  0
   57.9990   31.5550   45.7060 C   0  0  0  0  0  0  0  0  0  0  0  0
   58.0120   32.9110   46.3000 C   0  0  0  0  0  0  0  0  0  0  0  0
   57.4795   33.7091   45.7620 H   0  0  0  0  0  0  0  0  0  0  0  0
   58.6280   33.2370   47.4500 C   0  0  0  0  0  0  0  0  0  0  0  0
   59.6770   34.2780   47.4440 C   0  0  0  0  0  0  0  0  0  0  0  0
   59.9368   34.7938   46.5078 H   0  0  0  0  0  0  0  0  0  0  0  0
   60.3090   34.5910   48.5790 C   0  0  0  0  0  0  0  0  0  0  0  0
   61.0926   35.3629   48.5654 H   0  0  0  0  0  0  0  0  0  0  0  0
   59.9750   33.9200   49.8510 C   0  0  0  0  0  0  0  0  0  0  0  0
   60.5195   34.1912   50.7675 H   0  0  0  0  0  0  0  0  0  0  0  0
   59.0150   32.9830   49.9030 C   0  0  0  0  0  0  0  0  0  0  0  0
   58.6500   32.3510   51.2140 C   0  0  0  0  0  0  0  0  0  0  0  0
   59.0140   32.9812   52.0388 H   0  0  0  0  0  0  0  0  0  0  0  0
   57.5565   32.2534   51.2821 H   0  0  0  0  0  0  0  0  0  0  0  0
   59.1120   31.3550   51.2821 H   0  0  0  0  0  0  0  0  0  0  0  0
   58.2790   32.6420   48.7150 N   0  0  0  0  0  0  0  0  0  0  0  0
   57.4390   32.0330   48.8130 H   0  0  0  0  0  0  0  0  0  0  0  0
   59.1180   30.7670   45.7350 N   0  0  0  0  0  0  0  0  0  0  0  0
   60.3330   31.2920   46.2230 N   0  0  0  0  0  0  0  0  0  0  0  0
   60.8290   32.0150   45.6520 H   0  0  0  0  0  0  0  0  0  0  0  0
   60.8520   30.9570   47.5210 C   0  0  0  0  0  0  0  0  0  0  0  0
   60.2060   30.0170   48.3450 C   0  0  0  0  0  0  0  0  0  0  0  0
   59.2912   29.5172   47.9937 H   0  0  0  0  0  0  0  0  0  0  0  0
   60.7230   29.7160   49.6090 C   0  0  0  0  0  0  0  0  0  0  0  0
   60.2178   28.9754   50.2465 H   0  0  0  0  0  0  0  0  0  0  0  0
   61.8800   30.3540   50.0640 C   0  0  0  0  0  0  0  0  0  0  0  0
   62.2865   30.1139   51.0575 H   0  0  0  0  0  0  0  0  0  0  0  0
   62.5200   31.2970   49.2560 C   0  0  0  0  0  0  0  0  0  0  0  0
   63.4293   31.8011   49.6153 H   0  0  0  0  0  0  0  0  0  0  0  0
   62.0070   31.6010   47.9920 C   0  0  0  0  0  0  0  0  0  0  0  0
   62.5112   32.3492   47.3626 H   0  0  0  0  0  0  0  0  0  0  0  0
   59.0830   29.4980   45.2240 C   0  0  0  0  0  0  0  0  0  0  0  0
   60.1370   28.8040   45.1910 O   0  0  0  0  0  0  0  0  0  0  0  0
   57.8810   28.9660   44.7250 C   0  0  0  0  0  0  0  0  0  0  0  0
   57.8220   27.5730   44.1390 C   0  0  0  0  0  0  0  0  0  0  0  0
   58.7853   27.3397   43.6619 H   0  0  0  0  0  0  0  0  0  0  0  0
   57.0118   27.5333   43.3960 H   0  0  0  0  0  0  0  0  0  0  0  0
   57.5390   26.5390   45.2390 C   0  0  0  0  0  0  0  0  0  0  0  0
   57.1087   25.6393   44.7748 H   0  0  0  0  0  0  0  0  0  0  0  0
   56.8425   26.9973   45.9565 H   0  0  0  0  0  0  0  0  0  0  0  0
   58.8060   26.1370   46.0110 C   0  0  0  0  0  0  0  0  0  0  0  0
   59.6861   26.4234   45.4165 H   0  0  0  0  0  0  0  0  0  0  0  0
   58.7632   25.0504   46.1769 H   0  0  0  0  0  0  0  0  0  0  0  0
   58.9010   26.8100   47.3810 C   0  0  0  0  0  0  0  0  0  0  0  0
   58.7939   26.0514   48.1704 H   0  0  0  0  0  0  0  0  0  0  0  0
   59.8780   27.3058   47.4790 H   0  0  0  0  0  0  0  0  0  0  0  0
   58.0994   27.5569   47.4790 H   0  0  0  0  0  0  0  0  0  0  0  0
  1  2  1  0
  2  3  1  0
  3  4  1  0
  4  5  2  0
  5  6  1  0
  6  7  1  0
  6  8  2  0
  8  9  1  0
  9 10  1  0
  9 11  2  0
 11 12  1  0
 11 13  1  0
 13 14  1  0
 13 15  2  0
 15 16  1  0
 16 17  1  0
 16 18  1  0
 16 19  1  0
 15 20  1  0
 20 21  1  0
  5 22  1  0
 22 23  1  0
 23 24  1  0
 23 25  1  0
 25 26  2  0
 26 27  1  0
 26 28  1  0
 28 29  1  0
 28 30  2  0
 30 31  1  0
 30 32  1  0
 32 33  1  0
 32 34  2  0
 34 35  1  0
 22 36  1  0
 36 37  2  0
 36 38  1  0
 38 39  1  0
 39 40  1  0
 39 41  1  0
 39 42  1  0
 42 43  1  0
 42 44  1  0
 42 45  1  0
 45 46  1  0
 45 47  1  0
 45 48  1  0
 48 49  1  0
 48 50  1  0
 48 51  1  0
 38  3  2  0
 20  8  1  0
 34 25  1  0
M  END
>  <UniqueID>  (60) 
57

>  <SMILES>  (60) 
CCCCc1c(O)nc(/C=C2/C=CC=C(C)N2)n(Nc2ccccc2)c1=O

>  <Energy>  (60) 
57.82542580927742

>  <Genealogy>  (60) 
CCCCc1c(O)nc(/C=C2/C=CC=C(C)N2)n(Nc2ccccc2)c1=O (cis-trans isomerization)
CCCCc1c(O)nc(/C=C2/C=CC=C(C)N2)n(Nc2ccccc2)c1=O (3D coordinates assigned)
CCCCc1c(O)nc(/C=C2/C=CC=C(C)N2)n(Nc2ccccc2)c1=O (nonaromatic ring conformer: 57.82542580927742 kcal/mol)

>  <smiles>  (60) 
CCCCc1c(O)nc(C=C2C=CC=C(C)N2)n(Nc2ccccc2)c1=O

>  <score_type>  (60) 
oracle

>  <origin>  (60) 
adg

>  <m_score__min__energy>  (60) 
-8.1199999999999992

>  <m_primary>  (60) 
energy

$$$$
60:0
     RDKit          3D

 37 39  0  0  0  0  0  0  0  0999 V2000
   56.3077   21.5637   42.5325 H   0  0  0  0  0  0  0  0  0  0  0  0
   56.5620   22.2970   43.3120 C   0  0  0  0  0  0  0  0  0  0  0  0
   56.7970   21.8710   44.6220 C   0  0  0  0  0  0  0  0  0  0  0  0
   56.7318   20.8017   44.8718 H   0  0  0  0  0  0  0  0  0  0  0  0
   57.1150   22.8020   45.6160 C   0  0  0  0  0  0  0  0  0  0  0  0
   57.3062   22.4621   46.6446 H   0  0  0  0  0  0  0  0  0  0  0  0
   57.1910   24.1700   45.3050 C   0  0  0  0  0  0  0  0  0  0  0  0
   57.5710   25.1680   46.3640 C   0  0  0  0  0  0  0  0  0  0  0  0
   58.6539   25.1088   46.5482 H   0  0  0  0  0  0  0  0  0  0  0  0
   57.0213   24.9389   47.2889 H   0  0  0  0  0  0  0  0  0  0  0  0
   57.2200   26.5520   45.9150 C   0  0  0  0  0  0  0  0  0  0  0  0
   58.3270   27.7270   45.4420 S   0  0  0  0  0  0  0  0  0  0  0  0
   57.1170   28.8330   45.0230 C   0  0  0  0  0  0  0  0  0  0  0  0
   57.3020   30.0480   44.5980 N   0  0  0  0  0  0  0  0  0  0  0  0
   57.9960   31.0980   45.2890 C   0  0  0  0  0  0  0  0  0  0  0  0
   57.5900   32.4240   45.0880 C   0  0  0  0  0  0  0  0  0  0  0  0
   56.7337   32.6402   44.4323 H   0  0  0  0  0  0  0  0  0  0  0  0
   58.2670   33.4740   45.7160 C   0  0  0  0  0  0  0  0  0  0  0  0
   57.9278   34.5101   45.5697 H   0  0  0  0  0  0  0  0  0  0  0  0
   59.3760   33.2110   46.5310 C   0  0  0  0  0  0  0  0  0  0  0  0
   60.2190   34.5310   47.3340 S   0  0  0  0  0  0  0  0  0  0  0  0
   61.6960   34.2550   47.3540 O   0  0  0  0  0  0  0  0  0  0  0  0
   59.9810   35.8160   46.5910 O   0  0  0  0  0  0  0  0  0  0  0  0
   59.6390   34.6880   48.9560 N   0  0  0  0  0  0  0  0  0  0  0  0
   58.8700   33.9910   49.0730 H   0  0  0  0  0  0  0  0  0  0  0  0
   59.2050   35.6340   49.0330 H   0  0  0  0  0  0  0  0  0  0  0  0
   59.8020   31.8880   46.7130 C   0  0  0  0  0  0  0  0  0  0  0  0
   60.6724   31.6751   47.3511 H   0  0  0  0  0  0  0  0  0  0  0  0
   59.1240   30.8380   46.0860 C   0  0  0  0  0  0  0  0  0  0  0  0
   59.4751   29.8038   46.2172 H   0  0  0  0  0  0  0  0  0  0  0  0
   55.8830   28.3310   45.2410 N   0  0  0  0  0  0  0  0  0  0  0  0
   55.9380   27.0610   45.7230 C   0  0  0  0  0  0  0  0  0  0  0  0
   54.7860   26.3360   45.9980 O   0  0  0  0  0  0  0  0  0  0  0  0
   56.9660   24.5890   43.9830 C   0  0  0  0  0  0  0  0  0  0  0  0
   57.0388   25.6562   43.7267 H   0  0  0  0  0  0  0  0  0  0  0  0
   56.6500   23.6550   42.9920 C   0  0  0  0  0  0  0  0  0  0  0  0
   56.4704   23.9890   41.9594 H   0  0  0  0  0  0  0  0  0  0  0  0
  1  2  1  0
  2  3  2  0
  3  4  1  0
  3  5  1  0
  5  6  1  0
  5  7  2  0
  7  8  1  0
  8  9  1  0
  8 10  1  0
  8 11  1  0
 11 12  1  0
 12 13  1  0
 13 14  2  0
 14 15  1  0
 15 16  2  0
 16 17  1  0
 16 18  1  0
 18 19  1  0
 18 20  2  0
 20 21  1  0
 21 22  2  0
 21 23  2  0
 21 24  1  0
 24 25  1  0
 24 26  1  0
 20 27  1  0
 27 28  1  0
 27 29  2  0
 29 30  1  0
 13 31  1  0
 31 32  1  0
 32 33  1  0
  7 34  1  0
 34 35  1  0
 34 36  2  0
 36 37  1  0
 36  2  1  0
 32 11  2  0
 29 15  1  0
M  CHG  2  31  -1  33  -1
M  END
>  <UniqueID>  (61) 
58

>  <SMILES>  (61) 
NS(=O)(=O)c1ccc(/N=c2/[n-]c([O-])c(Cc3ccccc3)s2)cc1

>  <Energy>  (61) 
73.96086074014251

>  <Genealogy>  (61) 
NS(=O)(=O)c1ccc(N=c2[n-]c([O-])c(Cc3ccccc3)s2)cc1 (protonated)
NS(=O)(=O)c1ccc(/N=c2/[n-]c([O-])c(Cc3ccccc3)s2)cc1 (cis-trans isomerization)
NS(=O)(=O)c1ccc(/N=c2/[n-]c([O-])c(Cc3ccccc3)s2)cc1 (3D coordinates assigned)
NS(=O)(=O)c1ccc(/N=c2/[n-]c([O-])c(Cc3ccccc3)s2)cc1 (optimized conformer: 73.96086074014251 kcal/mol)

>  <smiles>  (61) 
NS(=O)(=O)c1ccc(N=c2[nH]c(O)c(Cc3ccccc3)s2)cc1

>  <score_type>  (61) 
oracle

>  <origin>  (61) 
adg

>  <m_score__min__energy>  (61) 
-13.67

>  <m_primary>  (61) 
energy

$$$$
61:0
     RDKit          3D

 42 44  0  0  0  0  0  0  0  0999 V2000
   54.3840   25.8990   45.7430 O   0  0  0  0  0  0  0  0  0  0  0  0
   55.6360   25.8600   45.8960 C   0  0  0  0  0  0  0  0  0  0  0  0
   56.1490   24.6410   46.3350 C   0  0  0  0  0  0  0  0  0  0  0  0
   57.4590   24.2470   46.5560 C   0  0  0  0  0  0  0  0  0  0  0  0
   57.6500   22.9410   47.0030 O   0  0  0  0  0  0  0  0  0  0  0  0
   58.6010   25.0070   46.3690 C   0  0  0  0  0  0  0  0  0  0  0  0
   58.7190   26.3340   45.9850 C   0  0  0  0  0  0  0  0  0  0  0  0
   57.7280   27.2820   45.6970 C   0  0  0  0  0  0  0  0  0  0  0  0
   58.2390   28.6940   45.3940 C   0  0  0  0  0  0  0  0  0  0  0  0
   58.5950   29.4840   46.5960 N   0  0  0  0  0  0  0  0  0  0  0  0
   58.4480   28.7350   47.8610 C   0  0  0  0  0  0  0  0  0  0  0  0
   59.0020   29.5060   49.0820 C   0  0  0  0  0  0  0  0  0  0  0  0
   59.2980   30.9170   48.7820 N   0  0  0  0  0  0  0  0  0  0  0  0
   59.2110   31.9010   49.8340 C   0  0  0  0  0  0  0  0  0  0  0  0
   60.2000   32.8920   49.9700 C   0  0  0  0  0  0  0  0  0  0  0  0
   60.1120   33.8460   50.9860 C   0  0  0  0  0  0  0  0  0  0  0  0
   59.0350   33.8250   51.8800 C   0  0  0  0  0  0  0  0  0  0  0  0
   58.9350   34.7700   52.8980 O   0  0  0  0  0  0  0  0  0  0  0  0
   58.0450   32.8450   51.7520 C   0  0  0  0  0  0  0  0  0  0  0  0
   58.1310   31.8890   50.7360 C   0  0  0  0  0  0  0  0  0  0  0  0
   59.9310   31.2940   47.5070 C   0  0  0  0  0  0  0  0  0  0  0  0
   59.9070   30.1390   46.5090 C   0  0  0  0  0  0  0  0  0  0  0  0
   56.3350   27.0490   45.6250 C   0  0  0  0  0  0  0  0  0  0  0  0
   55.5340   28.1270   45.2450 O   0  0  0  0  0  0  0  0  0  0  0  0
   55.3933   23.8680   46.5386 H   0  0  0  0  0  0  0  0  0  0  0  0
   59.5508   24.4829   46.5512 H   0  0  0  0  0  0  0  0  0  0  0  0
   59.7522   26.6999   45.8918 H   0  0  0  0  0  0  0  0  0  0  0  0
   59.1342   28.6080   44.7606 H   0  0  0  0  0  0  0  0  0  0  0  0
   57.4148   29.2280   44.8985 H   0  0  0  0  0  0  0  0  0  0  0  0
   57.3796   28.5334   48.0279 H   0  0  0  0  0  0  0  0  0  0  0  0
   59.0286   27.8056   47.7650 H   0  0  0  0  0  0  0  0  0  0  0  0
   58.2559   29.4678   49.8894 H   0  0  0  0  0  0  0  0  0  0  0  0
   59.9470   29.0253   49.3752 H   0  0  0  0  0  0  0  0  0  0  0  0
   61.0489   32.9157   49.2709 H   0  0  0  0  0  0  0  0  0  0  0  0
   60.8912   34.6162   51.0841 H   0  0  0  0  0  0  0  0  0  0  0  0
   58.5240   35.6820   52.7400 H   0  0  0  0  0  0  0  0  0  0  0  0
   57.1970   32.8267   52.4524 H   0  0  0  0  0  0  0  0  0  0  0  0
   57.3487   31.1216   50.6408 H   0  0  0  0  0  0  0  0  0  0  0  0
   59.3886   32.1492   47.0775 H   0  0  0  0  0  0  0  0  0  0  0  0
   60.9804   31.5569   47.7064 H   0  0  0  0  0  0  0  0  0  0  0  0
   60.0643   30.5237   45.4905 H   0  0  0  0  0  0  0  0  0  0  0  0
   60.7066   29.4200   46.7408 H   0  0  0  0  0  0  0  0  0  0  0  0
  1  2  2  0
  2  3  1  0
  3  4  2  0
  4  5  1  0
  4  6  1  0
  6  7  2  0
  7  8  1  0
  8  9  1  0
  9 10  1  0
 10 11  1  0
 11 12  1  0
 12 13  1  0
 13 14  1  0
 14 15  2  0
 15 16  1  0
 16 17  2  0
 17 18  1  0
 17 19  1  0
 19 20  2  0
 13 21  1  0
 21 22  1  0
  8 23  2  0
 23 24  1  0
 23  2  1  0
 22 10  1  0
 20 14  1  0
  3 25  1  0
  6 26  1  0
  7 27  1  0
  9 28  1  0
  9 29  1  0
 11 30  1  0
 11 31  1  0
 12 32  1  0
 12 33  1  0
 15 34  1  0
 16 35  1  0
 18 36  1  0
 19 37  1  0
 20 38  1  0
 21 39  1  0
 21 40  1  0
 22 41  1  0
 22 42  1  0
M  CHG  2   5  -1  24  -1
M  END
>  <UniqueID>  (62) 
59

>  <SMILES>  (62) 
O=c1cc([O-])ccc(CN2CCN(c3ccc(O)cc3)CC2)c1[O-]

>  <Energy>  (62) 
80.2817719733929

>  <Genealogy>  (62) 
O=c1cc([O-])ccc(CN2CCN(c3ccc(O)cc3)CC2)c1[O-] (protonated)
O=c1cc([O-])ccc(CN2CCN(c3ccc(O)cc3)CC2)c1[O-] (3D coordinates assigned)
O=c1cc([O-])ccc(CN2CCN(c3ccc(O)cc3)CC2)c1[O-] (nonaromatic ring conformer: 80.2817719733929 kcal/mol)

>  <smiles>  (62) 
O=c1cc(O)ccc(CN2CCN(c3ccc(O)cc3)CC2)c1O

>  <score_type>  (62) 
oracle

>  <origin>  (62) 
adg

>  <m_score__min__energy>  (62) 
-12.01

>  <m_primary>  (62) 
energy

$$$$
62:0
     RDKit          3D

 55 58  0  0  0  0  0  0  0  0999 V2000
   54.4820   31.6170   51.1500 H   0  0  0  0  0  0  0  0  0  0  0  0
   55.3380   31.5910   51.6860 O   0  0  0  0  0  0  0  0  0  0  0  0
   55.7440   30.4770   52.4260 C   0  0  0  0  0  0  0  0  0  0  0  0
   57.1030   30.3470   52.7740 C   0  0  0  0  0  0  0  0  0  0  0  0
   58.0500   31.3840   52.4940 N   0  0  0  0  0  0  0  0  0  0  0  0
   58.5420   31.7840   50.8810 S   0  0  0  0  0  0  0  0  0  0  0  0
   57.3570   32.3050   50.1190 O   0  0  0  0  0  0  0  0  0  0  0  0
   59.5990   32.8520   50.9090 O   0  0  0  0  0  0  0  0  0  0  0  0
   59.1390   30.3320   50.0830 C   0  0  0  0  0  0  0  0  0  0  0  0
   60.1510   29.5600   50.6720 C   0  0  0  0  0  0  0  0  0  0  0  0
   60.6340   29.9031   51.5988 H   0  0  0  0  0  0  0  0  0  0  0  0
   60.5470   28.3560   50.0840 C   0  0  0  0  0  0  0  0  0  0  0  0
   61.3318   27.7467   50.5561 H   0  0  0  0  0  0  0  0  0  0  0  0
   59.9480   27.9240   48.8970 C   0  0  0  0  0  0  0  0  0  0  0  0
   60.2503   26.9661   48.4486 H   0  0  0  0  0  0  0  0  0  0  0  0
   58.9620   28.7070   48.2740 C   0  0  0  0  0  0  0  0  0  0  0  0
   58.3080   28.2630   47.0230 C   0  0  0  0  0  0  0  0  0  0  0  0
   58.2640   27.0320   46.7620 O   0  0  0  0  0  0  0  0  0  0  0  0
   57.6760   29.1770   46.1190 N   0  0  0  0  0  0  0  0  0  0  0  0
   58.3580   29.9680   45.1000 C   0  0  0  0  0  0  0  0  0  0  0  0
   59.4055   29.6416   45.0215 H   0  0  0  0  0  0  0  0  0  0  0  0
   57.8591   29.8282   44.1297 H   0  0  0  0  0  0  0  0  0  0  0  0
   58.3120   31.4180   45.4850 C   0  0  0  0  0  0  0  0  0  0  0  0
   59.1670   31.9170   46.4810 C   0  0  0  0  0  0  0  0  0  0  0  0
   59.8878   31.2466   46.9719 H   0  0  0  0  0  0  0  0  0  0  0  0
   59.1040   33.2640   46.8500 C   0  0  0  0  0  0  0  0  0  0  0  0
   59.7822   33.6531   47.6237 H   0  0  0  0  0  0  0  0  0  0  0  0
   58.1810   34.1180   46.2380 C   0  0  0  0  0  0  0  0  0  0  0  0
   58.1361   35.1784   46.5272 H   0  0  0  0  0  0  0  0  0  0  0  0
   57.3160   33.6230   45.2590 C   0  0  0  0  0  0  0  0  0  0  0  0
   56.5862   34.2934   44.7816 H   0  0  0  0  0  0  0  0  0  0  0  0
   57.3760   32.2780   44.8850 C   0  0  0  0  0  0  0  0  0  0  0  0
   56.6885   31.8909   44.1185 H   0  0  0  0  0  0  0  0  0  0  0  0
   58.5430   29.9000   48.8890 C   0  0  0  0  0  0  0  0  0  0  0  0
   57.7422   30.4987   48.4305 H   0  0  0  0  0  0  0  0  0  0  0  0
   57.5540   29.1790   53.3970 C   0  0  0  0  0  0  0  0  0  0  0  0
   58.6234   29.0584   53.6249 H   0  0  0  0  0  0  0  0  0  0  0  0
   56.6550   28.1660   53.7310 C   0  0  0  0  0  0  0  0  0  0  0  0
   57.0165   27.2514   54.2238 H   0  0  0  0  0  0  0  0  0  0  0  0
   55.2980   28.3110   53.4410 C   0  0  0  0  0  0  0  0  0  0  0  0
   54.5909   27.5186   53.7276 H   0  0  0  0  0  0  0  0  0  0  0  0
   54.8280   29.4610   52.7860 C   0  0  0  0  0  0  0  0  0  0  0  0
   53.3780   29.5990   52.5300 C   0  0  0  0  0  0  0  0  0  0  0  0
   52.6060   28.6720   52.8870 O   0  0  0  0  0  0  0  0  0  0  0  0
   52.8230   30.7130   51.8110 N   0  0  0  0  0  0  0  0  0  0  0  0
   52.2000   30.6870   50.6660 C   0  0  0  0  0  0  0  0  0  0  0  0
   52.4410   29.7050   49.7520 N   0  0  0  0  0  0  0  0  0  0  0  0
   51.8180   29.6710   48.5450 C   0  0  0  0  0  0  0  0  0  0  0  0
   52.0371   28.8599   47.8350 H   0  0  0  0  0  0  0  0  0  0  0  0
   50.9000   30.6660   48.2070 C   0  0  0  0  0  0  0  0  0  0  0  0
   50.3879   30.6419   47.2338 H   0  0  0  0  0  0  0  0  0  0  0  0
   50.6380   31.6920   49.1160 C   0  0  0  0  0  0  0  0  0  0  0  0
   49.9188   32.4843   48.8612 H   0  0  0  0  0  0  0  0  0  0  0  0
   51.2920   31.7100   50.3510 C   0  0  0  0  0  0  0  0  0  0  0  0
   51.0380   32.7360   51.2530 O   0  0  0  0  0  0  0  0  0  0  0  0
  1  2  1  0
  2  3  1  0
  3  4  2  0
  4  5  1  0
  5  6  1  0
  6  7  2  0
  6  8  2  0
  6  9  1  0
  9 10  2  0
 10 11  1  0
 10 12  1  0
 12 13  1  0
 12 14  2  0
 14 15  1  0
 14 16  1  0
 16 17  1  0
 17 18  2  0
 17 19  1  0
 19 20  1  0
 20 21  1  0
 20 22  1  0
 20 23  1  0
 23 24  2  0
 24 25  1  0
 24 26  1  0
 26 27  1  0
 26 28  2  0
 28 29  1  0
 28 30  1  0
 30 31  1  0
 30 32  2  0
 32 33  1  0
 16 34  2  0
 34 35  1  0
  4 36  1  0
 36 37  1  0
 36 38  2  0
 38 39  1  0
 38 40  1  0
 40 41  1  0
 40 42  2  0
 42 43  1  0
 43 44  2  0
 43 45  1  0
 45 46  2  0
 46 47  1  0
 47 48  1  0
 48 49  1  0
 48 50  2  0
 50 51  1  0
 50 52  1  0
 52 53  1  0
 52 54  2  0
 54 55  1  0
 42  3  1  0
 54 46  1  0
 34  9  1  0
 32 23  1  0
M  CHG  4   5  -1  19  -1  47  -1  55  -1
M  END
>  <UniqueID>  (63) 
60

>  <SMILES>  (63) 
O=C([N-]Cc1ccccc1)c1cccc(S(=O)(=O)[N-]c2cccc(C(=O)/N=c3\[n-]cccc3[O-])c2O)c1

>  <Energy>  (63) 
82.708384510306

>  <Genealogy>  (63) 
O=C([N-]Cc1ccccc1)c1cccc(S(=O)(=O)[N-]c2cccc(C(=O)N=c3[n-]cccc3[O-])c2O)c1 (protonated)
O=C([N-]Cc1ccccc1)c1cccc(S(=O)(=O)[N-]c2cccc(C(=O)/N=c3\[n-]cccc3[O-])c2O)c1 (cis-trans isomerization)
O=C([N-]Cc1ccccc1)c1cccc(S(=O)(=O)[N-]c2cccc(C(=O)/N=c3\[n-]cccc3[O-])c2O)c1 (3D coordinates assigned)
O=C([N-]Cc1ccccc1)c1cccc(S(=O)(=O)[N-]c2cccc(C(=O)/N=c3\[n-]cccc3[O-])c2O)c1 (optimized conformer: 82.708384510306 kcal/mol)

>  <smiles>  (63) 
O=C(NCc1ccccc1)c1cccc(S(=O)(=O)Nc2cccc(C(=O)N=c3[nH]cccc3O)c2O)c1

>  <score_type>  (63) 
oracle

>  <origin>  (63) 
adg

>  <m_score__min__energy>  (63) 
-16.870000000000001

>  <m_primary>  (63) 
energy

$$$$
63:0
     RDKit          3D

 83 86  0  0  1  0  0  0  0  0999 V2000
   57.7780   32.8210   44.1460 C   0  0  0  0  0  0  0  0  0  0  0  0
   57.7540   31.4540   43.4950 C   0  0  0  0  0  0  0  0  0  0  0  0
   56.7140   30.5720   44.1510 C   0  0  0  0  0  0  0  0  0  0  0  0
   57.4780   29.1840   45.0320 S   0  0  0  0  0  0  0  0  0  0  0  0
   58.2040   29.8300   46.5460 C   0  0  0  0  0  0  0  0  0  0  0  0
   58.3100   31.1550   46.7280 N   0  0  0  0  0  0  0  0  0  0  0  0
   58.8490   31.6500   47.8550 C   0  0  0  0  0  0  0  0  0  0  0  0
   58.9290   32.9120   47.9890 N   0  0  0  0  0  0  0  0  0  0  0  0
   60.3240   33.7400   47.3960 S   0  0  0  0  0  0  0  0  0  0  0  0
   60.0670   35.2160   47.4990 O   0  0  0  0  0  0  0  0  0  0  0  0
   60.5500   33.4530   45.9350 O   0  0  0  0  0  0  0  0  0  0  0  0
   61.7390   33.3760   48.3380 C   0  0  0  0  0  0  0  0  0  0  0  0
   62.1190   34.2230   49.3650 C   0  0  0  0  0  0  0  0  0  0  0  0
   63.2330   33.9880   50.1460 C   0  0  0  0  0  0  0  0  0  0  0  0
   63.9910   32.8740   49.8940 C   0  0  0  0  0  0  0  0  0  0  0  0
   65.1890   32.5800   50.6980 C   0  0  0  0  0  0  0  0  0  0  0  0
   65.3080   31.1170   51.0440 C   0  0  0  0  0  0  0  0  0  0  0  0
   65.0790   33.3570   52.0040 C   0  0  0  0  0  0  0  0  0  0  0  0
   66.4780   33.0210   50.0390 C   0  0  0  0  0  0  0  0  0  0  0  0
   63.6610   31.9950   48.8830 C   0  0  0  0  0  0  0  0  0  0  0  0
   62.5310   32.2470   48.1000 C   0  0  0  0  0  0  0  0  0  0  0  0
   59.2870   30.7830   48.8120 C   0  0  0  0  0  0  0  0  0  0  0  0
   59.8410   31.3140   49.9660 O   0  0  0  0  0  0  0  0  0  0  0  0
   59.1430   32.1060   50.8630 C   0  0  0  0  0  0  0  0  0  0  0  0
   59.5620   33.4050   51.1370 C   0  0  0  0  0  0  0  0  0  0  0  0
   58.8700   34.2000   52.0310 C   0  0  0  0  0  0  0  0  0  0  0  0
   57.7530   33.6970   52.6560 C   0  0  0  0  0  0  0  0  0  0  0  0
   57.3430   32.4020   52.3780 C   0  0  0  0  0  0  0  0  0  0  0  0
   58.0270   31.5900   51.4830 C   0  0  0  0  0  0  0  0  0  0  0  0
   57.5620   30.3060   51.2510 O   0  0  0  0  0  0  0  0  0  0  0  0
   57.5560   29.4090   52.3520 C   0  0  0  0  0  0  0  0  0  0  0  0
   59.1950   29.3730   48.6600 C   0  0  0  0  0  0  0  0  0  0  0  0
   59.6590   28.6520   49.6690 O   0  0  0  0  0  0  0  0  0  0  0  0
   60.7010   28.3710   50.4170 C   0  0  0  0  0  0  0  0  0  0  0  0
   61.5410   29.4500   50.7870 C   0  0  0  0  0  0  0  0  0  0  0  0
   62.6550   29.2630   51.5640 C   0  0  0  0  0  0  0  0  0  0  0  0
   63.0180   28.0340   52.0230 C   0  0  0  0  0  0  0  0  0  0  0  0
   64.1440   27.7750   52.8280 N   0  0  0  0  0  0  0  0  0  0  0  0
   65.4920   27.7840   52.3990 C   0  0  0  0  0  0  0  0  0  0  0  0
   66.5910   27.4830   53.3860 C   0  0  0  0  0  0  0  0  0  0  0  0
   65.8690   28.0290   51.2330 O   0  0  0  0  0  0  0  0  0  0  0  0
   62.2260   26.9610   51.6830 C   0  0  0  0  0  0  0  0  0  0  0  0
   62.5670   25.5980   52.1460 C   0  0  0  0  0  0  0  0  0  0  0  0
   61.1080   27.1490   50.9030 C   0  0  0  0  0  0  0  0  0  0  0  0
   58.6430   28.9790   47.5050 N   0  0  0  0  0  0  0  0  0  0  0  0
   57.7760   32.7062   45.2400 H   0  0  0  0  0  0  0  0  0  0  0  0
   58.6857   33.3591   43.8355 H   0  0  0  0  0  0  0  0  0  0  0  0
   56.8897   33.3907   43.8355 H   0  0  0  0  0  0  0  0  0  0  0  0
   57.5126   31.5657   42.4277 H   0  0  0  0  0  0  0  0  0  0  0  0
   58.7426   30.9864   43.6136 H   0  0  0  0  0  0  0  0  0  0  0  0
   56.1350   31.1741   44.8667 H   0  0  0  0  0  0  0  0  0  0  0  0
   56.0624   30.1640   43.3643 H   0  0  0  0  0  0  0  0  0  0  0  0
   61.5104   35.1169   49.5664 H   0  0  0  0  0  0  0  0  0  0  0  0
   63.5070   34.6813   50.9548 H   0  0  0  0  0  0  0  0  0  0  0  0
   65.3176   30.9985   52.1375 H   0  0  0  0  0  0  0  0  0  0  0  0
   64.4514   30.5699   50.6234 H   0  0  0  0  0  0  0  0  0  0  0  0
   66.2418   30.7155   50.6234 H   0  0  0  0  0  0  0  0  0  0  0  0
   65.1771   32.6638   52.8524 H   0  0  0  0  0  0  0  0  0  0  0  0
   65.8795   34.1100   52.0512 H   0  0  0  0  0  0  0  0  0  0  0  0
   64.1009   33.8582   52.0512 H   0  0  0  0  0  0  0  0  0  0  0  0
   67.2176   33.2740   50.8129 H   0  0  0  0  0  0  0  0  0  0  0  0
   66.8674   32.2050   49.4125 H   0  0  0  0  0  0  0  0  0  0  0  0
   66.2859   33.9045   49.4125 H   0  0  0  0  0  0  0  0  0  0  0  0
   64.2805   31.1056   48.6953 H   0  0  0  0  0  0  0  0  0  0  0  0
   62.2621   31.5525   47.2904 H   0  0  0  0  0  0  0  0  0  0  0  0
   60.4559   33.8040   50.6352 H   0  0  0  0  0  0  0  0  0  0  0  0
   59.2094   35.2251   52.2406 H   0  0  0  0  0  0  0  0  0  0  0  0
   57.1901   34.3163   53.3698 H   0  0  0  0  0  0  0  0  0  0  0  0
   56.4489   32.0059   52.8816 H   0  0  0  0  0  0  0  0  0  0  0  0
   57.5598   29.9814   53.2913 H   0  0  0  0  0  0  0  0  0  0  0  0
   56.6536   28.7814   52.3087 H   0  0  0  0  0  0  0  0  0  0  0  0
   58.4499   28.7694   52.3087 H   0  0  0  0  0  0  0  0  0  0  0  0
   61.2930   30.4646   50.4418 H   0  0  0  0  0  0  0  0  0  0  0  0
   63.2749   30.1335   51.8247 H   0  0  0  0  0  0  0  0  0  0  0  0
   64.0110   27.5460   53.8630 H   0  0  0  0  0  0  0  0  0  0  0  0
   66.2034   27.5892   54.4100 H   0  0  0  0  0  0  0  0  0  0  0  0
   66.9485   26.4539   53.2341 H   0  0  0  0  0  0  0  0  0  0  0  0
   67.4230   28.1863   53.2341 H   0  0  0  0  0  0  0  0  0  0  0  0
   62.5727   25.5751   53.2457 H   0  0  0  0  0  0  0  0  0  0  0  0
   61.8196   24.8847   51.7683 H   0  0  0  0  0  0  0  0  0  0  0  0
   63.5622   25.3207   51.7683 H   0  0  0  0  0  0  0  0  0  0  0  0
   60.5009   26.2667   50.6519 H   0  0  0  0  0  0  0  0  0  0  0  0
   58.5370   27.9850   47.3140 H   0  0  0  0  0  0  0  0  0  0  0  0
  1  2  1  0
  2  3  1  0
  3  4  1  0
  4  5  1  0
  5  6  2  0
  6  7  1  0
  7  8  2  0
  8  9  1  0
  9 10  2  0
  9 11  2  0
  9 12  1  0
 12 13  2  0
 13 14  1  0
 14 15  2  0
 15 16  1  0
 16 17  1  0
 16 18  1  0
 16 19  1  0
 15 20  1  0
 20 21  2  0
  7 22  1  0
 22 23  1  0
 23 24  1  0
 24 25  2  0
 25 26  1  0
 26 27  2  0
 27 28  1  0
 28 29  2  0
 29 30  1  0
 30 31  1  0
 22 32  2  0
 32 33  1  0
 33 34  1  0
 34 35  2  0
 35 36  1  0
 36 37  2  0
 37 38  1  0
 38 39  1  0
 39 40  1  0
 39 41  2  0
 37 42  1  0
 42 43  1  0
 42 44  2  0
 32 45  1  0
 45  5  1  0
 21 12  1  0
 29 24  1  0
 44 34  1  0
  1 46  1  0
  1 47  1  0
  1 48  1  0
  2 49  1  0
  2 50  1  0
  3 51  1  0
  3 52  1  0
 13 53  1  0
 14 54  1  0
 17 55  1  0
 17 56  1  0
 17 57  1  0
 18 58  1  0
 18 59  1  0
 18 60  1  0
 19 61  1  0
 19 62  1  0
 19 63  1  0
 20 64  1  0
 21 65  1  0
 25 66  1  0
 26 67  1  0
 27 68  1  0
 28 69  1  0
 31 70  1  0
 31 71  1  0
 31 72  1  0
 35 73  1  0
 36 74  1  0
 38 75  1  0
 40 76  1  0
 40 77  1  0
 40 78  1  0
 43 79  1  0
 43 80  1  0
 43 81  1  0
 44 82  1  0
 45 83  1  0
M  END
>  <smiles>  (64) 
CCCSc1nc(=NS(=O)(=O)c2ccc(C(C)(C)C)cc2)c(Oc2ccccc2OC)c(Oc2ccc(NC(C)=O)c(C)c2)[nH]1

>  <score_type>  (64) 
oracle

>  <origin>  (64) 
adg

>  <m_score__min__energy>  (64) 
-9.8399999999999999

>  <m_primary>  (64) 
energy

$$$$
64:0
     RDKit          3D

 58 62  0  0  0  0  0  0  0  0999 V2000
   61.1930   32.2600   53.3940 C   0  0  0  0  0  0  0  0  0  0  0  0
   61.8690   31.0240   53.1680 O   0  0  0  0  0  0  0  0  0  0  0  0
   61.4740   30.0560   52.2290 C   0  0  0  0  0  0  0  0  0  0  0  0
   60.7240   28.9270   52.6100 C   0  0  0  0  0  0  0  0  0  0  0  0
   60.3140   27.9930   51.6590 C   0  0  0  0  0  0  0  0  0  0  0  0
   60.6370   28.1710   50.3040 C   0  0  0  0  0  0  0  0  0  0  0  0
   60.2830   27.2360   49.3200 O   0  0  0  0  0  0  0  0  0  0  0  0
   59.9630   27.5370   47.9910 C   0  0  0  0  0  0  0  0  0  0  0  0
   58.6650   27.9560   47.6820 C   0  0  0  0  0  0  0  0  0  0  0  0
   58.3300   28.2650   46.3490 C   0  0  0  0  0  0  0  0  0  0  0  0
   57.1500   28.6940   46.0010 N   0  0  0  0  0  0  0  0  0  0  0  0
   56.7410   29.5190   44.5280 S   0  0  0  0  0  0  0  0  0  0  0  0
   57.2820   28.7600   43.3490 O   0  0  0  0  0  0  0  0  0  0  0  0
   55.2480   29.6440   44.3990 O   0  0  0  0  0  0  0  0  0  0  0  0
   57.4480   31.1290   44.5780 C   0  0  0  0  0  0  0  0  0  0  0  0
   57.7640   31.8070   43.3790 C   0  0  0  0  0  0  0  0  0  0  0  0
   58.3640   33.0760   43.4160 C   0  0  0  0  0  0  0  0  0  0  0  0
   58.6350   33.6380   44.6590 C   0  0  0  0  0  0  0  0  0  0  0  0
   59.3570   35.1100   45.0120 S   0  0  0  0  0  0  0  0  0  0  0  0
   59.2490   34.8520   46.6820 C   0  0  0  0  0  0  0  0  0  0  0  0
   58.6720   33.6600   46.9730 N   0  0  0  0  0  0  0  0  0  0  0  0
   58.3340   32.9870   45.8430 C   0  0  0  0  0  0  0  0  0  0  0  0
   57.7370   31.7260   45.8220 C   0  0  0  0  0  0  0  0  0  0  0  0
   59.3040   28.1130   45.3560 C   0  0  0  0  0  0  0  0  0  0  0  0
   60.5830   27.6710   45.6990 C   0  0  0  0  0  0  0  0  0  0  0  0
   60.8830   27.3950   46.9950 N   0  0  0  0  0  0  0  0  0  0  0  0
   61.3900   29.2840   49.9230 C   0  0  0  0  0  0  0  0  0  0  0  0
   61.8230   30.2290   50.8710 C   0  0  0  0  0  0  0  0  0  0  0  0
   62.6480   31.3740   50.4200 C   0  0  0  0  0  0  0  0  0  0  0  0
   63.8730   31.2050   50.1690 O   0  0  0  0  0  0  0  0  0  0  0  0
   62.0710   32.6800   50.3080 N   0  0  0  0  0  0  0  0  0  0  0  0
   60.8250   33.0580   49.1710 S   0  0  0  0  0  0  0  0  0  0  0  0
   59.6300   32.1920   49.4600 O   0  0  0  0  0  0  0  0  0  0  0  0
   60.4300   34.5000   49.3220 O   0  0  0  0  0  0  0  0  0  0  0  0
   61.4130   32.7780   47.5500 N   0  0  0  0  0  0  0  0  0  0  0  0
   61.9730   31.4350   47.3610 C   0  0  0  0  0  0  0  0  0  0  0  0
   63.3750   31.9760   47.1330 C   0  0  0  0  0  0  0  0  0  0  0  0
   62.7480   33.3450   47.3290 C   0  0  0  0  0  0  0  0  0  0  0  0
   61.0981   32.4335   54.4761 H   0  0  0  0  0  0  0  0  0  0  0  0
   61.7679   33.0807   52.9401 H   0  0  0  0  0  0  0  0  0  0  0  0
   60.1919   32.2187   52.9401 H   0  0  0  0  0  0  0  0  0  0  0  0
   60.4590   28.7803   53.6675 H   0  0  0  0  0  0  0  0  0  0  0  0
   59.7344   27.1120   51.9720 H   0  0  0  0  0  0  0  0  0  0  0  0
   57.9090   28.0439   48.4762 H   0  0  0  0  0  0  0  0  0  0  0  0
   57.5384   31.3374   42.4102 H   0  0  0  0  0  0  0  0  0  0  0  0
   58.6128   33.6108   42.4875 H   0  0  0  0  0  0  0  0  0  0  0  0
   59.6043   35.5658   47.4398 H   0  0  0  0  0  0  0  0  0  0  0  0
   57.4958   31.2061   46.7609 H   0  0  0  0  0  0  0  0  0  0  0  0
   59.0624   28.3413   44.3074 H   0  0  0  0  0  0  0  0  0  0  0  0
   61.3487   27.5461   44.9192 H   0  0  0  0  0  0  0  0  0  0  0  0
   61.6490   29.4241   48.8631 H   0  0  0  0  0  0  0  0  0  0  0  0
   60.7280   33.0440   46.8040 H   0  0  0  0  0  0  0  0  0  0  0  0
   61.8891   30.7953   48.2519 H   0  0  0  0  0  0  0  0  0  0  0  0
   61.5272   30.7730   46.6040 H   0  0  0  0  0  0  0  0  0  0  0  0
   64.1154   31.6887   47.8940 H   0  0  0  0  0  0  0  0  0  0  0  0
   63.9774   31.7172   46.2497 H   0  0  0  0  0  0  0  0  0  0  0  0
   63.1436   33.8878   48.2002 H   0  0  0  0  0  0  0  0  0  0  0  0
   62.8800   34.1081   46.5478 H   0  0  0  0  0  0  0  0  0  0  0  0
  1  2  1  0
  2  3  1  0
  3  4  2  0
  4  5  1  0
  5  6  2  0
  6  7  1  0
  7  8  1  0
  8  9  2  0
  9 10  1  0
 10 11  2  3
 11 12  1  0
 12 13  2  0
 12 14  2  0
 12 15  1  0
 15 16  2  0
 16 17  1  0
 17 18  2  0
 18 19  1  0
 19 20  1  0
 20 21  2  0
 21 22  1  0
 22 23  2  0
 10 24  1  0
 24 25  2  0
 25 26  1  0
  6 27  1  0
 27 28  2  0
 28 29  1  0
 29 30  2  0
 29 31  1  0
 31 32  1  0
 32 33  2  0
 32 34  2  0
 32 35  1  0
 35 36  1  0
 36 37  1  0
 37 38  1  0
 28  3  1  0
 38 35  1  0
 26  8  1  0
 23 15  1  0
 22 18  1  0
  1 39  1  0
  1 40  1  0
  1 41  1  0
  4 42  1  0
  5 43  1  0
  9 44  1  0
 16 45  1  0
 17 46  1  0
 20 47  1  0
 23 48  1  0
 24 49  1  0
 25 50  1  0
 27 51  1  0
 35 52  1  0
 36 53  1  0
 36 54  1  0
 37 55  1  0
 37 56  1  0
 38 57  1  0
 38 58  1  0
M  CHG  3  26  -1  31  -1  35   1
M  END
>  <UniqueID>  (65) 
61

>  <SMILES>  (65) 
COc1ccc(Oc2cc(=NS(=O)(=O)c3ccc4scnc4c3)cc[n-]2)cc1C(=O)[N-]S(=O)(=O)[NH+]1CCC1

>  <Energy>  (65) 
182.65822682055767

>  <Genealogy>  (65) 
COc1ccc(Oc2cc(=NS(=O)(=O)c3ccc4scnc4c3)cc[n-]2)cc1C(=O)[N-]S(=O)(=O)[NH+]1CCC1 (protonated)
COc1ccc(Oc2cc(=NS(=O)(=O)c3ccc4scnc4c3)cc[n-]2)cc1C(=O)[N-]S(=O)(=O)[NH+]1CCC1 (3D coordinates assigned)
COc1ccc(Oc2cc(=NS(=O)(=O)c3ccc4scnc4c3)cc[n-]2)cc1C(=O)[N-]S(=O)(=O)[NH+]1CCC1 (nonaromatic ring conformer: 182.65822682055767 kcal/mol)

>  <smiles>  (65) 
COc1ccc(Oc2cc(=NS(=O)(=O)c3ccc4scnc4c3)cc[nH]2)cc1C(=O)NS(=O)(=O)N1CCC1

>  <score_type>  (65) 
oracle

>  <origin>  (65) 
adg

>  <m_score__min__energy>  (65) 
-12.76

>  <m_primary>  (65) 
energy

$$$$
65:0
     RDKit          3D

 60 61  0  0  0  0  0  0  0  0999 V2000
   58.0540   32.8320   44.1100 C   0  0  0  0  0  0  0  0  0  0  0  0
   57.3790   33.5900   45.2520 C   0  0  0  0  0  0  0  0  0  0  0  0
   58.3880   34.2170   46.2270 C   0  0  0  0  0  0  0  0  0  0  0  0
   59.8350   34.1290   45.7180 C   0  0  0  0  0  0  0  0  0  0  0  0
   60.8280   34.1010   46.8860 C   0  0  0  0  0  0  0  0  0  0  0  0
   62.2560   33.8350   46.3870 C   0  0  0  0  0  0  0  0  0  0  0  0
   63.2950   33.8330   47.5240 C   0  0  0  0  0  0  0  0  0  0  0  0
   62.7110   33.5270   48.9100 C   0  0  0  0  0  0  0  0  0  0  0  0
   62.7030   31.7290   49.2440 S   0  0  0  0  0  0  0  0  0  0  0  0
   61.2250   31.7290   50.3210 C   0  0  0  0  0  0  0  0  0  0  0  0
   60.0550   32.3550   49.6160 C   0  0  0  0  0  0  0  0  0  0  0  0
   59.8720   33.5960   49.7220 O   0  0  0  0  0  0  0  0  0  0  0  0
   59.0810   31.5740   48.9100 N   0  0  0  0  0  0  0  0  0  0  0  0
   59.2780   30.8640   47.6800 C   0  0  0  0  0  0  0  0  0  0  0  0
   60.5630   30.6380   47.1580 C   0  0  0  0  0  0  0  0  0  0  0  0
   60.7200   29.9730   45.9390 C   0  0  0  0  0  0  0  0  0  0  0  0
   59.5990   29.5480   45.2230 C   0  0  0  0  0  0  0  0  0  0  0  0
   58.3130   29.8000   45.7170 C   0  0  0  0  0  0  0  0  0  0  0  0
   56.8860   29.3290   44.7960 S   0  0  0  0  0  0  0  0  0  0  0  0
   57.2940   29.0810   43.3720 O   0  0  0  0  0  0  0  0  0  0  0  0
   55.8490   30.4160   44.8280 O   0  0  0  0  0  0  0  0  0  0  0  0
   56.2120   27.8800   45.4660 N   0  0  0  0  0  0  0  0  0  0  0  0
   56.9940   26.6900   45.6590 C   0  0  0  0  0  0  0  0  0  0  0  0
   58.3960   26.7870   45.7280 C   0  0  0  0  0  0  0  0  0  0  0  0
   59.1760   25.6600   45.9820 C   0  0  0  0  0  0  0  0  0  0  0  0
   58.5700   24.4230   46.1810 C   0  0  0  0  0  0  0  0  0  0  0  0
   57.1810   24.3030   46.1140 C   0  0  0  0  0  0  0  0  0  0  0  0
   56.3750   25.4240   45.8400 C   0  0  0  0  0  0  0  0  0  0  0  0
   54.9120   25.2240   45.6990 C   0  0  0  0  0  0  0  0  0  0  0  0
   54.4400   24.1080   45.3620 O   0  0  0  0  0  0  0  0  0  0  0  0
   54.0360   26.2640   45.9890 O   0  0  0  0  0  0  0  0  0  0  0  0
   58.1580   30.4630   46.9420 C   0  0  0  0  0  0  0  0  0  0  0  0
   58.7315   32.0712   44.5249 H   0  0  0  0  0  0  0  0  0  0  0  0
   57.2875   32.3422   43.4915 H   0  0  0  0  0  0  0  0  0  0  0  0
   58.6290   33.5368   43.4915 H   0  0  0  0  0  0  0  0  0  0  0  0
   56.7588   34.3914   44.8241 H   0  0  0  0  0  0  0  0  0  0  0  0
   56.7751   32.8665   45.8192 H   0  0  0  0  0  0  0  0  0  0  0  0
   58.1285   35.2764   46.3694 H   0  0  0  0  0  0  0  0  0  0  0  0
   58.3323   33.6550   47.1710 H   0  0  0  0  0  0  0  0  0  0  0  0
   59.9522   33.2105   45.1242 H   0  0  0  0  0  0  0  0  0  0  0  0
   60.0441   35.0158   45.1017 H   0  0  0  0  0  0  0  0  0  0  0  0
   60.8025   35.0714   47.4034 H   0  0  0  0  0  0  0  0  0  0  0  0
   60.5396   33.2912   47.5723 H   0  0  0  0  0  0  0  0  0  0  0  0
   62.2775   32.8541   45.8896 H   0  0  0  0  0  0  0  0  0  0  0  0
   62.5224   34.6487   45.6964 H   0  0  0  0  0  0  0  0  0  0  0  0
   64.0557   33.0723   47.2947 H   0  0  0  0  0  0  0  0  0  0  0  0
   63.7106   34.8502   47.5739 H   0  0  0  0  0  0  0  0  0  0  0  0
   63.3200   34.0310   49.6749 H   0  0  0  0  0  0  0  0  0  0  0  0
   61.6731   33.8904   48.9379 H   0  0  0  0  0  0  0  0  0  0  0  0
   60.9730   30.6922   50.5885 H   0  0  0  0  0  0  0  0  0  0  0  0
   61.4467   32.3132   51.2263 H   0  0  0  0  0  0  0  0  0  0  0  0
   61.4482   30.9857   47.7108 H   0  0  0  0  0  0  0  0  0  0  0  0
   61.7286   29.7840   45.5427 H   0  0  0  0  0  0  0  0  0  0  0  0
   59.7262   29.0145   44.2695 H   0  0  0  0  0  0  0  0  0  0  0  0
   55.1900   27.8730   45.6780 H   0  0  0  0  0  0  0  0  0  0  0  0
   58.8818   27.7627   45.5799 H   0  0  0  0  0  0  0  0  0  0  0  0
   60.2716   25.7484   46.0252 H   0  0  0  0  0  0  0  0  0  0  0  0
   59.1875   23.5374   46.3917 H   0  0  0  0  0  0  0  0  0  0  0  0
   56.7112   23.3218   46.2771 H   0  0  0  0  0  0  0  0  0  0  0  0
   57.1484   30.6699   47.3266 H   0  0  0  0  0  0  0  0  0  0  0  0
  1  2  1  0
  2  3  1  0
  3  4  1  0
  4  5  1  0
  5  6  1  0
  6  7  1  0
  7  8  1  0
  8  9  1  0
  9 10  1  0
 10 11  1  0
 11 12  2  0
 11 13  1  0
 13 14  1  0
 14 15  2  0
 15 16  1  0
 16 17  2  0
 17 18  1  0
 18 19  1  0
 19 20  2  0
 19 21  2  0
 19 22  1  0
 22 23  1  0
 23 24  2  0
 24 25  1  0
 25 26  2  0
 26 27  1  0
 27 28  2  0
 28 29  1  0
 29 30  2  0
 29 31  1  0
 18 32  2  0
 32 14  1  0
 28 23  1  0
  1 33  1  0
  1 34  1  0
  1 35  1  0
  2 36  1  0
  2 37  1  0
  3 38  1  0
  3 39  1  0
  4 40  1  0
  4 41  1  0
  5 42  1  0
  5 43  1  0
  6 44  1  0
  6 45  1  0
  7 46  1  0
  7 47  1  0
  8 48  1  0
  8 49  1  0
 10 50  1  0
 10 51  1  0
 15 52  1  0
 16 53  1  0
 17 54  1  0
 22 55  1  0
 24 56  1  0
 25 57  1  0
 26 58  1  0
 27 59  1  0
 32 60  1  0
M  CHG  2  13  -1  31  -1
M  END
>  <UniqueID>  (66) 
62

>  <SMILES>  (66) 
CCCCCCCCSCC(=O)[N-]c1cccc(S(=O)(=O)Nc2ccccc2C(=O)[O-])c1

>  <Energy>  (66) 
56.39402905219887

>  <Genealogy>  (66) 
CCCCCCCCSCC(=O)[N-]c1cccc(S(=O)(=O)Nc2ccccc2C(=O)[O-])c1 (protonated)
CCCCCCCCSCC(=O)[N-]c1cccc(S(=O)(=O)Nc2ccccc2C(=O)[O-])c1 (3D coordinates assigned)
CCCCCCCCSCC(=O)[N-]c1cccc(S(=O)(=O)Nc2ccccc2C(=O)[O-])c1 (optimized conformer: 56.39402905219887 kcal/mol)

>  <smiles>  (66) 
CCCCCCCCSCC(=O)Nc1cccc(S(=O)(=O)Nc2ccccc2C(=O)O)c1

>  <score_type>  (66) 
oracle

>  <origin>  (66) 
adg

>  <m_score__min__energy>  (66) 
-12.369999999999999

>  <m_primary>  (66) 
energy

$$$$
66:0
     RDKit          3D

 48 52  0  0  0  0  0  0  0  0999 V2000
   58.1370   34.1540   44.4950 C   0  0  0  0  0  0  0  0  0  0  0  0
   58.1140   32.8750   45.2120 N   0  0  0  0  0  0  0  0  0  0  0  0
   57.6330   31.6880   44.7680 C   0  0  0  0  0  0  0  0  0  0  0  0
   57.0450   31.4190   43.5240 C   0  0  0  0  0  0  0  0  0  0  0  0
   56.6690   30.1000   43.2350 C   0  0  0  0  0  0  0  0  0  0  0  0
   56.8980   29.0730   44.1660 C   0  0  0  0  0  0  0  0  0  0  0  0
   57.4970   29.3500   45.4050 C   0  0  0  0  0  0  0  0  0  0  0  0
   57.8380   30.6800   45.6990 C   0  0  0  0  0  0  0  0  0  0  0  0
   58.4770   31.2910   46.7820 C   0  0  0  0  0  0  0  0  0  0  0  0
   58.6520   32.6080   46.4290 C   0  0  0  0  0  0  0  0  0  0  0  0
   59.3640   33.4600   47.2690 C   0  0  0  0  0  0  0  0  0  0  0  0
   59.5700   34.6580   46.9330 O   0  0  0  0  0  0  0  0  0  0  0  0
   59.8620   32.9670   48.4520 N   0  0  0  0  0  0  0  0  0  0  0  0
   60.6070   33.8520   49.3740 C   0  0  0  0  0  0  0  0  0  0  0  0
   62.0860   33.5440   49.3370 C   0  0  0  0  0  0  0  0  0  0  0  0
   62.8080   33.4120   50.5350 C   0  0  0  0  0  0  0  0  0  0  0  0
   64.1810   33.1540   50.5100 C   0  0  0  0  0  0  0  0  0  0  0  0
   64.8470   33.0250   49.2900 C   0  0  0  0  0  0  0  0  0  0  0  0
   64.1390   33.1490   48.0930 C   0  0  0  0  0  0  0  0  0  0  0  0
   62.7650   33.4070   48.1100 C   0  0  0  0  0  0  0  0  0  0  0  0
   62.1010   33.5070   46.9330 F   0  0  0  0  0  0  0  0  0  0  0  0
   59.6530   31.6430   48.7950 C   0  0  0  0  0  0  0  0  0  0  0  0
   60.1420   31.1960   49.8720 O   0  0  0  0  0  0  0  0  0  0  0  0
   58.9250   30.7990   47.9800 N   0  0  0  0  0  0  0  0  0  0  0  0
   58.6350   29.4240   48.4280 C   0  0  0  0  0  0  0  0  0  0  0  0
   59.3140   28.3980   47.5660 C   0  0  0  0  0  0  0  0  0  0  0  0
   60.3990   28.5930   46.7130 C   0  0  0  0  0  0  0  0  0  0  0  0
   60.7600   27.4400   46.0070 C   0  0  0  0  0  0  0  0  0  0  0  0
   59.9640   26.3390   46.2900 C   0  0  0  0  0  0  0  0  0  0  0  0
   58.8060   26.8030   47.4170 S   0  0  0  0  0  0  0  0  0  0  0  0
   58.1519   34.9808   45.2204 H   0  0  0  0  0  0  0  0  0  0  0  0
   59.0362   34.2042   43.8634 H   0  0  0  0  0  0  0  0  0  0  0  0
   57.2402   34.2365   43.8634 H   0  0  0  0  0  0  0  0  0  0  0  0
   56.8826   32.2240   42.7921 H   0  0  0  0  0  0  0  0  0  0  0  0
   56.1910   29.8672   42.2720 H   0  0  0  0  0  0  0  0  0  0  0  0
   56.6049   28.0413   43.9216 H   0  0  0  0  0  0  0  0  0  0  0  0
   57.6944   28.5448   46.1279 H   0  0  0  0  0  0  0  0  0  0  0  0
   60.4492   34.8988   49.0751 H   0  0  0  0  0  0  0  0  0  0  0  0
   60.2381   33.6856   50.3969 H   0  0  0  0  0  0  0  0  0  0  0  0
   62.2887   33.5125   51.4995 H   0  0  0  0  0  0  0  0  0  0  0  0
   64.7379   33.0524   51.4531 H   0  0  0  0  0  0  0  0  0  0  0  0
   65.9287   32.8258   49.2717 H   0  0  0  0  0  0  0  0  0  0  0  0
   64.6645   33.0432   47.1324 H   0  0  0  0  0  0  0  0  0  0  0  0
   58.9858   29.3063   49.4639 H   0  0  0  0  0  0  0  0  0  0  0  0
   57.5490   29.2644   48.3560 H   0  0  0  0  0  0  0  0  0  0  0  0
   60.9191   29.5563   46.6056 H   0  0  0  0  0  0  0  0  0  0  0  0
   61.5970   27.4092   45.2939 H   0  0  0  0  0  0  0  0  0  0  0  0
   60.0721   25.3356   45.8523 H   0  0  0  0  0  0  0  0  0  0  0  0
  1  2  1  0
  2  3  1  0
  3  4  2  0
  4  5  1  0
  5  6  2  0
  6  7  1  0
  7  8  2  0
  8  9  1  0
  9 10  2  0
 10 11  1  0
 11 12  2  0
 11 13  1  0
 13 14  1  0
 14 15  1  0
 15 16  2  0
 16 17  1  0
 17 18  2  0
 18 19  1  0
 19 20  2  0
 20 21  1  0
 13 22  1  0
 22 23  2  0
 22 24  1  0
 24 25  1  0
 25 26  1  0
 26 27  2  0
 27 28  1  0
 28 29  2  0
 29 30  1  0
 10  2  1  0
 20 15  1  0
 30 26  1  0
  8  3  1  0
 24  9  1  0
  1 31  1  0
  1 32  1  0
  1 33  1  0
  4 34  1  0
  5 35  1  0
  6 36  1  0
  7 37  1  0
 14 38  1  0
 14 39  1  0
 16 40  1  0
 17 41  1  0
 18 42  1  0
 19 43  1  0
 25 44  1  0
 25 45  1  0
 27 46  1  0
 28 47  1  0
 29 48  1  0
M  END
>  <UniqueID>  (67) 
63

>  <SMILES>  (67) 
Cn1c2ccccc2c2c1c(=O)n(Cc1ccccc1F)c(=O)n2Cc1cccs1

>  <Energy>  (67) 
136.35026585851955

>  <Genealogy>  (67) 
Cn1c2ccccc2c2c1c(=O)n(Cc1ccccc1F)c(=O)n2Cc1cccs1 (3D coordinates assigned)
Cn1c2ccccc2c2c1c(=O)n(Cc1ccccc1F)c(=O)n2Cc1cccs1 (optimized conformer: 136.35026585851955 kcal/mol)

>  <smiles>  (67) 
Cn1c2ccccc2c2c1c(=O)n(Cc1ccccc1F)c(=O)n2Cc1cccs1

>  <score_type>  (67) 
oracle

>  <origin>  (67) 
adg

>  <m_score__min__energy>  (67) 
-8.0700000000000003

>  <m_primary>  (67) 
energy

$$$$
67:0
     RDKit          3D

 27 28  0  0  0  0  0  0  0  0999 V2000
   58.8980   25.9020   45.1250 O   0  0  0  0  0  0  0  0  0  0  0  0
   57.7150   26.1740   45.4650 C   0  0  0  0  0  0  0  0  0  0  0  0
   57.3950   27.4780   45.9630 N   0  0  0  0  0  0  0  0  0  0  0  0
   57.5480   28.7060   45.2390 C   0  0  0  0  0  0  0  0  0  0  0  0
   58.8310   29.2450   45.0980 C   0  0  0  0  0  0  0  0  0  0  0  0
   59.0260   30.4450   44.4090 C   0  0  0  0  0  0  0  0  0  0  0  0
   57.9340   31.1380   43.8610 C   0  0  0  0  0  0  0  0  0  0  0  0
   58.1390   32.3710   43.1480 N   0  0  0  0  0  0  0  0  0  0  0  0
   57.9820   32.4250   41.9100 O   0  0  0  0  0  0  0  0  0  0  0  0
   58.5160   33.5130   43.8180 O   0  0  0  0  0  0  0  0  0  0  0  0
   56.6410   30.6140   44.0320 C   0  0  0  0  0  0  0  0  0  0  0  0
   56.4420   29.4160   44.7290 C   0  0  0  0  0  0  0  0  0  0  0  0
   55.1440   28.9630   44.9350 O   0  0  0  0  0  0  0  0  0  0  0  0
   56.6920   25.1080   45.4630 C   0  0  0  0  0  0  0  0  0  0  0  0
   57.0710   23.8010   45.1170 C   0  0  0  0  0  0  0  0  0  0  0  0
   56.1470   22.7580   45.1780 C   0  0  0  0  0  0  0  0  0  0  0  0
   54.8400   23.0270   45.5820 C   0  0  0  0  0  0  0  0  0  0  0  0
   53.9970   22.0960   45.6550 O   0  0  0  0  0  0  0  0  0  0  0  0
   54.4730   24.2980   45.8900 N   0  0  0  0  0  0  0  0  0  0  0  0
   55.3440   25.3420   45.8290 C   0  0  0  0  0  0  0  0  0  0  0  0
   54.8550   26.6200   46.1000 O   0  0  0  0  0  0  0  0  0  0  0  0
   59.6939   28.7197   45.5332 H   0  0  0  0  0  0  0  0  0  0  0  0
   60.0424   30.8500   44.2949 H   0  0  0  0  0  0  0  0  0  0  0  0
   55.7765   31.1506   43.6140 H   0  0  0  0  0  0  0  0  0  0  0  0
   58.1033   23.5984   44.7957 H   0  0  0  0  0  0  0  0  0  0  0  0
   56.4463   21.7339   44.9102 H   0  0  0  0  0  0  0  0  0  0  0  0
   55.1440   27.4450   45.5920 H   0  0  0  0  0  0  0  0  0  0  0  0
  1  2  2  0
  2  3  1  0
  3  4  1  0
  4  5  2  0
  5  6  1  0
  6  7  2  0
  7  8  1  0
  8  9  2  0
  8 10  1  0
  7 11  1  0
 11 12  2  0
 12 13  1  0
  2 14  1  0
 14 15  1  0
 15 16  2  0
 16 17  1  0
 17 18  2  0
 17 19  1  0
 19 20  1  0
 20 21  1  0
 12  4  1  0
 20 14  2  0
  5 22  1  0
  6 23  1  0
 11 24  1  0
 15 25  1  0
 16 26  1  0
 21 27  1  0
M  CHG  5   3  -1   8   1  10  -1  13  -1  19  -1
M  END
>  <UniqueID>  (68) 
64

>  <SMILES>  (68) 
O=C([N-]c1ccc([N+](=O)[O-])cc1[O-])c1ccc(=O)[n-]c1O

>  <Energy>  (68) 
41.378363439645284

>  <Genealogy>  (68) 
O=C([N-]c1ccc([N+](=O)[O-])cc1[O-])c1ccc(=O)[n-]c1O (protonated)
O=C([N-]c1ccc([N+](=O)[O-])cc1[O-])c1ccc(=O)[n-]c1O (3D coordinates assigned)
O=C([N-]c1ccc([N+](=O)[O-])cc1[O-])c1ccc(=O)[n-]c1O (optimized conformer: 41.378363439645284 kcal/mol)

>  <smiles>  (68) 
O=C(Nc1ccc([N+](=O)[O-])cc1O)c1ccc(=O)[nH]c1O

>  <score_type>  (68) 
oracle

>  <origin>  (68) 
adg

>  <m_score__min__energy>  (68) 
-15.25

>  <m_primary>  (68) 
energy

$$$$
68:0
     RDKit          3D

 54 56  0  0  0  0  0  0  0  0999 V2000
   59.7080   34.7880   46.7810 C   0  0  0  0  0  0  0  0  0  0  0  0
   59.3590   33.6230   47.7070 C   0  0  0  0  0  0  0  0  0  0  0  0
   59.9350   32.2820   47.2020 C   0  0  1  0  0  0  0  0  0  0  0  0
   61.1710   31.8920   47.9090 N   0  0  0  0  0  0  0  0  0  0  0  0
   61.2330   32.2800   49.6130 S   0  0  0  0  0  0  0  0  0  0  0  0
   61.4580   33.7590   49.7530 O   0  0  0  0  0  0  0  0  0  0  0  0
   62.3900   31.5780   50.2650 O   0  0  0  0  0  0  0  0  0  0  0  0
   59.7340   31.8820   50.4430 C   0  0  0  0  0  0  0  0  0  0  0  0
   59.3420   30.5430   50.5650 C   0  0  0  0  0  0  0  0  0  0  0  0
   58.1540   30.2150   51.2230 C   0  0  0  0  0  0  0  0  0  0  0  0
   57.3400   31.2240   51.7620 C   0  0  0  0  0  0  0  0  0  0  0  0
   56.0440   30.8660   52.4280 C   0  0  0  0  0  0  0  0  0  0  0  0
   57.7230   32.5670   51.6210 C   0  0  0  0  0  0  0  0  0  0  0  0
   58.9170   32.8950   50.9720 C   0  0  0  0  0  0  0  0  0  0  0  0
   58.9130   31.1750   47.1530 C   0  0  0  0  0  0  0  0  0  0  0  0
   59.1290   30.0740   47.7310 O   0  0  0  0  0  0  0  0  0  0  0  0
   57.7320   31.3600   46.3640 N   0  0  0  0  0  0  0  0  0  0  0  0
   57.6960   31.6610   44.9610 C   0  0  0  0  0  0  0  0  0  0  0  0
   58.3660   32.7960   44.4660 C   0  0  0  0  0  0  0  0  0  0  0  0
   58.3570   33.0880   43.1030 C   0  0  0  0  0  0  0  0  0  0  0  0
   57.6900   32.2470   42.2150 C   0  0  0  0  0  0  0  0  0  0  0  0
   57.0340   31.1080   42.6840 C   0  0  0  0  0  0  0  0  0  0  0  0
   57.0250   30.7940   44.0590 C   0  0  0  0  0  0  0  0  0  0  0  0
   56.2660   29.5980   44.5240 C   0  0  0  0  0  0  0  0  0  0  0  0
   55.1560   29.7280   45.1070 O   0  0  0  0  0  0  0  0  0  0  0  0
   56.8100   28.2840   44.3370 N   0  0  0  0  0  0  0  0  0  0  0  0
   57.3700   27.4590   45.3700 C   0  0  0  0  0  0  0  0  0  0  0  0
   58.7520   27.4570   45.6380 C   0  0  0  0  0  0  0  0  0  0  0  0
   59.2650   26.6800   46.6820 C   0  0  0  0  0  0  0  0  0  0  0  0
   58.4080   25.9070   47.4670 C   0  0  0  0  0  0  0  0  0  0  0  0
   57.0330   25.9150   47.2150 C   0  0  0  0  0  0  0  0  0  0  0  0
   56.5130   26.6950   46.1770 C   0  0  0  0  0  0  0  0  0  0  0  0
   55.1420   26.7040   45.9470 O   0  0  0  0  0  0  0  0  0  0  0  0
   59.9720   35.6693   47.3840 H   0  0  0  0  0  0  0  0  0  0  0  0
   60.5619   34.5088   46.1463 H   0  0  0  0  0  0  0  0  0  0  0  0
   58.8412   35.0243   46.1463 H   0  0  0  0  0  0  0  0  0  0  0  0
   59.7687   33.8303   48.7066 H   0  0  0  0  0  0  0  0  0  0  0  0
   58.2632   33.5304   47.7341 H   0  0  0  0  0  0  0  0  0  0  0  0
   60.2243   32.4582   46.1554 H   0  0  0  0  0  0  0  0  0  0  0  0
   59.9717   29.7468   50.1413 H   0  0  0  0  0  0  0  0  0  0  0  0
   57.8549   29.1608   51.3193 H   0  0  0  0  0  0  0  0  0  0  0  0
   56.1710   30.9011   53.5201 H   0  0  0  0  0  0  0  0  0  0  0  0
   55.2663   31.5830   52.1261 H   0  0  0  0  0  0  0  0  0  0  0  0
   55.7446   29.8515   52.1261 H   0  0  0  0  0  0  0  0  0  0  0  0
   57.0810   33.3647   52.0228 H   0  0  0  0  0  0  0  0  0  0  0  0
   59.2175   33.9487   50.8753 H   0  0  0  0  0  0  0  0  0  0  0  0
   58.9017   33.4587   45.1615 H   0  0  0  0  0  0  0  0  0  0  0  0
   58.8765   33.9824   42.7286 H   0  0  0  0  0  0  0  0  0  0  0  0
   57.6804   32.4815   41.1403 H   0  0  0  0  0  0  0  0  0  0  0  0
   56.5176   30.4469   41.9725 H   0  0  0  0  0  0  0  0  0  0  0  0
   59.4304   28.0682   45.0247 H   0  0  0  0  0  0  0  0  0  0  0  0
   60.3462   26.6782   46.8847 H   0  0  0  0  0  0  0  0  0  0  0  0
   58.8143   25.2919   48.2834 H   0  0  0  0  0  0  0  0  0  0  0  0
   56.3582   25.3062   47.8347 H   0  0  0  0  0  0  0  0  0  0  0  0
  1  2  1  0
  2  3  1  0
  3  4  1  0
  4  5  1  0
  5  6  2  0
  5  7  2  0
  5  8  1  0
  8  9  2  0
  9 10  1  0
 10 11  2  0
 11 12  1  0
 11 13  1  0
 13 14  2  0
  3 15  1  0
 15 16  2  0
 15 17  1  0
 17 18  1  0
 18 19  2  0
 19 20  1  0
 20 21  2  0
 21 22  1  0
 22 23  2  0
 23 24  1  0
 24 25  2  0
 24 26  1  0
 26 27  1  0
 27 28  2  0
 28 29  1  0
 29 30  2  0
 30 31  1  0
 31 32  2  0
 32 33  1  0
 14  8  1  0
 23 18  1  0
 32 27  1  0
  1 34  1  0
  1 35  1  0
  1 36  1  0
  2 37  1  0
  2 38  1  0
  3 39  1  6
  9 40  1  0
 10 41  1  0
 12 42  1  0
 12 43  1  0
 12 44  1  0
 13 45  1  0
 14 46  1  0
 19 47  1  0
 20 48  1  0
 21 49  1  0
 22 50  1  0
 28 51  1  0
 29 52  1  0
 30 53  1  0
 31 54  1  0
M  CHG  4   4  -1  17  -1  26  -1  33  -1
M  END
>  <UniqueID>  (69) 
65

>  <SMILES>  (69) 
CC[C@@H]([N-]S(=O)(=O)c1ccc(C)cc1)C(=O)[N-]c1ccccc1C(=O)[N-]c1ccccc1[O-]

>  <Energy>  (69) 
66.17728581492426

>  <Genealogy>  (69) 
CCC([N-]S(=O)(=O)c1ccc(C)cc1)C(=O)[N-]c1ccccc1C(=O)[N-]c1ccccc1[O-] (protonated)
CC[C@@H]([N-]S(=O)(=O)c1ccc(C)cc1)C(=O)[N-]c1ccccc1C(=O)[N-]c1ccccc1[O-] (chirality)
CC[C@@H]([N-]S(=O)(=O)c1ccc(C)cc1)C(=O)[N-]c1ccccc1C(=O)[N-]c1ccccc1[O-] (3D coordinates assigned)
CC[C@@H]([N-]S(=O)(=O)c1ccc(C)cc1)C(=O)[N-]c1ccccc1C(=O)[N-]c1ccccc1[O-] (optimized conformer: 66.17728581492426 kcal/mol)

>  <smiles>  (69) 
CCC(NS(=O)(=O)c1ccc(C)cc1)C(=O)Nc1ccccc1C(=O)Nc1ccccc1O

>  <score_type>  (69) 
oracle

>  <origin>  (69) 
adg

>  <m_score__min__energy>  (69) 
-17.870000000000001

>  <m_primary>  (69) 
energy

$$$$
69:0
     RDKit          3D

 45 47  0  0  0  0  0  0  0  0999 V2000
   60.3300   28.9930   48.1650 C   0  0  0  0  0  0  0  0  0  0  0  0
   59.3030   28.5350   47.2200 N   0  0  0  0  0  0  0  0  0  0  0  0
   58.5950   27.3980   47.5000 C   0  0  0  0  0  0  0  0  0  0  0  0
   57.6280   26.9280   46.6140 C   0  0  0  0  0  0  0  0  0  0  0  0
   57.3940   27.6120   45.4260 C   0  0  0  0  0  0  0  0  0  0  0  0
   58.1320   28.7660   45.1240 C   0  0  0  0  0  0  0  0  0  0  0  0
   57.9320   29.5010   43.9060 N   0  0  0  0  0  0  0  0  0  0  0  0
   56.9780   30.9410   43.7490 S   0  0  0  0  0  0  0  0  0  0  0  0
   56.8940   31.3360   42.3010 O   0  0  0  0  0  0  0  0  0  0  0  0
   55.5890   30.6700   44.2520 O   0  0  0  0  0  0  0  0  0  0  0  0
   57.6930   32.2260   44.7180 C   0  0  0  0  0  0  0  0  0  0  0  0
   58.5990   33.1320   44.1520 C   0  0  0  0  0  0  0  0  0  0  0  0
   59.2150   34.1000   44.9480 C   0  0  0  0  0  0  0  0  0  0  0  0
   58.9180   34.1840   46.3180 C   0  0  0  0  0  0  0  0  0  0  0  0
   59.6480   35.1730   47.1970 C   0  0  0  0  0  0  0  0  0  0  0  0
   60.1380   34.5510   48.4390 N   0  0  0  0  0  0  0  0  0  0  0  0
   61.3150   33.7430   48.2100 C   0  0  0  0  0  0  0  0  0  0  0  0
   61.2290   32.5750   47.4280 C   0  0  0  0  0  0  0  0  0  0  0  0
   62.3680   31.8090   47.1710 C   0  0  0  0  0  0  0  0  0  0  0  0
   63.6060   32.2020   47.6840 C   0  0  0  0  0  0  0  0  0  0  0  0
   63.7060   33.3600   48.4580 C   0  0  0  0  0  0  0  0  0  0  0  0
   62.5690   34.1310   48.7220 C   0  0  0  0  0  0  0  0  0  0  0  0
   62.6870   35.2550   49.4730 F   0  0  0  0  0  0  0  0  0  0  0  0
   57.9940   33.2880   46.8790 C   0  0  0  0  0  0  0  0  0  0  0  0
   57.3900   32.3120   46.0830 C   0  0  0  0  0  0  0  0  0  0  0  0
   59.0910   29.2150   46.0460 C   0  0  0  0  0  0  0  0  0  0  0  0
   59.7640   30.2500   45.7810 O   0  0  0  0  0  0  0  0  0  0  0  0
   59.9770   28.8356   49.1949 H   0  0  0  0  0  0  0  0  0  0  0  0
   61.2569   28.4229   48.0039 H   0  0  0  0  0  0  0  0  0  0  0  0
   60.5253   30.0635   48.0039 H   0  0  0  0  0  0  0  0  0  0  0  0
   58.7912   26.8500   48.4334 H   0  0  0  0  0  0  0  0  0  0  0  0
   57.0530   26.0212   46.8528 H   0  0  0  0  0  0  0  0  0  0  0  0
   56.6301   27.2480   44.7231 H   0  0  0  0  0  0  0  0  0  0  0  0
   58.8260   33.0808   43.0769 H   0  0  0  0  0  0  0  0  0  0  0  0
   59.9359   34.7997   44.5000 H   0  0  0  0  0  0  0  0  0  0  0  0
   60.5060   35.5774   46.6399 H   0  0  0  0  0  0  0  0  0  0  0  0
   58.9409   35.9694   47.4720 H   0  0  0  0  0  0  0  0  0  0  0  0
   60.3700   35.3070   49.1250 H   0  0  0  0  0  0  0  0  0  0  0  0
   59.3760   33.9750   48.8690 H   0  0  0  0  0  0  0  0  0  0  0  0
   60.2575   32.2637   47.0166 H   0  0  0  0  0  0  0  0  0  0  0  0
   62.2900   30.8951   46.5638 H   0  0  0  0  0  0  0  0  0  0  0  0
   64.5028   31.5991   47.4783 H   0  0  0  0  0  0  0  0  0  0  0  0
   64.6822   33.6670   48.8615 H   0  0  0  0  0  0  0  0  0  0  0  0
   57.7451   33.3548   47.9484 H   0  0  0  0  0  0  0  0  0  0  0  0
   56.6731   31.6076   46.5301 H   0  0  0  0  0  0  0  0  0  0  0  0
  1  2  1  0
  2  3  1  0
  3  4  2  0
  4  5  1  0
  5  6  2  0
  6  7  1  0
  7  8  1  0
  8  9  2  0
  8 10  2  0
  8 11  1  0
 11 12  2  0
 12 13  1  0
 13 14  2  0
 14 15  1  0
 15 16  1  0
 16 17  1  0
 17 18  2  0
 18 19  1  0
 19 20  2  0
 20 21  1  0
 21 22  2  0
 22 23  1  0
 14 24  1  0
 24 25  2  0
  6 26  1  0
 26 27  2  0
 26  2  1  0
 25 11  1  0
 22 17  1  0
  1 28  1  0
  1 29  1  0
  1 30  1  0
  3 31  1  0
  4 32  1  0
  5 33  1  0
 12 34  1  0
 13 35  1  0
 15 36  1  0
 15 37  1  0
 16 38  1  0
 16 39  1  0
 18 40  1  0
 19 41  1  0
 20 42  1  0
 21 43  1  0
 24 44  1  0
 25 45  1  0
M  CHG  2   7  -1  16   1
M  END
>  <UniqueID>  (70) 
66

>  <SMILES>  (70) 
Cn1cccc([N-]S(=O)(=O)c2ccc(C[NH2+]c3ccccc3F)cc2)c1=O

>  <Energy>  (70) 
52.0977840907696

>  <Genealogy>  (70) 
Cn1cccc([N-]S(=O)(=O)c2ccc(C[NH2+]c3ccccc3F)cc2)c1=O (protonated)
Cn1cccc([N-]S(=O)(=O)c2ccc(C[NH2+]c3ccccc3F)cc2)c1=O (3D coordinates assigned)
Cn1cccc([N-]S(=O)(=O)c2ccc(C[NH2+]c3ccccc3F)cc2)c1=O (optimized conformer: 52.0977840907696 kcal/mol)

>  <smiles>  (70) 
Cn1cccc(NS(=O)(=O)c2ccc(CNc3ccccc3F)cc2)c1=O

>  <score_type>  (70) 
oracle

>  <origin>  (70) 
adg

>  <m_score__min__energy>  (70) 
-9.3900000000000006

>  <m_primary>  (70) 
energy

$$$$
70:0
     RDKit          3D

 47 49  0  0  1  0  0  0  0  0999 V2000
   63.3550   33.7000   46.4280 C   0  0  0  0  0  0  0  0  0  0  0  0
   62.7570   32.8230   47.8300 S   0  0  0  0  0  0  0  0  0  0  0  0
   63.5650   31.5760   48.0300 O   0  0  0  0  0  0  0  0  0  0  0  0
   62.8800   33.6130   49.1050 O   0  0  0  0  0  0  0  0  0  0  0  0
   61.1210   32.3640   47.5420 N   0  0  0  0  0  0  0  0  0  0  0  0
   60.2380   33.1370   46.7360 C   0  0  0  0  0  0  0  0  0  0  0  0
   60.3990   34.5210   46.7130 C   0  0  0  0  0  0  0  0  0  0  0  0
   59.5820   35.3360   45.9560 C   0  0  0  0  0  0  0  0  0  0  0  0
   58.5970   34.7340   45.2210 C   0  0  0  0  0  0  0  0  0  0  0  0
   58.4060   33.3480   45.2200 C   0  0  0  0  0  0  0  0  0  0  0  0
   57.3460   32.8480   44.4120 N   0  0  0  0  0  0  0  0  0  0  0  0
   57.1940   31.6010   44.1430 C   0  0  0  0  0  0  0  0  0  0  0  0
   57.2110   30.7350   45.1630 N   0  0  0  0  0  0  0  0  0  0  0  0
   57.0580   29.4140   44.9590 C   0  0  0  0  0  0  0  0  0  0  0  0
   57.0730   28.5540   45.9430 N   0  0  0  0  0  0  0  0  0  0  0  0
   58.2450   28.4080   46.7650 C   0  0  0  0  0  0  0  0  0  0  0  0
   59.0590   27.2860   46.5810 C   0  0  0  0  0  0  0  0  0  0  0  0
   60.1960   27.0990   47.3450 C   0  0  0  0  0  0  0  0  0  0  0  0
   60.5120   28.0400   48.2900 C   0  0  0  0  0  0  0  0  0  0  0  0
   59.7070   29.1500   48.4700 C   0  0  0  0  0  0  0  0  0  0  0  0
   60.1780   30.3060   49.6960 S   0  0  0  0  0  0  0  0  0  0  0  0
   61.8490   30.6570   49.6400 N   0  0  0  0  0  0  0  0  0  0  0  0
   59.3170   31.5320   49.5660 O   0  0  0  0  0  0  0  0  0  0  0  0
   59.9080   29.6490   51.0350 O   0  0  0  0  0  0  0  0  0  0  0  0
   58.5720   29.3530   47.7200 C   0  0  0  0  0  0  0  0  0  0  0  0
   56.8850   28.9700   43.6850 N   0  0  0  0  0  0  0  0  0  0  0  0
   56.8650   29.8300   42.6350 C   0  0  0  0  0  0  0  0  0  0  0  0
   57.0220   31.1920   42.8570 C   0  0  0  0  0  0  0  0  0  0  0  0
   57.0110   32.0960   41.8490 F   0  0  0  0  0  0  0  0  0  0  0  0
   59.2260   32.5460   45.9770 C   0  0  0  0  0  0  0  0  0  0  0  0
   63.9455   34.5660   46.7617 H   0  0  0  0  0  0  0  0  0  0  0  0
   63.9888   33.0353   45.8227 H   0  0  0  0  0  0  0  0  0  0  0  0
   62.5047   34.0473   45.8227 H   0  0  0  0  0  0  0  0  0  0  0  0
   60.7110   31.4880   47.9540 H   0  0  0  0  0  0  0  0  0  0  0  0
   61.1993   34.9764   47.3148 H   0  0  0  0  0  0  0  0  0  0  0  0
   59.7174   36.4276   45.9439 H   0  0  0  0  0  0  0  0  0  0  0  0
   57.9322   35.3618   44.6096 H   0  0  0  0  0  0  0  0  0  0  0  0
   57.3420   31.0540   46.1400 H   0  0  0  0  0  0  0  0  0  0  0  0
   58.7908   26.5412   45.8172 H   0  0  0  0  0  0  0  0  0  0  0  0
   60.8330   26.2144   47.1976 H   0  0  0  0  0  0  0  0  0  0  0  0
   61.4119   27.9115   48.9094 H   0  0  0  0  0  0  0  0  0  0  0  0
   62.3230   30.0740   48.9170 H   0  0  0  0  0  0  0  0  0  0  0  0
   62.0630   31.6650   49.5890 H   0  0  0  0  0  0  0  0  0  0  0  0
   57.9425   30.2416   47.8755 H   0  0  0  0  0  0  0  0  0  0  0  0
   56.7640   27.9640   43.4820 H   0  0  0  0  0  0  0  0  0  0  0  0
   56.7250   29.4497   41.6124 H   0  0  0  0  0  0  0  0  0  0  0  0
   59.0871   31.4548   45.9848 H   0  0  0  0  0  0  0  0  0  0  0  0
  1  2  1  0
  2  3  2  0
  2  4  2  0
  2  5  1  0
  5  6  1  0
  6  7  2  0
  7  8  1  0
  8  9  2  0
  9 10  1  0
 10 11  1  0
 11 12  2  0
 12 13  1  0
 13 14  1  0
 14 15  2  0
 15 16  1  0
 16 17  2  0
 17 18  1  0
 18 19  2  0
 19 20  1  0
 20 21  1  0
 21 22  1  0
 21 23  2  0
 21 24  2  0
 20 25  2  0
 14 26  1  0
 26 27  1  0
 27 28  2  0
 28 29  1  0
 10 30  2  0
 30  6  1  0
 28 12  1  0
 25 16  1  0
  1 31  1  0
  1 32  1  0
  1 33  1  0
  5 34  1  0
  7 35  1  0
  8 36  1  0
  9 37  1  0
 13 38  1  0
 17 39  1  0
 18 40  1  0
 19 41  1  0
 22 42  1  0
 22 43  1  0
 25 44  1  0
 26 45  1  0
 27 46  1  0
 30 47  1  0
M  END
>  <smiles>  (71) 
CS(=O)(=O)Nc1cccc(N=c2[nH]c(=Nc3cccc(S(N)(=O)=O)c3)[nH]cc2F)c1

>  <score_type>  (71) 
oracle

>  <origin>  (71) 
adg

>  <m_score__min__energy>  (71) 
-9.5600000000000005

>  <m_primary>  (71) 
energy

$$$$
71:0
     RDKit          3D

 54 56  0  0  1  0  0  0  0  0999 V2000
   63.7200   32.1400   47.4590 C   0  0  0  0  0  0  0  0  0  0  0  0
   63.4050   33.5180   47.3290 O   0  0  0  0  0  0  0  0  0  0  0  0
   62.0650   33.8710   47.4610 C   0  0  0  0  0  0  0  0  0  0  0  0
   61.3100   34.0810   46.3320 C   0  0  0  0  0  0  0  0  0  0  0  0
   59.9880   34.4280   46.4940 C   0  0  0  0  0  0  0  0  0  0  0  0
   59.2900   34.6210   45.4450 N   0  0  0  0  0  0  0  0  0  0  0  0
   58.1770   33.5600   44.7210 S   0  0  0  0  0  0  0  0  0  0  0  0
   56.7830   34.0660   44.5950 O   0  0  0  0  0  0  0  0  0  0  0  0
   58.6500   33.4310   43.2660 O   0  0  0  0  0  0  0  0  0  0  0  0
   58.2740   31.9390   45.3870 C   0  0  0  0  0  0  0  0  0  0  0  0
   58.1740   30.8460   44.5570 C   0  0  0  0  0  0  0  0  0  0  0  0
   58.2490   29.5600   45.0350 C   0  0  0  0  0  0  0  0  0  0  0  0
   58.4320   29.2810   46.4030 C   0  0  0  0  0  0  0  0  0  0  0  0
   58.4970   27.9460   46.8090 N   0  0  0  0  0  0  0  0  0  0  0  0
   59.1570   27.3790   47.9090 C   0  0  0  0  0  0  0  0  0  0  0  0
   60.0400   28.1590   49.0190 S   0  0  0  0  0  0  0  0  0  0  0  0
   59.0460   25.9550   48.0780 N   0  0  0  0  0  0  0  0  0  0  0  0
   58.2510   25.2950   47.0700 C   0  0  0  0  0  0  0  0  0  0  0  0
   58.9440   24.7390   46.0220 C   0  0  0  0  0  0  0  0  0  0  0  0
   58.1910   24.0940   45.0450 C   0  0  0  0  0  0  0  0  0  0  0  0
   56.8160   24.0080   45.1100 C   0  0  0  0  0  0  0  0  0  0  0  0
   55.8800   23.2000   43.8810 S   0  0  0  0  0  0  0  0  0  0  0  0
   56.6920   23.2440   42.3680 N   0  0  0  0  0  0  0  0  0  0  0  0
   55.5550   21.7850   44.2750 O   0  0  0  0  0  0  0  0  0  0  0  0
   54.5540   23.9120   43.7470 O   0  0  0  0  0  0  0  0  0  0  0  0
   56.1800   24.5940   46.2020 C   0  0  0  0  0  0  0  0  0  0  0  0
   56.8880   25.2430   47.1940 C   0  0  0  0  0  0  0  0  0  0  0  0
   58.5290   30.3890   47.2070 C   0  0  0  0  0  0  0  0  0  0  0  0
   58.4540   31.6910   46.7280 C   0  0  0  0  0  0  0  0  0  0  0  0
   59.4040   34.5710   47.6980 N   0  0  0  0  0  0  0  0  0  0  0  0
   60.1660   34.3580   48.7860 C   0  0  0  0  0  0  0  0  0  0  0  0
   59.5860   34.4980   50.0480 O   0  0  0  0  0  0  0  0  0  0  0  0
   59.4630   33.4580   50.9670 C   0  0  0  0  0  0  0  0  0  0  0  0
   61.4600   34.0180   48.6460 N   0  0  0  0  0  0  0  0  0  0  0  0
   63.7802   31.8766   48.5253 H   0  0  0  0  0  0  0  0  0  0  0  0
   62.9364   31.5376   46.9762 H   0  0  0  0  0  0  0  0  0  0  0  0
   64.6875   31.9379   46.9762 H   0  0  0  0  0  0  0  0  0  0  0  0
   61.7491   33.9749   45.3290 H   0  0  0  0  0  0  0  0  0  0  0  0
   58.0297   31.0066   43.4784 H   0  0  0  0  0  0  0  0  0  0  0  0
   58.1634   28.7224   44.3271 H   0  0  0  0  0  0  0  0  0  0  0  0
   57.9670   27.2510   46.1910 H   0  0  0  0  0  0  0  0  0  0  0  0
   59.4970   25.4360   48.8560 H   0  0  0  0  0  0  0  0  0  0  0  0
   60.0404   24.8006   45.9581 H   0  0  0  0  0  0  0  0  0  0  0  0
   58.7112   23.6365   44.1905 H   0  0  0  0  0  0  0  0  0  0  0  0
   56.1790   22.5870   41.7390 H   0  0  0  0  0  0  0  0  0  0  0  0
   56.6440   24.1850   41.9240 H   0  0  0  0  0  0  0  0  0  0  0  0
   55.0839   24.5382   46.2761 H   0  0  0  0  0  0  0  0  0  0  0  0
   56.3759   25.7016   48.0527 H   0  0  0  0  0  0  0  0  0  0  0  0
   58.6737   30.2384   48.2870 H   0  0  0  0  0  0  0  0  0  0  0  0
   58.5396   32.5338   47.4297 H   0  0  0  0  0  0  0  0  0  0  0  0
   58.4200   34.8300   47.7820 H   0  0  0  0  0  0  0  0  0  0  0  0
   59.5110   33.8636   51.9884 H   0  0  0  0  0  0  0  0  0  0  0  0
   58.4985   32.9501   50.8191 H   0  0  0  0  0  0  0  0  0  0  0  0
   60.2824   32.7392   50.8191 H   0  0  0  0  0  0  0  0  0  0  0  0
  1  2  1  0
  2  3  1  0
  3  4  2  0
  4  5  1  0
  5  6  2  0
  6  7  1  0
  7  8  2  0
  7  9  2  0
  7 10  1  0
 10 11  2  0
 11 12  1  0
 12 13  2  0
 13 14  1  0
 14 15  1  0
 15 16  2  0
 15 17  1  0
 17 18  1  0
 18 19  2  0
 19 20  1  0
 20 21  2  0
 21 22  1  0
 22 23  1  0
 22 24  2  0
 22 25  2  0
 21 26  1  0
 26 27  2  0
 13 28  1  0
 28 29  2  0
  5 30  1  0
 30 31  1  0
 31 32  1  0
 32 33  1  0
 31 34  2  0
 34  3  1  0
 29 10  1  0
 27 18  1  0
  1 35  1  0
  1 36  1  0
  1 37  1  0
  4 38  1  0
 11 39  1  0
 12 40  1  0
 14 41  1  0
 17 42  1  0
 19 43  1  0
 20 44  1  0
 23 45  1  0
 23 46  1  0
 26 47  1  0
 27 48  1  0
 28 49  1  0
 29 50  1  0
 30 51  1  0
 33 52  1  0
 33 53  1  0
 33 54  1  0
M  END
>  <smiles>  (72) 
COc1cc(=NS(=O)(=O)c2ccc(NC(=S)Nc3ccc(S(N)(=O)=O)cc3)cc2)[nH]c(OC)n1

>  <score_type>  (72) 
oracle

>  <origin>  (72) 
adg

>  <m_score__min__energy>  (72) 
-9.0299999999999994

>  <m_primary>  (72) 
energy

$$$$
72:0
     RDKit          3D

 48 50  0  0  0  0  0  0  0  0999 V2000
   56.9490   21.5420   42.9870 C   0  0  0  0  0  0  0  0  0  0  0  0
   55.9600   22.4930   43.3610 O   0  0  0  0  0  0  0  0  0  0  0  0
   56.1110   23.4260   44.3980 C   0  0  0  0  0  0  0  0  0  0  0  0
   55.6680   23.1740   45.7110 C   0  0  0  0  0  0  0  0  0  0  0  0
   55.8580   24.1290   46.7120 C   0  0  0  0  0  0  0  0  0  0  0  0
   56.4800   25.3440   46.4150 C   0  0  0  0  0  0  0  0  0  0  0  0
   56.9050   25.6190   45.1110 C   0  0  0  0  0  0  0  0  0  0  0  0
   57.5340   26.8470   44.8530 O   0  0  0  0  0  0  0  0  0  0  0  0
   58.1990   27.6360   45.8040 C   0  0  0  0  0  0  0  0  0  0  0  0
   59.2720   27.1030   46.5380 C   0  0  0  0  0  0  0  0  0  0  0  0
   59.9600   27.8830   47.4660 C   0  0  0  0  0  0  0  0  0  0  0  0
   59.6010   29.2220   47.6730 C   0  0  0  0  0  0  0  0  0  0  0  0
   60.2920   30.0550   48.6220 N   0  0  0  0  0  0  0  0  0  0  0  0
   60.8690   31.6520   48.2660 S   0  0  0  0  0  0  0  0  0  0  0  0
   61.0680   32.4070   49.5500 O   0  0  0  0  0  0  0  0  0  0  0  0
   62.1870   31.5510   47.5490 O   0  0  0  0  0  0  0  0  0  0  0  0
   59.6850   32.5070   47.2830 C   0  0  0  0  0  0  0  0  0  0  0  0
   58.3970   32.7320   47.7870 C   0  0  0  0  0  0  0  0  0  0  0  0
   57.4430   33.3980   47.0100 C   0  0  0  0  0  0  0  0  0  0  0  0
   57.7650   33.8350   45.7160 C   0  0  0  0  0  0  0  0  0  0  0  0
   56.7570   34.5790   44.8910 C   0  0  0  0  0  0  0  0  0  0  0  0
   59.0620   33.6270   45.2210 C   0  0  0  0  0  0  0  0  0  0  0  0
   60.0160   32.9630   45.9990 C   0  0  0  0  0  0  0  0  0  0  0  0
   58.5340   29.7610   46.9390 C   0  0  0  0  0  0  0  0  0  0  0  0
   57.8290   28.9890   45.9940 C   0  0  0  0  0  0  0  0  0  0  0  0
   56.7160   29.6210   45.2310 C   0  0  0  0  0  0  0  0  0  0  0  0
   55.5340   28.8930   44.9020 N   0  0  0  0  0  0  0  0  0  0  0  0
   56.8070   30.8220   44.8610 O   0  0  0  0  0  0  0  0  0  0  0  0
   56.7310   24.6470   44.1090 C   0  0  0  0  0  0  0  0  0  0  0  0
   57.4006   21.1078   43.8912 H   0  0  0  0  0  0  0  0  0  0  0  0
   56.4832   20.7439   42.3903 H   0  0  0  0  0  0  0  0  0  0  0  0
   57.7282   22.0387   42.3903 H   0  0  0  0  0  0  0  0  0  0  0  0
   55.1708   22.2220   45.9487 H   0  0  0  0  0  0  0  0  0  0  0  0
   55.5168   23.9239   47.7374 H   0  0  0  0  0  0  0  0  0  0  0  0
   56.6363   26.0879   47.2101 H   0  0  0  0  0  0  0  0  0  0  0  0
   59.5729   26.0571   46.3783 H   0  0  0  0  0  0  0  0  0  0  0  0
   60.7901   27.4449   48.0396 H   0  0  0  0  0  0  0  0  0  0  0  0
   60.3770   29.7330   49.6130 H   0  0  0  0  0  0  0  0  0  0  0  0
   58.1351   32.3838   48.7970 H   0  0  0  0  0  0  0  0  0  0  0  0
   56.4366   33.5798   47.4150 H   0  0  0  0  0  0  0  0  0  0  0  0
   56.0517   35.0996   45.5555 H   0  0  0  0  0  0  0  0  0  0  0  0
   57.2734   35.3141   44.2563 H   0  0  0  0  0  0  0  0  0  0  0  0
   56.2067   33.8689   44.2563 H   0  0  0  0  0  0  0  0  0  0  0  0
   59.3293   33.9878   44.2168 H   0  0  0  0  0  0  0  0  0  0  0  0
   61.0287   32.7981   45.6025 H   0  0  0  0  0  0  0  0  0  0  0  0
   58.2414   30.8084   47.1045 H   0  0  0  0  0  0  0  0  0  0  0  0
   55.5180   27.8500   44.9340 H   0  0  0  0  0  0  0  0  0  0  0  0
   57.0860   24.8488   43.0876 H   0  0  0  0  0  0  0  0  0  0  0  0
  1  2  1  0
  2  3  1  0
  3  4  2  0
  4  5  1  0
  5  6  2  0
  6  7  1  0
  7  8  1  0
  8  9  1  0
  9 10  2  0
 10 11  1  0
 11 12  2  0
 12 13  1  0
 13 14  1  0
 14 15  2  0
 14 16  2  0
 14 17  1  0
 17 18  2  0
 18 19  1  0
 19 20  2  0
 20 21  1  0
 20 22  1  0
 22 23  2  0
 12 24  1  0
 24 25  2  0
 25 26  1  0
 26 27  1  0
 26 28  2  0
  7 29  2  0
 29  3  1  0
 25  9  1  0
 23 17  1  0
  1 30  1  0
  1 31  1  0
  1 32  1  0
  4 33  1  0
  5 34  1  0
  6 35  1  0
 10 36  1  0
 11 37  1  0
 13 38  1  0
 18 39  1  0
 19 40  1  0
 21 41  1  0
 21 42  1  0
 21 43  1  0
 22 44  1  0
 23 45  1  0
 24 46  1  0
 27 47  1  0
 29 48  1  0
M  CHG  1  27  -1
M  END
>  <UniqueID>  (73) 
67

>  <SMILES>  (73) 
COc1cccc(Oc2ccc(NS(=O)(=O)c3ccc(C)cc3)cc2C([NH-])=O)c1

>  <Energy>  (73) 
60.416719379614186

>  <Genealogy>  (73) 
COc1cccc(Oc2ccc(NS(=O)(=O)c3ccc(C)cc3)cc2C([NH-])=O)c1 (protonated)
COc1cccc(Oc2ccc(NS(=O)(=O)c3ccc(C)cc3)cc2C([NH-])=O)c1 (3D coordinates assigned)
COc1cccc(Oc2ccc(NS(=O)(=O)c3ccc(C)cc3)cc2C([NH-])=O)c1 (optimized conformer: 60.416719379614186 kcal/mol)

>  <smiles>  (73) 
COc1cccc(Oc2ccc(NS(=O)(=O)c3ccc(C)cc3)cc2C(N)=O)c1

>  <score_type>  (73) 
oracle

>  <origin>  (73) 
adg

>  <m_score__min__energy>  (73) 
-12.31

>  <m_primary>  (73) 
energy

$$$$
73:0
     RDKit          3D

 20 20  0  0  0  0  0  0  0  0999 V2000
   57.1050   30.7930   43.7970 C   0  0  0  0  0  0  0  0  0  0  0  0
   57.4810   29.5220   44.4930 C   0  0  0  0  0  0  0  0  0  0  0  0
   58.7690   29.2110   44.6250 O   0  0  0  0  0  0  0  0  0  0  0  0
   59.1860   28.0980   45.2270 C   0  0  0  0  0  0  0  0  0  0  0  0
   60.6590   27.8360   45.3490 C   0  0  0  0  0  0  0  0  0  0  0  0
   61.4200   28.7630   44.5130 N   0  0  0  0  0  0  0  0  0  0  0  0
   58.2540   27.2010   45.7660 C   0  0  0  0  0  0  0  0  0  0  0  0
   56.8950   27.4900   45.6490 C   0  0  0  0  0  0  0  0  0  0  0  0
   56.0380   26.6980   46.1230 O   0  0  0  0  0  0  0  0  0  0  0  0
   56.4950   28.6640   45.0040 C   0  0  0  0  0  0  0  0  0  0  0  0
   55.1450   28.9720   44.8760 O   0  0  0  0  0  0  0  0  0  0  0  0
   56.8761   31.5666   44.5447 H   0  0  0  0  0  0  0  0  0  0  0  0
   57.9425   31.1279   43.1674 H   0  0  0  0  0  0  0  0  0  0  0  0
   56.2200   30.6183   43.1674 H   0  0  0  0  0  0  0  0  0  0  0  0
   60.9627   27.9637   46.3985 H   0  0  0  0  0  0  0  0  0  0  0  0
   60.8642   26.8084   45.0145 H   0  0  0  0  0  0  0  0  0  0  0  0
   62.0440   29.3550   45.1090 H   0  0  0  0  0  0  0  0  0  0  0  0
   60.7670   29.3730   43.9690 H   0  0  0  0  0  0  0  0  0  0  0  0
   62.0100   28.2160   43.8450 H   0  0  0  0  0  0  0  0  0  0  0  0
   58.5890   26.2841   46.2730 H   0  0  0  0  0  0  0  0  0  0  0  0
  1  2  1  0
  2  3  1  0
  3  4  1  0
  4  5  1  0
  5  6  1  0
  4  7  2  0
  7  8  1  0
  8  9  2  0
  8 10  1  0
 10 11  1  0
 10  2  2  0
  1 12  1  0
  1 13  1  0
  1 14  1  0
  5 15  1  0
  5 16  1  0
  6 17  1  0
  6 18  1  0
  6 19  1  0
  7 20  1  0
M  CHG  2   6   1  11  -1
M  END
>  <UniqueID>  (74) 
68

>  <SMILES>  (74) 
Cc1oc(C[NH3+])cc(=O)c1[O-]

>  <Energy>  (74) 
17.08613854844877

>  <Genealogy>  (74) 
Cc1oc(C[NH3+])cc(=O)c1[O-] (protonated)
Cc1oc(C[NH3+])cc(=O)c1[O-] (3D coordinates assigned)
Cc1oc(C[NH3+])cc(=O)c1[O-] (optimized conformer: 17.08613854844877 kcal/mol)

>  <smiles>  (74) 
Cc1oc(CN)cc(=O)c1O

>  <score_type>  (74) 
oracle

>  <origin>  (74) 
adg

>  <m_score__min__energy>  (74) 
-7.9400000000000004

>  <m_primary>  (74) 
energy

$$$$
74:0
     RDKit          3D

 37 38  0  0  0  0  0  0  0  0999 V2000
   58.0200   33.5980   46.2620 C   0  0  0  0  0  0  0  0  0  0  0  0
   57.3890   33.0100   44.9890 C   0  0  0  0  0  0  0  0  0  0  0  0
   57.3840   31.5250   44.9440 N   0  0  0  0  0  0  0  0  0  0  0  0
   56.9470   31.0290   43.6130 C   0  0  0  0  0  0  0  0  0  0  0  0
   55.7420   30.0870   43.7070 C   0  0  0  0  0  0  0  0  0  0  0  0
   58.6990   30.9540   45.3670 C   0  0  0  0  0  0  0  0  0  0  0  0
   59.1660   29.7960   44.4640 C   0  0  0  0  0  0  0  0  0  0  0  0
   59.3110   28.5170   45.2390 C   0  0  0  0  0  0  0  0  0  0  0  0
   60.5000   27.9740   45.7180 C   0  0  0  0  0  0  0  0  0  0  0  0
   60.2560   26.8450   46.4200 N   0  0  0  0  0  0  0  0  0  0  0  0
   58.9220   26.6730   46.3950 C   0  0  0  0  0  0  0  0  0  0  0  0
   58.1930   25.6490   46.9960 C   0  0  0  0  0  0  0  0  0  0  0  0
   56.7930   25.6650   46.8540 C   0  0  0  0  0  0  0  0  0  0  0  0
   56.0500   24.6860   47.4260 F   0  0  0  0  0  0  0  0  0  0  0  0
   56.1600   26.6980   46.1240 C   0  0  0  0  0  0  0  0  0  0  0  0
   54.7770   26.7060   45.9920 O   0  0  0  0  0  0  0  0  0  0  0  0
   56.9240   27.7190   45.5280 C   0  0  0  0  0  0  0  0  0  0  0  0
   58.3100   27.6740   45.6840 C   0  0  0  0  0  0  0  0  0  0  0  0
   57.5423   33.1529   47.1473 H   0  0  0  0  0  0  0  0  0  0  0  0
   59.0968   33.3738   46.2747 H   0  0  0  0  0  0  0  0  0  0  0  0
   57.8722   34.6880   46.2747 H   0  0  0  0  0  0  0  0  0  0  0  0
   56.3484   33.3609   44.9256 H   0  0  0  0  0  0  0  0  0  0  0  0
   58.0048   33.3506   44.1436 H   0  0  0  0  0  0  0  0  0  0  0  0
   56.6430   31.2420   45.6270 H   0  0  0  0  0  0  0  0  0  0  0  0
   56.6733   31.8912   42.9872 H   0  0  0  0  0  0  0  0  0  0  0  0
   57.7822   30.4623   43.1757 H   0  0  0  0  0  0  0  0  0  0  0  0
   55.5038   29.9008   44.7646 H   0  0  0  0  0  0  0  0  0  0  0  0
   54.8755   30.5496   43.2119 H   0  0  0  0  0  0  0  0  0  0  0  0
   55.9818   29.1344   43.2119 H   0  0  0  0  0  0  0  0  0  0  0  0
   59.4554   31.7520   45.3344 H   0  0  0  0  0  0  0  0  0  0  0  0
   58.5736   30.5515   46.3830 H   0  0  0  0  0  0  0  0  0  0  0  0
   58.4268   29.6468   43.6632 H   0  0  0  0  0  0  0  0  0  0  0  0
   60.1488   30.0593   44.0459 H   0  0  0  0  0  0  0  0  0  0  0  0
   61.4984   28.4036   45.5489 H   0  0  0  0  0  0  0  0  0  0  0  0
   60.9610   26.2390   46.8940 H   0  0  0  0  0  0  0  0  0  0  0  0
   58.6962   24.8526   47.5639 H   0  0  0  0  0  0  0  0  0  0  0  0
   56.4435   28.5272   44.9571 H   0  0  0  0  0  0  0  0  0  0  0  0
  1  2  1  0
  2  3  1  0
  3  4  1  0
  4  5  1  0
  3  6  1  0
  6  7  1  0
  7  8  1  0
  8  9  2  0
  9 10  1  0
 10 11  1  0
 11 12  2  0
 12 13  1  0
 13 14  1  0
 13 15  2  0
 15 16  1  0
 15 17  1  0
 17 18  2  0
 18  8  1  0
 18 11  1  0
  1 19  1  0
  1 20  1  0
  1 21  1  0
  2 22  1  0
  2 23  1  0
  3 24  1  0
  4 25  1  0
  4 26  1  0
  5 27  1  0
  5 28  1  0
  5 29  1  0
  6 30  1  0
  6 31  1  0
  7 32  1  0
  7 33  1  0
  9 34  1  0
 10 35  1  0
 12 36  1  0
 17 37  1  0
M  CHG  2   3   1  16  -1
M  END
>  <UniqueID>  (75) 
69

>  <SMILES>  (75) 
CC[NH+](CC)CCc1c[nH]c2cc(F)c([O-])cc12

>  <Energy>  (75) 
70.88215456602191

>  <Genealogy>  (75) 
CC[NH+](CC)CCc1c[nH]c2cc(F)c([O-])cc12 (protonated)
CC[NH+](CC)CCc1c[nH]c2cc(F)c([O-])cc12 (3D coordinates assigned)
CC[NH+](CC)CCc1c[nH]c2cc(F)c([O-])cc12 (optimized conformer: 70.88215456602191 kcal/mol)

>  <smiles>  (75) 
CCN(CC)CCc1c[nH]c2cc(F)c(O)cc12

>  <score_type>  (75) 
oracle

>  <origin>  (75) 
adg

>  <m_score__min__energy>  (75) 
-8.4100000000000001

>  <m_primary>  (75) 
energy

$$$$
75:0
     RDKit          3D

 49 51  0  0  0  0  0  0  0  0999 V2000
   60.9726   27.5715   46.4210 H   0  0  0  0  0  0  0  0  0  0  0  0
   60.3740   28.4750   46.2330 C   0  0  0  0  0  0  0  0  0  0  0  0
   60.0880   29.3820   47.3630 C   0  0  0  0  0  0  0  0  0  0  0  0
   58.9860   29.2520   47.9630 O   0  0  0  0  0  0  0  0  0  0  0  0
   61.0400   30.4170   47.8320 C   0  0  0  0  0  0  0  0  0  0  0  0
   61.4760   31.4190   46.9500 C   0  0  0  0  0  0  0  0  0  0  0  0
   61.1199   31.4231   45.9092 H   0  0  0  0  0  0  0  0  0  0  0  0
   62.3590   32.4110   47.3850 C   0  0  0  0  0  0  0  0  0  0  0  0
   62.7109   33.1779   46.6793 H   0  0  0  0  0  0  0  0  0  0  0  0
   62.7990   32.4340   48.7170 C   0  0  0  0  0  0  0  0  0  0  0  0
   63.7790   33.4760   49.1740 C   0  0  0  0  0  0  0  0  0  0  0  0
   63.6235   33.6858   50.2426 H   0  0  0  0  0  0  0  0  0  0  0  0
   63.6321   34.4030   48.6004 H   0  0  0  0  0  0  0  0  0  0  0  0
   65.0890   32.9910   48.9720 O   0  0  0  0  0  0  0  0  0  0  0  0
   65.6640   32.6640   50.2170 C   0  0  0  0  0  0  0  0  0  0  0  0
   65.0174   33.0317   51.0274 H   0  0  0  0  0  0  0  0  0  0  0  0
   65.7676   31.5719   50.2975 H   0  0  0  0  0  0  0  0  0  0  0  0
   66.6556   33.1333   50.2975 H   0  0  0  0  0  0  0  0  0  0  0  0
   62.3650   31.4350   49.6010 C   0  0  0  0  0  0  0  0  0  0  0  0
   62.7214   31.4324   50.6416 H   0  0  0  0  0  0  0  0  0  0  0  0
   61.4820   30.4430   49.1660 C   0  0  0  0  0  0  0  0  0  0  0  0
   61.1303   29.6769   49.8727 H   0  0  0  0  0  0  0  0  0  0  0  0
   59.9340   28.7070   44.9860 C   0  0  0  0  0  0  0  0  0  0  0  0
   60.5338   28.3337   44.1428 H   0  0  0  0  0  0  0  0  0  0  0  0
   58.6820   29.4400   44.6880 C   0  0  0  0  0  0  0  0  0  0  0  0
   57.5610   28.7170   44.2510 C   0  0  0  0  0  0  0  0  0  0  0  0
   57.6284   27.6257   44.1304 H   0  0  0  0  0  0  0  0  0  0  0  0
   56.3600   29.3730   43.9680 C   0  0  0  0  0  0  0  0  0  0  0  0
   55.4889   28.7975   43.6215 H   0  0  0  0  0  0  0  0  0  0  0  0
   56.2630   30.7570   44.1240 C   0  0  0  0  0  0  0  0  0  0  0  0
   55.3138   31.2675   43.9040 H   0  0  0  0  0  0  0  0  0  0  0  0
   57.3680   31.4980   44.5590 C   0  0  0  0  0  0  0  0  0  0  0  0
   57.2360   32.9200   44.7050 N   0  0  0  0  0  0  0  0  0  0  0  0
   58.2170   33.8140   45.2500 C   0  0  0  0  0  0  0  0  0  0  0  0
   58.6940   34.7110   44.5060 O   0  0  0  0  0  0  0  0  0  0  0  0
   58.6550   33.7360   46.6630 C   0  0  0  0  0  0  0  0  0  0  0  0
   58.1500   32.7430   47.5210 C   0  0  0  0  0  0  0  0  0  0  0  0
   57.4011   32.0285   47.1488 H   0  0  0  0  0  0  0  0  0  0  0  0
   58.5940   32.6580   48.8450 C   0  0  0  0  0  0  0  0  0  0  0  0
   58.2018   31.8714   49.5064 H   0  0  0  0  0  0  0  0  0  0  0  0
   59.5360   33.5720   49.3290 C   0  0  0  0  0  0  0  0  0  0  0  0
   59.9980   33.4810   50.6890 C   0  0  0  0  0  0  0  0  0  0  0  0
   60.3700   33.4070   51.7830 N   0  0  0  0  0  0  0  0  0  0  0  0
   60.0250   34.5800   48.4890 C   0  0  0  0  0  0  0  0  0  0  0  0
   60.7582   35.3057   48.8707 H   0  0  0  0  0  0  0  0  0  0  0  0
   59.5820   34.6650   47.1650 C   0  0  0  0  0  0  0  0  0  0  0  0
   59.9620   35.4647   46.5122 H   0  0  0  0  0  0  0  0  0  0  0  0
   58.5870   30.8410   44.8030 C   0  0  0  0  0  0  0  0  0  0  0  0
   59.4744   31.4261   45.0862 H   0  0  0  0  0  0  0  0  0  0  0  0
  1  2  1  0
  2  3  1  0
  3  4  2  0
  3  5  1  0
  5  6  2  0
  6  7  1  0
  6  8  1  0
  8  9  1  0
  8 10  2  0
 10 11  1  0
 11 12  1  0
 11 13  1  0
 11 14  1  0
 14 15  1  0
 15 16  1  0
 15 17  1  0
 15 18  1  0
 10 19  1  0
 19 20  1  0
 19 21  2  0
 21 22  1  0
  2 23  2  0
 23 24  1  0
 23 25  1  0
 25 26  2  0
 26 27  1  0
 26 28  1  0
 28 29  1  0
 28 30  2  0
 30 31  1  0
 30 32  1  0
 32 33  1  0
 33 34  1  0
 34 35  2  0
 34 36  1  0
 36 37  2  0
 37 38  1  0
 37 39  1  0
 39 40  1  0
 39 41  2  0
 41 42  1  0
 42 43  3  0
 41 44  1  0
 44 45  1  0
 44 46  2  0
 46 47  1  0
 32 48  2  0
 48 49  1  0
 21  5  1  0
 48 25  1  0
 46 36  1  0
M  CHG  1  33  -1
M  END
>  <UniqueID>  (76) 
70

>  <SMILES>  (76) 
COCc1ccc(C(=O)/C=C/c2cccc([N-]C(=O)c3ccc(C#N)cc3)c2)cc1

>  <Energy>  (76) 
64.04634259395931

>  <Genealogy>  (76) 
COCc1ccc(C(=O)C=Cc2cccc([N-]C(=O)c3ccc(C#N)cc3)c2)cc1 (protonated)
COCc1ccc(C(=O)/C=C/c2cccc([N-]C(=O)c3ccc(C#N)cc3)c2)cc1 (cis-trans isomerization)
COCc1ccc(C(=O)/C=C/c2cccc([N-]C(=O)c3ccc(C#N)cc3)c2)cc1 (3D coordinates assigned)
COCc1ccc(C(=O)/C=C/c2cccc([N-]C(=O)c3ccc(C#N)cc3)c2)cc1 (optimized conformer: 64.04634259395931 kcal/mol)

>  <smiles>  (76) 
COCc1ccc(C(=O)C=Cc2cccc(NC(=O)c3ccc(C#N)cc3)c2)cc1

>  <score_type>  (76) 
oracle

>  <origin>  (76) 
adg

>  <m_score__min__energy>  (76) 
-11

>  <m_primary>  (76) 
energy

$$$$
76:0
     RDKit          3D

 39 41  0  0  0  0  0  0  0  0999 V2000
   57.1560   20.2270   44.9670 N   0  0  0  0  0  0  0  0  0  0  0  0
   57.2090   21.5590   43.8670 S   0  0  0  0  0  0  0  0  0  0  0  0
   58.4300   21.4380   42.9990 O   0  0  0  0  0  0  0  0  0  0  0  0
   55.9900   21.5360   42.9880 O   0  0  0  0  0  0  0  0  0  0  0  0
   57.2570   23.0700   44.7700 C   0  0  0  0  0  0  0  0  0  0  0  0
   57.3420   24.2980   44.1010 C   0  0  0  0  0  0  0  0  0  0  0  0
   57.3910   25.4920   44.8270 C   0  0  0  0  0  0  0  0  0  0  0  0
   57.3800   25.4730   46.2270 C   0  0  0  0  0  0  0  0  0  0  0  0
   57.4140   26.7220   46.9340 N   0  0  0  0  0  0  0  0  0  0  0  0
   58.5570   27.5670   47.1100 C   0  0  0  0  0  0  0  0  0  0  0  0
   58.8400   28.0410   48.2430 O   0  0  0  0  0  0  0  0  0  0  0  0
   59.4800   27.7990   45.9620 C   0  0  0  0  0  0  0  0  0  0  0  0
   60.1710   29.4800   46.0730 S   0  0  0  0  0  0  0  0  0  0  0  0
   58.6410   30.2700   45.5720 C   0  0  0  0  0  0  0  0  0  0  0  0
   57.5880   29.5090   45.1610 N   0  0  0  0  0  0  0  0  0  0  0  0
   56.4110   30.0840   44.7770 C   0  0  0  0  0  0  0  0  0  0  0  0
   55.4530   29.3590   44.4010 O   0  0  0  0  0  0  0  0  0  0  0  0
   56.2690   31.4390   44.8010 N   0  0  0  0  0  0  0  0  0  0  0  0
   57.3080   32.2100   45.2100 C   0  0  0  0  0  0  0  0  0  0  0  0
   58.4940   31.6570   45.5980 C   0  0  0  0  0  0  0  0  0  0  0  0
   59.4790   32.6870   46.0060 C   0  0  0  0  0  0  0  0  0  0  0  0
   58.7240   34.0190   45.8090 C   0  0  0  0  0  0  0  0  0  0  0  0
   57.3090   33.6850   45.2940 C   0  0  0  0  0  0  0  0  0  0  0  0
   57.2800   24.2410   46.8980 C   0  0  0  0  0  0  0  0  0  0  0  0
   57.2260   23.0470   46.1710 C   0  0  0  0  0  0  0  0  0  0  0  0
   58.1340   20.0610   45.2920 H   0  0  0  0  0  0  0  0  0  0  0  0
   56.8740   19.3870   44.4140 H   0  0  0  0  0  0  0  0  0  0  0  0
   57.3703   24.3229   43.0016 H   0  0  0  0  0  0  0  0  0  0  0  0
   57.4385   26.4533   44.2944 H   0  0  0  0  0  0  0  0  0  0  0  0
   60.2972   27.0633   45.9934 H   0  0  0  0  0  0  0  0  0  0  0  0
   58.9267   27.6904   45.0175 H   0  0  0  0  0  0  0  0  0  0  0  0
   59.7713   32.5544   47.0581 H   0  0  0  0  0  0  0  0  0  0  0  0
   60.4114   32.6371   45.4245 H   0  0  0  0  0  0  0  0  0  0  0  0
   58.6569   34.5566   46.7663 H   0  0  0  0  0  0  0  0  0  0  0  0
   59.2545   34.6594   45.0890 H   0  0  0  0  0  0  0  0  0  0  0  0
   56.5414   34.0386   45.9980 H   0  0  0  0  0  0  0  0  0  0  0  0
   57.0795   34.1676   44.3325 H   0  0  0  0  0  0  0  0  0  0  0  0
   57.2442   24.2162   47.9971 H   0  0  0  0  0  0  0  0  0  0  0  0
   57.1589   22.0857   46.7014 H   0  0  0  0  0  0  0  0  0  0  0  0
  1  2  1  0
  2  3  2  0
  2  4  2  0
  2  5  1  0
  5  6  2  0
  6  7  1  0
  7  8  2  0
  8  9  1  0
  9 10  1  0
 10 11  2  0
 10 12  1  0
 12 13  1  0
 13 14  1  0
 14 15  1  0
 15 16  1  0
 16 17  2  0
 16 18  1  0
 18 19  2  0
 19 20  1  0
 20 21  1  0
 21 22  1  0
 22 23  1  0
  8 24  1  0
 24 25  2  0
 25  5  1  0
 20 14  2  0
 23 19  1  0
  1 26  1  0
  1 27  1  0
  6 28  1  0
  7 29  1  0
 12 30  1  0
 12 31  1  0
 21 32  1  0
 21 33  1  0
 22 34  1  0
 22 35  1  0
 23 36  1  0
 23 37  1  0
 24 38  1  0
 25 39  1  0
M  CHG  2   9  -1  15  -1
M  END
>  <UniqueID>  (77) 
71

>  <SMILES>  (77) 
NS(=O)(=O)c1ccc([N-]C(=O)CSc2[n-]c(=O)nc3c2CCC3)cc1

>  <Energy>  (77) 
46.582505461647315

>  <Genealogy>  (77) 
NS(=O)(=O)c1ccc([N-]C(=O)CSc2[n-]c(=O)nc3c2CCC3)cc1 (protonated)
NS(=O)(=O)c1ccc([N-]C(=O)CSc2[n-]c(=O)nc3c2CCC3)cc1 (3D coordinates assigned)
NS(=O)(=O)c1ccc([N-]C(=O)CSc2[n-]c(=O)nc3c2CCC3)cc1 (nonaromatic ring conformer: 46.582505461647315 kcal/mol)

>  <smiles>  (77) 
NS(=O)(=O)c1ccc(NC(=O)CSc2[nH]c(=O)nc3c2CCC3)cc1

>  <score_type>  (77) 
oracle

>  <origin>  (77) 
adg

>  <m_score__min__energy>  (77) 
-11.84

>  <m_primary>  (77) 
energy

$$$$
77:0
     RDKit          3D

 54 57  0  0  0  0  0  0  0  0999 V2000
   57.7939   32.9978   42.7273 H   0  0  0  0  0  0  0  0  0  0  0  0
   57.3920   32.0980   43.2160 C   0  0  0  0  0  0  0  0  0  0  0  0
   57.2020   32.0730   44.6050 C   0  0  0  0  0  0  0  0  0  0  0  0
   57.5670   33.2290   45.4400 C   0  0  0  0  0  0  0  0  0  0  0  0
   57.3080   34.3910   45.0270 O   0  0  0  0  0  0  0  0  0  0  0  0
   58.1720   33.0720   46.7290 N   0  0  0  0  0  0  0  0  0  0  0  0
   58.7610   34.1630   47.5010 C   0  0  0  0  0  0  0  0  0  0  0  0
   58.6273   35.1098   46.9572 H   0  0  0  0  0  0  0  0  0  0  0  0
   58.2640   34.2269   48.4802 H   0  0  0  0  0  0  0  0  0  0  0  0
   60.2330   33.9040   47.7030 C   0  0  0  0  0  0  0  0  0  0  0  0
   61.0790   33.9150   46.5780 C   0  0  0  0  0  0  0  0  0  0  0  0
   60.6587   34.1262   45.5836 H   0  0  0  0  0  0  0  0  0  0  0  0
   62.4450   33.6610   46.7100 C   0  0  0  0  0  0  0  0  0  0  0  0
   63.0959   33.6779   45.8234 H   0  0  0  0  0  0  0  0  0  0  0  0
   62.9840   33.3860   47.9650 C   0  0  0  0  0  0  0  0  0  0  0  0
   64.0613   33.1888   48.0679 H   0  0  0  0  0  0  0  0  0  0  0  0
   62.1610   33.3600   49.0920 C   0  0  0  0  0  0  0  0  0  0  0  0
   62.5954   33.1403   50.0784 H   0  0  0  0  0  0  0  0  0  0  0  0
   60.7810   33.6120   48.9790 C   0  0  0  0  0  0  0  0  0  0  0  0
   59.9380   33.6100   50.2380 C   0  0  0  0  0  0  0  0  0  0  0  0
   60.4424   34.2130   51.0074 H   0  0  0  0  0  0  0  0  0  0  0  0
   58.9519   34.0328   49.9952 H   0  0  0  0  0  0  0  0  0  0  0  0
   59.7420   32.2370   50.7540 N   0  0  0  0  0  0  0  0  0  0  0  0
   59.2860   31.3130   49.6890 C   0  0  0  0  0  0  0  0  0  0  0  0
   58.5939   31.8470   49.0213 H   0  0  0  0  0  0  0  0  0  0  0  0
   60.1655   30.9608   49.1300 H   0  0  0  0  0  0  0  0  0  0  0  0
   58.5660   30.0940   50.2890 C   0  0  0  0  0  0  0  0  0  0  0  0
   58.2745   29.4238   49.4669 H   0  0  0  0  0  0  0  0  0  0  0  0
   59.2686   29.6190   50.9896 H   0  0  0  0  0  0  0  0  0  0  0  0
   57.4000   30.4260   51.0320 O   0  0  0  0  0  0  0  0  0  0  0  0
   57.4310   31.7340   51.5860 C   0  0  0  0  0  0  0  0  0  0  0  0
   56.9947   32.4313   50.8556 H   0  0  0  0  0  0  0  0  0  0  0  0
   56.8596   31.6997   52.5253 H   0  0  0  0  0  0  0  0  0  0  0  0
   58.8490   32.2220   51.9380 C   0  0  0  0  0  0  0  0  0  0  0  0
   58.7826   33.2416   52.3455 H   0  0  0  0  0  0  0  0  0  0  0  0
   59.2745   31.5253   52.6753 H   0  0  0  0  0  0  0  0  0  0  0  0
   56.7270   30.9430   45.1960 N   0  0  0  0  0  0  0  0  0  0  0  0
   56.4050   29.8260   44.4800 C   0  0  0  0  0  0  0  0  0  0  0  0
   55.9100   28.7740   45.0620 N   0  0  0  0  0  0  0  0  0  0  0  0
   56.6640   27.6850   45.6210 C   0  0  0  0  0  0  0  0  0  0  0  0
   58.0440   27.8480   45.8110 C   0  0  0  0  0  0  0  0  0  0  0  0
   58.5279   28.7930   45.5233 H   0  0  0  0  0  0  0  0  0  0  0  0
   58.8080   26.8160   46.3640 C   0  0  0  0  0  0  0  0  0  0  0  0
   59.8929   26.9438   46.4928 H   0  0  0  0  0  0  0  0  0  0  0  0
   58.1950   25.6230   46.7530 C   0  0  0  0  0  0  0  0  0  0  0  0
   58.7984   24.8084   47.1799 H   0  0  0  0  0  0  0  0  0  0  0  0
   56.8150   25.4640   46.6000 C   0  0  0  0  0  0  0  0  0  0  0  0
   56.3327   24.5277   46.9176 H   0  0  0  0  0  0  0  0  0  0  0  0
   56.0440   26.4920   46.0440 C   0  0  0  0  0  0  0  0  0  0  0  0
   54.6980   26.3420   45.9700 F   0  0  0  0  0  0  0  0  0  0  0  0
   56.5650   29.8320   43.0890 C   0  0  0  0  0  0  0  0  0  0  0  0
   56.2970   28.9446   42.4968 H   0  0  0  0  0  0  0  0  0  0  0  0
   57.0670   30.9720   42.4590 C   0  0  0  0  0  0  0  0  0  0  0  0
   57.2061   30.9826   41.3679 H   0  0  0  0  0  0  0  0  0  0  0  0
  1  2  1  0
  2  3  2  0
  3  4  1  0
  4  5  2  0
  4  6  1  0
  6  7  1  0
  7  8  1  0
  7  9  1  0
  7 10  1  0
 10 11  2  0
 11 12  1  0
 11 13  1  0
 13 14  1  0
 13 15  2  0
 15 16  1  0
 15 17  1  0
 17 18  1  0
 17 19  2  0
 19 20  1  0
 20 21  1  0
 20 22  1  0
 20 23  1  0
 23 24  1  0
 24 25  1  0
 24 26  1  0
 24 27  1  0
 27 28  1  0
 27 29  1  0
 27 30  1  0
 30 31  1  0
 31 32  1  0
 31 33  1  0
 31 34  1  0
 34 35  1  0
 34 36  1  0
  3 37  1  0
 37 38  1  0
 38 39  2  0
 39 40  1  0
 40 41  2  0
 41 42  1  0
 41 43  1  0
 43 44  1  0
 43 45  2  0
 45 46  1  0
 45 47  1  0
 47 48  1  0
 47 49  2  0
 49 50  1  0
 38 51  1  0
 51 52  1  0
 51 53  2  0
 53 54  1  0
 53  2  1  0
 19 10  1  0
 34 23  1  0
 49 40  1  0
M  CHG  2   6  -1  37  -1
M  END
>  <UniqueID>  (78) 
72

>  <SMILES>  (78) 
O=C([N-]Cc1ccccc1CN1CCOCC1)c1ccc/c(=N/c2ccccc2F)[n-]1

>  <Energy>  (78) 
85.91288358761285

>  <Genealogy>  (78) 
O=C([N-]Cc1ccccc1CN1CCOCC1)c1cccc(=Nc2ccccc2F)[n-]1 (protonated)
O=C([N-]Cc1ccccc1CN1CCOCC1)c1ccc/c(=N/c2ccccc2F)[n-]1 (cis-trans isomerization)
O=C([N-]Cc1ccccc1CN1CCOCC1)c1ccc/c(=N/c2ccccc2F)[n-]1 (3D coordinates assigned)
O=C([N-]Cc1ccccc1CN1CCOCC1)c1ccc/c(=N/c2ccccc2F)[n-]1 (nonaromatic ring conformer: 85.91288358761285 kcal/mol)

>  <smiles>  (78) 
O=C(NCc1ccccc1CN1CCOCC1)c1cccc(=Nc2ccccc2F)[nH]1

>  <score_type>  (78) 
oracle

>  <origin>  (78) 
adg

>  <m_score__min__energy>  (78) 
-12.539999999999999

>  <m_primary>  (78) 
energy

$$$$
78:0
     RDKit          3D

 45 47  0  0  0  0  0  0  0  0999 V2000
   57.7200   31.9850   41.9140 C   0  0  0  0  0  0  0  0  0  0  0  0
   57.6060   31.5140   43.2520 O   0  0  0  0  0  0  0  0  0  0  0  0
   57.7720   32.3130   44.3950 C   0  0  0  0  0  0  0  0  0  0  0  0
   57.8590   33.7170   44.3110 C   0  0  0  0  0  0  0  0  0  0  0  0
   58.0490   34.4840   45.4610 C   0  0  0  0  0  0  0  0  0  0  0  0
   58.1570   33.8660   46.7060 C   0  0  0  0  0  0  0  0  0  0  0  0
   58.0670   32.4720   46.8130 C   0  0  0  0  0  0  0  0  0  0  0  0
   58.1660   31.8640   48.0650 O   0  0  0  0  0  0  0  0  0  0  0  0
   57.8680   31.6900   45.6570 C   0  0  0  0  0  0  0  0  0  0  0  0
   57.7820   30.2150   45.7720 C   0  0  0  0  0  0  0  0  0  0  0  0
   58.7650   29.5180   46.4900 C   0  0  0  0  0  0  0  0  0  0  0  0
   58.6840   28.1280   46.6470 C   0  0  0  0  0  0  0  0  0  0  0  0
   59.9020   27.2760   47.5920 S   0  0  0  0  0  0  0  0  0  0  0  0
   59.3550   25.9690   48.0920 O   0  0  0  0  0  0  0  0  0  0  0  0
   61.1020   27.0150   46.7270 O   0  0  0  0  0  0  0  0  0  0  0  0
   60.3740   28.2440   48.9490 N   0  0  0  0  0  0  0  0  0  0  0  0
   60.7520   29.6160   48.8140 C   0  0  0  0  0  0  0  0  0  0  0  0
   60.4280   30.4510   49.7040 O   0  0  0  0  0  0  0  0  0  0  0  0
   61.4540   30.0390   47.6380 N   0  0  0  0  0  0  0  0  0  0  0  0
   61.9840   31.3640   47.4490 C   0  0  0  0  0  0  0  0  0  0  0  0
   61.1710   32.3550   46.8760 C   0  0  0  0  0  0  0  0  0  0  0  0
   61.6700   33.6460   46.6670 C   0  0  0  0  0  0  0  0  0  0  0  0
   62.9880   33.9520   47.0130 C   0  0  0  0  0  0  0  0  0  0  0  0
   63.8130   32.9650   47.5640 C   0  0  0  0  0  0  0  0  0  0  0  0
   63.3170   31.6740   47.7770 C   0  0  0  0  0  0  0  0  0  0  0  0
   57.6290   27.4250   46.0520 C   0  0  0  0  0  0  0  0  0  0  0  0
   56.6510   28.1090   45.3260 C   0  0  0  0  0  0  0  0  0  0  0  0
   56.7160   29.5000   45.1910 C   0  0  0  0  0  0  0  0  0  0  0  0
   55.7120   30.1650   44.4960 O   0  0  0  0  0  0  0  0  0  0  0  0
   57.9788   33.0541   41.9224 H   0  0  0  0  0  0  0  0  0  0  0  0
   58.5076   31.4212   41.3927 H   0  0  0  0  0  0  0  0  0  0  0  0
   56.7617   31.8438   41.3927 H   0  0  0  0  0  0  0  0  0  0  0  0
   57.7766   34.2117   43.3320 H   0  0  0  0  0  0  0  0  0  0  0  0
   58.1138   35.5795   45.3851 H   0  0  0  0  0  0  0  0  0  0  0  0
   58.3136   34.4755   47.6082 H   0  0  0  0  0  0  0  0  0  0  0  0
   59.0200   31.4090   48.3720 H   0  0  0  0  0  0  0  0  0  0  0  0
   59.6077   30.0680   46.9342 H   0  0  0  0  0  0  0  0  0  0  0  0
   61.4700   29.3810   46.8260 H   0  0  0  0  0  0  0  0  0  0  0  0
   60.1362   32.1156   46.5898 H   0  0  0  0  0  0  0  0  0  0  0  0
   61.0231   34.4207   46.2296 H   0  0  0  0  0  0  0  0  0  0  0  0
   63.3774   34.9682   46.8525 H   0  0  0  0  0  0  0  0  0  0  0  0
   64.8531   33.2044   47.8301 H   0  0  0  0  0  0  0  0  0  0  0  0
   63.9713   30.8987   48.2023 H   0  0  0  0  0  0  0  0  0  0  0  0
   57.5703   26.3316   46.1566 H   0  0  0  0  0  0  0  0  0  0  0  0
   55.8261   27.5514   44.8584 H   0  0  0  0  0  0  0  0  0  0  0  0
  1  2  1  0
  2  3  1  0
  3  4  2  0
  4  5  1  0
  5  6  2  0
  6  7  1  0
  7  8  1  0
  7  9  2  0
  9 10  1  0
 10 11  2  0
 11 12  1  0
 12 13  1  0
 13 14  2  0
 13 15  2  0
 13 16  1  0
 16 17  1  0
 17 18  2  0
 17 19  1  0
 19 20  1  0
 20 21  2  0
 21 22  1  0
 22 23  2  0
 23 24  1  0
 24 25  2  0
 12 26  2  0
 26 27  1  0
 27 28  2  0
 28 29  1  0
  9  3  1  0
 28 10  1  0
 25 20  1  0
  1 30  1  0
  1 31  1  0
  1 32  1  0
  4 33  1  0
  5 34  1  0
  6 35  1  0
  8 36  1  0
 11 37  1  0
 19 38  1  0
 21 39  1  0
 22 40  1  0
 23 41  1  0
 24 42  1  0
 25 43  1  0
 26 44  1  0
 27 45  1  0
M  CHG  2  16  -1  29  -1
M  END
>  <UniqueID>  (79) 
73

>  <SMILES>  (79) 
COc1cccc(O)c1-c1cc(S(=O)(=O)[N-]C(=O)Nc2ccccc2)ccc1[O-]

>  <Energy>  (79) 
59.158601957037256

>  <Genealogy>  (79) 
COc1cccc(O)c1-c1cc(S(=O)(=O)[N-]C(=O)Nc2ccccc2)ccc1[O-] (protonated)
COc1cccc(O)c1-c1cc(S(=O)(=O)[N-]C(=O)Nc2ccccc2)ccc1[O-] (3D coordinates assigned)
COc1cccc(O)c1-c1cc(S(=O)(=O)[N-]C(=O)Nc2ccccc2)ccc1[O-] (optimized conformer: 59.158601957037256 kcal/mol)

>  <smiles>  (79) 
COc1cccc(O)c1-c1cc(S(=O)(=O)NC(=O)Nc2ccccc2)ccc1O

>  <score_type>  (79) 
oracle

>  <origin>  (79) 
adg

>  <m_score__min__energy>  (79) 
-11.460000000000001

>  <m_primary>  (79) 
energy

$$$$
79:0
     RDKit          3D

 41 43  0  0  0  0  0  0  0  0999 V2000
   57.9940   26.8690   46.4280 O   0  0  0  0  0  0  0  0  0  0  0  0
   57.0160   27.4990   45.9480 C   0  0  0  0  0  0  0  0  0  0  0  0
   55.7260   26.8760   45.9500 N   0  0  0  0  0  0  0  0  0  0  0  0
   55.4540   25.1630   45.9170 S   0  0  0  0  0  0  0  0  0  0  0  0
   55.8580   24.5490   47.2290 O   0  0  0  0  0  0  0  0  0  0  0  0
   54.0040   24.8780   45.6480 O   0  0  0  0  0  0  0  0  0  0  0  0
   56.4480   24.4470   44.6260 C   0  0  0  0  0  0  0  0  0  0  0  0
   57.1100   25.4490   43.9430 F   0  0  0  0  0  0  0  0  0  0  0  0
   57.3720   23.5810   45.1800 F   0  0  0  0  0  0  0  0  0  0  0  0
   55.6380   23.7510   43.7480 F   0  0  0  0  0  0  0  0  0  0  0  0
   57.2300   28.8540   45.4040 C   0  0  0  0  0  0  0  0  0  0  0  0
   56.3270   29.3960   44.4770 C   0  0  0  0  0  0  0  0  0  0  0  0
   56.5200   30.6840   43.9710 C   0  0  0  0  0  0  0  0  0  0  0  0
   57.6200   31.4490   44.3850 C   0  0  0  0  0  0  0  0  0  0  0  0
   57.8200   32.8480   43.8650 C   0  0  0  0  0  0  0  0  0  0  0  0
   57.8200   33.7910   44.9370 O   0  0  0  0  0  0  0  0  0  0  0  0
   58.7410   33.8160   45.9960 C   0  0  0  0  0  0  0  0  0  0  0  0
   58.3430   33.8340   47.3480 C   0  0  0  0  0  0  0  0  0  0  0  0
   59.2980   33.8450   48.3670 C   0  0  0  0  0  0  0  0  0  0  0  0
   60.6650   33.8440   48.0560 C   0  0  0  0  0  0  0  0  0  0  0  0
   61.6320   33.8530   49.0730 C   0  0  0  0  0  0  0  0  0  0  0  0
   62.9910   33.8540   48.7480 C   0  0  0  0  0  0  0  0  0  0  0  0
   63.3950   33.8460   47.4100 C   0  0  0  0  0  0  0  0  0  0  0  0
   62.4410   33.8360   46.3880 C   0  0  0  0  0  0  0  0  0  0  0  0
   61.0730   33.8350   46.7000 C   0  0  0  0  0  0  0  0  0  0  0  0
   60.1060   33.8240   45.6830 C   0  0  0  0  0  0  0  0  0  0  0  0
   58.5470   30.8940   45.2800 C   0  0  0  0  0  0  0  0  0  0  0  0
   58.3560   29.6030   45.7860 C   0  0  0  0  0  0  0  0  0  0  0  0
   59.2550   29.0990   46.6700 F   0  0  0  0  0  0  0  0  0  0  0  0
   55.4615   28.8031   44.1464 H   0  0  0  0  0  0  0  0  0  0  0  0
   55.8060   31.0997   43.2448 H   0  0  0  0  0  0  0  0  0  0  0  0
   58.7833   32.9023   43.3366 H   0  0  0  0  0  0  0  0  0  0  0  0
   56.9942   33.0917   43.1804 H   0  0  0  0  0  0  0  0  0  0  0  0
   57.2728   33.8394   47.6023 H   0  0  0  0  0  0  0  0  0  0  0  0
   58.9760   33.8545   49.4188 H   0  0  0  0  0  0  0  0  0  0  0  0
   61.3196   33.8593   50.1277 H   0  0  0  0  0  0  0  0  0  0  0  0
   63.7457   33.8611   49.5482 H   0  0  0  0  0  0  0  0  0  0  0  0
   64.4663   33.8476   47.1604 H   0  0  0  0  0  0  0  0  0  0  0  0
   62.7638   33.8289   45.3364 H   0  0  0  0  0  0  0  0  0  0  0  0
   60.4233   33.8216   44.6298 H   0  0  0  0  0  0  0  0  0  0  0  0
   59.4286   31.4765   45.5857 H   0  0  0  0  0  0  0  0  0  0  0  0
  1  2  2  0
  2  3  1  0
  3  4  1  0
  4  5  2  0
  4  6  2  0
  4  7  1  0
  7  8  1  0
  7  9  1  0
  7 10  1  0
  2 11  1  0
 11 12  2  0
 12 13  1  0
 13 14  2  0
 14 15  1  0
 15 16  1  0
 16 17  1  0
 17 18  2  0
 18 19  1  0
 19 20  2  0
 20 21  1  0
 21 22  2  0
 22 23  1  0
 23 24  2  0
 24 25  1  0
 25 26  2  0
 14 27  1  0
 27 28  2  0
 28 29  1  0
 28 11  1  0
 26 17  1  0
 25 20  1  0
 12 30  1  0
 13 31  1  0
 15 32  1  0
 15 33  1  0
 18 34  1  0
 19 35  1  0
 21 36  1  0
 22 37  1  0
 23 38  1  0
 24 39  1  0
 26 40  1  0
 27 41  1  0
M  CHG  1   3  -1
M  END
>  <UniqueID>  (80) 
74

>  <SMILES>  (80) 
O=C([N-]S(=O)(=O)C(F)(F)F)c1ccc(COc2ccc3ccccc3c2)cc1F

>  <Energy>  (80) 
49.95327418332041

>  <Genealogy>  (80) 
O=C([N-]S(=O)(=O)C(F)(F)F)c1ccc(COc2ccc3ccccc3c2)cc1F (protonated)
O=C([N-]S(=O)(=O)C(F)(F)F)c1ccc(COc2ccc3ccccc3c2)cc1F (3D coordinates assigned)
O=C([N-]S(=O)(=O)C(F)(F)F)c1ccc(COc2ccc3ccccc3c2)cc1F (optimized conformer: 49.95327418332041 kcal/mol)

>  <smiles>  (80) 
O=C(NS(=O)(=O)C(F)(F)F)c1ccc(COc2ccc3ccccc3c2)cc1F

>  <score_type>  (80) 
oracle

>  <origin>  (80) 
adg

>  <m_score__min__energy>  (80) 
-10.91

>  <m_primary>  (80) 
energy

$$$$
80:0
     RDKit          3D

 34 36  0  0  0  0  0  0  0  0999 V2000
   66.3830   32.3800   50.2590 C   0  0  0  0  0  0  0  0  0  0  0  0
   65.3400   33.0880   49.5980 O   0  0  0  0  0  0  0  0  0  0  0  0
   64.1000   33.3320   50.1950 C   0  0  0  0  0  0  0  0  0  0  0  0
   63.9970   33.4120   51.4500 O   0  0  0  0  0  0  0  0  0  0  0  0
   62.9110   33.4950   49.3510 C   0  0  0  0  0  0  0  0  0  0  0  0
   62.0630   34.5970   49.3320 C   0  0  0  0  0  0  0  0  0  0  0  0
   61.0080   34.4690   48.4220 C   0  0  0  0  0  0  0  0  0  0  0  0
   61.0240   33.2650   47.7220 C   0  0  0  0  0  0  0  0  0  0  0  0
   60.0560   32.8360   46.7000 C   0  0  0  0  0  0  0  0  0  0  0  0
   59.4260   33.6520   45.7640 C   0  0  0  0  0  0  0  0  0  0  0  0
   58.5490   32.9580   44.9210 C   0  0  0  0  0  0  0  0  0  0  0  0
   58.4920   31.5920   45.1840 C   0  0  0  0  0  0  0  0  0  0  0  0
   57.6240   30.6220   44.4880 C   0  0  0  0  0  0  0  0  0  0  0  0
   56.9070   31.0140   43.5290 O   0  0  0  0  0  0  0  0  0  0  0  0
   57.5520   29.2050   44.9050 C   0  0  0  0  0  0  0  0  0  0  0  0
   58.7290   28.4380   44.9890 C   0  0  0  0  0  0  0  0  0  0  0  0
   59.9320   28.9780   44.6670 F   0  0  0  0  0  0  0  0  0  0  0  0
   58.6670   27.0980   45.3880 C   0  0  0  0  0  0  0  0  0  0  0  0
   57.4410   26.5180   45.7130 C   0  0  0  0  0  0  0  0  0  0  0  0
   56.2680   27.2760   45.6510 C   0  0  0  0  0  0  0  0  0  0  0  0
   55.0520   26.6970   45.9920 O   0  0  0  0  0  0  0  0  0  0  0  0
   56.3200   28.6170   45.2530 C   0  0  0  0  0  0  0  0  0  0  0  0
   55.1770   29.3510   45.2440 F   0  0  0  0  0  0  0  0  0  0  0  0
   59.5170   31.2570   46.4780 S   0  0  0  0  0  0  0  0  0  0  0  0
   62.3510   32.3650   48.2380 S   0  0  0  0  0  0  0  0  0  0  0  0
   66.2532   32.4681   51.3478 H   0  0  0  0  0  0  0  0  0  0  0  0
   66.3465   31.3193   49.9700 H   0  0  0  0  0  0  0  0  0  0  0  0
   67.3554   32.8055   49.9700 H   0  0  0  0  0  0  0  0  0  0  0  0
   62.2074   35.4818   49.9694 H   0  0  0  0  0  0  0  0  0  0  0  0
   60.2410   35.2434   48.2739 H   0  0  0  0  0  0  0  0  0  0  0  0
   59.6001   34.7358   45.6936 H   0  0  0  0  0  0  0  0  0  0  0  0
   57.9622   33.4449   44.1281 H   0  0  0  0  0  0  0  0  0  0  0  0
   59.5885   26.5001   45.4455 H   0  0  0  0  0  0  0  0  0  0  0  0
   57.3969   25.4622   46.0187 H   0  0  0  0  0  0  0  0  0  0  0  0
  1  2  1  0
  2  3  1  0
  3  4  2  0
  3  5  1  0
  5  6  2  0
  6  7  1  0
  7  8  2  0
  8  9  1  0
  9 10  2  0
 10 11  1  0
 11 12  2  0
 12 13  1  0
 13 14  2  0
 13 15  1  0
 15 16  2  0
 16 17  1  0
 16 18  1  0
 18 19  2  0
 19 20  1  0
 20 21  1  0
 20 22  2  0
 22 23  1  0
 12 24  1  0
  8 25  1  0
 25  5  1  0
 24  9  1  0
 22 15  1  0
  1 26  1  0
  1 27  1  0
  1 28  1  0
  6 29  1  0
  7 30  1  0
 10 31  1  0
 11 32  1  0
 18 33  1  0
 19 34  1  0
M  CHG  1  21  -1
M  END
>  <UniqueID>  (81) 
75

>  <SMILES>  (81) 
COC(=O)c1ccc(-c2ccc(C(=O)c3c(F)ccc([O-])c3F)s2)s1

>  <Energy>  (81) 
92.10119513933194

>  <Genealogy>  (81) 
COC(=O)c1ccc(-c2ccc(C(=O)c3c(F)ccc([O-])c3F)s2)s1 (protonated)
COC(=O)c1ccc(-c2ccc(C(=O)c3c(F)ccc([O-])c3F)s2)s1 (3D coordinates assigned)
COC(=O)c1ccc(-c2ccc(C(=O)c3c(F)ccc([O-])c3F)s2)s1 (optimized conformer: 92.10119513933194 kcal/mol)

>  <smiles>  (81) 
COC(=O)c1ccc(-c2ccc(C(=O)c3c(F)ccc(O)c3F)s2)s1

>  <score_type>  (81) 
oracle

>  <origin>  (81) 
adg

>  <m_score__min__energy>  (81) 
-11.039999999999999

>  <m_primary>  (81) 
energy

$$$$
81:0
     RDKit          3D

 37 39  0  0  0  0  0  0  0  0999 V2000
   59.4930   31.7900   46.5710 O   0  0  0  0  0  0  0  0  0  0  0  0
   59.1830   30.6000   46.8620 C   0  0  0  0  0  0  0  0  0  0  0  0
   59.9800   29.9320   47.8180 C   0  0  0  0  0  0  0  0  0  0  0  0
   61.1450   30.6690   48.3790 C   0  0  0  0  0  0  0  0  0  0  0  0
   62.1680   31.1250   47.5390 C   0  0  0  0  0  0  0  0  0  0  0  0
   63.2660   31.8120   48.0660 C   0  0  0  0  0  0  0  0  0  0  0  0
   63.3810   32.0420   49.4550 C   0  0  0  0  0  0  0  0  0  0  0  0
   64.5670   32.8270   50.0470 C   0  0  0  0  0  0  0  0  0  0  0  0
   65.2540   33.4590   48.9860 O   0  0  0  0  0  0  0  0  0  0  0  0
   65.5270   31.8290   50.7560 C   0  0  0  0  0  0  0  0  0  0  0  0
   66.7060   31.7250   50.0370 F   0  0  0  0  0  0  0  0  0  0  0  0
   65.8320   32.2650   52.0330 F   0  0  0  0  0  0  0  0  0  0  0  0
   64.9600   30.5690   50.8500 F   0  0  0  0  0  0  0  0  0  0  0  0
   64.0810   33.9440   51.0230 C   0  0  0  0  0  0  0  0  0  0  0  0
   63.1770   34.7730   50.3800 F   0  0  0  0  0  0  0  0  0  0  0  0
   63.4800   33.4220   52.1540 F   0  0  0  0  0  0  0  0  0  0  0  0
   65.1490   34.7200   51.4420 F   0  0  0  0  0  0  0  0  0  0  0  0
   62.3280   31.5970   50.2870 C   0  0  0  0  0  0  0  0  0  0  0  0
   61.2330   30.9100   49.7570 C   0  0  0  0  0  0  0  0  0  0  0  0
   59.8010   28.6310   48.3210 C   0  0  0  0  0  0  0  0  0  0  0  0
   58.8380   27.6730   48.0180 C   0  0  0  0  0  0  0  0  0  0  0  0
   57.7900   27.7500   47.1170 C   0  0  0  0  0  0  0  0  0  0  0  0
   57.4630   28.8290   46.3110 C   0  0  0  0  0  0  0  0  0  0  0  0
   58.0680   30.0770   46.2000 C   0  0  0  0  0  0  0  0  0  0  0  0
   57.3870   30.8160   45.2850 N   0  0  0  0  0  0  0  0  0  0  0  0
   56.3990   30.0070   44.8660 C   0  0  0  0  0  0  0  0  0  0  0  0
   55.5450   30.3430   44.0050 O   0  0  0  0  0  0  0  0  0  0  0  0
   56.4190   28.8100   45.4640 N   0  0  0  0  0  0  0  0  0  0  0  0
   55.5370   27.7760   45.2480 O   0  0  0  0  0  0  0  0  0  0  0  0
   62.1076   30.9414   46.4561 H   0  0  0  0  0  0  0  0  0  0  0  0
   64.0517   32.1787   47.3891 H   0  0  0  0  0  0  0  0  0  0  0  0
   65.4070   32.8000   48.2580 H   0  0  0  0  0  0  0  0  0  0  0  0
   62.3716   31.7947   51.3682 H   0  0  0  0  0  0  0  0  0  0  0  0
   60.4346   30.5558   50.4256 H   0  0  0  0  0  0  0  0  0  0  0  0
   60.5402   28.3210   49.0743 H   0  0  0  0  0  0  0  0  0  0  0  0
   58.9210   26.7251   48.5699 H   0  0  0  0  0  0  0  0  0  0  0  0
   57.1487   26.8604   47.0317 H   0  0  0  0  0  0  0  0  0  0  0  0
  1  2  2  0
  2  3  1  0
  3  4  1  0
  4  5  2  0
  5  6  1  0
  6  7  2  0
  7  8  1  0
  8  9  1  0
  8 10  1  0
 10 11  1  0
 10 12  1  0
 10 13  1  0
  8 14  1  0
 14 15  1  0
 14 16  1  0
 14 17  1  0
  7 18  1  0
 18 19  2  0
  3 20  2  0
 20 21  1  0
 21 22  2  0
 22 23  1  0
 23 24  2  0
 24 25  1  0
 25 26  1  0
 26 27  2  0
 26 28  1  0
 28 29  1  0
 24  2  1  0
 19  4  1  0
 28 23  1  0
  5 30  1  0
  6 31  1  0
  9 32  1  0
 18 33  1  0
 19 34  1  0
 20 35  1  0
 21 36  1  0
 22 37  1  0
M  CHG  2  25  -1  29  -1
M  END
>  <UniqueID>  (82) 
76

>  <SMILES>  (82) 
O=c1c(-c2ccc(C(O)(C(F)(F)F)C(F)(F)F)cc2)cccc2c1[n-]c(=O)n2[O-]

>  <Energy>  (82) 
104.20110731124448

>  <Genealogy>  (82) 
O=c1c(-c2ccc(C(O)(C(F)(F)F)C(F)(F)F)cc2)cccc2c1[n-]c(=O)n2[O-] (protonated)
O=c1c(-c2ccc(C(O)(C(F)(F)F)C(F)(F)F)cc2)cccc2c1[n-]c(=O)n2[O-] (3D coordinates assigned)
O=c1c(-c2ccc(C(O)(C(F)(F)F)C(F)(F)F)cc2)cccc2c1[n-]c(=O)n2[O-] (optimized conformer: 104.20110731124448 kcal/mol)

>  <smiles>  (82) 
O=c1c(-c2ccc(C(O)(C(F)(F)F)C(F)(F)F)cc2)cccc2c1[nH]c(=O)n2O

>  <score_type>  (82) 
oracle

>  <origin>  (82) 
adg

>  <m_score__min__energy>  (82) 
-11.630000000000001

>  <m_primary>  (82) 
energy

$$$$
82:0
     RDKit          3D

 44 46  0  0  0  0  0  0  0  0999 V2000
   65.4670   31.4290   51.0850 C   0  0  0  0  0  0  0  0  0  0  0  0
   64.5460   31.9780   50.0420 C   0  0  0  0  0  0  0  0  0  0  0  0
   63.1960   31.6580   49.9210 C   0  0  0  0  0  0  0  0  0  0  0  0
   62.7780   32.3140   48.7810 C   0  0  0  0  0  0  0  0  0  0  0  0
   61.5310   32.3480   48.1610 C   0  0  0  0  0  0  0  0  0  0  0  0
   61.4020   33.0920   46.9610 C   0  0  0  0  0  0  0  0  0  0  0  0
   60.1480   33.1820   46.2630 N   0  0  0  0  0  0  0  0  0  0  0  0
   59.3680   34.3790   46.1390 C   0  0  0  0  0  0  0  0  0  0  0  0
   59.5810   35.3710   46.8910 O   0  0  0  0  0  0  0  0  0  0  0  0
   58.3050   34.4160   45.1880 N   0  0  0  0  0  0  0  0  0  0  0  0
   57.1460   33.5340   45.2400 C   0  0  0  0  0  0  0  0  0  0  0  0
   57.2340   32.4380   44.2080 C   0  0  0  0  0  0  0  0  0  0  0  0
   57.6520   32.7320   43.0530 O   0  0  0  0  0  0  0  0  0  0  0  0
   56.7170   31.1150   44.4340 N   0  0  0  0  0  0  0  0  0  0  0  0
   57.3140   30.0950   45.2520 C   0  0  0  0  0  0  0  0  0  0  0  0
   58.4340   30.4180   46.0280 C   0  0  0  0  0  0  0  0  0  0  0  0
   59.0560   29.4410   46.8130 C   0  0  0  0  0  0  0  0  0  0  0  0
   58.5610   28.1320   46.8240 C   0  0  0  0  0  0  0  0  0  0  0  0
   57.4240   27.8020   46.0730 C   0  0  0  0  0  0  0  0  0  0  0  0
   56.8070   26.1500   46.0660 S   0  0  0  0  0  0  0  0  0  0  0  0
   55.0790   26.1800   46.0010 N   0  0  0  0  0  0  0  0  0  0  0  0
   57.2540   25.4350   47.3140 O   0  0  0  0  0  0  0  0  0  0  0  0
   57.3380   25.4100   44.8660 O   0  0  0  0  0  0  0  0  0  0  0  0
   56.7890   28.7890   45.3040 C   0  0  0  0  0  0  0  0  0  0  0  0
   62.5190   33.8060   46.4580 C   0  0  0  0  0  0  0  0  0  0  0  0
   63.7650   33.7470   47.1070 C   0  0  0  0  0  0  0  0  0  0  0  0
   63.8600   32.9840   48.2700 C   0  0  0  0  0  0  0  0  0  0  0  0
   64.9510   32.7820   49.0280 N   0  0  0  0  0  0  0  0  0  0  0  0
   65.0716   31.6647   52.0841 H   0  0  0  0  0  0  0  0  0  0  0  0
   65.5435   30.3378   50.9690 H   0  0  0  0  0  0  0  0  0  0  0  0
   66.4632   31.8808   50.9690 H   0  0  0  0  0  0  0  0  0  0  0  0
   62.5949   31.0221   50.5876 H   0  0  0  0  0  0  0  0  0  0  0  0
   60.6710   31.8129   48.5901 H   0  0  0  0  0  0  0  0  0  0  0  0
   59.7480   32.3090   45.8520 H   0  0  0  0  0  0  0  0  0  0  0  0
   57.0887   33.0788   46.2398 H   0  0  0  0  0  0  0  0  0  0  0  0
   56.2484   34.1336   45.0285 H   0  0  0  0  0  0  0  0  0  0  0  0
   58.8269   31.4454   46.0204 H   0  0  0  0  0  0  0  0  0  0  0  0
   59.9343   29.7018   47.4217 H   0  0  0  0  0  0  0  0  0  0  0  0
   59.0654   27.3599   47.4235 H   0  0  0  0  0  0  0  0  0  0  0  0
   54.7730   27.1030   46.3890 H   0  0  0  0  0  0  0  0  0  0  0  0
   55.8777   28.5419   44.7396 H   0  0  0  0  0  0  0  0  0  0  0  0
   62.4094   34.4141   45.5480 H   0  0  0  0  0  0  0  0  0  0  0  0
   64.6376   34.2861   46.7095 H   0  0  0  0  0  0  0  0  0  0  0  0
   65.9120   33.1570   48.8620 H   0  0  0  0  0  0  0  0  0  0  0  0
  1  2  1  0
  2  3  2  0
  3  4  1  0
  4  5  2  0
  5  6  1  0
  6  7  1  0
  7  8  1  0
  8  9  2  0
  8 10  1  0
 10 11  1  0
 11 12  1  0
 12 13  2  0
 12 14  1  0
 14 15  1  0
 15 16  2  0
 16 17  1  0
 17 18  2  0
 18 19  1  0
 19 20  1  0
 20 21  1  0
 20 22  2  0
 20 23  2  0
 19 24  2  0
  6 25  2  0
 25 26  1  0
 26 27  2  0
 27 28  1  0
 28  2  1  0
 27  4  1  0
 24 15  1  0
  1 29  1  0
  1 30  1  0
  1 31  1  0
  3 32  1  0
  5 33  1  0
  7 34  1  0
 11 35  1  0
 11 36  1  0
 16 37  1  0
 17 38  1  0
 18 39  1  0
 21 40  1  0
 24 41  1  0
 25 42  1  0
 26 43  1  0
 28 44  1  0
M  CHG  3  10  -1  14  -1  21  -1
M  END
>  <UniqueID>  (83) 
77

>  <SMILES>  (83) 
Cc1cc2cc(NC(=O)[N-]CC(=O)[N-]c3cccc(S([NH-])(=O)=O)c3)ccc2[nH]1

>  <Energy>  (83) 
83.68145358264745

>  <Genealogy>  (83) 
Cc1cc2cc(NC(=O)[N-]CC(=O)[N-]c3cccc(S([NH-])(=O)=O)c3)ccc2[nH]1 (protonated)
Cc1cc2cc(NC(=O)[N-]CC(=O)[N-]c3cccc(S([NH-])(=O)=O)c3)ccc2[nH]1 (3D coordinates assigned)
Cc1cc2cc(NC(=O)[N-]CC(=O)[N-]c3cccc(S([NH-])(=O)=O)c3)ccc2[nH]1 (optimized conformer: 83.68145358264745 kcal/mol)

>  <smiles>  (83) 
Cc1cc2cc(NC(=O)NCC(=O)Nc3cccc(S(N)(=O)=O)c3)ccc2[nH]1

>  <score_type>  (83) 
oracle

>  <origin>  (83) 
adg

>  <m_score__min__energy>  (83) 
-14.4

>  <m_primary>  (83) 
energy

$$$$
83:0
     RDKit          3D

 46 48  0  0  0  0  0  0  0  0999 V2000
   57.0200   28.7370   42.7400 N   0  0  0  0  0  0  0  0  0  0  0  0
   56.6000   29.7650   44.0660 S   0  0  0  0  0  0  0  0  0  0  0  0
   55.2580   29.3650   44.6100 O   0  0  0  0  0  0  0  0  0  0  0  0
   56.5250   31.1840   43.5710 O   0  0  0  0  0  0  0  0  0  0  0  0
   57.8130   29.6270   45.3360 C   0  0  0  0  0  0  0  0  0  0  0  0
   57.7690   28.5730   46.2590 C   0  0  0  0  0  0  0  0  0  0  0  0
   58.7310   28.4830   47.2690 C   0  0  0  0  0  0  0  0  0  0  0  0
   59.7380   29.4530   47.3820 C   0  0  0  0  0  0  0  0  0  0  0  0
   60.7120   29.3430   48.4330 N   0  0  0  0  0  0  0  0  0  0  0  0
   60.5900   30.0050   49.7010 C   0  0  0  0  0  0  0  0  0  0  0  0
   61.8900   30.0390   50.7010 S   0  0  0  0  0  0  0  0  0  0  0  0
   59.2920   30.3680   50.2010 N   0  0  0  0  0  0  0  0  0  0  0  0
   59.0530   31.4520   51.1150 C   0  0  0  0  0  0  0  0  0  0  0  0
   58.8880   31.2040   52.4910 C   0  0  0  0  0  0  0  0  0  0  0  0
   58.7190   32.2620   53.3880 C   0  0  0  0  0  0  0  0  0  0  0  0
   58.7290   33.5780   52.9260 C   0  0  0  0  0  0  0  0  0  0  0  0
   58.9080   33.8410   51.5670 C   0  0  0  0  0  0  0  0  0  0  0  0
   59.0690   32.7880   50.6560 C   0  0  0  0  0  0  0  0  0  0  0  0
   59.2330   33.0940   49.2640 N   0  0  0  0  0  0  0  0  0  0  0  0
   60.5450   33.5080   48.7650 C   0  0  0  0  0  0  0  0  0  0  0  0
   60.3660   34.4190   47.5460 C   0  0  0  0  0  0  0  0  0  0  0  0
   59.5150   33.8180   46.5880 O   0  0  0  0  0  0  0  0  0  0  0  0
   58.2100   33.6820   47.1220 C   0  0  0  0  0  0  0  0  0  0  0  0
   58.2050   32.7020   48.2980 C   0  0  0  0  0  0  0  0  0  0  0  0
   59.7940   30.4950   46.4390 C   0  0  0  0  0  0  0  0  0  0  0  0
   58.8330   30.5820   45.4280 C   0  0  0  0  0  0  0  0  0  0  0  0
   56.7910   27.7580   43.0240 H   0  0  0  0  0  0  0  0  0  0  0  0
   58.0570   28.7860   42.6290 H   0  0  0  0  0  0  0  0  0  0  0  0
   56.9753   27.8147   46.1883 H   0  0  0  0  0  0  0  0  0  0  0  0
   58.6982   27.6450   47.9808 H   0  0  0  0  0  0  0  0  0  0  0  0
   61.5310   28.7130   48.2810 H   0  0  0  0  0  0  0  0  0  0  0  0
   58.4740   29.8210   49.8540 H   0  0  0  0  0  0  0  0  0  0  0  0
   58.8922   30.1688   52.8630 H   0  0  0  0  0  0  0  0  0  0  0  0
   58.5780   32.0568   54.4595 H   0  0  0  0  0  0  0  0  0  0  0  0
   58.5956   34.4096   53.6335 H   0  0  0  0  0  0  0  0  0  0  0  0
   58.9228   34.8809   51.2087 H   0  0  0  0  0  0  0  0  0  0  0  0
   61.0816   34.0541   49.5548 H   0  0  0  0  0  0  0  0  0  0  0  0
   61.1234   32.6184   48.4750 H   0  0  0  0  0  0  0  0  0  0  0  0
   59.9256   35.3732   47.8709 H   0  0  0  0  0  0  0  0  0  0  0  0
   61.3505   34.5878   47.0853 H   0  0  0  0  0  0  0  0  0  0  0  0
   57.8580   34.6645   47.4695 H   0  0  0  0  0  0  0  0  0  0  0  0
   57.5454   33.2940   46.3360 H   0  0  0  0  0  0  0  0  0  0  0  0
   57.2188   32.7186   48.7850 H   0  0  0  0  0  0  0  0  0  0  0  0
   58.4152   31.6868   47.9303 H   0  0  0  0  0  0  0  0  0  0  0  0
   60.5972   31.2443   46.4974 H   0  0  0  0  0  0  0  0  0  0  0  0
   58.8781   31.4056   44.7002 H   0  0  0  0  0  0  0  0  0  0  0  0
  1  2  1  0
  2  3  2  0
  2  4  2  0
  2  5  1  0
  5  6  2  0
  6  7  1  0
  7  8  2  0
  8  9  1  0
  9 10  1  0
 10 11  2  0
 10 12  1  0
 12 13  1  0
 13 14  2  0
 14 15  1  0
 15 16  2  0
 16 17  1  0
 17 18  2  0
 18 19  1  0
 19 20  1  0
 20 21  1  0
 21 22  1  0
 22 23  1  0
 23 24  1  0
  8 25  1  0
 25 26  2  0
 26  5  1  0
 18 13  1  0
 24 19  1  0
  1 27  1  0
  1 28  1  0
  6 29  1  0
  7 30  1  0
  9 31  1  0
 12 32  1  0
 14 33  1  0
 15 34  1  0
 16 35  1  0
 17 36  1  0
 20 37  1  0
 20 38  1  0
 21 39  1  0
 21 40  1  0
 23 41  1  0
 23 42  1  0
 24 43  1  0
 24 44  1  0
 25 45  1  0
 26 46  1  0
M  END
>  <UniqueID>  (84) 
78

>  <SMILES>  (84) 
NS(=O)(=O)c1ccc(NC(=S)Nc2ccccc2N2CCOCC2)cc1

>  <Energy>  (84) 
60.13449128722217

>  <Genealogy>  (84) 
NS(=O)(=O)c1ccc(NC(=S)Nc2ccccc2N2CCOCC2)cc1 (3D coordinates assigned)
NS(=O)(=O)c1ccc(NC(=S)Nc2ccccc2N2CCOCC2)cc1 (nonaromatic ring conformer: 60.13449128722217 kcal/mol)

>  <smiles>  (84) 
NS(=O)(=O)c1ccc(NC(=S)Nc2ccccc2N2CCOCC2)cc1

>  <score_type>  (84) 
oracle

>  <origin>  (84) 
adg

>  <m_score__min__energy>  (84) 
-7.8700000000000001

>  <m_primary>  (84) 
energy

$$$$
84:0
     RDKit          3D

 50 53  0  0  0  0  0  0  0  0999 V2000
   59.2330   29.2740   48.8960 O   0  0  0  0  0  0  0  0  0  0  0  0
   60.1960   29.9250   48.4090 C   0  0  0  0  0  0  0  0  0  0  0  0
   61.4850   30.0050   49.1810 C   0  0  0  0  0  0  0  0  0  0  0  0
   61.9050   31.4230   49.4720 C   0  0  0  0  0  0  0  0  0  0  0  0
   63.1130   31.9400   48.9660 C   0  0  0  0  0  0  0  0  0  0  0  0
   63.4770   33.2660   49.2260 C   0  0  0  0  0  0  0  0  0  0  0  0
   62.6340   34.0930   49.9740 C   0  0  0  0  0  0  0  0  0  0  0  0
   62.9940   35.3770   50.2300 F   0  0  0  0  0  0  0  0  0  0  0  0
   61.4170   33.5980   50.4500 C   0  0  0  0  0  0  0  0  0  0  0  0
   61.0470   32.2750   50.1900 C   0  0  0  0  0  0  0  0  0  0  0  0
   60.0600   30.5420   47.1120 N   0  0  0  0  0  0  0  0  0  0  0  0
   60.5040   31.9320   46.9060 C   0  0  0  0  0  0  0  0  0  0  0  0
   59.4120   32.8280   46.3640 C   0  0  0  0  0  0  0  0  0  0  0  0
   59.7200   33.8130   45.4090 C   0  0  0  0  0  0  0  0  0  0  0  0
   58.7130   34.6300   44.8860 C   0  0  0  0  0  0  0  0  0  0  0  0
   57.3890   34.4680   45.3020 C   0  0  0  0  0  0  0  0  0  0  0  0
   57.0680   33.4740   46.2310 C   0  0  0  0  0  0  0  0  0  0  0  0
   58.0710   32.6490   46.7550 C   0  0  0  0  0  0  0  0  0  0  0  0
   59.9560   29.6750   45.9250 C   0  0  0  0  0  0  0  0  0  0  0  0
   58.5360   29.2000   45.6660 C   0  0  0  0  0  0  0  0  0  0  0  0
   57.6190   30.0720   45.0550 C   0  0  0  0  0  0  0  0  0  0  0  0
   56.2930   29.6810   44.8660 C   0  0  0  0  0  0  0  0  0  0  0  0
   55.4680   30.4790   44.3490 O   0  0  0  0  0  0  0  0  0  0  0  0
   55.8900   28.4420   45.2350 N   0  0  0  0  0  0  0  0  0  0  0  0
   56.7500   27.5350   45.7680 C   0  0  0  0  0  0  0  0  0  0  0  0
   56.2800   26.2590   46.1100 C   0  0  0  0  0  0  0  0  0  0  0  0
   54.9700   25.9450   45.9520 F   0  0  0  0  0  0  0  0  0  0  0  0
   57.1610   25.3000   46.6110 C   0  0  0  0  0  0  0  0  0  0  0  0
   58.5130   25.6040   46.7620 C   0  0  0  0  0  0  0  0  0  0  0  0
   58.9920   26.8760   46.4400 C   0  0  0  0  0  0  0  0  0  0  0  0
   58.1140   27.8730   45.9620 C   0  0  0  0  0  0  0  0  0  0  0  0
   61.3564   29.4737   50.1356 H   0  0  0  0  0  0  0  0  0  0  0  0
   62.2706   29.5476   48.5617 H   0  0  0  0  0  0  0  0  0  0  0  0
   63.7734   31.2988   48.3637 H   0  0  0  0  0  0  0  0  0  0  0  0
   64.4295   33.6587   48.8406 H   0  0  0  0  0  0  0  0  0  0  0  0
   60.7485   34.2507   51.0306 H   0  0  0  0  0  0  0  0  0  0  0  0
   60.0782   31.8980   50.5495 H   0  0  0  0  0  0  0  0  0  0  0  0
   60.8439   32.3378   47.8703 H   0  0  0  0  0  0  0  0  0  0  0  0
   61.3127   31.9117   46.1606 H   0  0  0  0  0  0  0  0  0  0  0  0
   60.7590   33.9416   45.0714 H   0  0  0  0  0  0  0  0  0  0  0  0
   58.9640   35.4029   44.1446 H   0  0  0  0  0  0  0  0  0  0  0  0
   56.6009   35.1213   44.8993 H   0  0  0  0  0  0  0  0  0  0  0  0
   56.0243   33.3394   46.5514 H   0  0  0  0  0  0  0  0  0  0  0  0
   57.8105   31.8586   47.4743 H   0  0  0  0  0  0  0  0  0  0  0  0
   60.3040   30.2383   45.0466 H   0  0  0  0  0  0  0  0  0  0  0  0
   60.5748   28.7845   46.1097 H   0  0  0  0  0  0  0  0  0  0  0  0
   57.9482   31.0680   44.7240 H   0  0  0  0  0  0  0  0  0  0  0  0
   56.7881   24.3027   46.8872 H   0  0  0  0  0  0  0  0  0  0  0  0
   59.2070   24.8374   47.1371 H   0  0  0  0  0  0  0  0  0  0  0  0
   60.0617   27.1027   46.5598 H   0  0  0  0  0  0  0  0  0  0  0  0
  1  2  2  0
  2  3  1  0
  3  4  1  0
  4  5  2  0
  5  6  1  0
  6  7  2  0
  7  8  1  0
  7  9  1  0
  9 10  2  0
  2 11  1  0
 11 12  1  0
 12 13  1  0
 13 14  2  0
 14 15  1  0
 15 16  2  0
 16 17  1  0
 17 18  2  0
 11 19  1  0
 19 20  1  0
 20 21  2  0
 21 22  1  0
 22 23  2  0
 22 24  1  0
 24 25  1  0
 25 26  2  0
 26 27  1  0
 26 28  1  0
 28 29  2  0
 29 30  1  0
 30 31  2  0
 10  4  1  0
 18 13  1  0
 31 20  1  0
 31 25  1  0
  3 32  1  0
  3 33  1  0
  5 34  1  0
  6 35  1  0
  9 36  1  0
 10 37  1  0
 12 38  1  0
 12 39  1  0
 14 40  1  0
 15 41  1  0
 16 42  1  0
 17 43  1  0
 18 44  1  0
 19 45  1  0
 19 46  1  0
 21 47  1  0
 28 48  1  0
 29 49  1  0
 30 50  1  0
M  CHG  1  24  -1
M  END
>  <UniqueID>  (85) 
79

>  <SMILES>  (85) 
O=C(Cc1ccc(F)cc1)N(Cc1ccccc1)Cc1cc(=O)[n-]c2c(F)cccc12

>  <Energy>  (85) 
61.55173988773275

>  <Genealogy>  (85) 
O=C(Cc1ccc(F)cc1)N(Cc1ccccc1)Cc1cc(=O)[n-]c2c(F)cccc12 (protonated)
O=C(Cc1ccc(F)cc1)N(Cc1ccccc1)Cc1cc(=O)[n-]c2c(F)cccc12 (3D coordinates assigned)
O=C(Cc1ccc(F)cc1)N(Cc1ccccc1)Cc1cc(=O)[n-]c2c(F)cccc12 (optimized conformer: 61.55173988773275 kcal/mol)

>  <smiles>  (85) 
O=C(Cc1ccc(F)cc1)N(Cc1ccccc1)Cc1cc(=O)[nH]c2c(F)cccc12

>  <score_type>  (85) 
oracle

>  <origin>  (85) 
adg

>  <m_score__min__energy>  (85) 
-11.449999999999999

>  <m_primary>  (85) 
energy

$$$$
85:0
     RDKit          3D

 39 40  0  0  0  0  0  0  0  0999 V2000
   55.3090   29.7070   43.6770 C   0  0  0  0  0  0  0  0  0  0  0  0
   55.5180   28.9650   44.8740 O   0  0  0  0  0  0  0  0  0  0  0  0
   56.7700   28.5270   45.3340 C   0  0  0  0  0  0  0  0  0  0  0  0
   57.0700   27.1550   45.4560 C   0  0  0  0  0  0  0  0  0  0  0  0
   58.2990   26.7420   45.9750 C   0  0  0  0  0  0  0  0  0  0  0  0
   59.2400   27.6870   46.3810 C   0  0  0  0  0  0  0  0  0  0  0  0
   58.9610   29.0480   46.2570 C   0  0  0  0  0  0  0  0  0  0  0  0
   57.7420   29.4830   45.7120 C   0  0  0  0  0  0  0  0  0  0  0  0
   57.4940   30.8960   45.6220 N   0  0  0  0  0  0  0  0  0  0  0  0
   57.9970   31.7370   44.5740 C   0  0  0  0  0  0  0  0  0  0  0  0
   58.8560   31.3020   43.7600 O   0  0  0  0  0  0  0  0  0  0  0  0
   57.5310   33.1590   44.4580 C   0  0  0  0  0  0  0  0  0  0  0  0
   58.5790   34.1550   44.9690 C   0  0  0  0  0  0  0  0  0  0  0  0
   58.9480   33.9650   46.7150 S   0  0  0  0  0  0  0  0  0  0  0  0
   57.8840   33.1120   47.3450 O   0  0  0  0  0  0  0  0  0  0  0  0
   58.9360   35.3110   47.3900 O   0  0  0  0  0  0  0  0  0  0  0  0
   60.5050   33.1770   46.9580 C   0  0  0  0  0  0  0  0  0  0  0  0
   61.6880   33.8940   46.7320 C   0  0  0  0  0  0  0  0  0  0  0  0
   62.9300   33.2720   46.8940 C   0  0  0  0  0  0  0  0  0  0  0  0
   62.9970   31.9330   47.2910 C   0  0  0  0  0  0  0  0  0  0  0  0
   61.8200   31.2110   47.5110 C   0  0  0  0  0  0  0  0  0  0  0  0
   60.5770   31.8260   47.3360 C   0  0  0  0  0  0  0  0  0  0  0  0
   55.0188   30.7374   43.9303 H   0  0  0  0  0  0  0  0  0  0  0  0
   56.2379   29.7220   43.0880 H   0  0  0  0  0  0  0  0  0  0  0  0
   54.5089   29.2350   43.0880 H   0  0  0  0  0  0  0  0  0  0  0  0
   56.3307   26.4043   45.1401 H   0  0  0  0  0  0  0  0  0  0  0  0
   58.5249   25.6691   46.0636 H   0  0  0  0  0  0  0  0  0  0  0  0
   60.2031   27.3592   46.7994 H   0  0  0  0  0  0  0  0  0  0  0  0
   59.7035   29.7883   46.5896 H   0  0  0  0  0  0  0  0  0  0  0  0
   57.0360   31.3630   46.4370 H   0  0  0  0  0  0  0  0  0  0  0  0
   57.3202   33.3777   43.4008 H   0  0  0  0  0  0  0  0  0  0  0  0
   56.6287   33.2705   45.0772 H   0  0  0  0  0  0  0  0  0  0  0  0
   59.5077   34.0082   44.3980 H   0  0  0  0  0  0  0  0  0  0  0  0
   58.1630   35.1641   44.8321 H   0  0  0  0  0  0  0  0  0  0  0  0
   61.6393   34.9495   46.4262 H   0  0  0  0  0  0  0  0  0  0  0  0
   63.8555   33.8369   46.7088 H   0  0  0  0  0  0  0  0  0  0  0  0
   63.9745   31.4482   47.4301 H   0  0  0  0  0  0  0  0  0  0  0  0
   61.8723   30.1573   47.8223 H   0  0  0  0  0  0  0  0  0  0  0  0
   59.6530   31.2507   47.4947 H   0  0  0  0  0  0  0  0  0  0  0  0
  1  2  1  0
  2  3  1  0
  3  4  2  0
  4  5  1  0
  5  6  2  0
  6  7  1  0
  7  8  2  0
  8  9  1  0
  9 10  1  0
 10 11  2  0
 10 12  1  0
 12 13  1  0
 13 14  1  0
 14 15  2  0
 14 16  2  0
 14 17  1  0
 17 18  2  0
 18 19  1  0
 19 20  2  0
 20 21  1  0
 21 22  2  0
  8  3  1  0
 22 17  1  0
  1 23  1  0
  1 24  1  0
  1 25  1  0
  4 26  1  0
  5 27  1  0
  6 28  1  0
  7 29  1  0
  9 30  1  0
 12 31  1  0
 12 32  1  0
 13 33  1  0
 13 34  1  0
 18 35  1  0
 19 36  1  0
 20 37  1  0
 21 38  1  0
 22 39  1  0
M  END
>  <UniqueID>  (86) 
80

>  <SMILES>  (86) 
COc1ccccc1NC(=O)CCS(=O)(=O)c1ccccc1

>  <Energy>  (86) 
34.62654086524859

>  <Genealogy>  (86) 
COc1ccccc1NC(=O)CCS(=O)(=O)c1ccccc1 (3D coordinates assigned)
COc1ccccc1NC(=O)CCS(=O)(=O)c1ccccc1 (optimized conformer: 34.62654086524859 kcal/mol)

>  <smiles>  (86) 
COc1ccccc1NC(=O)CCS(=O)(=O)c1ccccc1

>  <score_type>  (86) 
oracle

>  <origin>  (86) 
adg

>  <m_score__min__energy>  (86) 
-7.4100000000000001

>  <m_primary>  (86) 
energy

$$$$
86:0
     RDKit          3D

 70 73  0  0  0  0  0  0  0  0999 V2000
   58.1600   34.4323   46.2197 H   0  0  0  0  0  0  0  0  0  0  0  0
   58.5140   33.3910   46.2010 C   0  0  0  0  0  0  0  0  0  0  0  0
   57.7420   32.4080   45.5750 C   0  0  0  0  0  0  0  0  0  0  0  0
   56.7961   32.6847   45.0864 H   0  0  0  0  0  0  0  0  0  0  0  0
   58.1680   31.0650   45.5660 C   0  0  0  0  0  0  0  0  0  0  0  0
   57.3390   30.0180   44.9250 C   0  0  0  0  0  0  0  0  0  0  0  0
   56.0940   30.1820   44.8030 O   0  0  0  0  0  0  0  0  0  0  0  0
   57.9280   28.7690   44.5450 N   0  0  0  0  0  0  0  0  0  0  0  0
   58.0150   27.6680   45.2380 C   0  0  0  0  0  0  0  0  0  0  0  0
   56.9370   26.8450   45.4750 C   0  0  0  0  0  0  0  0  0  0  0  0
   55.9030   26.9635   45.1190 H   0  0  0  0  0  0  0  0  0  0  0  0
   57.4560   25.8340   46.2650 C   0  0  0  0  0  0  0  0  0  0  0  0
   56.7290   24.6760   46.8070 C   0  0  0  0  0  0  0  0  0  0  0  0
   57.3830   23.7780   47.4020 O   0  0  0  0  0  0  0  0  0  0  0  0
   55.3010   24.5480   46.7240 N   0  0  0  0  0  0  0  0  0  0  0  0
   54.4770   24.6990   45.5270 C   0  0  0  0  0  0  0  0  0  0  0  0
   53.5180   25.1587   45.8081 H   0  0  0  0  0  0  0  0  0  0  0  0
   55.0188   25.3344   44.8110 H   0  0  0  0  0  0  0  0  0  0  0  0
   54.2050   23.3430   44.8610 C   0  0  0  0  0  0  0  0  0  0  0  0
   53.3819   22.8410   45.3906 H   0  0  0  0  0  0  0  0  0  0  0  0
   53.9371   23.5174   43.8085 H   0  0  0  0  0  0  0  0  0  0  0  0
   55.4510   22.4470   44.9060 C   0  0  0  0  0  0  0  0  0  0  0  0
   56.2259   22.9373   45.5135 H   0  0  0  0  0  0  0  0  0  0  0  0
   55.1731   21.4789   45.3482 H   0  0  0  0  0  0  0  0  0  0  0  0
   55.9790   22.2120   43.5440 N   0  0  0  0  0  0  0  0  0  0  0  0
   56.5420   23.4590   42.9990 C   0  0  0  0  0  0  0  0  0  0  0  0
   56.8401   24.1192   43.8268 H   0  0  0  0  0  0  0  0  0  0  0  0
   57.4218   23.2250   42.3816 H   0  0  0  0  0  0  0  0  0  0  0  0
   55.7846   23.9641   42.3816 H   0  0  0  0  0  0  0  0  0  0  0  0
   57.0210   21.1700   43.5540 C   0  0  0  0  0  0  0  0  0  0  0  0
   57.2753   20.9157   44.5936 H   0  0  0  0  0  0  0  0  0  0  0  0
   56.6477   20.2732   43.0380 H   0  0  0  0  0  0  0  0  0  0  0  0
   57.9178   21.5433   43.0380 H   0  0  0  0  0  0  0  0  0  0  0  0
   58.7670   26.0500   46.4850 N   0  0  0  0  0  0  0  0  0  0  0  0
   59.1100   27.1740   45.8740 N   0  0  0  0  0  0  0  0  0  0  0  0
   60.4440   27.7490   46.0180 C   0  0  0  0  0  0  0  0  0  0  0  0
   60.6851   27.8529   47.0862 H   0  0  0  0  0  0  0  0  0  0  0  0
   61.1816   27.0889   45.5382 H   0  0  0  0  0  0  0  0  0  0  0  0
   60.4705   28.7385   45.5382 H   0  0  0  0  0  0  0  0  0  0  0  0
   59.4060   30.7420   46.1490 C   0  0  0  0  0  0  0  0  0  0  0  0
   59.7696   29.7043   46.1170 H   0  0  0  0  0  0  0  0  0  0  0  0
   60.1800   31.7300   46.7700 C   0  0  0  0  0  0  0  0  0  0  0  0
   61.3250   31.3600   47.4000 F   0  0  0  0  0  0  0  0  0  0  0  0
   59.7330   33.0620   46.8040 C   0  0  0  0  0  0  0  0  0  0  0  0
   60.4350   34.0750   47.4720 O   0  0  0  0  0  0  0  0  0  0  0  0
   61.4240   33.8820   48.4490 C   0  0  0  0  0  0  0  0  0  0  0  0
   62.7840   33.8480   48.1030 C   0  0  0  0  0  0  0  0  0  0  0  0
   63.0897   33.9677   47.0531 H   0  0  0  0  0  0  0  0  0  0  0  0
   63.7460   33.6620   49.0950 C   0  0  0  0  0  0  0  0  0  0  0  0
   64.8112   33.6274   48.8228 H   0  0  0  0  0  0  0  0  0  0  0  0
   63.3770   33.5230   50.3970 N   0  0  0  0  0  0  0  0  0  0  0  0
   64.1280   33.3840   51.1130 H   0  0  0  0  0  0  0  0  0  0  0  0
   62.0660   33.5680   50.7740 C   0  0  0  0  0  0  0  0  0  0  0  0
   61.7120   33.4230   52.1230 C   0  0  0  0  0  0  0  0  0  0  0  0
   62.4972   33.2798   52.8800 H   0  0  0  0  0  0  0  0  0  0  0  0
   60.3600   33.4590   52.5180 C   0  0  0  0  0  0  0  0  0  0  0  0
   59.9700   33.3030   53.8590 O   0  0  0  0  0  0  0  0  0  0  0  0
   59.4330   34.3430   54.6700 C   0  0  0  0  0  0  0  0  0  0  0  0
   59.5657   34.0860   55.7313 H   0  0  0  0  0  0  0  0  0  0  0  0
   59.9573   35.2853   54.4526 H   0  0  0  0  0  0  0  0  0  0  0  0
   58.3612   34.4611   54.4526 H   0  0  0  0  0  0  0  0  0  0  0  0
   59.3580   33.6510   51.5550 C   0  0  0  0  0  0  0  0  0  0  0  0
   58.0210   33.6800   51.9830 O   0  0  0  0  0  0  0  0  0  0  0  0
   57.2620   32.5310   52.3480 C   0  0  0  0  0  0  0  0  0  0  0  0
   57.2131   32.4570   53.4444 H   0  0  0  0  0  0  0  0  0  0  0  0
   56.2440   32.6194   51.9407 H   0  0  0  0  0  0  0  0  0  0  0  0
   57.7428   31.6294   51.9407 H   0  0  0  0  0  0  0  0  0  0  0  0
   59.7110   33.8050   50.2000 C   0  0  0  0  0  0  0  0  0  0  0  0
   58.9250   33.9620   49.4466 H   0  0  0  0  0  0  0  0  0  0  0  0
   61.0570   33.7600   49.8020 C   0  0  0  0  0  0  0  0  0  0  0  0
  1  2  1  0
  2  3  2  0
  3  4  1  0
  3  5  1  0
  5  6  1  0
  6  7  2  0
  6  8  1  0
  8  9  2  0
  9 10  1  0
 10 11  1  0
 10 12  2  0
 12 13  1  0
 13 14  2  0
 13 15  1  0
 15 16  1  0
 16 17  1  0
 16 18  1  0
 16 19  1  0
 19 20  1  0
 19 21  1  0
 19 22  1  0
 22 23  1  0
 22 24  1  0
 22 25  1  0
 25 26  1  0
 26 27  1  0
 26 28  1  0
 26 29  1  0
 25 30  1  0
 30 31  1  0
 30 32  1  0
 30 33  1  0
 12 34  1  0
 34 35  1  0
 35 36  1  0
 36 37  1  0
 36 38  1  0
 36 39  1  0
  5 40  2  0
 40 41  1  0
 40 42  1  0
 42 43  1  0
 42 44  2  0
 44 45  1  0
 45 46  1  0
 46 47  2  0
 47 48  1  0
 47 49  1  0
 49 50  1  0
 49 51  2  0
 51 52  1  0
 51 53  1  0
 53 54  2  0
 54 55  1  0
 54 56  1  0
 56 57  1  0
 57 58  1  0
 58 59  1  0
 58 60  1  0
 58 61  1  0
 56 62  2  0
 62 63  1  0
 63 64  1  0
 64 65  1  0
 64 66  1  0
 64 67  1  0
 62 68  1  0
 68 69  1  0
 68 70  2  0
 44  2  1  0
 70 46  1  0
 35  9  1  0
 70 53  1  0
M  CHG  3  15  -1  34  -1  51   1
M  END
>  <UniqueID>  (87) 
81

>  <SMILES>  (87) 
COc1cc2[nH+]ccc(Oc3ccc(C(=O)/N=c4/cc(C(=O)[N-]CCCN(C)C)[n-]n4C)cc3F)c2cc1OC

>  <Energy>  (87) 
126.47058011326632

>  <Genealogy>  (87) 
COc1cc2[nH+]ccc(Oc3ccc(C(=O)N=c4cc(C(=O)[N-]CCCN(C)C)[n-]n4C)cc3F)c2cc1OC (protonated)
COc1cc2[nH+]ccc(Oc3ccc(C(=O)/N=c4/cc(C(=O)[N-]CCCN(C)C)[n-]n4C)cc3F)c2cc1OC (cis-trans isomerization)
COc1cc2[nH+]ccc(Oc3ccc(C(=O)/N=c4/cc(C(=O)[N-]CCCN(C)C)[n-]n4C)cc3F)c2cc1OC (3D coordinates assigned)
COc1cc2[nH+]ccc(Oc3ccc(C(=O)/N=c4/cc(C(=O)[N-]CCCN(C)C)[n-]n4C)cc3F)c2cc1OC (optimized conformer: 126.47058011326632 kcal/mol)

>  <smiles>  (87) 
COc1cc2nccc(Oc3ccc(C(=O)N=c4cc(C(=O)NCCCN(C)C)[nH]n4C)cc3F)c2cc1OC

>  <score_type>  (87) 
oracle

>  <origin>  (87) 
adg

>  <m_score__min__energy>  (87) 
-10.779999999999999

>  <m_primary>  (87) 
energy

$$$$
87:0
     RDKit          3D

 44 46  0  0  0  0  0  0  0  0999 V2000
   57.0190   29.0900   43.4050 C   0  0  0  0  0  0  0  0  0  0  0  0
   57.5190   30.3090   44.1280 C   0  0  0  0  0  0  0  0  0  0  0  0
   57.3040   31.5580   43.5820 C   0  0  0  0  0  0  0  0  0  0  0  0
   57.7670   32.6800   44.2360 C   0  0  0  0  0  0  0  0  0  0  0  0
   58.4430   32.5780   45.4300 C   0  0  0  0  0  0  0  0  0  0  0  0
   58.6610   31.3350   45.9810 C   0  0  0  0  0  0  0  0  0  0  0  0
   58.2050   30.1700   45.3440 C   0  0  0  0  0  0  0  0  0  0  0  0
   58.4530   28.8920   45.9190 N   0  0  0  0  0  0  0  0  0  0  0  0
   59.5650   28.0740   45.6070 C   0  0  0  0  0  0  0  0  0  0  0  0
   60.4610   28.3800   44.7800 O   0  0  0  0  0  0  0  0  0  0  0  0
   59.6810   26.7640   46.2960 C   0  0  0  0  0  0  0  0  0  0  0  0
   58.5160   25.8750   46.0330 C   0  0  0  0  0  0  0  0  0  0  0  0
   57.2960   26.4860   46.1360 N   0  0  0  0  0  0  0  0  0  0  0  0
   56.1950   25.7670   45.9040 C   0  0  0  0  0  0  0  0  0  0  0  0
   55.0720   26.3250   45.9970 O   0  0  0  0  0  0  0  0  0  0  0  0
   56.2290   24.4240   45.5610 C   0  0  0  0  0  0  0  0  0  0  0  0
   57.5110   23.8680   45.4750 C   0  0  0  0  0  0  0  0  0  0  0  0
   57.5480   22.4860   45.1310 N   0  0  0  0  0  0  0  0  0  0  0  0
   56.7220   21.5200   45.8370 C   0  0  0  0  0  0  0  0  0  0  0  0
   56.1930   20.5610   44.8030 C   0  0  0  0  0  0  0  0  0  0  0  0
   56.1680   21.1250   43.5290 O   0  0  0  0  0  0  0  0  0  0  0  0
   57.4360   21.3770   43.0200 C   0  0  0  0  0  0  0  0  0  0  0  0
   58.3870   21.9660   44.0610 C   0  0  0  0  0  0  0  0  0  0  0  0
   58.6240   24.5810   45.7060 N   0  0  0  0  0  0  0  0  0  0  0  0
   56.7077   28.3310   44.1378 H   0  0  0  0  0  0  0  0  0  0  0  0
   56.1607   29.3642   42.7740 H   0  0  0  0  0  0  0  0  0  0  0  0
   57.8226   28.6826   42.7740 H   0  0  0  0  0  0  0  0  0  0  0  0
   56.7651   31.6581   42.6283 H   0  0  0  0  0  0  0  0  0  0  0  0
   57.5931   33.6730   43.7959 H   0  0  0  0  0  0  0  0  0  0  0  0
   58.8064   33.4821   45.9404 H   0  0  0  0  0  0  0  0  0  0  0  0
   59.2012   31.2535   46.9358 H   0  0  0  0  0  0  0  0  0  0  0  0
   57.7530   28.5530   46.6160 H   0  0  0  0  0  0  0  0  0  0  0  0
   60.5944   26.2611   45.9457 H   0  0  0  0  0  0  0  0  0  0  0  0
   59.7151   26.9580   47.3782 H   0  0  0  0  0  0  0  0  0  0  0  0
   55.3170   23.8392   45.3707 H   0  0  0  0  0  0  0  0  0  0  0  0
   57.3245   20.9793   46.5818 H   0  0  0  0  0  0  0  0  0  0  0  0
   55.8992   22.0191   46.3697 H   0  0  0  0  0  0  0  0  0  0  0  0
   56.8371   19.6695   44.7836 H   0  0  0  0  0  0  0  0  0  0  0  0
   55.1603   20.3014   45.0788 H   0  0  0  0  0  0  0  0  0  0  0  0
   57.8607   20.4317   42.6513 H   0  0  0  0  0  0  0  0  0  0  0  0
   57.3276   22.1181   42.2144 H   0  0  0  0  0  0  0  0  0  0  0  0
   59.0587   21.1857   44.4483 H   0  0  0  0  0  0  0  0  0  0  0  0
   59.0169   22.7561   43.6262 H   0  0  0  0  0  0  0  0  0  0  0  0
   59.5660   24.1420   45.6360 H   0  0  0  0  0  0  0  0  0  0  0  0
  1  2  1  0
  2  3  2  0
  3  4  1  0
  4  5  2  0
  5  6  1  0
  6  7  2  0
  7  8  1  0
  8  9  1  0
  9 10  2  0
  9 11  1  0
 11 12  1  0
 12 13  2  0
 13 14  1  0
 14 15  2  0
 14 16  1  0
 16 17  2  0
 17 18  1  0
 18 19  1  0
 19 20  1  0
 20 21  1  0
 21 22  1  0
 22 23  1  0
 17 24  1  0
  7  2  1  0
 24 12  1  0
 23 18  1  0
  1 25  1  0
  1 26  1  0
  1 27  1  0
  3 28  1  0
  4 29  1  0
  5 30  1  0
  6 31  1  0
  8 32  1  0
 11 33  1  0
 11 34  1  0
 16 35  1  0
 19 36  1  0
 19 37  1  0
 20 38  1  0
 20 39  1  0
 22 40  1  0
 22 41  1  0
 23 42  1  0
 23 43  1  0
 24 44  1  0
M  END
>  <smiles>  (88) 
Cc1ccccc1NC(=O)Cc1nc(=O)cc(N2CCOCC2)[nH]1

>  <score_type>  (88) 
oracle

>  <origin>  (88) 
adg

>  <m_score__min__energy>  (88) 
-7.7400000000000002

>  <m_primary>  (88) 
energy

$$$$
88:0
     RDKit          3D

 42 43  0  0  0  0  0  0  0  0999 V2000
   62.0933   35.1368   48.4350 H   0  0  0  0  0  0  0  0  0  0  0  0
   61.6040   34.1740   48.2260 C   0  0  0  0  0  0  0  0  0  0  0  0
   62.3020   33.1530   47.5670 C   0  0  0  0  0  0  0  0  0  0  0  0
   63.7280   33.3460   47.1630 C   0  0  0  0  0  0  0  0  0  0  0  0
   64.3556   33.4309   48.0624 H   0  0  0  0  0  0  0  0  0  0  0  0
   64.0594   32.4845   46.5646 H   0  0  0  0  0  0  0  0  0  0  0  0
   63.8185   34.2646   46.5646 H   0  0  0  0  0  0  0  0  0  0  0  0
   61.6890   31.9600   47.3350 N   0  0  0  0  0  0  0  0  0  0  0  0
   60.3990   31.7220   47.7070 C   0  0  0  0  0  0  0  0  0  0  0  0
   59.8200   30.5840   47.4550 N   0  0  0  0  0  0  0  0  0  0  0  0
   59.7190   29.9320   46.1790 C   0  0  0  0  0  0  0  0  0  0  0  0
   60.7240   29.3970   45.6370 O   0  0  0  0  0  0  0  0  0  0  0  0
   58.4050   29.8440   45.5160 C   0  0  0  0  0  0  0  0  0  0  0  0
   57.8150   30.9890   44.9320 C   0  0  0  0  0  0  0  0  0  0  0  0
   58.5060   32.3270   44.9530 C   0  0  0  0  0  0  0  0  0  0  0  0
   58.6676   32.6399   45.9951 H   0  0  0  0  0  0  0  0  0  0  0  0
   59.4756   32.2471   44.4396 H   0  0  0  0  0  0  0  0  0  0  0  0
   57.8795   33.0713   44.4396 H   0  0  0  0  0  0  0  0  0  0  0  0
   56.5510   30.8810   44.3400 C   0  0  0  0  0  0  0  0  0  0  0  0
   56.0748   31.7660   43.8928 H   0  0  0  0  0  0  0  0  0  0  0  0
   55.8960   29.6490   44.3180 C   0  0  0  0  0  0  0  0  0  0  0  0
   54.7600   29.5530   43.7820 O   0  0  0  0  0  0  0  0  0  0  0  0
   56.4810   28.5550   44.8770 N   0  0  0  0  0  0  0  0  0  0  0  0
   55.9700   27.6440   44.8600 H   0  0  0  0  0  0  0  0  0  0  0  0
   57.7070   28.6180   45.4660 C   0  0  0  0  0  0  0  0  0  0  0  0
   58.3680   27.1300   46.2390 S   0  0  0  0  0  0  0  0  0  0  0  0
   58.1630   26.0950   44.7480 C   0  0  0  0  0  0  0  0  0  0  0  0
   57.4820   26.6046   44.0505 H   0  0  0  0  0  0  0  0  0  0  0  0
   59.1533   25.9475   44.2925 H   0  0  0  0  0  0  0  0  0  0  0  0
   57.5830   24.7170   45.0930 C   0  0  0  0  0  0  0  0  0  0  0  0
   58.1388   23.9547   44.5274 H   0  0  0  0  0  0  0  0  0  0  0  0
   57.6839   24.5887   46.1808 H   0  0  0  0  0  0  0  0  0  0  0  0
   56.0880   24.5750   44.7600 C   0  0  0  0  0  0  0  0  0  0  0  0
   55.8630   25.1909   43.8768 H   0  0  0  0  0  0  0  0  0  0  0  0
   55.8866   23.5101   44.5715 H   0  0  0  0  0  0  0  0  0  0  0  0
   55.2060   25.0130   45.8890 C   0  0  0  0  0  0  0  0  0  0  0  0
   54.8100   24.1810   46.7470 O   0  0  0  0  0  0  0  0  0  0  0  0
   54.8200   26.3440   45.9930 O   0  0  0  0  0  0  0  0  0  0  0  0
   59.6730   32.7270   48.3570 C   0  0  0  0  0  0  0  0  0  0  0  0
   58.6313   32.5495   48.6626 H   0  0  0  0  0  0  0  0  0  0  0  0
   60.2820   33.9560   48.6140 C   0  0  0  0  0  0  0  0  0  0  0  0
   59.7195   34.7529   49.1226 H   0  0  0  0  0  0  0  0  0  0  0  0
  1  2  1  0
  2  3  2  0
  3  4  1  0
  4  5  1  0
  4  6  1  0
  4  7  1  0
  3  8  1  0
  8  9  1  0
  9 10  2  0
 10 11  1  0
 11 12  2  0
 11 13  1  0
 13 14  1  0
 14 15  1  0
 15 16  1  0
 15 17  1  0
 15 18  1  0
 14 19  2  0
 19 20  1  0
 19 21  1  0
 21 22  2  0
 21 23  1  0
 23 24  1  0
 23 25  1  0
 25 26  1  0
 26 27  1  0
 27 28  1  0
 27 29  1  0
 27 30  1  0
 30 31  1  0
 30 32  1  0
 30 33  1  0
 33 34  1  0
 33 35  1  0
 33 36  1  0
 36 37  2  0
 36 38  1  0
  9 39  1  0
 39 40  1  0
 39 41  2  0
 41 42  1  0
 41  2  1  0
 25 13  2  0
M  CHG  2   8  -1  38  -1
M  END
>  <UniqueID>  (89) 
82

>  <SMILES>  (89) 
Cc1ccc/c(=N/C(=O)c2c(C)cc(=O)[nH]c2SCCCC(=O)[O-])[n-]1

>  <Energy>  (89) 
43.01007421971367

>  <Genealogy>  (89) 
Cc1cccc(=NC(=O)c2c(C)cc(=O)[nH]c2SCCCC(=O)[O-])[n-]1 (protonated)
Cc1ccc/c(=N/C(=O)c2c(C)cc(=O)[nH]c2SCCCC(=O)[O-])[n-]1 (cis-trans isomerization)
Cc1ccc/c(=N/C(=O)c2c(C)cc(=O)[nH]c2SCCCC(=O)[O-])[n-]1 (3D coordinates assigned)
Cc1ccc/c(=N/C(=O)c2c(C)cc(=O)[nH]c2SCCCC(=O)[O-])[n-]1 (optimized conformer: 43.01007421971367 kcal/mol)

>  <smiles>  (89) 
Cc1cccc(=NC(=O)c2c(C)cc(=O)[nH]c2SCCCC(=O)O)[nH]1

>  <score_type>  (89) 
oracle

>  <origin>  (89) 
adg

>  <m_score__min__energy>  (89) 
-11.69

>  <m_primary>  (89) 
energy

$$$$
89:0
     RDKit          3D

 62 65  0  0  0  0  0  0  0  0999 V2000
   51.6810   23.7800   44.1080 C   0  0  0  0  0  0  0  0  0  0  0  0
   52.8990   24.0550   44.9830 C   0  0  0  0  0  0  0  0  0  0  0  0
   53.8620   22.9600   44.8650 N   0  0  0  0  0  0  0  0  0  0  0  0
   55.1990   23.0680   44.3500 C   0  0  0  0  0  0  0  0  0  0  0  0
   55.5380   22.3230   43.3910 O   0  0  0  0  0  0  0  0  0  0  0  0
   56.2000   23.9900   44.9330 C   0  0  0  0  0  0  0  0  0  0  0  0
   55.8000   25.1520   45.6090 C   0  0  0  0  0  0  0  0  0  0  0  0
   56.7470   25.9610   46.2380 C   0  0  0  0  0  0  0  0  0  0  0  0
   58.1120   25.6160   46.2020 C   0  0  0  0  0  0  0  0  0  0  0  0
   59.0790   26.3690   46.9490 N   0  0  0  0  0  0  0  0  0  0  0  0
   58.8720   27.7430   47.3100 C   0  0  0  0  0  0  0  0  0  0  0  0
   57.7480   28.2860   47.1370 O   0  0  0  0  0  0  0  0  0  0  0  0
   59.9420   28.5180   47.8760 N   0  0  0  0  0  0  0  0  0  0  0  0
   60.4760   28.1320   49.1830 C   0  0  0  0  0  0  0  0  0  0  0  0
   60.5040   29.3550   50.0890 C   0  0  0  0  0  0  0  0  0  0  0  0
   61.2310   30.4950   49.4250 C   0  0  0  0  0  0  0  0  0  0  0  0
   61.7610   31.5200   50.2210 C   0  0  0  0  0  0  0  0  0  0  0  0
   62.4060   32.6270   49.6420 C   0  0  0  0  0  0  0  0  0  0  0  0
   62.8950   33.6960   50.4130 O   0  0  0  0  0  0  0  0  0  0  0  0
   64.2350   33.8150   50.8750 C   0  0  0  0  0  0  0  0  0  0  0  0
   62.5640   32.6830   48.2500 C   0  0  0  0  0  0  0  0  0  0  0  0
   63.2570   33.7720   47.7040 O   0  0  0  0  0  0  0  0  0  0  0  0
   63.3970   34.0260   46.3090 C   0  0  0  0  0  0  0  0  0  0  0  0
   62.0260   31.6620   47.4460 C   0  0  0  0  0  0  0  0  0  0  0  0
   61.3140   30.5920   48.0160 C   0  0  0  0  0  0  0  0  0  0  0  0
   60.6290   29.5740   47.1050 C   0  0  2  0  0  0  0  0  0  0  0  0
   59.6530   30.3060   46.1970 C   0  0  0  0  0  0  0  0  0  0  0  0
   59.0180   31.4840   46.6390 C   0  0  0  0  0  0  0  0  0  0  0  0
   58.0680   32.1180   45.8330 C   0  0  0  0  0  0  0  0  0  0  0  0
   57.7480   31.5900   44.5810 C   0  0  0  0  0  0  0  0  0  0  0  0
   58.3850   30.4290   44.1260 C   0  0  0  0  0  0  0  0  0  0  0  0
   59.3330   29.7890   44.9290 C   0  0  0  0  0  0  0  0  0  0  0  0
   58.5200   24.5120   45.4450 C   0  0  0  0  0  0  0  0  0  0  0  0
   57.5690   23.7010   44.8120 C   0  0  0  0  0  0  0  0  0  0  0  0
   50.8075   23.5828   44.7469 H   0  0  0  0  0  0  0  0  0  0  0  0
   51.4806   24.6555   43.4729 H   0  0  0  0  0  0  0  0  0  0  0  0
   51.8762   22.9033   43.4729 H   0  0  0  0  0  0  0  0  0  0  0  0
   53.3740   24.9933   44.6604 H   0  0  0  0  0  0  0  0  0  0  0  0
   52.5768   24.1389   46.0314 H   0  0  0  0  0  0  0  0  0  0  0  0
   54.7354   25.4267   45.6434 H   0  0  0  0  0  0  0  0  0  0  0  0
   56.4261   26.8721   46.7642 H   0  0  0  0  0  0  0  0  0  0  0  0
   59.8660   25.8560   47.4080 H   0  0  0  0  0  0  0  0  0  0  0  0
   59.8348   27.3575   49.6290 H   0  0  0  0  0  0  0  0  0  0  0  0
   61.4947   27.7341   49.0650 H   0  0  0  0  0  0  0  0  0  0  0  0
   59.4717   29.6647   50.3090 H   0  0  0  0  0  0  0  0  0  0  0  0
   61.0312   29.0937   51.0184 H   0  0  0  0  0  0  0  0  0  0  0  0
   61.6709   31.4572   51.3155 H   0  0  0  0  0  0  0  0  0  0  0  0
   64.2449   33.8159   51.9750 H   0  0  0  0  0  0  0  0  0  0  0  0
   64.8276   32.9659   50.5037 H   0  0  0  0  0  0  0  0  0  0  0  0
   64.6687   34.7552   50.5037 H   0  0  0  0  0  0  0  0  0  0  0  0
   63.9232   34.9806   46.1611 H   0  0  0  0  0  0  0  0  0  0  0  0
   63.9745   33.2132   45.8445 H   0  0  0  0  0  0  0  0  0  0  0  0
   62.4014   34.0803   45.8445 H   0  0  0  0  0  0  0  0  0  0  0  0
   62.1643   31.7012   46.3554 H   0  0  0  0  0  0  0  0  0  0  0  0
   61.3960   29.0704   46.4983 H   0  0  0  0  0  0  0  0  0  0  0  0
   59.2711   31.9064   47.6226 H   0  0  0  0  0  0  0  0  0  0  0  0
   57.5719   33.0342   46.1858 H   0  0  0  0  0  0  0  0  0  0  0  0
   56.9949   32.0864   43.9514 H   0  0  0  0  0  0  0  0  0  0  0  0
   58.1388   30.0200   43.1350 H   0  0  0  0  0  0  0  0  0  0  0  0
   59.8309   28.8771   44.5677 H   0  0  0  0  0  0  0  0  0  0  0  0
   59.5908   24.2802   45.3466 H   0  0  0  0  0  0  0  0  0  0  0  0
   57.8958   22.8347   44.2181 H   0  0  0  0  0  0  0  0  0  0  0  0
  1  2  1  0
  2  3  1  0
  3  4  1  0
  4  5  2  0
  4  6  1  0
  6  7  2  0
  7  8  1  0
  8  9  2  0
  9 10  1  0
 10 11  1  0
 11 12  2  0
 11 13  1  0
 13 14  1  0
 14 15  1  0
 15 16  1  0
 16 17  2  0
 17 18  1  0
 18 19  1  0
 19 20  1  0
 18 21  2  0
 21 22  1  0
 22 23  1  0
 21 24  1  0
 24 25  2  0
 25 26  1  0
 26 27  1  0
 27 28  2  0
 28 29  1  0
 29 30  2  0
 30 31  1  0
 31 32  2  0
  9 33  1  0
 33 34  2  0
 34  6  1  0
 26 13  1  0
 32 27  1  0
 25 16  1  0
  1 35  1  0
  1 36  1  0
  1 37  1  0
  2 38  1  0
  2 39  1  0
  7 40  1  0
  8 41  1  0
 10 42  1  0
 14 43  1  0
 14 44  1  0
 15 45  1  0
 15 46  1  0
 17 47  1  0
 20 48  1  0
 20 49  1  0
 20 50  1  0
 23 51  1  0
 23 52  1  0
 23 53  1  0
 24 54  1  0
 26 55  1  6
 28 56  1  0
 29 57  1  0
 30 58  1  0
 31 59  1  0
 32 60  1  0
 33 61  1  0
 34 62  1  0
M  CHG  1   3  -1
M  END
>  <UniqueID>  (90) 
83

>  <SMILES>  (90) 
CC[N-]C(=O)c1ccc(NC(=O)N2CCc3cc(OC)c(OC)cc3[C@@H]2c2ccccc2)cc1

>  <Energy>  (90) 
77.97804799987226

>  <Genealogy>  (90) 
CC[N-]C(=O)c1ccc(NC(=O)N2CCc3cc(OC)c(OC)cc3C2c2ccccc2)cc1 (protonated)
CC[N-]C(=O)c1ccc(NC(=O)N2CCc3cc(OC)c(OC)cc3[C@@H]2c2ccccc2)cc1 (chirality)
CC[N-]C(=O)c1ccc(NC(=O)N2CCc3cc(OC)c(OC)cc3[C@@H]2c2ccccc2)cc1 (3D coordinates assigned)
CC[N-]C(=O)c1ccc(NC(=O)N2CCc3cc(OC)c(OC)cc3[C@@H]2c2ccccc2)cc1 (nonaromatic ring conformer: 77.97804799987226 kcal/mol)

>  <smiles>  (90) 
CCNC(=O)c1ccc(NC(=O)N2CCc3cc(OC)c(OC)cc3C2c2ccccc2)cc1

>  <score_type>  (90) 
oracle

>  <origin>  (90) 
adg

>  <m_score__min__energy>  (90) 
-8.9800000000000004

>  <m_primary>  (90) 
energy

$$$$
90:0
     RDKit          3D

 54 58  0  0  0  0  0  0  0  0999 V2000
   57.4450   29.8920   50.9770 O   0  0  0  0  0  0  0  0  0  0  0  0
   58.5760   30.0120   50.4320 C   0  0  0  0  0  0  0  0  0  0  0  0
   59.6720   29.0880   50.8040 C   0  0  0  0  0  0  0  0  0  0  0  0
   60.0520   29.0300   52.1580 C   0  0  0  0  0  0  0  0  0  0  0  0
   61.0160   28.1190   52.5920 C   0  0  0  0  0  0  0  0  0  0  0  0
   61.6210   27.2580   51.6800 C   0  0  0  0  0  0  0  0  0  0  0  0
   61.2820   27.3210   50.3290 C   0  0  0  0  0  0  0  0  0  0  0  0
   60.3220   28.2390   49.8680 C   0  0  0  0  0  0  0  0  0  0  0  0
   60.1030   28.3510   48.4480 N   0  0  0  0  0  0  0  0  0  0  0  0
   60.1260   27.1530   47.6000 C   0  0  0  0  0  0  0  0  0  0  0  0
   58.7350   26.8390   47.1200 C   0  0  0  0  0  0  0  0  0  0  0  0
   58.1320   25.6120   47.4410 C   0  0  0  0  0  0  0  0  0  0  0  0
   56.8200   25.3460   47.0390 C   0  0  0  0  0  0  0  0  0  0  0  0
   56.0950   26.3060   46.3190 C   0  0  0  0  0  0  0  0  0  0  0  0
   54.7860   26.0470   45.9170 O   0  0  0  0  0  0  0  0  0  0  0  0
   56.6910   27.5340   46.0040 C   0  0  0  0  0  0  0  0  0  0  0  0
   55.9770   28.4940   45.2950 O   0  0  0  0  0  0  0  0  0  0  0  0
   58.0040   27.8000   46.4050 C   0  0  0  0  0  0  0  0  0  0  0  0
   60.0280   29.6310   47.8180 C   0  0  0  0  0  0  0  0  0  0  0  0
   61.0050   30.0560   47.1450 O   0  0  0  0  0  0  0  0  0  0  0  0
   58.8110   30.4720   47.9890 C   0  0  0  0  0  0  0  0  0  0  0  0
   58.7370   30.9530   49.3640 N   0  0  0  0  0  0  0  0  0  0  0  0
   58.8860   32.3840   49.6600 C   0  0  0  0  0  0  0  0  0  0  0  0
   59.6660   33.0680   48.5540 C   0  0  0  0  0  0  0  0  0  0  0  0
   61.0560   33.2050   48.7150 C   0  0  0  0  0  0  0  0  0  0  0  0
   61.8470   33.7320   47.6960 C   0  0  0  0  0  0  0  0  0  0  0  0
   61.2720   34.1220   46.4900 C   0  0  0  0  0  0  0  0  0  0  0  0
   59.8910   34.0000   46.2940 C   0  0  0  0  0  0  0  0  0  0  0  0
   59.3220   34.3860   45.0700 C   0  0  0  0  0  0  0  0  0  0  0  0
   57.9470   34.2700   44.8640 C   0  0  0  0  0  0  0  0  0  0  0  0
   57.1280   33.7810   45.8800 C   0  0  0  0  0  0  0  0  0  0  0  0
   57.6760   33.3980   47.1060 C   0  0  0  0  0  0  0  0  0  0  0  0
   59.0660   33.4810   47.3320 C   0  0  0  0  0  0  0  0  0  0  0  0
   59.5832   29.7113   52.8833 H   0  0  0  0  0  0  0  0  0  0  0  0
   61.2979   28.0811   53.6546 H   0  0  0  0  0  0  0  0  0  0  0  0
   62.3671   26.5274   52.0258 H   0  0  0  0  0  0  0  0  0  0  0  0
   61.7721   26.6435   49.6143 H   0  0  0  0  0  0  0  0  0  0  0  0
   60.7793   27.3321   46.7333 H   0  0  0  0  0  0  0  0  0  0  0  0
   60.5082   26.3029   48.1842 H   0  0  0  0  0  0  0  0  0  0  0  0
   58.6942   24.8575   48.0108 H   0  0  0  0  0  0  0  0  0  0  0  0
   56.3550   24.3808   47.2882 H   0  0  0  0  0  0  0  0  0  0  0  0
   54.2610   26.7110   45.3600 H   0  0  0  0  0  0  0  0  0  0  0  0
   58.4661   28.7674   46.1587 H   0  0  0  0  0  0  0  0  0  0  0  0
   58.8601   31.3306   47.3031 H   0  0  0  0  0  0  0  0  0  0  0  0
   57.9175   29.8711   47.7639 H   0  0  0  0  0  0  0  0  0  0  0  0
   57.8901   32.8442   49.7407 H   0  0  0  0  0  0  0  0  0  0  0  0
   59.4307   32.5000   50.6086 H   0  0  0  0  0  0  0  0  0  0  0  0
   61.5259   32.8917   49.6590 H   0  0  0  0  0  0  0  0  0  0  0  0
   62.9314   33.8403   47.8455 H   0  0  0  0  0  0  0  0  0  0  0  0
   61.9053   34.5279   45.6873 H   0  0  0  0  0  0  0  0  0  0  0  0
   59.9637   34.7820   44.2691 H   0  0  0  0  0  0  0  0  0  0  0  0
   57.5090   34.5647   43.8989 H   0  0  0  0  0  0  0  0  0  0  0  0
   56.0437   33.6962   45.7153 H   0  0  0  0  0  0  0  0  0  0  0  0
   57.0164   33.0274   47.9045 H   0  0  0  0  0  0  0  0  0  0  0  0
  1  2  2  0
  2  3  1  0
  3  4  2  0
  4  5  1  0
  5  6  2  0
  6  7  1  0
  7  8  2  0
  8  9  1  0
  9 10  1  0
 10 11  1  0
 11 12  2  0
 12 13  1  0
 13 14  2  0
 14 15  1  0
 14 16  1  0
 16 17  1  0
 16 18  2  0
  9 19  1  0
 19 20  2  0
 19 21  1  0
 21 22  1  0
 22 23  1  0
 23 24  1  0
 24 25  2  0
 25 26  1  0
 26 27  2  0
 27 28  1  0
 28 29  2  0
 29 30  1  0
 30 31  2  0
 31 32  1  0
 32 33  2  0
 22  2  1  0
 33 24  1  0
  8  3  1  0
 18 11  1  0
 33 28  1  0
  4 34  1  0
  5 35  1  0
  6 36  1  0
  7 37  1  0
 10 38  1  0
 10 39  1  0
 12 40  1  0
 13 41  1  0
 15 42  1  0
 18 43  1  0
 21 44  1  0
 21 45  1  0
 23 46  1  0
 23 47  1  0
 25 48  1  0
 26 49  1  0
 27 50  1  0
 29 51  1  0
 30 52  1  0
 31 53  1  0
 32 54  1  0
M  CHG  1  17  -1
M  END
>  <UniqueID>  (91) 
84

>  <SMILES>  (91) 
O=C1c2ccccc2N(Cc2ccc(O)c([O-])c2)C(=O)CN1Cc1cccc2ccccc12

>  <Energy>  (91) 
83.54693064337475

>  <Genealogy>  (91) 
O=C1c2ccccc2N(Cc2ccc(O)c([O-])c2)C(=O)CN1Cc1cccc2ccccc12 (protonated)
O=C1c2ccccc2N(Cc2ccc(O)c([O-])c2)C(=O)CN1Cc1cccc2ccccc12 (3D coordinates assigned)
O=C1c2ccccc2N(Cc2ccc(O)c([O-])c2)C(=O)CN1Cc1cccc2ccccc12 (nonaromatic ring conformer: 83.54693064337475 kcal/mol)

>  <smiles>  (91) 
O=C1c2ccccc2N(Cc2ccc(O)c(O)c2)C(=O)CN1Cc1cccc2ccccc12

>  <score_type>  (91) 
oracle

>  <origin>  (91) 
adg

>  <m_score__min__energy>  (91) 
-11.640000000000001

>  <m_primary>  (91) 
energy

$$$$
91:0
     RDKit          3D

 52 55  0  0  0  0  0  0  0  0999 V2000
   58.1670   32.0320   49.6450 O   0  0  0  0  0  0  0  0  0  0  0  0
   59.0070   32.7680   49.0590 C   0  0  0  0  0  0  0  0  0  0  0  0
   60.1050   33.3360   49.8040 N   0  0  0  0  0  0  0  0  0  0  0  0
   60.1060   33.4690   51.2410 C   0  0  0  0  0  0  0  0  0  0  0  0
   58.9300   33.8180   51.9340 C   0  0  0  0  0  0  0  0  0  0  0  0
   58.9500   34.0040   53.3220 C   0  0  0  0  0  0  0  0  0  0  0  0
   60.1430   33.8560   54.0310 C   0  0  0  0  0  0  0  0  0  0  0  0
   61.3210   33.5250   53.3560 C   0  0  0  0  0  0  0  0  0  0  0  0
   61.3170   33.3320   51.9550 C   0  0  0  0  0  0  0  0  0  0  0  0
   62.4850   32.9960   51.2420 O   0  0  0  0  0  0  0  0  0  0  0  0
   63.2240   33.8870   50.4050 C   0  0  0  0  0  0  0  0  0  0  0  0
   63.1230   33.4620   48.9710 C   0  0  0  0  0  0  0  0  0  0  0  0
   63.6610   34.1190   47.9990 N   0  0  0  0  0  0  0  0  0  0  0  0
   63.3800   33.4300   46.7440 C   0  0  0  0  0  0  0  0  0  0  0  0
   62.5670   32.1910   47.1610 C   0  0  0  0  0  0  0  0  0  0  0  0
   62.4670   32.3160   48.5700 O   0  0  0  0  0  0  0  0  0  0  0  0
   58.8440   33.0250   47.6040 C   0  0  0  0  0  0  0  0  0  0  0  0
   59.6370   33.9740   46.9210 C   0  0  0  0  0  0  0  0  0  0  0  0
   59.4490   34.2050   45.5580 C   0  0  0  0  0  0  0  0  0  0  0  0
   58.4650   33.5080   44.8580 C   0  0  0  0  0  0  0  0  0  0  0  0
   57.6640   32.5580   45.5130 C   0  0  0  0  0  0  0  0  0  0  0  0
   56.6410   31.8290   44.8200 N   0  0  0  0  0  0  0  0  0  0  0  0
   56.7170   30.1260   44.4850 S   0  0  0  0  0  0  0  0  0  0  0  0
   55.4070   29.4960   44.8610 O   0  0  0  0  0  0  0  0  0  0  0  0
   56.9310   29.9310   43.0060 O   0  0  0  0  0  0  0  0  0  0  0  0
   58.0060   29.3340   45.3900 C   0  0  0  0  0  0  0  0  0  0  0  0
   57.6960   28.3080   46.2930 C   0  0  0  0  0  0  0  0  0  0  0  0
   58.7150   27.6990   47.0330 C   0  0  0  0  0  0  0  0  0  0  0  0
   60.0450   28.1120   46.8760 C   0  0  0  0  0  0  0  0  0  0  0  0
   61.0310   27.5290   47.6000 F   0  0  0  0  0  0  0  0  0  0  0  0
   60.3560   29.1380   45.9750 C   0  0  0  0  0  0  0  0  0  0  0  0
   59.3420   29.7390   45.2250 C   0  0  0  0  0  0  0  0  0  0  0  0
   57.8760   32.3020   46.8770 C   0  0  0  0  0  0  0  0  0  0  0  0
   60.9460   33.6840   49.2990 H   0  0  0  0  0  0  0  0  0  0  0  0
   57.9882   33.9455   51.3802 H   0  0  0  0  0  0  0  0  0  0  0  0
   58.0240   34.2672   53.8542 H   0  0  0  0  0  0  0  0  0  0  0  0
   60.1560   33.9999   55.1215 H   0  0  0  0  0  0  0  0  0  0  0  0
   62.2593   33.4136   53.9192 H   0  0  0  0  0  0  0  0  0  0  0  0
   62.8184   34.9040   50.5110 H   0  0  0  0  0  0  0  0  0  0  0  0
   64.2810   33.8679   50.7091 H   0  0  0  0  0  0  0  0  0  0  0  0
   62.7933   34.0719   46.0705 H   0  0  0  0  0  0  0  0  0  0  0  0
   64.2967   33.1652   46.1967 H   0  0  0  0  0  0  0  0  0  0  0  0
   61.5709   32.1996   46.6943 H   0  0  0  0  0  0  0  0  0  0  0  0
   63.0365   31.2467   46.8481 H   0  0  0  0  0  0  0  0  0  0  0  0
   60.4088   34.5352   47.4682 H   0  0  0  0  0  0  0  0  0  0  0  0
   60.0788   34.9391   45.0341 H   0  0  0  0  0  0  0  0  0  0  0  0
   58.3150   33.7033   43.7859 H   0  0  0  0  0  0  0  0  0  0  0  0
   56.6530   27.9821   46.4196 H   0  0  0  0  0  0  0  0  0  0  0  0
   58.4715   26.8929   47.7408 H   0  0  0  0  0  0  0  0  0  0  0  0
   61.3980   29.4705   45.8579 H   0  0  0  0  0  0  0  0  0  0  0  0
   59.5898   30.5314   44.5033 H   0  0  0  0  0  0  0  0  0  0  0  0
   57.2803   31.5288   47.3842 H   0  0  0  0  0  0  0  0  0  0  0  0
  1  2  2  0
  2  3  1  0
  3  4  1  0
  4  5  2  0
  5  6  1  0
  6  7  2  0
  7  8  1  0
  8  9  2  0
  9 10  1  0
 10 11  1  0
 11 12  1  0
 12 13  2  0
 13 14  1  0
 14 15  1  0
 15 16  1  0
  2 17  1  0
 17 18  2  0
 18 19  1  0
 19 20  2  0
 20 21  1  0
 21 22  1  0
 22 23  1  0
 23 24  2  0
 23 25  2  0
 23 26  1  0
 26 27  2  0
 27 28  1  0
 28 29  2  0
 29 30  1  0
 29 31  1  0
 31 32  2  0
 21 33  2  0
  9  4  1  0
 16 12  1  0
 33 17  1  0
 32 26  1  0
  3 34  1  0
  5 35  1  0
  6 36  1  0
  7 37  1  0
  8 38  1  0
 11 39  1  0
 11 40  1  0
 14 41  1  0
 14 42  1  0
 15 43  1  0
 15 44  1  0
 18 45  1  0
 19 46  1  0
 20 47  1  0
 27 48  1  0
 28 49  1  0
 31 50  1  0
 32 51  1  0
 33 52  1  0
M  CHG  1  22  -1
M  END
>  <UniqueID>  (92) 
85

>  <SMILES>  (92) 
O=C(Nc1ccccc1OCC1=NCCO1)c1cccc([N-]S(=O)(=O)c2ccc(F)cc2)c1

>  <Energy>  (92) 
82.78276786838227

>  <Genealogy>  (92) 
O=C(Nc1ccccc1OCC1=NCCO1)c1cccc([N-]S(=O)(=O)c2ccc(F)cc2)c1 (protonated)
O=C(Nc1ccccc1OCC1=NCCO1)c1cccc([N-]S(=O)(=O)c2ccc(F)cc2)c1 (3D coordinates assigned)
O=C(Nc1ccccc1OCC1=NCCO1)c1cccc([N-]S(=O)(=O)c2ccc(F)cc2)c1 (nonaromatic ring conformer: 82.78276786838227 kcal/mol)

>  <smiles>  (92) 
O=C(Nc1ccccc1OCC1=NCCO1)c1cccc(NS(=O)(=O)c2ccc(F)cc2)c1

>  <score_type>  (92) 
oracle

>  <origin>  (92) 
adg

>  <m_score__min__energy>  (92) 
-10.49

>  <m_primary>  (92) 
energy

$$$$
92:0
     RDKit          3D

 55 58  0  0  0  0  0  0  0  0999 V2000
   62.0060   27.0385   52.1434 H   0  0  0  0  0  0  0  0  0  0  0  0
   61.3860   27.6350   51.4580 C   0  0  0  0  0  0  0  0  0  0  0  0
   58.5190   33.0010   51.1750 N   0  0  0  0  0  0  0  0  0  0  0  0
   59.2710   31.9370   50.7700 C   0  0  0  0  0  0  0  0  0  0  0  0
   60.0820   32.0580   49.7590 N   0  0  0  0  0  0  0  0  0  0  0  0
   59.4480   28.1650   47.0820 C   0  0  0  0  0  0  0  0  0  0  0  0
   59.6460   29.4040   46.4540 C   0  0  0  0  0  0  0  0  0  0  0  0
   60.5508   29.9902   46.6721 H   0  0  0  0  0  0  0  0  0  0  0  0
   58.7010   29.8950   45.5550 C   0  0  0  0  0  0  0  0  0  0  0  0
   58.8722   30.8626   45.0606 H   0  0  0  0  0  0  0  0  0  0  0  0
   57.5320   29.1680   45.2730 C   0  0  0  0  0  0  0  0  0  0  0  0
   56.5640   29.7240   44.2970 C   0  0  0  0  0  0  0  0  0  0  0  0
   56.9890   30.2990   43.2580 O   0  0  0  0  0  0  0  0  0  0  0  0
   55.1550   29.5850   44.4890 N   0  0  0  0  0  0  0  0  0  0  0  0
   54.4900   30.0260   43.8160 H   0  0  0  0  0  0  0  0  0  0  0  0
   54.7700   28.9680   45.2390 H   0  0  0  0  0  0  0  0  0  0  0  0
   57.2940   27.9490   45.9490 C   0  0  0  0  0  0  0  0  0  0  0  0
   56.0490   27.2620   45.7490 N   0  0  0  0  0  0  0  0  0  0  0  0
   55.7900   25.5490   45.8540 S   0  0  0  0  0  0  0  0  0  0  0  0
   54.3270   25.2390   45.7080 O   0  0  0  0  0  0  0  0  0  0  0  0
   56.2490   25.0750   47.2030 O   0  0  0  0  0  0  0  0  0  0  0  0
   56.7300   24.7030   44.6000 C   0  0  0  0  0  0  0  0  0  0  0  0
   57.4663   24.0403   45.0783 H   0  0  0  0  0  0  0  0  0  0  0  0
   56.0513   24.1055   43.9736 H   0  0  0  0  0  0  0  0  0  0  0  0
   57.2530   25.4407   43.9736 H   0  0  0  0  0  0  0  0  0  0  0  0
   58.2620   27.4620   46.8470 C   0  0  0  0  0  0  0  0  0  0  0  0
   58.0828   26.5126   47.3728 H   0  0  0  0  0  0  0  0  0  0  0  0
   59.8500   29.0920   49.7340 N   0  0  0  0  0  0  0  0  0  0  0  0
   59.9340   29.5040   51.0300 C   0  0  0  0  0  0  0  0  0  0  0  0
   59.1810   30.7090   51.4690 C   0  0  0  0  0  0  0  0  0  0  0  0
   58.3110   30.6350   52.5730 C   0  0  0  0  0  0  0  0  0  0  0  0
   58.2195   29.6933   53.1341 H   0  0  0  0  0  0  0  0  0  0  0  0
   57.5650   31.7460   52.9600 C   0  0  0  0  0  0  0  0  0  0  0  0
   56.8910   31.6863   53.8273 H   0  0  0  0  0  0  0  0  0  0  0  0
   57.6790   32.9320   52.2410 C   0  0  0  0  0  0  0  0  0  0  0  0
   57.0896   33.8129   52.5353 H   0  0  0  0  0  0  0  0  0  0  0  0
   61.2680   27.2680   50.1560 N   0  0  0  0  0  0  0  0  0  0  0  0
   60.5140   27.9950   49.2880 C   0  0  0  0  0  0  0  0  0  0  0  0
   60.3800   27.6390   48.0430 N   0  0  0  0  0  0  0  0  0  0  0  0
   60.4370   33.3190   49.1090 C   0  0  0  0  0  0  0  0  0  0  0  0
   60.2640   34.1499   49.8088 H   0  0  0  0  0  0  0  0  0  0  0  0
   61.4976   33.2873   48.8188 H   0  0  0  0  0  0  0  0  0  0  0  0
   59.5970   33.5230   47.8780 C   0  0  0  0  0  0  0  0  0  0  0  0
   58.4020   32.8070   47.7000 C   0  0  0  0  0  0  0  0  0  0  0  0
   58.0610   32.1064   48.4764 H   0  0  0  0  0  0  0  0  0  0  0  0
   57.6450   32.9830   46.5380 C   0  0  0  0  0  0  0  0  0  0  0  0
   56.7089   32.4214   46.4025 H   0  0  0  0  0  0  0  0  0  0  0  0
   58.0750   33.8710   45.5480 C   0  0  0  0  0  0  0  0  0  0  0  0
   57.4757   34.0096   44.6361 H   0  0  0  0  0  0  0  0  0  0  0  0
   59.2660   34.5830   45.7160 C   0  0  0  0  0  0  0  0  0  0  0  0
   59.6046   35.2808   44.9359 H   0  0  0  0  0  0  0  0  0  0  0  0
   60.0270   34.4080   46.8760 C   0  0  0  0  0  0  0  0  0  0  0  0
   60.9663   34.9659   47.0042 H   0  0  0  0  0  0  0  0  0  0  0  0
   60.7220   28.7670   51.9260 C   0  0  0  0  0  0  0  0  0  0  0  0
   60.8140   29.0765   52.9775 H   0  0  0  0  0  0  0  0  0  0  0  0
  1  2  1  0
  2  3  1  0
  3  4  1  0
  4  5  2  0
  5  6  1  0
  6  7  2  0
  7  8  1  0
  7  9  1  0
  9 10  1  0
  9 11  2  0
 11 12  1  0
 12 13  2  0
 12 14  1  0
 14 15  1  0
 14 16  1  0
 11 17  1  0
 17 18  1  0
 18 19  1  0
 19 20  2  0
 19 21  2  0
 19 22  1  0
 22 23  1  0
 22 24  1  0
 22 25  1  0
 17 26  2  0
 26 27  1  0
  4 28  1  0
 28 29  2  0
 29 30  1  0
 30 31  2  0
 31 32  1  0
 31 33  1  0
 33 34  1  0
 33 35  2  0
 35 36  1  0
 35 37  1  0
 37 38  1  0
 38 39  2  0
 39 40  1  0
 40 41  1  0
 40 42  1  0
 40 43  1  0
 43 44  2  0
 44 45  1  0
 44 46  1  0
 46 47  1  0
 46 48  2  0
 48 49  1  0
 48 50  1  0
 50 51  1  0
 50 52  2  0
 52 53  1  0
 29 54  1  0
 54 55  1  0
 54  2  2  0
 26  6  1  0
 38 30  1  0
 52 43  1  0
M  CHG  3   3  -1  18  -1  37  -1
M  END
>  <UniqueID>  (93) 
86

>  <SMILES>  (93) 
CS(=O)(=O)[N-]c1cc(/N=c2/nc(-c3ccc[n-]/c3=N\Cc3ccccc3)cc[n-]2)ccc1C(N)=O

>  <Energy>  (93) 
75.22228089922834

>  <Genealogy>  (93) 
CS(=O)(=O)[N-]c1cc(N=c2nc(-c3ccc[n-]c3=NCc3ccccc3)cc[n-]2)ccc1C(N)=O (protonated)
CS(=O)(=O)[N-]c1cc(/N=c2/nc(-c3ccc[n-]/c3=N\Cc3ccccc3)cc[n-]2)ccc1C(N)=O (cis-trans isomerization)
CS(=O)(=O)[N-]c1cc(/N=c2/nc(-c3ccc[n-]/c3=N\Cc3ccccc3)cc[n-]2)ccc1C(N)=O (3D coordinates assigned)
CS(=O)(=O)[N-]c1cc(/N=c2/nc(-c3ccc[n-]/c3=N\Cc3ccccc3)cc[n-]2)ccc1C(N)=O (optimized conformer: 75.22228089922834 kcal/mol)

>  <smiles>  (93) 
CS(=O)(=O)Nc1cc(N=c2nc(-c3ccc[nH]c3=NCc3ccccc3)cc[nH]2)ccc1C(N)=O

>  <score_type>  (93) 
oracle

>  <origin>  (93) 
adg

>  <m_score__min__energy>  (93) 
-14.52

>  <m_primary>  (93) 
energy

$$$$
93:0
     RDKit          3D

 33 34  0  0  0  0  0  0  0  0999 V2000
   58.0710   26.6290   43.4330 N   0  0  0  0  0  0  0  0  0  0  0  0
   58.1430   26.5780   44.7360 C   0  0  0  0  0  0  0  0  0  0  0  0
   59.2850   26.5420   45.4800 N   0  0  0  0  0  0  0  0  0  0  0  0
   58.9820   26.4960   46.7910 C   0  0  0  0  0  0  0  0  0  0  0  0
   60.0710   26.4260   48.2040 S   0  0  0  0  0  0  0  0  0  0  0  0
   60.4030   28.0960   48.8570 C   0  0  0  0  0  0  0  0  0  0  0  0
   59.7110   29.0740   47.9810 C   0  0  0  0  0  0  0  0  0  0  0  0
   58.4690   29.3030   48.1550 O   0  0  0  0  0  0  0  0  0  0  0  0
   60.3440   29.7940   46.9380 N   0  0  0  0  0  0  0  0  0  0  0  0
   59.5100   30.7010   46.1990 C   0  0  0  0  0  0  0  0  0  0  0  0
   59.6850   32.0490   46.4290 C   0  0  0  0  0  0  0  0  0  0  0  0
   58.9000   32.9470   45.7190 C   0  0  0  0  0  0  0  0  0  0  0  0
   57.9920   32.4210   44.8260 C   0  0  0  0  0  0  0  0  0  0  0  0
   57.8270   31.0800   44.6070 C   0  0  0  0  0  0  0  0  0  0  0  0
   56.6440   30.5180   43.4460 S   0  0  0  0  0  0  0  0  0  0  0  0
   57.0200   28.9270   42.9010 N   0  0  0  0  0  0  0  0  0  0  0  0
   56.6600   31.4170   42.2270 O   0  0  0  0  0  0  0  0  0  0  0  0
   55.2980   30.4930   44.0790 O   0  0  0  0  0  0  0  0  0  0  0  0
   58.5950   30.2030   45.3010 C   0  0  0  0  0  0  0  0  0  0  0  0
   57.6190   26.5020   46.8680 N   0  0  0  0  0  0  0  0  0  0  0  0
   57.1450   26.5510   45.6360 N   0  0  0  0  0  0  0  0  0  0  0  0
   57.1560   26.7730   42.9580 H   0  0  0  0  0  0  0  0  0  0  0  0
   60.0200   28.1784   49.8849 H   0  0  0  0  0  0  0  0  0  0  0  0
   61.4850   28.2935   48.8721 H   0  0  0  0  0  0  0  0  0  0  0  0
   61.3560   29.6570   46.7370 H   0  0  0  0  0  0  0  0  0  0  0  0
   60.4287   32.4043   47.1575 H   0  0  0  0  0  0  0  0  0  0  0  0
   58.9987   34.0330   45.8632 H   0  0  0  0  0  0  0  0  0  0  0  0
   57.3627   33.1199   44.2555 H   0  0  0  0  0  0  0  0  0  0  0  0
   58.0480   28.7480   42.8540 H   0  0  0  0  0  0  0  0  0  0  0  0
   56.5960   28.2170   43.5480 H   0  0  0  0  0  0  0  0  0  0  0  0
   58.4884   29.1188   45.1490 H   0  0  0  0  0  0  0  0  0  0  0  0
   57.0670   26.4760   47.7670 H   0  0  0  0  0  0  0  0  0  0  0  0
   56.1340   26.5700   45.3100 H   0  0  0  0  0  0  0  0  0  0  0  0
  1  2  2  3
  2  3  1  0
  3  4  2  0
  4  5  1  0
  5  6  1  0
  6  7  1  0
  7  8  2  0
  7  9  1  0
  9 10  1  0
 10 11  2  0
 11 12  1  0
 12 13  2  0
 13 14  1  0
 14 15  1  0
 15 16  1  0
 15 17  2  0
 15 18  2  0
 14 19  2  0
  4 20  1  0
 20 21  1  0
 21  2  1  0
 19 10  1  0
  1 22  1  0
  6 23  1  0
  6 24  1  0
  9 25  1  0
 11 26  1  0
 12 27  1  0
 13 28  1  0
 16 29  1  0
 16 30  1  0
 19 31  1  0
 20 32  1  0
 21 33  1  0
M  END
>  <smiles>  (94) 
N=c1nc(SCC(=O)Nc2cccc(S(N)(=O)=O)c2)[nH][nH]1

>  <score_type>  (94) 
oracle

>  <origin>  (94) 
adg

>  <m_score__min__energy>  (94) 
-7.04

>  <m_primary>  (94) 
energy

$$$$
94:0
     RDKit          3D

 43 45  0  0  0  0  0  0  0  0999 V2000
   55.4850   29.7890   43.3420 C   0  0  0  0  0  0  0  0  0  0  0  0
   55.4050   29.1080   44.5900 O   0  0  0  0  0  0  0  0  0  0  0  0
   56.5100   28.5960   45.2870 C   0  0  0  0  0  0  0  0  0  0  0  0
   57.7510   29.2610   45.3220 C   0  0  0  0  0  0  0  0  0  0  0  0
   58.8240   28.7230   46.0460 C   0  0  0  0  0  0  0  0  0  0  0  0
   60.4000   29.5870   46.0840 S   0  0  0  0  0  0  0  0  0  0  0  0
   59.7140   31.0770   46.8440 C   0  0  0  0  0  0  0  0  0  0  0  0
   59.5070   32.1880   46.0210 C   0  0  0  0  0  0  0  0  0  0  0  0
   58.9630   33.3400   46.5730 C   0  0  0  0  0  0  0  0  0  0  0  0
   58.7520   34.3520   45.8530 O   0  0  0  0  0  0  0  0  0  0  0  0
   58.6570   33.3740   47.8910 N   0  0  0  0  0  0  0  0  0  0  0  0
   58.8790   32.3050   48.6980 C   0  0  0  0  0  0  0  0  0  0  0  0
   58.5860   32.3990   49.9200 O   0  0  0  0  0  0  0  0  0  0  0  0
   59.4210   31.1470   48.1870 N   0  0  0  0  0  0  0  0  0  0  0  0
   59.7300   30.0110   49.0790 C   0  0  0  0  0  0  0  0  0  0  0  0
   61.1240   29.7640   49.1090 O   0  0  0  0  0  0  0  0  0  0  0  0
   61.7900   30.7070   49.9260 C   0  0  0  0  0  0  0  0  0  0  0  0
   62.3240   31.8440   49.0950 C   0  0  0  0  0  0  0  0  0  0  0  0
   62.2180   33.1700   49.5470 C   0  0  0  0  0  0  0  0  0  0  0  0
   62.7330   34.2180   48.7760 C   0  0  0  0  0  0  0  0  0  0  0  0
   63.3560   33.9490   47.5540 C   0  0  0  0  0  0  0  0  0  0  0  0
   63.4680   32.6330   47.1010 C   0  0  0  0  0  0  0  0  0  0  0  0
   62.9550   31.5810   47.8680 C   0  0  0  0  0  0  0  0  0  0  0  0
   58.6710   27.4990   46.7070 C   0  0  0  0  0  0  0  0  0  0  0  0
   57.4460   26.8330   46.6730 C   0  0  0  0  0  0  0  0  0  0  0  0
   56.3660   27.3790   45.9700 C   0  0  0  0  0  0  0  0  0  0  0  0
   55.1500   26.7070   45.9490 O   0  0  0  0  0  0  0  0  0  0  0  0
   55.6117   30.8671   43.5200 H   0  0  0  0  0  0  0  0  0  0  0  0
   56.3446   29.4082   42.7709 H   0  0  0  0  0  0  0  0  0  0  0  0
   54.5606   29.6178   42.7709 H   0  0  0  0  0  0  0  0  0  0  0  0
   57.8790   30.2084   44.7779 H   0  0  0  0  0  0  0  0  0  0  0  0
   59.7708   32.1501   44.9538 H   0  0  0  0  0  0  0  0  0  0  0  0
   59.3827   30.2454   50.0961 H   0  0  0  0  0  0  0  0  0  0  0  0
   59.2196   29.1137   48.6992 H   0  0  0  0  0  0  0  0  0  0  0  0
   61.0836   31.1036   50.6701 H   0  0  0  0  0  0  0  0  0  0  0  0
   62.6321   30.2089   50.4288 H   0  0  0  0  0  0  0  0  0  0  0  0
   61.7292   33.3847   50.5088 H   0  0  0  0  0  0  0  0  0  0  0  0
   62.6474   35.2552   49.1322 H   0  0  0  0  0  0  0  0  0  0  0  0
   63.7584   34.7747   46.9487 H   0  0  0  0  0  0  0  0  0  0  0  0
   63.9601   32.4229   46.1399 H   0  0  0  0  0  0  0  0  0  0  0  0
   63.0462   30.5452   47.5090 H   0  0  0  0  0  0  0  0  0  0  0  0
   59.5187   27.0612   47.2545 H   0  0  0  0  0  0  0  0  0  0  0  0
   57.3283   25.8750   47.2007 H   0  0  0  0  0  0  0  0  0  0  0  0
  1  2  1  0
  2  3  1  0
  3  4  2  0
  4  5  1  0
  5  6  1  0
  6  7  1  0
  7  8  2  0
  8  9  1  0
  9 10  2  0
  9 11  1  0
 11 12  1  0
 12 13  2  0
 12 14  1  0
 14 15  1  0
 15 16  1  0
 16 17  1  0
 17 18  1  0
 18 19  2  0
 19 20  1  0
 20 21  2  0
 21 22  1  0
 22 23  2  0
  5 24  2  0
 24 25  1  0
 25 26  2  0
 26 27  1  0
 26  3  1  0
 14  7  1  0
 23 18  1  0
  1 28  1  0
  1 29  1  0
  1 30  1  0
  4 31  1  0
  8 32  1  0
 15 33  1  0
 15 34  1  0
 17 35  1  0
 17 36  1  0
 19 37  1  0
 20 38  1  0
 21 39  1  0
 22 40  1  0
 23 41  1  0
 24 42  1  0
 25 43  1  0
M  CHG  2  11  -1  27  -1
M  END
>  <UniqueID>  (95) 
87

>  <SMILES>  (95) 
COc1cc(Sc2cc(=O)[n-]c(=O)n2COCc2ccccc2)ccc1[O-]

>  <Energy>  (95) 
48.688733716814546

>  <Genealogy>  (95) 
COc1cc(Sc2cc(=O)[n-]c(=O)n2COCc2ccccc2)ccc1[O-] (protonated)
COc1cc(Sc2cc(=O)[n-]c(=O)n2COCc2ccccc2)ccc1[O-] (3D coordinates assigned)
COc1cc(Sc2cc(=O)[n-]c(=O)n2COCc2ccccc2)ccc1[O-] (optimized conformer: 48.688733716814546 kcal/mol)

>  <smiles>  (95) 
COc1cc(Sc2cc(=O)[nH]c(=O)n2COCc2ccccc2)ccc1O

>  <score_type>  (95) 
oracle

>  <origin>  (95) 
adg

>  <m_score__min__energy>  (95) 
-12.77

>  <m_primary>  (95) 
energy

$$$$
