0:0
     RDKit          3D

 31 33  0  0  0  0  0  0  0  0999 V2000
   59.2780   35.3900   45.2360 C   0  0  0  0  0  0  0  0  0  0  0  0
   58.1070   34.5790   45.2100 O   0  0  0  0  0  0  0  0  0  0  0  0
   58.0870   33.2060   45.4920 C   0  0  0  0  0  0  0  0  0  0  0  0
   58.5480   32.6810   46.7150 C   0  0  0  0  0  0  0  0  0  0  0  0
   58.5100   31.3050   46.9520 C   0  0  0  0  0  0  0  0  0  0  0  0
   58.0110   30.4370   45.9770 C   0  0  0  0  0  0  0  0  0  0  0  0
   57.9760   29.0990   46.2170 N   0  0  0  0  0  0  0  0  0  0  0  0
   57.4950   28.2080   45.3060 C   0  0  0  0  0  0  0  0  0  0  0  0
   57.5020   26.7630   45.6340 C   0  0  0  0  0  0  0  0  0  0  0  0
   58.7260   26.0700   45.6660 C   0  0  0  0  0  0  0  0  0  0  0  0
   58.7610   24.7060   45.9720 C   0  0  0  0  0  0  0  0  0  0  0  0
   57.5780   24.0220   46.2610 C   0  0  0  0  0  0  0  0  0  0  0  0
   56.3590   24.7020   46.2500 C   0  0  0  0  0  0  0  0  0  0  0  0
   56.3140   26.0670   45.9430 C   0  0  0  0  0  0  0  0  0  0  0  0
   55.1200   26.7090   45.9980 F   0  0  0  0  0  0  0  0  0  0  0  0
   57.0380   28.6760   44.0620 C   0  0  0  0  0  0  0  0  0  0  0  0
   57.0600   30.0450   43.7820 C   0  0  0  0  0  0  0  0  0  0  0  0
   56.6450   30.4530   42.6630 O   0  0  0  0  0  0  0  0  0  0  0  0
   57.5470   30.9470   44.7450 C   0  0  0  0  0  0  0  0  0  0  0  0
   57.5890   32.3340   44.5150 C   0  0  0  0  0  0  0  0  0  0  0  0
   59.5638   35.5879   46.2796 H   0  0  0  0  0  0  0  0  0  0  0  0
   60.0985   34.8658   44.7242 H   0  0  0  0  0  0  0  0  0  0  0  0
   59.0758   36.3425   44.7242 H   0  0  0  0  0  0  0  0  0  0  0  0
   58.9402   33.3584   47.4878 H   0  0  0  0  0  0  0  0  0  0  0  0
   58.8740   30.9033   47.9091 H   0  0  0  0  0  0  0  0  0  0  0  0
   59.6622   26.6050   45.4487 H   0  0  0  0  0  0  0  0  0  0  0  0
   59.7219   24.1708   45.9851 H   0  0  0  0  0  0  0  0  0  0  0  0
   57.6069   22.9480   46.4971 H   0  0  0  0  0  0  0  0  0  0  0  0
   55.4292   24.1626   46.4837 H   0  0  0  0  0  0  0  0  0  0  0  0
   56.6636   27.9659   43.3100 H   0  0  0  0  0  0  0  0  0  0  0  0
   57.2271   32.7383   43.5581 H   0  0  0  0  0  0  0  0  0  0  0  0
  1  2  1  0
  2  3  1  0
  3  4  2  0
  4  5  1  0
  5  6  2  0
  6  7  1  0
  7  8  1  0
  8  9  1  0
  9 10  2  0
 10 11  1  0
 11 12  2  0
 12 13  1  0
 13 14  2  0
 14 15  1  0
  8 16  2  0
 16 17  1  0
 17 18  2  0
 17 19  1  0
 19 20  2  0
 20  3  1  0
 19  6  1  0
 14  9  1  0
  1 21  1  0
  1 22  1  0
  1 23  1  0
  4 24  1  0
  5 25  1  0
 10 26  1  0
 11 27  1  0
 12 28  1  0
 13 29  1  0
 16 30  1  0
 20 31  1  0
M  CHG  1   7  -1
M  END
>  <UniqueID>  (1) 
1

>  <SMILES>  (1) 
COc1ccc2[n-]c(-c3ccccc3F)cc(=O)c2c1

>  <Energy>  (1) 
43.14445656573183

>  <Genealogy>  (1) 
COc1ccc2[n-]c(-c3ccccc3F)cc(=O)c2c1 (protonated)
COc1ccc2[n-]c(-c3ccccc3F)cc(=O)c2c1 (3D coordinates assigned)
COc1ccc2[n-]c(-c3ccccc3F)cc(=O)c2c1 (optimized conformer: 43.14445656573183 kcal/mol)

>  <smiles>  (1) 
COc1ccc2[nH]c(-c3ccccc3F)cc(=O)c2c1

>  <score_type>  (1) 
oracle

>  <origin>  (1) 
adg

>  <m_score__min__energy>  (1) 
-7.4400000000000004

>  <m_primary>  (1) 
energy

$$$$
1:0
     RDKit          3D

 39 39  0  0  0  0  0  0  0  0999 V2000
   59.9890   33.6230   49.6620 C   0  0  0  0  0  0  0  0  0  0  0  0
   59.6870   34.6300   48.7010 O   0  0  0  0  0  0  0  0  0  0  0  0
   59.2750   34.3700   47.3850 C   0  0  0  0  0  0  0  0  0  0  0  0
   59.6530   35.2670   46.3790 C   0  0  0  0  0  0  0  0  0  0  0  0
   59.2610   35.0530   45.0560 C   0  0  0  0  0  0  0  0  0  0  0  0
   58.4980   33.9300   44.7230 C   0  0  0  0  0  0  0  0  0  0  0  0
   58.1280   33.0050   45.7150 C   0  0  0  0  0  0  0  0  0  0  0  0
   57.3340   31.8480   45.4040 N   0  0  0  0  0  0  0  0  0  0  0  0
   57.0900   31.3730   44.0700 C   0  0  0  0  0  0  0  0  0  0  0  0
   57.6120   31.9460   43.0750 O   0  0  0  0  0  0  0  0  0  0  0  0
   56.2850   30.1260   43.8510 C   0  0  0  0  0  0  0  0  0  0  0  0
   56.0350   29.4320   45.1240 N   0  0  0  0  0  0  0  0  0  0  0  0
   56.7770   28.1630   45.2360 C   0  0  0  0  0  0  0  0  0  0  0  0
   57.7780   28.2420   46.3940 C   0  0  0  0  0  0  0  0  0  0  0  0
   58.4190   29.5740   46.4350 N   0  0  0  0  0  0  0  0  0  0  0  0
   58.8820   29.8790   47.8000 C   0  0  0  0  0  0  0  0  0  0  0  0
   59.5640   29.6370   45.5090 C   0  0  0  0  0  0  0  0  0  0  0  0
   58.5000   33.2440   47.0470 C   0  0  0  0  0  0  0  0  0  0  0  0
   59.8657   34.0340   50.6749 H   0  0  0  0  0  0  0  0  0  0  0  0
   59.3070   32.7707   49.5266 H   0  0  0  0  0  0  0  0  0  0  0  0
   61.0275   33.2867   49.5266 H   0  0  0  0  0  0  0  0  0  0  0  0
   60.2631   36.1465   46.6325 H   0  0  0  0  0  0  0  0  0  0  0  0
   59.5532   35.7696   44.2742 H   0  0  0  0  0  0  0  0  0  0  0  0
   58.1858   33.7694   43.6805 H   0  0  0  0  0  0  0  0  0  0  0  0
   57.0370   31.2370   46.1990 H   0  0  0  0  0  0  0  0  0  0  0  0
   55.3221   30.3949   43.3923 H   0  0  0  0  0  0  0  0  0  0  0  0
   56.8513   29.4538   43.1896 H   0  0  0  0  0  0  0  0  0  0  0  0
   56.3610   30.0680   45.8890 H   0  0  0  0  0  0  0  0  0  0  0  0
   56.0688   27.3421   45.4219 H   0  0  0  0  0  0  0  0  0  0  0  0
   57.3227   27.9796   44.2987 H   0  0  0  0  0  0  0  0  0  0  0  0
   57.2491   28.0655   47.3422 H   0  0  0  0  0  0  0  0  0  0  0  0
   58.5551   27.4778   46.2451 H   0  0  0  0  0  0  0  0  0  0  0  0
   58.1948   29.4263   48.5300 H   0  0  0  0  0  0  0  0  0  0  0  0
   59.8925   29.4692   47.9446 H   0  0  0  0  0  0  0  0  0  0  0  0
   58.9043   30.9692   47.9446 H   0  0  0  0  0  0  0  0  0  0  0  0
   60.4994   29.6885   46.0855 H   0  0  0  0  0  0  0  0  0  0  0  0
   59.5729   28.7380   44.8752 H   0  0  0  0  0  0  0  0  0  0  0  0
   59.4742   30.5316   44.8752 H   0  0  0  0  0  0  0  0  0  0  0  0
   58.1830   32.5448   47.8348 H   0  0  0  0  0  0  0  0  0  0  0  0
  1  2  1  0
  2  3  1  0
  3  4  2  0
  4  5  1  0
  5  6  2  0
  6  7  1  0
  7  8  1  0
  8  9  1  0
  9 10  2  0
  9 11  1  0
 11 12  1  0
 12 13  1  0
 13 14  1  0
 14 15  1  0
 15 16  1  0
 15 17  1  0
  7 18  2  0
 18  3  1  0
  1 19  1  0
  1 20  1  0
  1 21  1  0
  4 22  1  0
  5 23  1  0
  6 24  1  0
  8 25  1  0
 11 26  1  0
 11 27  1  0
 12 28  1  0
 13 29  1  0
 13 30  1  0
 14 31  1  0
 14 32  1  0
 16 33  1  0
 16 34  1  0
 16 35  1  0
 17 36  1  0
 17 37  1  0
 17 38  1  0
 18 39  1  0
M  END
>  <UniqueID>  (2) 
2

>  <SMILES>  (2) 
COc1cccc(NC(=O)CNCCN(C)C)c1

>  <Energy>  (2) 
35.90420191737652

>  <Genealogy>  (2) 
COc1cccc(NC(=O)CNCCN(C)C)c1 (3D coordinates assigned)
COc1cccc(NC(=O)CNCCN(C)C)c1 (optimized conformer: 35.90420191737652 kcal/mol)

>  <smiles>  (2) 
COc1cccc(NC(=O)CNCCN(C)C)c1

>  <score_type>  (2) 
oracle

>  <origin>  (2) 
adg

>  <m_score__min__energy>  (2) 
-5.21

>  <m_primary>  (2) 
energy

$$$$
2:0
     RDKit          3D

 41 43  0  0  0  0  0  0  0  0999 V2000
   60.1840   28.9480   48.2880 C   0  0  0  0  0  0  0  0  0  0  0  0
   60.3770   30.4080   48.2420 N   0  0  0  0  0  0  0  0  0  0  0  0
   61.4600   30.7890   49.1610 C   0  0  0  0  0  0  0  0  0  0  0  0
   60.7000   30.8530   46.8700 C   0  0  0  0  0  0  0  0  0  0  0  0
   59.4480   31.2670   46.1360 C   0  0  0  0  0  0  0  0  0  0  0  0
   58.5640   30.2950   45.6240 C   0  0  0  0  0  0  0  0  0  0  0  0
   57.3840   30.6710   44.9380 C   0  0  0  0  0  0  0  0  0  0  0  0
   56.4650   29.6430   44.3960 C   0  0  0  0  0  0  0  0  0  0  0  0
   56.1270   29.6950   43.1830 O   0  0  0  0  0  0  0  0  0  0  0  0
   55.9040   28.6120   45.2190 N   0  0  0  0  0  0  0  0  0  0  0  0
   56.5550   27.3970   45.6180 C   0  0  0  0  0  0  0  0  0  0  0  0
   57.9560   27.3500   45.6270 C   0  0  0  0  0  0  0  0  0  0  0  0
   58.6210   26.1840   46.0190 C   0  0  0  0  0  0  0  0  0  0  0  0
   57.8900   25.0610   46.4170 C   0  0  0  0  0  0  0  0  0  0  0  0
   56.4930   25.1060   46.4330 C   0  0  0  0  0  0  0  0  0  0  0  0
   55.8250   26.2710   46.0430 C   0  0  0  0  0  0  0  0  0  0  0  0
   57.0700   32.0380   44.7960 C   0  0  0  0  0  0  0  0  0  0  0  0
   57.9450   32.9910   45.3140 C   0  0  0  0  0  0  0  0  0  0  0  0
   59.1030   32.6140   45.9630 C   0  0  0  0  0  0  0  0  0  0  0  0
   59.7640   33.8360   46.3700 C   0  0  0  0  0  0  0  0  0  0  0  0
   60.8540   33.9210   46.9940 O   0  0  0  0  0  0  0  0  0  0  0  0
   59.0000   34.9610   45.9610 N   0  0  0  0  0  0  0  0  0  0  0  0
   57.8040   34.4850   45.2670 C   0  0  0  0  0  0  0  0  0  0  0  0
   60.1402   28.6168   49.3360 H   0  0  0  0  0  0  0  0  0  0  0  0
   59.2434   28.6863   47.7812 H   0  0  0  0  0  0  0  0  0  0  0  0
   61.0242   28.4509   47.7812 H   0  0  0  0  0  0  0  0  0  0  0  0
   61.1187   30.6689   50.1998 H   0  0  0  0  0  0  0  0  0  0  0  0
   62.3338   30.1443   48.9853 H   0  0  0  0  0  0  0  0  0  0  0  0
   61.7377   31.8388   48.9853 H   0  0  0  0  0  0  0  0  0  0  0  0
   61.3889   31.7091   46.9206 H   0  0  0  0  0  0  0  0  0  0  0  0
   61.1686   30.0183   46.3281 H   0  0  0  0  0  0  0  0  0  0  0  0
   58.7948   29.2281   45.7597 H   0  0  0  0  0  0  0  0  0  0  0  0
   58.5352   28.2348   45.3242 H   0  0  0  0  0  0  0  0  0  0  0  0
   59.7205   26.1505   46.0142 H   0  0  0  0  0  0  0  0  0  0  0  0
   58.4141   24.1418   46.7176 H   0  0  0  0  0  0  0  0  0  0  0  0
   55.9185   24.2241   46.7527 H   0  0  0  0  0  0  0  0  0  0  0  0
   54.7259   26.3076   46.0684 H   0  0  0  0  0  0  0  0  0  0  0  0
   56.1473   32.3480   44.2836 H   0  0  0  0  0  0  0  0  0  0  0  0
   59.2510   35.9600   46.1270 H   0  0  0  0  0  0  0  0  0  0  0  0
   56.8913   34.8107   45.7874 H   0  0  0  0  0  0  0  0  0  0  0  0
   57.7182   34.8759   44.2424 H   0  0  0  0  0  0  0  0  0  0  0  0
  1  2  1  0
  2  3  1  0
  2  4  1  0
  4  5  1  0
  5  6  2  0
  6  7  1  0
  7  8  1  0
  8  9  2  0
  8 10  1  0
 10 11  1  0
 11 12  2  0
 12 13  1  0
 13 14  2  0
 14 15  1  0
 15 16  2  0
  7 17  2  0
 17 18  1  0
 18 19  2  0
 19 20  1  0
 20 21  2  0
 20 22  1  0
 22 23  1  0
 19  5  1  0
 16 11  1  0
 23 18  1  0
  1 24  1  0
  1 25  1  0
  1 26  1  0
  3 27  1  0
  3 28  1  0
  3 29  1  0
  4 30  1  0
  4 31  1  0
  6 32  1  0
 12 33  1  0
 13 34  1  0
 14 35  1  0
 15 36  1  0
 16 37  1  0
 17 38  1  0
 22 39  1  0
 23 40  1  0
 23 41  1  0
M  CHG  1  10  -1
M  END
>  <UniqueID>  (3) 
3

>  <SMILES>  (3) 
CN(C)Cc1cc(C(=O)[N-]c2ccccc2)cc2c1C(=O)NC2

>  <Energy>  (3) 
70.22192894548697

>  <Genealogy>  (3) 
CN(C)Cc1cc(C(=O)[N-]c2ccccc2)cc2c1C(=O)NC2 (protonated)
CN(C)Cc1cc(C(=O)[N-]c2ccccc2)cc2c1C(=O)NC2 (3D coordinates assigned)
CN(C)Cc1cc(C(=O)[N-]c2ccccc2)cc2c1C(=O)NC2 (nonaromatic ring conformer: 70.22192894548697 kcal/mol)

>  <smiles>  (3) 
CN(C)Cc1cc(C(=O)Nc2ccccc2)cc2c1C(=O)NC2

>  <score_type>  (3) 
oracle

>  <origin>  (3) 
adg

>  <m_score__min__energy>  (3) 
-8.9900000000000002

>  <m_primary>  (3) 
energy

$$$$
3:0
     RDKit          3D

 48 51  0  0  0  0  0  0  0  0999 V2000
   64.7600   33.1310   50.0300 C   0  0  0  0  0  0  0  0  0  0  0  0
   64.4120   32.1030   49.0680 N   0  0  0  0  0  0  0  0  0  0  0  0
   62.9580   32.5880   48.2830 S   0  0  0  0  0  0  0  0  0  0  0  0
   62.9320   34.0910   48.2780 O   0  0  0  0  0  0  0  0  0  0  0  0
   63.0110   32.0230   46.8820 O   0  0  0  0  0  0  0  0  0  0  0  0
   61.5850   31.9570   49.0930 O   0  0  0  0  0  0  0  0  0  0  0  0
   60.8220   31.0210   48.3830 C   0  0  0  0  0  0  0  0  0  0  0  0
   61.1380   29.6970   48.5980 C   0  0  0  0  0  0  0  0  0  0  0  0
   60.4210   28.7280   47.9270 C   0  0  0  0  0  0  0  0  0  0  0  0
   59.4130   29.1060   47.0640 C   0  0  0  0  0  0  0  0  0  0  0  0
   58.6050   28.3420   46.3080 N   0  0  0  0  0  0  0  0  0  0  0  0
   57.8060   29.1750   45.6430 C   0  0  0  0  0  0  0  0  0  0  0  0
   56.8360   28.8930   44.7560 N   0  0  0  0  0  0  0  0  0  0  0  0
   56.1830   29.9360   44.2180 C   0  0  0  0  0  0  0  0  0  0  0  0
   55.2390   29.7050   43.3550 N   0  0  0  0  0  0  0  0  0  0  0  0
   56.4390   31.2190   44.5120 N   0  0  0  0  0  0  0  0  0  0  0  0
   57.4030   31.5270   45.3960 C   0  0  0  0  0  0  0  0  0  0  0  0
   57.5810   32.8980   45.6960 N   0  0  0  0  0  0  0  0  0  0  0  0
   57.5580   33.9520   44.6910 C   0  0  0  0  0  0  0  0  0  0  0  0
   58.9210   34.6240   44.6740 C   0  0  0  0  0  0  0  0  0  0  0  0
   59.5840   34.6200   45.9360 N   0  0  0  0  0  0  0  0  0  0  0  0
   60.7170   33.7250   46.0200 C   0  0  0  0  0  0  0  0  0  0  0  0
   58.7220   34.5510   47.0910 C   0  0  0  0  0  0  0  0  0  0  0  0
   57.8150   33.3450   47.0640 C   0  0  0  0  0  0  0  0  0  0  0  0
   58.0920   30.4910   45.9650 C   0  0  0  0  0  0  0  0  0  0  0  0
   59.1210   30.4410   46.8720 C   0  0  0  0  0  0  0  0  0  0  0  0
   59.8160   31.4290   47.5240 C   0  0  0  0  0  0  0  0  0  0  0  0
   64.6274   32.7393   51.0493 H   0  0  0  0  0  0  0  0  0  0  0  0
   65.8090   33.4287   49.8852 H   0  0  0  0  0  0  0  0  0  0  0  0
   64.1076   34.0047   49.8852 H   0  0  0  0  0  0  0  0  0  0  0  0
   65.1970   31.9860   48.3720 H   0  0  0  0  0  0  0  0  0  0  0  0
   61.9457   29.4184   49.2908 H   0  0  0  0  0  0  0  0  0  0  0  0
   60.6510   27.6631   48.0787 H   0  0  0  0  0  0  0  0  0  0  0  0
   58.5990   27.3030   46.2510 H   0  0  0  0  0  0  0  0  0  0  0  0
   56.5860   27.9320   44.4830 H   0  0  0  0  0  0  0  0  0  0  0  0
   55.5170   29.3660   42.3940 H   0  0  0  0  0  0  0  0  0  0  0  0
   57.3443   33.5191   43.7026 H   0  0  0  0  0  0  0  0  0  0  0  0
   56.7756   34.6872   44.9303 H   0  0  0  0  0  0  0  0  0  0  0  0
   59.5573   34.0979   43.9471 H   0  0  0  0  0  0  0  0  0  0  0  0
   58.7537   35.6774   44.4051 H   0  0  0  0  0  0  0  0  0  0  0  0
   60.9570   33.5354   47.0766 H   0  0  0  0  0  0  0  0  0  0  0  0
   60.4711   32.7746   45.5236 H   0  0  0  0  0  0  0  0  0  0  0  0
   61.5846   34.1842   45.5236 H   0  0  0  0  0  0  0  0  0  0  0  0
   59.3468   34.5024   47.9951 H   0  0  0  0  0  0  0  0  0  0  0  0
   58.0855   35.4481   47.0871 H   0  0  0  0  0  0  0  0  0  0  0  0
   58.2840   32.5293   47.6338 H   0  0  0  0  0  0  0  0  0  0  0  0
   56.8495   33.6224   47.5122 H   0  0  0  0  0  0  0  0  0  0  0  0
   59.5847   32.4935   47.3713 H   0  0  0  0  0  0  0  0  0  0  0  0
  1  2  1  0
  2  3  1  0
  3  4  2  0
  3  5  2  0
  3  6  1  0
  6  7  1  0
  7  8  2  0
  8  9  1  0
  9 10  2  0
 10 11  1  0
 11 12  1  0
 12 13  1  0
 13 14  1  0
 14 15  2  3
 14 16  1  0
 16 17  2  0
 17 18  1  0
 18 19  1  0
 19 20  1  0
 20 21  1  0
 21 22  1  0
 21 23  1  0
 23 24  1  0
 17 25  1  0
 25 26  1  0
 26 27  2  0
 27  7  1  0
 26 10  1  0
 25 12  2  0
 24 18  1  0
  1 28  1  0
  1 29  1  0
  1 30  1  0
  2 31  1  0
  8 32  1  0
  9 33  1  0
 11 34  1  0
 13 35  1  0
 15 36  1  0
 19 37  1  0
 19 38  1  0
 20 39  1  0
 20 40  1  0
 22 41  1  0
 22 42  1  0
 22 43  1  0
 23 44  1  0
 23 45  1  0
 24 46  1  0
 24 47  1  0
 27 48  1  0
M  END
>  <smiles>  (4) 
CNS(=O)(=O)Oc1ccc2[nH]c3[nH]c(=N)nc(N4CCN(C)CC4)c3c2c1

>  <score_type>  (4) 
oracle

>  <origin>  (4) 
adg

>  <m_score__min__energy>  (4) 
-8.5500000000000007

>  <m_primary>  (4) 
energy

$$$$
4:0
     RDKit          3D

 41 43  0  0  0  0  0  0  0  0999 V2000
   59.3810   30.1200   48.6540 C   0  0  0  0  0  0  0  0  0  0  0  0
   60.4500   31.0630   48.2000 C   0  0  0  0  0  0  0  0  0  0  0  0
   61.6940   31.0800   48.7180 N   0  0  0  0  0  0  0  0  0  0  0  0
   62.3850   32.0490   48.1400 N   0  0  0  0  0  0  0  0  0  0  0  0
   63.7750   32.3600   48.4620 C   0  0  0  0  0  0  0  0  0  0  0  0
   61.6060   32.6620   47.2210 C   0  0  0  0  0  0  0  0  0  0  0  0
   62.0300   33.8240   46.3720 C   0  0  0  0  0  0  0  0  0  0  0  0
   60.3500   32.0600   47.2320 C   0  0  0  0  0  0  0  0  0  0  0  0
   59.1720   32.4450   46.4260 C   0  0  0  0  0  0  0  0  0  0  0  0
   58.8150   33.7650   46.1460 C   0  0  0  0  0  0  0  0  0  0  0  0
   57.4140   33.7410   45.2140 S   0  0  0  0  0  0  0  0  0  0  0  0
   57.3160   32.0680   45.2190 C   0  0  0  0  0  0  0  0  0  0  0  0
   56.2980   31.3310   44.5300 N   0  0  0  0  0  0  0  0  0  0  0  0
   56.1940   29.9050   44.4150 C   0  0  0  0  0  0  0  0  0  0  0  0
   55.1670   29.3410   44.8820 O   0  0  0  0  0  0  0  0  0  0  0  0
   57.2640   29.0810   43.7440 C   0  0  0  0  0  0  0  0  0  0  0  0
   58.3120   28.5970   44.7140 C   0  0  0  0  0  0  0  0  0  0  0  0
   57.9530   27.7540   45.7800 C   0  0  0  0  0  0  0  0  0  0  0  0
   58.9290   27.2830   46.6640 C   0  0  0  0  0  0  0  0  0  0  0  0
   60.2670   27.6410   46.4850 C   0  0  0  0  0  0  0  0  0  0  0  0
   60.6340   28.4690   45.4200 C   0  0  0  0  0  0  0  0  0  0  0  0
   59.6620   28.9420   44.5330 C   0  0  0  0  0  0  0  0  0  0  0  0
   58.3330   31.5080   45.9060 N   0  0  0  0  0  0  0  0  0  0  0  0
   59.3550   30.0971   49.7535 H   0  0  0  0  0  0  0  0  0  0  0  0
   58.4068   30.4583   48.2712 H   0  0  0  0  0  0  0  0  0  0  0  0
   59.5951   29.1112   48.2712 H   0  0  0  0  0  0  0  0  0  0  0  0
   62.0600   30.4470   49.4660 H   0  0  0  0  0  0  0  0  0  0  0  0
   63.9008   32.3882   49.5544 H   0  0  0  0  0  0  0  0  0  0  0  0
   64.4317   31.5866   48.0371 H   0  0  0  0  0  0  0  0  0  0  0  0
   64.0395   33.3395   48.0371 H   0  0  0  0  0  0  0  0  0  0  0  0
   62.3348   34.6593   47.0196 H   0  0  0  0  0  0  0  0  0  0  0  0
   62.8768   33.5245   45.7370 H   0  0  0  0  0  0  0  0  0  0  0  0
   61.1893   34.1402   45.7370 H   0  0  0  0  0  0  0  0  0  0  0  0
   59.3553   34.6642   46.4769 H   0  0  0  0  0  0  0  0  0  0  0  0
   56.7918   28.2079   43.2699 H   0  0  0  0  0  0  0  0  0  0  0  0
   57.7643   29.7217   43.0029 H   0  0  0  0  0  0  0  0  0  0  0  0
   56.9011   27.4639   45.9193 H   0  0  0  0  0  0  0  0  0  0  0  0
   58.6425   26.6297   47.5013 H   0  0  0  0  0  0  0  0  0  0  0  0
   61.0328   27.2711   47.1826 H   0  0  0  0  0  0  0  0  0  0  0  0
   61.6885   28.7487   45.2796 H   0  0  0  0  0  0  0  0  0  0  0  0
   59.9551   29.5862   43.6909 H   0  0  0  0  0  0  0  0  0  0  0  0
  1  2  1  0
  2  3  2  0
  3  4  1  0
  4  5  1  0
  4  6  1  0
  6  7  1  0
  6  8  2  0
  8  9  1  0
  9 10  2  0
 10 11  1  0
 11 12  1  0
 12 13  1  0
 13 14  1  0
 14 15  2  0
 14 16  1  0
 16 17  1  0
 17 18  2  0
 18 19  1  0
 19 20  2  0
 20 21  1  0
 21 22  2  0
 12 23  2  0
  8  2  1  0
 23  9  1  0
 22 17  1  0
  1 24  1  0
  1 25  1  0
  1 26  1  0
  3 27  1  0
  5 28  1  0
  5 29  1  0
  5 30  1  0
  7 31  1  0
  7 32  1  0
  7 33  1  0
 10 34  1  0
 16 35  1  0
 16 36  1  0
 18 37  1  0
 19 38  1  0
 20 39  1  0
 21 40  1  0
 22 41  1  0
M  CHG  2   3   1  13  -1
M  END
>  <UniqueID>  (5) 
4

>  <SMILES>  (5) 
Cc1[nH+]n(C)c(C)c1-c1csc([N-]C(=O)Cc2ccccc2)n1

>  <Energy>  (5) 
104.631948400094

>  <Genealogy>  (5) 
Cc1[nH+]n(C)c(C)c1-c1csc([N-]C(=O)Cc2ccccc2)n1 (protonated)
Cc1[nH+]n(C)c(C)c1-c1csc([N-]C(=O)Cc2ccccc2)n1 (3D coordinates assigned)
Cc1[nH+]n(C)c(C)c1-c1csc([N-]C(=O)Cc2ccccc2)n1 (optimized conformer: 104.631948400094 kcal/mol)

>  <smiles>  (5) 
Cc1nn(C)c(C)c1-c1csc(NC(=O)Cc2ccccc2)n1

>  <score_type>  (5) 
oracle

>  <origin>  (5) 
adg

>  <m_score__min__energy>  (5) 
-8.5700000000000003

>  <m_primary>  (5) 
energy

$$$$
5:0
     RDKit          3D

 34 38  0  0  0  0  0  0  0  0999 V2000
   61.9510   30.4680   48.9990 N   0  0  0  0  0  0  0  0  0  0  0  0
   61.1770   30.8410   48.2240 C   0  0  0  0  0  0  0  0  0  0  0  0
   60.2120   31.3070   47.2570 C   0  0  0  0  0  0  0  0  0  0  0  0
   59.2030   30.4640   46.7440 C   0  0  0  0  0  0  0  0  0  0  0  0
   59.1210   29.1740   47.1740 N   0  0  0  0  0  0  0  0  0  0  0  0
   58.1400   28.3710   46.7050 C   0  0  0  0  0  0  0  0  0  0  0  0
   57.8910   26.7630   47.1310 S   0  0  0  0  0  0  0  0  0  0  0  0
   56.5330   26.7120   46.1180 C   0  0  0  0  0  0  0  0  0  0  0  0
   55.8190   25.6410   45.9340 N   0  0  0  0  0  0  0  0  0  0  0  0
   56.2180   24.4580   45.2210 C   0  0  0  0  0  0  0  0  0  0  0  0
   57.3520   23.7070   45.5880 C   0  0  0  0  0  0  0  0  0  0  0  0
   57.7210   22.5810   44.8460 C   0  0  0  0  0  0  0  0  0  0  0  0
   56.9760   22.2060   43.7240 C   0  0  0  0  0  0  0  0  0  0  0  0
   55.8690   22.9640   43.3370 C   0  0  0  0  0  0  0  0  0  0  0  0
   55.4980   24.0910   44.0770 C   0  0  0  0  0  0  0  0  0  0  0  0
   56.3170   27.8930   45.4870 N   0  0  0  0  0  0  0  0  0  0  0  0
   57.2190   28.8110   45.8260 N   0  0  0  0  0  0  0  0  0  0  0  0
   57.2310   30.0850   45.3530 C   0  0  0  0  0  0  0  0  0  0  0  0
   56.3200   30.4660   44.5680 O   0  0  0  0  0  0  0  0  0  0  0  0
   58.2600   30.9630   45.7800 C   0  0  0  0  0  0  0  0  0  0  0  0
   58.3860   32.3120   45.3370 C   0  0  0  0  0  0  0  0  0  0  0  0
   57.5550   32.8720   44.3110 N   0  0  0  0  0  0  0  0  0  0  0  0
   57.0230   33.9870   44.4840 O   0  0  0  0  0  0  0  0  0  0  0  0
   57.5890   32.3380   43.0440 O   0  0  0  0  0  0  0  0  0  0  0  0
   59.3700   33.0650   45.8950 N   0  0  0  0  0  0  0  0  0  0  0  0
   59.6850   34.3210   45.6420 N   0  0  0  0  0  0  0  0  0  0  0  0
   60.7370   34.6350   46.3930 N   0  0  0  0  0  0  0  0  0  0  0  0
   61.1140   33.5900   47.1270 N   0  0  0  0  0  0  0  0  0  0  0  0
   60.2440   32.6200   46.7960 C   0  0  0  0  0  0  0  0  0  0  0  0
   57.9492   24.0076   46.4615 H   0  0  0  0  0  0  0  0  0  0  0  0
   58.5987   21.9893   45.1454 H   0  0  0  0  0  0  0  0  0  0  0  0
   57.2617   21.3145   43.1465 H   0  0  0  0  0  0  0  0  0  0  0  0
   55.2881   22.6742   42.4490 H   0  0  0  0  0  0  0  0  0  0  0  0
   54.6346   24.6936   43.7584 H   0  0  0  0  0  0  0  0  0  0  0  0
  1  2  3  0
  2  3  1  0
  3  4  2  0
  4  5  1  0
  5  6  2  0
  6  7  1  0
  7  8  1  0
  8  9  2  3
  9 10  1  0
 10 11  2  0
 11 12  1  0
 12 13  2  0
 13 14  1  0
 14 15  2  0
  8 16  1  0
 16 17  1  0
 17 18  1  0
 18 19  2  0
 18 20  1  0
 20 21  2  0
 21 22  1  0
 22 23  2  0
 22 24  1  0
 21 25  1  0
 25 26  1  0
 26 27  2  0
 27 28  1  0
 28 29  2  0
 29  3  1  0
 20  4  1  0
 29 25  1  0
 17  6  1  0
 15 10  1  0
 11 30  1  0
 12 31  1  0
 13 32  1  0
 14 33  1  0
 15 34  1  0
M  CHG  3  16  -1  22   1  24  -1
M  END
>  <UniqueID>  (6) 
5

>  <SMILES>  (6) 
N#Cc1c2nc3sc(=Nc4ccccc4)[n-]n3c(=O)c2c([N+](=O)[O-])n2nnnc12

>  <Energy>  (6) 
143.9259645800905

>  <Genealogy>  (6) 
N#Cc1c2nc3sc(=Nc4ccccc4)[n-]n3c(=O)c2c([N+](=O)[O-])n2nnnc12 (protonated)
N#Cc1c2nc3sc(=Nc4ccccc4)[n-]n3c(=O)c2c([N+](=O)[O-])n2nnnc12 (3D coordinates assigned)
N#Cc1c2nc3sc(=Nc4ccccc4)[n-]n3c(=O)c2c([N+](=O)[O-])n2nnnc12 (optimized conformer: 143.9259645800905 kcal/mol)

>  <smiles>  (6) 
N#Cc1c2nc3sc(=Nc4ccccc4)[nH]n3c(=O)c2c([N+](=O)[O-])n2nnnc12

>  <score_type>  (6) 
oracle

>  <origin>  (6) 
adg

>  <m_score__min__energy>  (6) 
-10.19

>  <m_primary>  (6) 
energy

$$$$
6:0
     RDKit          3D

 50 54  0  0  0  0  0  0  0  0999 V2000
   57.6613   31.9564   41.4534 H   0  0  0  0  0  0  0  0  0  0  0  0
   57.5950   31.8290   42.5440 C   0  0  0  0  0  0  0  0  0  0  0  0
   57.0120   30.7170   43.0630 N   0  0  0  0  0  0  0  0  0  0  0  0
   56.9110   30.5440   44.4060 C   0  0  0  0  0  0  0  0  0  0  0  0
   56.3610   29.4610   44.8710 N   0  0  0  0  0  0  0  0  0  0  0  0
   57.0330   28.2100   45.0950 C   0  0  0  0  0  0  0  0  0  0  0  0
   57.7510   27.5710   44.0690 C   0  0  0  0  0  0  0  0  0  0  0  0
   57.7752   28.0109   43.0611 H   0  0  0  0  0  0  0  0  0  0  0  0
   58.4340   26.3790   44.3250 C   0  0  0  0  0  0  0  0  0  0  0  0
   58.9711   25.8719   43.5099 H   0  0  0  0  0  0  0  0  0  0  0  0
   58.4400   25.8230   45.6160 C   0  0  0  0  0  0  0  0  0  0  0  0
   59.2040   24.5430   45.8950 C   0  0  0  0  0  0  0  0  0  0  0  0
   60.1268   24.5526   45.2964 H   0  0  0  0  0  0  0  0  0  0  0  0
   59.4034   24.5186   46.9765 H   0  0  0  0  0  0  0  0  0  0  0  0
   58.4480   23.3110   45.5680 N   0  0  0  0  0  0  0  0  0  0  0  0
   56.9780   23.4860   45.4700 C   0  0  0  0  0  0  0  0  0  0  0  0
   56.4870   22.6775   46.0315 H   0  0  0  0  0  0  0  0  0  0  0  0
   56.7274   24.4729   45.8863 H   0  0  0  0  0  0  0  0  0  0  0  0
   56.4840   23.4490   44.0170 C   0  0  0  0  0  0  0  0  0  0  0  0
   55.3898   23.5617   44.0086 H   0  0  0  0  0  0  0  0  0  0  0  0
   56.9668   24.2706   43.4675 H   0  0  0  0  0  0  0  0  0  0  0  0
   56.8560   22.1220   43.3270 C   0  0  0  0  0  0  0  0  0  0  0  0
   56.0051   21.4304   43.4143 H   0  0  0  0  0  0  0  0  0  0  0  0
   57.0916   22.3505   42.2771 H   0  0  0  0  0  0  0  0  0  0  0  0
   58.0970   21.4540   43.9440 C   0  0  0  0  0  0  0  0  0  0  0  0
   57.7809   20.7968   44.7675 H   0  0  0  0  0  0  0  0  0  0  0  0
   58.6083   20.8712   43.1636 H   0  0  0  0  0  0  0  0  0  0  0  0
   59.0680   22.5060   44.4860 C   0  0  0  0  0  0  0  0  0  0  0  0
   59.9594   21.9987   44.8836 H   0  0  0  0  0  0  0  0  0  0  0  0
   59.3382   23.1836   43.6627 H   0  0  0  0  0  0  0  0  0  0  0  0
   57.7090   26.4580   46.6340 C   0  0  0  0  0  0  0  0  0  0  0  0
   57.6679   26.0103   47.6380 H   0  0  0  0  0  0  0  0  0  0  0  0
   57.0330   27.6560   46.3790 C   0  0  0  0  0  0  0  0  0  0  0  0
   56.4979   28.1656   47.1939 H   0  0  0  0  0  0  0  0  0  0  0  0
   57.4220   31.4860   45.2450 N   0  0  0  0  0  0  0  0  0  0  0  0
   58.0200   32.6130   44.7770 C   0  0  0  0  0  0  0  0  0  0  0  0
   58.5670   33.5940   45.7350 C   0  0  0  0  0  0  0  0  0  0  0  0
   58.9330   34.9240   45.4940 C   0  0  0  0  0  0  0  0  0  0  0  0
   58.8477   35.4403   44.5265 H   0  0  0  0  0  0  0  0  0  0  0  0
   59.4100   35.4790   46.6400 N   0  0  0  0  0  0  0  0  0  0  0  0
   59.7770   36.4440   46.7870 H   0  0  0  0  0  0  0  0  0  0  0  0
   59.3160   34.4790   47.5290 C   0  0  0  0  0  0  0  0  0  0  0  0
   59.7590   34.3480   49.1380 S   0  0  0  0  0  0  0  0  0  0  0  0
   59.2630   32.7050   49.1720 C   0  0  0  0  0  0  0  0  0  0  0  0
   59.3167   32.0450   50.0504 H   0  0  0  0  0  0  0  0  0  0  0  0
   58.7790   32.3320   47.9100 C   0  0  0  0  0  0  0  0  0  0  0  0
   58.4056   31.3271   47.6635 H   0  0  0  0  0  0  0  0  0  0  0  0
   58.8280   33.3600   47.0340 N   0  0  0  0  0  0  0  0  0  0  0  0
   58.1100   32.8100   43.3930 C   0  0  0  0  0  0  0  0  0  0  0  0
   58.5765   33.7183   42.9840 H   0  0  0  0  0  0  0  0  0  0  0  0
  1  2  1  0
  2  3  1  0
  3  4  1  0
  4  5  2  0
  5  6  1  0
  6  7  2  0
  7  8  1  0
  7  9  1  0
  9 10  1  0
  9 11  2  0
 11 12  1  0
 12 13  1  0
 12 14  1  0
 12 15  1  0
 15 16  1  0
 16 17  1  0
 16 18  1  0
 16 19  1  0
 19 20  1  0
 19 21  1  0
 19 22  1  0
 22 23  1  0
 22 24  1  0
 22 25  1  0
 25 26  1  0
 25 27  1  0
 25 28  1  0
 28 29  1  0
 28 30  1  0
 11 31  1  0
 31 32  1  0
 31 33  2  0
 33 34  1  0
  4 35  1  0
 35 36  2  0
 36 37  1  0
 37 38  2  0
 38 39  1  0
 38 40  1  0
 40 41  1  0
 40 42  2  0
 42 43  1  0
 43 44  1  0
 44 45  1  0
 44 46  2  0
 46 47  1  0
 46 48  1  0
 36 49  1  0
 49 50  1  0
 49  2  2  0
 33  6  1  0
 48 37  1  0
 28 15  1  0
 48 42  1  0
M  CHG  2   3  -1  40   1
M  END
>  <UniqueID>  (7) 
6

>  <SMILES>  (7) 
c1cc(-c2c[nH+]c3sccn23)n/c(=N\c2ccc(CN3CCCCC3)cc2)[n-]1

>  <Energy>  (7) 
152.46907323263633

>  <Genealogy>  (7) 
c1cc(-c2c[nH+]c3sccn23)nc(=Nc2ccc(CN3CCCCC3)cc2)[n-]1 (protonated)
c1cc(-c2c[nH+]c3sccn23)n/c(=N\c2ccc(CN3CCCCC3)cc2)[n-]1 (cis-trans isomerization)
c1cc(-c2c[nH+]c3sccn23)n/c(=N\c2ccc(CN3CCCCC3)cc2)[n-]1 (3D coordinates assigned)
c1cc(-c2c[nH+]c3sccn23)n/c(=N\c2ccc(CN3CCCCC3)cc2)[n-]1 (nonaromatic ring conformer: 152.46907323263633 kcal/mol)

>  <smiles>  (7) 
c1cc(-c2cnc3sccn23)nc(=Nc2ccc(CN3CCCCC3)cc2)[nH]1

>  <score_type>  (7) 
oracle

>  <origin>  (7) 
adg

>  <m_score__min__energy>  (7) 
-9.1099999999999994

>  <m_primary>  (7) 
energy

$$$$
7:0
     RDKit          3D

 31 32  0  0  0  0  0  0  0  0999 V2000
   59.4656   35.2367   45.5738 H   0  0  0  0  0  0  0  0  0  0  0  0
   58.9680   34.2620   45.4630 C   0  0  0  0  0  0  0  0  0  0  0  0
   58.6110   33.5290   46.5950 C   0  0  0  0  0  0  0  0  0  0  0  0
   58.8187   33.9310   47.5976 H   0  0  0  0  0  0  0  0  0  0  0  0
   57.9900   32.2850   46.4570 C   0  0  0  0  0  0  0  0  0  0  0  0
   57.7010   31.7164   47.3532 H   0  0  0  0  0  0  0  0  0  0  0  0
   57.7320   31.7550   45.1810 C   0  0  0  0  0  0  0  0  0  0  0  0
   57.1070   30.4170   45.0810 C   0  0  0  0  0  0  0  0  0  0  0  0
   55.9740   30.3140   44.5400 O   0  0  0  0  0  0  0  0  0  0  0  0
   57.7590   29.2220   45.5440 N   0  0  0  0  0  0  0  0  0  0  0  0
   57.2070   28.0630   45.7670 C   0  0  0  0  0  0  0  0  0  0  0  0
   57.8210   26.9090   46.2200 C   0  0  0  0  0  0  0  0  0  0  0  0
   58.8817   26.7534   46.4666 H   0  0  0  0  0  0  0  0  0  0  0  0
   56.7810   25.9960   46.2890 C   0  0  0  0  0  0  0  0  0  0  0  0
   56.8880   24.5580   46.7200 C   0  0  0  0  0  0  0  0  0  0  0  0
   57.1472   24.5338   47.7887 H   0  0  0  0  0  0  0  0  0  0  0  0
   55.5470   23.8400   46.5420 C   0  0  0  0  0  0  0  0  0  0  0  0
   55.1197   23.6112   47.5294 H   0  0  0  0  0  0  0  0  0  0  0  0
   54.8551   24.4883   45.9844 H   0  0  0  0  0  0  0  0  0  0  0  0
   55.7030   22.9048   45.9844 H   0  0  0  0  0  0  0  0  0  0  0  0
   58.0010   23.8440   45.9470 C   0  0  0  0  0  0  0  0  0  0  0  0
   58.7080   23.3905   46.6573 H   0  0  0  0  0  0  0  0  0  0  0  0
   57.5622   23.0584   45.3143 H   0  0  0  0  0  0  0  0  0  0  0  0
   58.5321   24.5703   45.3143 H   0  0  0  0  0  0  0  0  0  0  0  0
   55.6250   26.5800   45.9130 N   0  0  0  0  0  0  0  0  0  0  0  0
   55.8930   27.8380   45.6020 N   0  0  0  0  0  0  0  0  0  0  0  0
   55.1800   28.5280   45.2770 H   0  0  0  0  0  0  0  0  0  0  0  0
   58.0720   32.5140   44.0370 C   0  0  0  0  0  0  0  0  0  0  0  0
   57.6400   31.9450   42.2560 Br  0  0  0  0  0  0  0  0  0  0  0  0
   58.6940   33.7590   44.1890 C   0  0  0  0  0  0  0  0  0  0  0  0
   58.9687   34.3449   43.2994 H   0  0  0  0  0  0  0  0  0  0  0  0
  1  2  1  0
  2  3  2  0
  3  4  1  0
  3  5  1  0
  5  6  1  0
  5  7  2  0
  7  8  1  0
  8  9  2  0
  8 10  1  0
 10 11  2  0
 11 12  1  0
 12 13  1  0
 12 14  2  0
 14 15  1  0
 15 16  1  0
 15 17  1  0
 17 18  1  0
 17 19  1  0
 17 20  1  0
 15 21  1  0
 21 22  1  0
 21 23  1  0
 21 24  1  0
 14 25  1  0
 25 26  1  0
 26 27  1  0
  7 28  1  0
 28 29  1  0
 28 30  2  0
 30 31  1  0
 30  2  1  0
 26 11  1  0
M  CHG  1  25  -1
M  END
>  <UniqueID>  (8) 
7

>  <SMILES>  (8) 
CC(C)c1c/c(=N\C(=O)c2ccccc2Br)[nH][n-]1

>  <Energy>  (8) 
67.67805042869611

>  <Genealogy>  (8) 
CC(C)c1cc(=NC(=O)c2ccccc2Br)[nH][n-]1 (protonated)
CC(C)c1c/c(=N\C(=O)c2ccccc2Br)[nH][n-]1 (cis-trans isomerization)
CC(C)c1c/c(=N\C(=O)c2ccccc2Br)[nH][n-]1 (3D coordinates assigned)
CC(C)c1c/c(=N\C(=O)c2ccccc2Br)[nH][n-]1 (optimized conformer: 67.67805042869611 kcal/mol)

>  <smiles>  (8) 
CC(C)c1cc(=NC(=O)c2ccccc2Br)[nH][nH]1

>  <score_type>  (8) 
oracle

>  <origin>  (8) 
adg

>  <m_score__min__energy>  (8) 
-10.1

>  <m_primary>  (8) 
energy

$$$$
8:0
     RDKit          3D

 45 47  0  0  0  0  0  0  0  0999 V2000
   54.9390   20.8970   46.2680 C   0  0  0  0  0  0  0  0  0  0  0  0
   54.5870   21.9240   45.3470 O   0  0  0  0  0  0  0  0  0  0  0  0
   55.3950   23.0320   45.0440 C   0  0  0  0  0  0  0  0  0  0  0  0
   55.4690   24.1560   45.8880 C   0  0  0  0  0  0  0  0  0  0  0  0
   56.2950   25.2390   45.5590 C   0  0  0  0  0  0  0  0  0  0  0  0
   57.0440   25.2150   44.3720 C   0  0  0  0  0  0  0  0  0  0  0  0
   56.9580   24.1030   43.5230 C   0  0  0  0  0  0  0  0  0  0  0  0
   56.1430   23.0050   43.8570 C   0  0  0  0  0  0  0  0  0  0  0  0
   56.0450   21.8710   43.0340 O   0  0  0  0  0  0  0  0  0  0  0  0
   57.0010   20.8160   42.9970 C   0  0  0  0  0  0  0  0  0  0  0  0
   57.8780   26.4060   43.9640 C   0  0  0  0  0  0  0  0  0  0  0  0
   58.2620   27.2670   45.0990 N   0  0  0  0  0  0  0  0  0  0  0  0
   59.1610   28.3680   44.8460 C   0  0  0  0  0  0  0  0  0  0  0  0
   60.2560   28.1570   44.2560 O   0  0  0  0  0  0  0  0  0  0  0  0
   58.8230   29.7530   45.2360 C   0  0  0  0  0  0  0  0  0  0  0  0
   59.7660   30.4850   45.9710 C   0  0  0  0  0  0  0  0  0  0  0  0
   59.5360   31.8220   46.2950 C   0  0  0  0  0  0  0  0  0  0  0  0
   58.3530   32.4590   45.8940 C   0  0  0  0  0  0  0  0  0  0  0  0
   58.1250   33.8430   46.2220 N   0  0  0  0  0  0  0  0  0  0  0  0
   57.5920   34.6130   45.3980 O   0  0  0  0  0  0  0  0  0  0  0  0
   58.4940   34.3390   47.4510 O   0  0  0  0  0  0  0  0  0  0  0  0
   57.3940   31.7240   45.1760 C   0  0  0  0  0  0  0  0  0  0  0  0
   57.6040   30.3700   44.8570 C   0  0  0  0  0  0  0  0  0  0  0  0
   56.5610   29.6310   44.1930 N   0  0  0  0  0  0  0  0  0  0  0  0
   56.6290   29.4110   42.9660 O   0  0  0  0  0  0  0  0  0  0  0  0
   55.4070   29.2950   44.8630 O   0  0  0  0  0  0  0  0  0  0  0  0
   57.7730   27.0080   46.4650 C   0  0  0  0  0  0  0  0  0  0  0  0
   56.3520   26.4500   46.4410 C   0  0  0  0  0  0  0  0  0  0  0  0
   54.8121   21.2672   47.2960 H   0  0  0  0  0  0  0  0  0  0  0  0
   54.2888   20.0240   46.1098 H   0  0  0  0  0  0  0  0  0  0  0  0
   55.9880   20.6064   46.1098 H   0  0  0  0  0  0  0  0  0  0  0  0
   54.8740   24.1844   46.8127 H   0  0  0  0  0  0  0  0  0  0  0  0
   57.5336   24.0882   42.5857 H   0  0  0  0  0  0  0  0  0  0  0  0
   57.2652   20.5244   44.0242 H   0  0  0  0  0  0  0  0  0  0  0  0
   56.5725   19.9513   42.4691 H   0  0  0  0  0  0  0  0  0  0  0  0
   57.9036   21.1575   42.4691 H   0  0  0  0  0  0  0  0  0  0  0  0
   58.7944   26.0402   43.4778 H   0  0  0  0  0  0  0  0  0  0  0  0
   57.2637   27.0164   43.2858 H   0  0  0  0  0  0  0  0  0  0  0  0
   60.6980   29.9994   46.2959 H   0  0  0  0  0  0  0  0  0  0  0  0
   60.2889   32.3813   46.8698 H   0  0  0  0  0  0  0  0  0  0  0  0
   56.4630   32.2160   44.8579 H   0  0  0  0  0  0  0  0  0  0  0  0
   58.4373   26.2795   46.9528 H   0  0  0  0  0  0  0  0  0  0  0  0
   57.7674   27.9571   47.0210 H   0  0  0  0  0  0  0  0  0  0  0  0
   56.0518   26.1721   47.4621 H   0  0  0  0  0  0  0  0  0  0  0  0
   55.6680   27.2169   46.0484 H   0  0  0  0  0  0  0  0  0  0  0  0
  1  2  1  0
  2  3  1  0
  3  4  2  0
  4  5  1  0
  5  6  2  0
  6  7  1  0
  7  8  2  0
  8  9  1  0
  9 10  1  0
  6 11  1  0
 11 12  1  0
 12 13  1  0
 13 14  2  0
 13 15  1  0
 15 16  2  0
 16 17  1  0
 17 18  2  0
 18 19  1  0
 19 20  2  0
 19 21  1  0
 18 22  1  0
 22 23  2  0
 23 24  1  0
 24 25  2  0
 24 26  1  0
 12 27  1  0
 27 28  1  0
  8  3  1  0
 23 15  1  0
 28  5  1  0
  1 29  1  0
  1 30  1  0
  1 31  1  0
  4 32  1  0
  7 33  1  0
 10 34  1  0
 10 35  1  0
 10 36  1  0
 11 37  1  0
 11 38  1  0
 16 39  1  0
 17 40  1  0
 22 41  1  0
 27 42  1  0
 27 43  1  0
 28 44  1  0
 28 45  1  0
M  CHG  4  19   1  21  -1  24   1  26  -1
M  END
>  <UniqueID>  (9) 
8

>  <SMILES>  (9) 
COc1cc2c(cc1OC)CN(C(=O)c1ccc([N+](=O)[O-])cc1[N+](=O)[O-])CC2

>  <Energy>  (9) 
59.479392366044

>  <Genealogy>  (9) 
COc1cc2c(cc1OC)CN(C(=O)c1ccc([N+](=O)[O-])cc1[N+](=O)[O-])CC2 (3D coordinates assigned)
COc1cc2c(cc1OC)CN(C(=O)c1ccc([N+](=O)[O-])cc1[N+](=O)[O-])CC2 (nonaromatic ring conformer: 59.479392366044 kcal/mol)

>  <smiles>  (9) 
COc1cc2c(cc1OC)CN(C(=O)c1ccc([N+](=O)[O-])cc1[N+](=O)[O-])CC2

>  <score_type>  (9) 
oracle

>  <origin>  (9) 
adg

>  <m_score__min__energy>  (9) 
-8.4800000000000004

>  <m_primary>  (9) 
energy

$$$$
9:0
     RDKit          3D

 23 24  0  0  0  0  0  0  0  0999 V2000
   56.2850   29.6870   42.2770 O   0  0  0  0  0  0  0  0  0  0  0  0
   56.7690   29.9020   43.6830 S   0  0  0  0  0  0  0  0  0  0  0  0
   55.6490   30.4700   44.5080 O   0  0  0  0  0  0  0  0  0  0  0  0
   58.0990   31.0170   43.6700 N   0  0  0  0  0  0  0  0  0  0  0  0
   58.2370   32.0930   44.6180 C   0  0  0  0  0  0  0  0  0  0  0  0
   57.7840   33.3900   44.3080 C   0  0  0  0  0  0  0  0  0  0  0  0
   57.9220   34.4310   45.2280 C   0  0  0  0  0  0  0  0  0  0  0  0
   58.5190   34.1960   46.4670 C   0  0  0  0  0  0  0  0  0  0  0  0
   58.9800   32.9180   46.7870 C   0  0  0  0  0  0  0  0  0  0  0  0
   58.8460   31.8670   45.8720 C   0  0  0  0  0  0  0  0  0  0  0  0
   59.4230   30.2730   46.3480 Cl  0  0  0  0  0  0  0  0  0  0  0  0
   57.2870   28.3610   44.3410 C   0  0  0  0  0  0  0  0  0  0  0  0
   57.0240   27.8980   45.6210 C   0  0  0  0  0  0  0  0  0  0  0  0
   57.5160   26.6580   45.8840 N   0  0  0  0  0  0  0  0  0  0  0  0
   58.1680   26.1320   44.8220 C   0  0  0  0  0  0  0  0  0  0  0  0
   58.1560   27.1890   43.5120 S   0  0  0  0  0  0  0  0  0  0  0  0
   58.8650   30.8170   42.9910 H   0  0  0  0  0  0  0  0  0  0  0  0
   57.3168   33.5847   43.3314 H   0  0  0  0  0  0  0  0  0  0  0  0
   57.5594   35.4384   44.9756 H   0  0  0  0  0  0  0  0  0  0  0  0
   58.6263   35.0172   47.1910 H   0  0  0  0  0  0  0  0  0  0  0  0
   59.4514   32.7356   47.7640 H   0  0  0  0  0  0  0  0  0  0  0  0
   56.4633   28.4855   46.3629 H   0  0  0  0  0  0  0  0  0  0  0  0
   58.6449   25.1408   44.8153 H   0  0  0  0  0  0  0  0  0  0  0  0
  1  2  2  0
  2  3  2  0
  2  4  1  0
  4  5  1  0
  5  6  2  0
  6  7  1  0
  7  8  2  0
  8  9  1  0
  9 10  2  0
 10 11  1  0
  2 12  1  0
 12 13  2  0
 13 14  1  0
 14 15  2  0
 15 16  1  0
 10  5  1  0
 16 12  1  0
  4 17  1  0
  6 18  1  0
  7 19  1  0
  8 20  1  0
  9 21  1  0
 13 22  1  0
 15 23  1  0
M  END
>  <UniqueID>  (10) 
9

>  <SMILES>  (10) 
O=S(=O)(Nc1ccccc1Cl)c1cncs1

>  <Energy>  (10) 
57.79660010015957

>  <Genealogy>  (10) 
O=S(=O)(Nc1ccccc1Cl)c1cncs1 (3D coordinates assigned)
O=S(=O)(Nc1ccccc1Cl)c1cncs1 (optimized conformer: 57.79660010015957 kcal/mol)

>  <smiles>  (10) 
O=S(=O)(Nc1ccccc1Cl)c1cncs1

>  <score_type>  (10) 
oracle

>  <origin>  (10) 
adg

>  <m_score__min__energy>  (10) 
-6.6399999999999997

>  <m_primary>  (10) 
energy

$$$$
10:0
     RDKit          3D

 40 43  0  0  0  0  0  0  0  0999 V2000
   59.7840   35.7719   45.0678 H   0  0  0  0  0  0  0  0  0  0  0  0
   59.5590   34.8560   45.6340 C   0  0  0  0  0  0  0  0  0  0  0  0
   58.4830   34.1840   45.3620 N   0  0  0  0  0  0  0  0  0  0  0  0
   58.3430   32.7620   45.4950 C   0  0  0  0  0  0  0  0  0  0  0  0
   58.5120   31.9620   46.9670 S   0  0  0  0  0  0  0  0  0  0  0  0
   58.2890   30.4220   46.3330 C   0  0  0  0  0  0  0  0  0  0  0  0
   58.1440   30.5000   44.9640 C   0  0  0  0  0  0  0  0  0  0  0  0
   58.1570   31.8180   44.4750 C   0  0  0  0  0  0  0  0  0  0  0  0
   58.0940   32.1280   43.0680 C   0  0  0  0  0  0  0  0  0  0  0  0
   58.0450   32.3740   41.9380 N   0  0  0  0  0  0  0  0  0  0  0  0
   57.9420   29.2570   44.1530 C   0  0  0  0  0  0  0  0  0  0  0  0
   58.5329   29.3298   43.2280 H   0  0  0  0  0  0  0  0  0  0  0  0
   56.8721   29.1598   43.9168 H   0  0  0  0  0  0  0  0  0  0  0  0
   58.3940   27.9980   44.9500 C   0  0  0  0  0  0  0  0  0  0  0  0
   59.9360   27.8470   44.9130 C   0  0  0  0  0  0  0  0  0  0  0  0
   60.3255   27.8089   45.9410 H   0  0  0  0  0  0  0  0  0  0  0  0
   60.2010   26.9186   44.3858 H   0  0  0  0  0  0  0  0  0  0  0  0
   60.3760   28.7064   44.3858 H   0  0  0  0  0  0  0  0  0  0  0  0
   57.7840   26.7550   44.2810 C   0  0  0  0  0  0  0  0  0  0  0  0
   57.4398   26.0536   45.0553 H   0  0  0  0  0  0  0  0  0  0  0  0
   56.9316   27.0568   43.6546 H   0  0  0  0  0  0  0  0  0  0  0  0
   58.5442   26.2655   43.6546 H   0  0  0  0  0  0  0  0  0  0  0  0
   57.8980   28.0340   46.2920 O   0  0  0  0  0  0  0  0  0  0  0  0
   58.4000   29.1210   47.0620 C   0  0  0  0  0  0  0  0  0  0  0  0
   59.4587   28.9330   47.2938 H   0  0  0  0  0  0  0  0  0  0  0  0
   57.7985   29.1935   47.9801 H   0  0  0  0  0  0  0  0  0  0  0  0
   60.4850   34.4090   46.6920 C   0  0  0  0  0  0  0  0  0  0  0  0
   60.1070   34.5510   48.0530 C   0  0  0  0  0  0  0  0  0  0  0  0
   59.1300   34.9907   48.3022 H   0  0  0  0  0  0  0  0  0  0  0  0
   60.9670   34.1360   49.0880 C   0  0  0  0  0  0  0  0  0  0  0  0
   60.6791   34.2428   50.1443 H   0  0  0  0  0  0  0  0  0  0  0  0
   62.1940   33.5860   48.7280 C   0  0  0  0  0  0  0  0  0  0  0  0
   63.1610   33.1270   49.5430 N   0  0  0  0  0  0  0  0  0  0  0  0
   64.1180   32.7110   48.6710 C   0  0  0  0  0  0  0  0  0  0  0  0
   65.0734   32.2686   48.9897 H   0  0  0  0  0  0  0  0  0  0  0  0
   63.7810   32.8940   47.3730 N   0  0  0  0  0  0  0  0  0  0  0  0
   64.3450   32.6570   46.5260 H   0  0  0  0  0  0  0  0  0  0  0  0
   62.5640   33.4460   47.4270 C   0  0  0  0  0  0  0  0  0  0  0  0
   61.7450   33.8440   46.3730 C   0  0  0  0  0  0  0  0  0  0  0  0
   62.0655   33.7238   45.3276 H   0  0  0  0  0  0  0  0  0  0  0  0
  1  2  1  0
  2  3  2  0
  3  4  1  0
  4  5  1  0
  5  6  1  0
  6  7  2  0
  7  8  1  0
  8  9  1  0
  9 10  3  0
  7 11  1  0
 11 12  1  0
 11 13  1  0
 11 14  1  0
 14 15  1  0
 15 16  1  0
 15 17  1  0
 15 18  1  0
 14 19  1  0
 19 20  1  0
 19 21  1  0
 19 22  1  0
 14 23  1  0
 23 24  1  0
 24 25  1  0
 24 26  1  0
  2 27  1  0
 27 28  2  0
 28 29  1  0
 28 30  1  0
 30 31  1  0
 30 32  2  0
 32 33  1  0
 33 34  2  0
 34 35  1  0
 34 36  1  0
 36 37  1  0
 36 38  1  0
 38 39  2  0
 39 40  1  0
  8  4  2  0
 39 27  1  0
 24  6  1  0
 38 32  1  0
M  END
>  <UniqueID>  (11) 
10

>  <SMILES>  (11) 
CC1(C)Cc2c(sc(/N=C/c3ccc4nc[nH]c4c3)c2C#N)CO1

>  <Energy>  (11) 
116.82388838186714

>  <Genealogy>  (11) 
CC1(C)Cc2c(sc(/N=C/c3ccc4nc[nH]c4c3)c2C#N)CO1 (cis-trans isomerization)
CC1(C)Cc2c(sc(/N=C/c3ccc4nc[nH]c4c3)c2C#N)CO1 (3D coordinates assigned)
CC1(C)Cc2c(sc(/N=C/c3ccc4nc[nH]c4c3)c2C#N)CO1 (nonaromatic ring conformer: 116.82388838186714 kcal/mol)

>  <smiles>  (11) 
CC1(C)Cc2c(sc(N=Cc3ccc4nc[nH]c4c3)c2C#N)CO1

>  <score_type>  (11) 
oracle

>  <origin>  (11) 
adg

>  <m_score__min__energy>  (11) 
-8.3599999999999994

>  <m_primary>  (11) 
energy

$$$$
11:0
     RDKit          3D

 58 60  0  0  0  0  0  0  0  0999 V2000
   60.0380   34.9880   46.3710 C   0  0  0  0  0  0  0  0  0  0  0  0
   59.3300   33.7950   45.7390 C   0  0  0  0  0  0  0  0  0  0  0  0
   58.0800   34.3400   44.5230 S   0  0  0  0  0  0  0  0  0  0  0  0
   57.6190   32.6840   44.0120 C   0  0  0  0  0  0  0  0  0  0  0  0
   57.4460   31.6750   44.9650 C   0  0  0  0  0  0  0  0  0  0  0  0
   57.0850   30.3860   44.5480 C   0  0  0  0  0  0  0  0  0  0  0  0
   56.8640   29.3220   45.5440 C   0  0  0  0  0  0  0  0  0  0  0  0
   57.4290   29.4070   46.6670 O   0  0  0  0  0  0  0  0  0  0  0  0
   56.0310   28.1880   45.2740 N   0  0  0  0  0  0  0  0  0  0  0  0
   56.3690   26.8110   45.6190 C   0  0  0  0  0  0  0  0  0  0  0  0
   57.6090   26.3680   44.8410 C   0  0  0  0  0  0  0  0  0  0  0  0
   58.8120   26.1280   45.7810 C   0  0  0  0  0  0  0  0  0  0  0  0
   59.3120   27.3550   46.4400 N   0  0  0  0  0  0  0  0  0  0  0  0
   60.2500   27.0950   47.5470 C   0  0  0  0  0  0  0  0  0  0  0  0
   60.3820   28.3620   48.3970 C   0  0  0  0  0  0  0  0  0  0  0  0
   60.4760   29.5530   47.5420 N   0  0  0  0  0  0  0  0  0  0  0  0
   60.2080   30.8550   48.0920 C   0  0  0  0  0  0  0  0  0  0  0  0
   58.9070   31.1720   48.5180 C   0  0  0  0  0  0  0  0  0  0  0  0
   58.6260   32.4260   49.0630 C   0  0  0  0  0  0  0  0  0  0  0  0
   59.6410   33.3760   49.1880 C   0  0  0  0  0  0  0  0  0  0  0  0
   60.9400   33.0760   48.7650 C   0  0  0  0  0  0  0  0  0  0  0  0
   61.2350   31.8150   48.2060 C   0  0  0  0  0  0  0  0  0  0  0  0
   62.5220   31.4940   47.7440 O   0  0  0  0  0  0  0  0  0  0  0  0
   63.4370   32.4290   47.1810 C   0  0  0  0  0  0  0  0  0  0  0  0
   60.7550   29.3980   46.1090 C   0  0  0  0  0  0  0  0  0  0  0  0
   59.7990   28.3700   45.4760 C   0  0  0  0  0  0  0  0  0  0  0  0
   56.8690   30.1440   43.1840 C   0  0  0  0  0  0  0  0  0  0  0  0
   57.0390   31.1830   42.2660 C   0  0  0  0  0  0  0  0  0  0  0  0
   57.4050   32.4200   42.6960 N   0  0  0  0  0  0  0  0  0  0  0  0
   59.9889   34.9052   47.4668 H   0  0  0  0  0  0  0  0  0  0  0  0
   61.0904   35.0014   46.0511 H   0  0  0  0  0  0  0  0  0  0  0  0
   59.5456   35.9182   46.0511 H   0  0  0  0  0  0  0  0  0  0  0  0
   60.0739   33.1636   45.2310 H   0  0  0  0  0  0  0  0  0  0  0  0
   58.8210   33.2298   46.5337 H   0  0  0  0  0  0  0  0  0  0  0  0
   57.5921   31.8911   46.0336 H   0  0  0  0  0  0  0  0  0  0  0  0
   56.5727   26.7450   46.6980 H   0  0  0  0  0  0  0  0  0  0  0  0
   55.5251   26.1552   45.3587 H   0  0  0  0  0  0  0  0  0  0  0  0
   57.3809   25.4338   44.3068 H   0  0  0  0  0  0  0  0  0  0  0  0
   57.8771   27.1676   44.1348 H   0  0  0  0  0  0  0  0  0  0  0  0
   58.5051   25.4162   46.5615 H   0  0  0  0  0  0  0  0  0  0  0  0
   59.6326   25.7433   45.1576 H   0  0  0  0  0  0  0  0  0  0  0  0
   59.8676   26.2720   48.1687 H   0  0  0  0  0  0  0  0  0  0  0  0
   61.2338   26.8149   47.1423 H   0  0  0  0  0  0  0  0  0  0  0  0
   59.5002   28.4536   49.0482 H   0  0  0  0  0  0  0  0  0  0  0  0
   61.2973   28.2880   49.0026 H   0  0  0  0  0  0  0  0  0  0  0  0
   58.1040   30.4264   48.4213 H   0  0  0  0  0  0  0  0  0  0  0  0
   57.6047   32.6655   49.3940 H   0  0  0  0  0  0  0  0  0  0  0  0
   59.4188   34.3628   49.6202 H   0  0  0  0  0  0  0  0  0  0  0  0
   61.7362   33.8278   48.8689 H   0  0  0  0  0  0  0  0  0  0  0  0
   63.9593   32.9627   47.9887 H   0  0  0  0  0  0  0  0  0  0  0  0
   64.1711   31.8950   46.5597 H   0  0  0  0  0  0  0  0  0  0  0  0
   62.8873   33.1514   46.5597 H   0  0  0  0  0  0  0  0  0  0  0  0
   60.6239   30.3688   45.6086 H   0  0  0  0  0  0  0  0  0  0  0  0
   61.7885   29.0418   45.9866 H   0  0  0  0  0  0  0  0  0  0  0  0
   58.9312   28.9065   45.0649 H   0  0  0  0  0  0  0  0  0  0  0  0
   60.3623   27.8365   44.6962 H   0  0  0  0  0  0  0  0  0  0  0  0
   56.5680   29.1437   42.8394 H   0  0  0  0  0  0  0  0  0  0  0  0
   56.8765   31.0002   41.1935 H   0  0  0  0  0  0  0  0  0  0  0  0
  1  2  1  0
  2  3  1  0
  3  4  1  0
  4  5  2  0
  5  6  1  0
  6  7  1  0
  7  8  2  0
  7  9  1  0
  9 10  1  0
 10 11  1  0
 11 12  1  0
 12 13  1  0
 13 14  1  0
 14 15  1  0
 15 16  1  0
 16 17  1  0
 17 18  2  0
 18 19  1  0
 19 20  2  0
 20 21  1  0
 21 22  2  0
 22 23  1  0
 23 24  1  0
 16 25  1  0
 25 26  1  0
  6 27  2  0
 27 28  1  0
 28 29  2  0
 29  4  1  0
 26 13  1  0
 22 17  1  0
  1 30  1  0
  1 31  1  0
  1 32  1  0
  2 33  1  0
  2 34  1  0
  5 35  1  0
 10 36  1  0
 10 37  1  0
 11 38  1  0
 11 39  1  0
 12 40  1  0
 12 41  1  0
 14 42  1  0
 14 43  1  0
 15 44  1  0
 15 45  1  0
 18 46  1  0
 19 47  1  0
 20 48  1  0
 21 49  1  0
 24 50  1  0
 24 51  1  0
 24 52  1  0
 25 53  1  0
 25 54  1  0
 26 55  1  0
 26 56  1  0
 27 57  1  0
 28 58  1  0
M  CHG  1   9  -1
M  END
>  <UniqueID>  (12) 
11

>  <SMILES>  (12) 
CCSc1cc(C(=O)[N-]CCCN2CCN(c3ccccc3OC)CC2)ccn1

>  <Energy>  (12) 
67.41805097583891

>  <Genealogy>  (12) 
CCSc1cc(C(=O)[N-]CCCN2CCN(c3ccccc3OC)CC2)ccn1 (protonated)
CCSc1cc(C(=O)[N-]CCCN2CCN(c3ccccc3OC)CC2)ccn1 (3D coordinates assigned)
CCSc1cc(C(=O)[N-]CCCN2CCN(c3ccccc3OC)CC2)ccn1 (nonaromatic ring conformer: 67.41805097583891 kcal/mol)

>  <smiles>  (12) 
CCSc1cc(C(=O)NCCCN2CCN(c3ccccc3OC)CC2)ccn1

>  <score_type>  (12) 
oracle

>  <origin>  (12) 
adg

>  <m_score__min__energy>  (12) 
-10.050000000000001

>  <m_primary>  (12) 
energy

$$$$
12:0
     RDKit          3D

 44 47  0  0  0  0  0  0  0  0999 V2000
   56.4080   19.9890   49.7080 C   0  0  0  0  0  0  0  0  0  0  0  0
   56.5100   21.1030   48.7210 C   0  0  0  0  0  0  0  0  0  0  0  0
   56.0110   22.3450   48.9360 N   0  0  0  0  0  0  0  0  0  0  0  0
   56.3400   23.0070   47.8180 C   0  0  0  0  0  0  0  0  0  0  0  0
   56.0810   24.3330   47.4860 C   0  0  0  0  0  0  0  0  0  0  0  0
   56.5290   24.7990   46.2260 C   0  0  0  0  0  0  0  0  0  0  0  0
   56.2830   26.1990   45.8090 C   0  0  0  0  0  0  0  0  0  0  0  0
   55.1480   26.7110   46.0020 O   0  0  0  0  0  0  0  0  0  0  0  0
   57.2830   26.9820   45.1410 N   0  0  0  0  0  0  0  0  0  0  0  0
   57.4630   28.4000   45.2550 C   0  0  0  0  0  0  0  0  0  0  0  0
   56.9050   29.2930   44.3230 C   0  0  0  0  0  0  0  0  0  0  0  0
   57.1040   30.6700   44.4590 C   0  0  0  0  0  0  0  0  0  0  0  0
   57.8730   31.1760   45.5200 C   0  0  0  0  0  0  0  0  0  0  0  0
   58.0870   32.5930   45.6600 N   0  0  0  0  0  0  0  0  0  0  0  0
   57.8960   33.2470   46.9630 C   0  0  0  0  0  0  0  0  0  0  0  0
   58.9050   34.4010   47.1680 C   0  0  0  0  0  0  0  0  0  0  0  0
   59.6740   34.7000   46.0140 O   0  0  0  0  0  0  0  0  0  0  0  0
   58.8320   34.8080   44.8860 C   0  0  0  0  0  0  0  0  0  0  0  0
   58.3570   33.4130   44.4730 C   0  0  0  0  0  0  0  0  0  0  0  0
   58.4560   30.2780   46.4290 C   0  0  0  0  0  0  0  0  0  0  0  0
   58.2560   28.9020   46.2920 C   0  0  0  0  0  0  0  0  0  0  0  0
   57.2440   23.9190   45.3670 C   0  0  0  0  0  0  0  0  0  0  0  0
   57.4880   22.5840   45.7440 C   0  0  0  0  0  0  0  0  0  0  0  0
   57.0140   22.1680   46.9830 C   0  0  0  0  0  0  0  0  0  0  0  0
   57.1170   20.9920   47.5490 O   0  0  0  0  0  0  0  0  0  0  0  0
   56.4455   20.3985   50.7283 H   0  0  0  0  0  0  0  0  0  0  0  0
   55.4572   19.4554   49.5618 H   0  0  0  0  0  0  0  0  0  0  0  0
   57.2461   19.2917   49.5618 H   0  0  0  0  0  0  0  0  0  0  0  0
   55.4970   22.7010   49.7720 H   0  0  0  0  0  0  0  0  0  0  0  0
   55.5456   24.9979   48.1797 H   0  0  0  0  0  0  0  0  0  0  0  0
   56.3092   28.9062   43.4831 H   0  0  0  0  0  0  0  0  0  0  0  0
   56.6556   31.3616   43.7306 H   0  0  0  0  0  0  0  0  0  0  0  0
   56.8743   33.6515   47.0142 H   0  0  0  0  0  0  0  0  0  0  0  0
   58.0597   32.4994   47.7531 H   0  0  0  0  0  0  0  0  0  0  0  0
   58.3460   35.3036   47.4559 H   0  0  0  0  0  0  0  0  0  0  0  0
   59.6097   34.0761   47.9477 H   0  0  0  0  0  0  0  0  0  0  0  0
   57.9621   35.4333   45.1355 H   0  0  0  0  0  0  0  0  0  0  0  0
   59.3866   35.2690   44.0554 H   0  0  0  0  0  0  0  0  0  0  0  0
   57.4360   33.5048   43.8786 H   0  0  0  0  0  0  0  0  0  0  0  0
   59.1447   32.9295   43.8766 H   0  0  0  0  0  0  0  0  0  0  0  0
   59.0743   30.6606   47.2544 H   0  0  0  0  0  0  0  0  0  0  0  0
   58.7257   28.2084   47.0050 H   0  0  0  0  0  0  0  0  0  0  0  0
   57.6107   24.2854   44.3968 H   0  0  0  0  0  0  0  0  0  0  0  0
   58.0338   21.8955   45.0821 H   0  0  0  0  0  0  0  0  0  0  0  0
  1  2  1  0
  2  3  2  0
  3  4  1  0
  4  5  2  0
  5  6  1  0
  6  7  1  0
  7  8  2  0
  7  9  1  0
  9 10  1  0
 10 11  2  0
 11 12  1  0
 12 13  2  0
 13 14  1  0
 14 15  1  0
 15 16  1  0
 16 17  1  0
 17 18  1  0
 18 19  1  0
 13 20  1  0
 20 21  2  0
  6 22  2  0
 22 23  1  0
 23 24  2  0
 24 25  1  0
 25  2  1  0
 24  4  1  0
 21 10  1  0
 19 14  1  0
  1 26  1  0
  1 27  1  0
  1 28  1  0
  3 29  1  0
  5 30  1  0
 11 31  1  0
 12 32  1  0
 15 33  1  0
 15 34  1  0
 16 35  1  0
 16 36  1  0
 18 37  1  0
 18 38  1  0
 19 39  1  0
 19 40  1  0
 20 41  1  0
 21 42  1  0
 22 43  1  0
 23 44  1  0
M  CHG  2   3   1   9  -1
M  END
>  <UniqueID>  (13) 
12

>  <SMILES>  (13) 
Cc1[nH+]c2cc(C(=O)[N-]c3ccc(N4CCOCC4)cc3)ccc2o1

>  <Energy>  (13) 
102.14866258606348

>  <Genealogy>  (13) 
Cc1[nH+]c2cc(C(=O)[N-]c3ccc(N4CCOCC4)cc3)ccc2o1 (protonated)
Cc1[nH+]c2cc(C(=O)[N-]c3ccc(N4CCOCC4)cc3)ccc2o1 (3D coordinates assigned)
Cc1[nH+]c2cc(C(=O)[N-]c3ccc(N4CCOCC4)cc3)ccc2o1 (nonaromatic ring conformer: 102.14866258606348 kcal/mol)

>  <smiles>  (13) 
Cc1nc2cc(C(=O)Nc3ccc(N4CCOCC4)cc3)ccc2o1

>  <score_type>  (13) 
oracle

>  <origin>  (13) 
adg

>  <m_score__min__energy>  (13) 
-7.5499999999999998

>  <m_primary>  (13) 
energy

$$$$
13:0
     RDKit          3D

 53 56  0  0  0  0  0  0  0  0999 V2000
   60.5500   26.7330   46.4780 C   0  0  0  0  0  0  0  0  0  0  0  0
   60.3630   27.1040   47.9400 C   0  0  0  0  0  0  0  0  0  0  0  0
   59.1190   27.7810   48.1000 O   0  0  0  0  0  0  0  0  0  0  0  0
   58.6900   28.8740   47.3300 C   0  0  0  0  0  0  0  0  0  0  0  0
   59.1280   30.1820   47.6140 C   0  0  0  0  0  0  0  0  0  0  0  0
   58.6970   31.2610   46.8430 C   0  0  0  0  0  0  0  0  0  0  0  0
   57.8100   31.0590   45.7770 C   0  0  0  0  0  0  0  0  0  0  0  0
   57.3630   32.1410   44.9460 N   0  0  0  0  0  0  0  0  0  0  0  0
   57.6040   33.5340   45.1720 C   0  0  0  0  0  0  0  0  0  0  0  0
   56.6430   34.3450   45.2350 O   0  0  0  0  0  0  0  0  0  0  0  0
   58.9560   34.0030   45.2260 N   0  0  0  0  0  0  0  0  0  0  0  0
   59.7820   34.0980   46.3960 C   0  0  0  0  0  0  0  0  0  0  0  0
   59.2670   34.4910   47.6440 C   0  0  0  0  0  0  0  0  0  0  0  0
   60.1040   34.5520   48.7630 C   0  0  0  0  0  0  0  0  0  0  0  0
   61.4570   34.2120   48.6590 C   0  0  0  0  0  0  0  0  0  0  0  0
   62.2580   34.2990   49.8100 O   0  0  0  0  0  0  0  0  0  0  0  0
   63.4640   33.5690   50.0040 C   0  0  0  0  0  0  0  0  0  0  0  0
   61.9650   33.7950   47.4150 C   0  0  0  0  0  0  0  0  0  0  0  0
   61.1280   33.7300   46.2970 C   0  0  0  0  0  0  0  0  0  0  0  0
   57.3920   29.7600   45.4710 C   0  0  0  0  0  0  0  0  0  0  0  0
   57.8090   28.6590   46.2420 C   0  0  0  0  0  0  0  0  0  0  0  0
   57.3100   27.3020   45.8940 C   0  0  0  0  0  0  0  0  0  0  0  0
   57.7570   26.6110   44.8090 N   0  0  0  0  0  0  0  0  0  0  0  0
   57.0500   25.4740   44.8680 C   0  0  0  0  0  0  0  0  0  0  0  0
   57.0990   24.3950   43.9920 C   0  0  0  0  0  0  0  0  0  0  0  0
   56.2510   23.2970   44.2460 C   0  0  0  0  0  0  0  0  0  0  0  0
   56.2850   22.1720   43.3450 C   0  0  0  0  0  0  0  0  0  0  0  0
   56.3130   21.2690   42.6220 N   0  0  0  0  0  0  0  0  0  0  0  0
   55.3770   23.3120   45.3750 C   0  0  0  0  0  0  0  0  0  0  0  0
   54.4540   22.1570   45.6560 C   0  0  0  0  0  0  0  0  0  0  0  0
   55.3640   24.4350   46.2340 C   0  0  0  0  0  0  0  0  0  0  0  0
   56.2200   25.4920   45.9410 C   0  0  0  0  0  0  0  0  0  0  0  0
   56.3610   26.6430   46.6140 N   0  0  0  0  0  0  0  0  0  0  0  0
   61.0441   25.7527   46.4088 H   0  0  0  0  0  0  0  0  0  0  0  0
   59.5686   26.6847   45.9836 H   0  0  0  0  0  0  0  0  0  0  0  0
   61.1726   27.4932   45.9836 H   0  0  0  0  0  0  0  0  0  0  0  0
   60.3659   26.1912   48.5538 H   0  0  0  0  0  0  0  0  0  0  0  0
   61.1840   27.7622   48.2605 H   0  0  0  0  0  0  0  0  0  0  0  0
   59.8178   30.3544   48.4533 H   0  0  0  0  0  0  0  0  0  0  0  0
   59.0549   32.2755   47.0726 H   0  0  0  0  0  0  0  0  0  0  0  0
   58.2026   34.7513   47.7406 H   0  0  0  0  0  0  0  0  0  0  0  0
   59.6948   34.8701   49.7332 H   0  0  0  0  0  0  0  0  0  0  0  0
   63.6538   33.4541   51.0814 H   0  0  0  0  0  0  0  0  0  0  0  0
   63.3701   32.5759   49.5403 H   0  0  0  0  0  0  0  0  0  0  0  0
   64.3003   34.1126   49.5403 H   0  0  0  0  0  0  0  0  0  0  0  0
   63.0257   33.5188   47.3216 H   0  0  0  0  0  0  0  0  0  0  0  0
   61.5308   33.3870   45.3326 H   0  0  0  0  0  0  0  0  0  0  0  0
   56.7250   29.5958   44.6119 H   0  0  0  0  0  0  0  0  0  0  0  0
   57.7786   24.3978   43.1271 H   0  0  0  0  0  0  0  0  0  0  0  0
   54.3500   22.0269   46.7433 H   0  0  0  0  0  0  0  0  0  0  0  0
   53.4670   22.3607   45.2150 H   0  0  0  0  0  0  0  0  0  0  0  0
   54.8703   21.2393   45.2150 H   0  0  0  0  0  0  0  0  0  0  0  0
   54.6970   24.4719   47.1079 H   0  0  0  0  0  0  0  0  0  0  0  0
  1  2  1  0
  2  3  1  0
  3  4  1  0
  4  5  2  0
  5  6  1  0
  6  7  2  0
  7  8  1  0
  8  9  1  0
  9 10  2  0
  9 11  1  0
 11 12  1  0
 12 13  2  0
 13 14  1  0
 14 15  2  0
 15 16  1  0
 16 17  1  0
 15 18  1  0
 18 19  2  0
  7 20  1  0
 20 21  2  0
 21 22  1  0
 22 23  2  0
 23 24  1  0
 24 25  2  0
 25 26  1  0
 26 27  1  0
 27 28  3  0
 26 29  2  0
 29 30  1  0
 29 31  1  0
 31 32  2  0
 32 33  1  0
 21  4  1  0
 33 22  1  0
 19 12  1  0
 32 24  1  0
  1 34  1  0
  1 35  1  0
  1 36  1  0
  2 37  1  0
  2 38  1  0
  5 39  1  0
  6 40  1  0
 13 41  1  0
 14 42  1  0
 17 43  1  0
 17 44  1  0
 17 45  1  0
 18 46  1  0
 19 47  1  0
 20 48  1  0
 25 49  1  0
 30 50  1  0
 30 51  1  0
 30 52  1  0
 31 53  1  0
M  CHG  3   8  -1  11  -1  33  -1
M  END
>  <UniqueID>  (14) 
13

>  <SMILES>  (14) 
CCOc1ccc([N-]C(=O)[N-]c2ccc(OC)cc2)cc1-c1nc2cc(C#N)c(C)cc2[n-]1

>  <Energy>  (14) 
96.69461508038788

>  <Genealogy>  (14) 
CCOc1ccc([N-]C(=O)[N-]c2ccc(OC)cc2)cc1-c1nc2cc(C#N)c(C)cc2[n-]1 (protonated)
CCOc1ccc([N-]C(=O)[N-]c2ccc(OC)cc2)cc1-c1nc2cc(C#N)c(C)cc2[n-]1 (3D coordinates assigned)
CCOc1ccc([N-]C(=O)[N-]c2ccc(OC)cc2)cc1-c1nc2cc(C#N)c(C)cc2[n-]1 (optimized conformer: 96.69461508038788 kcal/mol)

>  <smiles>  (14) 
CCOc1ccc(NC(=O)Nc2ccc(OC)cc2)cc1-c1nc2cc(C#N)c(C)cc2[nH]1

>  <score_type>  (14) 
oracle

>  <origin>  (14) 
adg

>  <m_score__min__energy>  (14) 
-13.300000000000001

>  <m_primary>  (14) 
energy

$$$$
14:0
     RDKit          3D

 42 45  0  0  0  0  0  0  0  0999 V2000
   60.7760   27.3210   49.8370 C   0  0  0  0  0  0  0  0  0  0  0  0
   60.5520   26.6890   48.5800 O   0  0  0  0  0  0  0  0  0  0  0  0
   59.7310   27.2070   47.5660 C   0  0  0  0  0  0  0  0  0  0  0  0
   59.0730   26.3080   46.7260 C   0  0  0  0  0  0  0  0  0  0  0  0
   58.2540   26.7740   45.6990 C   0  0  0  0  0  0  0  0  0  0  0  0
   58.0860   28.1470   45.4960 C   0  0  0  0  0  0  0  0  0  0  0  0
   58.7230   29.0800   46.3380 C   0  0  0  0  0  0  0  0  0  0  0  0
   59.5510   28.5890   47.3720 C   0  0  0  0  0  0  0  0  0  0  0  0
   58.5100   30.5130   46.1740 N   0  0  0  0  0  0  0  0  0  0  0  0
   58.5510   31.3840   47.3660 C   0  0  0  0  0  0  0  0  0  0  0  0
   59.8600   32.1320   47.5220 C   0  0  0  0  0  0  0  0  0  0  0  0
   61.1140   31.5390   47.2630 C   0  0  0  0  0  0  0  0  0  0  0  0
   62.2910   32.2770   47.4280 C   0  0  0  0  0  0  0  0  0  0  0  0
   62.2330   33.6060   47.8490 C   0  0  0  0  0  0  0  0  0  0  0  0
   60.9980   34.2030   48.1070 C   0  0  0  0  0  0  0  0  0  0  0  0
   59.8170   33.4720   47.9440 C   0  0  0  0  0  0  0  0  0  0  0  0
   58.1810   31.0980   44.8830 C   0  0  0  0  0  0  0  0  0  0  0  0
   58.5140   32.4410   44.5940 C   0  0  0  0  0  0  0  0  0  0  0  0
   58.1620   33.0210   43.3730 C   0  0  0  0  0  0  0  0  0  0  0  0
   57.4670   32.2790   42.4200 C   0  0  0  0  0  0  0  0  0  0  0  0
   57.1310   30.9510   42.6820 C   0  0  0  0  0  0  0  0  0  0  0  0
   57.4910   30.3590   43.9000 C   0  0  0  0  0  0  0  0  0  0  0  0
   57.0750   28.6900   44.1830 S   0  0  0  0  0  0  0  0  0  0  0  0
   57.5000   27.8150   42.8130 O   0  0  0  0  0  0  0  0  0  0  0  0
   60.5280   26.6212   50.6486 H   0  0  0  0  0  0  0  0  0  0  0  0
   61.8330   27.6149   49.9165 H   0  0  0  0  0  0  0  0  0  0  0  0
   60.1400   28.2149   49.9165 H   0  0  0  0  0  0  0  0  0  0  0  0
   59.2013   25.2257   46.8751 H   0  0  0  0  0  0  0  0  0  0  0  0
   57.7367   26.0572   45.0443 H   0  0  0  0  0  0  0  0  0  0  0  0
   60.0639   29.2994   48.0370 H   0  0  0  0  0  0  0  0  0  0  0  0
   57.7366   32.1194   47.2883 H   0  0  0  0  0  0  0  0  0  0  0  0
   58.4424   30.7337   48.2465 H   0  0  0  0  0  0  0  0  0  0  0  0
   61.1663   30.4919   46.9299 H   0  0  0  0  0  0  0  0  0  0  0  0
   63.2652   31.8081   47.2252 H   0  0  0  0  0  0  0  0  0  0  0  0
   63.1605   34.1832   47.9776 H   0  0  0  0  0  0  0  0  0  0  0  0
   60.9536   35.2507   48.4392 H   0  0  0  0  0  0  0  0  0  0  0  0
   58.8471   33.9493   48.1476 H   0  0  0  0  0  0  0  0  0  0  0  0
   59.0579   33.0377   45.3411 H   0  0  0  0  0  0  0  0  0  0  0  0
   58.4341   34.0660   43.1633 H   0  0  0  0  0  0  0  0  0  0  0  0
   57.1837   32.7401   41.4623 H   0  0  0  0  0  0  0  0  0  0  0  0
   56.5814   30.3662   41.9298 H   0  0  0  0  0  0  0  0  0  0  0  0
   56.7020   27.2630   42.6160 H   0  0  0  0  0  0  0  0  0  0  0  0
  1  2  1  0
  2  3  1  0
  3  4  2  0
  4  5  1  0
  5  6  2  0
  6  7  1  0
  7  8  2  0
  7  9  1  0
  9 10  1  0
 10 11  1  0
 11 12  2  0
 12 13  1  0
 13 14  2  0
 14 15  1  0
 15 16  2  0
  9 17  1  0
 17 18  2  0
 18 19  1  0
 19 20  2  0
 20 21  1  0
 21 22  2  0
 22 23  1  0
 23 24  1  6
  8  3  1  0
 16 11  1  0
 22 17  1  0
 23  6  1  0
  1 25  1  0
  1 26  1  0
  1 27  1  0
  4 28  1  0
  5 29  1  0
  8 30  1  0
 10 31  1  0
 10 32  1  0
 12 33  1  0
 13 34  1  0
 14 35  1  0
 15 36  1  0
 16 37  1  0
 18 38  1  0
 19 39  1  0
 20 40  1  0
 21 41  1  0
 24 42  1  0
M  CHG  1  23   1
M  END
>  <UniqueID>  (15) 
14

>  <SMILES>  (15) 
COc1ccc2c(c1)N(Cc1ccccc1)c1ccccc1[S@@+]2O

>  <Energy>  (15) 
63.97991782378957

>  <Genealogy>  (15) 
COc1ccc2c(c1)N(Cc1ccccc1)c1ccccc1[S+]2O (protonated)
COc1ccc2c(c1)N(Cc1ccccc1)c1ccccc1[S@@+]2O (chirality)
COc1ccc2c(c1)N(Cc1ccccc1)c1ccccc1[S@@+]2O (3D coordinates assigned)
COc1ccc2c(c1)N(Cc1ccccc1)c1ccccc1[S@@+]2O (nonaromatic ring conformer: 63.97991782378957 kcal/mol)

>  <smiles>  (15) 
COc1ccc2c(c1)N(Cc1ccccc1)c1ccccc1[S+]2[O-]

>  <score_type>  (15) 
oracle

>  <origin>  (15) 
adg

>  <m_score__min__energy>  (15) 
-6.2999999999999998

>  <m_primary>  (15) 
energy

$$$$
15:0
     RDKit          3D

 66 68  0  0  0  0  0  0  0  0999 V2000
   60.3660   28.1730   45.7150 C   0  0  0  0  0  0  0  0  0  0  0  0
   59.9240   27.6020   47.0000 N   0  0  0  0  0  0  0  0  0  0  0  0
   58.4780   27.3320   46.9400 C   0  0  0  0  0  0  0  0  0  0  0  0
   60.2260   28.5160   48.1240 C   0  0  0  0  0  0  0  0  0  0  0  0
   58.9330   29.0950   48.7170 C   0  0  0  0  0  0  0  0  0  0  0  0
   59.1320   29.5980   50.1560 C   0  0  0  0  0  0  0  0  0  0  0  0
   57.8610   29.7010   50.8700 N   0  0  0  0  0  0  0  0  0  0  0  0
   57.3280   30.8660   51.5190 C   0  0  0  0  0  0  0  0  0  0  0  0
   56.1750   30.7970   52.0190 O   0  0  0  0  0  0  0  0  0  0  0  0
   58.0710   32.1400   51.6180 C   0  0  0  0  0  0  0  0  0  0  0  0
   58.0980   32.7750   52.7060 O   0  0  0  0  0  0  0  0  0  0  0  0
   58.7790   32.6440   50.4770 N   0  0  0  0  0  0  0  0  0  0  0  0
   59.6320   33.8310   50.5300 C   0  0  0  0  0  0  0  0  0  0  0  0
   60.3120   34.0870   49.1580 C   0  0  1  0  0  0  0  0  0  0  0  0
   61.8000   33.7750   49.1640 C   0  0  0  0  0  0  0  0  0  0  0  0
   62.4720   33.3260   50.3170 C   0  0  0  0  0  0  0  0  0  0  0  0
   63.8290   32.9900   50.2640 C   0  0  0  0  0  0  0  0  0  0  0  0
   64.5300   33.0930   49.0610 C   0  0  0  0  0  0  0  0  0  0  0  0
   63.8740   33.5190   47.9060 C   0  0  0  0  0  0  0  0  0  0  0  0
   62.5170   33.8520   47.9530 C   0  0  0  0  0  0  0  0  0  0  0  0
   59.6740   33.3900   48.0090 N   0  0  0  0  0  0  0  0  0  0  0  0
   59.5620   34.1680   46.7620 C   0  0  0  0  0  0  0  0  0  0  0  0
   58.5220   33.5050   45.8610 C   0  0  0  0  0  0  0  0  0  0  0  0
   58.7620   32.0590   45.7490 N   0  0  0  0  0  0  0  0  0  0  0  0
   57.9730   31.2840   44.8210 C   0  0  0  0  0  0  0  0  0  0  0  0
   57.3670   30.0800   45.2280 C   0  0  0  0  0  0  0  0  0  0  0  0
   56.6000   29.3330   44.3280 C   0  0  0  0  0  0  0  0  0  0  0  0
   56.4260   29.7800   43.0160 C   0  0  0  0  0  0  0  0  0  0  0  0
   57.0170   30.9760   42.6010 C   0  0  0  0  0  0  0  0  0  0  0  0
   57.7870   31.7250   43.4950 C   0  0  0  0  0  0  0  0  0  0  0  0
   59.9540   31.4690   46.3780 C   0  0  0  0  0  0  0  0  0  0  0  0
   60.1630   32.0040   47.8080 C   0  0  0  0  0  0  0  0  0  0  0  0
   61.0294   29.0300   45.9034 H   0  0  0  0  0  0  0  0  0  0  0  0
   60.9095   27.4078   45.1413 H   0  0  0  0  0  0  0  0  0  0  0  0
   59.4890   28.5073   45.1413 H   0  0  0  0  0  0  0  0  0  0  0  0
   58.0763   27.2570   47.9613 H   0  0  0  0  0  0  0  0  0  0  0  0
   57.9738   28.1515   46.4069 H   0  0  0  0  0  0  0  0  0  0  0  0
   58.3035   26.3857   46.4069 H   0  0  0  0  0  0  0  0  0  0  0  0
   60.7646   27.9606   48.9060 H   0  0  0  0  0  0  0  0  0  0  0  0
   60.8445   29.3447   47.7488 H   0  0  0  0  0  0  0  0  0  0  0  0
   58.6005   29.9355   48.0901 H   0  0  0  0  0  0  0  0  0  0  0  0
   58.1812   28.2923   48.7394 H   0  0  0  0  0  0  0  0  0  0  0  0
   59.7870   28.8956   50.6924 H   0  0  0  0  0  0  0  0  0  0  0  0
   59.5838   30.5999   50.1111 H   0  0  0  0  0  0  0  0  0  0  0  0
   58.5770   32.2270   49.5390 H   0  0  0  0  0  0  0  0  0  0  0  0
   59.0180   34.7040   50.7960 H   0  0  0  0  0  0  0  0  0  0  0  0
   60.4151   33.6673   51.2850 H   0  0  0  0  0  0  0  0  0  0  0  0
   60.1679   35.1674   49.0095 H   0  0  0  0  0  0  0  0  0  0  0  0
   61.9253   33.2387   51.2675 H   0  0  0  0  0  0  0  0  0  0  0  0
   64.3447   32.6440   51.1719 H   0  0  0  0  0  0  0  0  0  0  0  0
   65.5995   32.8383   49.0240 H   0  0  0  0  0  0  0  0  0  0  0  0
   64.4252   33.5930   46.9569 H   0  0  0  0  0  0  0  0  0  0  0  0
   62.0039   34.1773   47.0360 H   0  0  0  0  0  0  0  0  0  0  0  0
   59.2482   35.1963   46.9945 H   0  0  0  0  0  0  0  0  0  0  0  0
   60.5355   34.1976   46.2508 H   0  0  0  0  0  0  0  0  0  0  0  0
   57.5209   33.6710   46.2857 H   0  0  0  0  0  0  0  0  0  0  0  0
   58.5955   33.9496   44.8575 H   0  0  0  0  0  0  0  0  0  0  0  0
   57.4977   29.7245   46.2607 H   0  0  0  0  0  0  0  0  0  0  0  0
   56.1330   28.3919   44.6539 H   0  0  0  0  0  0  0  0  0  0  0  0
   55.8235   29.1902   42.3095 H   0  0  0  0  0  0  0  0  0  0  0  0
   56.8760   31.3288   41.5687 H   0  0  0  0  0  0  0  0  0  0  0  0
   58.2511   32.6650   43.1617 H   0  0  0  0  0  0  0  0  0  0  0  0
   59.8322   30.3766   46.4196 H   0  0  0  0  0  0  0  0  0  0  0  0
   60.8327   31.7431   45.7757 H   0  0  0  0  0  0  0  0  0  0  0  0
   59.6283   31.3435   48.5064 H   0  0  0  0  0  0  0  0  0  0  0  0
   61.2481   32.0192   47.9876 H   0  0  0  0  0  0  0  0  0  0  0  0
  1  2  1  0
  2  3  1  0
  2  4  1  0
  4  5  1  0
  5  6  1  0
  6  7  1  0
  7  8  1  0
  8  9  2  0
  8 10  1  0
 10 11  2  0
 10 12  1  0
 12 13  1  0
 13 14  1  0
 14 15  1  0
 15 16  2  0
 16 17  1  0
 17 18  2  0
 18 19  1  0
 19 20  2  0
 14 21  1  0
 21 22  1  0
 22 23  1  0
 23 24  1  0
 24 25  1  0
 25 26  2  0
 26 27  1  0
 27 28  2  0
 28 29  1  0
 29 30  2  0
 24 31  1  0
 31 32  1  0
 20 15  1  0
 32 21  1  0
 30 25  1  0
  1 33  1  0
  1 34  1  0
  1 35  1  0
  3 36  1  0
  3 37  1  0
  3 38  1  0
  4 39  1  0
  4 40  1  0
  5 41  1  0
  5 42  1  0
  6 43  1  0
  6 44  1  0
 12 45  1  0
 13 46  1  0
 13 47  1  0
 14 48  1  6
 16 49  1  0
 17 50  1  0
 18 51  1  0
 19 52  1  0
 20 53  1  0
 22 54  1  0
 22 55  1  0
 23 56  1  0
 23 57  1  0
 26 58  1  0
 27 59  1  0
 28 60  1  0
 29 61  1  0
 30 62  1  0
 31 63  1  0
 31 64  1  0
 32 65  1  0
 32 66  1  0
M  CHG  1   7  -1
M  END
>  <UniqueID>  (16) 
15

>  <SMILES>  (16) 
CN(C)CCC[N-]C(=O)C(=O)NC[C@@H](c1ccccc1)N1CCN(c2ccccc2)CC1

>  <Energy>  (16) 
79.15165263360703

>  <Genealogy>  (16) 
CN(C)CCC[N-]C(=O)C(=O)NCC(c1ccccc1)N1CCN(c2ccccc2)CC1 (protonated)
CN(C)CCC[N-]C(=O)C(=O)NC[C@@H](c1ccccc1)N1CCN(c2ccccc2)CC1 (chirality)
CN(C)CCC[N-]C(=O)C(=O)NC[C@@H](c1ccccc1)N1CCN(c2ccccc2)CC1 (3D coordinates assigned)
CN(C)CCC[N-]C(=O)C(=O)NC[C@@H](c1ccccc1)N1CCN(c2ccccc2)CC1 (nonaromatic ring conformer: 79.15165263360703 kcal/mol)

>  <smiles>  (16) 
CN(C)CCCNC(=O)C(=O)NCC(c1ccccc1)N1CCN(c2ccccc2)CC1

>  <score_type>  (16) 
oracle

>  <origin>  (16) 
adg

>  <m_score__min__energy>  (16) 
-10.07

>  <m_primary>  (16) 
energy

$$$$
16:0
     RDKit          3D

 38 39  0  0  0  0  0  0  0  0999 V2000
   55.9470   30.8340   44.4560 O   0  0  0  0  0  0  0  0  0  0  0  0
   57.1040   31.2070   44.7860 C   0  0  0  0  0  0  0  0  0  0  0  0
   57.7670   32.3080   43.9990 C   0  0  0  0  0  0  0  0  0  0  0  0
   57.3680   33.6930   44.5230 C   0  0  0  0  0  0  0  0  0  0  0  0
   57.5850   33.8250   46.0360 C   0  0  0  0  0  0  0  0  0  0  0  0
   58.8470   33.2010   46.4250 N   0  0  0  0  0  0  0  0  0  0  0  0
   60.0880   33.9270   46.4510 C   0  0  0  0  0  0  0  0  0  0  0  0
   60.1220   35.1180   46.0320 O   0  0  0  0  0  0  0  0  0  0  0  0
   61.3360   33.3000   46.9500 C   0  0  0  0  0  0  0  0  0  0  0  0
   62.5980   33.8530   46.6580 C   0  0  0  0  0  0  0  0  0  0  0  0
   63.7660   33.2420   47.1300 C   0  0  0  0  0  0  0  0  0  0  0  0
   63.6870   32.0740   47.8920 C   0  0  0  0  0  0  0  0  0  0  0  0
   62.4420   31.5100   48.1780 C   0  0  0  0  0  0  0  0  0  0  0  0
   61.2720   32.1150   47.7060 C   0  0  0  0  0  0  0  0  0  0  0  0
   57.6880   30.6660   45.9770 N   0  0  0  0  0  0  0  0  0  0  0  0
   58.6010   29.5620   46.0410 C   0  0  0  0  0  0  0  0  0  0  0  0
   59.5290   29.3850   45.0080 C   0  0  0  0  0  0  0  0  0  0  0  0
   60.4530   28.3360   45.0640 C   0  0  0  0  0  0  0  0  0  0  0  0
   60.4650   27.4710   46.1610 C   0  0  0  0  0  0  0  0  0  0  0  0
   59.5600   27.6610   47.2090 C   0  0  0  0  0  0  0  0  0  0  0  0
   58.6360   28.7090   47.1570 C   0  0  0  0  0  0  0  0  0  0  0  0
   58.8585   32.1967   44.0785 H   0  0  0  0  0  0  0  0  0  0  0  0
   57.4402   32.2282   42.9517 H   0  0  0  0  0  0  0  0  0  0  0  0
   57.9748   34.4540   44.0104 H   0  0  0  0  0  0  0  0  0  0  0  0
   56.2957   33.8339   44.3222 H   0  0  0  0  0  0  0  0  0  0  0  0
   57.6087   34.8908   46.3073 H   0  0  0  0  0  0  0  0  0  0  0  0
   56.7604   33.3201   46.5605 H   0  0  0  0  0  0  0  0  0  0  0  0
   58.8290   32.1860   46.6720 H   0  0  0  0  0  0  0  0  0  0  0  0
   62.6664   34.7707   46.0553 H   0  0  0  0  0  0  0  0  0  0  0  0
   64.7474   33.6825   46.9004 H   0  0  0  0  0  0  0  0  0  0  0  0
   64.6054   31.5985   48.2667 H   0  0  0  0  0  0  0  0  0  0  0  0
   62.3810   30.5884   48.7755 H   0  0  0  0  0  0  0  0  0  0  0  0
   60.2949   31.6609   47.9276 H   0  0  0  0  0  0  0  0  0  0  0  0
   59.5317   30.0728   44.1496 H   0  0  0  0  0  0  0  0  0  0  0  0
   61.1710   28.1921   44.2432 H   0  0  0  0  0  0  0  0  0  0  0  0
   61.1860   26.6412   46.1999 H   0  0  0  0  0  0  0  0  0  0  0  0
   59.5747   26.9847   48.0764 H   0  0  0  0  0  0  0  0  0  0  0  0
   57.9357   28.8659   47.9906 H   0  0  0  0  0  0  0  0  0  0  0  0
  1  2  2  0
  2  3  1  0
  3  4  1  0
  4  5  1  0
  5  6  1  0
  6  7  1  0
  7  8  2  0
  7  9  1  0
  9 10  2  0
 10 11  1  0
 11 12  2  0
 12 13  1  0
 13 14  2  0
  2 15  1  0
 15 16  1  0
 16 17  2  0
 17 18  1  0
 18 19  2  0
 19 20  1  0
 20 21  2  0
 14  9  1  0
 21 16  1  0
  3 22  1  0
  3 23  1  0
  4 24  1  0
  4 25  1  0
  5 26  1  0
  5 27  1  0
  6 28  1  0
 10 29  1  0
 11 30  1  0
 12 31  1  0
 13 32  1  0
 14 33  1  0
 17 34  1  0
 18 35  1  0
 19 36  1  0
 20 37  1  0
 21 38  1  0
M  CHG  1  15  -1
M  END
>  <UniqueID>  (17) 
16

>  <SMILES>  (17) 
O=C(CCCNC(=O)c1ccccc1)[N-]c1ccccc1

>  <Energy>  (17) 
39.669894931179066

>  <Genealogy>  (17) 
O=C(CCCNC(=O)c1ccccc1)[N-]c1ccccc1 (protonated)
O=C(CCCNC(=O)c1ccccc1)[N-]c1ccccc1 (3D coordinates assigned)
O=C(CCCNC(=O)c1ccccc1)[N-]c1ccccc1 (optimized conformer: 39.669894931179066 kcal/mol)

>  <smiles>  (17) 
O=C(CCCNC(=O)c1ccccc1)Nc1ccccc1

>  <score_type>  (17) 
oracle

>  <origin>  (17) 
adg

>  <m_score__min__energy>  (17) 
-9.5999999999999996

>  <m_primary>  (17) 
energy

$$$$
17:0
     RDKit          3D

 45 49  0  0  0  0  0  0  0  0999 V2000
   58.8829   22.1912   44.8502 H   0  0  0  0  0  0  0  0  0  0  0  0
   58.1380   22.9930   44.9610 C   0  0  0  0  0  0  0  0  0  0  0  0
   58.3870   24.0640   45.8250 C   0  0  0  0  0  0  0  0  0  0  0  0
   59.3202   24.0916   46.4068 H   0  0  0  0  0  0  0  0  0  0  0  0
   57.4550   25.1020   45.9540 C   0  0  0  0  0  0  0  0  0  0  0  0
   57.7120   26.1600   46.8910 N   0  0  0  0  0  0  0  0  0  0  0  0
   57.7050   27.4430   46.6600 C   0  0  0  0  0  0  0  0  0  0  0  0
   58.4490   28.2510   47.4560 N   0  0  0  0  0  0  0  0  0  0  0  0
   58.5260   29.6020   47.2960 C   0  0  0  0  0  0  0  0  0  0  0  0
   57.8220   30.1770   46.2170 C   0  0  0  0  0  0  0  0  0  0  0  0
   57.0600   29.3700   45.4300 N   0  0  0  0  0  0  0  0  0  0  0  0
   56.9910   28.0290   45.6070 C   0  0  0  0  0  0  0  0  0  0  0  0
   56.3824   27.4084   44.9329 H   0  0  0  0  0  0  0  0  0  0  0  0
   57.7350   31.5100   46.0000 N   0  0  0  0  0  0  0  0  0  0  0  0
   58.5440   32.4890   46.3980 N   0  0  0  0  0  0  0  0  0  0  0  0
   58.0780   33.8420   46.0720 C   0  0  0  0  0  0  0  0  0  0  0  0
   57.8866   34.3978   47.0017 H   0  0  0  0  0  0  0  0  0  0  0  0
   58.8483   34.3636   45.4850 H   0  0  0  0  0  0  0  0  0  0  0  0
   57.1499   33.7786   45.4850 H   0  0  0  0  0  0  0  0  0  0  0  0
   59.8400   32.2770   46.8020 C   0  0  0  0  0  0  0  0  0  0  0  0
   60.8500   33.1980   46.4360 C   0  0  0  0  0  0  0  0  0  0  0  0
   60.6006   34.0359   45.7684 H   0  0  0  0  0  0  0  0  0  0  0  0
   62.1520   33.0630   46.9050 C   0  0  0  0  0  0  0  0  0  0  0  0
   63.3940   34.2050   46.4230 Cl  0  0  0  0  0  0  0  0  0  0  0  0
   62.4560   32.0190   47.7630 C   0  0  0  0  0  0  0  0  0  0  0  0
   63.4812   31.9018   48.1440 H   0  0  0  0  0  0  0  0  0  0  0  0
   61.4910   31.1410   48.1340 N   0  0  0  0  0  0  0  0  0  0  0  0
   61.7730   30.3640   48.7740 H   0  0  0  0  0  0  0  0  0  0  0  0
   60.2000   31.2200   47.6750 C   0  0  0  0  0  0  0  0  0  0  0  0
   59.2760   30.3450   48.1670 N   0  0  0  0  0  0  0  0  0  0  0  0
   59.3180   30.1350   49.6420 C   0  0  0  0  0  0  0  0  0  0  0  0
   59.7650   29.1355   49.5359 H   0  0  0  0  0  0  0  0  0  0  0  0
   58.1830   30.7490   50.4480 C   0  0  0  0  0  0  0  0  0  0  0  0
   57.3945   31.3227   49.9390 H   0  0  0  0  0  0  0  0  0  0  0  0
   57.4415   30.3657   51.1644 H   0  0  0  0  0  0  0  0  0  0  0  0
   59.5960   31.3220   50.5570 C   0  0  0  0  0  0  0  0  0  0  0  0
   59.8252   32.3077   50.1259 H   0  0  0  0  0  0  0  0  0  0  0  0
   60.2940   31.5220   51.3833 H   0  0  0  0  0  0  0  0  0  0  0  0
   56.2400   25.0280   45.2520 C   0  0  0  0  0  0  0  0  0  0  0  0
   55.4832   25.8155   45.3824 H   0  0  0  0  0  0  0  0  0  0  0  0
   55.9890   23.9570   44.3880 C   0  0  0  0  0  0  0  0  0  0  0  0
   55.0438   23.9128   43.8271 H   0  0  0  0  0  0  0  0  0  0  0  0
   56.9410   22.9410   44.2370 C   0  0  0  0  0  0  0  0  0  0  0  0
   56.6820   21.8370   43.3480 C   0  0  0  0  0  0  0  0  0  0  0  0
   56.4750   20.9500   42.6350 N   0  0  0  0  0  0  0  0  0  0  0  0
  1  2  1  0
  2  3  2  0
  3  4  1  0
  3  5  1  0
  5  6  1  0
  6  7  2  0
  7  8  1  0
  8  9  1  0
  9 10  2  0
 10 11  1  0
 11 12  2  0
 12 13  1  0
 10 14  1  0
 14 15  1  0
 15 16  1  0
 16 17  1  0
 16 18  1  0
 16 19  1  0
 15 20  1  0
 20 21  2  0
 21 22  1  0
 21 23  1  0
 23 24  1  0
 23 25  2  0
 25 26  1  0
 25 27  1  0
 27 28  1  0
 27 29  2  0
 29 30  1  0
 30 31  1  0
 31 32  1  0
 31 33  1  0
 33 34  1  0
 33 35  1  0
 33 36  1  0
 36 37  1  0
 36 38  1  0
  5 39  2  0
 39 40  1  0
 39 41  1  0
 41 42  1  0
 41 43  2  0
 43 44  1  0
 44 45  3  0
 43  2  1  0
 12  7  1  0
 29 20  1  0
 36 31  1  0
 30  9  1  0
M  CHG  3   8  -1  14  -1  27   1
M  END
>  <UniqueID>  (18) 
17

>  <SMILES>  (18) 
Cn1[n-]c2nc/c(=N\c3ccc(C#N)cc3)[n-]c2n(C2CC2)c2[nH+]cc(Cl)cc21

>  <Energy>  (18) 
391.630733591277

>  <Genealogy>  (18) 
Cn1[n-]c2ncc(=Nc3ccc(C#N)cc3)[n-]c2n(C2CC2)c2[nH+]cc(Cl)cc21 (protonated)
Cn1[n-]c2nc/c(=N\c3ccc(C#N)cc3)[n-]c2n(C2CC2)c2[nH+]cc(Cl)cc21 (cis-trans isomerization)
Cn1[n-]c2nc/c(=N\c3ccc(C#N)cc3)[n-]c2n(C2CC2)c2[nH+]cc(Cl)cc21 (3D coordinates assigned)
Cn1[n-]c2nc/c(=N\c3ccc(C#N)cc3)[n-]c2n(C2CC2)c2[nH+]cc(Cl)cc21 (nonaromatic ring conformer: 391.630733591277 kcal/mol)

>  <smiles>  (18) 
Cn1[nH]c2ncc(=Nc3ccc(C#N)cc3)[nH]c2n(C2CC2)c2ncc(Cl)cc21

>  <score_type>  (18) 
oracle

>  <origin>  (18) 
adg

>  <m_score__min__energy>  (18) 
-8.6500000000000004

>  <m_primary>  (18) 
energy

$$$$
18:0
     RDKit          3D

 35 36  0  0  0  0  0  0  0  0999 V2000
   63.2770   32.0800   47.5100 C   0  0  0  0  0  0  0  0  0  0  0  0
   61.7680   31.8540   47.4890 C   0  0  0  0  0  0  0  0  0  0  0  0
   61.4330   30.4830   47.8840 N   0  0  0  0  0  0  0  0  0  0  0  0
   60.4270   29.6900   47.2160 C   0  0  0  0  0  0  0  0  0  0  0  0
   59.8580   30.1180   45.9960 C   0  0  0  0  0  0  0  0  0  0  0  0
   58.8840   29.3520   45.3380 C   0  0  0  0  0  0  0  0  0  0  0  0
   58.3410   29.8290   44.0940 N   0  0  0  0  0  0  0  0  0  0  0  0
   57.2840   31.2010   43.9600 S   0  0  0  0  0  0  0  0  0  0  0  0
   57.1330   31.5640   42.5090 O   0  0  0  0  0  0  0  0  0  0  0  0
   55.9350   30.8430   44.5170 O   0  0  0  0  0  0  0  0  0  0  0  0
   57.9340   32.5550   44.8770 C   0  0  0  0  0  0  0  0  0  0  0  0
   57.6870   32.6670   46.2530 C   0  0  0  0  0  0  0  0  0  0  0  0
   58.1980   33.7520   46.9720 C   0  0  0  0  0  0  0  0  0  0  0  0
   58.9620   34.7260   46.3210 C   0  0  0  0  0  0  0  0  0  0  0  0
   59.2150   34.6160   44.9510 C   0  0  0  0  0  0  0  0  0  0  0  0
   58.7050   33.5320   44.2300 C   0  0  0  0  0  0  0  0  0  0  0  0
   58.4650   28.1430   45.9160 C   0  0  0  0  0  0  0  0  0  0  0  0
   59.0170   27.7070   47.1180 C   0  0  0  0  0  0  0  0  0  0  0  0
   59.9920   28.4660   47.7710 C   0  0  0  0  0  0  0  0  0  0  0  0
   60.6400   27.8440   49.2850 Cl  0  0  0  0  0  0  0  0  0  0  0  0
   63.6255   32.1322   48.5520 H   0  0  0  0  0  0  0  0  0  0  0  0
   63.7797   31.2471   46.9965 H   0  0  0  0  0  0  0  0  0  0  0  0
   63.5136   33.0236   46.9965 H   0  0  0  0  0  0  0  0  0  0  0  0
   61.2901   32.5560   48.1881 H   0  0  0  0  0  0  0  0  0  0  0  0
   61.4046   32.0204   46.4642 H   0  0  0  0  0  0  0  0  0  0  0  0
   61.9530   30.0680   48.6880 H   0  0  0  0  0  0  0  0  0  0  0  0
   60.1849   31.0704   45.5532 H   0  0  0  0  0  0  0  0  0  0  0  0
   58.5200   29.2860   43.2200 H   0  0  0  0  0  0  0  0  0  0  0  0
   57.0900   31.8997   46.7677 H   0  0  0  0  0  0  0  0  0  0  0  0
   57.9990   33.8395   48.0503 H   0  0  0  0  0  0  0  0  0  0  0  0
   59.3639   35.5789   46.8876 H   0  0  0  0  0  0  0  0  0  0  0  0
   59.8157   35.3826   44.4396 H   0  0  0  0  0  0  0  0  0  0  0  0
   58.9089   33.4451   43.1526 H   0  0  0  0  0  0  0  0  0  0  0  0
   57.6957   27.5362   45.4161 H   0  0  0  0  0  0  0  0  0  0  0  0
   58.6823   26.7559   47.5577 H   0  0  0  0  0  0  0  0  0  0  0  0
  1  2  1  0
  2  3  1  0
  3  4  1  0
  4  5  2  0
  5  6  1  0
  6  7  1  0
  7  8  1  0
  8  9  2  0
  8 10  2  0
  8 11  1  0
 11 12  2  0
 12 13  1  0
 13 14  2  0
 14 15  1  0
 15 16  2  0
  6 17  2  0
 17 18  1  0
 18 19  2  0
 19 20  1  0
 19  4  1  0
 16 11  1  0
  1 21  1  0
  1 22  1  0
  1 23  1  0
  2 24  1  0
  2 25  1  0
  3 26  1  0
  5 27  1  0
  7 28  1  0
 12 29  1  0
 13 30  1  0
 14 31  1  0
 15 32  1  0
 16 33  1  0
 17 34  1  0
 18 35  1  0
M  END
>  <UniqueID>  (19) 
18

>  <SMILES>  (19) 
CCNc1cc(NS(=O)(=O)c2ccccc2)ccc1Cl

>  <Energy>  (19) 
36.40859844235525

>  <Genealogy>  (19) 
CCNc1cc(NS(=O)(=O)c2ccccc2)ccc1Cl (3D coordinates assigned)
CCNc1cc(NS(=O)(=O)c2ccccc2)ccc1Cl (optimized conformer: 36.40859844235525 kcal/mol)

>  <smiles>  (19) 
CCNc1cc(NS(=O)(=O)c2ccccc2)ccc1Cl

>  <score_type>  (19) 
oracle

>  <origin>  (19) 
adg

>  <m_score__min__energy>  (19) 
-8.3499999999999996

>  <m_primary>  (19) 
energy

$$$$
19:0
     RDKit          3D

 44 47  0  0  1  0  0  0  0  0999 V2000
   57.3650   20.7140   46.9330 C   0  0  0  0  0  0  0  0  0  0  0  0
   57.3810   21.9680   47.5650 O   0  0  0  0  0  0  0  0  0  0  0  0
   56.7050   23.0690   47.0280 C   0  0  0  0  0  0  0  0  0  0  0  0
   55.3770   22.9820   46.6900 C   0  0  0  0  0  0  0  0  0  0  0  0
   54.7800   24.0910   46.1720 C   0  0  0  0  0  0  0  0  0  0  0  0
   53.5570   24.0790   45.8390 N   0  0  0  0  0  0  0  0  0  0  0  0
   55.4960   25.1980   46.0170 N   0  0  0  0  0  0  0  0  0  0  0  0
   56.8160   25.3330   46.3370 C   0  0  0  0  0  0  0  0  0  0  0  0
   57.4320   26.5940   46.0380 C   0  0  0  0  0  0  0  0  0  0  0  0
   56.5940   27.6330   45.6030 C   0  0  0  0  0  0  0  0  0  0  0  0
   57.0410   28.8720   45.2590 C   0  0  0  0  0  0  0  0  0  0  0  0
   56.1960   29.8170   44.8550 N   0  0  0  0  0  0  0  0  0  0  0  0
   56.6130   31.0130   44.5230 N   0  0  0  0  0  0  0  0  0  0  0  0
   57.9260   31.3060   44.5880 C   0  0  0  0  0  0  0  0  0  0  0  0
   58.3070   32.4970   44.2530 N   0  0  0  0  0  0  0  0  0  0  0  0
   58.6990   33.4370   45.2450 C   0  0  0  0  0  0  0  0  0  0  0  0
   58.5080   33.1240   46.5830 C   0  0  0  0  0  0  0  0  0  0  0  0
   58.8990   34.0570   47.5320 C   0  0  0  0  0  0  0  0  0  0  0  0
   59.4630   35.2670   47.1690 C   0  0  0  0  0  0  0  0  0  0  0  0
   59.6500   35.5730   45.8350 C   0  0  0  0  0  0  0  0  0  0  0  0
   59.2640   34.6500   44.8700 C   0  0  0  0  0  0  0  0  0  0  0  0
   58.8340   30.3970   44.9880 N   0  0  0  0  0  0  0  0  0  0  0  0
   58.3790   29.1770   45.3230 C   0  0  0  0  0  0  0  0  0  0  0  0
   59.2280   28.1830   45.7440 C   0  0  0  0  0  0  0  0  0  0  0  0
   58.7650   26.9030   46.0970 C   0  0  0  0  0  0  0  0  0  0  0  0
   59.7940   25.9280   46.4760 C   0  0  0  0  0  0  0  0  0  0  0  0
   57.3790   24.2370   46.8430 N   0  0  0  0  0  0  0  0  0  0  0  0
   57.3549   19.9199   47.6941 H   0  0  0  0  0  0  0  0  0  0  0  0
   56.4657   20.6314   46.3049 H   0  0  0  0  0  0  0  0  0  0  0  0
   58.2619   20.6085   46.3049 H   0  0  0  0  0  0  0  0  0  0  0  0
   54.8142   22.0478   46.8329 H   0  0  0  0  0  0  0  0  0  0  0  0
   53.1440   24.5770   45.0300 H   0  0  0  0  0  0  0  0  0  0  0  0
   55.5141   27.4345   45.5363 H   0  0  0  0  0  0  0  0  0  0  0  0
   58.0600   32.1649   46.8822 H   0  0  0  0  0  0  0  0  0  0  0  0
   58.7572   33.8294   48.5988 H   0  0  0  0  0  0  0  0  0  0  0  0
   59.7632   35.9871   47.9445 H   0  0  0  0  0  0  0  0  0  0  0  0
   60.0980   36.5335   45.5405 H   0  0  0  0  0  0  0  0  0  0  0  0
   59.4065   34.8809   43.8040 H   0  0  0  0  0  0  0  0  0  0  0  0
   59.8640   30.6070   45.0450 H   0  0  0  0  0  0  0  0  0  0  0  0
   60.3055   28.3951   45.8071 H   0  0  0  0  0  0  0  0  0  0  0  0
   59.8567   25.8686   47.5726 H   0  0  0  0  0  0  0  0  0  0  0  0
   59.5306   24.9403   46.0698 H   0  0  0  0  0  0  0  0  0  0  0  0
   60.7661   26.2442   46.0698 H   0  0  0  0  0  0  0  0  0  0  0  0
   58.3540   24.2370   47.1480 H   0  0  0  0  0  0  0  0  0  0  0  0
  1  2  1  0
  2  3  1  0
  3  4  2  0
  4  5  1  0
  5  6  2  3
  5  7  1  0
  7  8  2  0
  8  9  1  0
  9 10  2  0
 10 11  1  0
 11 12  1  0
 12 13  2  0
 13 14  1  0
 14 15  2  0
 15 16  1  0
 16 17  2  0
 17 18  1  0
 18 19  2  0
 19 20  1  0
 20 21  2  0
 14 22  1  0
 22 23  1  0
 23 24  1  0
 24 25  2  0
 25 26  1  0
  8 27  1  0
 27  3  1  0
 25  9  1  0
 23 11  2  0
 21 16  1  0
  1 28  1  0
  1 29  1  0
  1 30  1  0
  4 31  1  0
  6 32  1  0
 10 33  1  0
 17 34  1  0
 18 35  1  0
 19 36  1  0
 20 37  1  0
 21 38  1  0
 22 39  1  0
 24 40  1  0
 26 41  1  0
 26 42  1  0
 26 43  1  0
 27 44  1  0
M  END
>  <smiles>  (20) 
COc1cc(=N)nc(-c2cc3nnc(=Nc4ccccc4)[nH]c3cc2C)[nH]1

>  <score_type>  (20) 
oracle

>  <origin>  (20) 
adg

>  <m_score__min__energy>  (20) 
-9.0099999999999998

>  <m_primary>  (20) 
energy

$$$$
20:0
     RDKit          3D

 34 36  0  0  0  0  0  0  0  0999 V2000
   60.8546   30.1366   47.1590 H   0  0  0  0  0  0  0  0  0  0  0  0
   60.0100   30.5670   46.6010 C   0  0  0  0  0  0  0  0  0  0  0  0
   59.1580   29.7170   46.0020 C   0  0  0  0  0  0  0  0  0  0  0  0
   58.2310   28.8390   46.8350 C   0  0  0  0  0  0  0  0  0  0  0  0
   58.8290   28.1728   47.4742 H   0  0  0  0  0  0  0  0  0  0  0  0
   57.5921   29.4694   47.4710 H   0  0  0  0  0  0  0  0  0  0  0  0
   57.3490   27.9910   45.8790 C   0  0  1  0  0  0  0  0  0  0  0  0
   56.6506   27.3503   46.4373 H   0  0  0  0  0  0  0  0  0  0  0  0
   56.6560   28.9660   44.9660 C   0  0  0  0  0  0  0  0  0  0  0  0
   55.4020   29.0290   44.8570 O   0  0  0  0  0  0  0  0  0  0  0  0
   57.5380   29.8240   44.2240 N   0  0  0  0  0  0  0  0  0  0  0  0
   57.0530   30.8330   43.2870 C   0  0  0  0  0  0  0  0  0  0  0  0
   56.6428   31.6863   43.8470 H   0  0  0  0  0  0  0  0  0  0  0  0
   57.8849   31.1756   42.6540 H   0  0  0  0  0  0  0  0  0  0  0  0
   56.2659   30.3974   42.6540 H   0  0  0  0  0  0  0  0  0  0  0  0
   58.9680   29.5840   44.4940 C   0  0  2  0  0  0  0  0  0  0  0  0
   59.6096   30.2717   43.9235 H   0  0  0  0  0  0  0  0  0  0  0  0
   59.2530   28.0970   44.1570 C   0  0  0  0  0  0  0  0  0  0  0  0
   60.2969   27.8613   44.4115 H   0  0  0  0  0  0  0  0  0  0  0  0
   59.0800   27.9351   43.0828 H   0  0  0  0  0  0  0  0  0  0  0  0
   58.2990   27.1600   44.9720 C   0  0  0  0  0  0  0  0  0  0  0  0
   58.9032   26.4899   45.6013 H   0  0  0  0  0  0  0  0  0  0  0  0
   57.6901   26.5771   44.2653 H   0  0  0  0  0  0  0  0  0  0  0  0
   59.8910   32.0370   46.5620 C   0  0  0  0  0  0  0  0  0  0  0  0
   58.7210   32.6610   46.0950 C   0  0  0  0  0  0  0  0  0  0  0  0
   57.8610   32.0502   45.7829 H   0  0  0  0  0  0  0  0  0  0  0  0
   58.6470   34.0550   46.0260 C   0  0  0  0  0  0  0  0  0  0  0  0
   57.7237   34.5391   45.6751 H   0  0  0  0  0  0  0  0  0  0  0  0
   59.7440   34.8350   46.4020 C   0  0  0  0  0  0  0  0  0  0  0  0
   59.6710   36.1880   46.3320 F   0  0  0  0  0  0  0  0  0  0  0  0
   60.9210   34.2200   46.8390 C   0  0  0  0  0  0  0  0  0  0  0  0
   61.7868   34.8338   47.1282 H   0  0  0  0  0  0  0  0  0  0  0  0
   60.9990   32.8250   46.9090 C   0  0  0  0  0  0  0  0  0  0  0  0
   61.9323   32.3441   47.2372 H   0  0  0  0  0  0  0  0  0  0  0  0
  1  2  1  0
  2  3  2  0
  3  4  1  0
  4  5  1  0
  4  6  1  0
  4  7  1  0
  7  8  1  1
  7  9  1  0
  9 10  2  0
  9 11  1  0
 11 12  1  0
 12 13  1  0
 12 14  1  0
 12 15  1  0
 11 16  1  0
 16 17  1  6
 16 18  1  0
 18 19  1  0
 18 20  1  0
 18 21  1  0
 21 22  1  0
 21 23  1  0
  2 24  1  0
 24 25  2  0
 25 26  1  0
 25 27  1  0
 27 28  1  0
 27 29  2  0
 29 30  1  0
 29 31  1  0
 31 32  1  0
 31 33  2  0
 33 34  1  0
 16  3  1  0
 33 24  1  0
 21  7  1  0
M  END
>  <UniqueID>  (21) 
19

>  <SMILES>  (21) 
CN1C(=O)[C@H]2CC[C@@H]1/C(=C\c1ccc(F)cc1)C2

>  <Energy>  (21) 
55.285417976403814

>  <Genealogy>  (21) 
CN1C(=O)[C@H]2CC[C@@H]1C(=Cc1ccc(F)cc1)C2 (chirality)
CN1C(=O)[C@H]2CC[C@@H]1/C(=C\c1ccc(F)cc1)C2 (cis-trans isomerization)
CN1C(=O)[C@H]2CC[C@@H]1/C(=C\c1ccc(F)cc1)C2 (3D coordinates assigned)
CN1C(=O)[C@H]2CC[C@@H]1/C(=C\c1ccc(F)cc1)C2 (nonaromatic ring conformer: 55.285417976403814 kcal/mol)

>  <smiles>  (21) 
CN1C(=O)C2CCC1C(=Cc1ccc(F)cc1)C2

>  <score_type>  (21) 
oracle

>  <origin>  (21) 
adg

>  <m_score__min__energy>  (21) 
-6.7599999999999998

>  <m_primary>  (21) 
energy

$$$$
21:0
     RDKit          3D

 31 32  0  0  0  0  0  0  0  0999 V2000
   58.1530   32.6080   41.4930 C   0  0  0  0  0  0  0  0  0  0  0  0
   57.6880   31.6400   42.5370 C   0  0  0  0  0  0  0  0  0  0  0  0
   57.8100   32.1110   43.9190 C   0  0  0  0  0  0  0  0  0  0  0  0
   57.7150   33.4640   44.1940 C   0  0  0  0  0  0  0  0  0  0  0  0
   57.8310   33.9760   45.4820 C   0  0  0  0  0  0  0  0  0  0  0  0
   58.0550   33.1170   46.5430 C   0  0  0  0  0  0  0  0  0  0  0  0
   58.1550   31.7640   46.2980 C   0  0  0  0  0  0  0  0  0  0  0  0
   58.0300   31.2690   44.9860 C   0  0  0  0  0  0  0  0  0  0  0  0
   58.1160   29.8560   44.8410 N   0  0  0  0  0  0  0  0  0  0  0  0
   59.1260   29.0280   45.0500 C   0  0  0  0  0  0  0  0  0  0  0  0
   60.5220   29.2430   45.4860 C   0  0  0  0  0  0  0  0  0  0  0  0
   60.6360   29.6310   46.9440 C   0  0  0  0  0  0  0  0  0  0  0  0
   61.4920   31.1880   47.1500 Cl  0  0  0  0  0  0  0  0  0  0  0  0
   58.6490   27.7740   44.7850 N   0  0  0  0  0  0  0  0  0  0  0  0
   57.3980   27.8370   44.4300 N   0  0  0  0  0  0  0  0  0  0  0  0
   57.0200   29.1320   44.4530 C   0  0  0  0  0  0  0  0  0  0  0  0
   55.5290   29.7330   44.0800 S   0  0  0  0  0  0  0  0  0  0  0  0
   58.5799   33.4966   41.9810 H   0  0  0  0  0  0  0  0  0  0  0  0
   58.9199   32.1303   40.8656 H   0  0  0  0  0  0  0  0  0  0  0  0
   57.3007   32.9081   40.8656 H   0  0  0  0  0  0  0  0  0  0  0  0
   56.6283   31.4154   42.3457 H   0  0  0  0  0  0  0  0  0  0  0  0
   58.3438   30.7608   42.4537 H   0  0  0  0  0  0  0  0  0  0  0  0
   57.5410   34.1617   43.3615 H   0  0  0  0  0  0  0  0  0  0  0  0
   57.7450   35.0587   45.6561 H   0  0  0  0  0  0  0  0  0  0  0  0
   58.1519   33.5076   47.5667 H   0  0  0  0  0  0  0  0  0  0  0  0
   58.3332   31.0683   47.1312 H   0  0  0  0  0  0  0  0  0  0  0  0
   61.0858   28.3120   45.3265 H   0  0  0  0  0  0  0  0  0  0  0  0
   60.9260   30.0764   44.8925 H   0  0  0  0  0  0  0  0  0  0  0  0
   59.6254   29.7210   47.3689 H   0  0  0  0  0  0  0  0  0  0  0  0
   61.2137   28.8512   47.4619 H   0  0  0  0  0  0  0  0  0  0  0  0
   56.7940   27.0470   44.1810 H   0  0  0  0  0  0  0  0  0  0  0  0
  1  2  1  0
  2  3  1  0
  3  4  2  0
  4  5  1  0
  5  6  2  0
  6  7  1  0
  7  8  2  0
  8  9  1  0
  9 10  1  0
 10 11  1  0
 11 12  1  0
 12 13  1  0
 10 14  2  0
 14 15  1  0
 15 16  1  0
 16 17  2  0
  8  3  1  0
 16  9  1  0
  1 18  1  0
  1 19  1  0
  1 20  1  0
  2 21  1  0
  2 22  1  0
  4 23  1  0
  5 24  1  0
  6 25  1  0
  7 26  1  0
 11 27  1  0
 11 28  1  0
 12 29  1  0
 12 30  1  0
 15 31  1  0
M  END
>  <smiles>  (22) 
CCc1ccccc1-n1c(CCCl)n[nH]c1=S

>  <score_type>  (22) 
oracle

>  <origin>  (22) 
adg

>  <m_score__min__energy>  (22) 
-6.3700000000000001

>  <m_primary>  (22) 
energy

$$$$
22:0
     RDKit          3D

 36 38  0  0  0  0  0  0  0  0999 V2000
   55.8080   29.2010   45.1360 N   0  0  0  0  0  0  0  0  0  0  0  0
   57.1870   29.2590   45.4930 C   0  0  0  0  0  0  0  0  0  0  0  0
   57.8170   28.1840   45.6830 O   0  0  0  0  0  0  0  0  0  0  0  0
   57.8740   30.5640   45.6400 C   0  0  0  0  0  0  0  0  0  0  0  0
   58.6160   30.8530   46.8000 C   0  0  0  0  0  0  0  0  0  0  0  0
   59.2660   32.0830   46.9390 C   0  0  0  0  0  0  0  0  0  0  0  0
   59.1910   33.0380   45.9190 C   0  0  0  0  0  0  0  0  0  0  0  0
   60.0350   34.6130   46.1050 S   0  0  0  0  0  0  0  0  0  0  0  0
   61.2940   33.9350   47.1970 C   0  0  0  0  0  0  0  0  0  0  0  0
   62.4980   33.4810   46.6460 C   0  0  0  0  0  0  0  0  0  0  0  0
   63.4910   32.9390   47.4650 C   0  0  0  0  0  0  0  0  0  0  0  0
   63.2990   32.8510   48.8550 C   0  0  0  0  0  0  0  0  0  0  0  0
   64.3530   32.2710   49.7270 C   0  0  0  0  0  0  0  0  0  0  0  0
   65.6490   32.8130   49.7440 C   0  0  0  0  0  0  0  0  0  0  0  0
   66.6240   32.2530   50.5720 C   0  0  0  0  0  0  0  0  0  0  0  0
   66.3230   31.1860   51.3590 N   0  0  0  0  0  0  0  0  0  0  0  0
   65.0790   30.6390   51.3650 C   0  0  0  0  0  0  0  0  0  0  0  0
   64.0730   31.1690   50.5520 C   0  0  0  0  0  0  0  0  0  0  0  0
   62.0950   33.3250   49.4070 C   0  0  0  0  0  0  0  0  0  0  0  0
   61.0980   33.8680   48.5880 C   0  0  0  0  0  0  0  0  0  0  0  0
   59.6320   34.4810   49.3410 Cl  0  0  0  0  0  0  0  0  0  0  0  0
   58.4430   32.7670   44.7660 C   0  0  0  0  0  0  0  0  0  0  0  0
   58.3390   33.6920   43.7800 F   0  0  0  0  0  0  0  0  0  0  0  0
   57.7920   31.5360   44.6260 C   0  0  0  0  0  0  0  0  0  0  0  0
   55.1430   28.5890   45.6570 H   0  0  0  0  0  0  0  0  0  0  0  0
   58.6852   30.1053   47.6039 H   0  0  0  0  0  0  0  0  0  0  0  0
   59.8381   32.3007   47.8530 H   0  0  0  0  0  0  0  0  0  0  0  0
   62.6632   33.5516   45.5608 H   0  0  0  0  0  0  0  0  0  0  0  0
   64.4299   32.5784   47.0194 H   0  0  0  0  0  0  0  0  0  0  0  0
   65.8948   33.6756   49.1072 H   0  0  0  0  0  0  0  0  0  0  0  0
   67.6391   32.6766   50.5876 H   0  0  0  0  0  0  0  0  0  0  0  0
   67.0640   30.7780   51.9730 H   0  0  0  0  0  0  0  0  0  0  0  0
   64.8629   29.7760   52.0120 H   0  0  0  0  0  0  0  0  0  0  0  0
   63.0665   30.7251   50.5582 H   0  0  0  0  0  0  0  0  0  0  0  0
   61.9353   33.2683   50.4939 H   0  0  0  0  0  0  0  0  0  0  0  0
   57.2113   31.3266   43.7155 H   0  0  0  0  0  0  0  0  0  0  0  0
  1  2  1  0
  2  3  2  0
  2  4  1  0
  4  5  2  0
  5  6  1  0
  6  7  2  0
  7  8  1  0
  8  9  1  0
  9 10  2  0
 10 11  1  0
 11 12  2  0
 12 13  1  0
 13 14  2  0
 14 15  1  0
 15 16  2  0
 16 17  1  0
 17 18  2  0
 12 19  1  0
 19 20  2  0
 20 21  1  0
  7 22  1  0
 22 23  1  0
 22 24  2  0
 24  4  1  0
 20  9  1  0
 18 13  1  0
  1 25  1  0
  5 26  1  0
  6 27  1  0
 10 28  1  0
 11 29  1  0
 14 30  1  0
 15 31  1  0
 16 32  1  0
 17 33  1  0
 18 34  1  0
 19 35  1  0
 24 36  1  0
M  CHG  2   1  -1  16   1
M  END
>  <UniqueID>  (23) 
20

>  <SMILES>  (23) 
[NH-]C(=O)c1ccc(Sc2ccc(-c3cc[nH+]cc3)cc2Cl)c(F)c1

>  <Energy>  (23) 
41.21350362771263

>  <Genealogy>  (23) 
[NH-]C(=O)c1ccc(Sc2ccc(-c3cc[nH+]cc3)cc2Cl)c(F)c1 (protonated)
[NH-]C(=O)c1ccc(Sc2ccc(-c3cc[nH+]cc3)cc2Cl)c(F)c1 (3D coordinates assigned)
[NH-]C(=O)c1ccc(Sc2ccc(-c3cc[nH+]cc3)cc2Cl)c(F)c1 (optimized conformer: 41.21350362771263 kcal/mol)

>  <smiles>  (23) 
NC(=O)c1ccc(Sc2ccc(-c3ccncc3)cc2Cl)c(F)c1

>  <score_type>  (23) 
oracle

>  <origin>  (23) 
adg

>  <m_score__min__energy>  (23) 
-9.6999999999999993

>  <m_primary>  (23) 
energy

$$$$
23:0
     RDKit          3D

 21 22  0  0  0  0  0  0  0  0999 V2000
   54.7790   26.7130   46.0040 O   0  0  0  0  0  0  0  0  0  0  0  0
   55.9680   26.0010   46.0960 C   0  0  0  0  0  0  0  0  0  0  0  0
   57.1800   26.6850   46.2000 C   0  0  0  0  0  0  0  0  0  0  0  0
   58.3750   25.9730   46.2920 C   0  0  0  0  0  0  0  0  0  0  0  0
   58.3630   24.5760   46.2790 C   0  0  0  0  0  0  0  0  0  0  0  0
   57.1490   23.8610   46.1740 C   0  0  0  0  0  0  0  0  0  0  0  0
   57.1770   22.3630   46.1640 C   0  0  0  0  0  0  0  0  0  0  0  0
   57.2930   21.6000   44.9820 C   0  0  0  0  0  0  0  0  0  0  0  0
   57.3120   20.2400   45.0540 N   0  0  0  0  0  0  0  0  0  0  0  0
   57.2190   19.5960   46.2460 C   0  0  0  0  0  0  0  0  0  0  0  0
   57.1050   20.3370   47.4160 C   0  0  0  0  0  0  0  0  0  0  0  0
   57.0870   21.6930   47.3470 N   0  0  0  0  0  0  0  0  0  0  0  0
   55.9480   24.6010   46.0830 C   0  0  0  0  0  0  0  0  0  0  0  0
   57.1924   27.7849   46.2094 H   0  0  0  0  0  0  0  0  0  0  0  0
   59.3300   26.5126   46.3751 H   0  0  0  0  0  0  0  0  0  0  0  0
   59.3122   24.0249   46.3515 H   0  0  0  0  0  0  0  0  0  0  0  0
   57.3678   22.1021   44.0061 H   0  0  0  0  0  0  0  0  0  0  0  0
   57.3960   19.6820   44.1760 H   0  0  0  0  0  0  0  0  0  0  0  0
   57.2338   18.4968   46.2850 H   0  0  0  0  0  0  0  0  0  0  0  0
   57.0300   19.8297   48.3892 H   0  0  0  0  0  0  0  0  0  0  0  0
   54.9874   24.0713   46.0011 H   0  0  0  0  0  0  0  0  0  0  0  0
  1  2  1  0
  2  3  2  0
  3  4  1  0
  4  5  2  0
  5  6  1  0
  6  7  1  0
  7  8  2  0
  8  9  1  0
  9 10  2  0
 10 11  1  0
 11 12  2  0
  6 13  2  0
 13  2  1  0
 12  7  1  0
  3 14  1  0
  4 15  1  0
  5 16  1  0
  8 17  1  0
  9 18  1  0
 10 19  1  0
 11 20  1  0
 13 21  1  0
M  CHG  2   1  -1   9   1
M  END
>  <UniqueID>  (24) 
21

>  <SMILES>  (24) 
[O-]c1cccc(-c2c[nH+]ccn2)c1

>  <Energy>  (24) 
27.785115856938006

>  <Genealogy>  (24) 
[O-]c1cccc(-c2c[nH+]ccn2)c1 (protonated)
[O-]c1cccc(-c2c[nH+]ccn2)c1 (3D coordinates assigned)
[O-]c1cccc(-c2c[nH+]ccn2)c1 (optimized conformer: 27.785115856938006 kcal/mol)

>  <smiles>  (24) 
Oc1cccc(-c2cnccn2)c1

>  <score_type>  (24) 
oracle

>  <origin>  (24) 
adg

>  <m_score__min__energy>  (24) 
-8.2200000000000006

>  <m_primary>  (24) 
energy

$$$$
24:0
     RDKit          3D

 29 30  0  0  0  0  0  0  0  0999 V2000
   55.1520   24.3508   46.7188 H   0  0  0  0  0  0  0  0  0  0  0  0
   55.9000   25.1130   46.4550 C   0  0  0  0  0  0  0  0  0  0  0  0
   55.4990   26.3330   46.0080 N   0  0  0  0  0  0  0  0  0  0  0  0
   56.3830   27.3110   45.6670 C   0  0  0  0  0  0  0  0  0  0  0  0
   55.9140   28.4510   45.2470 N   0  0  0  0  0  0  0  0  0  0  0  0
   56.5830   29.4440   43.9900 S   0  0  0  0  0  0  0  0  0  0  0  0
   57.4670   28.6180   43.0960 O   0  0  0  0  0  0  0  0  0  0  0  0
   55.4790   30.0540   43.1720 O   0  0  0  0  0  0  0  0  0  0  0  0
   57.5380   30.7250   44.7290 C   0  0  0  0  0  0  0  0  0  0  0  0
   58.5260   30.4130   45.6710 C   0  0  0  0  0  0  0  0  0  0  0  0
   58.6990   29.3650   45.9569 H   0  0  0  0  0  0  0  0  0  0  0  0
   59.2940   31.4290   46.2500 C   0  0  0  0  0  0  0  0  0  0  0  0
   60.0656   31.1771   46.9924 H   0  0  0  0  0  0  0  0  0  0  0  0
   59.0830   32.7730   45.8860 C   0  0  0  0  0  0  0  0  0  0  0  0
   59.8280   33.8260   46.4390 O   0  0  0  0  0  0  0  0  0  0  0  0
   59.2690   34.8950   47.1970 C   0  0  0  0  0  0  0  0  0  0  0  0
   59.3808   34.6812   48.2702 H   0  0  0  0  0  0  0  0  0  0  0  0
   59.7932   35.8308   46.9530 H   0  0  0  0  0  0  0  0  0  0  0  0
   58.2014   34.9984   46.9530 H   0  0  0  0  0  0  0  0  0  0  0  0
   58.0990   33.0780   44.9370 C   0  0  0  0  0  0  0  0  0  0  0  0
   57.8850   34.3660   44.5710 F   0  0  0  0  0  0  0  0  0  0  0  0
   57.3320   32.0610   44.3590 C   0  0  0  0  0  0  0  0  0  0  0  0
   56.5646   32.3107   43.6115 H   0  0  0  0  0  0  0  0  0  0  0  0
   57.7660   27.0530   45.7800 C   0  0  0  0  0  0  0  0  0  0  0  0
   58.4990   27.8273   45.5097 H   0  0  0  0  0  0  0  0  0  0  0  0
   58.1950   25.8060   46.2380 C   0  0  0  0  0  0  0  0  0  0  0  0
   59.2705   25.5943   46.3301 H   0  0  0  0  0  0  0  0  0  0  0  0
   57.2600   24.8280   46.5790 C   0  0  0  0  0  0  0  0  0  0  0  0
   57.6680   23.6150   47.0230 F   0  0  0  0  0  0  0  0  0  0  0  0
  1  2  1  0
  2  3  1  0
  3  4  1  0
  4  5  2  0
  5  6  1  0
  6  7  2  0
  6  8  2  0
  6  9  1  0
  9 10  2  0
 10 11  1  0
 10 12  1  0
 12 13  1  0
 12 14  2  0
 14 15  1  0
 15 16  1  0
 16 17  1  0
 16 18  1  0
 16 19  1  0
 14 20  1  0
 20 21  1  0
 20 22  2  0
 22 23  1  0
  4 24  1  0
 24 25  1  0
 24 26  2  0
 26 27  1  0
 26 28  1  0
 28 29  1  0
 28  2  2  0
 22  9  1  0
M  CHG  1   3  -1
M  END
>  <UniqueID>  (25) 
22

>  <SMILES>  (25) 
COc1ccc(S(=O)(=O)/N=c2\ccc(F)c[n-]2)cc1F

>  <Energy>  (25) 
36.29693869224354

>  <Genealogy>  (25) 
COc1ccc(S(=O)(=O)N=c2ccc(F)c[n-]2)cc1F (protonated)
COc1ccc(S(=O)(=O)/N=c2\ccc(F)c[n-]2)cc1F (cis-trans isomerization)
COc1ccc(S(=O)(=O)/N=c2\ccc(F)c[n-]2)cc1F (3D coordinates assigned)
COc1ccc(S(=O)(=O)/N=c2\ccc(F)c[n-]2)cc1F (optimized conformer: 36.29693869224354 kcal/mol)

>  <smiles>  (25) 
COc1ccc(S(=O)(=O)N=c2ccc(F)c[nH]2)cc1F

>  <score_type>  (25) 
oracle

>  <origin>  (25) 
adg

>  <m_score__min__energy>  (25) 
-8.1199999999999992

>  <m_primary>  (25) 
energy

$$$$
25:0
     RDKit          3D

 40 42  0  0  0  0  0  0  0  0999 V2000
   57.0230   21.1430   42.9970 C   0  0  0  0  0  0  0  0  0  0  0  0
   55.9150   21.9770   43.3170 O   0  0  0  0  0  0  0  0  0  0  0  0
   56.0090   23.1760   44.0390 C   0  0  0  0  0  0  0  0  0  0  0  0
   57.1770   23.9360   43.9180 C   0  0  0  0  0  0  0  0  0  0  0  0
   57.3180   25.1400   44.6160 C   0  0  0  0  0  0  0  0  0  0  0  0
   56.2790   25.6090   45.4380 C   0  0  0  0  0  0  0  0  0  0  0  0
   56.3910   26.8260   46.1900 N   0  0  0  0  0  0  0  0  0  0  0  0
   57.5970   27.4030   46.7040 C   0  0  0  0  0  0  0  0  0  0  0  0
   58.3410   26.7460   47.4800 O   0  0  0  0  0  0  0  0  0  0  0  0
   57.9940   28.7450   46.2470 C   0  0  0  0  0  0  0  0  0  0  0  0
   58.8600   29.4910   46.8950 O   0  0  0  0  0  0  0  0  0  0  0  0
   59.0110   30.6330   46.2600 C   0  0  0  0  0  0  0  0  0  0  0  0
   59.9260   31.7050   46.7200 C   0  0  0  0  0  0  0  0  0  0  0  0
   59.5370   33.0580   46.7190 C   0  0  0  0  0  0  0  0  0  0  0  0
   60.4220   34.0490   47.1580 C   0  0  0  0  0  0  0  0  0  0  0  0
   61.6990   33.7020   47.6040 C   0  0  0  0  0  0  0  0  0  0  0  0
   62.0960   32.3630   47.6110 C   0  0  0  0  0  0  0  0  0  0  0  0
   61.2150   31.3680   47.1720 C   0  0  0  0  0  0  0  0  0  0  0  0
   58.2060   30.6520   45.1320 C   0  0  0  0  0  0  0  0  0  0  0  0
   57.5490   29.4370   45.1300 C   0  0  0  0  0  0  0  0  0  0  0  0
   56.6750   28.9400   44.1030 N   0  0  0  0  0  0  0  0  0  0  0  0
   56.3280   29.6800   42.9270 C   0  0  0  0  0  0  0  0  0  0  0  0
   56.6300   30.8950   42.8060 O   0  0  0  0  0  0  0  0  0  0  0  0
   55.1200   24.8360   45.5790 C   0  0  0  0  0  0  0  0  0  0  0  0
   54.9770   23.6330   44.8810 C   0  0  0  0  0  0  0  0  0  0  0  0
   57.4947   20.7879   43.9251 H   0  0  0  0  0  0  0  0  0  0  0  0
   56.6752   20.2807   42.4093 H   0  0  0  0  0  0  0  0  0  0  0  0
   57.7554   21.7158   42.4093 H   0  0  0  0  0  0  0  0  0  0  0  0
   57.9918   23.5838   43.2683 H   0  0  0  0  0  0  0  0  0  0  0  0
   58.2463   25.7224   44.5211 H   0  0  0  0  0  0  0  0  0  0  0  0
   58.5316   33.3377   46.3711 H   0  0  0  0  0  0  0  0  0  0  0  0
   60.1110   35.1041   47.1518 H   0  0  0  0  0  0  0  0  0  0  0  0
   62.3921   34.4831   47.9497 H   0  0  0  0  0  0  0  0  0  0  0  0
   63.1022   32.0901   47.9619 H   0  0  0  0  0  0  0  0  0  0  0  0
   61.5327   30.3149   47.1804 H   0  0  0  0  0  0  0  0  0  0  0  0
   58.1105   31.4627   44.3947 H   0  0  0  0  0  0  0  0  0  0  0  0
   56.2700   27.9840   44.2000 H   0  0  0  0  0  0  0  0  0  0  0  0
   55.7864   29.1757   42.1131 H   0  0  0  0  0  0  0  0  0  0  0  0
   54.3144   25.1784   46.2452 H   0  0  0  0  0  0  0  0  0  0  0  0
   54.0557   23.0419   44.9899 H   0  0  0  0  0  0  0  0  0  0  0  0
  1  2  1  0
  2  3  1  0
  3  4  2  0
  4  5  1  0
  5  6  2  0
  6  7  1  0
  7  8  1  0
  8  9  2  0
  8 10  1  0
 10 11  1  0
 11 12  1  0
 12 13  1  0
 13 14  2  0
 14 15  1  0
 15 16  2  0
 16 17  1  0
 17 18  2  0
 12 19  2  0
 19 20  1  0
 20 21  1  0
 21 22  1  0
 22 23  2  0
  6 24  1  0
 24 25  2  0
 25  3  1  0
 20 10  2  0
 18 13  1  0
  1 26  1  0
  1 27  1  0
  1 28  1  0
  4 29  1  0
  5 30  1  0
 14 31  1  0
 15 32  1  0
 16 33  1  0
 17 34  1  0
 18 35  1  0
 19 36  1  0
 21 37  1  0
 22 38  1  0
 24 39  1  0
 25 40  1  0
M  CHG  1   7  -1
M  END
>  <UniqueID>  (26) 
23

>  <SMILES>  (26) 
COc1ccc([N-]C(=O)c2oc(-c3ccccc3)cc2NC=O)cc1

>  <Energy>  (26) 
75.78777217579233

>  <Genealogy>  (26) 
COc1ccc([N-]C(=O)c2oc(-c3ccccc3)cc2NC=O)cc1 (protonated)
COc1ccc([N-]C(=O)c2oc(-c3ccccc3)cc2NC=O)cc1 (3D coordinates assigned)
COc1ccc([N-]C(=O)c2oc(-c3ccccc3)cc2NC=O)cc1 (optimized conformer: 75.78777217579233 kcal/mol)

>  <smiles>  (26) 
COc1ccc(NC(=O)c2oc(-c3ccccc3)cc2NC=O)cc1

>  <score_type>  (26) 
oracle

>  <origin>  (26) 
adg

>  <m_score__min__energy>  (26) 
-9.0700000000000003

>  <m_primary>  (26) 
energy

$$$$
26:0
     RDKit          3D

 52 55  0  0  0  0  0  0  0  0999 V2000
   57.7220   25.6750   44.5280 C   0  0  0  0  0  0  0  0  0  0  0  0
   57.0140   26.5610   45.5510 C   0  0  0  0  0  0  0  0  0  0  0  0
   57.5300   27.9520   45.5180 N   0  0  0  0  0  0  0  0  0  0  0  0
   59.0080   27.9880   45.3720 C   0  0  0  0  0  0  0  0  0  0  0  0
   59.6210   28.8030   46.4800 C   0  0  0  0  0  0  0  0  0  0  0  0
   60.5970   29.7690   46.1860 C   0  0  0  0  0  0  0  0  0  0  0  0
   61.1760   30.5220   47.2110 C   0  0  0  0  0  0  0  0  0  0  0  0
   60.7870   30.3180   48.5470 C   0  0  0  0  0  0  0  0  0  0  0  0
   61.3540   31.0470   49.6030 O   0  0  0  0  0  0  0  0  0  0  0  0
   62.6560   31.5680   49.6240 C   0  0  0  0  0  0  0  0  0  0  0  0
   63.0350   32.6570   48.8160 C   0  0  0  0  0  0  0  0  0  0  0  0
   64.3390   33.1590   48.8790 C   0  0  0  0  0  0  0  0  0  0  0  0
   65.2680   32.5880   49.7530 C   0  0  0  0  0  0  0  0  0  0  0  0
   66.5310   33.0750   49.8140 F   0  0  0  0  0  0  0  0  0  0  0  0
   64.8910   31.5180   50.5730 C   0  0  0  0  0  0  0  0  0  0  0  0
   63.5880   31.0160   50.5120 C   0  0  0  0  0  0  0  0  0  0  0  0
   59.8440   29.3280   48.8420 C   0  0  0  0  0  0  0  0  0  0  0  0
   59.2630   28.5740   47.8180 C   0  0  0  0  0  0  0  0  0  0  0  0
   56.8700   28.7290   44.4450 C   0  0  0  0  0  0  0  0  0  0  0  0
   57.3220   30.1620   44.4730 C   0  0  0  0  0  0  0  0  0  0  0  0
   57.3030   30.9370   43.3040 C   0  0  0  0  0  0  0  0  0  0  0  0
   57.7410   32.2620   43.3470 C   0  0  0  0  0  0  0  0  0  0  0  0
   58.1910   32.8070   44.5560 C   0  0  0  0  0  0  0  0  0  0  0  0
   58.6390   34.1330   44.6350 C   0  0  0  0  0  0  0  0  0  0  0  0
   59.0850   34.6480   45.8570 C   0  0  0  0  0  0  0  0  0  0  0  0
   59.0870   33.8440   47.0020 C   0  0  0  0  0  0  0  0  0  0  0  0
   59.7000   34.5550   48.6660 Br  0  0  0  0  0  0  0  0  0  0  0  0
   58.6430   32.5180   46.9310 C   0  0  0  0  0  0  0  0  0  0  0  0
   58.1940   31.9950   45.7120 C   0  0  0  0  0  0  0  0  0  0  0  0
   57.7640   30.7070   45.6400 N   0  0  0  0  0  0  0  0  0  0  0  0
   58.3256   24.9196   45.0525 H   0  0  0  0  0  0  0  0  0  0  0  0
   56.9735   25.1729   43.8974 H   0  0  0  0  0  0  0  0  0  0  0  0
   58.3768   26.2943   43.8974 H   0  0  0  0  0  0  0  0  0  0  0  0
   55.9371   26.5742   45.3274 H   0  0  0  0  0  0  0  0  0  0  0  0
   57.2018   26.1477   46.5530 H   0  0  0  0  0  0  0  0  0  0  0  0
   59.4023   26.9620   45.4149 H   0  0  0  0  0  0  0  0  0  0  0  0
   59.2618   28.4482   44.4057 H   0  0  0  0  0  0  0  0  0  0  0  0
   60.9073   29.9338   45.1436 H   0  0  0  0  0  0  0  0  0  0  0  0
   61.9391   31.2773   46.9719 H   0  0  0  0  0  0  0  0  0  0  0  0
   62.3036   33.1142   48.1334 H   0  0  0  0  0  0  0  0  0  0  0  0
   64.6336   34.0043   48.2398 H   0  0  0  0  0  0  0  0  0  0  0  0
   65.6203   31.0722   51.2654 H   0  0  0  0  0  0  0  0  0  0  0  0
   63.2926   30.1820   51.1656 H   0  0  0  0  0  0  0  0  0  0  0  0
   59.5574   29.1413   49.8875 H   0  0  0  0  0  0  0  0  0  0  0  0
   58.5223   27.7981   48.0617 H   0  0  0  0  0  0  0  0  0  0  0  0
   57.1261   28.2884   43.4702 H   0  0  0  0  0  0  0  0  0  0  0  0
   55.7819   28.6979   44.6034 H   0  0  0  0  0  0  0  0  0  0  0  0
   56.9450   30.5033   42.3586 H   0  0  0  0  0  0  0  0  0  0  0  0
   57.7326   32.8758   42.4342 H   0  0  0  0  0  0  0  0  0  0  0  0
   58.6399   34.7681   43.7369 H   0  0  0  0  0  0  0  0  0  0  0  0
   59.4354   35.6889   45.9178 H   0  0  0  0  0  0  0  0  0  0  0  0
   58.6469   31.8874   47.8323 H   0  0  0  0  0  0  0  0  0  0  0  0
  1  2  1  0
  2  3  1  0
  3  4  1  0
  4  5  1  0
  5  6  2  0
  6  7  1  0
  7  8  2  0
  8  9  1  0
  9 10  1  0
 10 11  2  0
 11 12  1  0
 12 13  2  0
 13 14  1  0
 13 15  1  0
 15 16  2  0
  8 17  1  0
 17 18  2  0
  3 19  1  0
 19 20  1  0
 20 21  2  0
 21 22  1  0
 22 23  2  0
 23 24  1  0
 24 25  2  0
 25 26  1  0
 26 27  1  0
 26 28  2  0
 28 29  1  0
 29 30  2  0
 18  5  1  0
 30 20  1  0
 16 10  1  0
 29 23  1  0
  1 31  1  0
  1 32  1  0
  1 33  1  0
  2 34  1  0
  2 35  1  0
  4 36  1  0
  4 37  1  0
  6 38  1  0
  7 39  1  0
 11 40  1  0
 12 41  1  0
 15 42  1  0
 16 43  1  0
 17 44  1  0
 18 45  1  0
 19 46  1  0
 19 47  1  0
 21 48  1  0
 22 49  1  0
 24 50  1  0
 25 51  1  0
 28 52  1  0
M  END
>  <UniqueID>  (27) 
24

>  <SMILES>  (27) 
CCN(Cc1ccc(Oc2ccc(F)cc2)cc1)Cc1ccc2ccc(Br)cc2n1

>  <Energy>  (27) 
66.53970917786879

>  <Genealogy>  (27) 
CCN(Cc1ccc(Oc2ccc(F)cc2)cc1)Cc1ccc2ccc(Br)cc2n1 (3D coordinates assigned)
CCN(Cc1ccc(Oc2ccc(F)cc2)cc1)Cc1ccc2ccc(Br)cc2n1 (optimized conformer: 66.53970917786879 kcal/mol)

>  <smiles>  (27) 
CCN(Cc1ccc(Oc2ccc(F)cc2)cc1)Cc1ccc2ccc(Br)cc2n1

>  <score_type>  (27) 
oracle

>  <origin>  (27) 
adg

>  <m_score__min__energy>  (27) 
-9.25

>  <m_primary>  (27) 
energy

$$$$
27:0
     RDKit          3D

 46 49  0  0  0  0  0  0  0  0999 V2000
   56.6370   34.4550   44.7900 O   0  0  0  0  0  0  0  0  0  0  0  0
   57.6230   33.3310   44.9320 S   0  0  0  0  0  0  0  0  0  0  0  0
   58.5950   33.3870   43.7860 O   0  0  0  0  0  0  0  0  0  0  0  0
   56.7760   31.8170   44.8880 N   0  0  0  0  0  0  0  0  0  0  0  0
   57.3970   30.5260   44.9590 C   0  0  0  0  0  0  0  0  0  0  0  0
   57.1310   29.5990   43.9420 C   0  0  0  0  0  0  0  0  0  0  0  0
   57.7200   28.3310   43.9590 C   0  0  0  0  0  0  0  0  0  0  0  0
   58.5740   27.9700   45.0020 C   0  0  0  0  0  0  0  0  0  0  0  0
   59.1540   26.7370   45.0150 N   0  0  0  0  0  0  0  0  0  0  0  0
   59.9930   26.3560   46.0140 C   0  0  0  0  0  0  0  0  0  0  0  0
   60.2790   27.2360   47.0630 C   0  0  0  0  0  0  0  0  0  0  0  0
   59.7080   28.5120   47.0710 C   0  0  0  0  0  0  0  0  0  0  0  0
   58.8470   28.8930   46.0360 C   0  0  0  0  0  0  0  0  0  0  0  0
   58.2650   30.1680   46.0070 C   0  0  0  0  0  0  0  0  0  0  0  0
   58.4590   33.4930   46.4740 C   0  0  0  0  0  0  0  0  0  0  0  0
   58.1120   32.6780   47.5610 C   0  0  0  0  0  0  0  0  0  0  0  0
   58.7220   32.8700   48.8040 C   0  0  0  0  0  0  0  0  0  0  0  0
   59.6900   33.8770   48.9740 C   0  0  0  0  0  0  0  0  0  0  0  0
   60.2870   34.1310   50.2560 N   0  0  0  0  0  0  0  0  0  0  0  0
   61.6490   33.7240   50.6010 C   0  0  0  0  0  0  0  0  0  0  0  0
   62.3270   33.1090   49.4050 C   0  0  0  0  0  0  0  0  0  0  0  0
   63.2160   33.8610   48.6180 C   0  0  0  0  0  0  0  0  0  0  0  0
   63.7990   33.2970   47.4810 C   0  0  0  0  0  0  0  0  0  0  0  0
   63.4990   31.9810   47.1200 C   0  0  0  0  0  0  0  0  0  0  0  0
   62.6160   31.2260   47.8990 C   0  0  0  0  0  0  0  0  0  0  0  0
   62.0320   31.7860   49.0370 C   0  0  0  0  0  0  0  0  0  0  0  0
   60.0650   34.6560   47.8700 C   0  0  0  0  0  0  0  0  0  0  0  0
   59.4470   34.4740   46.6310 C   0  0  0  0  0  0  0  0  0  0  0  0
   56.4513   29.8720   43.1213 H   0  0  0  0  0  0  0  0  0  0  0  0
   57.5099   27.6170   43.1491 H   0  0  0  0  0  0  0  0  0  0  0  0
   60.4477   25.3545   45.9976 H   0  0  0  0  0  0  0  0  0  0  0  0
   60.9499   26.9255   47.8776 H   0  0  0  0  0  0  0  0  0  0  0  0
   59.9346   29.2135   47.8874 H   0  0  0  0  0  0  0  0  0  0  0  0
   58.4875   30.8907   46.8059 H   0  0  0  0  0  0  0  0  0  0  0  0
   57.3586   31.8864   47.4354 H   0  0  0  0  0  0  0  0  0  0  0  0
   58.4436   32.2301   49.6543 H   0  0  0  0  0  0  0  0  0  0  0  0
   59.6680   34.4450   51.0410 H   0  0  0  0  0  0  0  0  0  0  0  0
   62.2196   34.6055   50.9287 H   0  0  0  0  0  0  0  0  0  0  0  0
   61.6072   32.9811   51.4112 H   0  0  0  0  0  0  0  0  0  0  0  0
   63.4536   34.8977   48.8986 H   0  0  0  0  0  0  0  0  0  0  0  0
   64.4951   33.8895   46.8691 H   0  0  0  0  0  0  0  0  0  0  0  0
   63.9572   31.5387   46.2231 H   0  0  0  0  0  0  0  0  0  0  0  0
   62.3813   30.1896   47.6147 H   0  0  0  0  0  0  0  0  0  0  0  0
   61.3385   31.1890   49.6474 H   0  0  0  0  0  0  0  0  0  0  0  0
   60.8521   35.4164   47.9808 H   0  0  0  0  0  0  0  0  0  0  0  0
   59.7367   35.1025   45.7760 H   0  0  0  0  0  0  0  0  0  0  0  0
  1  2  2  0
  2  3  2  0
  2  4  1  0
  4  5  1  0
  5  6  2  0
  6  7  1  0
  7  8  2  0
  8  9  1  0
  9 10  2  0
 10 11  1  0
 11 12  2  0
 12 13  1  0
 13 14  2  0
  2 15  1  0
 15 16  2  0
 16 17  1  0
 17 18  2  0
 18 19  1  0
 19 20  1  0
 20 21  1  0
 21 22  2  0
 22 23  1  0
 23 24  2  0
 24 25  1  0
 25 26  2  0
 18 27  1  0
 27 28  2  0
 14  5  1  0
 28 15  1  0
 13  8  1  0
 26 21  1  0
  6 29  1  0
  7 30  1  0
 10 31  1  0
 11 32  1  0
 12 33  1  0
 14 34  1  0
 16 35  1  0
 17 36  1  0
 19 37  1  0
 20 38  1  0
 20 39  1  0
 22 40  1  0
 23 41  1  0
 24 42  1  0
 25 43  1  0
 26 44  1  0
 27 45  1  0
 28 46  1  0
M  CHG  1   4  -1
M  END
>  <UniqueID>  (28) 
25

>  <SMILES>  (28) 
O=S(=O)([N-]c1ccc2ncccc2c1)c1ccc(NCc2ccccc2)cc1

>  <Energy>  (28) 
54.325230609631575

>  <Genealogy>  (28) 
O=S(=O)([N-]c1ccc2ncccc2c1)c1ccc(NCc2ccccc2)cc1 (protonated)
O=S(=O)([N-]c1ccc2ncccc2c1)c1ccc(NCc2ccccc2)cc1 (3D coordinates assigned)
O=S(=O)([N-]c1ccc2ncccc2c1)c1ccc(NCc2ccccc2)cc1 (optimized conformer: 54.325230609631575 kcal/mol)

>  <smiles>  (28) 
O=S(=O)(Nc1ccc2ncccc2c1)c1ccc(NCc2ccccc2)cc1

>  <score_type>  (28) 
oracle

>  <origin>  (28) 
adg

>  <m_score__min__energy>  (28) 
-10.630000000000001

>  <m_primary>  (28) 
energy

$$$$
28:0
     RDKit          3D

 16 16  0  0  0  0  0  0  0  0999 V2000
   51.0200   32.6950   51.1950 O   0  0  0  0  0  0  0  0  0  0  0  0
   51.8020   31.7030   51.7730 C   0  0  0  0  0  0  0  0  0  0  0  0
   51.2000   30.6770   52.5040 C   0  0  0  0  0  0  0  0  0  0  0  0
   51.9850   29.6780   53.0860 C   0  0  0  0  0  0  0  0  0  0  0  0
   53.3820   29.6890   52.9340 C   0  0  0  0  0  0  0  0  0  0  0  0
   54.2070   28.6120   53.5910 C   0  0  0  0  0  0  0  0  0  0  0  0
   53.8420   27.3530   53.0970 O   0  0  0  0  0  0  0  0  0  0  0  0
   53.9860   30.7360   52.2050 C   0  0  0  0  0  0  0  0  0  0  0  0
   55.8890   30.8540   51.9790 Br  0  0  0  0  0  0  0  0  0  0  0  0
   53.1910   31.7320   51.6250 C   0  0  0  0  0  0  0  0  0  0  0  0
   50.1066   30.6550   52.6219 H   0  0  0  0  0  0  0  0  0  0  0  0
   51.5056   28.8768   53.6676 H   0  0  0  0  0  0  0  0  0  0  0  0
   55.2717   28.7903   53.3798 H   0  0  0  0  0  0  0  0  0  0  0  0
   54.0299   28.6365   54.6764 H   0  0  0  0  0  0  0  0  0  0  0  0
   53.4620   27.5040   52.1920 H   0  0  0  0  0  0  0  0  0  0  0  0
   53.6628   32.5421   51.0495 H   0  0  0  0  0  0  0  0  0  0  0  0
  1  2  1  0
  2  3  2  0
  3  4  1  0
  4  5  2  0
  5  6  1  0
  6  7  1  0
  5  8  1  0
  8  9  1  0
  8 10  2  0
 10  2  1  0
  3 11  1  0
  4 12  1  0
  6 13  1  0
  6 14  1  0
  7 15  1  0
 10 16  1  0
M  CHG  1   1  -1
M  END
>  <UniqueID>  (29) 
26

>  <SMILES>  (29) 
[O-]c1ccc(CO)c(Br)c1

>  <Energy>  (29) 
15.316534938007472

>  <Genealogy>  (29) 
[O-]c1ccc(CO)c(Br)c1 (protonated)
[O-]c1ccc(CO)c(Br)c1 (3D coordinates assigned)
[O-]c1ccc(CO)c(Br)c1 (optimized conformer: 15.316534938007472 kcal/mol)

>  <smiles>  (29) 
OCc1ccc(O)cc1Br

>  <score_type>  (29) 
oracle

>  <origin>  (29) 
adg

>  <m_score__min__energy>  (29) 
-8.6600000000000001

>  <m_primary>  (29) 
energy

$$$$
29:0
     RDKit          3D

 24 25  0  0  0  0  0  0  0  0999 V2000
   59.9974   36.0436   45.0576 H   0  0  0  0  0  0  0  0  0  0  0  0
   59.5440   35.1920   45.5860 C   0  0  0  0  0  0  0  0  0  0  0  0
   59.8450   34.9660   46.9320 C   0  0  0  0  0  0  0  0  0  0  0  0
   60.5341   35.6399   47.4621 H   0  0  0  0  0  0  0  0  0  0  0  0
   59.2700   33.8830   47.6050 C   0  0  0  0  0  0  0  0  0  0  0  0
   59.6810   33.5740   49.4440 Br  0  0  0  0  0  0  0  0  0  0  0  0
   58.3930   33.0250   46.9300 C   0  0  0  0  0  0  0  0  0  0  0  0
   57.9416   32.1734   47.4602 H   0  0  0  0  0  0  0  0  0  0  0  0
   58.0880   33.2500   45.5750 C   0  0  0  0  0  0  0  0  0  0  0  0
   57.1950   32.3930   44.8520 N   0  0  0  0  0  0  0  0  0  0  0  0
   57.5820   31.2980   44.3310 N   0  0  0  0  0  0  0  0  0  0  0  0
   57.1280   30.0370   44.8260 C   0  0  0  0  0  0  0  0  0  0  0  0
   57.8300   29.1640   45.6340 C   0  0  0  0  0  0  0  0  0  0  0  0
   59.2300   29.3410   46.1220 C   0  0  0  0  0  0  0  0  0  0  0  0
   59.2375   29.3419   47.2220 H   0  0  0  0  0  0  0  0  0  0  0  0
   59.8546   28.5147   45.7518 H   0  0  0  0  0  0  0  0  0  0  0  0
   59.6293   30.2968   45.7518 H   0  0  0  0  0  0  0  0  0  0  0  0
   57.0800   28.0620   45.8600 N   0  0  0  0  0  0  0  0  0  0  0  0
   55.9220   28.2220   45.2350 N   0  0  0  0  0  0  0  0  0  0  0  0
   55.1470   27.5220   45.2400 H   0  0  0  0  0  0  0  0  0  0  0  0
   55.9260   29.4070   44.6010 C   0  0  0  0  0  0  0  0  0  0  0  0
   54.9690   29.8430   43.9080 O   0  0  0  0  0  0  0  0  0  0  0  0
   58.6680   34.3380   44.9100 C   0  0  0  0  0  0  0  0  0  0  0  0
   58.4330   34.5211   43.8511 H   0  0  0  0  0  0  0  0  0  0  0  0
  1  2  1  0
  2  3  2  0
  3  4  1  0
  3  5  1  0
  5  6  1  0
  5  7  2  0
  7  8  1  0
  7  9  1  0
  9 10  1  0
 10 11  2  0
 11 12  1  0
 12 13  2  0
 13 14  1  0
 14 15  1  0
 14 16  1  0
 14 17  1  0
 13 18  1  0
 18 19  1  0
 19 20  1  0
 19 21  1  0
 21 22  2  0
  9 23  2  0
 23 24  1  0
 23  2  1  0
 21 12  1  0
M  CHG  1  18  -1
M  END
>  <UniqueID>  (30) 
27

>  <SMILES>  (30) 
Cc1[n-][nH]c(=O)c1/N=N/c1cccc(Br)c1

>  <Energy>  (30) 
56.30656534347987

>  <Genealogy>  (30) 
Cc1[n-][nH]c(=O)c1N=Nc1cccc(Br)c1 (protonated)
Cc1[n-][nH]c(=O)c1/N=N/c1cccc(Br)c1 (cis-trans isomerization)
Cc1[n-][nH]c(=O)c1/N=N/c1cccc(Br)c1 (3D coordinates assigned)
Cc1[n-][nH]c(=O)c1/N=N/c1cccc(Br)c1 (optimized conformer: 56.30656534347987 kcal/mol)

>  <smiles>  (30) 
Cc1[nH][nH]c(=O)c1N=Nc1cccc(Br)c1

>  <score_type>  (30) 
oracle

>  <origin>  (30) 
adg

>  <m_score__min__energy>  (30) 
-8.6799999999999997

>  <m_primary>  (30) 
energy

$$$$
30:0
     RDKit          3D

 23 23  0  0  0  0  0  0  0  0999 V2000
   60.0380   34.0020   48.9760 C   0  0  0  0  0  0  0  0  0  0  0  0
   60.4790   33.5050   47.6740 N   0  0  0  0  0  0  0  0  0  0  0  0
   61.9060   33.5060   47.3610 C   0  0  0  0  0  0  0  0  0  0  0  0
   59.5330   33.4520   46.5960 C   0  0  0  0  0  0  0  0  0  0  0  0
   59.1390   34.6380   45.9570 C   0  0  0  0  0  0  0  0  0  0  0  0
   59.6670   35.8600   46.3730 O   0  0  0  0  0  0  0  0  0  0  0  0
   58.2190   34.5910   44.9080 C   0  0  0  0  0  0  0  0  0  0  0  0
   57.6890   33.3720   44.4920 C   0  0  0  0  0  0  0  0  0  0  0  0
   58.0670   32.1690   45.1140 C   0  0  0  0  0  0  0  0  0  0  0  0
   57.4490   30.9220   44.6000 C   0  0  0  0  0  0  0  0  0  0  0  0
   56.2650   30.5930   44.8690 O   0  0  0  0  0  0  0  0  0  0  0  0
   59.0020   32.2120   46.1820 C   0  0  0  0  0  0  0  0  0  0  0  0
   59.5970   30.6310   47.1130 Br  0  0  0  0  0  0  0  0  0  0  0  0
   60.5405   33.4357   49.7740 H   0  0  0  0  0  0  0  0  0  0  0  0
   60.2926   35.0683   49.0669 H   0  0  0  0  0  0  0  0  0  0  0  0
   58.9490   33.8760   49.0669 H   0  0  0  0  0  0  0  0  0  0  0  0
   62.4863   33.5064   48.2955 H   0  0  0  0  0  0  0  0  0  0  0  0
   62.1537   32.6080   46.7759 H   0  0  0  0  0  0  0  0  0  0  0  0
   62.1524   34.4043   46.7759 H   0  0  0  0  0  0  0  0  0  0  0  0
   59.2510   36.3880   47.1290 H   0  0  0  0  0  0  0  0  0  0  0  0
   57.9113   35.5210   44.4077 H   0  0  0  0  0  0  0  0  0  0  0  0
   56.9642   33.3501   43.6649 H   0  0  0  0  0  0  0  0  0  0  0  0
   58.0493   30.2596   43.9590 H   0  0  0  0  0  0  0  0  0  0  0  0
  1  2  1  0
  2  3  1  0
  2  4  1  0
  4  5  2  0
  5  6  1  0
  5  7  1  0
  7  8  2  0
  8  9  1  0
  9 10  1  0
 10 11  2  0
  9 12  2  0
 12 13  1  0
 12  4  1  0
  1 14  1  0
  1 15  1  0
  1 16  1  0
  3 17  1  0
  3 18  1  0
  3 19  1  0
  6 20  1  0
  7 21  1  0
  8 22  1  0
 10 23  1  0
M  END
>  <UniqueID>  (31) 
28

>  <SMILES>  (31) 
CN(C)c1c(O)ccc(C=O)c1Br

>  <Energy>  (31) 
30.119831761212737

>  <Genealogy>  (31) 
CN(C)c1c(O)ccc(C=O)c1Br (3D coordinates assigned)
CN(C)c1c(O)ccc(C=O)c1Br (optimized conformer: 30.119831761212737 kcal/mol)

>  <smiles>  (31) 
CN(C)c1c(O)ccc(C=O)c1Br

>  <score_type>  (31) 
oracle

>  <origin>  (31) 
adg

>  <m_score__min__energy>  (31) 
-5.46

>  <m_primary>  (31) 
energy

$$$$
31:0
     RDKit          3D

 41 42  0  0  0  0  0  0  0  0999 V2000
   56.9150   30.8230   42.6750 C   0  0  0  0  0  0  0  0  0  0  0  0
   56.3070   29.7700   43.5870 C   0  0  0  0  0  0  0  0  0  0  0  0
   56.5130   30.1420   44.9450 O   0  0  0  0  0  0  0  0  0  0  0  0
   57.7130   29.8950   45.6240 C   0  0  0  0  0  0  0  0  0  0  0  0
   57.7610   29.0110   46.5220 O   0  0  0  0  0  0  0  0  0  0  0  0
   58.9480   30.7100   45.3140 C   0  0  2  0  0  0  0  0  0  0  0  0
   60.0990   30.4740   46.2970 C   0  0  0  0  0  0  0  0  0  0  0  0
   59.7830   31.0760   47.9960 S   0  0  0  0  0  0  0  0  0  0  0  0
   58.3490   32.1700   47.6710 C   0  0  0  0  0  0  0  0  0  0  0  0
   58.4640   32.9610   46.4350 N   0  0  0  0  0  0  0  0  0  0  0  0
   59.5280   34.3430   46.5960 S   0  0  0  0  0  0  0  0  0  0  0  0
   59.7250   34.9720   45.2440 O   0  0  0  0  0  0  0  0  0  0  0  0
   58.8840   35.3680   47.4890 O   0  0  0  0  0  0  0  0  0  0  0  0
   61.1040   33.9080   47.2570 C   0  0  0  0  0  0  0  0  0  0  0  0
   62.1390   33.4980   46.4040 C   0  0  0  0  0  0  0  0  0  0  0  0
   63.3920   33.1620   46.9240 C   0  0  0  0  0  0  0  0  0  0  0  0
   63.6230   33.2210   48.3120 C   0  0  0  0  0  0  0  0  0  0  0  0
   64.8620   32.8970   48.8840 O   0  0  0  0  0  0  0  0  0  0  0  0
   65.0220   32.2580   50.1460 C   0  0  0  0  0  0  0  0  0  0  0  0
   62.5800   33.6140   49.1610 C   0  0  0  0  0  0  0  0  0  0  0  0
   61.3280   33.9500   48.6390 C   0  0  0  0  0  0  0  0  0  0  0  0
   58.6520   32.2190   45.1660 C   0  0  0  0  0  0  0  0  0  0  0  0
   57.3728   31.6159   43.2846 H   0  0  0  0  0  0  0  0  0  0  0  0
   57.6839   30.3585   42.0402 H   0  0  0  0  0  0  0  0  0  0  0  0
   56.1283   31.2567   42.0402 H   0  0  0  0  0  0  0  0  0  0  0  0
   55.2280   29.6915   43.3880 H   0  0  0  0  0  0  0  0  0  0  0  0
   56.7868   28.7987   43.3962 H   0  0  0  0  0  0  0  0  0  0  0  0
   59.2836   30.3398   44.3340 H   0  0  0  0  0  0  0  0  0  0  0  0
   60.2921   29.3922   46.3464 H   0  0  0  0  0  0  0  0  0  0  0  0
   60.9571   31.0477   45.9168 H   0  0  0  0  0  0  0  0  0  0  0  0
   57.4470   31.5446   47.5981 H   0  0  0  0  0  0  0  0  0  0  0  0
   58.3026   32.8876   48.5034 H   0  0  0  0  0  0  0  0  0  0  0  0
   61.9636   33.4406   45.3196 H   0  0  0  0  0  0  0  0  0  0  0  0
   64.2007   32.8503   46.2467 H   0  0  0  0  0  0  0  0  0  0  0  0
   64.8399   32.9853   50.9509 H   0  0  0  0  0  0  0  0  0  0  0  0
   64.3036   31.4293   50.2311 H   0  0  0  0  0  0  0  0  0  0  0  0
   66.0461   31.8656   50.2311 H   0  0  0  0  0  0  0  0  0  0  0  0
   62.7480   33.6584   50.2472 H   0  0  0  0  0  0  0  0  0  0  0  0
   60.5146   34.2489   49.3166 H   0  0  0  0  0  0  0  0  0  0  0  0
   57.7330   32.3271   44.5712 H   0  0  0  0  0  0  0  0  0  0  0  0
   59.5427   32.6557   44.6906 H   0  0  0  0  0  0  0  0  0  0  0  0
  1  2  1  0
  2  3  1  0
  3  4  1  0
  4  5  2  0
  4  6  1  0
  6  7  1  0
  7  8  1  0
  8  9  1  0
  9 10  1  0
 10 11  1  0
 11 12  2  0
 11 13  2  0
 11 14  1  0
 14 15  2  0
 15 16  1  0
 16 17  2  0
 17 18  1  0
 18 19  1  0
 17 20  1  0
 20 21  2  0
 10 22  1  0
 22  6  1  0
 21 14  1  0
  1 23  1  0
  1 24  1  0
  1 25  1  0
  2 26  1  0
  2 27  1  0
  6 28  1  6
  7 29  1  0
  7 30  1  0
  9 31  1  0
  9 32  1  0
 15 33  1  0
 16 34  1  0
 19 35  1  0
 19 36  1  0
 19 37  1  0
 20 38  1  0
 21 39  1  0
 22 40  1  0
 22 41  1  0
M  END
>  <UniqueID>  (32) 
29

>  <SMILES>  (32) 
CCOC(=O)[C@@H]1CSCN(S(=O)(=O)c2ccc(OC)cc2)C1

>  <Energy>  (32) 
45.20055769921393

>  <Genealogy>  (32) 
CCOC(=O)[C@@H]1CSCN(S(=O)(=O)c2ccc(OC)cc2)C1 (chirality)
CCOC(=O)[C@@H]1CSCN(S(=O)(=O)c2ccc(OC)cc2)C1 (3D coordinates assigned)
CCOC(=O)[C@@H]1CSCN(S(=O)(=O)c2ccc(OC)cc2)C1 (nonaromatic ring conformer: 45.20055769921393 kcal/mol)

>  <smiles>  (32) 
CCOC(=O)C1CSCN(S(=O)(=O)c2ccc(OC)cc2)C1

>  <score_type>  (32) 
oracle

>  <origin>  (32) 
adg

>  <m_score__min__energy>  (32) 
-6.9800000000000004

>  <m_primary>  (32) 
energy

$$$$
32:0
     RDKit          3D

 28 30  0  0  0  0  0  0  0  0999 V2000
   56.9030   28.9660   44.3750 F   0  0  0  0  0  0  0  0  0  0  0  0
   57.3290   30.2520   44.4210 C   0  0  0  0  0  0  0  0  0  0  0  0
   57.3270   31.0320   43.2590 C   0  0  0  0  0  0  0  0  0  0  0  0
   57.7660   32.3600   43.3000 C   0  0  0  0  0  0  0  0  0  0  0  0
   58.2090   32.9120   44.5110 C   0  0  0  0  0  0  0  0  0  0  0  0
   58.6540   34.2390   44.5850 C   0  0  0  0  0  0  0  0  0  0  0  0
   59.0900   34.7570   45.8060 C   0  0  0  0  0  0  0  0  0  0  0  0
   59.0780   33.9420   46.9440 C   0  0  0  0  0  0  0  0  0  0  0  0
   59.6440   34.5810   48.5160 S   0  0  0  0  0  0  0  0  0  0  0  0
   61.3170   33.9970   48.2520 C   0  0  0  0  0  0  0  0  0  0  0  0
   61.8060   33.8320   46.9490 C   0  0  0  0  0  0  0  0  0  0  0  0
   63.1130   33.3810   46.7430 C   0  0  0  0  0  0  0  0  0  0  0  0
   63.9340   33.0910   47.8380 C   0  0  0  0  0  0  0  0  0  0  0  0
   63.4470   33.2520   49.1390 C   0  0  0  0  0  0  0  0  0  0  0  0
   62.1400   33.7020   49.3470 C   0  0  0  0  0  0  0  0  0  0  0  0
   58.6410   32.6570   46.8580 N   0  0  0  0  0  0  0  0  0  0  0  0
   58.2100   32.1240   45.6830 C   0  0  0  0  0  0  0  0  0  0  0  0
   57.7700   30.7970   45.6320 C   0  0  0  0  0  0  0  0  0  0  0  0
   56.9789   30.5993   42.3095 H   0  0  0  0  0  0  0  0  0  0  0  0
   57.7637   32.9698   42.3845 H   0  0  0  0  0  0  0  0  0  0  0  0
   58.6597   34.8702   43.6841 H   0  0  0  0  0  0  0  0  0  0  0  0
   59.4403   35.7976   45.8732 H   0  0  0  0  0  0  0  0  0  0  0  0
   61.1605   34.0577   46.0873 H   0  0  0  0  0  0  0  0  0  0  0  0
   63.4960   33.2541   45.7197 H   0  0  0  0  0  0  0  0  0  0  0  0
   64.9625   32.7364   47.6757 H   0  0  0  0  0  0  0  0  0  0  0  0
   64.0931   33.0243   49.9996 H   0  0  0  0  0  0  0  0  0  0  0  0
   61.7573   33.8246   50.3710 H   0  0  0  0  0  0  0  0  0  0  0  0
   57.7707   30.1820   46.5440 H   0  0  0  0  0  0  0  0  0  0  0  0
  1  2  1  0
  2  3  2  0
  3  4  1  0
  4  5  2  0
  5  6  1  0
  6  7  2  0
  7  8  1  0
  8  9  1  0
  9 10  1  0
 10 11  2  0
 11 12  1  0
 12 13  2  0
 13 14  1  0
 14 15  2  0
  8 16  2  0
 16 17  1  0
 17 18  2  0
 18  2  1  0
 17  5  1  0
 15 10  1  0
  3 19  1  0
  4 20  1  0
  6 21  1  0
  7 22  1  0
 11 23  1  0
 12 24  1  0
 13 25  1  0
 14 26  1  0
 15 27  1  0
 18 28  1  0
M  END
>  <UniqueID>  (33) 
30

>  <SMILES>  (33) 
Fc1ccc2ccc(Sc3ccccc3)nc2c1

>  <Energy>  (33) 
29.480720830600866

>  <Genealogy>  (33) 
Fc1ccc2ccc(Sc3ccccc3)nc2c1 (3D coordinates assigned)
Fc1ccc2ccc(Sc3ccccc3)nc2c1 (optimized conformer: 29.480720830600866 kcal/mol)

>  <smiles>  (33) 
Fc1ccc2ccc(Sc3ccccc3)nc2c1

>  <score_type>  (33) 
oracle

>  <origin>  (33) 
adg

>  <m_score__min__energy>  (33) 
-7.5099999999999998

>  <m_primary>  (33) 
energy

$$$$
33:0
     RDKit          3D

 38 39  0  0  0  0  0  0  0  0999 V2000
   57.6600   33.4070   45.1570 C   0  0  0  0  0  0  0  0  0  0  0  0
   57.1630   32.0760   45.0580 O   0  0  0  0  0  0  0  0  0  0  0  0
   57.7780   30.9530   45.6330 C   0  0  0  0  0  0  0  0  0  0  0  0
   59.0060   31.0400   46.3150 C   0  0  0  0  0  0  0  0  0  0  0  0
   59.5880   29.9010   46.8730 C   0  0  0  0  0  0  0  0  0  0  0  0
   58.9530   28.6580   46.7670 C   0  0  0  0  0  0  0  0  0  0  0  0
   59.5960   27.4220   47.3430 C   0  0  0  0  0  0  0  0  0  0  0  0
   58.5810   26.2860   47.5210 C   0  0  0  0  0  0  0  0  0  0  0  0
   58.2290   25.6700   46.2420 N   0  0  0  0  0  0  0  0  0  0  0  0
   56.9710   25.0640   45.9150 C   0  0  0  0  0  0  0  0  0  0  0  0
   55.9150   25.5760   46.3740 O   0  0  0  0  0  0  0  0  0  0  0  0
   56.8680   23.8820   45.0390 C   0  0  0  0  0  0  0  0  0  0  0  0
   57.9430   22.9950   44.9190 C   0  0  0  0  0  0  0  0  0  0  0  0
   57.8330   21.8860   44.0820 C   0  0  0  0  0  0  0  0  0  0  0  0
   56.6470   21.6990   43.3660 C   0  0  0  0  0  0  0  0  0  0  0  0
   56.5210   20.7030   42.6060 O   0  0  0  0  0  0  0  0  0  0  0  0
   55.6500   22.5710   43.4810 O   0  0  0  0  0  0  0  0  0  0  0  0
   55.7210   23.6400   44.2710 C   0  0  0  0  0  0  0  0  0  0  0  0
   57.7320   28.5640   46.0820 C   0  0  0  0  0  0  0  0  0  0  0  0
   57.1390   29.7080   45.5140 C   0  0  0  0  0  0  0  0  0  0  0  0
   55.9170   29.6500   44.8250 O   0  0  0  0  0  0  0  0  0  0  0  0
   55.7850   29.7240   43.4090 C   0  0  0  0  0  0  0  0  0  0  0  0
   57.7627   33.6821   46.2171 H   0  0  0  0  0  0  0  0  0  0  0  0
   58.6420   33.4693   44.6652 H   0  0  0  0  0  0  0  0  0  0  0  0
   56.9592   34.0976   44.6652 H   0  0  0  0  0  0  0  0  0  0  0  0
   59.5107   32.0129   46.4089 H   0  0  0  0  0  0  0  0  0  0  0  0
   60.5509   29.9804   47.3989 H   0  0  0  0  0  0  0  0  0  0  0  0
   60.3929   27.0850   46.6638 H   0  0  0  0  0  0  0  0  0  0  0  0
   60.0035   27.6764   48.3326 H   0  0  0  0  0  0  0  0  0  0  0  0
   59.0161   25.5189   48.1784 H   0  0  0  0  0  0  0  0  0  0  0  0
   57.6661   26.7093   47.9611 H   0  0  0  0  0  0  0  0  0  0  0  0
   58.8709   23.1720   45.4826 H   0  0  0  0  0  0  0  0  0  0  0  0
   58.6638   21.1713   43.9866 H   0  0  0  0  0  0  0  0  0  0  0  0
   54.8729   24.3387   44.3214 H   0  0  0  0  0  0  0  0  0  0  0  0
   57.2336   27.5879   45.9879 H   0  0  0  0  0  0  0  0  0  0  0  0
   54.8515   30.2473   43.1546 H   0  0  0  0  0  0  0  0  0  0  0  0
   56.6400   30.2743   42.9893 H   0  0  0  0  0  0  0  0  0  0  0  0
   55.7616   28.7075   42.9893 H   0  0  0  0  0  0  0  0  0  0  0  0
  1  2  1  0
  2  3  1  0
  3  4  2  0
  4  5  1  0
  5  6  2  0
  6  7  1  0
  7  8  1  0
  8  9  1  0
  9 10  1  0
 10 11  2  0
 10 12  1  0
 12 13  1  0
 13 14  2  0
 14 15  1  0
 15 16  2  0
 15 17  1  0
 17 18  1  0
  6 19  1  0
 19 20  2  0
 20 21  1  0
 21 22  1  0
 20  3  1  0
 18 12  2  0
  1 23  1  0
  1 24  1  0
  1 25  1  0
  4 26  1  0
  5 27  1  0
  7 28  1  0
  7 29  1  0
  8 30  1  0
  8 31  1  0
 13 32  1  0
 14 33  1  0
 18 34  1  0
 19 35  1  0
 22 36  1  0
 22 37  1  0
 22 38  1  0
M  CHG  1   9  -1
M  END
>  <UniqueID>  (34) 
31

>  <SMILES>  (34) 
COc1ccc(CC[N-]C(=O)c2ccc(=O)oc2)cc1OC

>  <Energy>  (34) 
40.01772504611689

>  <Genealogy>  (34) 
COc1ccc(CC[N-]C(=O)c2ccc(=O)oc2)cc1OC (protonated)
COc1ccc(CC[N-]C(=O)c2ccc(=O)oc2)cc1OC (3D coordinates assigned)
COc1ccc(CC[N-]C(=O)c2ccc(=O)oc2)cc1OC (optimized conformer: 40.01772504611689 kcal/mol)

>  <smiles>  (34) 
COc1ccc(CCNC(=O)c2ccc(=O)oc2)cc1OC

>  <score_type>  (34) 
oracle

>  <origin>  (34) 
adg

>  <m_score__min__energy>  (34) 
-8.9000000000000004

>  <m_primary>  (34) 
energy

$$$$
34:0
     RDKit          3D

 62 65  0  0  0  0  0  0  0  0999 V2000
   57.7880   26.3660   42.6510 C   0  0  0  0  0  0  0  0  0  0  0  0
   58.4300   27.5530   43.3600 C   0  0  0  0  0  0  0  0  0  0  0  0
   57.5400   28.1440   44.4690 C   0  0  0  0  0  0  0  0  0  0  0  0
   58.2000   29.2780   45.1500 N   0  0  0  0  0  0  0  0  0  0  0  0
   59.3950   29.0820   45.8060 C   0  0  0  0  0  0  0  0  0  0  0  0
   59.9570   27.9530   45.8210 O   0  0  0  0  0  0  0  0  0  0  0  0
   59.9640   30.1550   46.4710 C   0  0  0  0  0  0  0  0  0  0  0  0
   61.0970   30.1960   47.1930 N   0  0  0  0  0  0  0  0  0  0  0  0
   61.1130   31.4790   47.6330 C   0  0  0  0  0  0  0  0  0  0  0  0
   62.1850   32.0300   48.4870 C   0  0  0  0  0  0  0  0  0  0  0  0
   62.2360   31.7130   49.8540 C   0  0  0  0  0  0  0  0  0  0  0  0
   63.2370   32.2520   50.6660 C   0  0  0  0  0  0  0  0  0  0  0  0
   64.1840   33.1370   50.1380 C   0  0  0  0  0  0  0  0  0  0  0  0
   65.1500   33.6680   51.0040 O   0  0  0  0  0  0  0  0  0  0  0  0
   66.5480   33.4380   50.9050 C   0  0  0  0  0  0  0  0  0  0  0  0
   66.8140   31.9690   51.0570 C   0  0  0  0  0  0  0  0  0  0  0  0
   67.4390   31.3680   50.1390 O   0  0  0  0  0  0  0  0  0  0  0  0
   66.3920   31.2240   52.2100 N   0  0  0  0  0  0  0  0  0  0  0  0
   65.4810   30.0780   52.2000 C   0  0  0  0  0  0  0  0  0  0  0  0
   66.1730   28.8600   51.6430 C   0  0  0  0  0  0  0  0  0  0  0  0
   65.5880   27.5920   51.7970 C   0  0  0  0  0  0  0  0  0  0  0  0
   66.2280   26.4690   51.2750 C   0  0  0  0  0  0  0  0  0  0  0  0
   67.4330   26.6170   50.5970 C   0  0  0  0  0  0  0  0  0  0  0  0
   67.9870   27.8930   50.4540 C   0  0  0  0  0  0  0  0  0  0  0  0
   67.3590   28.9820   50.9790 N   0  0  0  0  0  0  0  0  0  0  0  0
   64.1360   33.4590   48.7700 C   0  0  0  0  0  0  0  0  0  0  0  0
   63.1570   32.8910   47.9470 C   0  0  0  0  0  0  0  0  0  0  0  0
   60.0520   32.2190   47.2230 N   0  0  0  0  0  0  0  0  0  0  0  0
   59.3510   31.3480   46.4870 C   0  0  0  0  0  0  0  0  0  0  0  0
   58.1780   31.5780   45.8400 N   0  0  0  0  0  0  0  0  0  0  0  0
   57.5310   32.8970   45.9020 C   0  0  0  0  0  0  0  0  0  0  0  0
   58.1200   33.8600   44.8670 C   0  0  0  0  0  0  0  0  0  0  0  0
   59.2600   34.7080   45.4280 C   0  0  0  0  0  0  0  0  0  0  0  0
   57.6010   30.5240   45.1640 C   0  0  0  0  0  0  0  0  0  0  0  0
   56.5070   30.7000   44.5630 O   0  0  0  0  0  0  0  0  0  0  0  0
   57.4041   25.6562   43.3986 H   0  0  0  0  0  0  0  0  0  0  0  0
   56.9583   26.7199   42.0214 H   0  0  0  0  0  0  0  0  0  0  0  0
   58.5383   25.8653   42.0214 H   0  0  0  0  0  0  0  0  0  0  0  0
   59.3776   27.2220   43.8100 H   0  0  0  0  0  0  0  0  0  0  0  0
   58.5858   28.3407   42.6081 H   0  0  0  0  0  0  0  0  0  0  0  0
   56.5984   28.4952   44.0218 H   0  0  0  0  0  0  0  0  0  0  0  0
   57.3515   27.3575   45.2146 H   0  0  0  0  0  0  0  0  0  0  0  0
   61.4842   31.0371   50.2876 H   0  0  0  0  0  0  0  0  0  0  0  0
   63.2813   31.9782   51.7305 H   0  0  0  0  0  0  0  0  0  0  0  0
   66.9090   33.7784   49.9233 H   0  0  0  0  0  0  0  0  0  0  0  0
   67.0728   33.9942   51.6957 H   0  0  0  0  0  0  0  0  0  0  0  0
   65.1510   29.8686   53.2282 H   0  0  0  0  0  0  0  0  0  0  0  0
   64.6147   30.3170   51.5656 H   0  0  0  0  0  0  0  0  0  0  0  0
   64.6298   27.4859   52.3268 H   0  0  0  0  0  0  0  0  0  0  0  0
   65.7822   25.4710   51.3988 H   0  0  0  0  0  0  0  0  0  0  0  0
   67.9455   25.7389   50.1772 H   0  0  0  0  0  0  0  0  0  0  0  0
   68.9369   28.0183   49.9136 H   0  0  0  0  0  0  0  0  0  0  0  0
   67.8080   29.9200   50.8660 H   0  0  0  0  0  0  0  0  0  0  0  0
   64.8702   34.1595   48.3455 H   0  0  0  0  0  0  0  0  0  0  0  0
   63.1477   33.1194   46.8710 H   0  0  0  0  0  0  0  0  0  0  0  0
   56.4551   32.7769   45.7070 H   0  0  0  0  0  0  0  0  0  0  0  0
   57.7027   33.3190   46.9032 H   0  0  0  0  0  0  0  0  0  0  0  0
   58.5030   33.2732   44.0191 H   0  0  0  0  0  0  0  0  0  0  0  0
   57.3174   34.5464   44.5592 H   0  0  0  0  0  0  0  0  0  0  0  0
   59.2280   34.6842   46.5273 H   0  0  0  0  0  0  0  0  0  0  0  0
   60.2225   34.3046   45.0804 H   0  0  0  0  0  0  0  0  0  0  0  0
   59.1504   35.7458   45.0804 H   0  0  0  0  0  0  0  0  0  0  0  0
  1  2  1  0
  2  3  1  0
  3  4  1  0
  4  5  1  0
  5  6  2  0
  5  7  1  0
  7  8  1  0
  8  9  1  0
  9 10  1  0
 10 11  2  0
 11 12  1  0
 12 13  2  0
 13 14  1  0
 14 15  1  0
 15 16  1  0
 16 17  2  0
 16 18  1  0
 18 19  1  0
 19 20  1  0
 20 21  2  0
 21 22  1  0
 22 23  2  0
 23 24  1  0
 24 25  2  0
 13 26  1  0
 26 27  2  0
  9 28  2  0
 28 29  1  0
 29 30  1  0
 30 31  1  0
 31 32  1  0
 32 33  1  0
 30 34  1  0
 34 35  2  0
 34  4  1  0
 29  7  2  0
 27 10  1  0
 25 20  1  0
  1 36  1  0
  1 37  1  0
  1 38  1  0
  2 39  1  0
  2 40  1  0
  3 41  1  0
  3 42  1  0
 11 43  1  0
 12 44  1  0
 15 45  1  0
 15 46  1  0
 19 47  1  0
 19 48  1  0
 21 49  1  0
 22 50  1  0
 23 51  1  0
 24 52  1  0
 25 53  1  0
 26 54  1  0
 27 55  1  0
 31 56  1  0
 31 57  1  0
 32 58  1  0
 32 59  1  0
 33 60  1  0
 33 61  1  0
 33 62  1  0
M  CHG  3   8  -1  18  -1  25   1
M  END
>  <UniqueID>  (35) 
32

>  <SMILES>  (35) 
CCCn1c(=O)c2[n-]c(-c3ccc(OCC(=O)[N-]Cc4cccc[nH+]4)cc3)nc2n(CCC)c1=O

>  <Energy>  (35) 
95.68854670703512

>  <Genealogy>  (35) 
CCCn1c(=O)c2[n-]c(-c3ccc(OCC(=O)[N-]Cc4cccc[nH+]4)cc3)nc2n(CCC)c1=O (protonated)
CCCn1c(=O)c2[n-]c(-c3ccc(OCC(=O)[N-]Cc4cccc[nH+]4)cc3)nc2n(CCC)c1=O (3D coordinates assigned)
CCCn1c(=O)c2[n-]c(-c3ccc(OCC(=O)[N-]Cc4cccc[nH+]4)cc3)nc2n(CCC)c1=O (optimized conformer: 95.68854670703512 kcal/mol)

>  <smiles>  (35) 
CCCn1c(=O)c2[nH]c(-c3ccc(OCC(=O)NCc4ccccn4)cc3)nc2n(CCC)c1=O

>  <score_type>  (35) 
oracle

>  <origin>  (35) 
adg

>  <m_score__min__energy>  (35) 
-8.6400000000000006

>  <m_primary>  (35) 
energy

$$$$
35:0
     RDKit          3D

 39 42  0  0  0  0  0  0  0  0999 V2000
   54.8030   28.3890   44.4910 H   0  0  0  0  0  0  0  0  0  0  0  0
   55.1680   29.3360   44.7370 N   0  0  0  0  0  0  0  0  0  0  0  0
   56.4150   29.5220   45.0320 C   0  0  0  0  0  0  0  0  0  0  0  0
   56.9150   30.7810   45.2050 N   0  0  0  0  0  0  0  0  0  0  0  0
   58.2310   31.0110   45.5200 C   0  0  0  0  0  0  0  0  0  0  0  0
   58.7080   32.4080   45.6890 C   0  0  0  0  0  0  0  0  0  0  0  0
   58.2850   33.4360   44.8280 C   0  0  0  0  0  0  0  0  0  0  0  0
   57.5825   33.2104   44.0121 H   0  0  0  0  0  0  0  0  0  0  0  0
   58.7500   34.7410   45.0010 C   0  0  0  0  0  0  0  0  0  0  0  0
   58.4079   35.5385   44.3251 H   0  0  0  0  0  0  0  0  0  0  0  0
   59.6480   35.0380   46.0290 C   0  0  0  0  0  0  0  0  0  0  0  0
   60.0068   36.0691   46.1632 H   0  0  0  0  0  0  0  0  0  0  0  0
   60.0940   34.0230   46.8920 C   0  0  0  0  0  0  0  0  0  0  0  0
   61.0200   34.2770   47.9580 N   0  0  0  0  0  0  0  0  0  0  0  0
   62.5290   33.4610   48.2100 S   0  0  0  0  0  0  0  0  0  0  0  0
   63.2730   34.0960   49.3520 O   0  0  0  0  0  0  0  0  0  0  0  0
   62.2500   32.0260   48.5540 O   0  0  0  0  0  0  0  0  0  0  0  0
   63.5080   33.5110   46.7250 C   0  0  0  0  0  0  0  0  0  0  0  0
   64.5741   33.5655   46.9903 H   0  0  0  0  0  0  0  0  0  0  0  0
   63.3234   32.6023   46.1333 H   0  0  0  0  0  0  0  0  0  0  0  0
   63.2317   34.3962   46.1333 H   0  0  0  0  0  0  0  0  0  0  0  0
   59.6220   32.7160   46.7140 C   0  0  0  0  0  0  0  0  0  0  0  0
   59.9712   31.9181   47.3858 H   0  0  0  0  0  0  0  0  0  0  0  0
   59.1000   29.9040   45.6550 C   0  0  0  0  0  0  0  0  0  0  0  0
   60.1649   30.0404   45.8947 H   0  0  0  0  0  0  0  0  0  0  0  0
   58.5720   28.6690   45.4780 N   0  0  0  0  0  0  0  0  0  0  0  0
   57.2890   28.4500   45.1790 C   0  0  0  0  0  0  0  0  0  0  0  0
   57.0110   27.1350   45.0460 N   0  0  0  0  0  0  0  0  0  0  0  0
   58.2300   26.5800   45.2870 C   0  0  0  0  0  0  0  0  0  0  0  0
   58.4830   25.1340   45.2650 C   0  0  0  0  0  0  0  0  0  0  0  0
   59.5310   24.5640   45.8150 O   0  0  0  0  0  0  0  0  0  0  0  0
   59.4540   23.2690   45.6150 C   0  0  0  0  0  0  0  0  0  0  0  0
   60.1915   22.5301   45.9617 H   0  0  0  0  0  0  0  0  0  0  0  0
   58.3080   22.9740   44.9040 C   0  0  0  0  0  0  0  0  0  0  0  0
   57.9662   21.9788   44.5836 H   0  0  0  0  0  0  0  0  0  0  0  0
   57.6790   24.1790   44.6770 C   0  0  0  0  0  0  0  0  0  0  0  0
   56.7337   24.3449   44.1395 H   0  0  0  0  0  0  0  0  0  0  0  0
   59.1800   27.5040   45.5490 N   0  0  0  0  0  0  0  0  0  0  0  0
   60.1920   27.3510   45.7640 H   0  0  0  0  0  0  0  0  0  0  0  0
  1  2  1  0
  2  3  2  0
  3  4  1  0
  4  5  1  0
  5  6  1  0
  6  7  2  0
  7  8  1  0
  7  9  1  0
  9 10  1  0
  9 11  2  0
 11 12  1  0
 11 13  1  0
 13 14  1  0
 14 15  1  0
 15 16  2  0
 15 17  2  0
 15 18  1  0
 18 19  1  0
 18 20  1  0
 18 21  1  0
 13 22  2  0
 22 23  1  0
  5 24  2  0
 24 25  1  0
 24 26  1  0
 26 27  1  0
 27 28  2  0
 28 29  1  0
 29 30  1  0
 30 31  1  0
 31 32  1  0
 32 33  1  0
 32 34  2  0
 34 35  1  0
 34 36  1  0
 36 37  1  0
 29 38  2  0
 38 39  1  0
 27  3  1  0
 36 30  2  0
 22  6  1  0
 38 26  1  0
M  CHG  3   4  -1  14  -1  38   1
M  END
>  <UniqueID>  (36) 
33

>  <SMILES>  (36) 
[H]/N=c1\[n-]c(-c2cccc([N-]S(C)(=O)=O)c2)cn2[nH+]c(-c3ccco3)nc12

>  <Energy>  (36) 
112.7554059405701

>  <Genealogy>  (36) 
CS(=O)(=O)[N-]c1cccc(-c2cn3[nH+]c(-c4ccco4)nc3c(=N)[n-]2)c1 (protonated)
[H]/N=c1\[n-]c(-c2cccc([N-]S(C)(=O)=O)c2)cn2[nH+]c(-c3ccco3)nc12 (cis-trans isomerization)
[H]/N=c1\[n-]c(-c2cccc([N-]S(C)(=O)=O)c2)cn2[nH+]c(-c3ccco3)nc12 (3D coordinates assigned)
[H]/N=c1\[n-]c(-c2cccc([N-]S(C)(=O)=O)c2)cn2[nH+]c(-c3ccco3)nc12 (optimized conformer: 112.7554059405701 kcal/mol)

>  <smiles>  (36) 
CS(=O)(=O)Nc1cccc(-c2cn3nc(-c4ccco4)nc3c(=N)[nH]2)c1

>  <score_type>  (36) 
oracle

>  <origin>  (36) 
adg

>  <m_score__min__energy>  (36) 
-10.07

>  <m_primary>  (36) 
energy

$$$$
36:0
     RDKit          3D

 32 34  0  0  1  0  0  0  0  0999 V2000
   57.1690   30.0390   43.5420 C   0  0  0  0  0  0  0  0  0  0  0  0
   56.7460   29.3830   44.8720 C   0  0  0  0  0  0  0  0  0  0  0  0
   55.5210   29.3740   44.9820 O   0  0  0  0  0  0  0  0  0  0  0  0
   57.8380   28.9400   45.6820 C   0  0  0  0  0  0  0  0  0  0  0  0
   58.2930   27.6190   45.4450 C   0  0  0  0  0  0  0  0  0  0  0  0
   59.1890   27.0110   46.3160 C   0  0  0  0  0  0  0  0  0  0  0  0
   59.6350   25.6560   46.0440 C   0  0  0  0  0  0  0  0  0  0  0  0
   59.9780   24.5720   45.8190 N   0  0  0  0  0  0  0  0  0  0  0  0
   59.6660   27.6480   47.4250 C   0  0  0  0  0  0  0  0  0  0  0  0
   59.2350   28.9030   47.6440 N   0  0  0  0  0  0  0  0  0  0  0  0
   58.3580   29.5140   46.7970 C   0  0  0  0  0  0  0  0  0  0  0  0
   58.2050   30.7550   46.9720 N   0  0  0  0  0  0  0  0  0  0  0  0
   59.0970   31.8110   46.8360 C   0  0  0  0  0  0  0  0  0  0  0  0
   58.7740   32.9420   46.0610 C   0  0  0  0  0  0  0  0  0  0  0  0
   57.1970   33.1250   45.3260 Cl  0  0  0  0  0  0  0  0  0  0  0  0
   59.6990   33.9400   45.8370 C   0  0  0  0  0  0  0  0  0  0  0  0
   59.2870   35.3430   44.8730 Cl  0  0  0  0  0  0  0  0  0  0  0  0
   60.9580   33.8270   46.3800 C   0  0  0  0  0  0  0  0  0  0  0  0
   61.2870   32.7200   47.1410 C   0  0  0  0  0  0  0  0  0  0  0  0
   62.4510   32.3980   47.7670 N   0  0  0  0  0  0  0  0  0  0  0  0
   62.2620   31.2050   48.3830 C   0  0  0  0  0  0  0  0  0  0  0  0
   60.9910   30.7750   48.1490 N   0  0  0  0  0  0  0  0  0  0  0  0
   60.3910   31.6960   47.3910 C   0  0  0  0  0  0  0  0  0  0  0  0
   57.7543   30.9467   43.7507 H   0  0  0  0  0  0  0  0  0  0  0  0
   57.7820   29.3324   42.9633 H   0  0  0  0  0  0  0  0  0  0  0  0
   56.2724   30.3058   42.9633 H   0  0  0  0  0  0  0  0  0  0  0  0
   57.9333   27.0693   44.5627 H   0  0  0  0  0  0  0  0  0  0  0  0
   60.3724   27.1562   48.1099 H   0  0  0  0  0  0  0  0  0  0  0  0
   59.6050   29.3800   48.4940 H   0  0  0  0  0  0  0  0  0  0  0  0
   61.7034   34.6176   46.2088 H   0  0  0  0  0  0  0  0  0  0  0  0
   63.3120   32.9950   47.7500 H   0  0  0  0  0  0  0  0  0  0  0  0
   63.0162   30.6690   48.9779 H   0  0  0  0  0  0  0  0  0  0  0  0
  1  2  1  0
  2  3  2  0
  2  4  1  0
  4  5  2  0
  5  6  1  0
  6  7  1  0
  7  8  3  0
  6  9  2  0
  9 10  1  0
 10 11  1  0
 11 12  2  0
 12 13  1  0
 13 14  2  0
 14 15  1  0
 14 16  1  0
 16 17  1  0
 16 18  2  0
 18 19  1  0
 19 20  1  0
 20 21  1  0
 21 22  2  0
 22 23  1  0
 11  4  1  0
 23 13  1  0
 23 19  2  0
  1 24  1  0
  1 25  1  0
  1 26  1  0
  5 27  1  0
  9 28  1  0
 10 29  1  0
 18 30  1  0
 20 31  1  0
 21 32  1  0
M  END
>  <smiles>  (37) 
CC(=O)c1cc(C#N)c[nH]c1=Nc1c(Cl)c(Cl)cc2[nH]cnc12

>  <score_type>  (37) 
oracle

>  <origin>  (37) 
adg

>  <m_score__min__energy>  (37) 
-7.4500000000000002

>  <m_primary>  (37) 
energy

$$$$
37:0
     RDKit          3D

 54 56  0  0  0  0  0  0  0  0999 V2000
   62.8540   33.8140   47.6410 C   0  0  0  0  0  0  0  0  0  0  0  0
   62.7220   33.8740   49.1610 C   0  0  0  0  0  0  0  0  0  0  0  0
   61.2580   33.8610   49.6240 C   0  0  0  0  0  0  0  0  0  0  0  0
   60.4010   33.1000   48.6900 N   0  0  0  0  0  0  0  0  0  0  0  0
   60.5930   31.7460   48.5230 C   0  0  0  0  0  0  0  0  0  0  0  0
   61.4710   31.1260   49.1810 O   0  0  0  0  0  0  0  0  0  0  0  0
   59.7810   31.0710   47.6160 C   0  0  0  0  0  0  0  0  0  0  0  0
   58.8180   31.7370   46.9350 C   0  0  0  0  0  0  0  0  0  0  0  0
   58.1210   30.8980   46.1440 N   0  0  0  0  0  0  0  0  0  0  0  0
   58.7140   29.7000   46.3850 C   0  0  0  0  0  0  0  0  0  0  0  0
   58.2490   28.4820   45.7830 N   0  0  0  0  0  0  0  0  0  0  0  0
   57.8050   27.3730   46.6440 C   0  0  0  0  0  0  0  0  0  0  0  0
   56.8560   26.4310   45.8950 C   0  0  0  0  0  0  0  0  0  0  0  0
   57.4680   25.9530   44.5680 C   0  0  0  0  0  0  0  0  0  0  0  0
   58.1640   27.0830   43.7570 C   0  0  1  0  0  0  0  0  0  0  0  0
   57.7550   27.0450   42.3490 N   0  0  0  0  0  0  0  0  0  0  0  0
   57.9120   28.4820   44.3540 C   0  0  0  0  0  0  0  0  0  0  0  0
   59.7510   29.7710   47.2630 N   0  0  0  0  0  0  0  0  0  0  0  0
   60.6500   28.6950   47.6800 C   0  0  0  0  0  0  0  0  0  0  0  0
   58.6120   33.0740   47.0830 N   0  0  0  0  0  0  0  0  0  0  0  0
   57.5440   33.7600   46.3320 C   0  0  0  0  0  0  0  0  0  0  0  0
   57.9870   34.0870   44.8990 C   0  0  0  0  0  0  0  0  0  0  0  0
   59.2470   34.9490   44.8610 C   0  0  0  0  0  0  0  0  0  0  0  0
   59.4180   33.7580   47.9680 C   0  0  0  0  0  0  0  0  0  0  0  0
   59.2530   35.0020   48.1240 O   0  0  0  0  0  0  0  0  0  0  0  0
   63.8256   33.3724   47.3745 H   0  0  0  0  0  0  0  0  0  0  0  0
   62.0441   33.1956   47.2267 H   0  0  0  0  0  0  0  0  0  0  0  0
   62.7874   34.8308   47.2267 H   0  0  0  0  0  0  0  0  0  0  0  0
   63.2371   33.0041   49.5946 H   0  0  0  0  0  0  0  0  0  0  0  0
   63.1715   34.8194   49.4989 H   0  0  0  0  0  0  0  0  0  0  0  0
   61.2021   33.3965   50.6196 H   0  0  0  0  0  0  0  0  0  0  0  0
   60.8968   34.8995   49.6556 H   0  0  0  0  0  0  0  0  0  0  0  0
   58.6853   26.8038   46.9774 H   0  0  0  0  0  0  0  0  0  0  0  0
   57.2660   27.7962   47.5044 H   0  0  0  0  0  0  0  0  0  0  0  0
   56.6475   25.5560   46.5282 H   0  0  0  0  0  0  0  0  0  0  0  0
   55.9303   26.9809   45.6699 H   0  0  0  0  0  0  0  0  0  0  0  0
   58.2135   25.1751   44.7897 H   0  0  0  0  0  0  0  0  0  0  0  0
   56.6399   25.5769   43.9493 H   0  0  0  0  0  0  0  0  0  0  0  0
   59.2459   26.8946   43.8194 H   0  0  0  0  0  0  0  0  0  0  0  0
   58.2380   26.2550   41.8630 H   0  0  0  0  0  0  0  0  0  0  0  0
   56.7190   26.9180   42.2720 H   0  0  0  0  0  0  0  0  0  0  0  0
   58.0250   27.9380   41.8740 H   0  0  0  0  0  0  0  0  0  0  0  0
   58.5381   29.2201   43.8313 H   0  0  0  0  0  0  0  0  0  0  0  0
   56.8504   28.7428   44.2316 H   0  0  0  0  0  0  0  0  0  0  0  0
   60.6858   28.6522   48.7786 H   0  0  0  0  0  0  0  0  0  0  0  0
   60.2809   27.7360   47.2875 H   0  0  0  0  0  0  0  0  0  0  0  0
   61.6594   28.8877   47.2875 H   0  0  0  0  0  0  0  0  0  0  0  0
   56.6588   33.1081   46.2928 H   0  0  0  0  0  0  0  0  0  0  0  0
   57.3115   34.7043   46.8461 H   0  0  0  0  0  0  0  0  0  0  0  0
   58.1874   33.1449   44.3677 H   0  0  0  0  0  0  0  0  0  0  0  0
   57.1770   34.6561   44.4194 H   0  0  0  0  0  0  0  0  0  0  0  0
   59.5708   35.1705   45.8886 H   0  0  0  0  0  0  0  0  0  0  0  0
   60.0460   34.4074   44.3335 H   0  0  0  0  0  0  0  0  0  0  0  0
   59.0318   35.8900   44.3335 H   0  0  0  0  0  0  0  0  0  0  0  0
  1  2  1  0
  2  3  1  0
  3  4  1  0
  4  5  1  0
  5  6  2  0
  5  7  1  0
  7  8  2  0
  8  9  1  0
  9 10  2  0
 10 11  1  0
 11 12  1  0
 12 13  1  0
 13 14  1  0
 14 15  1  0
 15 16  1  0
 15 17  1  0
 10 18  1  0
 18 19  1  0
  8 20  1  0
 20 21  1  0
 21 22  1  0
 22 23  1  0
 20 24  1  0
 24 25  2  0
 24  4  1  0
 18  7  1  0
 17 11  1  0
  1 26  1  0
  1 27  1  0
  1 28  1  0
  2 29  1  0
  2 30  1  0
  3 31  1  0
  3 32  1  0
 12 33  1  0
 12 34  1  0
 13 35  1  0
 13 36  1  0
 14 37  1  0
 14 38  1  0
 15 39  1  6
 16 40  1  0
 16 41  1  0
 16 42  1  0
 17 43  1  0
 17 44  1  0
 19 45  1  0
 19 46  1  0
 19 47  1  0
 21 48  1  0
 21 49  1  0
 22 50  1  0
 22 51  1  0
 23 52  1  0
 23 53  1  0
 23 54  1  0
M  CHG  1  16   1
M  END
>  <UniqueID>  (38) 
34

>  <SMILES>  (38) 
CCCn1c(=O)c2c(nc(N3CCC[C@@H]([NH3+])C3)n2C)n(CCC)c1=O

>  <Energy>  (38) 
95.90619267890524

>  <Genealogy>  (38) 
CCCn1c(=O)c2c(nc(N3CCCC([NH3+])C3)n2C)n(CCC)c1=O (protonated)
CCCn1c(=O)c2c(nc(N3CCC[C@@H]([NH3+])C3)n2C)n(CCC)c1=O (chirality)
CCCn1c(=O)c2c(nc(N3CCC[C@@H]([NH3+])C3)n2C)n(CCC)c1=O (3D coordinates assigned)
CCCn1c(=O)c2c(nc(N3CCC[C@@H]([NH3+])C3)n2C)n(CCC)c1=O (nonaromatic ring conformer: 95.90619267890524 kcal/mol)

>  <smiles>  (38) 
CCCn1c(=O)c2c(nc(N3CCCC(N)C3)n2C)n(CCC)c1=O

>  <score_type>  (38) 
oracle

>  <origin>  (38) 
adg

>  <m_score__min__energy>  (38) 
-5.5599999999999996

>  <m_primary>  (38) 
energy

$$$$
38:0
     RDKit          3D

 30 31  0  0  0  0  0  0  0  0999 V2000
   57.6570   21.4920   43.3330 C   0  0  0  0  0  0  0  0  0  0  0  0
   56.6970   22.5330   43.8010 C   0  0  0  0  0  0  0  0  0  0  0  0
   56.9340   23.4800   44.7730 C   0  0  0  0  0  0  0  0  0  0  0  0
   55.7390   24.1690   44.8420 C   0  0  0  0  0  0  0  0  0  0  0  0
   55.4400   25.2960   45.7310 C   0  0  0  0  0  0  0  0  0  0  0  0
   54.3380   25.9000   45.6280 O   0  0  0  0  0  0  0  0  0  0  0  0
   56.3950   25.7020   46.7140 N   0  0  0  0  0  0  0  0  0  0  0  0
   57.2630   26.8600   46.5440 C   0  0  0  0  0  0  0  0  0  0  0  0
   58.1940   26.6610   45.3450 C   0  0  0  0  0  0  0  0  0  0  0  0
   58.8240   27.9690   44.8450 C   0  0  0  0  0  0  0  0  0  0  0  0
   57.8000   28.9640   44.5290 N   0  0  0  0  0  0  0  0  0  0  0  0
   57.0250   29.0060   43.4340 C   0  0  0  0  0  0  0  0  0  0  0  0
   56.1730   30.0810   43.5630 C   0  0  0  0  0  0  0  0  0  0  0  0
   56.4050   30.7060   44.7360 N   0  0  0  0  0  0  0  0  0  0  0  0
   57.4040   29.9950   45.3000 C   0  0  0  0  0  0  0  0  0  0  0  0
   54.8610   23.6480   43.9620 N   0  0  0  0  0  0  0  0  0  0  0  0
   55.4700   22.6690   43.3580 O   0  0  0  0  0  0  0  0  0  0  0  0
   58.1136   20.9968   44.2027 H   0  0  0  0  0  0  0  0  0  0  0  0
   57.1225   20.7468   42.7256 H   0  0  0  0  0  0  0  0  0  0  0  0
   58.4430   21.9646   42.7256 H   0  0  0  0  0  0  0  0  0  0  0  0
   57.8530   23.6471   45.3539 H   0  0  0  0  0  0  0  0  0  0  0  0
   56.6447   27.7545   46.3777 H   0  0  0  0  0  0  0  0  0  0  0  0
   57.8728   26.9837   47.4511 H   0  0  0  0  0  0  0  0  0  0  0  0
   59.0013   25.9742   45.6394 H   0  0  0  0  0  0  0  0  0  0  0  0
   57.5861   26.2556   44.5227 H   0  0  0  0  0  0  0  0  0  0  0  0
   59.4848   28.3706   45.6273 H   0  0  0  0  0  0  0  0  0  0  0  0
   59.3931   27.7528   43.9288 H   0  0  0  0  0  0  0  0  0  0  0  0
   57.0632   28.3072   42.5854 H   0  0  0  0  0  0  0  0  0  0  0  0
   55.4183   30.3837   42.8222 H   0  0  0  0  0  0  0  0  0  0  0  0
   57.8453   30.2311   46.2795 H   0  0  0  0  0  0  0  0  0  0  0  0
  1  2  1  0
  2  3  2  0
  3  4  1  0
  4  5  1  0
  5  6  2  0
  5  7  1  0
  7  8  1  0
  8  9  1  0
  9 10  1  0
 10 11  1  0
 11 12  1  0
 12 13  2  0
 13 14  1  0
 14 15  2  0
  4 16  2  0
 16 17  1  0
 17  2  1  0
 15 11  1  0
  1 18  1  0
  1 19  1  0
  1 20  1  0
  3 21  1  0
  8 22  1  0
  8 23  1  0
  9 24  1  0
  9 25  1  0
 10 26  1  0
 10 27  1  0
 12 28  1  0
 13 29  1  0
 15 30  1  0
M  CHG  1   7  -1
M  END
>  <UniqueID>  (39) 
35

>  <SMILES>  (39) 
Cc1cc(C(=O)[N-]CCCn2ccnc2)no1

>  <Energy>  (39) 
79.3277173498797

>  <Genealogy>  (39) 
Cc1cc(C(=O)[N-]CCCn2ccnc2)no1 (protonated)
Cc1cc(C(=O)[N-]CCCn2ccnc2)no1 (3D coordinates assigned)
Cc1cc(C(=O)[N-]CCCn2ccnc2)no1 (optimized conformer: 79.3277173498797 kcal/mol)

>  <smiles>  (39) 
Cc1cc(C(=O)NCCCn2ccnc2)no1

>  <score_type>  (39) 
oracle

>  <origin>  (39) 
adg

>  <m_score__min__energy>  (39) 
-8.4299999999999997

>  <m_primary>  (39) 
energy

$$$$
39:0
     RDKit          3D

 51 54  0  0  0  0  0  0  0  0999 V2000
   58.5430   34.2940   45.3400 C   0  0  0  0  0  0  0  0  0  0  0  0
   57.3940   33.4060   44.8700 C   0  0  0  0  0  0  0  0  0  0  0  0
   57.7600   32.6570   43.5860 C   0  0  0  0  0  0  0  0  0  0  0  0
   57.1520   30.9780   43.6360 S   0  0  0  0  0  0  0  0  0  0  0  0
   55.9950   30.8540   44.5840 O   0  0  0  0  0  0  0  0  0  0  0  0
   56.6870   30.5920   42.2590 O   0  0  0  0  0  0  0  0  0  0  0  0
   58.4250   29.9020   44.1160 N   0  0  0  0  0  0  0  0  0  0  0  0
   58.8900   29.7330   45.4680 C   0  0  0  0  0  0  0  0  0  0  0  0
   59.5200   28.5320   45.8270 C   0  0  0  0  0  0  0  0  0  0  0  0
   59.9870   28.3330   47.1280 C   0  0  0  0  0  0  0  0  0  0  0  0
   59.8510   29.3380   48.0910 C   0  0  0  0  0  0  0  0  0  0  0  0
   60.3400   29.1000   49.4180 N   0  0  0  0  0  0  0  0  0  0  0  0
   61.4190   29.6280   49.9110 C   0  0  0  0  0  0  0  0  0  0  0  0
   61.8370   30.8460   49.4500 N   0  0  0  0  0  0  0  0  0  0  0  0
   62.9580   31.3840   49.9870 C   0  0  0  0  0  0  0  0  0  0  0  0
   63.6740   30.7590   50.9520 C   0  0  0  0  0  0  0  0  0  0  0  0
   64.7450   31.5830   51.2140 C   0  0  0  0  0  0  0  0  0  0  0  0
   64.6490   32.6680   50.4040 N   0  0  0  0  0  0  0  0  0  0  0  0
   63.5480   32.5470   49.6660 N   0  0  0  0  0  0  0  0  0  0  0  0
   63.1380   33.4760   48.6060 C   0  0  0  0  0  0  0  0  0  0  0  0
   63.2320   32.8530   47.2190 C   0  0  0  0  0  0  0  0  0  0  0  0
   62.2200   33.6160   46.3760 C   0  0  0  0  0  0  0  0  0  0  0  0
   61.1950   34.2060   47.3460 C   0  0  0  0  0  0  0  0  0  0  0  0
   61.6810   33.8860   48.7560 C   0  0  0  0  0  0  0  0  0  0  0  0
   63.2650   29.5270   51.4350 C   0  0  0  0  0  0  0  0  0  0  0  0
   62.1320   28.9850   50.8990 N   0  0  0  0  0  0  0  0  0  0  0  0
   59.1910   30.5370   47.7520 C   0  0  0  0  0  0  0  0  0  0  0  0
   58.8820   31.7850   48.9540 Cl  0  0  0  0  0  0  0  0  0  0  0  0
   58.7210   30.7310   46.4480 C   0  0  0  0  0  0  0  0  0  0  0  0
   58.5663   34.3120   46.4396 H   0  0  0  0  0  0  0  0  0  0  0  0
   59.4946   33.8943   44.9596 H   0  0  0  0  0  0  0  0  0  0  0  0
   58.3961   35.3156   44.9596 H   0  0  0  0  0  0  0  0  0  0  0  0
   57.1611   32.6744   45.6577 H   0  0  0  0  0  0  0  0  0  0  0  0
   56.5230   34.0452   44.6631 H   0  0  0  0  0  0  0  0  0  0  0  0
   57.3135   33.1768   42.7255 H   0  0  0  0  0  0  0  0  0  0  0  0
   58.8557   32.6326   43.4921 H   0  0  0  0  0  0  0  0  0  0  0  0
   58.8990   29.3730   43.3530 H   0  0  0  0  0  0  0  0  0  0  0  0
   59.6475   27.7387   45.0758 H   0  0  0  0  0  0  0  0  0  0  0  0
   60.4650   27.3795   47.3971 H   0  0  0  0  0  0  0  0  0  0  0  0
   65.5397   31.3951   51.9509 H   0  0  0  0  0  0  0  0  0  0  0  0
   63.8217   34.3319   48.7054 H   0  0  0  0  0  0  0  0  0  0  0  0
   64.2457   32.9729   46.8090 H   0  0  0  0  0  0  0  0  0  0  0  0
   63.0253   31.7727   47.2360 H   0  0  0  0  0  0  0  0  0  0  0  0
   62.7212   34.4209   45.8184 H   0  0  0  0  0  0  0  0  0  0  0  0
   61.7357   32.9534   45.6436 H   0  0  0  0  0  0  0  0  0  0  0  0
   61.1271   35.2952   47.2077 H   0  0  0  0  0  0  0  0  0  0  0  0
   60.1961   33.7808   47.1687 H   0  0  0  0  0  0  0  0  0  0  0  0
   61.5966   34.7729   49.4013 H   0  0  0  0  0  0  0  0  0  0  0  0
   61.0811   33.0900   49.2213 H   0  0  0  0  0  0  0  0  0  0  0  0
   63.8313   29.0050   52.2204 H   0  0  0  0  0  0  0  0  0  0  0  0
   58.2148   31.6717   46.1858 H   0  0  0  0  0  0  0  0  0  0  0  0
  1  2  1  0
  2  3  1  0
  3  4  1  0
  4  5  2  0
  4  6  2  0
  4  7  1  0
  7  8  1  0
  8  9  2  0
  9 10  1  0
 10 11  2  0
 11 12  1  0
 12 13  2  3
 13 14  1  0
 14 15  2  0
 15 16  1  0
 16 17  1  0
 17 18  2  0
 18 19  1  0
 19 20  1  0
 20 21  1  0
 21 22  1  0
 22 23  1  0
 23 24  1  0
 16 25  2  0
 25 26  1  0
 11 27  1  0
 27 28  1  0
 27 29  2  0
 29  8  1  0
 26 13  1  0
 19 15  1  0
 24 20  1  0
  1 30  1  0
  1 31  1  0
  1 32  1  0
  2 33  1  0
  2 34  1  0
  3 35  1  0
  3 36  1  0
  7 37  1  0
  9 38  1  0
 10 39  1  0
 17 40  1  0
 20 41  1  0
 21 42  1  0
 21 43  1  0
 22 44  1  0
 22 45  1  0
 23 46  1  0
 23 47  1  0
 24 48  1  0
 24 49  1  0
 25 50  1  0
 29 51  1  0
M  CHG  1  26  -1
M  END
>  <UniqueID>  (40) 
36

>  <SMILES>  (40) 
CCCS(=O)(=O)Nc1ccc(N=c2nc3c(cnn3C3CCCC3)c[n-]2)c(Cl)c1

>  <Energy>  (40) 
99.44692836592793

>  <Genealogy>  (40) 
CCCS(=O)(=O)Nc1ccc(N=c2nc3c(cnn3C3CCCC3)c[n-]2)c(Cl)c1 (protonated)
CCCS(=O)(=O)Nc1ccc(N=c2nc3c(cnn3C3CCCC3)c[n-]2)c(Cl)c1 (3D coordinates assigned)
CCCS(=O)(=O)Nc1ccc(N=c2nc3c(cnn3C3CCCC3)c[n-]2)c(Cl)c1 (nonaromatic ring conformer: 99.44692836592793 kcal/mol)

>  <smiles>  (40) 
CCCS(=O)(=O)Nc1ccc(N=c2nc3c(cnn3C3CCCC3)c[nH]2)c(Cl)c1

>  <score_type>  (40) 
oracle

>  <origin>  (40) 
adg

>  <m_score__min__energy>  (40) 
-10.58

>  <m_primary>  (40) 
energy

$$$$
40:0
     RDKit          3D

 54 58  0  0  0  0  0  0  0  0999 V2000
   55.6145   30.6655   42.6916 H   0  0  0  0  0  0  0  0  0  0  0  0
   56.4670   30.4890   43.3640 C   0  0  0  0  0  0  0  0  0  0  0  0
   56.8660   29.2240   43.5530 C   0  0  0  0  0  0  0  0  0  0  0  0
   56.9384   28.5534   42.6841 H   0  0  0  0  0  0  0  0  0  0  0  0
   57.2110   28.7020   44.8870 C   0  0  0  0  0  0  0  0  0  0  0  0
   56.5250   27.7010   45.4860 N   0  0  0  0  0  0  0  0  0  0  0  0
   57.0520   27.4650   46.6840 N   0  0  0  0  0  0  0  0  0  0  0  0
   58.0830   28.3110   46.8430 C   0  0  0  0  0  0  0  0  0  0  0  0
   58.9420   28.4060   47.9340 C   0  0  0  0  0  0  0  0  0  0  0  0
   58.7999   27.7778   48.8257 H   0  0  0  0  0  0  0  0  0  0  0  0
   60.0000   29.3340   47.8580 C   0  0  0  0  0  0  0  0  0  0  0  0
   61.1480   29.5010   49.2260 S   0  0  0  0  0  0  0  0  0  0  0  0
   60.1760   30.7930   50.0210 C   0  0  0  0  0  0  0  0  0  0  0  0
   58.8340   30.9540   49.6470 C   0  0  0  0  0  0  0  0  0  0  0  0
   58.3834   30.2658   48.9167 H   0  0  0  0  0  0  0  0  0  0  0  0
   58.0660   31.9840   50.1970 C   0  0  0  0  0  0  0  0  0  0  0  0
   57.0132   32.1025   49.9011 H   0  0  0  0  0  0  0  0  0  0  0  0
   58.6340   32.8630   51.1220 C   0  0  0  0  0  0  0  0  0  0  0  0
   58.0319   33.6815   51.5432 H   0  0  0  0  0  0  0  0  0  0  0  0
   59.9660   32.7040   51.5130 C   0  0  0  0  0  0  0  0  0  0  0  0
   60.4110   33.4030   52.2364 H   0  0  0  0  0  0  0  0  0  0  0  0
   60.7400   31.6560   50.9870 C   0  0  0  0  0  0  0  0  0  0  0  0
   62.1200   31.4790   51.4760 C   0  0  0  0  0  0  0  0  0  0  0  0
   62.3710   30.5430   52.2800 O   0  0  0  0  0  0  0  0  0  0  0  0
   63.1910   32.3200   51.0310 N   0  0  0  0  0  0  0  0  0  0  0  0
   63.0380   33.6860   50.5350 C   0  0  0  0  0  0  0  0  0  0  0  0
   62.3339   34.2294   51.1823 H   0  0  0  0  0  0  0  0  0  0  0  0
   64.0207   34.1801   50.5447 H   0  0  0  0  0  0  0  0  0  0  0  0
   62.5100   33.6790   49.1240 C   0  0  0  0  0  0  0  0  0  0  0  0
   63.3140   33.2290   48.0610 C   0  0  0  0  0  0  0  0  0  0  0  0
   64.3270   32.8512   48.2638 H   0  0  0  0  0  0  0  0  0  0  0  0
   62.8330   33.2590   46.7470 C   0  0  0  0  0  0  0  0  0  0  0  0
   63.4714   32.9166   45.9192 H   0  0  0  0  0  0  0  0  0  0  0  0
   61.5390   33.7250   46.4870 C   0  0  0  0  0  0  0  0  0  0  0  0
   61.1578   33.7431   45.4553 H   0  0  0  0  0  0  0  0  0  0  0  0
   60.7300   34.1680   47.5400 C   0  0  0  0  0  0  0  0  0  0  0  0
   59.7122   34.5311   47.3347 H   0  0  0  0  0  0  0  0  0  0  0  0
   61.2130   34.1500   48.8530 C   0  0  0  0  0  0  0  0  0  0  0  0
   60.5759   34.5056   49.6762 H   0  0  0  0  0  0  0  0  0  0  0  0
   60.1610   30.1370   46.7050 C   0  0  0  0  0  0  0  0  0  0  0  0
   60.9885   30.8601   46.6553 H   0  0  0  0  0  0  0  0  0  0  0  0
   59.2720   30.0190   45.6210 C   0  0  0  0  0  0  0  0  0  0  0  0
   59.3954   30.6294   44.7142 H   0  0  0  0  0  0  0  0  0  0  0  0
   58.2280   29.1000   45.7370 C   0  0  0  0  0  0  0  0  0  0  0  0
   57.1010   31.6640   44.0030 C   0  0  0  0  0  0  0  0  0  0  0  0
   56.6840   32.0170   45.2520 N   0  0  0  0  0  0  0  0  0  0  0  0
   57.2120   33.0760   45.9220 C   0  0  0  0  0  0  0  0  0  0  0  0
   56.8420   33.3314   46.9259 H   0  0  0  0  0  0  0  0  0  0  0  0
   58.2220   33.8380   45.3370 C   0  0  0  0  0  0  0  0  0  0  0  0
   58.6499   34.6987   45.8718 H   0  0  0  0  0  0  0  0  0  0  0  0
   58.6840   33.4970   44.0660 C   0  0  0  0  0  0  0  0  0  0  0  0
   59.4845   34.0869   43.5956 H   0  0  0  0  0  0  0  0  0  0  0  0
   58.1310   32.4070   43.3900 C   0  0  0  0  0  0  0  0  0  0  0  0
   58.4953   32.1309   42.3895 H   0  0  0  0  0  0  0  0  0  0  0  0
  1  2  1  0
  2  3  2  0
  3  4  1  0
  3  5  1  0
  5  6  1  0
  6  7  1  0
  7  8  2  0
  8  9  1  0
  9 10  1  0
  9 11  2  0
 11 12  1  0
 12 13  1  0
 13 14  2  0
 14 15  1  0
 14 16  1  0
 16 17  1  0
 16 18  2  0
 18 19  1  0
 18 20  1  0
 20 21  1  0
 20 22  2  0
 22 23  1  0
 23 24  2  0
 23 25  1  0
 25 26  1  0
 26 27  1  0
 26 28  1  0
 26 29  1  0
 29 30  2  0
 30 31  1  0
 30 32  1  0
 32 33  1  0
 32 34  2  0
 34 35  1  0
 34 36  1  0
 36 37  1  0
 36 38  2  0
 38 39  1  0
 11 40  1  0
 40 41  1  0
 40 42  2  0
 42 43  1  0
 42 44  1  0
  2 45  1  0
 45 46  2  0
 46 47  1  0
 47 48  1  0
 47 49  2  0
 49 50  1  0
 49 51  1  0
 51 52  1  0
 51 53  2  0
 53 54  1  0
 44  5  2  0
 53 45  1  0
 44  8  1  0
 22 13  1  0
 38 29  1  0
M  CHG  2   6  -1  25  -1
M  END
>  <UniqueID>  (41) 
37

>  <SMILES>  (41) 
O=C([N-]Cc1ccccc1)c1ccccc1Sc1ccc2c(/C=C/c3ccccn3)[n-]nc2c1

>  <Energy>  (41) 
103.41482008138726

>  <Genealogy>  (41) 
O=C([N-]Cc1ccccc1)c1ccccc1Sc1ccc2c(C=Cc3ccccn3)[n-]nc2c1 (protonated)
O=C([N-]Cc1ccccc1)c1ccccc1Sc1ccc2c(/C=C/c3ccccn3)[n-]nc2c1 (cis-trans isomerization)
O=C([N-]Cc1ccccc1)c1ccccc1Sc1ccc2c(/C=C/c3ccccn3)[n-]nc2c1 (3D coordinates assigned)
O=C([N-]Cc1ccccc1)c1ccccc1Sc1ccc2c(/C=C/c3ccccn3)[n-]nc2c1 (optimized conformer: 103.41482008138726 kcal/mol)

>  <smiles>  (41) 
O=C(NCc1ccccc1)c1ccccc1Sc1ccc2c(C=Cc3ccccn3)[nH]nc2c1

>  <score_type>  (41) 
oracle

>  <origin>  (41) 
adg

>  <m_score__min__energy>  (41) 
-13.16

>  <m_primary>  (41) 
energy

$$$$
41:0
     RDKit          3D

 39 42  0  0  1  0  0  0  0  0999 V2000
   61.0310   34.5010   48.5670 C   0  0  0  0  0  0  0  0  0  0  0  0
   60.1630   33.7750   47.6710 N   0  0  0  0  0  0  0  0  0  0  0  0
   59.6170   32.5700   47.9010 C   0  0  0  0  0  0  0  0  0  0  0  0
   58.8570   32.2330   46.8020 C   0  0  0  0  0  0  0  0  0  0  0  0
   58.0830   31.1290   46.4860 C   0  0  0  0  0  0  0  0  0  0  0  0
   57.4470   31.1390   45.2570 C   0  0  0  0  0  0  0  0  0  0  0  0
   55.9000   25.6640   46.2800 N   0  0  0  0  0  0  0  0  0  0  0  0
   56.6450   26.6420   45.8860 C   0  0  0  0  0  0  0  0  0  0  0  0
   58.3500   28.5420   45.0890 C   0  0  0  0  0  0  0  0  0  0  0  0
   58.8670   27.2930   45.3950 C   0  0  0  0  0  0  0  0  0  0  0  0
   57.9760   26.3630   45.7930 N   0  0  0  0  0  0  0  0  0  0  0  0
   56.9990   28.8110   45.1880 C   0  0  0  0  0  0  0  0  0  0  0  0
   56.6270   30.0140   44.8770 N   0  0  0  0  0  0  0  0  0  0  0  0
   55.8970   24.4920   45.4740 C   0  0  0  0  0  0  0  0  0  0  0  0
   55.4420   23.2840   46.0140 C   0  0  0  0  0  0  0  0  0  0  0  0
   55.4290   22.1240   45.2520 C   0  0  0  0  0  0  0  0  0  0  0  0
   55.8460   22.1180   43.9830 N   0  0  0  0  0  0  0  0  0  0  0  0
   56.2870   23.2780   43.4550 C   0  0  0  0  0  0  0  0  0  0  0  0
   56.3220   24.4620   44.1680 C   0  0  0  0  0  0  0  0  0  0  0  0
   56.1650   27.8630   45.5840 N   0  0  0  0  0  0  0  0  0  0  0  0
   57.5750   32.1990   44.3790 C   0  0  0  0  0  0  0  0  0  0  0  0
   58.3510   33.2950   44.7060 C   0  0  0  0  0  0  0  0  0  0  0  0
   58.9870   33.2930   45.9270 C   0  0  0  0  0  0  0  0  0  0  0  0
   59.7850   34.2220   46.4740 N   0  0  0  0  0  0  0  0  0  0  0  0
   60.7577   34.2724   49.6077 H   0  0  0  0  0  0  0  0  0  0  0  0
   62.0746   34.2030   48.3881 H   0  0  0  0  0  0  0  0  0  0  0  0
   60.9222   35.5809   48.3881 H   0  0  0  0  0  0  0  0  0  0  0  0
   59.7524   31.9600   48.8063 H   0  0  0  0  0  0  0  0  0  0  0  0
   57.9785   30.2824   47.1805 H   0  0  0  0  0  0  0  0  0  0  0  0
   59.0327   29.3389   44.7591 H   0  0  0  0  0  0  0  0  0  0  0  0
   59.9421   27.0733   45.3176 H   0  0  0  0  0  0  0  0  0  0  0  0
   58.3460   25.4130   46.0280 H   0  0  0  0  0  0  0  0  0  0  0  0
   55.0901   23.2533   47.0557 H   0  0  0  0  0  0  0  0  0  0  0  0
   55.0671   21.1884   45.7033 H   0  0  0  0  0  0  0  0  0  0  0  0
   56.6341   23.2823   42.4112 H   0  0  0  0  0  0  0  0  0  0  0  0
   56.6906   25.3811   43.6890 H   0  0  0  0  0  0  0  0  0  0  0  0
   55.1460   28.0540   45.6630 H   0  0  0  0  0  0  0  0  0  0  0  0
   57.0541   32.1699   43.4106 H   0  0  0  0  0  0  0  0  0  0  0  0
   58.4571   34.1422   44.0125 H   0  0  0  0  0  0  0  0  0  0  0  0
  1  2  1  0
  2  3  1  0
  3  4  2  0
  4  5  1  0
  5  6  2  0
  6  7  1  0
  7  8  2  0
  8  9  1  0
  9 10  2  0
 10 11  1  0
 11 12  1  0
 12 13  2  0
 13 14  1  0
 14 15  2  0
 15 16  1  0
 16 17  2  0
 17 18  1  0
 18 19  2  0
 12 20  1  0
  6 21  1  0
 21 22  2  0
 22 23  1  0
 23 24  2  0
 24  2  1  0
 23  4  1  0
 20  8  1  0
 19 14  1  0
  1 25  1  0
  1 26  1  0
  1 27  1  0
  3 28  1  0
  5 29  1  0
  9 30  1  0
 10 31  1  0
 11 32  1  0
 15 33  1  0
 16 34  1  0
 18 35  1  0
 19 36  1  0
 20 37  1  0
 21 38  1  0
 22 39  1  0
M  END
>  <smiles>  (42) 
Cn1cc2cc(N=c3cc[nH]c(=Nc4ccncc4)[nH]3)ccc2n1

>  <score_type>  (42) 
oracle

>  <origin>  (42) 
adg

>  <m_score__min__energy>  (42) 
-7.8300000000000001

>  <m_primary>  (42) 
energy

$$$$
42:0
     RDKit          3D

 52 55  0  0  0  0  0  0  0  0999 V2000
   56.2510   22.6890   42.9950 C   0  0  0  0  0  0  0  0  0  0  0  0
   55.8760   23.2910   44.2300 O   0  0  0  0  0  0  0  0  0  0  0  0
   56.6810   24.1810   44.9580 C   0  0  0  0  0  0  0  0  0  0  0  0
   58.0830   24.0640   44.9930 C   0  0  0  0  0  0  0  0  0  0  0  0
   58.8510   24.9660   45.7310 C   0  0  0  0  0  0  0  0  0  0  0  0
   58.2370   26.0020   46.4490 C   0  0  0  0  0  0  0  0  0  0  0  0
   59.0520   26.9580   47.2290 C   0  0  0  0  0  0  0  0  0  0  0  0
   60.0420   26.5910   48.0710 N   0  0  0  0  0  0  0  0  0  0  0  0
   60.5060   27.7040   48.5510 O   0  0  0  0  0  0  0  0  0  0  0  0
   59.8450   28.7110   48.0350 C   0  0  0  0  0  0  0  0  0  0  0  0
   60.0990   30.0880   48.3530 N   0  0  0  0  0  0  0  0  0  0  0  0
   59.0060   30.9430   48.8290 C   0  0  0  0  0  0  0  0  0  0  0  0
   59.5650   32.0950   49.6720 C   0  0  0  0  0  0  0  0  0  0  0  0
   60.6070   32.8760   48.9620 N   0  0  0  0  0  0  0  0  0  0  0  0
   60.1990   34.2460   48.5800 C   0  0  0  0  0  0  0  0  0  0  0  0
   59.4360   34.3160   47.2700 C   0  0  0  0  0  0  0  0  0  0  0  0
   58.1580   33.7400   47.1530 C   0  0  0  0  0  0  0  0  0  0  0  0
   57.4610   33.8040   45.9430 C   0  0  0  0  0  0  0  0  0  0  0  0
   58.0250   34.4560   44.8430 C   0  0  0  0  0  0  0  0  0  0  0  0
   59.2820   35.0550   44.9560 C   0  0  0  0  0  0  0  0  0  0  0  0
   59.9810   34.9950   46.1650 C   0  0  0  0  0  0  0  0  0  0  0  0
   61.3390   32.1540   47.8950 C   0  0  0  0  0  0  0  0  0  0  0  0
   61.4420   30.6550   48.1850 C   0  0  0  0  0  0  0  0  0  0  0  0
   58.8950   28.2990   47.1740 N   0  0  0  0  0  0  0  0  0  0  0  0
   56.8380   26.1210   46.4160 C   0  0  0  0  0  0  0  0  0  0  0  0
   56.0560   25.2140   45.6720 C   0  0  0  0  0  0  0  0  0  0  0  0
   54.6550   25.3060   45.6220 O   0  0  0  0  0  0  0  0  0  0  0  0
   53.7700   24.1950   45.7050 C   0  0  0  0  0  0  0  0  0  0  0  0
   56.8231   21.7707   43.1935 H   0  0  0  0  0  0  0  0  0  0  0  0
   55.3475   22.4408   42.4188 H   0  0  0  0  0  0  0  0  0  0  0  0
   56.8721   23.3906   42.4188 H   0  0  0  0  0  0  0  0  0  0  0  0
   58.5773   23.2555   44.4345 H   0  0  0  0  0  0  0  0  0  0  0  0
   59.9460   24.8633   45.7495 H   0  0  0  0  0  0  0  0  0  0  0  0
   58.4638   31.3546   47.9650 H   0  0  0  0  0  0  0  0  0  0  0  0
   58.3237   30.3425   49.4486 H   0  0  0  0  0  0  0  0  0  0  0  0
   58.7380   32.7709   49.9353 H   0  0  0  0  0  0  0  0  0  0  0  0
   60.0331   31.6544   50.5646 H   0  0  0  0  0  0  0  0  0  0  0  0
   59.5580   34.6516   49.3766 H   0  0  0  0  0  0  0  0  0  0  0  0
   61.1221   34.8286   48.4442 H   0  0  0  0  0  0  0  0  0  0  0  0
   57.7043   33.2361   48.0191 H   0  0  0  0  0  0  0  0  0  0  0  0
   56.4672   33.3405   45.8565 H   0  0  0  0  0  0  0  0  0  0  0  0
   57.4794   34.4975   43.8887 H   0  0  0  0  0  0  0  0  0  0  0  0
   59.7224   35.5747   44.0923 H   0  0  0  0  0  0  0  0  0  0  0  0
   60.9635   35.4818   46.2530 H   0  0  0  0  0  0  0  0  0  0  0  0
   60.8086   32.2958   46.9418 H   0  0  0  0  0  0  0  0  0  0  0  0
   62.3594   32.5620   47.8467 H   0  0  0  0  0  0  0  0  0  0  0  0
   61.9474   30.1545   47.3459 H   0  0  0  0  0  0  0  0  0  0  0  0
   62.0189   30.5026   49.1091 H   0  0  0  0  0  0  0  0  0  0  0  0
   56.3473   26.9303   46.9765 H   0  0  0  0  0  0  0  0  0  0  0  0
   53.5796   23.9560   46.7617 H   0  0  0  0  0  0  0  0  0  0  0  0
   52.8206   24.4446   45.2087 H   0  0  0  0  0  0  0  0  0  0  0  0
   54.2256   23.3254   45.2087 H   0  0  0  0  0  0  0  0  0  0  0  0
  1  2  1  0
  2  3  1  0
  3  4  2  0
  4  5  1  0
  5  6  2  0
  6  7  1  0
  7  8  2  0
  8  9  1  0
  9 10  1  0
 10 11  1  0
 11 12  1  0
 12 13  1  0
 13 14  1  0
 14 15  1  0
 15 16  1  0
 16 17  2  0
 17 18  1  0
 18 19  2  0
 19 20  1  0
 20 21  2  0
 14 22  1  0
 22 23  1  0
 10 24  2  0
  6 25  1  0
 25 26  2  0
 26 27  1  0
 27 28  1  0
 26  3  1  0
 24  7  1  0
 23 11  1  0
 21 16  1  0
  1 29  1  0
  1 30  1  0
  1 31  1  0
  4 32  1  0
  5 33  1  0
 12 34  1  0
 12 35  1  0
 13 36  1  0
 13 37  1  0
 15 38  1  0
 15 39  1  0
 17 40  1  0
 18 41  1  0
 19 42  1  0
 20 43  1  0
 21 44  1  0
 22 45  1  0
 22 46  1  0
 23 47  1  0
 23 48  1  0
 25 49  1  0
 28 50  1  0
 28 51  1  0
 28 52  1  0
M  END
>  <UniqueID>  (43) 
38

>  <SMILES>  (43) 
COc1ccc(-c2noc(N3CCN(Cc4ccccc4)CC3)n2)cc1OC

>  <Energy>  (43) 
96.92329934830808

>  <Genealogy>  (43) 
COc1ccc(-c2noc(N3CCN(Cc4ccccc4)CC3)n2)cc1OC (3D coordinates assigned)
COc1ccc(-c2noc(N3CCN(Cc4ccccc4)CC3)n2)cc1OC (nonaromatic ring conformer: 96.92329934830808 kcal/mol)

>  <smiles>  (43) 
COc1ccc(-c2noc(N3CCN(Cc4ccccc4)CC3)n2)cc1OC

>  <score_type>  (43) 
oracle

>  <origin>  (43) 
adg

>  <m_score__min__energy>  (43) 
-7.7800000000000002

>  <m_primary>  (43) 
energy

$$$$
43:0
     RDKit          3D

 22 23  0  0  0  0  0  0  0  0999 V2000
   55.0160   29.3790   43.1140 O   0  0  0  0  0  0  0  0  0  0  0  0
   55.8070   29.7050   44.0360 C   0  0  0  0  0  0  0  0  0  0  0  0
   55.8300   28.9190   45.2360 N   0  0  0  0  0  0  0  0  0  0  0  0
   56.7660   27.9030   45.5030 N   0  0  0  0  0  0  0  0  0  0  0  0
   58.0850   28.1720   45.2810 C   0  0  0  0  0  0  0  0  0  0  0  0
   59.0600   27.2010   45.5170 C   0  0  0  0  0  0  0  0  0  0  0  0
   58.6740   25.9390   45.9630 C   0  0  0  0  0  0  0  0  0  0  0  0
   57.3220   25.6570   46.1550 C   0  0  0  0  0  0  0  0  0  0  0  0
   56.3700   26.6510   45.9050 C   0  0  0  0  0  0  0  0  0  0  0  0
   55.1450   26.3760   46.0390 O   0  0  0  0  0  0  0  0  0  0  0  0
   56.7220   30.8450   43.8340 C   0  0  0  0  0  0  0  0  0  0  0  0
   57.2440   31.2540   42.6100 C   0  0  0  0  0  0  0  0  0  0  0  0
   58.1260   32.3360   42.7160 C   0  0  0  0  0  0  0  0  0  0  0  0
   58.3160   32.7780   44.0180 C   0  0  0  0  0  0  0  0  0  0  0  0
   57.3840   31.8200   45.0380 S   0  0  0  0  0  0  0  0  0  0  0  0
   58.3834   29.1644   44.9122 H   0  0  0  0  0  0  0  0  0  0  0  0
   60.1231   27.4304   45.3523 H   0  0  0  0  0  0  0  0  0  0  0  0
   59.4327   25.1680   46.1629 H   0  0  0  0  0  0  0  0  0  0  0  0
   57.0067   24.6613   46.5001 H   0  0  0  0  0  0  0  0  0  0  0  0
   56.9886   30.7742   41.6537 H   0  0  0  0  0  0  0  0  0  0  0  0
   58.6226   32.7936   41.8477 H   0  0  0  0  0  0  0  0  0  0  0  0
   58.9641   33.6108   44.3287 H   0  0  0  0  0  0  0  0  0  0  0  0
  1  2  2  0
  2  3  1  0
  3  4  1  0
  4  5  1  0
  5  6  2  0
  6  7  1  0
  7  8  2  0
  8  9  1  0
  9 10  2  0
  2 11  1  0
 11 12  2  0
 12 13  1  0
 13 14  2  0
 14 15  1  0
  9  4  1  0
 15 11  1  0
  5 16  1  0
  6 17  1  0
  7 18  1  0
  8 19  1  0
 12 20  1  0
 13 21  1  0
 14 22  1  0
M  CHG  1   3  -1
M  END
>  <UniqueID>  (44) 
39

>  <SMILES>  (44) 
O=C([N-]n1ccccc1=O)c1cccs1

>  <Energy>  (44) 
56.87712387168801

>  <Genealogy>  (44) 
O=C([N-]n1ccccc1=O)c1cccs1 (protonated)
O=C([N-]n1ccccc1=O)c1cccs1 (3D coordinates assigned)
O=C([N-]n1ccccc1=O)c1cccs1 (optimized conformer: 56.87712387168801 kcal/mol)

>  <smiles>  (44) 
O=C(Nn1ccccc1=O)c1cccs1

>  <score_type>  (44) 
oracle

>  <origin>  (44) 
adg

>  <m_score__min__energy>  (44) 
-8.2699999999999996

>  <m_primary>  (44) 
energy

$$$$
44:0
     RDKit          3D

 48 50  0  0  0  0  0  0  0  0999 V2000
   59.6740   26.8720   45.2300 O   0  0  0  0  0  0  0  0  0  0  0  0
   58.5780   27.4910   45.1750 C   0  0  0  0  0  0  0  0  0  0  0  0
   57.3950   26.8200   44.7120 N   0  0  0  0  0  0  0  0  0  0  0  0
   57.4050   25.4440   44.2170 C   0  0  0  0  0  0  0  0  0  0  0  0
   56.3140   24.6050   44.8960 C   0  0  0  0  0  0  0  0  0  0  0  0
   55.6860   25.3070   46.1040 C   0  0  0  0  0  0  0  0  0  0  0  0
   54.7970   26.3010   45.6810 O   0  0  0  0  0  0  0  0  0  0  0  0
   58.5180   28.9050   45.5970 C   0  0  0  0  0  0  0  0  0  0  0  0
   58.1290   29.9850   44.8080 C   0  0  0  0  0  0  0  0  0  0  0  0
   58.1630   31.1320   45.5250 N   0  0  0  0  0  0  0  0  0  0  0  0
   57.6940   32.4020   45.0460 C   0  0  0  0  0  0  0  0  0  0  0  0
   56.5780   32.8330   45.4400 O   0  0  0  0  0  0  0  0  0  0  0  0
   58.5750   33.2990   44.2150 C   0  0  0  0  0  0  0  0  0  0  0  0
   58.9090   34.6100   44.9430 C   0  0  0  0  0  0  0  0  0  0  0  0
   59.7390   34.3830   46.1840 C   0  0  0  0  0  0  0  0  0  0  0  0
   61.0250   33.8250   46.0890 C   0  0  0  0  0  0  0  0  0  0  0  0
   61.8090   33.6620   47.2350 C   0  0  0  0  0  0  0  0  0  0  0  0
   61.3150   34.0500   48.4830 C   0  0  0  0  0  0  0  0  0  0  0  0
   60.0330   34.5950   48.5890 C   0  0  0  0  0  0  0  0  0  0  0  0
   59.2440   34.7550   47.4460 C   0  0  0  0  0  0  0  0  0  0  0  0
   58.6030   30.7970   46.7580 C   0  0  0  0  0  0  0  0  0  0  0  0
   58.8790   31.6400   47.8410 C   0  0  0  0  0  0  0  0  0  0  0  0
   59.3220   31.0560   49.0390 C   0  0  0  0  0  0  0  0  0  0  0  0
   59.4960   29.6600   49.1330 C   0  0  0  0  0  0  0  0  0  0  0  0
   59.2510   28.8360   48.0230 C   0  0  0  0  0  0  0  0  0  0  0  0
   58.8200   29.4400   46.8390 C   0  0  0  0  0  0  0  0  0  0  0  0
   56.4680   27.2880   44.8160 H   0  0  0  0  0  0  0  0  0  0  0  0
   57.2290   25.4515   43.1312 H   0  0  0  0  0  0  0  0  0  0  0  0
   58.3835   24.9970   44.4468 H   0  0  0  0  0  0  0  0  0  0  0  0
   55.5228   24.3971   44.1607 H   0  0  0  0  0  0  0  0  0  0  0  0
   56.7875   23.6816   45.2608 H   0  0  0  0  0  0  0  0  0  0  0  0
   55.1419   24.5680   46.7105 H   0  0  0  0  0  0  0  0  0  0  0  0
   56.4838   25.7719   46.7018 H   0  0  0  0  0  0  0  0  0  0  0  0
   54.0810   26.3410   46.3650 H   0  0  0  0  0  0  0  0  0  0  0  0
   57.8353   29.9152   43.7502 H   0  0  0  0  0  0  0  0  0  0  0  0
   59.5121   32.7682   43.9910 H   0  0  0  0  0  0  0  0  0  0  0  0
   58.0309   33.5509   43.2928 H   0  0  0  0  0  0  0  0  0  0  0  0
   59.4697   35.2621   44.2572 H   0  0  0  0  0  0  0  0  0  0  0  0
   57.9606   35.0728   45.2534 H   0  0  0  0  0  0  0  0  0  0  0  0
   61.4166   33.5151   45.1089 H   0  0  0  0  0  0  0  0  0  0  0  0
   62.8163   33.2276   47.1540 H   0  0  0  0  0  0  0  0  0  0  0  0
   61.9358   33.9263   49.3826 H   0  0  0  0  0  0  0  0  0  0  0  0
   59.6442   34.8984   49.5723 H   0  0  0  0  0  0  0  0  0  0  0  0
   58.2308   35.1741   47.5347 H   0  0  0  0  0  0  0  0  0  0  0  0
   58.7524   32.7294   47.7561 H   0  0  0  0  0  0  0  0  0  0  0  0
   59.5348   31.6925   49.9105 H   0  0  0  0  0  0  0  0  0  0  0  0
   59.8260   29.2134   50.0826 H   0  0  0  0  0  0  0  0  0  0  0  0
   59.3941   27.7470   48.0836 H   0  0  0  0  0  0  0  0  0  0  0  0
  1  2  2  0
  2  3  1  0
  3  4  1  0
  4  5  1  0
  5  6  1  0
  6  7  1  0
  2  8  1  0
  8  9  2  0
  9 10  1  0
 10 11  1  0
 11 12  2  0
 11 13  1  0
 13 14  1  0
 14 15  1  0
 15 16  2  0
 16 17  1  0
 17 18  2  0
 18 19  1  0
 19 20  2  0
 10 21  1  0
 21 22  2  0
 22 23  1  0
 23 24  2  0
 24 25  1  0
 25 26  2  0
 26  8  1  0
 20 15  1  0
 26 21  1  0
  3 27  1  0
  4 28  1  0
  4 29  1  0
  5 30  1  0
  5 31  1  0
  6 32  1  0
  6 33  1  0
  7 34  1  0
  9 35  1  0
 13 36  1  0
 13 37  1  0
 14 38  1  0
 14 39  1  0
 16 40  1  0
 17 41  1  0
 18 42  1  0
 19 43  1  0
 20 44  1  0
 22 45  1  0
 23 46  1  0
 24 47  1  0
 25 48  1  0
M  END
>  <UniqueID>  (45) 
40

>  <SMILES>  (45) 
O=C(NCCCO)c1cn(C(=O)CCc2ccccc2)c2ccccc12

>  <Energy>  (45) 
77.6082706485545

>  <Genealogy>  (45) 
O=C(NCCCO)c1cn(C(=O)CCc2ccccc2)c2ccccc12 (3D coordinates assigned)
O=C(NCCCO)c1cn(C(=O)CCc2ccccc2)c2ccccc12 (optimized conformer: 77.6082706485545 kcal/mol)

>  <smiles>  (45) 
O=C(NCCCO)c1cn(C(=O)CCc2ccccc2)c2ccccc12

>  <score_type>  (45) 
oracle

>  <origin>  (45) 
adg

>  <m_score__min__energy>  (45) 
-8.9700000000000006

>  <m_primary>  (45) 
energy

$$$$
45:0
     RDKit          3D

 23 23  0  0  0  0  0  0  0  0999 V2000
   58.6550   34.1520   46.9500 C   0  0  0  0  0  0  0  0  0  0  0  0
   59.1340   34.6040   45.2520 S   0  0  0  0  0  0  0  0  0  0  0  0
   57.9910   33.4450   44.4160 C   0  0  0  0  0  0  0  0  0  0  0  0
   57.0640   32.7230   45.3990 C   0  0  0  0  0  0  0  0  0  0  0  0
   56.6530   31.4550   44.8830 O   0  0  0  0  0  0  0  0  0  0  0  0
   57.4110   30.2710   44.8680 C   0  0  0  0  0  0  0  0  0  0  0  0
   58.8210   30.2570   44.8710 C   0  0  0  0  0  0  0  0  0  0  0  0
   59.5150   29.0420   44.8560 C   0  0  0  0  0  0  0  0  0  0  0  0
   58.8140   27.8340   44.8460 C   0  0  0  0  0  0  0  0  0  0  0  0
   57.4170   27.8380   44.8510 C   0  0  0  0  0  0  0  0  0  0  0  0
   56.7190   29.0490   44.8630 C   0  0  0  0  0  0  0  0  0  0  0  0
   55.3630   29.0380   44.8680 F   0  0  0  0  0  0  0  0  0  0  0  0
   59.2618   34.7246   47.6669 H   0  0  0  0  0  0  0  0  0  0  0  0
   57.5905   34.3824   47.1043 H   0  0  0  0  0  0  0  0  0  0  0  0
   58.8233   33.0760   47.1043 H   0  0  0  0  0  0  0  0  0  0  0  0
   57.3753   34.0109   43.7014 H   0  0  0  0  0  0  0  0  0  0  0  0
   58.6004   32.6819   43.9097 H   0  0  0  0  0  0  0  0  0  0  0  0
   57.5976   32.5685   46.3484 H   0  0  0  0  0  0  0  0  0  0  0  0
   56.1690   33.3433   45.5546 H   0  0  0  0  0  0  0  0  0  0  0  0
   59.3779   31.2055   44.8852 H   0  0  0  0  0  0  0  0  0  0  0  0
   60.6150   29.0383   44.8521 H   0  0  0  0  0  0  0  0  0  0  0  0
   59.3616   26.8800   44.8342 H   0  0  0  0  0  0  0  0  0  0  0  0
   56.8653   26.8864   44.8455 H   0  0  0  0  0  0  0  0  0  0  0  0
  1  2  1  0
  2  3  1  0
  3  4  1  0
  4  5  1  0
  5  6  1  0
  6  7  2  0
  7  8  1  0
  8  9  2  0
  9 10  1  0
 10 11  2  0
 11 12  1  0
 11  6  1  0
  1 13  1  0
  1 14  1  0
  1 15  1  0
  3 16  1  0
  3 17  1  0
  4 18  1  0
  4 19  1  0
  7 20  1  0
  8 21  1  0
  9 22  1  0
 10 23  1  0
M  END
>  <UniqueID>  (46) 
41

>  <SMILES>  (46) 
CSCCOc1ccccc1F

>  <Energy>  (46) 
18.554237482296752

>  <Genealogy>  (46) 
CSCCOc1ccccc1F (3D coordinates assigned)
CSCCOc1ccccc1F (optimized conformer: 18.554237482296752 kcal/mol)

>  <smiles>  (46) 
CSCCOc1ccccc1F

>  <score_type>  (46) 
oracle

>  <origin>  (46) 
adg

>  <m_score__min__energy>  (46) 
-4.6399999999999997

>  <m_primary>  (46) 
energy

$$$$
46:0
     RDKit          3D

 50 52  0  0  0  0  0  0  0  0999 V2000
   64.7690   31.9420   50.3750 C   0  0  0  0  0  0  0  0  0  0  0  0
   65.0060   33.0960   49.4080 C   0  0  0  0  0  0  0  0  0  0  0  0
   63.7420   33.4370   48.6660 C   0  0  0  0  0  0  0  0  0  0  0  0
   63.7010   33.3670   47.2650 C   0  0  0  0  0  0  0  0  0  0  0  0
   62.5370   33.7140   46.5740 C   0  0  0  0  0  0  0  0  0  0  0  0
   61.3990   34.1550   47.2700 C   0  0  0  0  0  0  0  0  0  0  0  0
   60.1640   34.5050   46.5270 C   0  0  0  0  0  0  0  0  0  0  0  0
   59.9180   35.7210   46.2960 O   0  0  0  0  0  0  0  0  0  0  0  0
   59.2100   33.4780   46.0450 C   0  0  0  0  0  0  0  0  0  0  0  0
   58.4010   33.7410   44.9270 C   0  0  0  0  0  0  0  0  0  0  0  0
   57.4900   32.7830   44.4720 C   0  0  0  0  0  0  0  0  0  0  0  0
   57.3600   31.5540   45.1270 C   0  0  0  0  0  0  0  0  0  0  0  0
   56.4380   30.6260   44.6130 O   0  0  0  0  0  0  0  0  0  0  0  0
   56.5420   29.9620   43.3540 C   0  0  0  0  0  0  0  0  0  0  0  0
   57.3930   28.6760   43.4300 C   0  0  0  0  0  0  0  0  0  0  0  0
   58.1960   28.4730   44.6670 N   0  0  0  0  0  0  0  0  0  0  0  0
   58.2040   27.1200   45.2390 C   0  0  0  0  0  0  0  0  0  0  0  0
   59.3920   27.0810   46.1820 C   0  0  0  0  0  0  0  0  0  0  0  0
   60.3890   28.0600   45.5840 C   0  0  0  0  0  0  0  0  0  0  0  0
   59.6080   28.8620   44.5410 C   0  0  0  0  0  0  0  0  0  0  0  0
   58.1540   31.2950   46.2600 C   0  0  0  0  0  0  0  0  0  0  0  0
   59.0660   32.2510   46.7160 C   0  0  0  0  0  0  0  0  0  0  0  0
   61.4420   34.2200   48.6740 C   0  0  0  0  0  0  0  0  0  0  0  0
   62.6060   33.8730   49.3650 C   0  0  0  0  0  0  0  0  0  0  0  0
   64.8444   32.3089   51.4093 H   0  0  0  0  0  0  0  0  0  0  0  0
   63.7660   31.5228   50.2068 H   0  0  0  0  0  0  0  0  0  0  0  0
   65.5256   31.1614   50.2068 H   0  0  0  0  0  0  0  0  0  0  0  0
   65.3417   33.9778   49.9736 H   0  0  0  0  0  0  0  0  0  0  0  0
   65.7732   32.7948   48.6795 H   0  0  0  0  0  0  0  0  0  0  0  0
   64.5901   33.0371   46.7076 H   0  0  0  0  0  0  0  0  0  0  0  0
   62.5115   33.6413   45.4767 H   0  0  0  0  0  0  0  0  0  0  0  0
   58.4848   34.7064   44.4065 H   0  0  0  0  0  0  0  0  0  0  0  0
   56.8691   32.9980   43.5898 H   0  0  0  0  0  0  0  0  0  0  0  0
   55.5312   29.6959   43.0114 H   0  0  0  0  0  0  0  0  0  0  0  0
   57.0393   30.6499   42.6544 H   0  0  0  0  0  0  0  0  0  0  0  0
   56.7101   27.8192   43.3325 H   0  0  0  0  0  0  0  0  0  0  0  0
   58.1317   28.7722   42.6206 H   0  0  0  0  0  0  0  0  0  0  0  0
   57.7800   29.1030   45.3960 H   0  0  0  0  0  0  0  0  0  0  0  0
   57.2707   26.9307   45.7896 H   0  0  0  0  0  0  0  0  0  0  0  0
   58.2796   26.3491   44.4580 H   0  0  0  0  0  0  0  0  0  0  0  0
   59.0958   27.3975   47.1930 H   0  0  0  0  0  0  0  0  0  0  0  0
   59.8109   26.0689   46.2833 H   0  0  0  0  0  0  0  0  0  0  0  0
   60.7852   28.7277   46.3632 H   0  0  0  0  0  0  0  0  0  0  0  0
   61.2489   27.5405   45.1359 H   0  0  0  0  0  0  0  0  0  0  0  0
   59.7212   29.9395   44.7310 H   0  0  0  0  0  0  0  0  0  0  0  0
   59.9824   28.6563   43.5273 H   0  0  0  0  0  0  0  0  0  0  0  0
   58.0563   30.3356   46.7891 H   0  0  0  0  0  0  0  0  0  0  0  0
   59.6760   32.0416   47.6071 H   0  0  0  0  0  0  0  0  0  0  0  0
   60.5525   34.5465   49.2327 H   0  0  0  0  0  0  0  0  0  0  0  0
   62.6319   33.9420   50.4625 H   0  0  0  0  0  0  0  0  0  0  0  0
  1  2  1  0
  2  3  1  0
  3  4  2  0
  4  5  1  0
  5  6  2  0
  6  7  1  0
  7  8  2  0
  7  9  1  0
  9 10  2  0
 10 11  1  0
 11 12  2  0
 12 13  1  0
 13 14  1  0
 14 15  1  0
 15 16  1  0
 16 17  1  0
 17 18  1  0
 18 19  1  0
 19 20  1  0
 12 21  1  0
 21 22  2  0
  6 23  1  0
 23 24  2  0
 24  3  1  0
 22  9  1  0
 20 16  1  0
  1 25  1  0
  1 26  1  0
  1 27  1  0
  2 28  1  0
  2 29  1  0
  4 30  1  0
  5 31  1  0
 10 32  1  0
 11 33  1  0
 14 34  1  0
 14 35  1  0
 15 36  1  0
 15 37  1  0
 16 38  1  0
 17 39  1  0
 17 40  1  0
 18 41  1  0
 18 42  1  0
 19 43  1  0
 19 44  1  0
 20 45  1  0
 20 46  1  0
 21 47  1  0
 22 48  1  0
 23 49  1  0
 24 50  1  0
M  CHG  1  16   1
M  END
>  <UniqueID>  (47) 
42

>  <SMILES>  (47) 
CCc1ccc(C(=O)c2ccc(OCC[NH+]3CCCC3)cc2)cc1

>  <Energy>  (47) 
62.79599171421389

>  <Genealogy>  (47) 
CCc1ccc(C(=O)c2ccc(OCC[NH+]3CCCC3)cc2)cc1 (protonated)
CCc1ccc(C(=O)c2ccc(OCC[NH+]3CCCC3)cc2)cc1 (3D coordinates assigned)
CCc1ccc(C(=O)c2ccc(OCC[NH+]3CCCC3)cc2)cc1 (nonaromatic ring conformer: 62.79599171421389 kcal/mol)

>  <smiles>  (47) 
CCc1ccc(C(=O)c2ccc(OCCN3CCCC3)cc2)cc1

>  <score_type>  (47) 
oracle

>  <origin>  (47) 
adg

>  <m_score__min__energy>  (47) 
-6.46

>  <m_primary>  (47) 
energy

$$$$
47:0
     RDKit          3D

 39 41  0  0  0  0  0  0  0  0999 V2000
   55.2360   23.9960   45.8120 C   0  0  0  0  0  0  0  0  0  0  0  0
   55.8720   24.8650   46.7440 O   0  0  0  0  0  0  0  0  0  0  0  0
   56.8760   25.7870   46.4120 C   0  0  0  0  0  0  0  0  0  0  0  0
   58.2080   25.4290   46.6510 C   0  0  0  0  0  0  0  0  0  0  0  0
   59.2440   26.3090   46.3380 C   0  0  0  0  0  0  0  0  0  0  0  0
   58.9600   27.5580   45.7830 C   0  0  0  0  0  0  0  0  0  0  0  0
   57.6330   27.9410   45.5320 C   0  0  0  0  0  0  0  0  0  0  0  0
   57.3560   29.2710   44.9410 C   0  0  0  0  0  0  0  0  0  0  0  0
   58.1830   30.0200   44.1230 C   0  0  0  0  0  0  0  0  0  0  0  0
   57.4440   31.1550   43.8700 C   0  0  0  0  0  0  0  0  0  0  0  0
   57.8830   32.3210   43.0440 C   0  0  0  0  0  0  0  0  0  0  0  0
   58.4410   33.3380   43.8730 O   0  0  0  0  0  0  0  0  0  0  0  0
   57.9050   33.6950   45.1170 C   0  0  0  0  0  0  0  0  0  0  0  0
   56.6740   33.9420   45.2290 O   0  0  0  0  0  0  0  0  0  0  0  0
   58.7980   33.7810   46.2880 C   0  0  0  0  0  0  0  0  0  0  0  0
   59.5180   34.9100   46.6350 C   0  0  0  0  0  0  0  0  0  0  0  0
   60.2270   34.5900   47.7760 C   0  0  0  0  0  0  0  0  0  0  0  0
   59.9170   33.2800   48.0810 C   0  0  0  0  0  0  0  0  0  0  0  0
   59.0460   32.7900   47.1760 N   0  0  0  0  0  0  0  0  0  0  0  0
   58.5010   31.4340   47.1840 C   0  0  0  0  0  0  0  0  0  0  0  0
   56.2580   31.0800   44.5010 N   0  0  0  0  0  0  0  0  0  0  0  0
   56.2390   29.9410   45.1300 O   0  0  0  0  0  0  0  0  0  0  0  0
   56.5920   27.0470   45.8510 C   0  0  0  0  0  0  0  0  0  0  0  0
   54.6714   23.2246   46.3562 H   0  0  0  0  0  0  0  0  0  0  0  0
   54.5479   24.5765   45.1800 H   0  0  0  0  0  0  0  0  0  0  0  0
   55.9974   23.5157   45.1800 H   0  0  0  0  0  0  0  0  0  0  0  0
   58.4394   24.4467   47.0888 H   0  0  0  0  0  0  0  0  0  0  0  0
   60.2875   26.0180   46.5290 H   0  0  0  0  0  0  0  0  0  0  0  0
   59.7822   28.2473   45.5405 H   0  0  0  0  0  0  0  0  0  0  0  0
   59.1909   29.7690   43.7607 H   0  0  0  0  0  0  0  0  0  0  0  0
   58.6413   31.9871   42.3205 H   0  0  0  0  0  0  0  0  0  0  0  0
   57.0099   32.7317   42.5157 H   0  0  0  0  0  0  0  0  0  0  0  0
   59.5245   35.8742   46.1056 H   0  0  0  0  0  0  0  0  0  0  0  0
   60.9069   35.2509   48.3336 H   0  0  0  0  0  0  0  0  0  0  0  0
   60.3210   32.7186   48.9363 H   0  0  0  0  0  0  0  0  0  0  0  0
   58.3664   31.0991   48.2231 H   0  0  0  0  0  0  0  0  0  0  0  0
   57.5298   31.4261   46.6675 H   0  0  0  0  0  0  0  0  0  0  0  0
   59.1966   30.7562   46.6675 H   0  0  0  0  0  0  0  0  0  0  0  0
   55.5479   27.3358   45.6601 H   0  0  0  0  0  0  0  0  0  0  0  0
  1  2  1  0
  2  3  1  0
  3  4  2  0
  4  5  1  0
  5  6  2  0
  6  7  1  0
  7  8  1  0
  8  9  2  0
  9 10  1  0
 10 11  1  0
 11 12  1  0
 12 13  1  0
 13 14  2  0
 13 15  1  0
 15 16  2  0
 16 17  1  0
 17 18  2  0
 18 19  1  0
 19 20  1  0
 10 21  2  0
 21 22  1  0
  7 23  2  0
 23  3  1  0
 22  8  1  0
 19 15  1  0
  1 24  1  0
  1 25  1  0
  1 26  1  0
  4 27  1  0
  5 28  1  0
  6 29  1  0
  9 30  1  0
 11 31  1  0
 11 32  1  0
 16 33  1  0
 17 34  1  0
 18 35  1  0
 20 36  1  0
 20 37  1  0
 20 38  1  0
 23 39  1  0
M  END
>  <UniqueID>  (48) 
43

>  <SMILES>  (48) 
COc1cccc(-c2cc(COC(=O)c3cccn3C)no2)c1

>  <Energy>  (48) 
94.8321042028237

>  <Genealogy>  (48) 
COc1cccc(-c2cc(COC(=O)c3cccn3C)no2)c1 (3D coordinates assigned)
COc1cccc(-c2cc(COC(=O)c3cccn3C)no2)c1 (optimized conformer: 94.8321042028237 kcal/mol)

>  <smiles>  (48) 
COc1cccc(-c2cc(COC(=O)c3cccn3C)no2)c1

>  <score_type>  (48) 
oracle

>  <origin>  (48) 
adg

>  <m_score__min__energy>  (48) 
-8.0199999999999996

>  <m_primary>  (48) 
energy

$$$$
48:0
     RDKit          3D

 30 31  0  0  0  0  0  0  0  0999 V2000
   57.0513   23.8410   45.8488 H   0  0  0  0  0  0  0  0  0  0  0  0
   56.7740   24.9050   45.8180 C   0  0  0  0  0  0  0  0  0  0  0  0
   55.5440   25.3840   46.1030 N   0  0  0  0  0  0  0  0  0  0  0  0
   55.4470   26.7090   45.9960 N   0  0  0  0  0  0  0  0  0  0  0  0
   56.6020   27.2980   45.6250 C   0  0  0  0  0  0  0  0  0  0  0  0
   56.7010   28.5880   45.4720 N   0  0  0  0  0  0  0  0  0  0  0  0
   55.8630   29.4410   44.6780 C   0  0  0  0  0  0  0  0  0  0  0  0
   54.8170   29.0020   44.1260 O   0  0  0  0  0  0  0  0  0  0  0  0
   56.2290   30.8140   44.5240 N   0  0  0  0  0  0  0  0  0  0  0  0
   57.5570   31.2560   44.1130 C   0  0  0  0  0  0  0  0  0  0  0  0
   57.4852   31.7641   43.1400 H   0  0  0  0  0  0  0  0  0  0  0  0
   58.2166   30.3794   44.0331 H   0  0  0  0  0  0  0  0  0  0  0  0
   58.1290   32.2070   45.1280 C   0  0  0  0  0  0  0  0  0  0  0  0
   58.6050   33.4630   44.7220 C   0  0  0  0  0  0  0  0  0  0  0  0
   58.5759   33.7405   43.6580 H   0  0  0  0  0  0  0  0  0  0  0  0
   59.1160   34.3640   45.6610 C   0  0  0  0  0  0  0  0  0  0  0  0
   59.5570   35.5770   45.2410 F   0  0  0  0  0  0  0  0  0  0  0  0
   59.1640   34.0200   47.0260 C   0  0  0  0  0  0  0  0  0  0  0  0
   59.6650   34.9600   48.0010 N   0  0  0  0  0  0  0  0  0  0  0  0
   59.9940   35.8340   47.5280 H   0  0  0  0  0  0  0  0  0  0  0  0
   58.9060   35.2310   48.6690 H   0  0  0  0  0  0  0  0  0  0  0  0
   60.7760   34.3690   48.7500 C   0  0  0  0  0  0  0  0  0  0  0  0
   60.5859   34.4701   49.8287 H   0  0  0  0  0  0  0  0  0  0  0  0
   60.8665   33.3035   48.4919 H   0  0  0  0  0  0  0  0  0  0  0  0
   61.7101   34.8894   48.4919 H   0  0  0  0  0  0  0  0  0  0  0  0
   58.6680   32.7650   47.4320 C   0  0  0  0  0  0  0  0  0  0  0  0
   58.6710   32.4160   48.7430 F   0  0  0  0  0  0  0  0  0  0  0  0
   58.1590   31.8690   46.4890 C   0  0  0  0  0  0  0  0  0  0  0  0
   57.7785   30.8902   46.8164 H   0  0  0  0  0  0  0  0  0  0  0  0
   57.8270   26.1550   45.4090 S   0  0  0  0  0  0  0  0  0  0  0  0
  1  2  1  0
  2  3  2  0
  3  4  1  0
  4  5  1  0
  5  6  2  0
  6  7  1  0
  7  8  2  0
  7  9  1  0
  9 10  1  0
 10 11  1  0
 10 12  1  0
 10 13  1  0
 13 14  2  0
 14 15  1  0
 14 16  1  0
 16 17  1  0
 16 18  2  0
 18 19  1  0
 19 20  1  0
 19 21  1  0
 19 22  1  0
 22 23  1  0
 22 24  1  0
 22 25  1  0
 18 26  1  0
 26 27  1  0
 26 28  2  0
 28 29  1  0
  5 30  1  0
 30  2  1  0
 28 13  1  0
M  CHG  3   4  -1   9  -1  19   1
M  END
>  <UniqueID>  (49) 
44

>  <SMILES>  (49) 
C[NH2+]c1c(F)cc(C[N-]C(=O)/N=c2/[n-]ncs2)cc1F

>  <Energy>  (49) 
65.81792009435141

>  <Genealogy>  (49) 
C[NH2+]c1c(F)cc(C[N-]C(=O)N=c2[n-]ncs2)cc1F (protonated)
C[NH2+]c1c(F)cc(C[N-]C(=O)/N=c2/[n-]ncs2)cc1F (cis-trans isomerization)
C[NH2+]c1c(F)cc(C[N-]C(=O)/N=c2/[n-]ncs2)cc1F (3D coordinates assigned)
C[NH2+]c1c(F)cc(C[N-]C(=O)/N=c2/[n-]ncs2)cc1F (optimized conformer: 65.81792009435141 kcal/mol)

>  <smiles>  (49) 
CNc1c(F)cc(CNC(=O)N=c2[nH]ncs2)cc1F

>  <score_type>  (49) 
oracle

>  <origin>  (49) 
adg

>  <m_score__min__energy>  (49) 
-8.2300000000000004

>  <m_primary>  (49) 
energy

$$$$
49:0
     RDKit          3D

 46 48  0  0  0  0  0  0  0  0999 V2000
   58.0172   34.7233   44.0209 H   0  0  0  0  0  0  0  0  0  0  0  0
   58.3140   34.0680   44.8530 C   0  0  0  0  0  0  0  0  0  0  0  0
   58.7570   34.6260   46.0490 C   0  0  0  0  0  0  0  0  0  0  0  0
   58.8210   35.7200   46.1437 H   0  0  0  0  0  0  0  0  0  0  0  0
   59.1240   33.8160   47.1380 C   0  0  0  0  0  0  0  0  0  0  0  0
   59.6500   34.5210   48.3610 C   0  0  0  0  0  0  0  0  0  0  0  0
   59.2745   34.0178   49.2642 H   0  0  0  0  0  0  0  0  0  0  0  0
   60.7496   34.4929   48.3559 H   0  0  0  0  0  0  0  0  0  0  0  0
   59.3099   35.5671   48.3559 H   0  0  0  0  0  0  0  0  0  0  0  0
   59.0640   32.3990   46.9990 C   0  0  0  0  0  0  0  0  0  0  0  0
   59.5320   31.2330   48.2730 S   0  0  0  0  0  0  0  0  0  0  0  0
   58.8660   31.5670   49.5780 O   0  0  0  0  0  0  0  0  0  0  0  0
   59.0200   29.8790   47.8650 O   0  0  0  0  0  0  0  0  0  0  0  0
   61.2690   31.0980   48.4920 N   0  0  0  0  0  0  0  0  0  0  0  0
   61.4430   30.0980   48.7510 H   0  0  0  0  0  0  0  0  0  0  0  0
   61.7270   31.9210   49.6390 C   0  0  0  0  0  0  0  0  0  0  0  0
   61.1509   32.8579   49.6564 H   0  0  0  0  0  0  0  0  0  0  0  0
   61.5686   31.3397   50.5593 H   0  0  0  0  0  0  0  0  0  0  0  0
   63.2190   32.2590   49.5430 C   0  0  0  0  0  0  0  0  0  0  0  0
   63.5139   32.8396   50.4295 H   0  0  0  0  0  0  0  0  0  0  0  0
   63.7883   31.3192   49.4905 H   0  0  0  0  0  0  0  0  0  0  0  0
   63.5180   33.0840   48.2790 C   0  0  0  0  0  0  0  0  0  0  0  0
   63.4405   34.1523   48.5296 H   0  0  0  0  0  0  0  0  0  0  0  0
   64.5302   32.8179   47.9404 H   0  0  0  0  0  0  0  0  0  0  0  0
   62.5460   32.7770   47.1250 C   0  0  0  0  0  0  0  0  0  0  0  0
   61.7036   33.4831   47.1678 H   0  0  0  0  0  0  0  0  0  0  0  0
   63.0899   32.8798   46.1744 H   0  0  0  0  0  0  0  0  0  0  0  0
   62.0040   31.3440   47.2230 C   0  0  0  0  0  0  0  0  0  0  0  0
   61.3204   31.1671   46.3796 H   0  0  0  0  0  0  0  0  0  0  0  0
   62.8644   30.6591   47.1973 H   0  0  0  0  0  0  0  0  0  0  0  0
   58.6070   31.8590   45.7810 C   0  0  0  0  0  0  0  0  0  0  0  0
   58.5330   30.7668   45.6728 H   0  0  0  0  0  0  0  0  0  0  0  0
   58.2440   32.6790   44.7030 C   0  0  0  0  0  0  0  0  0  0  0  0
   57.7670   32.0910   43.4270 C   0  0  0  0  0  0  0  0  0  0  0  0
   58.3010   32.4500   42.3440 O   0  0  0  0  0  0  0  0  0  0  0  0
   56.6640   31.1740   43.3760 N   0  0  0  0  0  0  0  0  0  0  0  0
   56.5250   30.1050   44.1040 C   0  0  0  0  0  0  0  0  0  0  0  0
   55.3350   29.7070   44.5890 N   0  0  0  0  0  0  0  0  0  0  0  0
   55.5500   28.5970   45.2340 O   0  0  0  0  0  0  0  0  0  0  0  0
   56.8170   28.2540   45.1780 C   0  0  0  0  0  0  0  0  0  0  0  0
   57.3900   27.0430   45.8320 C   0  0  0  0  0  0  0  0  0  0  0  0
   57.3363   27.1564   46.9248 H   0  0  0  0  0  0  0  0  0  0  0  0
   56.8164   26.1554   45.5269 H   0  0  0  0  0  0  0  0  0  0  0  0
   58.4401   26.9237   45.5269 H   0  0  0  0  0  0  0  0  0  0  0  0
   57.5130   29.1990   44.4540 C   0  0  0  0  0  0  0  0  0  0  0  0
   58.5861   29.2266   44.2140 H   0  0  0  0  0  0  0  0  0  0  0  0
  1  2  1  0
  2  3  2  0
  3  4  1  0
  3  5  1  0
  5  6  1  0
  6  7  1  0
  6  8  1  0
  6  9  1  0
  5 10  2  0
 10 11  1  0
 11 12  2  0
 11 13  2  0
 11 14  1  0
 14 15  1  0
 14 16  1  0
 16 17  1  0
 16 18  1  0
 16 19  1  0
 19 20  1  0
 19 21  1  0
 19 22  1  0
 22 23  1  0
 22 24  1  0
 22 25  1  0
 25 26  1  0
 25 27  1  0
 25 28  1  0
 28 29  1  0
 28 30  1  0
 10 31  1  0
 31 32  1  0
 31 33  2  0
 33 34  1  0
 34 35  2  0
 34 36  1  0
 36 37  2  0
 37 38  1  0
 38 39  1  0
 39 40  1  0
 40 41  1  0
 41 42  1  0
 41 43  1  0
 41 44  1  0
 40 45  2  0
 45 46  1  0
 33  2  1  0
 45 37  1  0
 28 14  1  0
M  CHG  2  14   1  38  -1
M  END
>  <UniqueID>  (50) 
45

>  <SMILES>  (50) 
Cc1c/c(=N\C(=O)c2ccc(C)c(S(=O)(=O)[NH+]3CCCCC3)c2)[n-]o1

>  <Energy>  (50) 
93.45502249230974

>  <Genealogy>  (50) 
Cc1cc(=NC(=O)c2ccc(C)c(S(=O)(=O)[NH+]3CCCCC3)c2)[n-]o1 (protonated)
Cc1c/c(=N\C(=O)c2ccc(C)c(S(=O)(=O)[NH+]3CCCCC3)c2)[n-]o1 (cis-trans isomerization)
Cc1c/c(=N\C(=O)c2ccc(C)c(S(=O)(=O)[NH+]3CCCCC3)c2)[n-]o1 (3D coordinates assigned)
Cc1c/c(=N\C(=O)c2ccc(C)c(S(=O)(=O)[NH+]3CCCCC3)c2)[n-]o1 (nonaromatic ring conformer: 93.45502249230974 kcal/mol)

>  <smiles>  (50) 
Cc1cc(=NC(=O)c2ccc(C)c(S(=O)(=O)N3CCCCC3)c2)[nH]o1

>  <score_type>  (50) 
oracle

>  <origin>  (50) 
adg

>  <m_score__min__energy>  (50) 
-10.279999999999999

>  <m_primary>  (50) 
energy

$$$$
50:0
     RDKit          3D

 37 39  0  0  0  0  0  0  0  0999 V2000
   56.7550   30.2650   42.9600 O   0  0  0  0  0  0  0  0  0  0  0  0
   57.0630   30.4370   44.1680 C   0  0  0  0  0  0  0  0  0  0  0  0
   56.7270   31.6800   44.8010 N   0  0  0  0  0  0  0  0  0  0  0  0
   57.3860   32.9620   44.5560 C   0  0  0  0  0  0  0  0  0  0  0  0
   58.1850   33.3930   45.7580 C   0  0  0  0  0  0  0  0  0  0  0  0
   58.9620   34.5630   45.7180 C   0  0  0  0  0  0  0  0  0  0  0  0
   59.6770   34.9730   46.8470 C   0  0  0  0  0  0  0  0  0  0  0  0
   59.6300   34.2150   48.0210 C   0  0  0  0  0  0  0  0  0  0  0  0
   60.3220   34.6150   49.1150 F   0  0  0  0  0  0  0  0  0  0  0  0
   58.8640   33.0450   48.0660 C   0  0  0  0  0  0  0  0  0  0  0  0
   58.1450   32.6330   46.9400 C   0  0  0  0  0  0  0  0  0  0  0  0
   57.7950   29.3750   44.8810 C   0  0  0  0  0  0  0  0  0  0  0  0
   57.1740   28.1410   45.1160 C   0  0  0  0  0  0  0  0  0  0  0  0
   57.8850   27.1130   45.7520 C   0  0  0  0  0  0  0  0  0  0  0  0
   57.2700   25.8300   45.9870 N   0  0  0  0  0  0  0  0  0  0  0  0
   58.0620   24.7200   46.0830 C   0  0  0  0  0  0  0  0  0  0  0  0
   57.4980   23.4660   46.3180 C   0  0  0  0  0  0  0  0  0  0  0  0
   56.1160   23.3730   46.4490 C   0  0  0  0  0  0  0  0  0  0  0  0
   55.5730   22.2580   46.6630 O   0  0  0  0  0  0  0  0  0  0  0  0
   55.3520   24.4890   46.3420 N   0  0  0  0  0  0  0  0  0  0  0  0
   55.9090   25.7060   46.1120 C   0  0  0  0  0  0  0  0  0  0  0  0
   55.1560   26.7130   46.0020 O   0  0  0  0  0  0  0  0  0  0  0  0
   59.2020   27.3560   46.1700 C   0  0  0  0  0  0  0  0  0  0  0  0
   59.7790   28.6050   45.9410 C   0  0  0  0  0  0  0  0  0  0  0  0
   59.0740   29.5820   45.3090 N   0  0  0  0  0  0  0  0  0  0  0  0
   58.0600   32.8615   43.6925 H   0  0  0  0  0  0  0  0  0  0  0  0
   56.6155   33.7209   44.3551 H   0  0  0  0  0  0  0  0  0  0  0  0
   59.0078   35.1588   44.7944 H   0  0  0  0  0  0  0  0  0  0  0  0
   60.2778   35.8938   46.8118 H   0  0  0  0  0  0  0  0  0  0  0  0
   58.8274   32.4481   48.9892 H   0  0  0  0  0  0  0  0  0  0  0  0
   57.5461   31.7112   46.9791 H   0  0  0  0  0  0  0  0  0  0  0  0
   56.1321   27.9791   44.8026 H   0  0  0  0  0  0  0  0  0  0  0  0
   59.1523   24.8164   45.9741 H   0  0  0  0  0  0  0  0  0  0  0  0
   58.1318   22.5705   46.3980 H   0  0  0  0  0  0  0  0  0  0  0  0
   59.7764   26.5658   46.6756 H   0  0  0  0  0  0  0  0  0  0  0  0
   60.8092   28.8011   46.2730 H   0  0  0  0  0  0  0  0  0  0  0  0
   59.5270   30.5120   45.1690 H   0  0  0  0  0  0  0  0  0  0  0  0
  1  2  2  0
  2  3  1  0
  3  4  1  0
  4  5  1  0
  5  6  2  0
  6  7  1  0
  7  8  2  0
  8  9  1  0
  8 10  1  0
 10 11  2  0
  2 12  1  0
 12 13  2  0
 13 14  1  0
 14 15  1  0
 15 16  1  0
 16 17  2  0
 17 18  1  0
 18 19  2  0
 18 20  1  0
 20 21  1  0
 21 22  2  0
 14 23  2  0
 23 24  1  0
 24 25  2  0
 11  5  1  0
 25 12  1  0
 21 15  1  0
  4 26  1  0
  4 27  1  0
  6 28  1  0
  7 29  1  0
 10 30  1  0
 11 31  1  0
 13 32  1  0
 16 33  1  0
 17 34  1  0
 23 35  1  0
 24 36  1  0
 25 37  1  0
M  CHG  3   3  -1  20  -1  25   1
M  END
>  <UniqueID>  (51) 
46

>  <SMILES>  (51) 
O=C([N-]Cc1ccc(F)cc1)c1cc(-n2ccc(=O)[n-]c2=O)cc[nH+]1

>  <Energy>  (51) 
50.08457343965198

>  <Genealogy>  (51) 
O=C([N-]Cc1ccc(F)cc1)c1cc(-n2ccc(=O)[n-]c2=O)cc[nH+]1 (protonated)
O=C([N-]Cc1ccc(F)cc1)c1cc(-n2ccc(=O)[n-]c2=O)cc[nH+]1 (3D coordinates assigned)
O=C([N-]Cc1ccc(F)cc1)c1cc(-n2ccc(=O)[n-]c2=O)cc[nH+]1 (optimized conformer: 50.08457343965198 kcal/mol)

>  <smiles>  (51) 
O=C(NCc1ccc(F)cc1)c1cc(-n2ccc(=O)[nH]c2=O)ccn1

>  <score_type>  (51) 
oracle

>  <origin>  (51) 
adg

>  <m_score__min__energy>  (51) 
-9.5

>  <m_primary>  (51) 
energy

$$$$
51:0
     RDKit          3D

 61 65  0  0  0  0  0  0  0  0999 V2000
   60.4050   28.2800   50.7480 C   0  0  0  0  0  0  0  0  0  0  0  0
   59.7370   28.9820   49.7460 C   0  0  0  0  0  0  0  0  0  0  0  0
   60.3450   30.0890   49.1520 C   0  0  0  0  0  0  0  0  0  0  0  0
   61.6280   30.4810   49.5660 C   0  0  0  0  0  0  0  0  0  0  0  0
   62.2660   31.6310   48.9730 N   0  0  0  0  0  0  0  0  0  0  0  0
   63.1020   32.5110   49.7990 C   0  0  0  0  0  0  0  0  0  0  0  0
   62.9630   33.9970   49.3880 C   0  0  0  0  0  0  0  0  0  0  0  0
   62.3960   34.2050   48.0330 N   0  0  0  0  0  0  0  0  0  0  0  0
   60.9250   34.3890   48.0890 C   0  0  0  0  0  0  0  0  0  0  0  0
   60.3430   34.8890   46.7540 C   0  0  0  0  0  0  0  0  0  0  0  0
   58.8750   34.6900   46.6970 N   0  0  0  0  0  0  0  0  0  0  0  0
   58.3920   33.5330   47.4860 C   0  0  0  0  0  0  0  0  0  0  0  0
   58.7710   32.1850   46.8590 C   0  0  0  0  0  0  0  0  0  0  0  0
   58.4210   32.1760   45.4390 N   0  0  0  0  0  0  0  0  0  0  0  0
   57.9700   30.9610   44.8240 C   0  0  0  0  0  0  0  0  0  0  0  0
   56.8850   31.0140   43.9430 C   0  0  0  0  0  0  0  0  0  0  0  0
   56.4200   29.8440   43.3410 C   0  0  0  0  0  0  0  0  0  0  0  0
   57.0190   28.6550   43.6090 N   0  0  0  0  0  0  0  0  0  0  0  0
   58.0790   28.5600   44.4580 C   0  0  0  0  0  0  0  0  0  0  0  0
   58.6630   27.3120   44.7020 C   0  0  0  0  0  0  0  0  0  0  0  0
   59.7520   27.2060   45.5710 C   0  0  0  0  0  0  0  0  0  0  0  0
   60.2650   28.3460   46.1950 C   0  0  0  0  0  0  0  0  0  0  0  0
   59.6910   29.5980   45.9580 C   0  0  0  0  0  0  0  0  0  0  0  0
   58.5890   29.7190   45.0910 C   0  0  0  0  0  0  0  0  0  0  0  0
   58.7800   33.3220   44.6030 C   0  0  0  0  0  0  0  0  0  0  0  0
   58.3780   34.6260   45.3050 C   0  0  0  0  0  0  0  0  0  0  0  0
   62.8420   33.1440   47.1040 C   0  0  0  0  0  0  0  0  0  0  0  0
   62.2930   31.7710   47.5100 C   0  0  0  0  0  0  0  0  0  0  0  0
   62.2600   29.7760   50.5520 N   0  0  0  0  0  0  0  0  0  0  0  0
   61.6760   28.6970   51.1430 C   0  0  0  0  0  0  0  0  0  0  0  0
   59.9346   27.4061   51.2223 H   0  0  0  0  0  0  0  0  0  0  0  0
   58.7341   28.6646   49.4245 H   0  0  0  0  0  0  0  0  0  0  0  0
   59.8221   30.6510   48.3642 H   0  0  0  0  0  0  0  0  0  0  0  0
   62.7991   32.4037   50.8510 H   0  0  0  0  0  0  0  0  0  0  0  0
   64.1517   32.2156   49.6549 H   0  0  0  0  0  0  0  0  0  0  0  0
   62.3069   34.4960   50.1164 H   0  0  0  0  0  0  0  0  0  0  0  0
   63.9800   34.4158   49.3717 H   0  0  0  0  0  0  0  0  0  0  0  0
   60.4580   33.4248   48.3386 H   0  0  0  0  0  0  0  0  0  0  0  0
   60.7119   35.1509   48.8532 H   0  0  0  0  0  0  0  0  0  0  0  0
   60.5635   35.9613   46.6464 H   0  0  0  0  0  0  0  0  0  0  0  0
   60.8030   34.3127   45.9377 H   0  0  0  0  0  0  0  0  0  0  0  0
   58.8301   33.5874   48.4935 H   0  0  0  0  0  0  0  0  0  0  0  0
   57.2937   33.5874   47.5147 H   0  0  0  0  0  0  0  0  0  0  0  0
   59.8537   32.0245   46.9680 H   0  0  0  0  0  0  0  0  0  0  0  0
   58.2205   31.3819   47.3709 H   0  0  0  0  0  0  0  0  0  0  0  0
   56.3990   31.9764   43.7250 H   0  0  0  0  0  0  0  0  0  0  0  0
   55.5667   29.8849   42.6481 H   0  0  0  0  0  0  0  0  0  0  0  0
   58.2642   26.4132   44.2090 H   0  0  0  0  0  0  0  0  0  0  0  0
   60.2064   26.2230   45.7642 H   0  0  0  0  0  0  0  0  0  0  0  0
   61.1245   28.2577   46.8758 H   0  0  0  0  0  0  0  0  0  0  0  0
   60.1018   30.4916   46.4506 H   0  0  0  0  0  0  0  0  0  0  0  0
   59.8662   33.3210   44.4294 H   0  0  0  0  0  0  0  0  0  0  0  0
   58.2501   33.2496   43.6418 H   0  0  0  0  0  0  0  0  0  0  0  0
   58.7941   35.4741   44.7414 H   0  0  0  0  0  0  0  0  0  0  0  0
   57.2792   34.6660   45.3376 H   0  0  0  0  0  0  0  0  0  0  0  0
   62.4879   33.3847   46.0907 H   0  0  0  0  0  0  0  0  0  0  0  0
   63.9406   33.0984   47.1357 H   0  0  0  0  0  0  0  0  0  0  0  0
   61.2710   31.6612   47.1184 H   0  0  0  0  0  0  0  0  0  0  0  0
   62.9486   30.9921   47.0935 H   0  0  0  0  0  0  0  0  0  0  0  0
   63.2180   30.0530   50.8610 H   0  0  0  0  0  0  0  0  0  0  0  0
   62.2092   28.1517   51.9357 H   0  0  0  0  0  0  0  0  0  0  0  0
  1  2  2  0
  2  3  1  0
  3  4  2  0
  4  5  1  0
  5  6  1  0
  6  7  1  0
  7  8  1  0
  8  9  1  0
  9 10  1  0
 10 11  1  0
 11 12  1  0
 12 13  1  0
 13 14  1  0
 14 15  1  0
 15 16  2  0
 16 17  1  0
 17 18  2  0
 18 19  1  0
 19 20  2  0
 20 21  1  0
 21 22  2  0
 22 23  1  0
 23 24  2  0
 14 25  1  0
 25 26  1  0
  8 27  1  0
 27 28  1  0
  4 29  1  0
 29 30  2  0
 30  1  1  0
 28  5  1  0
 26 11  1  0
 24 15  1  0
 24 19  1  0
  1 31  1  0
  2 32  1  0
  3 33  1  0
  6 34  1  0
  6 35  1  0
  7 36  1  0
  7 37  1  0
  9 38  1  0
  9 39  1  0
 10 40  1  0
 10 41  1  0
 12 42  1  0
 12 43  1  0
 13 44  1  0
 13 45  1  0
 16 46  1  0
 17 47  1  0
 20 48  1  0
 21 49  1  0
 22 50  1  0
 23 51  1  0
 25 52  1  0
 25 53  1  0
 26 54  1  0
 26 55  1  0
 27 56  1  0
 27 57  1  0
 28 58  1  0
 28 59  1  0
 29 60  1  0
 30 61  1  0
M  CHG  1  29   1
M  END
>  <UniqueID>  (52) 
47

>  <SMILES>  (52) 
c1ccc(N2CCN(CCN3CCN(c4ccnc5ccccc45)CC3)CC2)[nH+]c1

>  <Energy>  (52) 
90.48769718937257

>  <Genealogy>  (52) 
c1ccc(N2CCN(CCN3CCN(c4ccnc5ccccc45)CC3)CC2)[nH+]c1 (protonated)
c1ccc(N2CCN(CCN3CCN(c4ccnc5ccccc45)CC3)CC2)[nH+]c1 (3D coordinates assigned)
c1ccc(N2CCN(CCN3CCN(c4ccnc5ccccc45)CC3)CC2)[nH+]c1 (nonaromatic ring conformer: 90.48769718937257 kcal/mol)

>  <smiles>  (52) 
c1ccc(N2CCN(CCN3CCN(c4ccnc5ccccc45)CC3)CC2)nc1

>  <score_type>  (52) 
oracle

>  <origin>  (52) 
adg

>  <m_score__min__energy>  (52) 
-7.7300000000000004

>  <m_primary>  (52) 
energy

$$$$
52:0
     RDKit          3D

 48 51  0  0  0  0  0  0  0  0999 V2000
   62.8850   33.8120   46.7060 C   0  0  0  0  0  0  0  0  0  0  0  0
   62.8180   33.5530   48.2010 C   0  0  0  0  0  0  0  0  0  0  0  0
   61.5990   34.0800   48.7190 O   0  0  0  0  0  0  0  0  0  0  0  0
   60.7010   33.3710   49.5340 C   0  0  0  0  0  0  0  0  0  0  0  0
   61.0650   32.9210   50.8180 C   0  0  0  0  0  0  0  0  0  0  0  0
   60.1480   32.2300   51.6130 C   0  0  0  0  0  0  0  0  0  0  0  0
   58.8530   31.9660   51.1440 C   0  0  0  0  0  0  0  0  0  0  0  0
   57.9120   31.2460   51.9620 N   0  0  0  0  0  0  0  0  0  0  0  0
   57.3710   30.0850   51.6230 N   0  0  0  0  0  0  0  0  0  0  0  0
   56.5540   29.7420   52.6340 C   0  0  0  0  0  0  0  0  0  0  0  0
   56.6250   30.7330   53.5860 C   0  0  0  0  0  0  0  0  0  0  0  0
   57.4830   31.6690   53.1430 N   0  0  0  0  0  0  0  0  0  0  0  0
   58.4900   32.4090   49.8610 C   0  0  0  0  0  0  0  0  0  0  0  0
   59.4000   33.1160   49.0580 C   0  0  0  0  0  0  0  0  0  0  0  0
   58.9900   33.5520   47.7050 C   0  0  0  0  0  0  0  0  0  0  0  0
   58.7340   34.7710   47.5060 O   0  0  0  0  0  0  0  0  0  0  0  0
   58.8720   32.6100   46.6190 N   0  0  0  0  0  0  0  0  0  0  0  0
   58.3800   31.2500   46.8740 C   0  0  0  0  0  0  0  0  0  0  0  0
   58.0430   30.5240   45.5660 C   0  0  0  0  0  0  0  0  0  0  0  0
   57.2390   31.4000   44.6860 N   0  0  0  0  0  0  0  0  0  0  0  0
   56.6320   30.7840   43.4770 C   0  0  0  0  0  0  0  0  0  0  0  0
   56.9470   29.3030   43.2900 C   0  0  0  0  0  0  0  0  0  0  0  0
   55.5300   29.7310   43.6320 C   0  0  0  0  0  0  0  0  0  0  0  0
   57.8270   32.7340   44.3990 C   0  0  0  0  0  0  0  0  0  0  0  0
   59.0780   33.0420   45.2330 C   0  0  0  0  0  0  0  0  0  0  0  0
   63.1568   34.8629   46.5278 H   0  0  0  0  0  0  0  0  0  0  0  0
   63.6429   33.1554   46.2537 H   0  0  0  0  0  0  0  0  0  0  0  0
   61.9038   33.6053   46.2537 H   0  0  0  0  0  0  0  0  0  0  0  0
   62.8582   32.4697   48.3879 H   0  0  0  0  0  0  0  0  0  0  0  0
   63.6695   34.0418   48.6970 H   0  0  0  0  0  0  0  0  0  0  0  0
   62.0790   33.1152   51.1974 H   0  0  0  0  0  0  0  0  0  0  0  0
   60.4442   31.8897   52.6162 H   0  0  0  0  0  0  0  0  0  0  0  0
   55.9388   28.8319   52.6902 H   0  0  0  0  0  0  0  0  0  0  0  0
   56.0774   30.7556   54.5397 H   0  0  0  0  0  0  0  0  0  0  0  0
   57.4795   32.1993   49.4803 H   0  0  0  0  0  0  0  0  0  0  0  0
   59.1561   30.6828   47.4088 H   0  0  0  0  0  0  0  0  0  0  0  0
   57.4632   31.3204   47.4777 H   0  0  0  0  0  0  0  0  0  0  0  0
   58.9761   30.2507   45.0517 H   0  0  0  0  0  0  0  0  0  0  0  0
   57.4622   29.6191   45.7980 H   0  0  0  0  0  0  0  0  0  0  0  0
   56.7097   31.7095   42.8876 H   0  0  0  0  0  0  0  0  0  0  0  0
   57.1756   28.9129   42.2872 H   0  0  0  0  0  0  0  0  0  0  0  0
   57.6730   28.6032   43.7296 H   0  0  0  0  0  0  0  0  0  0  0  0
   54.7342   29.6524   42.8766 H   0  0  0  0  0  0  0  0  0  0  0  0
   54.8077   29.4711   44.4199 H   0  0  0  0  0  0  0  0  0  0  0  0
   58.0999   32.7728   43.3341 H   0  0  0  0  0  0  0  0  0  0  0  0
   57.0686   33.4861   44.6621 H   0  0  0  0  0  0  0  0  0  0  0  0
   59.9403   32.5070   44.8085 H   0  0  0  0  0  0  0  0  0  0  0  0
   59.2675   34.1254   45.2155 H   0  0  0  0  0  0  0  0  0  0  0  0
  1  2  1  0
  2  3  1  0
  3  4  1  0
  4  5  2  0
  5  6  1  0
  6  7  2  0
  7  8  1  0
  8  9  1  0
  9 10  2  0
 10 11  1  0
 11 12  2  0
  7 13  1  0
 13 14  2  0
 14 15  1  0
 15 16  2  0
 15 17  1  0
 17 18  1  0
 18 19  1  0
 19 20  1  0
 20 21  1  0
 21 22  1  0
 22 23  1  0
 20 24  1  0
 24 25  1  0
 14  4  1  0
 25 17  1  0
 12  8  1  0
 23 21  1  0
  1 26  1  0
  1 27  1  0
  1 28  1  0
  2 29  1  0
  2 30  1  0
  5 31  1  0
  6 32  1  0
 10 33  1  0
 11 34  1  0
 13 35  1  0
 18 36  1  0
 18 37  1  0
 19 38  1  0
 19 39  1  0
 21 40  1  0
 22 41  1  0
 22 42  1  0
 23 43  1  0
 23 44  1  0
 24 45  1  0
 24 46  1  0
 25 47  1  0
 25 48  1  0
M  END
>  <UniqueID>  (53) 
48

>  <SMILES>  (53) 
CCOc1ccc(-n2nccn2)cc1C(=O)N1CCN(C2CC2)CC1

>  <Energy>  (53) 
367.5061636010773

>  <Genealogy>  (53) 
CCOc1ccc(-n2nccn2)cc1C(=O)N1CCN(C2CC2)CC1 (3D coordinates assigned)
CCOc1ccc(-n2nccn2)cc1C(=O)N1CCN(C2CC2)CC1 (nonaromatic ring conformer: 367.5061636010773 kcal/mol)

>  <smiles>  (53) 
CCOc1ccc(-n2nccn2)cc1C(=O)N1CCN(C2CC2)CC1

>  <score_type>  (53) 
oracle

>  <origin>  (53) 
adg

>  <m_score__min__energy>  (53) 
-7.6200000000000001

>  <m_primary>  (53) 
energy

$$$$
53:0
     RDKit          3D

 35 37  0  0  0  0  0  0  0  0999 V2000
   58.3020   28.3001   46.4215 H   0  0  0  0  0  0  0  0  0  0  0  0
   58.3970   29.3960   46.4130 C   0  0  0  0  0  0  0  0  0  0  0  0
   59.2110   30.0060   47.3080 N   0  0  0  0  0  0  0  0  0  0  0  0
   59.3880   31.3540   47.3410 C   0  0  0  0  0  0  0  0  0  0  0  0
   60.1610   31.8960   48.2430 N   0  0  0  0  0  0  0  0  0  0  0  0
   61.5040   32.3730   48.0610 C   0  0  0  0  0  0  0  0  0  0  0  0
   61.8890   33.0920   46.9150 C   0  0  0  0  0  0  0  0  0  0  0  0
   61.1630   33.2663   46.1072 H   0  0  0  0  0  0  0  0  0  0  0  0
   63.1900   33.5850   46.8000 C   0  0  0  0  0  0  0  0  0  0  0  0
   63.4876   34.1408   45.8986 H   0  0  0  0  0  0  0  0  0  0  0  0
   64.1160   33.3750   47.8260 C   0  0  0  0  0  0  0  0  0  0  0  0
   65.1383   33.7696   47.7296 H   0  0  0  0  0  0  0  0  0  0  0  0
   63.7480   32.6630   48.9790 C   0  0  0  0  0  0  0  0  0  0  0  0
   64.7240   32.4920   50.1160 C   0  0  0  0  0  0  0  0  0  0  0  0
   66.0140   32.7700   49.6990 F   0  0  0  0  0  0  0  0  0  0  0  0
   64.6940   31.1940   50.5950 F   0  0  0  0  0  0  0  0  0  0  0  0
   64.3850   33.3580   51.1400 F   0  0  0  0  0  0  0  0  0  0  0  0
   62.4260   32.1950   49.1010 C   0  0  0  0  0  0  0  0  0  0  0  0
   62.1132   31.6837   50.0233 H   0  0  0  0  0  0  0  0  0  0  0  0
   58.7010   32.1660   46.4130 C   0  0  0  0  0  0  0  0  0  0  0  0
   58.8600   33.5670   46.4040 C   0  0  0  0  0  0  0  0  0  0  0  0
   59.5062   34.0473   47.1535 H   0  0  0  0  0  0  0  0  0  0  0  0
   58.2050   34.3490   45.4530 C   0  0  0  0  0  0  0  0  0  0  0  0
   58.3287   35.4420   45.4622 H   0  0  0  0  0  0  0  0  0  0  0  0
   57.3950   33.7500   44.4920 C   0  0  0  0  0  0  0  0  0  0  0  0
   56.8917   34.3705   43.7359 H   0  0  0  0  0  0  0  0  0  0  0  0
   57.2190   32.3660   44.4840 C   0  0  0  0  0  0  0  0  0  0  0  0
   56.5859   31.9024   43.7131 H   0  0  0  0  0  0  0  0  0  0  0  0
   57.8450   31.5540   45.4550 C   0  0  0  0  0  0  0  0  0  0  0  0
   57.6760   30.1470   45.4780 C   0  0  0  0  0  0  0  0  0  0  0  0
   56.7500   29.4290   44.5740 C   0  0  0  0  0  0  0  0  0  0  0  0
   55.5320   29.3310   44.8790 O   0  0  0  0  0  0  0  0  0  0  0  0
   57.2070   28.9010   43.3260 N   0  0  0  0  0  0  0  0  0  0  0  0
   56.5480   28.3860   42.7010 H   0  0  0  0  0  0  0  0  0  0  0  0
   58.1880   29.0620   43.0050 H   0  0  0  0  0  0  0  0  0  0  0  0
  1  2  1  0
  2  3  1  0
  3  4  1  0
  4  5  2  0
  5  6  1  0
  6  7  2  0
  7  8  1  0
  7  9  1  0
  9 10  1  0
  9 11  2  0
 11 12  1  0
 11 13  1  0
 13 14  1  0
 14 15  1  0
 14 16  1  0
 14 17  1  0
 13 18  2  0
 18 19  1  0
  4 20  1  0
 20 21  2  0
 21 22  1  0
 21 23  1  0
 23 24  1  0
 23 25  2  0
 25 26  1  0
 25 27  1  0
 27 28  1  0
 27 29  2  0
 29 30  1  0
 30 31  1  0
 31 32  2  0
 31 33  1  0
 33 34  1  0
 33 35  1  0
 30  2  2  0
 18  6  1  0
 29 20  1  0
M  CHG  1   3  -1
M  END
>  <UniqueID>  (54) 
49

>  <SMILES>  (54) 
NC(=O)c1c[n-]/c(=N\c2cccc(C(F)(F)F)c2)c2ccccc12

>  <Energy>  (54) 
56.6299296868347

>  <Genealogy>  (54) 
NC(=O)c1c[n-]c(=Nc2cccc(C(F)(F)F)c2)c2ccccc12 (protonated)
NC(=O)c1c[n-]/c(=N\c2cccc(C(F)(F)F)c2)c2ccccc12 (cis-trans isomerization)
NC(=O)c1c[n-]/c(=N\c2cccc(C(F)(F)F)c2)c2ccccc12 (3D coordinates assigned)
NC(=O)c1c[n-]/c(=N\c2cccc(C(F)(F)F)c2)c2ccccc12 (optimized conformer: 56.6299296868347 kcal/mol)

>  <smiles>  (54) 
NC(=O)c1c[nH]c(=Nc2cccc(C(F)(F)F)c2)c2ccccc12

>  <score_type>  (54) 
oracle

>  <origin>  (54) 
adg

>  <m_score__min__energy>  (54) 
-9.0700000000000003

>  <m_primary>  (54) 
energy

$$$$
54:0
     RDKit          3D

 35 36  0  0  0  0  0  0  0  0999 V2000
   57.6200   20.7170   44.4860 N   0  0  0  0  0  0  0  0  0  0  0  0
   57.6190   22.1460   44.4230 C   0  0  0  0  0  0  0  0  0  0  0  0
   56.8410   22.8080   43.4640 C   0  0  0  0  0  0  0  0  0  0  0  0
   56.8420   24.2050   43.4020 C   0  0  0  0  0  0  0  0  0  0  0  0
   57.6060   24.9580   44.3050 C   0  0  0  0  0  0  0  0  0  0  0  0
   57.6080   26.3920   44.2030 N   0  0  0  0  0  0  0  0  0  0  0  0
   57.8350   27.2800   45.3090 C   0  0  0  0  0  0  0  0  0  0  0  0
   57.8140   26.8390   46.4910 O   0  0  0  0  0  0  0  0  0  0  0  0
   58.0360   28.6800   45.0600 N   0  0  0  0  0  0  0  0  0  0  0  0
   58.3040   29.6510   46.0880 C   0  0  0  0  0  0  0  0  0  0  0  0
   58.4600   29.2840   47.2830 O   0  0  0  0  0  0  0  0  0  0  0  0
   58.3770   31.0920   45.7490 C   0  0  0  0  0  0  0  0  0  0  0  0
   57.4270   31.6070   44.8460 C   0  0  0  0  0  0  0  0  0  0  0  0
   57.4100   32.9640   44.5250 C   0  0  0  0  0  0  0  0  0  0  0  0
   58.3330   33.8300   45.1040 C   0  0  0  0  0  0  0  0  0  0  0  0
   59.2900   33.3400   45.9950 C   0  0  0  0  0  0  0  0  0  0  0  0
   59.3470   31.9680   46.3150 C   0  0  0  0  0  0  0  0  0  0  0  0
   60.4240   31.4750   47.2640 C   0  0  0  0  0  0  0  0  0  0  0  0
   61.0260   30.3360   46.7610 F   0  0  0  0  0  0  0  0  0  0  0  0
   59.8610   31.1950   48.4950 F   0  0  0  0  0  0  0  0  0  0  0  0
   61.4150   32.4260   47.4420 F   0  0  0  0  0  0  0  0  0  0  0  0
   58.4040   24.2890   45.2510 C   0  0  0  0  0  0  0  0  0  0  0  0
   58.4020   22.8920   45.3140 C   0  0  0  0  0  0  0  0  0  0  0  0
   58.1640   20.2150   45.2240 H   0  0  0  0  0  0  0  0  0  0  0  0
   57.0780   20.1500   43.7970 H   0  0  0  0  0  0  0  0  0  0  0  0
   56.2282   22.2277   42.7585 H   0  0  0  0  0  0  0  0  0  0  0  0
   56.2384   24.7175   42.6384 H   0  0  0  0  0  0  0  0  0  0  0  0
   57.3440   26.8190   43.2860 H   0  0  0  0  0  0  0  0  0  0  0  0
   58.0130   29.0040   44.0670 H   0  0  0  0  0  0  0  0  0  0  0  0
   56.6897   30.9310   44.3885 H   0  0  0  0  0  0  0  0  0  0  0  0
   56.6659   33.3506   43.8130 H   0  0  0  0  0  0  0  0  0  0  0  0
   58.3086   34.9022   44.8593 H   0  0  0  0  0  0  0  0  0  0  0  0
   60.0096   34.0341   46.4537 H   0  0  0  0  0  0  0  0  0  0  0  0
   59.0324   24.8674   45.9442 H   0  0  0  0  0  0  0  0  0  0  0  0
   59.0176   22.3767   46.0660 H   0  0  0  0  0  0  0  0  0  0  0  0
  1  2  1  0
  2  3  2  0
  3  4  1  0
  4  5  2  0
  5  6  1  0
  6  7  1  0
  7  8  2  0
  7  9  1  0
  9 10  1  0
 10 11  2  0
 10 12  1  0
 12 13  2  0
 13 14  1  0
 14 15  2  0
 15 16  1  0
 16 17  2  0
 17 18  1  0
 18 19  1  0
 18 20  1  0
 18 21  1  0
  5 22  1  0
 22 23  2  0
 23  2  1  0
 17 12  1  0
  1 24  1  0
  1 25  1  0
  3 26  1  0
  4 27  1  0
  6 28  1  0
  9 29  1  0
 13 30  1  0
 14 31  1  0
 15 32  1  0
 16 33  1  0
 22 34  1  0
 23 35  1  0
M  END
>  <UniqueID>  (55) 
50

>  <SMILES>  (55) 
Nc1ccc(NC(=O)NC(=O)c2ccccc2C(F)(F)F)cc1

>  <Energy>  (55) 
45.72486322721859

>  <Genealogy>  (55) 
Nc1ccc(NC(=O)NC(=O)c2ccccc2C(F)(F)F)cc1 (3D coordinates assigned)
Nc1ccc(NC(=O)NC(=O)c2ccccc2C(F)(F)F)cc1 (optimized conformer: 45.72486322721859 kcal/mol)

>  <smiles>  (55) 
Nc1ccc(NC(=O)NC(=O)c2ccccc2C(F)(F)F)cc1

>  <score_type>  (55) 
oracle

>  <origin>  (55) 
adg

>  <m_score__min__energy>  (55) 
-6.29

>  <m_primary>  (55) 
energy

$$$$
55:0
     RDKit          3D

 42 43  0  0  0  0  0  0  0  0999 V2000
   60.2430   29.9540   45.9770 C   0  0  0  0  0  0  0  0  0  0  0  0
   59.5900   29.7150   44.6180 C   0  0  0  0  0  0  0  0  0  0  0  0
   58.1280   29.7690   44.7290 N   0  0  0  0  0  0  0  0  0  0  0  0
   57.3480   30.7950   44.3240 C   0  0  0  0  0  0  0  0  0  0  0  0
   57.9510   32.3380   43.6330 S   0  0  0  0  0  0  0  0  0  0  0  0
   57.1330   33.3580   44.9030 C   0  0  0  0  0  0  0  0  0  0  0  0
   58.0810   33.5910   46.0430 C   0  0  0  0  0  0  0  0  0  0  0  0
   58.0380   32.7670   47.1760 C   0  0  0  0  0  0  0  0  0  0  0  0
   58.9400   32.9620   48.2270 C   0  0  0  0  0  0  0  0  0  0  0  0
   59.9080   33.9790   48.1560 C   0  0  0  0  0  0  0  0  0  0  0  0
   60.8350   34.1780   49.2400 N   0  0  0  0  0  0  0  0  0  0  0  0
   62.0010   34.5680   49.0170 O   0  0  0  0  0  0  0  0  0  0  0  0
   60.4510   33.9440   50.5400 O   0  0  0  0  0  0  0  0  0  0  0  0
   59.9560   34.7940   47.0100 C   0  0  0  0  0  0  0  0  0  0  0  0
   59.0540   34.5980   45.9610 C   0  0  0  0  0  0  0  0  0  0  0  0
   56.0440   30.5370   44.5020 N   0  0  0  0  0  0  0  0  0  0  0  0
   55.9650   29.3260   45.0290 N   0  0  0  0  0  0  0  0  0  0  0  0
   57.2230   28.8470   45.1600 C   0  0  0  0  0  0  0  0  0  0  0  0
   57.5070   27.4830   45.8020 C   0  0  0  0  0  0  0  0  0  0  0  0
   56.2110   26.6700   46.0080 C   0  0  0  0  0  0  0  0  0  0  0  0
   58.5130   26.6930   44.9410 C   0  0  0  0  0  0  0  0  0  0  0  0
   58.1460   27.6910   47.1980 C   0  0  0  0  0  0  0  0  0  0  0  0
   59.5328   29.6941   46.7758 H   0  0  0  0  0  0  0  0  0  0  0  0
   61.1420   29.3266   46.0672 H   0  0  0  0  0  0  0  0  0  0  0  0
   60.5246   31.0135   46.0672 H   0  0  0  0  0  0  0  0  0  0  0  0
   59.9276   30.4897   43.9138 H   0  0  0  0  0  0  0  0  0  0  0  0
   59.8808   28.7178   44.2561 H   0  0  0  0  0  0  0  0  0  0  0  0
   56.8409   34.3241   44.4655 H   0  0  0  0  0  0  0  0  0  0  0  0
   56.2370   32.8369   45.2713 H   0  0  0  0  0  0  0  0  0  0  0  0
   57.2906   31.9624   47.2390 H   0  0  0  0  0  0  0  0  0  0  0  0
   58.8916   32.3151   49.1153 H   0  0  0  0  0  0  0  0  0  0  0  0
   60.7098   35.5920   46.9393 H   0  0  0  0  0  0  0  0  0  0  0  0
   59.1072   35.2364   45.0668 H   0  0  0  0  0  0  0  0  0  0  0  0
   56.0204   26.5504   47.0847 H   0  0  0  0  0  0  0  0  0  0  0  0
   55.3673   27.2010   45.5430 H   0  0  0  0  0  0  0  0  0  0  0  0
   56.3218   25.6793   45.5430 H   0  0  0  0  0  0  0  0  0  0  0  0
   59.2077   26.1475   45.5966 H   0  0  0  0  0  0  0  0  0  0  0  0
   57.9698   25.9776   44.3061 H   0  0  0  0  0  0  0  0  0  0  0  0
   59.0792   27.3903   44.3061 H   0  0  0  0  0  0  0  0  0  0  0  0
   57.4087   27.4510   47.9782 H   0  0  0  0  0  0  0  0  0  0  0  0
   59.0195   27.0308   47.3035 H   0  0  0  0  0  0  0  0  0  0  0  0
   58.4635   28.7389   47.3035 H   0  0  0  0  0  0  0  0  0  0  0  0
  1  2  1  0
  2  3  1  0
  3  4  1  0
  4  5  1  0
  5  6  1  0
  6  7  1  0
  7  8  2  0
  8  9  1  0
  9 10  2  0
 10 11  1  0
 11 12  2  0
 11 13  1  0
 10 14  1  0
 14 15  2  0
  4 16  2  0
 16 17  1  0
 17 18  2  0
 18 19  1  0
 19 20  1  0
 19 21  1  0
 19 22  1  0
 18  3  1  0
 15  7  1  0
  1 23  1  0
  1 24  1  0
  1 25  1  0
  2 26  1  0
  2 27  1  0
  6 28  1  0
  6 29  1  0
  8 30  1  0
  9 31  1  0
 14 32  1  0
 15 33  1  0
 20 34  1  0
 20 35  1  0
 20 36  1  0
 21 37  1  0
 21 38  1  0
 21 39  1  0
 22 40  1  0
 22 41  1  0
 22 42  1  0
M  CHG  2  11   1  13  -1
M  END
>  <UniqueID>  (56) 
51

>  <SMILES>  (56) 
CCn1c(SCc2ccc([N+](=O)[O-])cc2)nnc1C(C)(C)C

>  <Energy>  (56) 
70.49205026017324

>  <Genealogy>  (56) 
CCn1c(SCc2ccc([N+](=O)[O-])cc2)nnc1C(C)(C)C (3D coordinates assigned)
CCn1c(SCc2ccc([N+](=O)[O-])cc2)nnc1C(C)(C)C (optimized conformer: 70.49205026017324 kcal/mol)

>  <smiles>  (56) 
CCn1c(SCc2ccc([N+](=O)[O-])cc2)nnc1C(C)(C)C

>  <score_type>  (56) 
oracle

>  <origin>  (56) 
adg

>  <m_score__min__energy>  (56) 
-7.8799999999999999

>  <m_primary>  (56) 
energy

$$$$
56:0
     RDKit          3D

 49 52  0  0  0  0  0  0  0  0999 V2000
   58.6550   25.7386   44.4023 H   0  0  0  0  0  0  0  0  0  0  0  0
   58.0440   26.6240   44.6320 C   0  0  0  0  0  0  0  0  0  0  0  0
   58.3230   28.1870   44.0740 S   0  0  0  0  0  0  0  0  0  0  0  0
   56.9760   28.8210   44.8630 C   0  0  0  0  0  0  0  0  0  0  0  0
   56.6100   30.0690   44.8830 N   0  0  0  0  0  0  0  0  0  0  0  0
   57.4130   31.1890   45.2880 C   0  0  0  0  0  0  0  0  0  0  0  0
   58.4760   30.9760   46.1700 C   0  0  0  0  0  0  0  0  0  0  0  0
   58.7014   29.9565   46.5161 H   0  0  0  0  0  0  0  0  0  0  0  0
   59.2550   32.0470   46.6160 C   0  0  0  0  0  0  0  0  0  0  0  0
   60.0949   31.8635   47.3023 H   0  0  0  0  0  0  0  0  0  0  0  0
   58.9720   33.3580   46.1930 C   0  0  0  0  0  0  0  0  0  0  0  0
   59.8060   34.4870   46.6830 C   0  0  0  0  0  0  0  0  0  0  0  0
   59.7850   35.5750   46.0420 O   0  0  0  0  0  0  0  0  0  0  0  0
   60.6570   34.3540   47.8500 N   0  0  0  0  0  0  0  0  0  0  0  0
   60.9980   35.3030   48.1260 H   0  0  0  0  0  0  0  0  0  0  0  0
   59.8780   33.8040   48.9720 C   0  0  0  0  0  0  0  0  0  0  0  0
   59.5808   32.7719   48.7344 H   0  0  0  0  0  0  0  0  0  0  0  0
   58.9868   34.4301   49.1262 H   0  0  0  0  0  0  0  0  0  0  0  0
   60.7170   33.8050   50.2660 C   0  0  0  0  0  0  0  0  0  0  0  0
   60.2757   33.0820   50.9677 H   0  0  0  0  0  0  0  0  0  0  0  0
   60.7020   34.8316   50.6608 H   0  0  0  0  0  0  0  0  0  0  0  0
   62.1400   33.4410   50.0490 N   0  0  0  0  0  0  0  0  0  0  0  0
   63.0510   34.5860   50.2250 C   0  0  0  0  0  0  0  0  0  0  0  0
   63.2005   34.7740   51.2985 H   0  0  0  0  0  0  0  0  0  0  0  0
   64.0190   34.3601   49.7540 H   0  0  0  0  0  0  0  0  0  0  0  0
   62.6134   35.4785   49.7540 H   0  0  0  0  0  0  0  0  0  0  0  0
   62.3770   32.7390   48.7730 C   0  0  0  0  0  0  0  0  0  0  0  0
   61.8658   31.7656   48.8072 H   0  0  0  0  0  0  0  0  0  0  0  0
   63.4647   32.6248   48.6549 H   0  0  0  0  0  0  0  0  0  0  0  0
   61.8560   33.5280   47.5490 C   0  0  0  0  0  0  0  0  0  0  0  0
   61.5963   32.8112   46.7561 H   0  0  0  0  0  0  0  0  0  0  0  0
   62.6566   34.2158   47.2393 H   0  0  0  0  0  0  0  0  0  0  0  0
   57.8720   33.5760   45.3450 C   0  0  0  0  0  0  0  0  0  0  0  0
   57.6211   34.5990   45.0280 H   0  0  0  0  0  0  0  0  0  0  0  0
   57.0950   32.5020   44.9020 C   0  0  0  0  0  0  0  0  0  0  0  0
   56.2300   32.6856   44.2477 H   0  0  0  0  0  0  0  0  0  0  0  0
   56.3200   27.8720   45.5620 N   0  0  0  0  0  0  0  0  0  0  0  0
   56.9000   26.6450   45.4390 C   0  0  0  0  0  0  0  0  0  0  0  0
   56.3320   25.4500   46.1180 C   0  0  0  0  0  0  0  0  0  0  0  0
   55.1500   24.8620   45.6260 C   0  0  0  0  0  0  0  0  0  0  0  0
   54.6554   25.2901   44.7416 H   0  0  0  0  0  0  0  0  0  0  0  0
   54.6000   23.7390   46.2520 C   0  0  0  0  0  0  0  0  0  0  0  0
   53.6787   23.2864   45.8567 H   0  0  0  0  0  0  0  0  0  0  0  0
   55.2180   23.1910   47.3780 C   0  0  0  0  0  0  0  0  0  0  0  0
   54.7845   22.3068   47.8682 H   0  0  0  0  0  0  0  0  0  0  0  0
   56.3860   23.7660   47.8810 C   0  0  0  0  0  0  0  0  0  0  0  0
   56.8706   23.3351   48.7695 H   0  0  0  0  0  0  0  0  0  0  0  0
   56.9420   24.8880   47.2590 C   0  0  0  0  0  0  0  0  0  0  0  0
   57.8621   25.3359   47.6625 H   0  0  0  0  0  0  0  0  0  0  0  0
  1  2  1  0
  2  3  1  0
  3  4  1  0
  4  5  2  0
  5  6  1  0
  6  7  2  0
  7  8  1  0
  7  9  1  0
  9 10  1  0
  9 11  2  0
 11 12  1  0
 12 13  2  0
 12 14  1  0
 14 15  1  0
 14 16  1  0
 16 17  1  0
 16 18  1  0
 16 19  1  0
 19 20  1  0
 19 21  1  0
 19 22  1  0
 22 23  1  0
 23 24  1  0
 23 25  1  0
 23 26  1  0
 22 27  1  0
 27 28  1  0
 27 29  1  0
 27 30  1  0
 30 31  1  0
 30 32  1  0
 11 33  1  0
 33 34  1  0
 33 35  2  0
 35 36  1  0
  4 37  1  0
 37 38  1  0
 38 39  1  0
 39 40  2  0
 40 41  1  0
 40 42  1  0
 42 43  1  0
 42 44  2  0
 44 45  1  0
 44 46  1  0
 46 47  1  0
 46 48  2  0
 48 49  1  0
 38  2  2  0
 48 39  1  0
 35  6  1  0
 30 14  1  0
M  CHG  2  14   1  37  -1
M  END
>  <UniqueID>  (57) 
52

>  <SMILES>  (57) 
CN1CC[NH+](C(=O)c2ccc(/N=c3/[n-]c(-c4ccccc4)cs3)cc2)CC1

>  <Energy>  (57) 
109.26438122838952

>  <Genealogy>  (57) 
CN1CC[NH+](C(=O)c2ccc(N=c3[n-]c(-c4ccccc4)cs3)cc2)CC1 (protonated)
CN1CC[NH+](C(=O)c2ccc(/N=c3/[n-]c(-c4ccccc4)cs3)cc2)CC1 (cis-trans isomerization)
CN1CC[NH+](C(=O)c2ccc(/N=c3/[n-]c(-c4ccccc4)cs3)cc2)CC1 (3D coordinates assigned)
CN1CC[NH+](C(=O)c2ccc(/N=c3/[n-]c(-c4ccccc4)cs3)cc2)CC1 (nonaromatic ring conformer: 109.26438122838952 kcal/mol)

>  <smiles>  (57) 
CN1CCN(C(=O)c2ccc(N=c3[nH]c(-c4ccccc4)cs3)cc2)CC1

>  <score_type>  (57) 
oracle

>  <origin>  (57) 
adg

>  <m_score__min__energy>  (57) 
-8.4399999999999995

>  <m_primary>  (57) 
energy

$$$$
57:0
     RDKit          3D

 37 38  0  0  0  0  0  0  0  0999 V2000
   57.4440   32.3450   40.5090 N   0  0  0  0  0  0  0  0  0  0  0  0
   57.7540   32.5090   41.6130 C   0  0  0  0  0  0  0  0  0  0  0  0
   58.1460   32.7150   43.0120 C   0  0  0  0  0  0  0  0  0  0  0  0
   57.5820   31.6170   43.9360 C   0  0  0  0  0  0  0  0  0  0  0  0
   57.6550   30.2320   43.3850 N   0  0  2  0  0  0  0  0  0  0  0  0
   56.4100   29.8020   42.6980 C   0  0  0  0  0  0  0  0  0  0  0  0
   55.2190   29.7410   43.6650 C   0  0  0  0  0  0  0  0  0  0  0  0
   55.5420   28.9960   44.8390 O   0  0  0  0  0  0  0  0  0  0  0  0
   56.8530   28.8160   45.2890 C   0  0  0  0  0  0  0  0  0  0  0  0
   57.0480   28.1910   46.3650 O   0  0  0  0  0  0  0  0  0  0  0  0
   58.0240   29.2040   44.4080 C   0  0  2  0  0  0  0  0  0  0  0  0
   59.3450   29.5020   45.1810 C   0  0  0  0  0  0  0  0  0  0  0  0
   59.2130   30.1820   46.5310 C   0  0  0  0  0  0  0  0  0  0  0  0
   59.0600   29.4890   47.5740 O   0  0  0  0  0  0  0  0  0  0  0  0
   59.3060   31.6580   46.6610 C   0  0  0  0  0  0  0  0  0  0  0  0
   58.1410   32.4170   46.8800 C   0  0  0  0  0  0  0  0  0  0  0  0
   58.2130   33.8080   47.0040 C   0  0  0  0  0  0  0  0  0  0  0  0
   59.4450   34.4560   46.9150 C   0  0  0  0  0  0  0  0  0  0  0  0
   60.6100   33.7150   46.7060 C   0  0  0  0  0  0  0  0  0  0  0  0
   60.5450   32.3240   46.5820 C   0  0  0  0  0  0  0  0  0  0  0  0
   59.2440   32.7061   43.0785 H   0  0  0  0  0  0  0  0  0  0  0  0
   57.7360   33.6810   43.3417 H   0  0  0  0  0  0  0  0  0  0  0  0
   58.1484   31.6398   44.8787 H   0  0  0  0  0  0  0  0  0  0  0  0
   56.5128   31.8415   44.0642 H   0  0  0  0  0  0  0  0  0  0  0  0
   58.4140   30.2240   42.6630 H   0  0  0  0  0  0  0  0  0  0  0  0
   56.1807   30.5179   41.8949 H   0  0  0  0  0  0  0  0  0  0  0  0
   56.5738   28.7928   42.2921 H   0  0  0  0  0  0  0  0  0  0  0  0
   54.9405   30.7647   43.9555 H   0  0  0  0  0  0  0  0  0  0  0  0
   54.3829   29.2402   43.1550 H   0  0  0  0  0  0  0  0  0  0  0  0
   58.2741   28.2986   43.8356 H   0  0  0  0  0  0  0  0  0  0  0  0
   59.8597   28.5431   45.3410 H   0  0  0  0  0  0  0  0  0  0  0  0
   59.8898   30.2202   44.5507 H   0  0  0  0  0  0  0  0  0  0  0  0
   57.1665   31.9121   46.9542 H   0  0  0  0  0  0  0  0  0  0  0  0
   57.2963   34.3923   47.1721 H   0  0  0  0  0  0  0  0  0  0  0  0
   59.4989   35.5506   47.0094 H   0  0  0  0  0  0  0  0  0  0  0  0
   61.5812   34.2270   46.6388 H   0  0  0  0  0  0  0  0  0  0  0  0
   61.4670   31.7459   46.4217 H   0  0  0  0  0  0  0  0  0  0  0  0
  1  2  3  0
  2  3  1  0
  3  4  1  0
  4  5  1  0
  5  6  1  0
  6  7  1  0
  7  8  1  0
  8  9  1  0
  9 10  2  0
  9 11  1  0
 11 12  1  0
 12 13  1  0
 13 14  2  0
 13 15  1  0
 15 16  2  0
 16 17  1  0
 17 18  2  0
 18 19  1  0
 19 20  2  0
 11  5  1  0
 20 15  1  0
  3 21  1  0
  3 22  1  0
  4 23  1  0
  4 24  1  0
  5 25  1  6
  6 26  1  0
  6 27  1  0
  7 28  1  0
  7 29  1  0
 11 30  1  6
 12 31  1  0
 12 32  1  0
 16 33  1  0
 17 34  1  0
 18 35  1  0
 19 36  1  0
 20 37  1  0
M  CHG  1   5   1
M  END
>  <UniqueID>  (58) 
53

>  <SMILES>  (58) 
N#CCC[N@@H+]1CCOC(=O)[C@@H]1CC(=O)c1ccccc1

>  <Energy>  (58) 
51.92780536186891

>  <Genealogy>  (58) 
N#CCC[NH+]1CCOC(=O)C1CC(=O)c1ccccc1 (protonated)
N#CCC[N@@H+]1CCOC(=O)[C@@H]1CC(=O)c1ccccc1 (chirality)
N#CCC[N@@H+]1CCOC(=O)[C@@H]1CC(=O)c1ccccc1 (3D coordinates assigned)
N#CCC[N@@H+]1CCOC(=O)[C@@H]1CC(=O)c1ccccc1 (nonaromatic ring conformer: 51.92780536186891 kcal/mol)

>  <smiles>  (58) 
N#CCCN1CCOC(=O)C1CC(=O)c1ccccc1

>  <score_type>  (58) 
oracle

>  <origin>  (58) 
adg

>  <m_score__min__energy>  (58) 
-5.4800000000000004

>  <m_primary>  (58) 
energy

$$$$
58:0
     RDKit          3D

 30 30  0  0  0  0  0  0  0  0999 V2000
   59.2740   34.6540   47.5130 C   0  0  0  0  0  0  0  0  0  0  0  0
   58.6520   33.7110   46.5330 C   0  0  0  0  0  0  0  0  0  0  0  0
   58.7040   32.3290   46.7500 C   0  0  0  0  0  0  0  0  0  0  0  0
   58.1130   31.4560   45.8250 C   0  0  0  0  0  0  0  0  0  0  0  0
   58.1880   30.0370   46.0440 N   0  0  0  0  0  0  0  0  0  0  0  0
   57.2540   29.0940   45.4870 C   0  0  0  0  0  0  0  0  0  0  0  0
   56.1160   29.4940   45.1180 O   0  0  0  0  0  0  0  0  0  0  0  0
   57.5730   27.6020   45.4330 C   0  0  2  0  0  0  0  0  0  0  0  0
   59.0390   27.3360   45.8400 C   0  0  0  0  0  0  0  0  0  0  0  0
   57.3980   27.0990   44.0610 N   0  0  0  0  0  0  0  0  0  0  0  0
   56.6170   26.8240   46.3660 C   0  0  0  0  0  0  0  0  0  0  0  0
   55.3410   26.6750   45.7970 O   0  0  0  0  0  0  0  0  0  0  0  0
   57.5110   31.9920   44.6750 C   0  0  0  0  0  0  0  0  0  0  0  0
   57.4850   33.3750   44.4910 C   0  0  0  0  0  0  0  0  0  0  0  0
   58.0490   34.1970   45.4140 N   0  0  0  0  0  0  0  0  0  0  0  0
   59.0523   34.3179   48.5367 H   0  0  0  0  0  0  0  0  0  0  0  0
   60.3633   34.6743   47.3616 H   0  0  0  0  0  0  0  0  0  0  0  0
   58.8639   35.6634   47.3616 H   0  0  0  0  0  0  0  0  0  0  0  0
   59.2067   31.9291   47.6430 H   0  0  0  0  0  0  0  0  0  0  0  0
   58.9070   29.6900   46.7170 H   0  0  0  0  0  0  0  0  0  0  0  0
   59.1181   27.3216   46.9371 H   0  0  0  0  0  0  0  0  0  0  0  0
   59.3611   26.3647   45.4364 H   0  0  0  0  0  0  0  0  0  0  0  0
   59.6818   28.1322   45.4364 H   0  0  0  0  0  0  0  0  0  0  0  0
   56.7290   26.2930   44.0550 H   0  0  0  0  0  0  0  0  0  0  0  0
   56.9840   27.8510   43.4620 H   0  0  0  0  0  0  0  0  0  0  0  0
   57.0400   25.8270   46.5583 H   0  0  0  0  0  0  0  0  0  0  0  0
   56.5108   27.3947   47.3004 H   0  0  0  0  0  0  0  0  0  0  0  0
   55.1490   27.5100   45.2960 H   0  0  0  0  0  0  0  0  0  0  0  0
   57.0625   31.3255   43.9236 H   0  0  0  0  0  0  0  0  0  0  0  0
   57.0067   33.8006   43.5965 H   0  0  0  0  0  0  0  0  0  0  0  0
  1  2  1  0
  2  3  2  0
  3  4  1  0
  4  5  1  0
  5  6  1  0
  6  7  2  0
  6  8  1  0
  8  9  1  0
  8 10  1  6
  8 11  1  0
 11 12  1  0
  4 13  2  0
 13 14  1  0
 14 15  2  0
 15  2  1  0
  1 16  1  0
  1 17  1  0
  1 18  1  0
  3 19  1  0
  5 20  1  0
  9 21  1  0
  9 22  1  0
  9 23  1  0
 10 24  1  0
 10 25  1  0
 11 26  1  0
 11 27  1  0
 12 28  1  0
 13 29  1  0
 14 30  1  0
M  END
>  <UniqueID>  (59) 
54

>  <SMILES>  (59) 
Cc1cc(NC(=O)[C@](C)(N)CO)ccn1

>  <Energy>  (59) 
30.307475065286607

>  <Genealogy>  (59) 
Cc1cc(NC(=O)[C@](C)(N)CO)ccn1 (chirality)
Cc1cc(NC(=O)[C@](C)(N)CO)ccn1 (3D coordinates assigned)
Cc1cc(NC(=O)[C@](C)(N)CO)ccn1 (optimized conformer: 30.307475065286607 kcal/mol)

>  <smiles>  (59) 
Cc1cc(NC(=O)C(C)(N)CO)ccn1

>  <score_type>  (59) 
oracle

>  <origin>  (59) 
adg

>  <m_score__min__energy>  (59) 
-6.71

>  <m_primary>  (59) 
energy

$$$$
59:0
     RDKit          3D

 58 62  0  0  0  0  0  0  0  0999 V2000
   61.1370   27.5050   50.2880 O   0  0  0  0  0  0  0  0  0  0  0  0
   61.2460   28.7200   49.9750 C   0  0  0  0  0  0  0  0  0  0  0  0
   61.4180   29.7730   51.0310 C   0  0  0  0  0  0  0  0  0  0  0  0
   62.7540   30.9760   50.6790 S   0  0  0  0  0  0  0  0  0  0  0  0
   62.0870   31.5840   49.1200 C   0  0  0  0  0  0  0  0  0  0  0  0
   62.8160   31.6460   47.9890 N   0  0  0  0  0  0  0  0  0  0  0  0
   62.0420   32.1850   47.0600 N   0  0  0  0  0  0  0  0  0  0  0  0
   60.8470   32.4470   47.6330 C   0  0  0  0  0  0  0  0  0  0  0  0
   59.7150   33.0600   46.9030 C   0  0  0  0  0  0  0  0  0  0  0  0
   59.9570   33.9930   45.8830 C   0  0  0  0  0  0  0  0  0  0  0  0
   58.8870   34.5770   45.1980 C   0  0  0  0  0  0  0  0  0  0  0  0
   57.5830   34.2230   45.5370 C   0  0  0  0  0  0  0  0  0  0  0  0
   57.3620   33.2960   46.5060 N   0  0  0  0  0  0  0  0  0  0  0  0
   58.3840   32.7090   47.1820 C   0  0  0  0  0  0  0  0  0  0  0  0
   60.8390   32.0610   48.9310 N   0  0  0  0  0  0  0  0  0  0  0  0
   59.8380   32.3110   49.9300 C   0  0  0  0  0  0  0  0  0  0  0  0
   58.7720   31.4120   50.0940 C   0  0  0  0  0  0  0  0  0  0  0  0
   57.7910   31.6540   51.0610 C   0  0  0  0  0  0  0  0  0  0  0  0
   57.8750   32.7900   51.8730 C   0  0  0  0  0  0  0  0  0  0  0  0
   58.9320   33.6920   51.7090 C   0  0  0  0  0  0  0  0  0  0  0  0
   59.9090   33.4580   50.7350 C   0  0  0  0  0  0  0  0  0  0  0  0
   61.0720   29.1190   48.6110 N   0  0  0  0  0  0  0  0  0  0  0  0
   59.9300   28.7400   47.8220 C   0  0  0  0  0  0  0  0  0  0  0  0
   59.2910   27.5000   48.0020 C   0  0  0  0  0  0  0  0  0  0  0  0
   58.1440   27.1780   47.2670 C   0  0  0  0  0  0  0  0  0  0  0  0
   57.6090   28.0910   46.3420 C   0  0  0  0  0  0  0  0  0  0  0  0
   56.3530   27.7870   45.6180 C   0  0  0  0  0  0  0  0  0  0  0  0
   55.9060   28.6020   44.7640 O   0  0  0  0  0  0  0  0  0  0  0  0
   55.6570   26.5560   45.8650 N   0  0  0  0  0  0  0  0  0  0  0  0
   55.9860   25.2830   45.3010 C   0  0  0  0  0  0  0  0  0  0  0  0
   57.2530   25.0270   44.7440 C   0  0  0  0  0  0  0  0  0  0  0  0
   57.5000   23.8180   44.0810 C   0  0  0  0  0  0  0  0  0  0  0  0
   56.4930   22.8540   43.9800 C   0  0  0  0  0  0  0  0  0  0  0  0
   56.7900   21.3570   43.1100 Cl  0  0  0  0  0  0  0  0  0  0  0  0
   55.2320   23.1040   44.5330 C   0  0  0  0  0  0  0  0  0  0  0  0
   54.9770   24.3190   45.1780 C   0  0  0  0  0  0  0  0  0  0  0  0
   58.2620   29.3240   46.1500 C   0  0  0  0  0  0  0  0  0  0  0  0
   59.4050   29.6460   46.8890 C   0  0  0  0  0  0  0  0  0  0  0  0
   60.4716   30.3258   51.1247 H   0  0  0  0  0  0  0  0  0  0  0  0
   61.6987   29.2499   51.9571 H   0  0  0  0  0  0  0  0  0  0  0  0
   60.9903   34.2654   45.6219 H   0  0  0  0  0  0  0  0  0  0  0  0
   59.0732   35.3094   44.3986 H   0  0  0  0  0  0  0  0  0  0  0  0
   56.7330   34.6933   45.0209 H   0  0  0  0  0  0  0  0  0  0  0  0
   58.1677   31.9543   47.9525 H   0  0  0  0  0  0  0  0  0  0  0  0
   58.7083   30.5151   49.4603 H   0  0  0  0  0  0  0  0  0  0  0  0
   56.9536   30.9512   51.1830 H   0  0  0  0  0  0  0  0  0  0  0  0
   57.1094   32.9743   52.6411 H   0  0  0  0  0  0  0  0  0  0  0  0
   58.9950   34.5862   52.3465 H   0  0  0  0  0  0  0  0  0  0  0  0
   60.7333   34.1738   50.6003 H   0  0  0  0  0  0  0  0  0  0  0  0
   61.8030   29.7330   48.1890 H   0  0  0  0  0  0  0  0  0  0  0  0
   59.6958   26.7776   48.7261 H   0  0  0  0  0  0  0  0  0  0  0  0
   57.6575   26.2025   47.4146 H   0  0  0  0  0  0  0  0  0  0  0  0
   58.0516   25.7786   44.8296 H   0  0  0  0  0  0  0  0  0  0  0  0
   58.4889   23.6268   43.6388 H   0  0  0  0  0  0  0  0  0  0  0  0
   54.4401   22.3440   44.4604 H   0  0  0  0  0  0  0  0  0  0  0  0
   53.9774   24.5187   45.5914 H   0  0  0  0  0  0  0  0  0  0  0  0
   57.8698   30.0398   45.4126 H   0  0  0  0  0  0  0  0  0  0  0  0
   59.8964   30.6183   46.7371 H   0  0  0  0  0  0  0  0  0  0  0  0
  1  2  2  0
  2  3  1  0
  3  4  1  0
  4  5  1  0
  5  6  2  0
  6  7  1  0
  7  8  2  0
  8  9  1  0
  9 10  2  0
 10 11  1  0
 11 12  2  0
 12 13  1  0
 13 14  2  0
  8 15  1  0
 15 16  1  0
 16 17  2  0
 17 18  1  0
 18 19  2  0
 19 20  1  0
 20 21  2  0
  2 22  1  0
 22 23  1  0
 23 24  2  0
 24 25  1  0
 25 26  2  0
 26 27  1  0
 27 28  2  0
 27 29  1  0
 29 30  1  0
 30 31  2  0
 31 32  1  0
 32 33  2  0
 33 34  1  0
 33 35  1  0
 35 36  2  0
 26 37  1  0
 37 38  2  0
 15  5  1  0
 21 16  1  0
 38 23  1  0
 14  9  1  0
 36 30  1  0
  3 39  1  0
  3 40  1  0
 10 41  1  0
 11 42  1  0
 12 43  1  0
 14 44  1  0
 17 45  1  0
 18 46  1  0
 19 47  1  0
 20 48  1  0
 21 49  1  0
 22 50  1  0
 24 51  1  0
 25 52  1  0
 31 53  1  0
 32 54  1  0
 35 55  1  0
 36 56  1  0
 37 57  1  0
 38 58  1  0
M  CHG  1  29  -1
M  END
>  <UniqueID>  (60) 
55

>  <SMILES>  (60) 
O=C(CSc1nnc(-c2cccnc2)n1-c1ccccc1)Nc1ccc(C(=O)[N-]c2ccc(Cl)cc2)cc1

>  <Energy>  (60) 
119.24393028390782

>  <Genealogy>  (60) 
O=C(CSc1nnc(-c2cccnc2)n1-c1ccccc1)Nc1ccc(C(=O)[N-]c2ccc(Cl)cc2)cc1 (protonated)
O=C(CSc1nnc(-c2cccnc2)n1-c1ccccc1)Nc1ccc(C(=O)[N-]c2ccc(Cl)cc2)cc1 (3D coordinates assigned)
O=C(CSc1nnc(-c2cccnc2)n1-c1ccccc1)Nc1ccc(C(=O)[N-]c2ccc(Cl)cc2)cc1 (optimized conformer: 119.24393028390782 kcal/mol)

>  <smiles>  (60) 
O=C(CSc1nnc(-c2cccnc2)n1-c1ccccc1)Nc1ccc(C(=O)Nc2ccc(Cl)cc2)cc1

>  <score_type>  (60) 
oracle

>  <origin>  (60) 
adg

>  <m_score__min__energy>  (60) 
-10.949999999999999

>  <m_primary>  (60) 
energy

$$$$
60:0
     RDKit          3D

 30 31  0  0  0  0  0  0  0  0999 V2000
   60.7780   26.1380   46.4010 C   0  0  0  0  0  0  0  0  0  0  0  0
   59.7650   27.1370   45.9290 C   0  0  0  0  0  0  0  0  0  0  0  0
   58.4000   26.9390   46.1900 C   0  0  0  0  0  0  0  0  0  0  0  0
   57.4520   27.8510   45.7170 C   0  0  0  0  0  0  0  0  0  0  0  0
   57.8550   28.9690   44.9740 C   0  0  0  0  0  0  0  0  0  0  0  0
   56.6550   30.1180   44.3700 S   0  0  0  0  0  0  0  0  0  0  0  0
   56.6310   30.0550   42.8680 O   0  0  0  0  0  0  0  0  0  0  0  0
   55.2970   29.7160   44.8730 O   0  0  0  0  0  0  0  0  0  0  0  0
   56.9810   31.7620   44.8630 N   0  0  0  0  0  0  0  0  0  0  0  0
   57.7870   31.8220   46.0820 C   0  0  0  0  0  0  0  0  0  0  0  0
   58.5090   33.1600   46.0530 C   0  0  0  0  0  0  0  0  0  0  0  0
   58.4780   33.6030   44.5970 C   0  0  0  0  0  0  0  0  0  0  0  0
   57.7390   32.4990   43.8560 C   0  0  0  0  0  0  0  0  0  0  0  0
   59.2160   29.1520   44.6890 C   0  0  0  0  0  0  0  0  0  0  0  0
   60.1640   28.2410   45.1600 C   0  0  0  0  0  0  0  0  0  0  0  0
   60.7933   26.1229   47.5008 H   0  0  0  0  0  0  0  0  0  0  0  0
   60.5114   25.1395   46.0243 H   0  0  0  0  0  0  0  0  0  0  0  0
   61.7727   26.4185   46.0243 H   0  0  0  0  0  0  0  0  0  0  0  0
   58.0749   26.0623   46.7693 H   0  0  0  0  0  0  0  0  0  0  0  0
   56.3846   27.6904   45.9290 H   0  0  0  0  0  0  0  0  0  0  0  0
   57.1402   31.7577   46.9694 H   0  0  0  0  0  0  0  0  0  0  0  0
   58.4993   30.9852   46.1311 H   0  0  0  0  0  0  0  0  0  0  0  0
   57.9896   33.8917   46.6893 H   0  0  0  0  0  0  0  0  0  0  0  0
   59.5375   33.0789   46.4347 H   0  0  0  0  0  0  0  0  0  0  0  0
   57.9432   34.5590   44.4966 H   0  0  0  0  0  0  0  0  0  0  0  0
   59.4898   33.7600   44.1950 H   0  0  0  0  0  0  0  0  0  0  0  0
   57.0578   32.9323   43.1089 H   0  0  0  0  0  0  0  0  0  0  0  0
   58.4390   31.8394   43.3222 H   0  0  0  0  0  0  0  0  0  0  0  0
   59.5384   30.0175   44.0915 H   0  0  0  0  0  0  0  0  0  0  0  0
   61.2287   28.3896   44.9270 H   0  0  0  0  0  0  0  0  0  0  0  0
  1  2  1  0
  2  3  2  0
  3  4  1  0
  4  5  2  0
  5  6  1  0
  6  7  2  0
  6  8  2  0
  6  9  1  0
  9 10  1  0
 10 11  1  0
 11 12  1  0
 12 13  1  0
  5 14  1  0
 14 15  2  0
 15  2  1  0
 13  9  1  0
  1 16  1  0
  1 17  1  0
  1 18  1  0
  3 19  1  0
  4 20  1  0
 10 21  1  0
 10 22  1  0
 11 23  1  0
 11 24  1  0
 12 25  1  0
 12 26  1  0
 13 27  1  0
 13 28  1  0
 14 29  1  0
 15 30  1  0
M  END
>  <UniqueID>  (61) 
56

>  <SMILES>  (61) 
Cc1ccc(S(=O)(=O)N2CCCC2)cc1

>  <Energy>  (61) 
29.2786077412793

>  <Genealogy>  (61) 
Cc1ccc(S(=O)(=O)N2CCCC2)cc1 (3D coordinates assigned)
Cc1ccc(S(=O)(=O)N2CCCC2)cc1 (nonaromatic ring conformer: 29.2786077412793 kcal/mol)

>  <smiles>  (61) 
Cc1ccc(S(=O)(=O)N2CCCC2)cc1

>  <score_type>  (61) 
oracle

>  <origin>  (61) 
adg

>  <m_score__min__energy>  (61) 
-6.9000000000000004

>  <m_primary>  (61) 
energy

$$$$
61:0
     RDKit          3D

 57 60  0  0  0  0  0  0  0  0999 V2000
   60.7790   28.7670   49.4010 C   0  0  0  0  0  0  0  0  0  0  0  0
   60.7940   28.9840   47.9940 O   0  0  0  0  0  0  0  0  0  0  0  0
   59.6440   29.1230   47.2020 C   0  0  0  0  0  0  0  0  0  0  0  0
   58.8800   28.0220   46.7810 C   0  0  0  0  0  0  0  0  0  0  0  0
   57.7440   28.2130   45.9940 C   0  0  0  0  0  0  0  0  0  0  0  0
   57.3410   29.5090   45.6170 C   0  0  0  0  0  0  0  0  0  0  0  0
   56.1930   29.7230   44.8360 O   0  0  0  0  0  0  0  0  0  0  0  0
   56.1690   29.7180   43.4120 C   0  0  0  0  0  0  0  0  0  0  0  0
   58.1060   30.6150   46.0400 C   0  0  0  0  0  0  0  0  0  0  0  0
   57.6630   32.2740   45.6040 S   0  0  0  0  0  0  0  0  0  0  0  0
   58.7040   32.8320   44.6710 O   0  0  0  0  0  0  0  0  0  0  0  0
   56.3440   32.2890   44.8840 O   0  0  0  0  0  0  0  0  0  0  0  0
   57.5410   33.2740   47.0220 N   0  0  0  0  0  0  0  0  0  0  0  0
   58.5690   34.3200   46.9890 C   0  0  0  0  0  0  0  0  0  0  0  0
   59.8620   33.7990   47.5490 C   0  0  0  0  0  0  0  0  0  0  0  0
   61.0630   34.2180   47.0710 N   0  0  0  0  0  0  0  0  0  0  0  0
   61.9450   33.5290   47.8140 C   0  0  0  0  0  0  0  0  0  0  0  0
   63.3340   33.5690   47.7260 C   0  0  0  0  0  0  0  0  0  0  0  0
   64.0700   32.7450   48.5950 C   0  0  0  0  0  0  0  0  0  0  0  0
   63.4050   31.9090   49.5190 C   0  0  0  0  0  0  0  0  0  0  0  0
   61.9990   31.8900   49.5830 C   0  0  0  0  0  0  0  0  0  0  0  0
   61.2970   32.7270   48.7080 C   0  0  0  0  0  0  0  0  0  0  0  0
   59.9670   32.9020   48.5700 N   0  0  0  0  0  0  0  0  0  0  0  0
   58.8880   32.2020   49.2820 C   0  0  0  0  0  0  0  0  0  0  0  0
   58.8150   32.5990   50.7440 C   0  0  0  0  0  0  0  0  0  0  0  0
   59.3830   33.8250   51.1340 C   0  0  0  0  0  0  0  0  0  0  0  0
   59.2940   34.2650   52.4550 C   0  0  0  0  0  0  0  0  0  0  0  0
   58.6570   33.4800   53.4120 C   0  0  0  0  0  0  0  0  0  0  0  0
   58.0850   32.2620   53.0480 C   0  0  0  0  0  0  0  0  0  0  0  0
   58.1280   31.8190   51.7140 C   0  0  0  0  0  0  0  0  0  0  0  0
   57.4640   30.5130   51.3680 C   0  0  0  0  0  0  0  0  0  0  0  0
   59.2520   30.4090   46.8220 C   0  0  0  0  0  0  0  0  0  0  0  0
   60.8458   29.7336   49.9218 H   0  0  0  0  0  0  0  0  0  0  0  0
   59.8438   28.2618   49.6841 H   0  0  0  0  0  0  0  0  0  0  0  0
   61.6358   28.1379   49.6841 H   0  0  0  0  0  0  0  0  0  0  0  0
   59.1788   27.0045   47.0732 H   0  0  0  0  0  0  0  0  0  0  0  0
   57.1572   27.3429   45.6646 H   0  0  0  0  0  0  0  0  0  0  0  0
   55.1477   29.5053   43.0632 H   0  0  0  0  0  0  0  0  0  0  0  0
   56.4873   30.7017   43.0365 H   0  0  0  0  0  0  0  0  0  0  0  0
   56.8535   28.9432   43.0365 H   0  0  0  0  0  0  0  0  0  0  0  0
   56.6010   33.7320   46.9720 H   0  0  0  0  0  0  0  0  0  0  0  0
   58.7272   34.6404   45.9487 H   0  0  0  0  0  0  0  0  0  0  0  0
   58.2325   35.1714   47.5988 H   0  0  0  0  0  0  0  0  0  0  0  0
   63.8387   34.2238   47.0004 H   0  0  0  0  0  0  0  0  0  0  0  0
   65.1693   32.7513   48.5552 H   0  0  0  0  0  0  0  0  0  0  0  0
   63.9906   31.2676   50.1941 H   0  0  0  0  0  0  0  0  0  0  0  0
   61.4704   31.2400   50.2958 H   0  0  0  0  0  0  0  0  0  0  0  0
   57.9295   32.4456   48.8004 H   0  0  0  0  0  0  0  0  0  0  0  0
   59.0967   31.1230   49.2350 H   0  0  0  0  0  0  0  0  0  0  0  0
   59.9036   34.4443   50.3887 H   0  0  0  0  0  0  0  0  0  0  0  0
   59.7282   35.2344   52.7409 H   0  0  0  0  0  0  0  0  0  0  0  0
   58.6050   33.8212   54.4565 H   0  0  0  0  0  0  0  0  0  0  0  0
   57.5949   31.6409   53.8122 H   0  0  0  0  0  0  0  0  0  0  0  0
   57.1942   29.9824   52.2931 H   0  0  0  0  0  0  0  0  0  0  0  0
   56.5557   30.7082   50.7791 H   0  0  0  0  0  0  0  0  0  0  0  0
   58.1569   29.8941   50.7791 H   0  0  0  0  0  0  0  0  0  0  0  0
   59.8519   31.2740   47.1413 H   0  0  0  0  0  0  0  0  0  0  0  0
  1  2  1  0
  2  3  1  0
  3  4  2  0
  4  5  1  0
  5  6  2  0
  6  7  1  0
  7  8  1  0
  6  9  1  0
  9 10  1  0
 10 11  2  0
 10 12  2  0
 10 13  1  0
 13 14  1  0
 14 15  1  0
 15 16  2  0
 16 17  1  0
 17 18  2  0
 18 19  1  0
 19 20  2  0
 20 21  1  0
 21 22  2  0
 22 23  1  0
 23 24  1  0
 24 25  1  0
 25 26  2  0
 26 27  1  0
 27 28  2  0
 28 29  1  0
 29 30  2  0
 30 31  1  0
  9 32  2  0
 32  3  1  0
 23 15  1  0
 30 25  1  0
 22 17  1  0
  1 33  1  0
  1 34  1  0
  1 35  1  0
  4 36  1  0
  5 37  1  0
  8 38  1  0
  8 39  1  0
  8 40  1  0
 13 41  1  0
 14 42  1  0
 14 43  1  0
 18 44  1  0
 19 45  1  0
 20 46  1  0
 21 47  1  0
 24 48  1  0
 24 49  1  0
 26 50  1  0
 27 51  1  0
 28 52  1  0
 29 53  1  0
 31 54  1  0
 31 55  1  0
 31 56  1  0
 32 57  1  0
M  END
>  <UniqueID>  (62) 
57

>  <SMILES>  (62) 
COc1ccc(OC)c(S(=O)(=O)NCc2nc3ccccc3n2Cc2ccccc2C)c1

>  <Energy>  (62) 
92.09206977460401

>  <Genealogy>  (62) 
COc1ccc(OC)c(S(=O)(=O)NCc2nc3ccccc3n2Cc2ccccc2C)c1 (3D coordinates assigned)
COc1ccc(OC)c(S(=O)(=O)NCc2nc3ccccc3n2Cc2ccccc2C)c1 (optimized conformer: 92.09206977460401 kcal/mol)

>  <smiles>  (62) 
COc1ccc(OC)c(S(=O)(=O)NCc2nc3ccccc3n2Cc2ccccc2C)c1

>  <score_type>  (62) 
oracle

>  <origin>  (62) 
adg

>  <m_score__min__energy>  (62) 
-8.3900000000000006

>  <m_primary>  (62) 
energy

$$$$
62:0
     RDKit          3D

 55 57  0  0  0  0  0  0  0  0999 V2000
   63.3950   31.8870   52.8030 C   0  0  0  0  0  0  0  0  0  0  0  0
   62.8340   32.6410   51.6820 N   0  0  0  0  0  0  0  0  0  0  0  0
   61.4470   32.4850   51.3520 C   0  0  0  0  0  0  0  0  0  0  0  0
   60.5010   33.4180   51.8080 C   0  0  0  0  0  0  0  0  0  0  0  0
   59.1490   33.2680   51.4790 C   0  0  0  0  0  0  0  0  0  0  0  0
   58.7350   32.1890   50.6910 C   0  0  0  0  0  0  0  0  0  0  0  0
   57.4230   32.0350   50.3810 F   0  0  0  0  0  0  0  0  0  0  0  0
   59.6730   31.2640   50.2270 C   0  0  0  0  0  0  0  0  0  0  0  0
   61.0250   31.4100   50.5540 C   0  0  0  0  0  0  0  0  0  0  0  0
   63.8300   33.7050   50.7310 S   0  0  0  0  0  0  0  0  0  0  0  0
   65.2650   33.2550   50.7850 O   0  0  0  0  0  0  0  0  0  0  0  0
   63.7530   35.1030   51.2710 O   0  0  0  0  0  0  0  0  0  0  0  0
   63.2860   33.6760   49.0540 C   0  0  0  0  0  0  0  0  0  0  0  0
   64.0880   33.1100   48.0520 C   0  0  0  0  0  0  0  0  0  0  0  0
   63.6360   33.0680   46.7310 C   0  0  0  0  0  0  0  0  0  0  0  0
   62.3740   33.5680   46.4060 C   0  0  0  0  0  0  0  0  0  0  0  0
   61.5630   34.1300   47.4000 C   0  0  0  0  0  0  0  0  0  0  0  0
   59.9380   34.6690   46.9910 S   0  0  0  0  0  0  0  0  0  0  0  0
   59.1380   34.9330   48.2350 O   0  0  0  0  0  0  0  0  0  0  0  0
   60.0260   35.9350   46.1890 O   0  0  0  0  0  0  0  0  0  0  0  0
   59.1710   33.4300   46.0470 N   0  0  0  0  0  0  0  0  0  0  0  0
   58.7890   32.2960   46.8960 C   0  0  0  0  0  0  0  0  0  0  0  0
   59.7360   31.1190   46.6460 C   0  0  0  0  0  0  0  0  0  0  0  0
   58.9720   29.8250   46.5080 C   0  0  0  0  0  0  0  0  0  0  0  0
   59.1590   28.7820   47.4280 C   0  0  0  0  0  0  0  0  0  0  0  0
   58.4370   27.5910   47.3000 C   0  0  0  0  0  0  0  0  0  0  0  0
   57.5180   27.4310   46.2550 C   0  0  0  0  0  0  0  0  0  0  0  0
   56.6550   25.9070   46.0590 S   0  0  0  0  0  0  0  0  0  0  0  0
   54.9530   26.2010   45.9770 N   0  0  0  0  0  0  0  0  0  0  0  0
   57.1030   25.2270   44.7960 O   0  0  0  0  0  0  0  0  0  0  0  0
   56.9550   25.0040   47.2250 O   0  0  0  0  0  0  0  0  0  0  0  0
   57.3050   28.4840   45.3550 C   0  0  0  0  0  0  0  0  0  0  0  0
   58.0320   29.6690   45.4790 C   0  0  0  0  0  0  0  0  0  0  0  0
   62.0260   34.1920   48.7210 C   0  0  0  0  0  0  0  0  0  0  0  0
   63.0612   32.3356   53.7503 H   0  0  0  0  0  0  0  0  0  0  0  0
   63.0522   30.8431   52.7508 H   0  0  0  0  0  0  0  0  0  0  0  0
   64.4934   31.9153   52.7508 H   0  0  0  0  0  0  0  0  0  0  0  0
   60.8239   34.2691   52.4256 H   0  0  0  0  0  0  0  0  0  0  0  0
   58.4112   33.9994   51.8405 H   0  0  0  0  0  0  0  0  0  0  0  0
   59.3476   30.4186   49.6029 H   0  0  0  0  0  0  0  0  0  0  0  0
   61.7602   30.6799   50.1846 H   0  0  0  0  0  0  0  0  0  0  0  0
   65.0755   32.6981   48.3072 H   0  0  0  0  0  0  0  0  0  0  0  0
   64.2759   32.6400   45.9453 H   0  0  0  0  0  0  0  0  0  0  0  0
   62.0157   33.5206   45.3671 H   0  0  0  0  0  0  0  0  0  0  0  0
   58.3070   33.8420   45.6310 H   0  0  0  0  0  0  0  0  0  0  0  0
   58.8487   32.5947   47.9530 H   0  0  0  0  0  0  0  0  0  0  0  0
   57.7598   31.9919   46.6545 H   0  0  0  0  0  0  0  0  0  0  0  0
   60.3007   31.3030   45.7201 H   0  0  0  0  0  0  0  0  0  0  0  0
   60.4179   31.0315   47.5047 H   0  0  0  0  0  0  0  0  0  0  0  0
   59.8764   28.9016   48.2533 H   0  0  0  0  0  0  0  0  0  0  0  0
   58.5915   26.7765   48.0230 H   0  0  0  0  0  0  0  0  0  0  0  0
   54.7740   27.0930   46.4910 H   0  0  0  0  0  0  0  0  0  0  0  0
   56.5636   28.3764   44.5495 H   0  0  0  0  0  0  0  0  0  0  0  0
   57.8662   30.4877   44.7633 H   0  0  0  0  0  0  0  0  0  0  0  0
   61.3977   34.6478   49.5004 H   0  0  0  0  0  0  0  0  0  0  0  0
  1  2  1  0
  2  3  1  0
  3  4  2  0
  4  5  1  0
  5  6  2  0
  6  7  1  0
  6  8  1  0
  8  9  2  0
  2 10  1  0
 10 11  2  0
 10 12  2  0
 10 13  1  0
 13 14  2  0
 14 15  1  0
 15 16  2  0
 16 17  1  0
 17 18  1  0
 18 19  2  0
 18 20  2  0
 18 21  1  0
 21 22  1  0
 22 23  1  0
 23 24  1  0
 24 25  2  0
 25 26  1  0
 26 27  2  0
 27 28  1  0
 28 29  1  0
 28 30  2  0
 28 31  2  0
 27 32  1  0
 32 33  2  0
 17 34  2  0
  9  3  1  0
 34 13  1  0
 33 24  1  0
  1 35  1  0
  1 36  1  0
  1 37  1  0
  4 38  1  0
  5 39  1  0
  8 40  1  0
  9 41  1  0
 14 42  1  0
 15 43  1  0
 16 44  1  0
 21 45  1  0
 22 46  1  0
 22 47  1  0
 23 48  1  0
 23 49  1  0
 25 50  1  0
 26 51  1  0
 29 52  1  0
 32 53  1  0
 33 54  1  0
 34 55  1  0
M  CHG  1  29  -1
M  END
>  <UniqueID>  (63) 
58

>  <SMILES>  (63) 
CN(c1ccc(F)cc1)S(=O)(=O)c1cccc(S(=O)(=O)NCCc2ccc(S([NH-])(=O)=O)cc2)c1

>  <Energy>  (63) 
50.9521165434822

>  <Genealogy>  (63) 
CN(c1ccc(F)cc1)S(=O)(=O)c1cccc(S(=O)(=O)NCCc2ccc(S([NH-])(=O)=O)cc2)c1 (protonated)
CN(c1ccc(F)cc1)S(=O)(=O)c1cccc(S(=O)(=O)NCCc2ccc(S([NH-])(=O)=O)cc2)c1 (3D coordinates assigned)
CN(c1ccc(F)cc1)S(=O)(=O)c1cccc(S(=O)(=O)NCCc2ccc(S([NH-])(=O)=O)cc2)c1 (optimized conformer: 50.9521165434822 kcal/mol)

>  <smiles>  (63) 
CN(c1ccc(F)cc1)S(=O)(=O)c1cccc(S(=O)(=O)NCCc2ccc(S(N)(=O)=O)cc2)c1

>  <score_type>  (63) 
oracle

>  <origin>  (63) 
adg

>  <m_score__min__energy>  (63) 
-12.34

>  <m_primary>  (63) 
energy

$$$$
63:0
     RDKit          3D

 27 28  0  0  0  0  0  0  0  0999 V2000
   59.2680   34.9900   44.9280 C   0  0  0  0  0  0  0  0  0  0  0  0
   59.6450   35.3030   46.3720 C   0  0  0  0  0  0  0  0  0  0  0  0
   59.5930   34.1240   47.1760 O   0  0  0  0  0  0  0  0  0  0  0  0
   59.3340   32.8230   46.7100 C   0  0  0  0  0  0  0  0  0  0  0  0
   58.0890   32.4480   46.1700 C   0  0  0  0  0  0  0  0  0  0  0  0
   57.8750   31.1420   45.7180 C   0  0  0  0  0  0  0  0  0  0  0  0
   56.6890   30.8130   45.2160 O   0  0  0  0  0  0  0  0  0  0  0  0
   56.4110   29.5960   44.7670 C   0  0  0  0  0  0  0  0  0  0  0  0
   55.2680   29.3490   44.3030 O   0  0  0  0  0  0  0  0  0  0  0  0
   57.3780   28.5890   44.8080 C   0  0  0  0  0  0  0  0  0  0  0  0
   58.6490   28.8740   45.3260 C   0  0  0  0  0  0  0  0  0  0  0  0
   59.6890   27.7860   45.3680 C   0  0  0  0  0  0  0  0  0  0  0  0
   58.9110   30.1820   45.7950 C   0  0  0  0  0  0  0  0  0  0  0  0
   60.1560   30.5640   46.3310 C   0  0  0  0  0  0  0  0  0  0  0  0
   60.3630   31.8710   46.7820 C   0  0  0  0  0  0  0  0  0  0  0  0
   62.0710   32.3440   47.5050 Br  0  0  0  0  0  0  0  0  0  0  0  0
   58.4217   34.2874   44.9140 H   0  0  0  0  0  0  0  0  0  0  0  0
   58.9814   35.9194   44.4142 H   0  0  0  0  0  0  0  0  0  0  0  0
   60.1289   34.5374   44.4142 H   0  0  0  0  0  0  0  0  0  0  0  0
   60.6656   35.7125   46.3977 H   0  0  0  0  0  0  0  0  0  0  0  0
   58.9288   36.0353   46.7729 H   0  0  0  0  0  0  0  0  0  0  0  0
   57.2781   33.1882   46.1031 H   0  0  0  0  0  0  0  0  0  0  0  0
   57.1441   27.5803   44.4368 H   0  0  0  0  0  0  0  0  0  0  0  0
   59.9223   27.5420   46.4149 H   0  0  0  0  0  0  0  0  0  0  0  0
   59.3030   26.8900   44.8599 H   0  0  0  0  0  0  0  0  0  0  0  0
   60.6015   28.1312   44.8599 H   0  0  0  0  0  0  0  0  0  0  0  0
   60.9715   29.8286   46.3953 H   0  0  0  0  0  0  0  0  0  0  0  0
  1  2  1  0
  2  3  1  0
  3  4  1  0
  4  5  2  0
  5  6  1  0
  6  7  1  0
  7  8  1  0
  8  9  2  0
  8 10  1  0
 10 11  2  0
 11 12  1  0
 11 13  1  0
 13 14  1  0
 14 15  2  0
 15 16  1  0
 15  4  1  0
 13  6  2  0
  1 17  1  0
  1 18  1  0
  1 19  1  0
  2 20  1  0
  2 21  1  0
  5 22  1  0
 10 23  1  0
 12 24  1  0
 12 25  1  0
 12 26  1  0
 14 27  1  0
M  END
>  <UniqueID>  (64) 
59

>  <SMILES>  (64) 
CCOc1cc2oc(=O)cc(C)c2cc1Br

>  <Energy>  (64) 
30.834065630882023

>  <Genealogy>  (64) 
CCOc1cc2oc(=O)cc(C)c2cc1Br (3D coordinates assigned)
CCOc1cc2oc(=O)cc(C)c2cc1Br (optimized conformer: 30.834065630882023 kcal/mol)

>  <smiles>  (64) 
CCOc1cc2oc(=O)cc(C)c2cc1Br

>  <score_type>  (64) 
oracle

>  <origin>  (64) 
adg

>  <m_score__min__energy>  (64) 
-6.1900000000000004

>  <m_primary>  (64) 
energy

$$$$
64:0
     RDKit          3D

 29 30  0  0  0  0  0  0  0  0999 V2000
   60.1860   36.0877   46.6657 H   0  0  0  0  0  0  0  0  0  0  0  0
   59.6020   35.1670   46.5200 C   0  0  0  0  0  0  0  0  0  0  0  0
   59.1380   34.8290   45.2450 C   0  0  0  0  0  0  0  0  0  0  0  0
   59.3585   35.4854   44.3903 H   0  0  0  0  0  0  0  0  0  0  0  0
   58.3890   33.6510   45.0500 C   0  0  0  0  0  0  0  0  0  0  0  0
   57.8980   33.2660   43.7910 O   0  0  0  0  0  0  0  0  0  0  0  0
   58.3080   32.1090   43.0610 C   0  0  0  0  0  0  0  0  0  0  0  0
   58.5254   31.2977   43.7713 H   0  0  0  0  0  0  0  0  0  0  0  0
   59.2023   32.3712   42.4766 H   0  0  0  0  0  0  0  0  0  0  0  0
   57.2400   31.6470   42.1040 C   0  0  0  0  0  0  0  0  0  0  0  0
   57.0210   32.2910   41.0440 O   0  0  0  0  0  0  0  0  0  0  0  0
   56.5780   30.3910   42.3000 N   0  0  0  0  0  0  0  0  0  0  0  0
   56.4390   29.7740   43.4350 C   0  0  0  0  0  0  0  0  0  0  0  0
   57.4190   29.0140   44.0350 C   0  0  0  0  0  0  0  0  0  0  0  0
   58.4495   28.8338   43.6949 H   0  0  0  0  0  0  0  0  0  0  0  0
   56.7910   28.5330   45.1690 C   0  0  0  0  0  0  0  0  0  0  0  0
   57.3930   27.6280   46.1900 C   0  0  0  0  0  0  0  0  0  0  0  0
   57.1478   27.9967   47.1969 H   0  0  0  0  0  0  0  0  0  0  0  0
   56.9898   26.6124   46.0631 H   0  0  0  0  0  0  0  0  0  0  0  0
   58.4855   27.6073   46.0631 H   0  0  0  0  0  0  0  0  0  0  0  0
   55.5500   28.9660   45.1980 O   0  0  0  0  0  0  0  0  0  0  0  0
   55.3070   29.7180   44.1660 N   0  0  0  0  0  0  0  0  0  0  0  0
   54.3750   30.1310   43.9480 H   0  0  0  0  0  0  0  0  0  0  0  0
   58.1170   32.8260   46.1510 C   0  0  0  0  0  0  0  0  0  0  0  0
   57.3980   31.6880   45.9840 F   0  0  0  0  0  0  0  0  0  0  0  0
   58.5830   33.1680   47.4240 C   0  0  0  0  0  0  0  0  0  0  0  0
   58.3648   32.5150   48.2819 H   0  0  0  0  0  0  0  0  0  0  0  0
   59.3250   34.3370   47.6090 C   0  0  0  0  0  0  0  0  0  0  0  0
   59.7760   34.6660   48.8450 F   0  0  0  0  0  0  0  0  0  0  0  0
  1  2  1  0
  2  3  2  0
  3  4  1  0
  3  5  1  0
  5  6  1  0
  6  7  1  0
  7  8  1  0
  7  9  1  0
  7 10  1  0
 10 11  2  0
 10 12  1  0
 12 13  2  0
 13 14  1  0
 14 15  1  0
 14 16  2  0
 16 17  1  0
 17 18  1  0
 17 19  1  0
 17 20  1  0
 16 21  1  0
 21 22  1  0
 22 23  1  0
  5 24  2  0
 24 25  1  0
 24 26  1  0
 26 27  1  0
 26 28  2  0
 28 29  1  0
 28  2  1  0
 22 13  1  0
M  END
>  <UniqueID>  (65) 
60

>  <SMILES>  (65) 
Cc1c/c(=N/C(=O)COc2ccc(F)cc2F)[nH]o1

>  <Energy>  (65) 
68.5685227226181

>  <Genealogy>  (65) 
Cc1c/c(=N/C(=O)COc2ccc(F)cc2F)[nH]o1 (cis-trans isomerization)
Cc1c/c(=N/C(=O)COc2ccc(F)cc2F)[nH]o1 (3D coordinates assigned)
Cc1c/c(=N/C(=O)COc2ccc(F)cc2F)[nH]o1 (optimized conformer: 68.5685227226181 kcal/mol)

>  <smiles>  (65) 
Cc1cc(=NC(=O)COc2ccc(F)cc2F)[nH]o1

>  <score_type>  (65) 
oracle

>  <origin>  (65) 
adg

>  <m_score__min__energy>  (65) 
-7.2699999999999996

>  <m_primary>  (65) 
energy

$$$$
65:0
     RDKit          3D

 41 44  0  0  0  0  0  0  0  0999 V2000
   57.8450   32.3330   41.0050 C   0  0  0  0  0  0  0  0  0  0  0  0
   57.3480   31.7760   42.3070 C   0  0  0  0  0  0  0  0  0  0  0  0
   56.6640   30.5540   42.3380 C   0  0  0  0  0  0  0  0  0  0  0  0
   56.1770   30.0700   43.5520 C   0  0  0  0  0  0  0  0  0  0  0  0
   56.3560   30.7880   44.6940 N   0  0  0  0  0  0  0  0  0  0  0  0
   57.0010   31.9870   44.7030 C   0  0  0  0  0  0  0  0  0  0  0  0
   57.1430   32.7160   46.0220 C   0  0  0  0  0  0  0  0  0  0  0  0
   58.4780   32.5710   46.6890 C   0  0  0  0  0  0  0  0  0  0  0  0
   58.8740   33.9880   46.5530 N   0  0  0  0  0  0  0  0  0  0  0  0
   60.0310   34.8060   46.7360 C   0  0  0  0  0  0  0  0  0  0  0  0
   60.0170   35.9890   46.3030 O   0  0  0  0  0  0  0  0  0  0  0  0
   61.2560   34.2780   47.3750 C   0  0  0  0  0  0  0  0  0  0  0  0
   62.2710   33.7240   46.5790 C   0  0  0  0  0  0  0  0  0  0  0  0
   63.4240   33.2160   47.1760 C   0  0  0  0  0  0  0  0  0  0  0  0
   63.5690   33.2690   48.5650 C   0  0  0  0  0  0  0  0  0  0  0  0
   64.7190   32.7640   49.1930 C   0  0  0  0  0  0  0  0  0  0  0  0
   64.8440   32.8360   50.5830 C   0  0  0  0  0  0  0  0  0  0  0  0
   63.8290   33.4120   51.3520 C   0  0  0  0  0  0  0  0  0  0  0  0
   62.6810   33.9170   50.7360 C   0  0  0  0  0  0  0  0  0  0  0  0
   62.5390   33.8480   49.3400 C   0  0  0  0  0  0  0  0  0  0  0  0
   61.4210   34.3400   48.7300 N   0  0  0  0  0  0  0  0  0  0  0  0
   57.5530   34.1530   45.9160 C   0  0  0  0  0  0  0  0  0  0  0  0
   57.5050   32.5050   43.4930 C   0  0  0  0  0  0  0  0  0  0  0  0
   58.5654   33.1404   41.2028 H   0  0  0  0  0  0  0  0  0  0  0  0
   58.3371   31.5355   40.4290 H   0  0  0  0  0  0  0  0  0  0  0  0
   56.9968   32.7314   40.4290 H   0  0  0  0  0  0  0  0  0  0  0  0
   56.5121   29.9804   41.4118 H   0  0  0  0  0  0  0  0  0  0  0  0
   55.6474   29.1065   43.5864 H   0  0  0  0  0  0  0  0  0  0  0  0
   56.1937   32.3781   46.4631 H   0  0  0  0  0  0  0  0  0  0  0  0
   58.3962   32.2516   47.7384 H   0  0  0  0  0  0  0  0  0  0  0  0
   59.1648   31.8166   46.2778 H   0  0  0  0  0  0  0  0  0  0  0  0
   62.1568   33.6907   45.4855 H   0  0  0  0  0  0  0  0  0  0  0  0
   64.2176   32.7746   46.5553 H   0  0  0  0  0  0  0  0  0  0  0  0
   65.5211   32.3119   48.5911 H   0  0  0  0  0  0  0  0  0  0  0  0
   65.7445   32.4379   51.0736 H   0  0  0  0  0  0  0  0  0  0  0  0
   63.9342   33.4679   52.4455 H   0  0  0  0  0  0  0  0  0  0  0  0
   61.8858   34.3701   51.3461 H   0  0  0  0  0  0  0  0  0  0  0  0
   60.6920   34.8040   49.3140 H   0  0  0  0  0  0  0  0  0  0  0  0
   56.8908   34.8259   46.4805 H   0  0  0  0  0  0  0  0  0  0  0  0
   57.5338   34.6062   44.9139 H   0  0  0  0  0  0  0  0  0  0  0  0
   58.0193   33.4773   43.4799 H   0  0  0  0  0  0  0  0  0  0  0  0
  1  2  1  0
  2  3  2  0
  3  4  1  0
  4  5  2  0
  5  6  1  0
  6  7  1  0
  7  8  1  0
  8  9  1  0
  9 10  1  0
 10 11  2  0
 10 12  1  0
 12 13  2  0
 13 14  1  0
 14 15  2  0
 15 16  1  0
 16 17  2  0
 17 18  1  0
 18 19  2  0
 19 20  1  0
 20 21  2  0
  9 22  1  0
  6 23  2  0
 23  2  1  0
 22  7  1  0
 21 12  1  0
 20 15  1  0
  1 24  1  0
  1 25  1  0
  1 26  1  0
  3 27  1  0
  4 28  1  0
  7 29  1  0
  8 30  1  0
  8 31  1  0
 13 32  1  0
 14 33  1  0
 16 34  1  0
 17 35  1  0
 18 36  1  0
 19 37  1  0
 21 38  1  0
 22 39  1  0
 22 40  1  0
 23 41  1  0
M  CHG  1  21   1
M  END
>  <UniqueID>  (66) 
61

>  <SMILES>  (66) 
Cc1ccnc(C2CN(C(=O)c3ccc4ccccc4[nH+]3)C2)c1

>  <Energy>  (66) 
97.00952392571773

>  <Genealogy>  (66) 
Cc1ccnc(C2CN(C(=O)c3ccc4ccccc4[nH+]3)C2)c1 (protonated)
Cc1ccnc(C2CN(C(=O)c3ccc4ccccc4[nH+]3)C2)c1 (3D coordinates assigned)
Cc1ccnc(C2CN(C(=O)c3ccc4ccccc4[nH+]3)C2)c1 (nonaromatic ring conformer: 97.00952392571773 kcal/mol)

>  <smiles>  (66) 
Cc1ccnc(C2CN(C(=O)c3ccc4ccccc4n3)C2)c1

>  <score_type>  (66) 
oracle

>  <origin>  (66) 
adg

>  <m_score__min__energy>  (66) 
-7.2999999999999998

>  <m_primary>  (66) 
energy

$$$$
66:0
     RDKit          3D

 42 43  0  0  0  0  0  0  0  0999 V2000
   59.5670   28.7450   45.6510 C   0  0  0  0  0  0  0  0  0  0  0  0
   58.5970   29.1990   46.7370 C   0  0  0  0  0  0  0  0  0  0  0  0
   57.3960   29.7170   46.1640 O   0  0  0  0  0  0  0  0  0  0  0  0
   57.2530   30.2030   44.8500 C   0  0  0  0  0  0  0  0  0  0  0  0
   56.4290   29.5670   43.8990 C   0  0  0  0  0  0  0  0  0  0  0  0
   56.3160   30.0800   42.6060 C   0  0  0  0  0  0  0  0  0  0  0  0
   57.0080   31.2380   42.2490 C   0  0  0  0  0  0  0  0  0  0  0  0
   57.8200   31.8830   43.1830 C   0  0  0  0  0  0  0  0  0  0  0  0
   57.9610   31.3650   44.4840 C   0  0  0  0  0  0  0  0  0  0  0  0
   58.7630   32.0490   45.4630 N   0  0  0  0  0  0  0  0  0  0  0  0
   59.0980   33.4460   45.3920 C   0  0  0  0  0  0  0  0  0  0  0  0
   58.7070   34.1490   44.4230 O   0  0  0  0  0  0  0  0  0  0  0  0
   59.8630   34.0700   46.4310 N   0  0  0  0  0  0  0  0  0  0  0  0
   61.0000   33.4940   47.0860 C   0  0  0  0  0  0  0  0  0  0  0  0
   62.2750   33.9570   46.7450 C   0  0  0  0  0  0  0  0  0  0  0  0
   63.4100   33.4220   47.3550 C   0  0  0  0  0  0  0  0  0  0  0  0
   63.2920   32.4020   48.3030 C   0  0  0  0  0  0  0  0  0  0  0  0
   64.4640   31.9060   48.8930 O   0  0  0  0  0  0  0  0  0  0  0  0
   65.2980   32.6490   49.7770 C   0  0  0  0  0  0  0  0  0  0  0  0
   62.0150   31.9070   48.6250 C   0  0  0  0  0  0  0  0  0  0  0  0
   60.8630   32.4360   48.0070 C   0  0  0  0  0  0  0  0  0  0  0  0
   59.5820   31.9210   48.2650 O   0  0  0  0  0  0  0  0  0  0  0  0
   58.5110   32.6600   48.8420 C   0  0  0  0  0  0  0  0  0  0  0  0
   60.4690   28.3228   46.1181 H   0  0  0  0  0  0  0  0  0  0  0  0
   59.0851   27.9789   45.0258 H   0  0  0  0  0  0  0  0  0  0  0  0
   59.8465   29.6058   45.0258 H   0  0  0  0  0  0  0  0  0  0  0  0
   58.3487   28.3413   47.3794 H   0  0  0  0  0  0  0  0  0  0  0  0
   59.0766   29.9945   47.3262 H   0  0  0  0  0  0  0  0  0  0  0  0
   55.8716   28.6606   44.1779 H   0  0  0  0  0  0  0  0  0  0  0  0
   55.6802   29.5705   41.8669 H   0  0  0  0  0  0  0  0  0  0  0  0
   56.9134   31.6428   41.2306 H   0  0  0  0  0  0  0  0  0  0  0  0
   58.3535   32.8025   42.9004 H   0  0  0  0  0  0  0  0  0  0  0  0
   59.1610   31.4790   46.2420 H   0  0  0  0  0  0  0  0  0  0  0  0
   62.3838   34.7493   45.9898 H   0  0  0  0  0  0  0  0  0  0  0  0
   64.4055   33.8060   47.0877 H   0  0  0  0  0  0  0  0  0  0  0  0
   65.0321   32.4121   50.8178 H   0  0  0  0  0  0  0  0  0  0  0  0
   66.3504   32.3837   49.5979 H   0  0  0  0  0  0  0  0  0  0  0  0
   65.1555   33.7249   49.5979 H   0  0  0  0  0  0  0  0  0  0  0  0
   61.9142   31.0999   49.3656 H   0  0  0  0  0  0  0  0  0  0  0  0
   58.5811   32.6116   49.9387 H   0  0  0  0  0  0  0  0  0  0  0  0
   58.5722   33.7090   48.5166 H   0  0  0  0  0  0  0  0  0  0  0  0
   57.5520   32.2305   48.5166 H   0  0  0  0  0  0  0  0  0  0  0  0
  1  2  1  0
  2  3  1  0
  3  4  1  0
  4  5  2  0
  5  6  1  0
  6  7  2  0
  7  8  1  0
  8  9  2  0
  9 10  1  0
 10 11  1  0
 11 12  2  0
 11 13  1  0
 13 14  1  0
 14 15  2  0
 15 16  1  0
 16 17  2  0
 17 18  1  0
 18 19  1  0
 17 20  1  0
 20 21  2  0
 21 22  1  0
 22 23  1  0
  9  4  1  0
 21 14  1  0
  1 24  1  0
  1 25  1  0
  1 26  1  0
  2 27  1  0
  2 28  1  0
  5 29  1  0
  6 30  1  0
  7 31  1  0
  8 32  1  0
 10 33  1  0
 15 34  1  0
 16 35  1  0
 19 36  1  0
 19 37  1  0
 19 38  1  0
 20 39  1  0
 23 40  1  0
 23 41  1  0
 23 42  1  0
M  CHG  1  13  -1
M  END
>  <UniqueID>  (67) 
62

>  <SMILES>  (67) 
CCOc1ccccc1NC(=O)[N-]c1ccc(OC)cc1OC

>  <Energy>  (67) 
47.24652235565085

>  <Genealogy>  (67) 
CCOc1ccccc1NC(=O)[N-]c1ccc(OC)cc1OC (protonated)
CCOc1ccccc1NC(=O)[N-]c1ccc(OC)cc1OC (3D coordinates assigned)
CCOc1ccccc1NC(=O)[N-]c1ccc(OC)cc1OC (optimized conformer: 47.24652235565085 kcal/mol)

>  <smiles>  (67) 
CCOc1ccccc1NC(=O)Nc1ccc(OC)cc1OC

>  <score_type>  (67) 
oracle

>  <origin>  (67) 
adg

>  <m_score__min__energy>  (67) 
-8.1699999999999999

>  <m_primary>  (67) 
energy

$$$$
67:0
     RDKit          3D

 36 38  0  0  0  0  0  0  0  0999 V2000
   55.1470   29.7030   45.0500 O   0  0  0  0  0  0  0  0  0  0  0  0
   56.1560   28.9630   44.9170 C   0  0  0  0  0  0  0  0  0  0  0  0
   56.2050   27.7170   45.6190 N   0  0  0  0  0  0  0  0  0  0  0  0
   57.6740   26.9830   46.1740 S   0  0  0  0  0  0  0  0  0  0  0  0
   58.2620   26.1290   45.0860 O   0  0  0  0  0  0  0  0  0  0  0  0
   57.3730   26.1090   47.3590 O   0  0  0  0  0  0  0  0  0  0  0  0
   58.8090   28.2390   46.6680 C   0  0  0  0  0  0  0  0  0  0  0  0
   59.8010   28.6700   45.7760 C   0  0  0  0  0  0  0  0  0  0  0  0
   60.7460   29.6180   46.1800 C   0  0  0  0  0  0  0  0  0  0  0  0
   60.7080   30.1360   47.4790 C   0  0  0  0  0  0  0  0  0  0  0  0
   61.6350   31.0420   47.8750 F   0  0  0  0  0  0  0  0  0  0  0  0
   59.7180   29.7130   48.3690 C   0  0  0  0  0  0  0  0  0  0  0  0
   58.7670   28.7710   47.9650 C   0  0  0  0  0  0  0  0  0  0  0  0
   57.2520   29.3950   44.0390 C   0  0  0  0  0  0  0  0  0  0  0  0
   57.9610   28.5180   43.4760 O   0  0  0  0  0  0  0  0  0  0  0  0
   57.5350   30.8220   43.7860 C   0  0  0  0  0  0  0  0  0  0  0  0
   57.6150   31.4120   42.5270 C   0  0  0  0  0  0  0  0  0  0  0  0
   57.9820   32.7070   42.6310 N   0  0  0  0  0  0  0  0  0  0  0  0
   58.1530   32.9420   43.9420 C   0  0  0  0  0  0  0  0  0  0  0  0
   58.5920   34.1260   44.5280 C   0  0  0  0  0  0  0  0  0  0  0  0
   58.7720   34.1470   45.9210 C   0  0  0  0  0  0  0  0  0  0  0  0
   58.5200   32.9920   46.7050 C   0  0  0  0  0  0  0  0  0  0  0  0
   58.7360   33.0200   48.1270 N   0  0  0  0  0  0  0  0  0  0  0  0
   58.0930   32.2640   48.8850 O   0  0  0  0  0  0  0  0  0  0  0  0
   59.6650   33.8740   48.6750 O   0  0  0  0  0  0  0  0  0  0  0  0
   58.0720   31.8070   46.0720 C   0  0  0  0  0  0  0  0  0  0  0  0
   57.8910   31.8180   44.6850 C   0  0  0  0  0  0  0  0  0  0  0  0
   59.8360   28.2612   44.7554 H   0  0  0  0  0  0  0  0  0  0  0  0
   61.5201   29.9569   45.4758 H   0  0  0  0  0  0  0  0  0  0  0  0
   59.6865   30.1218   49.3897 H   0  0  0  0  0  0  0  0  0  0  0  0
   57.9840   28.4464   48.6661 H   0  0  0  0  0  0  0  0  0  0  0  0
   57.4078   30.8943   41.5788 H   0  0  0  0  0  0  0  0  0  0  0  0
   58.1330   33.3780   41.8450 H   0  0  0  0  0  0  0  0  0  0  0  0
   58.7921   35.0192   43.9179 H   0  0  0  0  0  0  0  0  0  0  0  0
   59.1129   35.0713   46.4103 H   0  0  0  0  0  0  0  0  0  0  0  0
   57.8708   30.8981   46.6580 H   0  0  0  0  0  0  0  0  0  0  0  0
  1  2  2  0
  2  3  1  0
  3  4  1  0
  4  5  2  0
  4  6  2  0
  4  7  1  0
  7  8  2  0
  8  9  1  0
  9 10  2  0
 10 11  1  0
 10 12  1  0
 12 13  2  0
  2 14  1  0
 14 15  2  0
 14 16  1  0
 16 17  2  0
 17 18  1  0
 18 19  1  0
 19 20  2  0
 20 21  1  0
 21 22  2  0
 22 23  1  0
 23 24  2  0
 23 25  1  0
 22 26  1  0
 26 27  2  0
 13  7  1  0
 27 16  1  0
 27 19  1  0
  8 28  1  0
  9 29  1  0
 12 30  1  0
 13 31  1  0
 17 32  1  0
 18 33  1  0
 20 34  1  0
 21 35  1  0
 26 36  1  0
M  CHG  3   3  -1  23   1  25  -1
M  END
>  <UniqueID>  (68) 
63

>  <SMILES>  (68) 
O=C([N-]S(=O)(=O)c1ccc(F)cc1)C(=O)c1c[nH]c2ccc([N+](=O)[O-])cc12

>  <Energy>  (68) 
77.36921999963852

>  <Genealogy>  (68) 
O=C([N-]S(=O)(=O)c1ccc(F)cc1)C(=O)c1c[nH]c2ccc([N+](=O)[O-])cc12 (protonated)
O=C([N-]S(=O)(=O)c1ccc(F)cc1)C(=O)c1c[nH]c2ccc([N+](=O)[O-])cc12 (3D coordinates assigned)
O=C([N-]S(=O)(=O)c1ccc(F)cc1)C(=O)c1c[nH]c2ccc([N+](=O)[O-])cc12 (optimized conformer: 77.36921999963852 kcal/mol)

>  <smiles>  (68) 
O=C(NS(=O)(=O)c1ccc(F)cc1)C(=O)c1c[nH]c2ccc([N+](=O)[O-])cc12

>  <score_type>  (68) 
oracle

>  <origin>  (68) 
adg

>  <m_score__min__energy>  (68) 
-10.44

>  <m_primary>  (68) 
energy

$$$$
68:0
     RDKit          3D

 62 66  0  0  0  0  0  0  0  0999 V2000
   59.2810   35.2540   46.1500 O   0  0  0  0  0  0  0  0  0  0  0  0
   59.3500   34.1030   46.6540 C   0  0  0  0  0  0  0  0  0  0  0  0
   59.9870   33.9370   47.9400 N   0  0  0  0  0  0  0  0  0  0  0  0
   59.4600   33.4150   49.0150 C   0  0  0  0  0  0  0  0  0  0  0  0
   58.6100   32.2870   48.9620 C   0  0  0  0  0  0  0  0  0  0  0  0
   58.1780   31.7110   50.1660 C   0  0  0  0  0  0  0  0  0  0  0  0
   58.6970   32.1290   51.3530 N   0  0  0  0  0  0  0  0  0  0  0  0
   59.5440   33.1920   51.4230 C   0  0  0  0  0  0  0  0  0  0  0  0
   59.9070   33.8800   50.2560 C   0  0  0  0  0  0  0  0  0  0  0  0
   58.8040   32.9340   45.9090 C   0  0  0  0  0  0  0  0  0  0  0  0
   57.6300   33.0270   45.1510 C   0  0  0  0  0  0  0  0  0  0  0  0
   57.0850   31.8850   44.5560 C   0  0  0  0  0  0  0  0  0  0  0  0
   57.6830   30.6390   44.7460 C   0  0  0  0  0  0  0  0  0  0  0  0
   58.8690   30.5200   45.4970 C   0  0  0  0  0  0  0  0  0  0  0  0
   59.4170   29.1210   45.8310 C   0  0  2  0  0  0  0  0  0  0  0  0
   59.7390   28.2400   44.5930 C   0  0  0  0  0  0  0  0  0  0  0  0
   58.5240   27.5060   43.9850 C   0  0  0  0  0  0  0  0  0  0  0  0
   57.2840   27.6000   44.8710 C   0  0  0  0  0  0  0  0  0  0  0  0
   57.6880   27.3540   46.3190 C   0  0  0  0  0  0  0  0  0  0  0  0
   58.5700   28.4210   46.8660 N   0  0  1  0  0  0  0  0  0  0  0  0
   59.4170   27.8220   47.8980 C   0  0  0  0  0  0  0  0  0  0  0  0
   59.3910   26.5700   48.0750 O   0  0  0  0  0  0  0  0  0  0  0  0
   60.3000   28.6260   48.7880 C   0  0  0  0  0  0  0  0  0  0  0  0
   60.4590   28.2210   50.1290 C   0  0  0  0  0  0  0  0  0  0  0  0
   61.2670   28.9440   51.0060 C   0  0  0  0  0  0  0  0  0  0  0  0
   61.9260   30.0900   50.5610 C   0  0  0  0  0  0  0  0  0  0  0  0
   61.7720   30.5370   49.2370 C   0  0  0  0  0  0  0  0  0  0  0  0
   62.4750   31.7620   48.7670 C   0  0  0  0  0  0  0  0  0  0  0  0
   62.5880   32.0400   47.3890 C   0  0  0  0  0  0  0  0  0  0  0  0
   63.2280   33.2050   46.9550 C   0  0  0  0  0  0  0  0  0  0  0  0
   63.7590   34.1060   47.8830 C   0  0  0  0  0  0  0  0  0  0  0  0
   63.6400   33.8500   49.2480 C   0  0  0  0  0  0  0  0  0  0  0  0
   63.0030   32.6870   49.6890 C   0  0  0  0  0  0  0  0  0  0  0  0
   60.9500   29.7980   48.3590 C   0  0  0  0  0  0  0  0  0  0  0  0
   59.4550   31.6900   46.0050 C   0  0  0  0  0  0  0  0  0  0  0  0
   58.2933   31.8688   47.9952 H   0  0  0  0  0  0  0  0  0  0  0  0
   57.4161   30.9177   50.1508 H   0  0  0  0  0  0  0  0  0  0  0  0
   59.9444   33.5120   52.3963 H   0  0  0  0  0  0  0  0  0  0  0  0
   60.5386   34.7786   50.3163 H   0  0  0  0  0  0  0  0  0  0  0  0
   57.1353   34.0011   45.0234 H   0  0  0  0  0  0  0  0  0  0  0  0
   56.1807   31.9695   43.9354 H   0  0  0  0  0  0  0  0  0  0  0  0
   57.2244   29.7414   44.3055 H   0  0  0  0  0  0  0  0  0  0  0  0
   60.4034   29.2905   46.2874 H   0  0  0  0  0  0  0  0  0  0  0  0
   60.1714   28.8873   43.8158 H   0  0  0  0  0  0  0  0  0  0  0  0
   60.4297   27.4580   44.9414 H   0  0  0  0  0  0  0  0  0  0  0  0
   58.2940   27.9537   43.0069 H   0  0  0  0  0  0  0  0  0  0  0  0
   58.7881   26.4425   43.8895 H   0  0  0  0  0  0  0  0  0  0  0  0
   56.8392   28.6017   44.7775 H   0  0  0  0  0  0  0  0  0  0  0  0
   56.5463   26.8463   44.5583 H   0  0  0  0  0  0  0  0  0  0  0  0
   56.7769   27.3032   46.9333 H   0  0  0  0  0  0  0  0  0  0  0  0
   58.2551   26.4119   46.3469 H   0  0  0  0  0  0  0  0  0  0  0  0
   57.9570   29.1420   47.3240 H   0  0  0  0  0  0  0  0  0  0  0  0
   59.9381   27.3215   50.4888 H   0  0  0  0  0  0  0  0  0  0  0  0
   61.3845   28.6109   52.0477 H   0  0  0  0  0  0  0  0  0  0  0  0
   62.5726   30.6496   51.2529 H   0  0  0  0  0  0  0  0  0  0  0  0
   62.1709   31.3374   46.6525 H   0  0  0  0  0  0  0  0  0  0  0  0
   63.3141   33.4136   45.8784 H   0  0  0  0  0  0  0  0  0  0  0  0
   64.2702   35.0161   47.5362 H   0  0  0  0  0  0  0  0  0  0  0  0
   64.0478   34.5640   49.9787 H   0  0  0  0  0  0  0  0  0  0  0  0
   62.9129   32.4917   50.7678 H   0  0  0  0  0  0  0  0  0  0  0  0
   60.8155   30.1437   47.3234 H   0  0  0  0  0  0  0  0  0  0  0  0
   60.4420   31.6334   46.4874 H   0  0  0  0  0  0  0  0  0  0  0  0
  1  2  2  0
  2  3  1  0
  3  4  2  3
  4  5  1  0
  5  6  2  0
  6  7  1  0
  7  8  1  0
  8  9  2  0
  2 10  1  0
 10 11  2  0
 11 12  1  0
 12 13  2  0
 13 14  1  0
 14 15  1  0
 15 16  1  0
 16 17  1  0
 17 18  1  0
 18 19  1  0
 19 20  1  0
 20 21  1  0
 21 22  2  0
 21 23  1  0
 23 24  2  0
 24 25  1  0
 25 26  2  0
 26 27  1  0
 27 28  1  0
 28 29  2  0
 29 30  1  0
 30 31  2  0
 31 32  1  0
 32 33  2  0
 27 34  2  0
 14 35  2  0
  9  4  1  0
 35 10  1  0
 20 15  1  0
 34 23  1  0
 33 28  1  0
  5 36  1  0
  6 37  1  0
  8 38  1  0
  9 39  1  0
 11 40  1  0
 12 41  1  0
 13 42  1  0
 15 43  1  1
 16 44  1  0
 16 45  1  0
 17 46  1  0
 17 47  1  0
 18 48  1  0
 18 49  1  0
 19 50  1  0
 19 51  1  0
 20 52  1  1
 24 53  1  0
 25 54  1  0
 26 55  1  0
 29 56  1  0
 30 57  1  0
 31 58  1  0
 32 59  1  0
 33 60  1  0
 34 61  1  0
 35 62  1  0
M  CHG  2   7  -1  20   1
M  END
>  <UniqueID>  (69) 
64

>  <SMILES>  (69) 
O=C(N=c1cc[n-]cc1)c1cccc([C@@H]2CCCC[N@H+]2C(=O)c2cccc(-c3ccccc3)c2)c1

>  <Energy>  (69) 
110.26476801283597

>  <Genealogy>  (69) 
O=C(N=c1cc[n-]cc1)c1cccc(C2CCCC[NH+]2C(=O)c2cccc(-c3ccccc3)c2)c1 (protonated)
O=C(N=c1cc[n-]cc1)c1cccc([C@@H]2CCCC[N@H+]2C(=O)c2cccc(-c3ccccc3)c2)c1 (chirality)
O=C(N=c1cc[n-]cc1)c1cccc([C@@H]2CCCC[N@H+]2C(=O)c2cccc(-c3ccccc3)c2)c1 (3D coordinates assigned)
O=C(N=c1cc[n-]cc1)c1cccc([C@@H]2CCCC[N@H+]2C(=O)c2cccc(-c3ccccc3)c2)c1 (nonaromatic ring conformer: 110.26476801283597 kcal/mol)

>  <smiles>  (69) 
O=C(N=c1cc[nH]cc1)c1cccc(C2CCCCN2C(=O)c2cccc(-c3ccccc3)c2)c1

>  <score_type>  (69) 
oracle

>  <origin>  (69) 
adg

>  <m_score__min__energy>  (69) 
-12.17

>  <m_primary>  (69) 
energy

$$$$
69:0
     RDKit          3D

 59 62  0  0  0  0  0  0  0  0999 V2000
   54.8790   24.1250   45.2770 C   0  0  0  0  0  0  0  0  0  0  0  0
   56.1860   24.7420   45.6780 C   0  0  0  0  0  0  0  0  0  0  0  0
   57.3530   24.4670   44.9490 C   0  0  0  0  0  0  0  0  0  0  0  0
   58.5630   25.0720   45.3010 C   0  0  0  0  0  0  0  0  0  0  0  0
   58.6220   25.9600   46.3850 C   0  0  0  0  0  0  0  0  0  0  0  0
   60.1510   26.7370   46.8330 S   0  0  0  0  0  0  0  0  0  0  0  0
   61.2650   26.0020   46.1440 O   0  0  0  0  0  0  0  0  0  0  0  0
   60.3460   26.5660   48.3130 O   0  0  0  0  0  0  0  0  0  0  0  0
   60.2410   28.4330   46.3570 N   0  0  0  0  0  0  0  0  0  0  0  0
   60.0210   28.5880   44.9050 C   0  0  0  0  0  0  0  0  0  0  0  0
   58.6880   29.2310   44.6190 C   0  0  0  0  0  0  0  0  0  0  0  0
   57.4910   28.5420   44.8760 C   0  0  0  0  0  0  0  0  0  0  0  0
   56.2600   29.1580   44.6280 C   0  0  0  0  0  0  0  0  0  0  0  0
   56.2160   30.4600   44.1230 C   0  0  0  0  0  0  0  0  0  0  0  0
   57.4040   31.1520   43.8670 C   0  0  0  0  0  0  0  0  0  0  0  0
   58.6370   30.5420   44.1170 C   0  0  0  0  0  0  0  0  0  0  0  0
   59.4310   29.3890   47.1630 C   0  0  1  0  0  0  0  0  0  0  0  0
   59.3940   29.1120   48.6630 C   0  0  0  0  0  0  0  0  0  0  0  0
   59.2880   30.4970   49.2750 C   0  0  0  0  0  0  0  0  0  0  0  0
   60.0150   31.4030   48.3720 N   0  0  2  0  0  0  0  0  0  0  0  0
   59.6600   32.8390   48.5040 C   0  0  0  0  0  0  0  0  0  0  0  0
   59.0500   33.4740   47.2670 C   0  0  0  0  0  0  0  0  0  0  0  0
   59.8520   34.2240   46.3870 C   0  0  0  0  0  0  0  0  0  0  0  0
   59.3010   34.7890   45.2340 C   0  0  0  0  0  0  0  0  0  0  0  0
   57.9510   34.5920   44.9340 C   0  0  0  0  0  0  0  0  0  0  0  0
   57.1530   33.8220   45.7830 C   0  0  0  0  0  0  0  0  0  0  0  0
   57.7000   33.2570   46.9390 C   0  0  0  0  0  0  0  0  0  0  0  0
   59.8760   30.8510   47.0120 C   0  0  0  0  0  0  0  0  0  0  0  0
   57.4460   26.2670   47.0860 C   0  0  0  0  0  0  0  0  0  0  0  0
   56.2360   25.6620   46.7350 C   0  0  0  0  0  0  0  0  0  0  0  0
   54.3088   23.8558   46.1783 H   0  0  0  0  0  0  0  0  0  0  0  0
   54.3014   24.8455   44.6793 H   0  0  0  0  0  0  0  0  0  0  0  0
   55.0683   23.2212   44.6793 H   0  0  0  0  0  0  0  0  0  0  0  0
   57.3155   23.7724   44.0969 H   0  0  0  0  0  0  0  0  0  0  0  0
   59.4735   24.8505   44.7249 H   0  0  0  0  0  0  0  0  0  0  0  0
   60.8199   29.2179   44.4867 H   0  0  0  0  0  0  0  0  0  0  0  0
   60.0312   27.5895   44.4436 H   0  0  0  0  0  0  0  0  0  0  0  0
   57.5219   27.5165   45.2729 H   0  0  0  0  0  0  0  0  0  0  0  0
   55.3244   28.6162   44.8310 H   0  0  0  0  0  0  0  0  0  0  0  0
   55.2464   30.9410   43.9267 H   0  0  0  0  0  0  0  0  0  0  0  0
   57.3684   32.1768   43.4687 H   0  0  0  0  0  0  0  0  0  0  0  0
   59.5700   31.0904   43.9200 H   0  0  0  0  0  0  0  0  0  0  0  0
   58.4293   29.2295   46.7374 H   0  0  0  0  0  0  0  0  0  0  0  0
   58.5214   28.4969   48.9281 H   0  0  0  0  0  0  0  0  0  0  0  0
   60.2720   28.5522   49.0177 H   0  0  0  0  0  0  0  0  0  0  0  0
   58.2334   30.8003   49.3511 H   0  0  0  0  0  0  0  0  0  0  0  0
   59.7109   30.5195   50.2902 H   0  0  0  0  0  0  0  0  0  0  0  0
   61.0280   31.3340   48.6310 H   0  0  0  0  0  0  0  0  0  0  0  0
   58.9368   32.9358   49.3272 H   0  0  0  0  0  0  0  0  0  0  0  0
   60.6062   33.3706   48.6831 H   0  0  0  0  0  0  0  0  0  0  0  0
   60.9200   34.3664   46.6083 H   0  0  0  0  0  0  0  0  0  0  0  0
   59.9311   35.3897   44.5616 H   0  0  0  0  0  0  0  0  0  0  0  0
   57.5167   35.0431   44.0296 H   0  0  0  0  0  0  0  0  0  0  0  0
   56.0921   33.6597   45.5417 H   0  0  0  0  0  0  0  0  0  0  0  0
   57.0704   32.6389   47.5959 H   0  0  0  0  0  0  0  0  0  0  0  0
   59.1209   31.4193   46.4492 H   0  0  0  0  0  0  0  0  0  0  0  0
   60.8270   30.9167   46.4630 H   0  0  0  0  0  0  0  0  0  0  0  0
   57.4765   26.9878   47.9164 H   0  0  0  0  0  0  0  0  0  0  0  0
   55.3190   25.9086   47.2903 H   0  0  0  0  0  0  0  0  0  0  0  0
  1  2  1  0
  2  3  2  0
  3  4  1  0
  4  5  2  0
  5  6  1  0
  6  7  2  0
  6  8  2  0
  6  9  1  0
  9 10  1  0
 10 11  1  0
 11 12  2  0
 12 13  1  0
 13 14  2  0
 14 15  1  0
 15 16  2  0
  9 17  1  0
 17 18  1  0
 18 19  1  0
 19 20  1  0
 20 21  1  0
 21 22  1  0
 22 23  2  0
 23 24  1  0
 24 25  2  0
 25 26  1  0
 26 27  2  0
 20 28  1  0
  5 29  1  0
 29 30  2  0
 30  2  1  0
 16 11  1  0
 28 17  1  0
 27 22  1  0
  1 31  1  0
  1 32  1  0
  1 33  1  0
  3 34  1  0
  4 35  1  0
 10 36  1  0
 10 37  1  0
 12 38  1  0
 13 39  1  0
 14 40  1  0
 15 41  1  0
 16 42  1  0
 17 43  1  6
 18 44  1  0
 18 45  1  0
 19 46  1  0
 19 47  1  0
 20 48  1  1
 21 49  1  0
 21 50  1  0
 23 51  1  0
 24 52  1  0
 25 53  1  0
 26 54  1  0
 27 55  1  0
 28 56  1  0
 28 57  1  0
 29 58  1  0
 30 59  1  0
M  CHG  1  20   1
M  END
>  <UniqueID>  (70) 
65

>  <SMILES>  (70) 
Cc1ccc(S(=O)(=O)N(Cc2ccccc2)[C@H]2CC[N@H+](Cc3ccccc3)C2)cc1

>  <Energy>  (70) 
79.05530514530734

>  <Genealogy>  (70) 
Cc1ccc(S(=O)(=O)N(Cc2ccccc2)C2CC[NH+](Cc3ccccc3)C2)cc1 (protonated)
Cc1ccc(S(=O)(=O)N(Cc2ccccc2)[C@H]2CC[N@H+](Cc3ccccc3)C2)cc1 (chirality)
Cc1ccc(S(=O)(=O)N(Cc2ccccc2)[C@H]2CC[N@H+](Cc3ccccc3)C2)cc1 (3D coordinates assigned)
Cc1ccc(S(=O)(=O)N(Cc2ccccc2)[C@H]2CC[N@H+](Cc3ccccc3)C2)cc1 (nonaromatic ring conformer: 79.05530514530734 kcal/mol)

>  <smiles>  (70) 
Cc1ccc(S(=O)(=O)N(Cc2ccccc2)C2CCN(Cc3ccccc3)C2)cc1

>  <score_type>  (70) 
oracle

>  <origin>  (70) 
adg

>  <m_score__min__energy>  (70) 
-8.3800000000000008

>  <m_primary>  (70) 
energy

$$$$
70:0
     RDKit          3D

 36 37  0  0  0  0  0  0  0  0999 V2000
   62.0171   31.5710   46.3237 H   0  0  0  0  0  0  0  0  0  0  0  0
   61.2360   31.4040   47.0800 C   0  0  0  0  0  0  0  0  0  0  0  0
   61.0360   32.3450   48.0940 C   0  0  0  0  0  0  0  0  0  0  0  0
   61.6673   33.2448   48.1376 H   0  0  0  0  0  0  0  0  0  0  0  0
   60.0340   32.1480   49.0570 C   0  0  0  0  0  0  0  0  0  0  0  0
   59.8480   33.1380   50.1670 C   0  0  0  0  0  0  0  0  0  0  0  0
   59.9443   32.6254   51.1355 H   0  0  0  0  0  0  0  0  0  0  0  0
   60.6143   33.9234   50.0901 H   0  0  0  0  0  0  0  0  0  0  0  0
   58.8489   33.5917   50.0901 H   0  0  0  0  0  0  0  0  0  0  0  0
   59.2550   30.9830   49.0100 C   0  0  0  0  0  0  0  0  0  0  0  0
   58.4836   30.8086   49.7745 H   0  0  0  0  0  0  0  0  0  0  0  0
   59.4550   30.0420   47.9950 C   0  0  0  0  0  0  0  0  0  0  0  0
   58.8320   29.1361   47.9601 H   0  0  0  0  0  0  0  0  0  0  0  0
   60.4420   30.2440   47.0230 C   0  0  0  0  0  0  0  0  0  0  0  0
   60.6020   29.2710   46.0260 O   0  0  0  0  0  0  0  0  0  0  0  0
   59.7580   28.1340   45.8640 C   0  0  0  0  0  0  0  0  0  0  0  0
   60.1961   27.4521   45.1203 H   0  0  0  0  0  0  0  0  0  0  0  0
   59.6581   27.6048   46.8232 H   0  0  0  0  0  0  0  0  0  0  0  0
   58.4150   28.5900   45.3960 C   0  0  0  0  0  0  0  0  0  0  0  0
   57.4620   27.7650   45.3470 O   0  0  0  0  0  0  0  0  0  0  0  0
   58.2040   29.9740   45.0800 N   0  0  0  0  0  0  0  0  0  0  0  0
   58.9840   30.6440   45.2720 H   0  0  0  0  0  0  0  0  0  0  0  0
   56.9440   30.5190   44.6530 C   0  0  0  0  0  0  0  0  0  0  0  0
   56.0400   29.7170   43.5470 S   0  0  0  0  0  0  0  0  0  0  0  0
   56.6590   31.9090   44.8640 N   0  0  0  0  0  0  0  0  0  0  0  0
   57.4860   32.8400   45.2580 C   0  0  0  0  0  0  0  0  0  0  0  0
   58.4040   33.4570   44.3820 C   0  0  0  0  0  0  0  0  0  0  0  0
   58.4408   33.1635   43.3225 H   0  0  0  0  0  0  0  0  0  0  0  0
   59.2650   34.4420   44.8680 C   0  0  0  0  0  0  0  0  0  0  0  0
   59.9777   34.9338   44.1896 H   0  0  0  0  0  0  0  0  0  0  0  0
   59.2210   34.8020   46.2140 C   0  0  0  0  0  0  0  0  0  0  0  0
   59.8905   35.5831   46.6034 H   0  0  0  0  0  0  0  0  0  0  0  0
   58.3180   34.1600   47.0610 C   0  0  0  0  0  0  0  0  0  0  0  0
   58.2795   34.4305   48.1265 H   0  0  0  0  0  0  0  0  0  0  0  0
   57.4840   33.2000   46.5750 N   0  0  0  0  0  0  0  0  0  0  0  0
   56.8200   32.7380   47.2380 H   0  0  0  0  0  0  0  0  0  0  0  0
  1  2  1  0
  2  3  2  0
  3  4  1  0
  3  5  1  0
  5  6  1  0
  6  7  1  0
  6  8  1  0
  6  9  1  0
  5 10  2  0
 10 11  1  0
 10 12  1  0
 12 13  1  0
 12 14  2  0
 14 15  1  0
 15 16  1  0
 16 17  1  0
 16 18  1  0
 16 19  1  0
 19 20  2  0
 19 21  1  0
 21 22  1  0
 21 23  1  0
 23 24  2  0
 23 25  1  0
 25 26  2  0
 26 27  1  0
 27 28  1  0
 27 29  2  0
 29 30  1  0
 29 31  1  0
 31 32  1  0
 31 33  2  0
 33 34  1  0
 33 35  1  0
 35 36  1  0
 14  2  1  0
 35 26  1  0
M  END
>  <UniqueID>  (71) 
66

>  <SMILES>  (71) 
Cc1ccc(OCC(=O)NC(=S)/N=c2\cccc[nH]2)cc1

>  <Energy>  (71) 
43.021242551939324

>  <Genealogy>  (71) 
Cc1ccc(OCC(=O)NC(=S)/N=c2\cccc[nH]2)cc1 (cis-trans isomerization)
Cc1ccc(OCC(=O)NC(=S)/N=c2\cccc[nH]2)cc1 (3D coordinates assigned)
Cc1ccc(OCC(=O)NC(=S)/N=c2\cccc[nH]2)cc1 (optimized conformer: 43.021242551939324 kcal/mol)

>  <smiles>  (71) 
Cc1ccc(OCC(=O)NC(=S)N=c2cccc[nH]2)cc1

>  <score_type>  (71) 
oracle

>  <origin>  (71) 
adg

>  <m_score__min__energy>  (71) 
-7.4100000000000001

>  <m_primary>  (71) 
energy

$$$$
71:0
     RDKit          3D

 36 38  0  0  0  0  0  0  0  0999 V2000
   55.2580   29.0510   44.7160 O   0  0  0  0  0  0  0  0  0  0  0  0
   56.5060   29.1920   44.7990 C   0  0  0  0  0  0  0  0  0  0  0  0
   57.3980   28.2110   44.0940 C   0  0  0  0  0  0  0  0  0  0  0  0
   58.7640   28.7540   44.0260 N   0  0  0  0  0  0  0  0  0  0  0  0
   59.7850   28.0840   44.8710 C   0  0  2  0  0  0  0  0  0  0  0  0
   59.1360   27.3870   46.0900 C   0  0  0  0  0  0  0  0  0  0  0  0
   58.7300   28.3570   47.2080 C   0  0  0  0  0  0  0  0  0  0  0  0
   59.8180   29.3530   47.4560 C   0  0  0  0  0  0  0  0  0  0  0  0
   59.8940   30.1510   48.5380 N   0  0  0  0  0  0  0  0  0  0  0  0
   60.9650   30.9230   48.2400 C   0  0  0  0  0  0  0  0  0  0  0  0
   61.5040   30.6290   47.0380 N   0  0  0  0  0  0  0  0  0  0  0  0
   60.7610   29.6530   46.5510 N   0  0  0  0  0  0  0  0  0  0  0  0
   60.9960   28.9700   45.2790 C   0  0  0  0  0  0  0  0  0  0  0  0
   57.0320   30.2200   45.6510 N   0  0  0  0  0  0  0  0  0  0  0  0
   57.6210   31.4550   45.2210 C   0  0  0  0  0  0  0  0  0  0  0  0
   57.6090   31.7760   43.8570 C   0  0  0  0  0  0  0  0  0  0  0  0
   58.1750   32.9740   43.4100 C   0  0  0  0  0  0  0  0  0  0  0  0
   58.7710   33.8510   44.3210 C   0  0  0  0  0  0  0  0  0  0  0  0
   58.8160   33.5230   45.6810 C   0  0  0  0  0  0  0  0  0  0  0  0
   59.6430   34.7120   46.9240 Br  0  0  0  0  0  0  0  0  0  0  0  0
   58.2560   32.3210   46.1280 C   0  0  0  0  0  0  0  0  0  0  0  0
   57.4080   27.2605   44.6475 H   0  0  0  0  0  0  0  0  0  0  0  0
   57.0205   28.0371   43.0755 H   0  0  0  0  0  0  0  0  0  0  0  0
   58.7170   29.7650   44.2990 H   0  0  0  0  0  0  0  0  0  0  0  0
   60.2279   27.3145   44.2216 H   0  0  0  0  0  0  0  0  0  0  0  0
   58.2364   26.8545   45.7479 H   0  0  0  0  0  0  0  0  0  0  0  0
   59.8901   26.7062   46.5116 H   0  0  0  0  0  0  0  0  0  0  0  0
   57.8134   28.8880   46.9117 H   0  0  0  0  0  0  0  0  0  0  0  0
   58.5541   27.7842   48.1305 H   0  0  0  0  0  0  0  0  0  0  0  0
   61.3547   31.7066   48.9064 H   0  0  0  0  0  0  0  0  0  0  0  0
   61.1667   29.7233   44.4958 H   0  0  0  0  0  0  0  0  0  0  0  0
   61.8743   28.3182   45.3963 H   0  0  0  0  0  0  0  0  0  0  0  0
   57.1525   31.0828   43.1351 H   0  0  0  0  0  0  0  0  0  0  0  0
   58.1512   33.2268   42.3397 H   0  0  0  0  0  0  0  0  0  0  0  0
   59.2046   34.7987   43.9691 H   0  0  0  0  0  0  0  0  0  0  0  0
   58.3129   32.0528   47.1933 H   0  0  0  0  0  0  0  0  0  0  0  0
  1  2  2  0
  2  3  1  0
  3  4  1  0
  4  5  1  0
  5  6  1  0
  6  7  1  0
  7  8  1  0
  8  9  2  0
  9 10  1  0
 10 11  2  0
 11 12  1  0
 12 13  1  0
  2 14  1  0
 14 15  1  0
 15 16  2  0
 16 17  1  0
 17 18  2  0
 18 19  1  0
 19 20  1  0
 19 21  2  0
 13  5  1  0
 21 15  1  0
 12  8  1  0
  3 22  1  0
  3 23  1  0
  4 24  1  0
  5 25  1  6
  6 26  1  0
  6 27  1  0
  7 28  1  0
  7 29  1  0
 10 30  1  0
 13 31  1  0
 13 32  1  0
 16 33  1  0
 17 34  1  0
 18 35  1  0
 21 36  1  0
M  CHG  1  14  -1
M  END
>  <UniqueID>  (72) 
67

>  <SMILES>  (72) 
O=C(CN[C@@H]1CCc2ncnn2C1)[N-]c1cccc(Br)c1

>  <Energy>  (72) 
78.91452600881426

>  <Genealogy>  (72) 
O=C(CNC1CCc2ncnn2C1)[N-]c1cccc(Br)c1 (protonated)
O=C(CN[C@@H]1CCc2ncnn2C1)[N-]c1cccc(Br)c1 (chirality)
O=C(CN[C@@H]1CCc2ncnn2C1)[N-]c1cccc(Br)c1 (3D coordinates assigned)
O=C(CN[C@@H]1CCc2ncnn2C1)[N-]c1cccc(Br)c1 (nonaromatic ring conformer: 78.91452600881426 kcal/mol)

>  <smiles>  (72) 
O=C(CNC1CCc2ncnn2C1)Nc1cccc(Br)c1

>  <score_type>  (72) 
oracle

>  <origin>  (72) 
adg

>  <m_score__min__energy>  (72) 
-9.1600000000000001

>  <m_primary>  (72) 
energy

$$$$
72:0
     RDKit          3D

 43 45  0  0  1  0  0  0  0  0999 V2000
   60.9940   34.1860   48.3190 C   0  0  0  0  0  0  0  0  0  0  0  0
   59.6860   34.5160   48.5340 C   0  0  0  0  0  0  0  0  0  0  0  0
   58.8250   34.5310   47.4480 C   0  0  0  0  0  0  0  0  0  0  0  0
   59.3510   34.2070   46.2130 C   0  0  0  0  0  0  0  0  0  0  0  0
   58.3490   34.2540   45.0770 C   0  0  0  0  0  0  0  0  0  0  0  0
   57.3170   33.2950   45.3640 N   0  0  0  0  0  0  0  0  0  0  0  0
   57.4600   32.0290   45.2120 C   0  0  0  0  0  0  0  0  0  0  0  0
   58.5480   31.3560   45.7060 C   0  0  0  0  0  0  0  0  0  0  0  0
   58.6050   29.9970   45.4850 C   0  0  0  0  0  0  0  0  0  0  0  0
   59.7230   29.2710   45.9990 N   0  0  0  0  0  0  0  0  0  0  0  0
   60.3010   28.2630   45.1040 C   0  0  0  0  0  0  0  0  0  0  0  0
   59.6210   26.9510   45.4540 C   0  0  0  0  0  0  0  0  0  0  0  0
   60.0150   26.6020   46.8610 C   0  0  0  0  0  0  0  0  0  0  0  0
   59.2550   27.3360   47.9200 C   0  0  0  0  0  0  0  0  0  0  0  0
   59.8360   28.6180   48.3870 C   0  0  0  0  0  0  0  0  0  0  0  0
   60.1120   29.6270   47.3290 C   0  0  0  0  0  0  0  0  0  0  0  0
   57.6070   29.4050   44.8070 N   0  0  0  0  0  0  0  0  0  0  0  0
   56.5480   30.0830   44.3310 C   0  0  0  0  0  0  0  0  0  0  0  0
   56.4550   31.4060   44.5260 N   0  0  0  0  0  0  0  0  0  0  0  0
   60.6610   33.8750   45.9960 C   0  0  0  0  0  0  0  0  0  0  0  0
   61.5100   33.8660   47.0920 C   0  0  0  0  0  0  0  0  0  0  0  0
   61.6736   34.1768   49.1839 H   0  0  0  0  0  0  0  0  0  0  0  0
   59.3253   34.7635   49.5433 H   0  0  0  0  0  0  0  0  0  0  0  0
   57.7627   34.7912   47.5654 H   0  0  0  0  0  0  0  0  0  0  0  0
   57.9139   35.2616   45.0028 H   0  0  0  0  0  0  0  0  0  0  0  0
   58.8392   34.0177   44.1210 H   0  0  0  0  0  0  0  0  0  0  0  0
   59.3432   31.8799   46.2565 H   0  0  0  0  0  0  0  0  0  0  0  0
   60.1047   28.5268   44.0543 H   0  0  0  0  0  0  0  0  0  0  0  0
   61.3922   28.1955   45.2255 H   0  0  0  0  0  0  0  0  0  0  0  0
   58.5289   27.0638   45.3864 H   0  0  0  0  0  0  0  0  0  0  0  0
   59.9268   26.1570   44.7568 H   0  0  0  0  0  0  0  0  0  0  0  0
   59.8513   25.5239   47.0059 H   0  0  0  0  0  0  0  0  0  0  0  0
   61.0689   26.8968   46.9722 H   0  0  0  0  0  0  0  0  0  0  0  0
   58.2515   27.5494   47.5232 H   0  0  0  0  0  0  0  0  0  0  0  0
   59.2695   26.6742   48.7985 H   0  0  0  0  0  0  0  0  0  0  0  0
   59.1330   29.0655   49.1051 H   0  0  0  0  0  0  0  0  0  0  0  0
   60.8148   28.3627   48.8192 H   0  0  0  0  0  0  0  0  0  0  0  0
   59.5786   30.5504   47.5987 H   0  0  0  0  0  0  0  0  0  0  0  0
   61.2069   29.7287   47.2980 H   0  0  0  0  0  0  0  0  0  0  0  0
   57.6220   28.3790   44.6230 H   0  0  0  0  0  0  0  0  0  0  0  0
   55.7573   29.5516   43.7811 H   0  0  0  0  0  0  0  0  0  0  0  0
   61.0267   33.6246   44.9892 H   0  0  0  0  0  0  0  0  0  0  0  0
   62.5732   33.6078   46.9784 H   0  0  0  0  0  0  0  0  0  0  0  0
  1  2  2  0
  2  3  1  0
  3  4  2  0
  4  5  1  0
  5  6  1  0
  6  7  2  0
  7  8  1  0
  8  9  2  0
  9 10  1  0
 10 11  1  0
 11 12  1  0
 12 13  1  0
 13 14  1  0
 14 15  1  0
 15 16  1  0
  9 17  1  0
 17 18  1  0
 18 19  2  0
  4 20  1  0
 20 21  2  0
 21  1  1  0
 19  7  1  0
 16 10  1  0
  1 22  1  0
  2 23  1  0
  3 24  1  0
  5 25  1  0
  5 26  1  0
  8 27  1  0
 11 28  1  0
 11 29  1  0
 12 30  1  0
 12 31  1  0
 13 32  1  0
 13 33  1  0
 14 34  1  0
 14 35  1  0
 15 36  1  0
 15 37  1  0
 16 38  1  0
 16 39  1  0
 17 40  1  0
 18 41  1  0
 20 42  1  0
 21 43  1  0
M  END
>  <smiles>  (73) 
c1ccc(CN=c2cc(N3CCCCCC3)[nH]cn2)cc1

>  <score_type>  (73) 
oracle

>  <origin>  (73) 
adg

>  <m_score__min__energy>  (73) 
-5.29

>  <m_primary>  (73) 
energy

$$$$
73:0
     RDKit          3D

 79 83  0  0  0  0  0  0  0  0999 V2000
   62.4000   33.4400   54.0930 C   0  0  0  0  0  0  0  0  0  0  0  0
   62.1050   32.5520   52.9220 C   0  0  0  0  0  0  0  0  0  0  0  0
   62.9670   31.4930   52.6040 C   0  0  0  0  0  0  0  0  0  0  0  0
   62.7190   30.6920   51.4840 C   0  0  0  0  0  0  0  0  0  0  0  0
   61.6120   30.9490   50.6590 C   0  0  0  0  0  0  0  0  0  0  0  0
   61.3660   30.1400   49.4940 N   0  0  0  0  0  0  0  0  0  0  0  0
   61.5230   30.6750   48.1410 C   0  0  0  0  0  0  0  0  0  0  0  0
   60.1840   30.6040   47.4040 C   0  0  0  0  0  0  0  0  0  0  0  0
   59.5800   29.2660   47.5430 N   0  0  0  0  0  0  0  0  0  0  0  0
   58.7160   28.7370   46.5090 C   0  0  0  0  0  0  0  0  0  0  0  0
   57.7880   27.9380   46.8160 O   0  0  0  0  0  0  0  0  0  0  0  0
   58.8820   29.1010   45.0620 C   0  0  0  0  0  0  0  0  0  0  0  0
   57.4990   28.5160   44.0940 S   0  0  0  0  0  0  0  0  0  0  0  0
   57.8980   27.1070   43.2680 O   0  0  0  0  0  0  0  0  0  0  0  0
   56.9580   29.7750   42.9540 C   0  0  0  0  0  0  0  0  0  0  0  0
   57.2130   31.1350   43.5250 C   0  0  0  0  0  0  0  0  0  0  0  0
   56.9450   31.5460   44.8180 C   0  0  0  0  0  0  0  0  0  0  0  0
   57.3170   32.8360   44.9370 N   0  0  0  0  0  0  0  0  0  0  0  0
   57.3340   33.6130   46.1730 C   0  0  0  0  0  0  0  0  0  0  0  0
   58.7370   33.6710   46.7100 C   0  0  0  0  0  0  0  0  0  0  0  0
   59.8290   33.6830   45.8300 C   0  0  0  0  0  0  0  0  0  0  0  0
   61.1310   33.8240   46.3190 C   0  0  0  0  0  0  0  0  0  0  0  0
   61.3630   33.9660   47.7000 C   0  0  0  0  0  0  0  0  0  0  0  0
   62.7400   34.1510   48.2150 C   0  0  0  0  0  0  0  0  0  0  0  0
   63.7130   34.2040   47.4140 O   0  0  0  0  0  0  0  0  0  0  0  0
   62.9670   34.3090   49.6230 N   0  0  0  0  0  0  0  0  0  0  0  0
   64.1220   33.8210   50.3180 C   0  0  0  0  0  0  0  0  0  0  0  0
   64.5130   34.4720   51.4950 C   0  0  0  0  0  0  0  0  0  0  0  0
   65.6590   34.0670   52.1830 C   0  0  0  0  0  0  0  0  0  0  0  0
   66.4190   32.9980   51.7050 C   0  0  0  0  0  0  0  0  0  0  0  0
   66.0220   32.3180   50.5520 C   0  0  0  0  0  0  0  0  0  0  0  0
   64.8640   32.7060   49.8590 C   0  0  0  0  0  0  0  0  0  0  0  0
   64.4280   31.9230   48.7400 N   0  0  0  0  0  0  0  0  0  0  0  0
   60.2650   33.9530   48.5780 C   0  0  0  0  0  0  0  0  0  0  0  0
   58.9640   33.8120   48.0860 C   0  0  0  0  0  0  0  0  0  0  0  0
   57.8100   33.2590   43.7840 N   0  0  0  0  0  0  0  0  0  0  0  0
   57.7620   32.2450   42.9000 C   0  0  0  0  0  0  0  0  0  0  0  0
   58.1950   32.3570   41.4730 C   0  0  0  0  0  0  0  0  0  0  0  0
   59.4980   28.6840   48.8950 C   0  0  0  0  0  0  0  0  0  0  0  0
   60.8440   28.7770   49.6150 C   0  0  0  0  0  0  0  0  0  0  0  0
   60.7600   32.0210   50.9690 C   0  0  0  0  0  0  0  0  0  0  0  0
   61.0070   32.8190   52.0890 C   0  0  0  0  0  0  0  0  0  0  0  0
   62.2167   32.8883   55.0269 H   0  0  0  0  0  0  0  0  0  0  0  0
   63.4522   33.7585   54.0557 H   0  0  0  0  0  0  0  0  0  0  0  0
   61.7475   34.3248   54.0557 H   0  0  0  0  0  0  0  0  0  0  0  0
   63.8427   31.2909   53.2383 H   0  0  0  0  0  0  0  0  0  0  0  0
   63.3947   29.8566   51.2484 H   0  0  0  0  0  0  0  0  0  0  0  0
   61.8551   31.7222   48.1974 H   0  0  0  0  0  0  0  0  0  0  0  0
   62.2720   30.0807   47.5971 H   0  0  0  0  0  0  0  0  0  0  0  0
   59.4995   31.3543   47.8266 H   0  0  0  0  0  0  0  0  0  0  0  0
   60.3583   30.8029   46.3363 H   0  0  0  0  0  0  0  0  0  0  0  0
   58.9477   30.1953   44.9713 H   0  0  0  0  0  0  0  0  0  0  0  0
   59.8003   28.6280   44.6840 H   0  0  0  0  0  0  0  0  0  0  0  0
   57.0290   26.6940   43.0300 H   0  0  0  0  0  0  0  0  0  0  0  0
   57.5090   29.6692   42.0079 H   0  0  0  0  0  0  0  0  0  0  0  0
   55.8789   29.6576   42.7759 H   0  0  0  0  0  0  0  0  0  0  0  0
   56.5040   30.9265   45.6128 H   0  0  0  0  0  0  0  0  0  0  0  0
   56.9770   34.6333   45.9695 H   0  0  0  0  0  0  0  0  0  0  0  0
   56.6772   33.1355   46.9150 H   0  0  0  0  0  0  0  0  0  0  0  0
   59.6598   33.5808   44.7479 H   0  0  0  0  0  0  0  0  0  0  0  0
   61.9801   33.8240   45.6197 H   0  0  0  0  0  0  0  0  0  0  0  0
   63.9125   35.3091   51.8806 H   0  0  0  0  0  0  0  0  0  0  0  0
   65.9627   34.5904   53.1016 H   0  0  0  0  0  0  0  0  0  0  0  0
   67.3314   32.6911   52.2372 H   0  0  0  0  0  0  0  0  0  0  0  0
   66.6209   31.4720   50.1837 H   0  0  0  0  0  0  0  0  0  0  0  0
   64.5500   32.2760   47.7640 H   0  0  0  0  0  0  0  0  0  0  0  0
   64.0500   30.9580   48.8590 H   0  0  0  0  0  0  0  0  0  0  0  0
   60.4309   34.0546   49.6607 H   0  0  0  0  0  0  0  0  0  0  0  0
   58.1131   33.8117   48.7831 H   0  0  0  0  0  0  0  0  0  0  0  0
   58.1930   34.2160   43.6130 H   0  0  0  0  0  0  0  0  0  0  0  0
   59.2593   32.6323   41.4333 H   0  0  0  0  0  0  0  0  0  0  0  0
   58.0470   31.3910   40.9680 H   0  0  0  0  0  0  0  0  0  0  0  0
   57.5972   33.1301   40.9680 H   0  0  0  0  0  0  0  0  0  0  0  0
   58.7407   29.2304   49.4764 H   0  0  0  0  0  0  0  0  0  0  0  0
   59.2225   27.6230   48.8034 H   0  0  0  0  0  0  0  0  0  0  0  0
   60.7097   28.5282   50.6781 H   0  0  0  0  0  0  0  0  0  0  0  0
   61.5537   28.0696   49.1611 H   0  0  0  0  0  0  0  0  0  0  0  0
   59.8930   32.2339   50.3264 H   0  0  0  0  0  0  0  0  0  0  0  0
   60.3376   33.6609   52.3193 H   0  0  0  0  0  0  0  0  0  0  0  0
  1  2  1  0
  2  3  2  0
  3  4  1  0
  4  5  2  0
  5  6  1  0
  6  7  1  0
  7  8  1  0
  8  9  1  0
  9 10  1  0
 10 11  2  0
 10 12  1  0
 12 13  1  0
 13 14  1  6
 13 15  1  0
 15 16  1  0
 16 17  2  0
 17 18  1  0
 18 19  1  0
 19 20  1  0
 20 21  2  0
 21 22  1  0
 22 23  2  0
 23 24  1  0
 24 25  2  0
 24 26  1  0
 26 27  1  0
 27 28  2  0
 28 29  1  0
 29 30  2  0
 30 31  1  0
 31 32  2  0
 32 33  1  0
 23 34  1  0
 34 35  2  0
 18 36  1  0
 36 37  2  0
 37 38  1  0
  9 39  1  0
 39 40  1  0
  5 41  1  0
 41 42  2  0
 42  2  1  0
 40  6  1  0
 37 16  1  0
 35 20  1  0
 32 27  1  0
  1 43  1  0
  1 44  1  0
  1 45  1  0
  3 46  1  0
  4 47  1  0
  7 48  1  0
  7 49  1  0
  8 50  1  0
  8 51  1  0
 12 52  1  0
 12 53  1  0
 14 54  1  0
 15 55  1  0
 15 56  1  0
 17 57  1  0
 19 58  1  0
 19 59  1  0
 21 60  1  0
 22 61  1  0
 28 62  1  0
 29 63  1  0
 30 64  1  0
 31 65  1  0
 33 66  1  0
 33 67  1  0
 34 68  1  0
 35 69  1  0
 36 70  1  0
 38 71  1  0
 38 72  1  0
 38 73  1  0
 39 74  1  0
 39 75  1  0
 40 76  1  0
 40 77  1  0
 41 78  1  0
 42 79  1  0
M  CHG  3  13   1  26  -1  36   1
M  END
>  <UniqueID>  (74) 
68

>  <SMILES>  (74) 
Cc1ccc(N2CCN(C(=O)C[S@+](O)Cc3cn(Cc4ccc(C(=O)[N-]c5ccccc5N)cc4)[nH+]c3C)CC2)cc1

>  <Energy>  (74) 
115.60243516574478

>  <Genealogy>  (74) 
Cc1ccc(N2CCN(C(=O)C[S+](O)Cc3cn(Cc4ccc(C(=O)[N-]c5ccccc5N)cc4)[nH+]c3C)CC2)cc1 (protonated)
Cc1ccc(N2CCN(C(=O)C[S@+](O)Cc3cn(Cc4ccc(C(=O)[N-]c5ccccc5N)cc4)[nH+]c3C)CC2)cc1 (chirality)
Cc1ccc(N2CCN(C(=O)C[S@+](O)Cc3cn(Cc4ccc(C(=O)[N-]c5ccccc5N)cc4)[nH+]c3C)CC2)cc1 (3D coordinates assigned)
Cc1ccc(N2CCN(C(=O)C[S@+](O)Cc3cn(Cc4ccc(C(=O)[N-]c5ccccc5N)cc4)[nH+]c3C)CC2)cc1 (nonaromatic ring conformer: 115.60243516574478 kcal/mol)

>  <smiles>  (74) 
Cc1ccc(N2CCN(C(=O)C[S+]([O-])Cc3cn(Cc4ccc(C(=O)Nc5ccccc5N)cc4)nc3C)CC2)cc1

>  <score_type>  (74) 
oracle

>  <origin>  (74) 
adg

>  <m_score__min__energy>  (74) 
-9.3699999999999992

>  <m_primary>  (74) 
energy

$$$$
74:0
     RDKit          3D

 56 59  0  0  0  0  0  0  0  0999 V2000
   58.2820   21.8760   44.9140 C   0  0  0  0  0  0  0  0  0  0  0  0
   56.8060   21.6290   45.2290 C   0  0  0  0  0  0  0  0  0  0  0  0
   55.9140   22.1870   44.1840 N   0  0  0  0  0  0  0  0  0  0  0  0
   54.7900   22.9880   44.7240 C   0  0  0  0  0  0  0  0  0  0  0  0
   55.2830   24.2560   45.4400 C   0  0  0  0  0  0  0  0  0  0  0  0
   56.4650   24.8000   44.7650 N   0  0  0  0  0  0  0  0  0  0  0  0
   57.3740   25.6640   45.4750 C   0  0  0  0  0  0  0  0  0  0  0  0
   56.9220   26.8760   46.0220 C   0  0  0  0  0  0  0  0  0  0  0  0
   57.7990   27.7070   46.7250 C   0  0  0  0  0  0  0  0  0  0  0  0
   59.1400   27.3300   46.9120 C   0  0  0  0  0  0  0  0  0  0  0  0
   60.0680   28.1780   47.6080 N   0  0  0  0  0  0  0  0  0  0  0  0
   60.1810   29.5970   47.3850 C   0  0  0  0  0  0  0  0  0  0  0  0
   59.3740   30.1780   46.6100 O   0  0  0  0  0  0  0  0  0  0  0  0
   61.2300   30.4010   48.0600 C   0  0  0  0  0  0  0  0  0  0  0  0
   62.0730   31.2630   47.3380 C   0  0  0  0  0  0  0  0  0  0  0  0
   63.0570   32.0080   47.9960 C   0  0  0  0  0  0  0  0  0  0  0  0
   63.2260   31.9010   49.3870 C   0  0  0  0  0  0  0  0  0  0  0  0
   64.2720   32.6930   50.0840 C   0  0  0  0  0  0  0  0  0  0  0  0
   63.9140   33.7210   50.9780 C   0  0  0  0  0  0  0  0  0  0  0  0
   64.9000   34.4640   51.6330 C   0  0  0  0  0  0  0  0  0  0  0  0
   66.2510   34.1930   51.4040 C   0  0  0  0  0  0  0  0  0  0  0  0
   66.6190   33.1770   50.5190 C   0  0  0  0  0  0  0  0  0  0  0  0
   65.6370   32.4290   49.8620 C   0  0  0  0  0  0  0  0  0  0  0  0
   62.3920   31.0270   50.1050 C   0  0  0  0  0  0  0  0  0  0  0  0
   61.4090   30.2830   49.4490 C   0  0  0  0  0  0  0  0  0  0  0  0
   59.5940   26.1280   46.3520 C   0  0  0  0  0  0  0  0  0  0  0  0
   58.7180   25.2960   45.6500 C   0  0  0  0  0  0  0  0  0  0  0  0
   56.6800   24.4640   43.3540 C   0  0  0  0  0  0  0  0  0  0  0  0
   56.6770   22.9340   43.1490 C   0  0  0  0  0  0  0  0  0  0  0  0
   58.8466   21.9705   45.8533 H   0  0  0  0  0  0  0  0  0  0  0  0
   58.6788   21.0318   44.3311 H   0  0  0  0  0  0  0  0  0  0  0  0
   58.3823   22.8034   44.3311 H   0  0  0  0  0  0  0  0  0  0  0  0
   56.6347   20.5448   45.3002 H   0  0  0  0  0  0  0  0  0  0  0  0
   56.5725   22.1320   46.1790 H   0  0  0  0  0  0  0  0  0  0  0  0
   54.1312   23.2817   43.8935 H   0  0  0  0  0  0  0  0  0  0  0  0
   54.2514   22.3696   45.4571 H   0  0  0  0  0  0  0  0  0  0  0  0
   54.4825   25.0104   45.4324 H   0  0  0  0  0  0  0  0  0  0  0  0
   55.5515   23.9984   46.4752 H   0  0  0  0  0  0  0  0  0  0  0  0
   55.8705   27.1734   45.8963 H   0  0  0  0  0  0  0  0  0  0  0  0
   57.4374   28.6618   47.1344 H   0  0  0  0  0  0  0  0  0  0  0  0
   60.6510   27.7310   48.3490 H   0  0  0  0  0  0  0  0  0  0  0  0
   61.9581   31.3524   46.2477 H   0  0  0  0  0  0  0  0  0  0  0  0
   63.7049   32.6843   47.4191 H   0  0  0  0  0  0  0  0  0  0  0  0
   62.8519   33.9403   51.1617 H   0  0  0  0  0  0  0  0  0  0  0  0
   64.6114   35.2641   52.3305 H   0  0  0  0  0  0  0  0  0  0  0  0
   67.0250   34.7796   51.9205 H   0  0  0  0  0  0  0  0  0  0  0  0
   67.6832   32.9649   50.3385 H   0  0  0  0  0  0  0  0  0  0  0  0
   65.9329   31.6292   49.1672 H   0  0  0  0  0  0  0  0  0  0  0  0
   62.5146   30.9280   51.1937 H   0  0  0  0  0  0  0  0  0  0  0  0
   60.7689   29.5983   50.0247 H   0  0  0  0  0  0  0  0  0  0  0  0
   60.6487   25.8372   46.4661 H   0  0  0  0  0  0  0  0  0  0  0  0
   59.0835   24.3465   45.2317 H   0  0  0  0  0  0  0  0  0  0  0  0
   55.8761   24.9105   42.7503 H   0  0  0  0  0  0  0  0  0  0  0  0
   57.6577   24.8599   43.0420 H   0  0  0  0  0  0  0  0  0  0  0  0
   56.2313   22.7174   42.1670 H   0  0  0  0  0  0  0  0  0  0  0  0
   57.7228   22.6009   43.2220 H   0  0  0  0  0  0  0  0  0  0  0  0
  1  2  1  0
  2  3  1  0
  3  4  1  0
  4  5  1  0
  5  6  1  0
  6  7  1  0
  7  8  2  0
  8  9  1  0
  9 10  2  0
 10 11  1  0
 11 12  1  0
 12 13  2  0
 12 14  1  0
 14 15  2  0
 15 16  1  0
 16 17  2  0
 17 18  1  0
 18 19  2  0
 19 20  1  0
 20 21  2  0
 21 22  1  0
 22 23  2  0
 17 24  1  0
 24 25  2  0
 10 26  1  0
 26 27  2  0
  6 28  1  0
 28 29  1  0
 29  3  1  0
 27  7  1  0
 25 14  1  0
 23 18  1  0
  1 30  1  0
  1 31  1  0
  1 32  1  0
  2 33  1  0
  2 34  1  0
  4 35  1  0
  4 36  1  0
  5 37  1  0
  5 38  1  0
  8 39  1  0
  9 40  1  0
 11 41  1  0
 15 42  1  0
 16 43  1  0
 19 44  1  0
 20 45  1  0
 21 46  1  0
 22 47  1  0
 23 48  1  0
 24 49  1  0
 25 50  1  0
 26 51  1  0
 27 52  1  0
 28 53  1  0
 28 54  1  0
 29 55  1  0
 29 56  1  0
M  END
>  <UniqueID>  (75) 
69

>  <SMILES>  (75) 
CCN1CCN(c2ccc(NC(=O)c3ccc(-c4ccccc4)cc3)cc2)CC1

>  <Energy>  (75) 
83.24220604832595

>  <Genealogy>  (75) 
CCN1CCN(c2ccc(NC(=O)c3ccc(-c4ccccc4)cc3)cc2)CC1 (3D coordinates assigned)
CCN1CCN(c2ccc(NC(=O)c3ccc(-c4ccccc4)cc3)cc2)CC1 (nonaromatic ring conformer: 83.24220604832595 kcal/mol)

>  <smiles>  (75) 
CCN1CCN(c2ccc(NC(=O)c3ccc(-c4ccccc4)cc3)cc2)CC1

>  <score_type>  (75) 
oracle

>  <origin>  (75) 
adg

>  <m_score__min__energy>  (75) 
-6.6699999999999999

>  <m_primary>  (75) 
energy

$$$$
75:0
     RDKit          3D

 51 52  0  0  0  0  0  0  0  0999 V2000
   56.3830   33.7408   44.5447 H   0  0  0  0  0  0  0  0  0  0  0  0
   57.2500   33.2970   45.0560 C   0  0  0  0  0  0  0  0  0  0  0  0
   57.3950   31.8300   44.9880 C   0  0  0  0  0  0  0  0  0  0  0  0
   58.4910   31.2700   45.2630 O   0  0  0  0  0  0  0  0  0  0  0  0
   56.2850   31.0470   44.5400 N   0  0  0  0  0  0  0  0  0  0  0  0
   56.3860   30.0890   43.4470 C   0  0  0  0  0  0  0  0  0  0  0  0
   56.9606   30.5366   42.6227 H   0  0  0  0  0  0  0  0  0  0  0  0
   55.3747   29.8299   43.1004 H   0  0  0  0  0  0  0  0  0  0  0  0
   57.0920   28.8200   43.9250 C   0  0  0  0  0  0  0  0  0  0  0  0
   58.0553   28.7276   43.4019 H   0  0  0  0  0  0  0  0  0  0  0  0
   56.4441   27.9590   43.7042 H   0  0  0  0  0  0  0  0  0  0  0  0
   57.3350   28.8560   45.3680 N   0  0  0  0  0  0  0  0  0  0  0  0
   57.1140   29.7270   45.9000 H   0  0  0  0  0  0  0  0  0  0  0  0
   57.8090   27.6940   46.0690 C   0  0  0  0  0  0  0  0  0  0  0  0
   57.8450   26.5810   45.4770 O   0  0  0  0  0  0  0  0  0  0  0  0
   58.2270   27.7470   47.4850 C   0  0  0  0  0  0  0  0  0  0  0  0
   57.4465   27.7549   48.2601 H   0  0  0  0  0  0  0  0  0  0  0  0
   59.5100   27.7860   47.8730 C   0  0  0  0  0  0  0  0  0  0  0  0
   59.9951   26.8407   48.1577 H   0  0  0  0  0  0  0  0  0  0  0  0
   60.3130   29.0340   47.9400 C   0  0  0  0  0  0  0  0  0  0  0  0
   60.8330   29.5390   49.1460 C   0  0  0  0  0  0  0  0  0  0  0  0
   60.6389   29.0068   50.0889 H   0  0  0  0  0  0  0  0  0  0  0  0
   61.5940   30.7110   49.1560 C   0  0  0  0  0  0  0  0  0  0  0  0
   61.9877   31.0940   50.1091 H   0  0  0  0  0  0  0  0  0  0  0  0
   61.8640   31.4090   47.9620 C   0  0  0  0  0  0  0  0  0  0  0  0
   62.6540   32.6280   47.9730 N   0  0  0  0  0  0  0  0  0  0  0  0
   62.6960   33.5010   46.7930 C   0  0  0  0  0  0  0  0  0  0  0  0
   62.7465   34.5514   47.1156 H   0  0  0  0  0  0  0  0  0  0  0  0
   63.5836   33.2596   46.1897 H   0  0  0  0  0  0  0  0  0  0  0  0
   61.7894   33.3459   46.1897 H   0  0  0  0  0  0  0  0  0  0  0  0
   63.4240   33.0080   49.1640 C   0  0  0  0  0  0  0  0  0  0  0  0
   62.8619   32.7306   50.0679 H   0  0  0  0  0  0  0  0  0  0  0  0
   64.3910   32.4836   49.1582 H   0  0  0  0  0  0  0  0  0  0  0  0
   63.5960   34.0945   49.1582 H   0  0  0  0  0  0  0  0  0  0  0  0
   61.3520   30.8890   46.7570 C   0  0  0  0  0  0  0  0  0  0  0  0
   61.5520   31.4135   45.8110 H   0  0  0  0  0  0  0  0  0  0  0  0
   60.5930   29.7150   46.7480 C   0  0  0  0  0  0  0  0  0  0  0  0
   60.2113   29.3215   45.7943 H   0  0  0  0  0  0  0  0  0  0  0  0
   58.0850   34.1360   45.6880 C   0  0  0  0  0  0  0  0  0  0  0  0
   58.4055   35.0353   45.1416 H   0  0  0  0  0  0  0  0  0  0  0  0
   58.6100   33.9520   47.0580 C   0  0  0  0  0  0  0  0  0  0  0  0
   59.6110   34.7950   47.5750 C   0  0  0  0  0  0  0  0  0  0  0  0
   59.9881   35.6330   46.9704 H   0  0  0  0  0  0  0  0  0  0  0  0
   60.1280   34.5710   48.8550 C   0  0  0  0  0  0  0  0  0  0  0  0
   60.8974   35.2435   49.2621 H   0  0  0  0  0  0  0  0  0  0  0  0
   59.6680   33.4930   49.6180 C   0  0  0  0  0  0  0  0  0  0  0  0
   60.1720   33.2760   50.8570 F   0  0  0  0  0  0  0  0  0  0  0  0
   58.6970   32.6330   49.0970 C   0  0  0  0  0  0  0  0  0  0  0  0
   58.3411   31.7805   49.6941 H   0  0  0  0  0  0  0  0  0  0  0  0
   58.1770   32.8550   47.8170 C   0  0  0  0  0  0  0  0  0  0  0  0
   57.4253   32.1661   47.4043 H   0  0  0  0  0  0  0  0  0  0  0  0
  1  2  1  0
  2  3  1  0
  3  4  2  0
  3  5  1  0
  5  6  1  0
  6  7  1  0
  6  8  1  0
  6  9  1  0
  9 10  1  0
  9 11  1  0
  9 12  1  0
 12 13  1  0
 12 14  1  0
 14 15  2  0
 14 16  1  0
 16 17  1  0
 16 18  2  0
 18 19  1  0
 18 20  1  0
 20 21  2  0
 21 22  1  0
 21 23  1  0
 23 24  1  0
 23 25  2  0
 25 26  1  0
 26 27  1  0
 27 28  1  0
 27 29  1  0
 27 30  1  0
 26 31  1  0
 31 32  1  0
 31 33  1  0
 31 34  1  0
 25 35  1  0
 35 36  1  0
 35 37  2  0
 37 38  1  0
  2 39  2  3
 39 40  1  0
 39 41  1  0
 41 42  2  0
 42 43  1  0
 42 44  1  0
 44 45  1  0
 44 46  2  0
 46 47  1  0
 46 48  1  0
 48 49  1  0
 48 50  2  0
 50 51  1  0
 37 20  1  0
 50 41  1  0
M  CHG  1   5  -1
M  END
>  <UniqueID>  (76) 
70

>  <SMILES>  (76) 
CN(C)c1ccc(/C=C/C(=O)NCC[N-]C(=O)C=Cc2ccc(F)cc2)cc1

>  <Energy>  (76) 
56.63033282005297

>  <Genealogy>  (76) 
CN(C)c1ccc(C=CC(=O)NCC[N-]C(=O)C=Cc2ccc(F)cc2)cc1 (protonated)
CN(C)c1ccc(/C=C/C(=O)NCC[N-]C(=O)C=Cc2ccc(F)cc2)cc1 (cis-trans isomerization)
CN(C)c1ccc(/C=C/C(=O)NCC[N-]C(=O)C=Cc2ccc(F)cc2)cc1 (3D coordinates assigned)
CN(C)c1ccc(/C=C/C(=O)NCC[N-]C(=O)C=Cc2ccc(F)cc2)cc1 (optimized conformer: 56.63033282005297 kcal/mol)

>  <smiles>  (76) 
CN(C)c1ccc(C=CC(=O)NCCNC(=O)C=Cc2ccc(F)cc2)cc1

>  <score_type>  (76) 
oracle

>  <origin>  (76) 
adg

>  <m_score__min__energy>  (76) 
-10.119999999999999

>  <m_primary>  (76) 
energy

$$$$
76:0
     RDKit          3D

 54 56  0  0  0  0  0  0  0  0999 V2000
   55.9090   29.7450   43.0860 C   0  0  0  0  0  0  0  0  0  0  0  0
   55.8490   29.4400   44.4750 O   0  0  0  0  0  0  0  0  0  0  0  0
   56.9680   29.2050   45.2860 C   0  0  0  0  0  0  0  0  0  0  0  0
   58.0030   30.1500   45.4250 C   0  0  0  0  0  0  0  0  0  0  0  0
   59.1020   29.8790   46.2380 C   0  0  0  0  0  0  0  0  0  0  0  0
   59.1860   28.6640   46.9330 C   0  0  0  0  0  0  0  0  0  0  0  0
   60.3560   28.3800   47.8440 C   0  0  0  0  0  0  0  0  0  0  0  0
   60.0360   28.6980   49.3240 C   0  0  0  0  0  0  0  0  0  0  0  0
   60.2320   30.1270   49.6920 N   0  0  2  0  0  0  0  0  0  0  0  0
   59.1020   31.0210   49.3270 C   0  0  0  0  0  0  0  0  0  0  0  0
   59.3370   32.5210   49.6140 C   0  0  0  0  0  0  0  0  0  0  0  0
   59.6820   33.2550   48.3500 C   0  0  0  0  0  0  0  0  0  0  0  0
   60.9020   33.8620   48.0530 C   0  0  0  0  0  0  0  0  0  0  0  0
   60.8600   34.4240   46.8230 N   0  0  0  0  0  0  0  0  0  0  0  0
   59.6340   34.1720   46.3380 C   0  0  0  0  0  0  0  0  0  0  0  0
   59.1220   34.5530   45.0970 C   0  0  0  0  0  0  0  0  0  0  0  0
   57.7980   34.1860   44.7880 C   0  0  0  0  0  0  0  0  0  0  0  0
   57.0200   33.4640   45.7200 C   0  0  0  0  0  0  0  0  0  0  0  0
   57.5630   33.0940   46.9660 C   0  0  0  0  0  0  0  0  0  0  0  0
   58.8810   33.4650   47.2430 C   0  0  0  0  0  0  0  0  0  0  0  0
   61.4890   30.6290   49.1600 C   0  0  0  0  0  0  0  0  0  0  0  0
   62.6600   30.8640   50.0730 C   0  0  0  0  0  0  0  0  0  0  0  0
   61.6050   30.8790   47.9670 O   0  0  0  0  0  0  0  0  0  0  0  0
   58.1520   27.7230   46.8010 C   0  0  0  0  0  0  0  0  0  0  0  0
   57.0420   27.9860   45.9750 C   0  0  0  0  0  0  0  0  0  0  0  0
   55.9940   27.0630   45.8170 O   0  0  0  0  0  0  0  0  0  0  0  0
   56.1640   25.6510   45.7690 C   0  0  0  0  0  0  0  0  0  0  0  0
   56.1198   30.8166   42.9547 H   0  0  0  0  0  0  0  0  0  0  0  0
   56.7080   29.1537   42.6149 H   0  0  0  0  0  0  0  0  0  0  0  0
   54.9455   29.5004   42.6149 H   0  0  0  0  0  0  0  0  0  0  0  0
   57.9435   31.1083   44.8883 H   0  0  0  0  0  0  0  0  0  0  0  0
   59.9075   30.6218   46.3350 H   0  0  0  0  0  0  0  0  0  0  0  0
   60.6202   27.3155   47.7597 H   0  0  0  0  0  0  0  0  0  0  0  0
   61.1903   29.0259   47.5329 H   0  0  0  0  0  0  0  0  0  0  0  0
   58.9859   28.4323   49.5157 H   0  0  0  0  0  0  0  0  0  0  0  0
   60.7392   28.1126   49.9347 H   0  0  0  0  0  0  0  0  0  0  0  0
   60.3140   30.1730   50.7340 H   0  0  0  0  0  0  0  0  0  0  0  0
   58.9098   30.9057   48.2501 H   0  0  0  0  0  0  0  0  0  0  0  0
   58.2533   30.7167   49.9572 H   0  0  0  0  0  0  0  0  0  0  0  0
   58.4222   32.9540   50.0449 H   0  0  0  0  0  0  0  0  0  0  0  0
   60.1747   32.6192   50.3202 H   0  0  0  0  0  0  0  0  0  0  0  0
   61.7740   33.8811   48.7232 H   0  0  0  0  0  0  0  0  0  0  0  0
   61.6330   34.9430   46.3480 H   0  0  0  0  0  0  0  0  0  0  0  0
   59.7339   35.1226   44.3820 H   0  0  0  0  0  0  0  0  0  0  0  0
   57.3670   34.4633   43.8147 H   0  0  0  0  0  0  0  0  0  0  0  0
   55.9843   33.1891   45.4714 H   0  0  0  0  0  0  0  0  0  0  0  0
   56.9672   32.5300   47.6987 H   0  0  0  0  0  0  0  0  0  0  0  0
   62.3281   30.7974   51.1196 H   0  0  0  0  0  0  0  0  0  0  0  0
   63.4311   30.1027   49.8837 H   0  0  0  0  0  0  0  0  0  0  0  0
   63.0777   31.8639   49.8837 H   0  0  0  0  0  0  0  0  0  0  0  0
   58.2096   26.7706   47.3484 H   0  0  0  0  0  0  0  0  0  0  0  0
   56.2120   25.2524   46.7931 H   0  0  0  0  0  0  0  0  0  0  0  0
   55.3140   25.1972   45.2384 H   0  0  0  0  0  0  0  0  0  0  0  0
   57.0974   25.4119   45.2384 H   0  0  0  0  0  0  0  0  0  0  0  0
  1  2  1  0
  2  3  1  0
  3  4  2  0
  4  5  1  0
  5  6  2  0
  6  7  1  0
  7  8  1  0
  8  9  1  0
  9 10  1  0
 10 11  1  0
 11 12  1  0
 12 13  2  0
 13 14  1  0
 14 15  1  0
 15 16  2  0
 16 17  1  0
 17 18  2  0
 18 19  1  0
 19 20  2  0
  9 21  1  0
 21 22  1  0
 21 23  2  0
  6 24  1  0
 24 25  2  0
 25 26  1  0
 26 27  1  0
 25  3  1  0
 20 12  1  0
 20 15  1  0
  1 28  1  0
  1 29  1  0
  1 30  1  0
  4 31  1  0
  5 32  1  0
  7 33  1  0
  7 34  1  0
  8 35  1  0
  8 36  1  0
  9 37  1  1
 10 38  1  0
 10 39  1  0
 11 40  1  0
 11 41  1  0
 13 42  1  0
 14 43  1  0
 16 44  1  0
 17 45  1  0
 18 46  1  0
 19 47  1  0
 22 48  1  0
 22 49  1  0
 22 50  1  0
 24 51  1  0
 27 52  1  0
 27 53  1  0
 27 54  1  0
M  CHG  1   9   1
M  END
>  <UniqueID>  (77) 
71

>  <SMILES>  (77) 
COc1ccc(CC[N@H+](CCc2c[nH]c3ccccc23)C(C)=O)cc1OC

>  <Energy>  (77) 
89.98161306919609

>  <Genealogy>  (77) 
COc1ccc(CC[NH+](CCc2c[nH]c3ccccc23)C(C)=O)cc1OC (protonated)
COc1ccc(CC[N@H+](CCc2c[nH]c3ccccc23)C(C)=O)cc1OC (chirality)
COc1ccc(CC[N@H+](CCc2c[nH]c3ccccc23)C(C)=O)cc1OC (3D coordinates assigned)
COc1ccc(CC[N@H+](CCc2c[nH]c3ccccc23)C(C)=O)cc1OC (optimized conformer: 89.98161306919609 kcal/mol)

>  <smiles>  (77) 
COc1ccc(CCN(CCc2c[nH]c3ccccc23)C(C)=O)cc1OC

>  <score_type>  (77) 
oracle

>  <origin>  (77) 
adg

>  <m_score__min__energy>  (77) 
-7.8499999999999996

>  <m_primary>  (77) 
energy

$$$$
77:0
     RDKit          3D

 35 38  0  0  0  0  0  0  0  0999 V2000
   60.2560   30.4170   45.7520 O   0  0  0  0  0  0  0  0  0  0  0  0
   59.0350   30.2540   46.0210 C   0  0  0  0  0  0  0  0  0  0  0  0
   58.1650   31.3920   46.1330 N   0  0  0  0  0  0  0  0  0  0  0  0
   58.6460   32.7390   46.2990 C   0  0  0  0  0  0  0  0  0  0  0  0
   58.7780   33.5920   45.1870 C   0  0  0  0  0  0  0  0  0  0  0  0
   59.2720   34.8890   45.3440 C   0  0  0  0  0  0  0  0  0  0  0  0
   59.6470   35.3470   46.6090 C   0  0  0  0  0  0  0  0  0  0  0  0
   59.5330   34.5080   47.7180 C   0  0  0  0  0  0  0  0  0  0  0  0
   59.0400   33.2050   47.5710 C   0  0  0  0  0  0  0  0  0  0  0  0
   58.8950   32.1940   49.0040 Cl  0  0  0  0  0  0  0  0  0  0  0  0
   58.5140   28.8830   46.1770 C   0  0  0  0  0  0  0  0  0  0  0  0
   57.2610   28.4180   45.7680 C   0  0  0  0  0  0  0  0  0  0  0  0
   57.0640   27.0680   46.0770 C   0  0  0  0  0  0  0  0  0  0  0  0
   55.9180   26.3190   45.7990 C   0  0  0  0  0  0  0  0  0  0  0  0
   55.8710   24.9580   46.1810 C   0  0  0  0  0  0  0  0  0  0  0  0
   54.6760   24.1230   45.9050 C   0  0  0  0  0  0  0  0  0  0  0  0
   54.6000   22.7430   45.9100 C   0  0  0  0  0  0  0  0  0  0  0  0
   53.3430   22.3700   45.6120 N   0  0  0  0  0  0  0  0  0  0  0  0
   52.6920   23.5380   45.4340 C   0  0  0  0  0  0  0  0  0  0  0  0
   50.9930   23.6280   45.0200 Cl  0  0  0  0  0  0  0  0  0  0  0  0
   53.4660   24.6280   45.6030 N   0  0  0  0  0  0  0  0  0  0  0  0
   56.9900   24.3860   46.8380 C   0  0  0  0  0  0  0  0  0  0  0  0
   58.1320   25.1510   47.1120 C   0  0  0  0  0  0  0  0  0  0  0  0
   58.1420   26.4850   46.7210 C   0  0  0  0  0  0  0  0  0  0  0  0
   59.3590   27.6190   46.9250 S   0  0  0  0  0  0  0  0  0  0  0  0
   57.1390   31.2470   46.0100 H   0  0  0  0  0  0  0  0  0  0  0  0
   58.4901   33.2346   44.1873 H   0  0  0  0  0  0  0  0  0  0  0  0
   59.3658   35.5506   44.4702 H   0  0  0  0  0  0  0  0  0  0  0  0
   60.0325   36.3700   46.7311 H   0  0  0  0  0  0  0  0  0  0  0  0
   59.8316   34.8714   48.7124 H   0  0  0  0  0  0  0  0  0  0  0  0
   56.5129   29.0440   45.2596 H   0  0  0  0  0  0  0  0  0  0  0  0
   55.0612   26.7828   45.2884 H   0  0  0  0  0  0  0  0  0  0  0  0
   55.4346   22.0590   46.1237 H   0  0  0  0  0  0  0  0  0  0  0  0
   56.9613   23.3277   47.1366 H   0  0  0  0  0  0  0  0  0  0  0  0
   58.9986   24.7069   47.6236 H   0  0  0  0  0  0  0  0  0  0  0  0
  1  2  2  0
  2  3  1  0
  3  4  1  0
  4  5  2  0
  5  6  1  0
  6  7  2  0
  7  8  1  0
  8  9  2  0
  9 10  1  0
  2 11  1  0
 11 12  2  0
 12 13  1  0
 13 14  2  0
 14 15  1  0
 15 16  1  0
 16 17  2  0
 17 18  1  0
 18 19  2  0
 19 20  1  0
 19 21  1  0
 15 22  2  0
 22 23  1  0
 23 24  2  0
 24 25  1  0
  9  4  1  0
 25 11  1  0
 24 13  1  0
 21 16  1  0
  3 26  1  0
  5 27  1  0
  6 28  1  0
  7 29  1  0
  8 30  1  0
 12 31  1  0
 14 32  1  0
 17 33  1  0
 22 34  1  0
 23 35  1  0
M  CHG  1  21  -1
M  END
>  <UniqueID>  (78) 
72

>  <SMILES>  (78) 
O=C(Nc1ccccc1Cl)c1cc2cc(-c3cnc(Cl)[n-]3)ccc2s1

>  <Energy>  (78) 
104.01190799844045

>  <Genealogy>  (78) 
O=C(Nc1ccccc1Cl)c1cc2cc(-c3cnc(Cl)[n-]3)ccc2s1 (protonated)
O=C(Nc1ccccc1Cl)c1cc2cc(-c3cnc(Cl)[n-]3)ccc2s1 (3D coordinates assigned)
O=C(Nc1ccccc1Cl)c1cc2cc(-c3cnc(Cl)[n-]3)ccc2s1 (optimized conformer: 104.01190799844045 kcal/mol)

>  <smiles>  (78) 
O=C(Nc1ccccc1Cl)c1cc2cc(-c3cnc(Cl)[nH]3)ccc2s1

>  <score_type>  (78) 
oracle

>  <origin>  (78) 
adg

>  <m_score__min__energy>  (78) 
-9.5899999999999999

>  <m_primary>  (78) 
energy

$$$$
78:0
     RDKit          3D

 39 39  0  0  0  0  0  0  0  0999 V2000
   59.7450   29.9590   46.1930 C   0  0  0  0  0  0  0  0  0  0  0  0
   60.3510   30.6700   47.1470 C   0  0  0  0  0  0  0  0  0  0  0  0
   61.8410   30.8900   47.1530 C   0  0  0  0  0  0  0  0  0  0  0  0
   62.2730   31.8170   48.2980 C   0  0  0  0  0  0  0  0  0  0  0  0
   62.8180   33.1870   47.8420 C   0  0  0  0  0  0  0  0  0  0  0  0
   62.0490   33.8450   46.6820 C   0  0  0  0  0  0  0  0  0  0  0  0
   60.5950   34.1870   47.0440 C   0  0  0  0  0  0  0  0  0  0  0  0
   59.9140   35.0850   45.9960 C   0  0  0  0  0  0  0  0  0  0  0  0
   58.5530   34.5720   45.4950 C   0  0  0  0  0  0  0  0  0  0  0  0
   57.9150   33.1600   46.4710 S   0  0  0  0  0  0  0  0  0  0  0  0
   57.4110   32.1960   45.0490 C   0  0  0  0  0  0  0  0  0  0  0  0
   56.6690   31.0710   45.2190 N   0  0  0  0  0  0  0  0  0  0  0  0
   56.2800   30.3240   44.1530 C   0  0  0  0  0  0  0  0  0  0  0  0
   55.5920   29.2870   44.3330 O   0  0  0  0  0  0  0  0  0  0  0  0
   56.6480   30.7090   42.8620 C   0  0  0  0  0  0  0  0  0  0  0  0
   57.4160   31.8670   42.7050 C   0  0  0  0  0  0  0  0  0  0  0  0
   57.8380   32.3170   41.3430 C   0  0  0  0  0  0  0  0  0  0  0  0
   57.7840   32.5840   43.8000 N   0  0  0  0  0  0  0  0  0  0  0  0
   58.6543   29.8188   46.2205 H   0  0  0  0  0  0  0  0  0  0  0  0
   60.3364   29.5135   45.3796 H   0  0  0  0  0  0  0  0  0  0  0  0
   59.7438   31.1082   47.9528 H   0  0  0  0  0  0  0  0  0  0  0  0
   62.3443   29.9191   47.2711 H   0  0  0  0  0  0  0  0  0  0  0  0
   62.1214   31.3660   46.2018 H   0  0  0  0  0  0  0  0  0  0  0  0
   61.4012   31.9924   48.9455 H   0  0  0  0  0  0  0  0  0  0  0  0
   63.0992   31.3089   48.8169 H   0  0  0  0  0  0  0  0  0  0  0  0
   62.7847   33.8703   48.7034 H   0  0  0  0  0  0  0  0  0  0  0  0
   63.8355   33.0015   47.4675 H   0  0  0  0  0  0  0  0  0  0  0  0
   62.5676   34.7730   46.3992 H   0  0  0  0  0  0  0  0  0  0  0  0
   62.0208   33.1220   45.8534 H   0  0  0  0  0  0  0  0  0  0  0  0
   60.0243   33.2504   47.1281 H   0  0  0  0  0  0  0  0  0  0  0  0
   60.6122   34.7416   47.9938 H   0  0  0  0  0  0  0  0  0  0  0  0
   59.7619   36.0784   46.4432 H   0  0  0  0  0  0  0  0  0  0  0  0
   60.5806   35.1009   45.1211 H   0  0  0  0  0  0  0  0  0  0  0  0
   57.8255   35.3951   45.5531 H   0  0  0  0  0  0  0  0  0  0  0  0
   58.6946   34.2201   44.4625 H   0  0  0  0  0  0  0  0  0  0  0  0
   56.3408   30.1150   41.9887 H   0  0  0  0  0  0  0  0  0  0  0  0
   58.5877   33.1165   41.4369 H   0  0  0  0  0  0  0  0  0  0  0  0
   58.2735   31.4684   40.7950 H   0  0  0  0  0  0  0  0  0  0  0  0
   56.9632   32.6972   40.7950 H   0  0  0  0  0  0  0  0  0  0  0  0
  1  2  2  0
  2  3  1  0
  3  4  1  0
  4  5  1  0
  5  6  1  0
  6  7  1  0
  7  8  1  0
  8  9  1  0
  9 10  1  0
 10 11  1  0
 11 12  2  0
 12 13  1  0
 13 14  2  0
 13 15  1  0
 15 16  2  0
 16 17  1  0
 16 18  1  0
 18 11  1  0
  1 19  1  0
  1 20  1  0
  2 21  1  0
  3 22  1  0
  3 23  1  0
  4 24  1  0
  4 25  1  0
  5 26  1  0
  5 27  1  0
  6 28  1  0
  6 29  1  0
  7 30  1  0
  7 31  1  0
  8 32  1  0
  8 33  1  0
  9 34  1  0
  9 35  1  0
 15 36  1  0
 17 37  1  0
 17 38  1  0
 17 39  1  0
M  CHG  1  18  -1
M  END
>  <UniqueID>  (79) 
73

>  <SMILES>  (79) 
C=CCCCCCCCSc1nc(=O)cc(C)[n-]1

>  <Energy>  (79) 
22.728027538190506

>  <Genealogy>  (79) 
C=CCCCCCCCSc1nc(=O)cc(C)[n-]1 (protonated)
C=CCCCCCCCSc1nc(=O)cc(C)[n-]1 (3D coordinates assigned)
C=CCCCCCCCSc1nc(=O)cc(C)[n-]1 (optimized conformer: 22.728027538190506 kcal/mol)

>  <smiles>  (79) 
C=CCCCCCCCSc1nc(=O)cc(C)[nH]1

>  <score_type>  (79) 
oracle

>  <origin>  (79) 
adg

>  <m_score__min__energy>  (79) 
-8.2799999999999994

>  <m_primary>  (79) 
energy

$$$$
79:0
     RDKit          3D

 58 61  0  0  0  0  0  0  0  0999 V2000
   56.7670   28.3760   45.2600 C   0  0  0  0  0  0  0  0  0  0  0  0
   56.1690   29.5790   44.7930 O   0  0  0  0  0  0  0  0  0  0  0  0
   56.8470   30.5910   44.0930 C   0  0  0  0  0  0  0  0  0  0  0  0
   56.7180   30.7400   42.6980 C   0  0  0  0  0  0  0  0  0  0  0  0
   57.3540   31.7940   42.0370 C   0  0  0  0  0  0  0  0  0  0  0  0
   57.2190   31.9330   40.6950 F   0  0  0  0  0  0  0  0  0  0  0  0
   58.1170   32.7130   42.7590 C   0  0  0  0  0  0  0  0  0  0  0  0
   58.2590   32.5720   44.1400 C   0  0  0  0  0  0  0  0  0  0  0  0
   57.6550   31.5010   44.8100 C   0  0  0  0  0  0  0  0  0  0  0  0
   57.8330   31.3950   46.2290 N   0  0  0  0  0  0  0  0  0  0  0  0
   58.1790   32.4830   47.0960 C   0  0  0  0  0  0  0  0  0  0  0  0
   57.2660   33.0940   47.7140 O   0  0  0  0  0  0  0  0  0  0  0  0
   59.6480   32.7860   47.3910 C   0  0  0  0  0  0  0  0  0  0  0  0
   60.1920   33.8650   46.4920 N   0  0  0  0  0  0  0  0  0  0  0  0
   61.6610   33.9420   46.3530 C   0  0  0  0  0  0  0  0  0  0  0  0
   59.6320   35.2080   46.7570 C   0  0  0  0  0  0  0  0  0  0  0  0
   60.5200   31.4950   47.1440 C   0  0  0  0  0  0  0  0  0  0  0  0
   60.9920   30.7850   48.4190 C   0  0  0  0  0  0  0  0  0  0  0  0
   61.6740   31.7400   49.2970 N   0  0  0  0  0  0  0  0  0  0  0  0
   62.6280   31.2510   50.2470 C   0  0  0  0  0  0  0  0  0  0  0  0
   62.2630   30.3050   51.1640 N   0  0  0  0  0  0  0  0  0  0  0  0
   63.1540   29.8280   52.0910 C   0  0  0  0  0  0  0  0  0  0  0  0
   64.4380   30.2920   52.1190 N   0  0  0  0  0  0  0  0  0  0  0  0
   64.8070   31.2300   51.2150 C   0  0  0  0  0  0  0  0  0  0  0  0
   66.0270   31.7800   51.1030 N   0  0  0  0  0  0  0  0  0  0  0  0
   65.9400   32.6470   50.0680 C   0  0  0  0  0  0  0  0  0  0  0  0
   64.6520   32.6460   49.5370 C   0  0  0  0  0  0  0  0  0  0  0  0
   64.1930   33.4240   48.3470 C   0  0  0  0  0  0  0  0  0  0  0  0
   63.9410   31.7220   50.2820 C   0  0  0  0  0  0  0  0  0  0  0  0
   61.1380   33.0960   49.4680 C   0  0  0  0  0  0  0  0  0  0  0  0
   59.7180   33.1870   48.9040 C   0  0  0  0  0  0  0  0  0  0  0  0
   56.7696   28.3708   46.3600 H   0  0  0  0  0  0  0  0  0  0  0  0
   56.1927   27.5136   44.8906 H   0  0  0  0  0  0  0  0  0  0  0  0
   57.8012   28.3132   44.8906 H   0  0  0  0  0  0  0  0  0  0  0  0
   56.1126   30.0219   42.1255 H   0  0  0  0  0  0  0  0  0  0  0  0
   58.6069   33.5493   42.2389 H   0  0  0  0  0  0  0  0  0  0  0  0
   58.8495   33.3073   44.7062 H   0  0  0  0  0  0  0  0  0  0  0  0
   62.1230   33.9662   47.3510 H   0  0  0  0  0  0  0  0  0  0  0  0
   62.0238   33.0616   45.8023 H   0  0  0  0  0  0  0  0  0  0  0  0
   61.9298   34.8555   45.8023 H   0  0  0  0  0  0  0  0  0  0  0  0
   59.5647   35.3694   47.8430 H   0  0  0  0  0  0  0  0  0  0  0  0
   60.2864   35.9724   46.3125 H   0  0  0  0  0  0  0  0  0  0  0  0
   58.6284   35.2810   46.3125 H   0  0  0  0  0  0  0  0  0  0  0  0
   59.9198   30.7834   46.5581 H   0  0  0  0  0  0  0  0  0  0  0  0
   61.4281   31.8296   46.6212 H   0  0  0  0  0  0  0  0  0  0  0  0
   60.1229   30.3625   48.9445 H   0  0  0  0  0  0  0  0  0  0  0  0
   61.6899   29.9791   48.1481 H   0  0  0  0  0  0  0  0  0  0  0  0
   61.2860   29.9330   51.1620 H   0  0  0  0  0  0  0  0  0  0  0  0
   62.8322   29.0666   52.8168 H   0  0  0  0  0  0  0  0  0  0  0  0
   66.8690   31.5740   51.6840 H   0  0  0  0  0  0  0  0  0  0  0  0
   66.7703   33.2662   49.6975 H   0  0  0  0  0  0  0  0  0  0  0  0
   63.6606   34.3264   48.6820 H   0  0  0  0  0  0  0  0  0  0  0  0
   65.0638   33.7156   47.7414 H   0  0  0  0  0  0  0  0  0  0  0  0
   63.5167   32.8028   47.7414 H   0  0  0  0  0  0  0  0  0  0  0  0
   61.1185   33.3450   50.5393 H   0  0  0  0  0  0  0  0  0  0  0  0
   61.7820   33.8038   48.9255 H   0  0  0  0  0  0  0  0  0  0  0  0
   59.0661   32.5125   49.4785 H   0  0  0  0  0  0  0  0  0  0  0  0
   59.3906   34.2338   48.9884 H   0  0  0  0  0  0  0  0  0  0  0  0
  1  2  1  0
  2  3  1  0
  3  4  2  0
  4  5  1  0
  5  6  1  0
  5  7  2  0
  7  8  1  0
  8  9  2  0
  9 10  1  0
 10 11  1  0
 11 12  2  0
 11 13  1  0
 13 14  1  0
 14 15  1  0
 14 16  1  0
 13 17  1  0
 17 18  1  0
 18 19  1  0
 19 20  1  0
 20 21  2  0
 21 22  1  0
 22 23  2  0
 23 24  1  0
 24 25  1  0
 25 26  1  0
 26 27  2  0
 27 28  1  0
 27 29  1  0
 19 30  1  0
 30 31  1  0
  9  3  1  0
 31 13  1  0
 29 20  1  0
 29 24  2  0
  1 32  1  0
  1 33  1  0
  1 34  1  0
  4 35  1  0
  7 36  1  0
  8 37  1  0
 15 38  1  0
 15 39  1  0
 15 40  1  0
 16 41  1  0
 16 42  1  0
 16 43  1  0
 17 44  1  0
 17 45  1  0
 18 46  1  0
 18 47  1  0
 21 48  1  0
 22 49  1  0
 25 50  1  0
 26 51  1  0
 28 52  1  0
 28 53  1  0
 28 54  1  0
 30 55  1  0
 30 56  1  0
 31 57  1  0
 31 58  1  0
M  CHG  2  10  -1  21   1
M  END
>  <UniqueID>  (80) 
74

>  <SMILES>  (80) 
COc1cc(F)ccc1[N-]C(=O)C1(N(C)C)CCN(c2[nH+]cnc3[nH]cc(C)c23)CC1

>  <Energy>  (80) 
122.54943522634952

>  <Genealogy>  (80) 
COc1cc(F)ccc1[N-]C(=O)C1(N(C)C)CCN(c2[nH+]cnc3[nH]cc(C)c23)CC1 (protonated)
COc1cc(F)ccc1[N-]C(=O)C1(N(C)C)CCN(c2[nH+]cnc3[nH]cc(C)c23)CC1 (3D coordinates assigned)
COc1cc(F)ccc1[N-]C(=O)C1(N(C)C)CCN(c2[nH+]cnc3[nH]cc(C)c23)CC1 (nonaromatic ring conformer: 122.54943522634952 kcal/mol)

>  <smiles>  (80) 
COc1cc(F)ccc1NC(=O)C1(N(C)C)CCN(c2ncnc3[nH]cc(C)c23)CC1

>  <score_type>  (80) 
oracle

>  <origin>  (80) 
adg

>  <m_score__min__energy>  (80) 
-8.3000000000000007

>  <m_primary>  (80) 
energy

$$$$
80:0
     RDKit          3D

 50 53  0  0  0  0  0  0  0  0999 V2000
   57.5990   33.0940   47.1800 C   0  0  0  0  0  0  0  0  0  0  0  0
   58.6550   32.3090   46.9330 C   0  0  0  0  0  0  0  0  0  0  0  0
   58.7020   31.1330   46.1640 C   0  0  0  0  0  0  0  0  0  0  0  0
   57.6740   30.5850   45.4900 C   0  0  0  0  0  0  0  0  0  0  0  0
   57.2420   29.1860   45.6610 C   0  0  0  0  0  0  0  0  0  0  0  0
   56.0370   28.6420   45.2410 C   0  0  0  0  0  0  0  0  0  0  0  0
   55.0840   29.3180   44.4910 O   0  0  0  0  0  0  0  0  0  0  0  0
   55.8790   27.3610   45.6500 N   0  0  0  0  0  0  0  0  0  0  0  0
   56.9970   27.1050   46.3590 C   0  0  0  0  0  0  0  0  0  0  0  0
   57.2910   25.9270   47.0420 C   0  0  0  0  0  0  0  0  0  0  0  0
   58.4730   25.8780   47.8000 C   0  0  0  0  0  0  0  0  0  0  0  0
   59.3290   27.0050   47.8740 C   0  0  0  0  0  0  0  0  0  0  0  0
   60.5080   26.9750   48.6840 N   0  0  0  0  0  0  0  0  0  0  0  0
   60.5990   27.8390   50.1870 S   0  0  0  0  0  0  0  0  0  0  0  0
   61.8960   28.5940   50.2410 O   0  0  0  0  0  0  0  0  0  0  0  0
   60.5480   26.8860   51.3480 O   0  0  0  0  0  0  0  0  0  0  0  0
   59.2330   28.9910   50.3200 C   0  0  0  0  0  0  0  0  0  0  0  0
   59.5930   30.4030   49.8350 C   0  0  0  0  0  0  0  0  0  0  0  0
   58.9120   31.5060   50.6590 C   0  0  0  0  0  0  0  0  0  0  0  0
   57.6040   31.0070   51.2680 C   0  0  0  0  0  0  0  0  0  0  0  0
   59.0130   28.1730   47.1540 C   0  0  0  0  0  0  0  0  0  0  0  0
   57.8410   28.1860   46.3990 C   0  0  0  0  0  0  0  0  0  0  0  0
   59.9650   30.6320   46.1610 N   0  0  0  0  0  0  0  0  0  0  0  0
   60.7020   31.4610   46.9180 C   0  0  0  0  0  0  0  0  0  0  0  0
   62.0620   31.3510   47.2010 C   0  0  0  0  0  0  0  0  0  0  0  0
   62.6480   32.3340   48.0180 C   0  0  0  0  0  0  0  0  0  0  0  0
   61.8700   33.3990   48.5260 C   0  0  0  0  0  0  0  0  0  0  0  0
   62.6170   34.6180   49.5420 Cl  0  0  0  0  0  0  0  0  0  0  0  0
   60.4990   33.4870   48.2210 C   0  0  0  0  0  0  0  0  0  0  0  0
   59.9430   32.4950   47.4080 C   0  0  0  0  0  0  0  0  0  0  0  0
   57.7150   33.9910   47.8060 H   0  0  0  0  0  0  0  0  0  0  0  0
   56.6154   32.8420   46.7569 H   0  0  0  0  0  0  0  0  0  0  0  0
   57.1268   31.2148   44.7731 H   0  0  0  0  0  0  0  0  0  0  0  0
   56.6167   25.0595   46.9894 H   0  0  0  0  0  0  0  0  0  0  0  0
   58.7362   24.9569   48.3407 H   0  0  0  0  0  0  0  0  0  0  0  0
   61.4170   26.7320   48.2290 H   0  0  0  0  0  0  0  0  0  0  0  0
   58.3959   28.6144   49.7138 H   0  0  0  0  0  0  0  0  0  0  0  0
   58.9663   29.0655   51.3846 H   0  0  0  0  0  0  0  0  0  0  0  0
   60.6830   30.5324   49.9072 H   0  0  0  0  0  0  0  0  0  0  0  0
   59.2392   30.4976   48.7978 H   0  0  0  0  0  0  0  0  0  0  0  0
   59.5883   31.8201   51.4677 H   0  0  0  0  0  0  0  0  0  0  0  0
   58.6876   32.3523   49.9931 H   0  0  0  0  0  0  0  0  0  0  0  0
   57.6764   31.0346   52.3653 H   0  0  0  0  0  0  0  0  0  0  0  0
   56.7765   31.6526   50.9388 H   0  0  0  0  0  0  0  0  0  0  0  0
   57.4167   29.9743   50.9388 H   0  0  0  0  0  0  0  0  0  0  0  0
   59.6734   29.0521   47.1863 H   0  0  0  0  0  0  0  0  0  0  0  0
   60.3230   29.7960   45.6470 H   0  0  0  0  0  0  0  0  0  0  0  0
   62.6592   30.5201   46.7974 H   0  0  0  0  0  0  0  0  0  0  0  0
   63.7186   32.2737   48.2633 H   0  0  0  0  0  0  0  0  0  0  0  0
   59.8836   34.3113   48.6105 H   0  0  0  0  0  0  0  0  0  0  0  0
  1  2  2  0
  2  3  1  0
  3  4  2  3
  4  5  1  0
  5  6  2  0
  6  7  1  0
  6  8  1  0
  8  9  1  0
  9 10  2  0
 10 11  1  0
 11 12  2  0
 12 13  1  0
 13 14  1  0
 14 15  2  0
 14 16  2  0
 14 17  1  0
 17 18  1  0
 18 19  1  0
 19 20  1  0
 12 21  1  0
 21 22  2  0
  3 23  1  0
 23 24  1  0
 24 25  2  0
 25 26  1  0
 26 27  2  0
 27 28  1  0
 27 29  1  0
 29 30  2  0
 30  2  1  0
 22  5  1  0
 30 24  1  0
 22  9  1  0
  1 31  1  0
  1 32  1  0
  4 33  1  0
 10 34  1  0
 11 35  1  0
 13 36  1  0
 17 37  1  0
 17 38  1  0
 18 39  1  0
 18 40  1  0
 19 41  1  0
 19 42  1  0
 20 43  1  0
 20 44  1  0
 20 45  1  0
 21 46  1  0
 23 47  1  0
 25 48  1  0
 26 49  1  0
 29 50  1  0
M  CHG  2   7  -1   8  -1
M  END
>  <UniqueID>  (81) 
75

>  <SMILES>  (81) 
C=c1c(=Cc2c([O-])[n-]c3ccc(NS(=O)(=O)CCCC)cc23)[nH]c2ccc(Cl)cc12

>  <Energy>  (81) 
121.8103455064719

>  <Genealogy>  (81) 
C=c1c(=Cc2c([O-])[n-]c3ccc(NS(=O)(=O)CCCC)cc23)[nH]c2ccc(Cl)cc12 (protonated)
C=c1c(=Cc2c([O-])[n-]c3ccc(NS(=O)(=O)CCCC)cc23)[nH]c2ccc(Cl)cc12 (3D coordinates assigned)
C=c1c(=Cc2c([O-])[n-]c3ccc(NS(=O)(=O)CCCC)cc23)[nH]c2ccc(Cl)cc12 (optimized conformer: 121.8103455064719 kcal/mol)

>  <smiles>  (81) 
C=c1c(=Cc2c(O)[nH]c3ccc(NS(=O)(=O)CCCC)cc23)[nH]c2ccc(Cl)cc12

>  <score_type>  (81) 
oracle

>  <origin>  (81) 
adg

>  <m_score__min__energy>  (81) 
-13.34

>  <m_primary>  (81) 
energy

$$$$
81:0
     RDKit          3D

 45 47  0  0  0  0  0  0  0  0999 V2000
   57.3460   26.3310   46.4730 O   0  0  0  0  0  0  0  0  0  0  0  0
   56.4870   27.1090   45.9780 C   0  0  0  0  0  0  0  0  0  0  0  0
   55.1480   26.7360   45.9970 O   0  0  0  0  0  0  0  0  0  0  0  0
   56.8970   28.3980   45.3790 C   0  0  0  0  0  0  0  0  0  0  0  0
   55.9620   29.2100   44.7150 C   0  0  0  0  0  0  0  0  0  0  0  0
   56.3520   30.4330   44.1630 C   0  0  0  0  0  0  0  0  0  0  0  0
   57.6790   30.8790   44.2780 C   0  0  0  0  0  0  0  0  0  0  0  0
   58.0920   32.2150   43.6840 C   0  0  0  0  0  0  0  0  0  0  0  0
   57.9160   33.3790   44.5930 N   0  0  0  0  0  0  0  0  0  0  0  0
   59.0250   34.3710   44.5050 C   0  0  0  0  0  0  0  0  0  0  0  0
   59.9650   34.2990   45.7170 C   0  0  0  0  0  0  0  0  0  0  0  0
   59.2310   34.5680   46.9740 N   0  0  0  0  0  0  0  0  0  0  0  0
   59.9920   34.2100   48.1940 C   0  0  0  0  0  0  0  0  0  0  0  0
   61.1850   33.3110   47.9350 C   0  0  0  0  0  0  0  0  0  0  0  0
   60.9980   31.9350   47.7050 C   0  0  0  0  0  0  0  0  0  0  0  0
   62.0930   31.1010   47.4720 C   0  0  0  0  0  0  0  0  0  0  0  0
   63.3860   31.6290   47.4590 C   0  0  0  0  0  0  0  0  0  0  0  0
   63.5830   32.9970   47.6670 C   0  0  0  0  0  0  0  0  0  0  0  0
   62.4890   33.8370   47.8930 C   0  0  0  0  0  0  0  0  0  0  0  0
   57.8180   34.1150   46.9750 C   0  0  0  0  0  0  0  0  0  0  0  0
   57.5880   32.9670   45.9850 C   0  0  0  0  0  0  0  0  0  0  0  0
   58.6210   30.0490   44.9070 C   0  0  0  0  0  0  0  0  0  0  0  0
   58.2320   28.8270   45.4630 C   0  0  0  0  0  0  0  0  0  0  0  0
   54.9160   28.8807   44.6292 H   0  0  0  0  0  0  0  0  0  0  0  0
   55.6130   31.0522   43.6335 H   0  0  0  0  0  0  0  0  0  0  0  0
   59.1549   32.1534   43.4076 H   0  0  0  0  0  0  0  0  0  0  0  0
   57.4309   32.3902   42.8224 H   0  0  0  0  0  0  0  0  0  0  0  0
   57.0640   33.8730   44.2360 H   0  0  0  0  0  0  0  0  0  0  0  0
   59.6069   34.1718   43.5930 H   0  0  0  0  0  0  0  0  0  0  0  0
   58.5783   35.3760   44.4833 H   0  0  0  0  0  0  0  0  0  0  0  0
   60.4098   33.2943   45.7681 H   0  0  0  0  0  0  0  0  0  0  0  0
   60.7487   35.0617   45.5986 H   0  0  0  0  0  0  0  0  0  0  0  0
   60.3532   35.1381   48.6611 H   0  0  0  0  0  0  0  0  0  0  0  0
   59.3052   33.6480   48.8440 H   0  0  0  0  0  0  0  0  0  0  0  0
   59.9818   31.5138   47.7089 H   0  0  0  0  0  0  0  0  0  0  0  0
   61.9372   30.0260   47.2983 H   0  0  0  0  0  0  0  0  0  0  0  0
   64.2485   30.9688   47.2852 H   0  0  0  0  0  0  0  0  0  0  0  0
   64.6011   33.4134   47.6528 H   0  0  0  0  0  0  0  0  0  0  0  0
   62.6486   34.9155   48.0389 H   0  0  0  0  0  0  0  0  0  0  0  0
   57.5549   33.7713   47.9863 H   0  0  0  0  0  0  0  0  0  0  0  0
   57.1868   34.9623   46.6690 H   0  0  0  0  0  0  0  0  0  0  0  0
   58.2270   32.1172   46.2671 H   0  0  0  0  0  0  0  0  0  0  0  0
   56.5256   32.6844   46.0221 H   0  0  0  0  0  0  0  0  0  0  0  0
   59.6737   30.3631   44.9626 H   0  0  0  0  0  0  0  0  0  0  0  0
   58.9770   28.1964   45.9702 H   0  0  0  0  0  0  0  0  0  0  0  0
  1  2  2  0
  2  3  1  0
  2  4  1  0
  4  5  2  0
  5  6  1  0
  6  7  2  0
  7  8  1  0
  8  9  1  0
  9 10  1  0
 10 11  1  0
 11 12  1  0
 12 13  1  0
 13 14  1  0
 14 15  2  0
 15 16  1  0
 16 17  2  0
 17 18  1  0
 18 19  2  0
 12 20  1  0
 20 21  1  0
  7 22  1  0
 22 23  2  0
 23  4  1  0
 21  9  1  0
 19 14  1  0
  5 24  1  0
  6 25  1  0
  8 26  1  0
  8 27  1  0
  9 28  1  0
 10 29  1  0
 10 30  1  0
 11 31  1  0
 11 32  1  0
 13 33  1  0
 13 34  1  0
 15 35  1  0
 16 36  1  0
 17 37  1  0
 18 38  1  0
 19 39  1  0
 20 40  1  0
 20 41  1  0
 21 42  1  0
 21 43  1  0
 22 44  1  0
 23 45  1  0
M  CHG  2   3  -1   9   1
M  END
>  <UniqueID>  (82) 
76

>  <SMILES>  (82) 
O=C([O-])c1ccc(C[NH+]2CCN(Cc3ccccc3)CC2)cc1

>  <Energy>  (82) 
62.00446052552804

>  <Genealogy>  (82) 
O=C([O-])c1ccc(C[NH+]2CCN(Cc3ccccc3)CC2)cc1 (protonated)
O=C([O-])c1ccc(C[NH+]2CCN(Cc3ccccc3)CC2)cc1 (3D coordinates assigned)
O=C([O-])c1ccc(C[NH+]2CCN(Cc3ccccc3)CC2)cc1 (nonaromatic ring conformer: 62.00446052552804 kcal/mol)

>  <smiles>  (82) 
O=C(O)c1ccc(CN2CCN(Cc3ccccc3)CC2)cc1

>  <score_type>  (82) 
oracle

>  <origin>  (82) 
adg

>  <m_score__min__energy>  (82) 
-9.4299999999999997

>  <m_primary>  (82) 
energy

$$$$
82:0
     RDKit          3D

 57 59  0  0  0  0  0  0  0  0999 V2000
   60.5140   27.9200   49.1870 C   0  0  0  0  0  0  0  0  0  0  0  0
   60.8220   29.3440   48.8310 C   0  0  0  0  0  0  0  0  0  0  0  0
   61.2140   30.2570   49.8230 C   0  0  0  0  0  0  0  0  0  0  0  0
   61.5310   31.5750   49.4810 C   0  0  0  0  0  0  0  0  0  0  0  0
   61.4750   31.9900   48.1450 C   0  0  0  0  0  0  0  0  0  0  0  0
   61.8590   33.6590   47.7370 S   0  0  0  0  0  0  0  0  0  0  0  0
   62.6230   33.7060   46.4430 O   0  0  0  0  0  0  0  0  0  0  0  0
   62.7240   34.2300   48.8260 O   0  0  0  0  0  0  0  0  0  0  0  0
   60.3720   34.5770   47.6080 N   0  0  0  0  0  0  0  0  0  0  0  0
   59.2320   33.9040   48.2810 C   0  0  0  0  0  0  0  0  0  0  0  0
   58.0930   33.4930   47.3280 C   0  0  0  0  0  0  0  0  0  0  0  0
   58.6760   32.8580   46.0610 C   0  0  0  0  0  0  0  0  0  0  0  0
   57.5710   32.3600   45.1530 C   0  0  0  0  0  0  0  0  0  0  0  0
   57.0440   33.1560   44.3320 O   0  0  0  0  0  0  0  0  0  0  0  0
   57.0460   31.0280   45.2540 N   0  0  0  0  0  0  0  0  0  0  0  0
   57.8180   29.8200   45.2550 C   0  0  0  0  0  0  0  0  0  0  0  0
   58.9930   29.7590   44.5010 C   0  0  0  0  0  0  0  0  0  0  0  0
   59.7350   28.5770   44.4490 C   0  0  0  0  0  0  0  0  0  0  0  0
   59.3130   27.4530   45.1640 C   0  0  0  0  0  0  0  0  0  0  0  0
   58.1580   27.5090   45.9610 C   0  0  0  0  0  0  0  0  0  0  0  0
   57.7070   26.3450   46.6770 N   0  0  0  0  0  0  0  0  0  0  0  0
   58.4530   25.8640   47.8390 C   0  0  0  0  0  0  0  0  0  0  0  0
   56.2990   25.4660   46.1530 S   0  0  0  0  0  0  0  0  0  0  0  0
   56.6220   24.6800   44.5900 C   0  0  0  0  0  0  0  0  0  0  0  0
   55.1330   26.4030   46.0130 O   0  0  0  0  0  0  0  0  0  0  0  0
   55.9560   24.4210   47.1780 O   0  0  0  0  0  0  0  0  0  0  0  0
   57.4250   28.7070   46.0170 C   0  0  0  0  0  0  0  0  0  0  0  0
   59.6180   33.8410   45.3240 C   0  0  0  0  0  0  0  0  0  0  0  0
   60.1050   34.9980   46.2190 C   0  0  0  0  0  0  0  0  0  0  0  0
   61.1000   31.0760   47.1500 C   0  0  0  0  0  0  0  0  0  0  0  0
   60.7800   29.7580   47.4920 C   0  0  0  0  0  0  0  0  0  0  0  0
   60.4907   27.8125   50.2815 H   0  0  0  0  0  0  0  0  0  0  0  0
   59.5348   27.6414   48.7703 H   0  0  0  0  0  0  0  0  0  0  0  0
   61.2905   27.2617   48.7703 H   0  0  0  0  0  0  0  0  0  0  0  0
   61.2719   29.9342   50.8730 H   0  0  0  0  0  0  0  0  0  0  0  0
   61.8255   32.2887   50.2645 H   0  0  0  0  0  0  0  0  0  0  0  0
   59.6100   32.9986   48.7784 H   0  0  0  0  0  0  0  0  0  0  0  0
   58.8070   34.6311   48.9885 H   0  0  0  0  0  0  0  0  0  0  0  0
   57.4397   32.7661   47.8327 H   0  0  0  0  0  0  0  0  0  0  0  0
   57.5127   34.3856   47.0514 H   0  0  0  0  0  0  0  0  0  0  0  0
   59.2807   31.9895   46.3610 H   0  0  0  0  0  0  0  0  0  0  0  0
   59.3348   30.6453   43.9464 H   0  0  0  0  0  0  0  0  0  0  0  0
   60.6528   28.5307   43.8444 H   0  0  0  0  0  0  0  0  0  0  0  0
   59.8893   26.5181   45.1022 H   0  0  0  0  0  0  0  0  0  0  0  0
   57.9474   26.1900   48.7599 H   0  0  0  0  0  0  0  0  0  0  0  0
   58.4997   24.7652   47.8156 H   0  0  0  0  0  0  0  0  0  0  0  0
   59.4731   26.2749   47.8156 H   0  0  0  0  0  0  0  0  0  0  0  0
   57.0349   23.6753   44.7632 H   0  0  0  0  0  0  0  0  0  0  0  0
   55.6847   24.5980   44.0202 H   0  0  0  0  0  0  0  0  0  0  0  0
   57.3461   25.2808   44.0202 H   0  0  0  0  0  0  0  0  0  0  0  0
   56.5368   28.7736   46.6624 H   0  0  0  0  0  0  0  0  0  0  0  0
   60.4953   33.2827   44.9653 H   0  0  0  0  0  0  0  0  0  0  0  0
   59.0458   34.2852   44.4962 H   0  0  0  0  0  0  0  0  0  0  0  0
   61.0328   35.4058   45.7914 H   0  0  0  0  0  0  0  0  0  0  0  0
   59.3033   35.7505   46.2507 H   0  0  0  0  0  0  0  0  0  0  0  0
   61.0574   31.3961   46.0985 H   0  0  0  0  0  0  0  0  0  0  0  0
   60.4940   29.0428   46.7067 H   0  0  0  0  0  0  0  0  0  0  0  0
  1  2  1  0
  2  3  2  0
  3  4  1  0
  4  5  2  0
  5  6  1  0
  6  7  2  0
  6  8  2  0
  6  9  1  0
  9 10  1  0
 10 11  1  0
 11 12  1  0
 12 13  1  0
 13 14  2  0
 13 15  1  0
 15 16  1  0
 16 17  2  0
 17 18  1  0
 18 19  2  0
 19 20  1  0
 20 21  1  0
 21 22  1  0
 21 23  1  0
 23 24  1  0
 23 25  2  0
 23 26  2  0
 20 27  2  0
 12 28  1  0
 28 29  1  0
  5 30  1  0
 30 31  2  0
 31  2  1  0
 29  9  1  0
 27 16  1  0
  1 32  1  0
  1 33  1  0
  1 34  1  0
  3 35  1  0
  4 36  1  0
 10 37  1  0
 10 38  1  0
 11 39  1  0
 11 40  1  0
 12 41  1  0
 17 42  1  0
 18 43  1  0
 19 44  1  0
 22 45  1  0
 22 46  1  0
 22 47  1  0
 24 48  1  0
 24 49  1  0
 24 50  1  0
 27 51  1  0
 28 52  1  0
 28 53  1  0
 29 54  1  0
 29 55  1  0
 30 56  1  0
 31 57  1  0
M  CHG  1  15  -1
M  END
>  <UniqueID>  (83) 
77

>  <SMILES>  (83) 
Cc1ccc(S(=O)(=O)N2CCC(C(=O)[N-]c3cccc(N(C)S(C)(=O)=O)c3)CC2)cc1

>  <Energy>  (83) 
68.31540980991728

>  <Genealogy>  (83) 
Cc1ccc(S(=O)(=O)N2CCC(C(=O)[N-]c3cccc(N(C)S(C)(=O)=O)c3)CC2)cc1 (protonated)
Cc1ccc(S(=O)(=O)N2CCC(C(=O)[N-]c3cccc(N(C)S(C)(=O)=O)c3)CC2)cc1 (3D coordinates assigned)
Cc1ccc(S(=O)(=O)N2CCC(C(=O)[N-]c3cccc(N(C)S(C)(=O)=O)c3)CC2)cc1 (nonaromatic ring conformer: 68.31540980991728 kcal/mol)

>  <smiles>  (83) 
Cc1ccc(S(=O)(=O)N2CCC(C(=O)Nc3cccc(N(C)S(C)(=O)=O)c3)CC2)cc1

>  <score_type>  (83) 
oracle

>  <origin>  (83) 
adg

>  <m_score__min__energy>  (83) 
-11.779999999999999

>  <m_primary>  (83) 
energy

$$$$
83:0
     RDKit          3D

 46 49  0  0  0  0  0  0  0  0999 V2000
   59.8372   22.0615   44.9603 H   0  0  0  0  0  0  0  0  0  0  0  0
   58.8720   22.5370   45.1890 C   0  0  0  0  0  0  0  0  0  0  0  0
   58.7590   23.8940   45.1600 N   0  0  0  0  0  0  0  0  0  0  0  0
   57.5830   24.5160   45.4380 C   0  0  0  0  0  0  0  0  0  0  0  0
   57.5030   25.8710   45.4010 N   0  0  0  0  0  0  0  0  0  0  0  0
   56.3360   26.5110   45.6820 C   0  0  0  0  0  0  0  0  0  0  0  0
   56.2940   27.8100   45.6200 N   0  0  0  0  0  0  0  0  0  0  0  0
   57.3980   28.6910   45.8800 C   0  0  0  0  0  0  0  0  0  0  0  0
   58.3930   28.2730   46.7690 C   0  0  0  0  0  0  0  0  0  0  0  0
   58.3124   27.2891   47.2541 H   0  0  0  0  0  0  0  0  0  0  0  0
   59.4870   29.0930   47.0460 C   0  0  0  0  0  0  0  0  0  0  0  0
   60.2658   28.7494   47.7427 H   0  0  0  0  0  0  0  0  0  0  0  0
   59.5990   30.3530   46.4410 C   0  0  0  0  0  0  0  0  0  0  0  0
   60.7910   31.2340   46.7290 C   0  0  0  0  0  0  0  0  0  0  0  0
   61.4787   30.6825   47.3870 H   0  0  0  0  0  0  0  0  0  0  0  0
   61.2456   31.4844   45.7591 H   0  0  0  0  0  0  0  0  0  0  0  0
   60.4440   32.5140   47.3850 N   0  0  0  0  0  0  0  0  0  0  0  0
   59.2370   32.4980   48.2360 C   0  0  0  0  0  0  0  0  0  0  0  0
   59.0310   31.4603   48.5372 H   0  0  0  0  0  0  0  0  0  0  0  0
   59.4329   33.1396   49.1077 H   0  0  0  0  0  0  0  0  0  0  0  0
   58.0020   33.0560   47.5120 C   0  0  0  0  0  0  0  0  0  0  0  0
   57.7131   32.3650   46.7064 H   0  0  0  0  0  0  0  0  0  0  0  0
   57.1830   33.1592   48.2390 H   0  0  0  0  0  0  0  0  0  0  0  0
   58.2780   34.3230   46.9580 O   0  0  0  0  0  0  0  0  0  0  0  0
   59.2580   34.1870   45.9510 C   0  0  0  0  0  0  0  0  0  0  0  0
   58.9183   33.4442   45.2142 H   0  0  0  0  0  0  0  0  0  0  0  0
   59.4063   35.1636   45.4671 H   0  0  0  0  0  0  0  0  0  0  0  0
   60.5930   33.7260   46.5530 C   0  0  0  0  0  0  0  0  0  0  0  0
   61.2942   33.5088   45.7338 H   0  0  0  0  0  0  0  0  0  0  0  0
   60.9677   34.5337   47.1989 H   0  0  0  0  0  0  0  0  0  0  0  0
   58.5710   30.8030   45.5980 C   0  0  0  0  0  0  0  0  0  0  0  0
   58.6320   31.8074   45.1535 H   0  0  0  0  0  0  0  0  0  0  0  0
   57.4610   29.9810   45.3150 C   0  0  0  0  0  0  0  0  0  0  0  0
   56.4050   30.4200   44.4990 O   0  0  0  0  0  0  0  0  0  0  0  0
   56.2660   30.1070   43.1170 C   0  0  0  0  0  0  0  0  0  0  0  0
   55.8216   29.1064   43.0106 H   0  0  0  0  0  0  0  0  0  0  0  0
   55.6136   30.8509   42.6364 H   0  0  0  0  0  0  0  0  0  0  0  0
   57.2553   30.1219   42.6364 H   0  0  0  0  0  0  0  0  0  0  0  0
   55.2230   25.7870   45.9880 N   0  0  0  0  0  0  0  0  0  0  0  0
   55.2540   24.4290   46.0390 C   0  0  0  0  0  0  0  0  0  0  0  0
   54.3458   23.8643   46.2963 H   0  0  0  0  0  0  0  0  0  0  0  0
   56.4450   23.7550   45.7630 C   0  0  0  0  0  0  0  0  0  0  0  0
   56.5420   22.3590   45.7990 C   0  0  0  0  0  0  0  0  0  0  0  0
   55.6630   21.7488   46.0538 H   0  0  0  0  0  0  0  0  0  0  0  0
   57.7630   21.7470   45.5090 C   0  0  0  0  0  0  0  0  0  0  0  0
   57.8522   20.6509   45.5320 H   0  0  0  0  0  0  0  0  0  0  0  0
  1  2  1  0
  2  3  2  0
  3  4  1  0
  4  5  2  0
  5  6  1  0
  6  7  2  0
  7  8  1  0
  8  9  2  0
  9 10  1  0
  9 11  1  0
 11 12  1  0
 11 13  2  0
 13 14  1  0
 14 15  1  0
 14 16  1  0
 14 17  1  0
 17 18  1  0
 18 19  1  0
 18 20  1  0
 18 21  1  0
 21 22  1  0
 21 23  1  0
 21 24  1  0
 24 25  1  0
 25 26  1  0
 25 27  1  0
 25 28  1  0
 28 29  1  0
 28 30  1  0
 13 31  1  0
 31 32  1  0
 31 33  2  0
 33 34  1  0
 34 35  1  0
 35 36  1  0
 35 37  1  0
 35 38  1  0
  6 39  1  0
 39 40  1  0
 40 41  1  0
 40 42  2  0
 42 43  1  0
 43 44  1  0
 43 45  2  0
 45 46  1  0
 45  2  1  0
 42  4  1  0
 33  8  1  0
 28 17  1  0
M  CHG  1  39  -1
M  END
>  <UniqueID>  (84) 
78

>  <SMILES>  (84) 
COc1cc(CN2CCOCC2)ccc1/N=c1/nc2ncccc2c[n-]1

>  <Energy>  (84) 
69.67422702006118

>  <Genealogy>  (84) 
COc1cc(CN2CCOCC2)ccc1N=c1nc2ncccc2c[n-]1 (protonated)
COc1cc(CN2CCOCC2)ccc1/N=c1/nc2ncccc2c[n-]1 (cis-trans isomerization)
COc1cc(CN2CCOCC2)ccc1/N=c1/nc2ncccc2c[n-]1 (3D coordinates assigned)
COc1cc(CN2CCOCC2)ccc1/N=c1/nc2ncccc2c[n-]1 (nonaromatic ring conformer: 69.67422702006118 kcal/mol)

>  <smiles>  (84) 
COc1cc(CN2CCOCC2)ccc1N=c1nc2ncccc2c[nH]1

>  <score_type>  (84) 
oracle

>  <origin>  (84) 
adg

>  <m_score__min__energy>  (84) 
-9.5299999999999994

>  <m_primary>  (84) 
energy

$$$$
84:0
     RDKit          3D

 50 52  0  0  0  0  0  0  0  0999 V2000
   60.2310   30.0850   49.6300 C   0  0  0  0  0  0  0  0  0  0  0  0
   60.2480   30.8470   48.4280 O   0  0  0  0  0  0  0  0  0  0  0  0
   61.2840   31.7150   48.0460 C   0  0  0  0  0  0  0  0  0  0  0  0
   62.4950   31.2290   47.5100 C   0  0  0  0  0  0  0  0  0  0  0  0
   63.5110   32.1120   47.1410 C   0  0  0  0  0  0  0  0  0  0  0  0
   63.3380   33.4850   47.3010 C   0  0  0  0  0  0  0  0  0  0  0  0
   62.1470   33.9830   47.8310 C   0  0  0  0  0  0  0  0  0  0  0  0
   61.1100   33.1090   48.2010 C   0  0  0  0  0  0  0  0  0  0  0  0
   59.8310   33.6870   48.7600 C   0  0  0  0  0  0  0  0  0  0  0  0
   59.2640   34.6620   47.8330 N   0  0  0  0  0  0  0  0  0  0  0  0
   59.2390   34.4890   46.4110 C   0  0  0  0  0  0  0  0  0  0  0  0
   59.7930   35.3420   45.6660 O   0  0  0  0  0  0  0  0  0  0  0  0
   58.5640   33.3110   45.8180 C   0  0  0  0  0  0  0  0  0  0  0  0
   58.0580   33.3620   44.5070 C   0  0  0  0  0  0  0  0  0  0  0  0
   57.4130   32.2520   43.9520 C   0  0  0  0  0  0  0  0  0  0  0  0
   57.2740   31.0730   44.6940 C   0  0  0  0  0  0  0  0  0  0  0  0
   56.4040   29.6990   44.0190 S   0  0  0  0  0  0  0  0  0  0  0  0
   55.1710   29.4340   44.8360 O   0  0  0  0  0  0  0  0  0  0  0  0
   55.9840   29.9950   42.6040 O   0  0  0  0  0  0  0  0  0  0  0  0
   57.4130   28.2920   44.0440 N   0  0  0  0  0  0  0  0  0  0  0  0
   58.0930   27.9000   45.2340 C   0  0  0  0  0  0  0  0  0  0  0  0
   59.4320   28.2700   45.4140 C   0  0  0  0  0  0  0  0  0  0  0  0
   60.1120   27.9020   46.5780 C   0  0  0  0  0  0  0  0  0  0  0  0
   59.4580   27.1600   47.5650 C   0  0  0  0  0  0  0  0  0  0  0  0
   58.1240   26.7790   47.3890 C   0  0  0  0  0  0  0  0  0  0  0  0
   57.4300   27.1430   46.2160 C   0  0  0  0  0  0  0  0  0  0  0  0
   56.0940   26.7710   45.9960 O   0  0  0  0  0  0  0  0  0  0  0  0
   55.6690   25.4630   45.6290 C   0  0  0  0  0  0  0  0  0  0  0  0
   57.7760   31.0140   46.0010 C   0  0  0  0  0  0  0  0  0  0  0  0
   58.4160   32.1230   46.5600 C   0  0  0  0  0  0  0  0  0  0  0  0
   60.2462   30.7643   50.4950 H   0  0  0  0  0  0  0  0  0  0  0  0
   59.3189   29.4709   49.6620 H   0  0  0  0  0  0  0  0  0  0  0  0
   61.1148   29.4308   49.6620 H   0  0  0  0  0  0  0  0  0  0  0  0
   62.6396   30.1461   47.3819 H   0  0  0  0  0  0  0  0  0  0  0  0
   64.4509   31.7227   46.7227 H   0  0  0  0  0  0  0  0  0  0  0  0
   64.1413   34.1775   47.0092 H   0  0  0  0  0  0  0  0  0  0  0  0
   62.0186   35.0678   47.9602 H   0  0  0  0  0  0  0  0  0  0  0  0
   59.1062   32.8752   48.9200 H   0  0  0  0  0  0  0  0  0  0  0  0
   60.0536   34.1891   49.7131 H   0  0  0  0  0  0  0  0  0  0  0  0
   58.1703   34.2815   43.9137 H   0  0  0  0  0  0  0  0  0  0  0  0
   57.0134   32.3056   42.9286 H   0  0  0  0  0  0  0  0  0  0  0  0
   59.9496   28.8518   44.6370 H   0  0  0  0  0  0  0  0  0  0  0  0
   61.1626   28.1966   46.7173 H   0  0  0  0  0  0  0  0  0  0  0  0
   59.9937   26.8749   48.4825 H   0  0  0  0  0  0  0  0  0  0  0  0
   57.6140   26.1934   48.1680 H   0  0  0  0  0  0  0  0  0  0  0  0
   55.4769   24.8718   46.5365 H   0  0  0  0  0  0  0  0  0  0  0  0
   54.7466   25.5308   45.0335 H   0  0  0  0  0  0  0  0  0  0  0  0
   56.4550   24.9757   45.0335 H   0  0  0  0  0  0  0  0  0  0  0  0
   57.6657   30.0910   46.5891 H   0  0  0  0  0  0  0  0  0  0  0  0
   58.8070   32.0680   47.5867 H   0  0  0  0  0  0  0  0  0  0  0  0
  1  2  1  0
  2  3  1  0
  3  4  2  0
  4  5  1  0
  5  6  2  0
  6  7  1  0
  7  8  2  0
  8  9  1  0
  9 10  1  0
 10 11  1  0
 11 12  2  0
 11 13  1  0
 13 14  2  0
 14 15  1  0
 15 16  2  0
 16 17  1  0
 17 18  2  0
 17 19  2  0
 17 20  1  0
 20 21  1  0
 21 22  2  0
 22 23  1  0
 23 24  2  0
 24 25  1  0
 25 26  2  0
 26 27  1  0
 27 28  1  0
 16 29  1  0
 29 30  2  0
  8  3  1  0
 30 13  1  0
 26 21  1  0
  1 31  1  0
  1 32  1  0
  1 33  1  0
  4 34  1  0
  5 35  1  0
  6 36  1  0
  7 37  1  0
  9 38  1  0
  9 39  1  0
 14 40  1  0
 15 41  1  0
 22 42  1  0
 23 43  1  0
 24 44  1  0
 25 45  1  0
 28 46  1  0
 28 47  1  0
 28 48  1  0
 29 49  1  0
 30 50  1  0
M  CHG  2  10  -1  20  -1
M  END
>  <UniqueID>  (85) 
79

>  <SMILES>  (85) 
COc1ccccc1C[N-]C(=O)c1ccc(S(=O)(=O)[N-]c2ccccc2OC)cc1

>  <Energy>  (85) 
58.71167058349112

>  <Genealogy>  (85) 
COc1ccccc1C[N-]C(=O)c1ccc(S(=O)(=O)[N-]c2ccccc2OC)cc1 (protonated)
COc1ccccc1C[N-]C(=O)c1ccc(S(=O)(=O)[N-]c2ccccc2OC)cc1 (3D coordinates assigned)
COc1ccccc1C[N-]C(=O)c1ccc(S(=O)(=O)[N-]c2ccccc2OC)cc1 (optimized conformer: 58.71167058349112 kcal/mol)

>  <smiles>  (85) 
COc1ccccc1CNC(=O)c1ccc(S(=O)(=O)Nc2ccccc2OC)cc1

>  <score_type>  (85) 
oracle

>  <origin>  (85) 
adg

>  <m_score__min__energy>  (85) 
-12.380000000000001

>  <m_primary>  (85) 
energy

$$$$
85:0
     RDKit          3D

 33 35  0  0  0  0  0  0  0  0999 V2000
   61.1610   28.5820   44.8120 C   0  0  0  0  0  0  0  0  0  0  0  0
   59.6750   28.7880   44.8850 C   0  0  0  0  0  0  0  0  0  0  0  0
   59.1720   29.9870   44.4920 N   0  0  0  0  0  0  0  0  0  0  0  0
   57.8680   30.2710   44.5200 N   0  0  0  0  0  0  0  0  0  0  0  0
   57.4410   31.5890   44.0360 C   0  0  0  0  0  0  0  0  0  0  0  0
   57.9620   32.6680   44.9470 C   0  0  0  0  0  0  0  0  0  0  0  0
   58.8650   33.6260   44.4580 C   0  0  0  0  0  0  0  0  0  0  0  0
   59.3270   34.6490   45.2920 C   0  0  0  0  0  0  0  0  0  0  0  0
   58.8870   34.7260   46.6160 C   0  0  0  0  0  0  0  0  0  0  0  0
   57.9820   33.7820   47.1070 C   0  0  0  0  0  0  0  0  0  0  0  0
   57.5160   32.7570   46.2770 C   0  0  0  0  0  0  0  0  0  0  0  0
   56.9600   29.3370   44.9410 C   0  0  0  0  0  0  0  0  0  0  0  0
   55.7260   29.6090   44.9470 O   0  0  0  0  0  0  0  0  0  0  0  0
   57.4060   28.0730   45.3640 C   0  0  0  0  0  0  0  0  0  0  0  0
   56.5020   27.0870   45.8080 C   0  0  0  0  0  0  0  0  0  0  0  0
   56.9680   25.8390   46.2230 C   0  0  0  0  0  0  0  0  0  0  0  0
   58.3330   25.5570   46.1990 C   0  0  0  0  0  0  0  0  0  0  0  0
   59.2420   26.5210   45.7610 C   0  0  0  0  0  0  0  0  0  0  0  0
   58.7910   27.7890   45.3370 C   0  0  0  0  0  0  0  0  0  0  0  0
   61.5737   28.5248   45.8300 H   0  0  0  0  0  0  0  0  0  0  0  0
   61.3755   27.6455   44.2762 H   0  0  0  0  0  0  0  0  0  0  0  0
   61.6221   29.4248   44.2762 H   0  0  0  0  0  0  0  0  0  0  0  0
   57.8338   31.7487   43.0210 H   0  0  0  0  0  0  0  0  0  0  0  0
   56.3418   31.6289   44.0224 H   0  0  0  0  0  0  0  0  0  0  0  0
   59.2102   33.5715   43.4150 H   0  0  0  0  0  0  0  0  0  0  0  0
   60.0378   35.3941   44.9052 H   0  0  0  0  0  0  0  0  0  0  0  0
   59.2532   35.5299   47.2715 H   0  0  0  0  0  0  0  0  0  0  0  0
   57.6349   33.8448   48.1489 H   0  0  0  0  0  0  0  0  0  0  0  0
   56.7990   32.0190   46.6660 H   0  0  0  0  0  0  0  0  0  0  0  0
   55.4235   27.3025   45.8274 H   0  0  0  0  0  0  0  0  0  0  0  0
   56.2563   25.0755   46.5701 H   0  0  0  0  0  0  0  0  0  0  0  0
   58.6948   24.5712   46.5265 H   0  0  0  0  0  0  0  0  0  0  0  0
   60.3175   26.2908   45.7462 H   0  0  0  0  0  0  0  0  0  0  0  0
  1  2  1  0
  2  3  2  0
  3  4  1  0
  4  5  1  0
  5  6  1  0
  6  7  2  0
  7  8  1  0
  8  9  2  0
  9 10  1  0
 10 11  2  0
  4 12  1  0
 12 13  2  0
 12 14  1  0
 14 15  2  0
 15 16  1  0
 16 17  2  0
 17 18  1  0
 18 19  2  0
 19  2  1  0
 11  6  1  0
 19 14  1  0
  1 20  1  0
  1 21  1  0
  1 22  1  0
  5 23  1  0
  5 24  1  0
  7 25  1  0
  8 26  1  0
  9 27  1  0
 10 28  1  0
 11 29  1  0
 15 30  1  0
 16 31  1  0
 17 32  1  0
 18 33  1  0
M  END
>  <UniqueID>  (86) 
80

>  <SMILES>  (86) 
Cc1nn(Cc2ccccc2)c(=O)c2ccccc12

>  <Energy>  (86) 
41.40491653108824

>  <Genealogy>  (86) 
Cc1nn(Cc2ccccc2)c(=O)c2ccccc12 (3D coordinates assigned)
Cc1nn(Cc2ccccc2)c(=O)c2ccccc12 (optimized conformer: 41.40491653108824 kcal/mol)

>  <smiles>  (86) 
Cc1nn(Cc2ccccc2)c(=O)c2ccccc12

>  <score_type>  (86) 
oracle

>  <origin>  (86) 
adg

>  <m_score__min__energy>  (86) 
-7.5599999999999996

>  <m_primary>  (86) 
energy

$$$$
86:0
     RDKit          3D

 30 32  0  0  0  0  0  0  0  0999 V2000
   61.3449   27.8259   45.1824 H   0  0  0  0  0  0  0  0  0  0  0  0
   60.6150   28.5320   45.6050 C   0  0  0  0  0  0  0  0  0  0  0  0
   61.0570   29.7340   45.9960 C   0  0  0  0  0  0  0  0  0  0  0  0
   62.0706   30.0470   45.7050 H   0  0  0  0  0  0  0  0  0  0  0  0
   60.2330   30.6530   46.8030 C   0  0  0  0  0  0  0  0  0  0  0  0
   60.1920   30.6710   48.1930 C   0  0  0  0  0  0  0  0  0  0  0  0
   60.7772   30.0062   48.8454 H   0  0  0  0  0  0  0  0  0  0  0  0
   59.3340   31.6180   48.6310 N   0  0  0  0  0  0  0  0  0  0  0  0
   59.1080   31.8450   49.6250 H   0  0  0  0  0  0  0  0  0  0  0  0
   58.8140   32.1880   47.5310 C   0  0  0  0  0  0  0  0  0  0  0  0
   57.8470   33.1910   47.4810 C   0  0  0  0  0  0  0  0  0  0  0  0
   57.4497   33.6417   48.4025 H   0  0  0  0  0  0  0  0  0  0  0  0
   57.3950   33.6090   46.2170 C   0  0  0  0  0  0  0  0  0  0  0  0
   56.6416   34.4070   46.1422 H   0  0  0  0  0  0  0  0  0  0  0  0
   57.9020   33.0110   45.0440 C   0  0  0  0  0  0  0  0  0  0  0  0
   57.5340   33.3398   44.0609 H   0  0  0  0  0  0  0  0  0  0  0  0
   58.8740   31.9980   45.1220 C   0  0  0  0  0  0  0  0  0  0  0  0
   59.2641   31.5163   44.2133 H   0  0  0  0  0  0  0  0  0  0  0  0
   59.3300   31.6210   46.3890 C   0  0  0  0  0  0  0  0  0  0  0  0
   59.2000   28.0940   45.7070 C   0  0  0  0  0  0  0  0  0  0  0  0
   58.8200   26.8760   46.3060 C   0  0  0  0  0  0  0  0  0  0  0  0
   59.5892   26.2110   46.7257 H   0  0  0  0  0  0  0  0  0  0  0  0
   57.4720   26.5060   46.3710 C   0  0  0  0  0  0  0  0  0  0  0  0
   56.9940   24.8460   47.1930 Br  0  0  0  0  0  0  0  0  0  0  0  0
   56.4890   27.3420   45.8270 C   0  0  0  0  0  0  0  0  0  0  0  0
   55.1480   26.9740   45.8920 O   0  0  0  0  0  0  0  0  0  0  0  0
   56.8570   28.5470   45.2160 C   0  0  0  0  0  0  0  0  0  0  0  0
   55.5320   29.7020   44.4600 Br  0  0  0  0  0  0  0  0  0  0  0  0
   58.2050   28.9150   45.1530 C   0  0  0  0  0  0  0  0  0  0  0  0
   58.4887   29.8585   44.6638 H   0  0  0  0  0  0  0  0  0  0  0  0
  1  2  1  0
  2  3  2  0
  3  4  1  0
  3  5  1  0
  5  6  2  0
  6  7  1  0
  6  8  1  0
  8  9  1  0
  8 10  1  0
 10 11  2  0
 11 12  1  0
 11 13  1  0
 13 14  1  0
 13 15  2  0
 15 16  1  0
 15 17  1  0
 17 18  1  0
 17 19  2  0
  2 20  1  0
 20 21  2  0
 21 22  1  0
 21 23  1  0
 23 24  1  0
 23 25  2  0
 25 26  1  0
 25 27  1  0
 27 28  1  0
 27 29  2  0
 29 30  1  0
 19  5  1  0
 29 20  1  0
 19 10  1  0
M  CHG  1  26  -1
M  END
>  <UniqueID>  (87) 
81

>  <SMILES>  (87) 
[O-]c1c(Br)cc(/C=C/c2c[nH]c3ccccc23)cc1Br

>  <Energy>  (87) 
72.13310594461899

>  <Genealogy>  (87) 
[O-]c1c(Br)cc(C=Cc2c[nH]c3ccccc23)cc1Br (protonated)
[O-]c1c(Br)cc(/C=C/c2c[nH]c3ccccc23)cc1Br (cis-trans isomerization)
[O-]c1c(Br)cc(/C=C/c2c[nH]c3ccccc23)cc1Br (3D coordinates assigned)
[O-]c1c(Br)cc(/C=C/c2c[nH]c3ccccc23)cc1Br (optimized conformer: 72.13310594461899 kcal/mol)

>  <smiles>  (87) 
Oc1c(Br)cc(C=Cc2c[nH]c3ccccc23)cc1Br

>  <score_type>  (87) 
oracle

>  <origin>  (87) 
adg

>  <m_score__min__energy>  (87) 
-10.970000000000001

>  <m_primary>  (87) 
energy

$$$$
87:0
     RDKit          3D

 32 33  0  0  0  0  0  0  0  0999 V2000
   57.0570   28.4230   45.4920 C   0  0  0  0  0  0  0  0  0  0  0  0
   56.4810   29.6800   45.2620 O   0  0  0  0  0  0  0  0  0  0  0  0
   57.0230   30.6750   44.4960 C   0  0  0  0  0  0  0  0  0  0  0  0
   57.0360   30.6160   43.1210 C   0  0  0  0  0  0  0  0  0  0  0  0
   57.5930   31.6380   42.3710 C   0  0  0  0  0  0  0  0  0  0  0  0
   58.1410   32.7270   43.0430 C   0  0  0  0  0  0  0  0  0  0  0  0
   58.1410   32.8090   44.4280 C   0  0  0  0  0  0  0  0  0  0  0  0
   58.7460   33.9980   45.0600 C   0  0  0  0  0  0  0  0  0  0  0  0
   59.9730   33.7280   45.7720 N   0  0  0  0  0  0  0  0  0  0  0  0
   60.2760   34.2130   47.0610 C   0  0  0  0  0  0  0  0  0  0  0  0
   59.5060   34.9350   47.7240 O   0  0  0  0  0  0  0  0  0  0  0  0
   61.5770   33.8370   47.6380 C   0  0  0  0  0  0  0  0  0  0  0  0
   61.7980   33.9530   49.0150 C   0  0  0  0  0  0  0  0  0  0  0  0
   63.0390   33.5840   49.4930 C   0  0  0  0  0  0  0  0  0  0  0  0
   64.0420   33.1160   48.6730 C   0  0  0  0  0  0  0  0  0  0  0  0
   65.1710   32.7820   49.1220 O   0  0  0  0  0  0  0  0  0  0  0  0
   63.7740   33.0230   47.3360 N   0  0  0  0  0  0  0  0  0  0  0  0
   62.5890   33.3760   46.8820 N   0  0  0  0  0  0  0  0  0  0  0  0
   57.5740   31.7680   45.1330 C   0  0  0  0  0  0  0  0  0  0  0  0
   57.1368   28.2489   46.5752 H   0  0  0  0  0  0  0  0  0  0  0  0
   56.4266   27.6427   45.0406 H   0  0  0  0  0  0  0  0  0  0  0  0
   58.0596   28.3910   45.0406 H   0  0  0  0  0  0  0  0  0  0  0  0
   56.5980   29.7453   42.6111 H   0  0  0  0  0  0  0  0  0  0  0  0
   57.6022   31.5906   41.2721 H   0  0  0  0  0  0  0  0  0  0  0  0
   58.5867   33.5459   42.4593 H   0  0  0  0  0  0  0  0  0  0  0  0
   58.9587   34.7367   44.2732 H   0  0  0  0  0  0  0  0  0  0  0  0
   58.0225   34.3646   45.8031 H   0  0  0  0  0  0  0  0  0  0  0  0
   60.6780   33.1180   45.2660 H   0  0  0  0  0  0  0  0  0  0  0  0
   61.0129   34.3240   49.6903 H   0  0  0  0  0  0  0  0  0  0  0  0
   63.2350   33.6670   50.5722 H   0  0  0  0  0  0  0  0  0  0  0  0
   64.5170   32.6720   46.6900 H   0  0  0  0  0  0  0  0  0  0  0  0
   57.5607   31.8102   46.2321 H   0  0  0  0  0  0  0  0  0  0  0  0
  1  2  1  0
  2  3  1  0
  3  4  2  0
  4  5  1  0
  5  6  2  0
  6  7  1  0
  7  8  1  0
  8  9  1  0
  9 10  1  0
 10 11  2  0
 10 12  1  0
 12 13  1  0
 13 14  2  0
 14 15  1  0
 15 16  2  0
 15 17  1  0
 17 18  1  0
  7 19  2  0
 19  3  1  0
 18 12  2  0
  1 20  1  0
  1 21  1  0
  1 22  1  0
  4 23  1  0
  5 24  1  0
  6 25  1  0
  8 26  1  0
  8 27  1  0
  9 28  1  0
 13 29  1  0
 14 30  1  0
 17 31  1  0
 19 32  1  0
M  END
>  <smiles>  (88) 
COc1cccc(CNC(=O)c2ccc(=O)[nH]n2)c1

>  <score_type>  (88) 
oracle

>  <origin>  (88) 
adg

>  <m_score__min__energy>  (88) 
-6.8899999999999997

>  <m_primary>  (88) 
energy

$$$$
88:0
     RDKit          3D

 44 47  0  0  0  0  0  0  0  0999 V2000
   57.1928   32.4323   42.2928 H   0  0  0  0  0  0  0  0  0  0  0  0
   57.3850   32.0470   43.3050 C   0  0  0  0  0  0  0  0  0  0  0  0
   57.9200   32.8630   44.2480 N   0  0  0  0  0  0  0  0  0  0  0  0
   58.1710   32.4140   45.5040 C   0  0  0  0  0  0  0  0  0  0  0  0
   58.6560   33.2380   46.3860 N   0  0  0  0  0  0  0  0  0  0  0  0
   59.8220   33.0370   47.2040 C   0  0  0  0  0  0  0  0  0  0  0  0
   60.2540   34.0750   48.0320 C   0  0  0  0  0  0  0  0  0  0  0  0
   59.6895   35.0184   48.0679 H   0  0  0  0  0  0  0  0  0  0  0  0
   61.3990   33.9200   48.8140 C   0  0  0  0  0  0  0  0  0  0  0  0
   61.7308   34.7336   49.4757 H   0  0  0  0  0  0  0  0  0  0  0  0
   62.1250   32.7210   48.7520 C   0  0  0  0  0  0  0  0  0  0  0  0
   63.3200   32.5530   49.5390 N   0  0  0  0  0  0  0  0  0  0  0  0
   63.2770   31.9380   50.8700 C   0  0  0  0  0  0  0  0  0  0  0  0
   62.2281   31.8093   51.1752 H   0  0  0  0  0  0  0  0  0  0  0  0
   63.7827   30.9621   50.8266 H   0  0  0  0  0  0  0  0  0  0  0  0
   64.0000   32.8280   51.9020 C   0  0  0  0  0  0  0  0  0  0  0  0
   63.2536   33.4769   52.3835 H   0  0  0  0  0  0  0  0  0  0  0  0
   64.4948   32.1531   52.6159 H   0  0  0  0  0  0  0  0  0  0  0  0
   65.0540   33.6840   51.3180 N   0  0  0  0  0  0  0  0  0  0  0  0
   64.6320   34.6060   51.0530 H   0  0  0  0  0  0  0  0  0  0  0  0
   65.6610   33.0890   50.1190 C   0  0  0  0  0  0  0  0  0  0  0  0
   66.4883   33.7281   49.7768 H   0  0  0  0  0  0  0  0  0  0  0  0
   66.0360   32.0859   50.3702 H   0  0  0  0  0  0  0  0  0  0  0  0
   64.6210   32.9640   48.9960 C   0  0  0  0  0  0  0  0  0  0  0  0
   64.5122   33.9369   48.4943 H   0  0  0  0  0  0  0  0  0  0  0  0
   64.9627   32.2023   48.2798 H   0  0  0  0  0  0  0  0  0  0  0  0
   61.7130   31.7330   47.9030 N   0  0  0  0  0  0  0  0  0  0  0  0
   62.2540   30.8420   47.8370 H   0  0  0  0  0  0  0  0  0  0  0  0
   60.5970   31.8660   47.1350 C   0  0  0  0  0  0  0  0  0  0  0  0
   60.2999   31.0527   46.4566 H   0  0  0  0  0  0  0  0  0  0  0  0
   57.8710   31.1270   45.8270 N   0  0  0  0  0  0  0  0  0  0  0  0
   57.3500   30.2590   44.9180 C   0  0  0  0  0  0  0  0  0  0  0  0
   57.0770   28.8780   45.3650 C   0  0  0  0  0  0  0  0  0  0  0  0
   55.8680   28.2930   45.2460 N   0  0  0  0  0  0  0  0  0  0  0  0
   55.9200   27.0970   45.8130 N   0  0  0  0  0  0  0  0  0  0  0  0
   57.1620   26.9180   46.2980 C   0  0  0  0  0  0  0  0  0  0  0  0
   57.5830   25.7270   47.0910 C   0  0  0  0  0  0  0  0  0  0  0  0
   57.5027   25.9541   48.1643 H   0  0  0  0  0  0  0  0  0  0  0  0
   56.9316   24.8749   46.8468 H   0  0  0  0  0  0  0  0  0  0  0  0
   58.6252   25.4736   46.8468 H   0  0  0  0  0  0  0  0  0  0  0  0
   57.9280   28.0370   46.0560 C   0  0  0  0  0  0  0  0  0  0  0  0
   58.9736   28.2187   46.3454 H   0  0  0  0  0  0  0  0  0  0  0  0
   57.0770   30.7190   43.6140 C   0  0  0  0  0  0  0  0  0  0  0  0
   56.2750   29.7420   42.3890 Cl  0  0  0  0  0  0  0  0  0  0  0  0
  1  2  1  0
  2  3  1  0
  3  4  1  0
  4  5  2  0
  5  6  1  0
  6  7  2  0
  7  8  1  0
  7  9  1  0
  9 10  1  0
  9 11  2  0
 11 12  1  0
 12 13  1  0
 13 14  1  0
 13 15  1  0
 13 16  1  0
 16 17  1  0
 16 18  1  0
 16 19  1  0
 19 20  1  0
 19 21  1  0
 21 22  1  0
 21 23  1  0
 21 24  1  0
 24 25  1  0
 24 26  1  0
 11 27  1  0
 27 28  1  0
 27 29  2  0
 29 30  1  0
  4 31  1  0
 31 32  2  0
 32 33  1  0
 33 34  1  0
 34 35  1  0
 35 36  2  0
 36 37  1  0
 37 38  1  0
 37 39  1  0
 37 40  1  0
 36 41  1  0
 41 42  1  0
 32 43  1  0
 43 44  1  0
 43  2  2  0
 29  6  1  0
 41 33  2  0
 24 12  1  0
M  CHG  3   3  -1  27   1  34  -1
M  END
>  <UniqueID>  (89) 
82

>  <SMILES>  (89) 
Cc1cc(-c2n/c(=N\c3ccc(N4CCNCC4)[nH+]c3)[n-]cc2Cl)[n-]n1

>  <Energy>  (89) 
95.4442309416149

>  <Genealogy>  (89) 
Cc1cc(-c2nc(=Nc3ccc(N4CCNCC4)[nH+]c3)[n-]cc2Cl)[n-]n1 (protonated)
Cc1cc(-c2n/c(=N\c3ccc(N4CCNCC4)[nH+]c3)[n-]cc2Cl)[n-]n1 (cis-trans isomerization)
Cc1cc(-c2n/c(=N\c3ccc(N4CCNCC4)[nH+]c3)[n-]cc2Cl)[n-]n1 (3D coordinates assigned)
Cc1cc(-c2n/c(=N\c3ccc(N4CCNCC4)[nH+]c3)[n-]cc2Cl)[n-]n1 (nonaromatic ring conformer: 95.4442309416149 kcal/mol)

>  <smiles>  (89) 
Cc1cc(-c2nc(=Nc3ccc(N4CCNCC4)nc3)[nH]cc2Cl)[nH]n1

>  <score_type>  (89) 
oracle

>  <origin>  (89) 
adg

>  <m_score__min__energy>  (89) 
-9.8900000000000006

>  <m_primary>  (89) 
energy

$$$$
89:0
     RDKit          3D

 51 55  0  0  0  0  0  0  0  0999 V2000
   60.7220   33.8370   50.5890 C   0  0  0  0  0  0  0  0  0  0  0  0
   60.4140   32.8870   49.4350 C   0  0  1  0  0  0  0  0  0  0  0  0
   58.8970   32.7890   49.2120 C   0  0  0  0  0  0  0  0  0  0  0  0
   58.5880   31.9420   48.1240 O   0  0  0  0  0  0  0  0  0  0  0  0
   59.2600   32.2970   46.9170 C   0  0  1  0  0  0  0  0  0  0  0  0
   60.8020   32.4760   47.2030 C   0  0  0  0  0  0  0  0  0  0  0  0
   61.0430   33.3680   48.2670 O   0  0  0  0  0  0  0  0  0  0  0  0
   58.9740   31.1150   45.9640 C   0  0  0  0  0  0  0  0  0  0  0  0
   59.7350   29.9220   45.9800 C   0  0  0  0  0  0  0  0  0  0  0  0
   59.3780   28.8130   45.1960 C   0  0  0  0  0  0  0  0  0  0  0  0
   60.1690   27.5340   45.3000 C   0  0  0  0  0  0  0  0  0  0  0  0
   59.8030   26.6450   46.8580 S   0  0  0  0  0  0  0  0  0  0  0  0
   58.3430   25.7970   46.2400 C   0  0  0  0  0  0  0  0  0  0  0  0
   58.4530   24.5170   45.6830 C   0  0  0  0  0  0  0  0  0  0  0  0
   57.3080   23.8440   45.2440 C   0  0  0  0  0  0  0  0  0  0  0  0
   56.0530   24.4530   45.3490 C   0  0  0  0  0  0  0  0  0  0  0  0
   54.9450   23.7960   44.9260 F   0  0  0  0  0  0  0  0  0  0  0  0
   55.9440   25.7390   45.8890 C   0  0  0  0  0  0  0  0  0  0  0  0
   54.7300   26.3340   45.9890 F   0  0  0  0  0  0  0  0  0  0  0  0
   57.0870   26.4120   46.3310 C   0  0  0  0  0  0  0  0  0  0  0  0
   58.2330   28.8750   44.3930 C   0  0  0  0  0  0  0  0  0  0  0  0
   57.8600   27.8100   43.6380 F   0  0  0  0  0  0  0  0  0  0  0  0
   57.4400   30.0190   44.3970 C   0  0  0  0  0  0  0  0  0  0  0  0
   57.7760   31.1160   45.1950 C   0  0  0  0  0  0  0  0  0  0  0  0
   56.8990   32.2090   45.2070 O   0  0  0  0  0  0  0  0  0  0  0  0
   57.0810   33.3370   46.0540 C   0  0  0  0  0  0  0  0  0  0  0  0
   58.5850   33.5760   46.2570 C   0  0  0  0  0  0  0  0  0  0  0  0
   58.9210   34.9850   46.7410 C   0  0  0  0  0  0  0  0  0  0  0  0
   59.5150   35.3440   45.5150 O   0  0  0  0  0  0  0  0  0  0  0  0
   59.2360   34.0790   44.9680 C   0  0  0  0  0  0  0  0  0  0  0  0
   60.5541   33.3193   51.5449 H   0  0  0  0  0  0  0  0  0  0  0  0
   61.7713   34.1612   50.5269 H   0  0  0  0  0  0  0  0  0  0  0  0
   60.0626   34.7152   50.5269 H   0  0  0  0  0  0  0  0  0  0  0  0
   60.7932   31.8831   49.6768 H   0  0  0  0  0  0  0  0  0  0  0  0
   58.4269   32.3880   50.1221 H   0  0  0  0  0  0  0  0  0  0  0  0
   58.5153   33.7955   48.9856 H   0  0  0  0  0  0  0  0  0  0  0  0
   61.2318   31.4959   47.4573 H   0  0  0  0  0  0  0  0  0  0  0  0
   61.2684   32.8933   46.2984 H   0  0  0  0  0  0  0  0  0  0  0  0
   60.6267   29.8620   46.6213 H   0  0  0  0  0  0  0  0  0  0  0  0
   59.9132   26.8851   44.4494 H   0  0  0  0  0  0  0  0  0  0  0  0
   61.2393   27.7878   45.2902 H   0  0  0  0  0  0  0  0  0  0  0  0
   59.4401   24.0406   45.5906 H   0  0  0  0  0  0  0  0  0  0  0  0
   57.3946   22.8345   44.8156 H   0  0  0  0  0  0  0  0  0  0  0  0
   57.0004   27.4251   46.7506 H   0  0  0  0  0  0  0  0  0  0  0  0
   56.5400   30.0600   43.7658 H   0  0  0  0  0  0  0  0  0  0  0  0
   56.6266   34.2241   45.5887 H   0  0  0  0  0  0  0  0  0  0  0  0
   56.6008   33.1517   47.0261 H   0  0  0  0  0  0  0  0  0  0  0  0
   58.0333   35.5854   46.9891 H   0  0  0  0  0  0  0  0  0  0  0  0
   59.5037   35.1024   47.6666 H   0  0  0  0  0  0  0  0  0  0  0  0
   58.5438   34.1151   44.1139 H   0  0  0  0  0  0  0  0  0  0  0  0
   60.0607   33.4980   44.5295 H   0  0  0  0  0  0  0  0  0  0  0  0
  1  2  1  0
  2  3  1  0
  3  4  1  0
  5  4  1  1
  5  6  1  0
  6  7  1  0
  5  8  1  0
  8  9  2  0
  9 10  1  0
 10 11  1  0
 11 12  1  0
 12 13  1  0
 13 14  2  0
 14 15  1  0
 15 16  2  0
 16 17  1  0
 16 18  1  0
 18 19  1  0
 18 20  2  0
 10 21  2  0
 21 22  1  0
 21 23  1  0
 23 24  2  0
 24 25  1  0
 25 26  1  0
 26 27  1  0
 27 28  1  0
 28 29  1  0
 29 30  1  0
  7  2  1  0
 24  8  1  0
 30 27  1  0
 27  5  1  0
 20 13  1  0
  1 31  1  0
  1 32  1  0
  1 33  1  0
  2 34  1  1
  3 35  1  0
  3 36  1  0
  6 37  1  0
  6 38  1  0
  9 39  1  0
 11 40  1  0
 11 41  1  0
 14 42  1  0
 15 43  1  0
 20 44  1  0
 23 45  1  0
 26 46  1  0
 26 47  1  0
 28 48  1  0
 28 49  1  0
 30 50  1  0
 30 51  1  0
M  END
>  <UniqueID>  (90) 
83

>  <SMILES>  (90) 
C[C@H]1CO[C@@]2(CO1)c1cc(CSc3ccc(F)c(F)c3)c(F)cc1OCC21COC1

>  <Energy>  (90) 
135.77419579999213

>  <Genealogy>  (90) 
C[C@H]1CO[C@@]2(CO1)c1cc(CSc3ccc(F)c(F)c3)c(F)cc1OCC21COC1 (chirality)
C[C@H]1CO[C@@]2(CO1)c1cc(CSc3ccc(F)c(F)c3)c(F)cc1OCC21COC1 (3D coordinates assigned)
C[C@H]1CO[C@@]2(CO1)c1cc(CSc3ccc(F)c(F)c3)c(F)cc1OCC21COC1 (nonaromatic ring conformer: 135.77419579999213 kcal/mol)

>  <smiles>  (90) 
CC1COC2(CO1)c1cc(CSc3ccc(F)c(F)c3)c(F)cc1OCC21COC1

>  <score_type>  (90) 
oracle

>  <origin>  (90) 
adg

>  <m_score__min__energy>  (90) 
-8.6400000000000006

>  <m_primary>  (90) 
energy

$$$$
90:0
     RDKit          3D

 48 51  0  0  0  0  0  0  0  0999 V2000
   55.6330   29.2110   44.9040 O   0  0  0  0  0  0  0  0  0  0  0  0
   56.2880   28.1910   45.2440 C   0  0  0  0  0  0  0  0  0  0  0  0
   57.7880   28.2420   45.2160 C   0  0  0  0  0  0  0  0  0  0  0  0
   58.4480   28.3500   46.9140 S   0  0  0  0  0  0  0  0  0  0  0  0
   58.8960   30.0940   46.7650 C   0  0  0  0  0  0  0  0  0  0  0  0
   58.1230   30.8790   45.9680 N   0  0  0  0  0  0  0  0  0  0  0  0
   58.4000   32.1960   45.7840 C   0  0  0  0  0  0  0  0  0  0  0  0
   57.5970   32.9820   44.9420 C   0  0  0  0  0  0  0  0  0  0  0  0
   57.8900   34.3350   44.7540 C   0  0  0  0  0  0  0  0  0  0  0  0
   58.9830   34.9120   45.4030 C   0  0  0  0  0  0  0  0  0  0  0  0
   59.7880   34.1390   46.2440 C   0  0  0  0  0  0  0  0  0  0  0  0
   59.5010   32.7740   46.4410 C   0  0  0  0  0  0  0  0  0  0  0  0
   60.2790   31.9590   47.2810 C   0  0  0  0  0  0  0  0  0  0  0  0
   61.2670   32.4630   47.8880 O   0  0  0  0  0  0  0  0  0  0  0  0
   59.9690   30.6290   47.4420 N   0  0  0  0  0  0  0  0  0  0  0  0
   60.7760   29.7890   48.3540 C   0  0  0  0  0  0  0  0  0  0  0  0
   60.1350   29.6710   49.7160 C   0  0  0  0  0  0  0  0  0  0  0  0
   58.9620   30.3860   50.0200 C   0  0  0  0  0  0  0  0  0  0  0  0
   58.3480   30.2380   51.2680 C   0  0  0  0  0  0  0  0  0  0  0  0
   58.8900   29.3660   52.2150 C   0  0  0  0  0  0  0  0  0  0  0  0
   60.0530   28.6510   51.9230 C   0  0  0  0  0  0  0  0  0  0  0  0
   60.6720   28.7980   50.6780 C   0  0  0  0  0  0  0  0  0  0  0  0
   55.5700   27.0240   45.6710 N   0  0  0  0  0  0  0  0  0  0  0  0
   56.0950   25.7020   45.8570 C   0  0  0  0  0  0  0  0  0  0  0  0
   56.6610   25.2910   47.0770 C   0  0  0  0  0  0  0  0  0  0  0  0
   57.1850   24.0020   47.2100 C   0  0  0  0  0  0  0  0  0  0  0  0
   57.1750   23.1250   46.1230 C   0  0  0  0  0  0  0  0  0  0  0  0
   56.6490   23.5400   44.8950 C   0  0  0  0  0  0  0  0  0  0  0  0
   56.6440   22.4430   43.5260 Cl  0  0  0  0  0  0  0  0  0  0  0  0
   56.1170   24.8270   44.7620 C   0  0  0  0  0  0  0  0  0  0  0  0
   58.1734   27.3315   44.7338 H   0  0  0  0  0  0  0  0  0  0  0  0
   58.1060   29.1304   44.6506 H   0  0  0  0  0  0  0  0  0  0  0  0
   57.3050   30.4500   45.4780 H   0  0  0  0  0  0  0  0  0  0  0  0
   56.7347   32.5312   44.4289 H   0  0  0  0  0  0  0  0  0  0  0  0
   57.2582   34.9468   44.0933 H   0  0  0  0  0  0  0  0  0  0  0  0
   59.2111   35.9775   45.2521 H   0  0  0  0  0  0  0  0  0  0  0  0
   60.6482   34.5977   46.7536 H   0  0  0  0  0  0  0  0  0  0  0  0
   60.8760   28.7839   47.9185 H   0  0  0  0  0  0  0  0  0  0  0  0
   61.7605   30.2639   48.4776 H   0  0  0  0  0  0  0  0  0  0  0  0
   58.5256   31.0648   49.2725 H   0  0  0  0  0  0  0  0  0  0  0  0
   57.4377   30.8087   51.5038 H   0  0  0  0  0  0  0  0  0  0  0  0
   58.3999   29.2425   53.1920 H   0  0  0  0  0  0  0  0  0  0  0  0
   60.4829   27.9712   52.6734 H   0  0  0  0  0  0  0  0  0  0  0  0
   61.5843   28.2273   50.4500 H   0  0  0  0  0  0  0  0  0  0  0  0
   56.6914   25.9860   47.9291 H   0  0  0  0  0  0  0  0  0  0  0  0
   57.6062   23.6776   48.1730 H   0  0  0  0  0  0  0  0  0  0  0  0
   57.5806   22.1084   46.2325 H   0  0  0  0  0  0  0  0  0  0  0  0
   55.7136   25.1543   43.7924 H   0  0  0  0  0  0  0  0  0  0  0  0
  1  2  2  0
  2  3  1  0
  3  4  1  0
  4  5  1  0
  5  6  2  0
  6  7  1  0
  7  8  2  0
  8  9  1  0
  9 10  2  0
 10 11  1  0
 11 12  2  0
 12 13  1  0
 13 14  2  0
 13 15  1  0
 15 16  1  0
 16 17  1  0
 17 18  2  0
 18 19  1  0
 19 20  2  0
 20 21  1  0
 21 22  2  0
  2 23  1  0
 23 24  1  0
 24 25  2  0
 25 26  1  0
 26 27  2  0
 27 28  1  0
 28 29  1  0
 28 30  2  0
 15  5  1  0
 22 17  1  0
 30 24  1  0
 12  7  1  0
  3 31  1  0
  3 32  1  0
  6 33  1  0
  8 34  1  0
  9 35  1  0
 10 36  1  0
 11 37  1  0
 16 38  1  0
 16 39  1  0
 18 40  1  0
 19 41  1  0
 20 42  1  0
 21 43  1  0
 22 44  1  0
 25 45  1  0
 26 46  1  0
 27 47  1  0
 30 48  1  0
M  CHG  2   6   1  23  -1
M  END
>  <UniqueID>  (91) 
84

>  <SMILES>  (91) 
O=C(CSc1[nH+]c2ccccc2c(=O)n1Cc1ccccc1)[N-]c1cccc(Cl)c1

>  <Energy>  (91) 
56.92011606372474

>  <Genealogy>  (91) 
O=C(CSc1[nH+]c2ccccc2c(=O)n1Cc1ccccc1)[N-]c1cccc(Cl)c1 (protonated)
O=C(CSc1[nH+]c2ccccc2c(=O)n1Cc1ccccc1)[N-]c1cccc(Cl)c1 (3D coordinates assigned)
O=C(CSc1[nH+]c2ccccc2c(=O)n1Cc1ccccc1)[N-]c1cccc(Cl)c1 (optimized conformer: 56.92011606372474 kcal/mol)

>  <smiles>  (91) 
O=C(CSc1nc2ccccc2c(=O)n1Cc1ccccc1)Nc1cccc(Cl)c1

>  <score_type>  (91) 
oracle

>  <origin>  (91) 
adg

>  <m_score__min__energy>  (91) 
-8.8599999999999994

>  <m_primary>  (91) 
energy

$$$$
91:0
     RDKit          3D

 32 33  0  0  0  0  0  0  0  0999 V2000
   56.5980   23.2610   42.6130 N   0  0  0  0  0  0  0  0  0  0  0  0
   56.4620   22.4280   43.7650 C   0  0  0  0  0  0  0  0  0  0  0  0
   56.0060   21.2590   43.6400 O   0  0  0  0  0  0  0  0  0  0  0  0
   56.8150   22.9500   45.1220 C   0  0  0  0  0  0  0  0  0  0  0  0
   57.0520   24.3870   45.0540 N   0  0  0  0  0  0  0  0  0  0  0  0
   56.3130   25.3390   45.6570 C   0  0  0  0  0  0  0  0  0  0  0  0
   56.9080   26.5490   45.3930 C   0  0  0  0  0  0  0  0  0  0  0  0
   56.3810   27.8310   45.7440 N   0  0  0  0  0  0  0  0  0  0  0  0
   56.2670   28.9670   44.8790 C   0  0  0  0  0  0  0  0  0  0  0  0
   55.1520   29.5470   44.7930 O   0  0  0  0  0  0  0  0  0  0  0  0
   57.4750   29.5940   44.2270 C   0  0  0  0  0  0  0  0  0  0  0  0
   57.7420   30.9750   44.7700 C   0  0  0  0  0  0  0  0  0  0  0  0
   58.1570   31.1430   46.1020 C   0  0  0  0  0  0  0  0  0  0  0  0
   58.3840   32.4240   46.6160 C   0  0  0  0  0  0  0  0  0  0  0  0
   58.1940   33.5460   45.8060 C   0  0  0  0  0  0  0  0  0  0  0  0
   57.7770   33.3900   44.4810 C   0  0  0  0  0  0  0  0  0  0  0  0
   57.5480   32.1100   43.9640 C   0  0  0  0  0  0  0  0  0  0  0  0
   58.0000   26.2710   44.5930 C   0  0  0  0  0  0  0  0  0  0  0  0
   58.0730   24.9370   44.4130 N   0  0  0  0  0  0  0  0  0  0  0  0
   56.3370   22.9010   41.6680 H   0  0  0  0  0  0  0  0  0  0  0  0
   56.9590   24.2370   42.7030 H   0  0  0  0  0  0  0  0  0  0  0  0
   55.9863   22.7494   45.8170 H   0  0  0  0  0  0  0  0  0  0  0  0
   57.7274   22.4486   45.4771 H   0  0  0  0  0  0  0  0  0  0  0  0
   55.4015   25.1772   46.2511 H   0  0  0  0  0  0  0  0  0  0  0  0
   58.3532   28.9594   44.4167 H   0  0  0  0  0  0  0  0  0  0  0  0
   57.2792   29.6795   43.1479 H   0  0  0  0  0  0  0  0  0  0  0  0
   58.3042   30.2621   46.7442 H   0  0  0  0  0  0  0  0  0  0  0  0
   58.7123   32.5478   47.6585 H   0  0  0  0  0  0  0  0  0  0  0  0
   58.3726   34.5530   46.2111 H   0  0  0  0  0  0  0  0  0  0  0  0
   57.6287   34.2744   43.8440 H   0  0  0  0  0  0  0  0  0  0  0  0
   57.2148   31.9916   42.9224 H   0  0  0  0  0  0  0  0  0  0  0  0
   58.6938   27.0142   44.1732 H   0  0  0  0  0  0  0  0  0  0  0  0
  1  2  1  0
  2  3  2  0
  2  4  1  0
  4  5  1  0
  5  6  1  0
  6  7  2  0
  7  8  1  0
  8  9  1  0
  9 10  2  0
  9 11  1  0
 11 12  1  0
 12 13  2  0
 13 14  1  0
 14 15  2  0
 15 16  1  0
 16 17  2  0
  7 18  1  0
 18 19  2  0
 19  5  1  0
 17 12  1  0
  1 20  1  0
  1 21  1  0
  4 22  1  0
  4 23  1  0
  6 24  1  0
 11 25  1  0
 11 26  1  0
 13 27  1  0
 14 28  1  0
 15 29  1  0
 16 30  1  0
 17 31  1  0
 18 32  1  0
M  CHG  1   8  -1
M  END
>  <UniqueID>  (92) 
85

>  <SMILES>  (92) 
NC(=O)Cn1cc([N-]C(=O)Cc2ccccc2)cn1

>  <Energy>  (92) 
63.705018667007664

>  <Genealogy>  (92) 
NC(=O)Cn1cc([N-]C(=O)Cc2ccccc2)cn1 (protonated)
NC(=O)Cn1cc([N-]C(=O)Cc2ccccc2)cn1 (3D coordinates assigned)
NC(=O)Cn1cc([N-]C(=O)Cc2ccccc2)cn1 (optimized conformer: 63.705018667007664 kcal/mol)

>  <smiles>  (92) 
NC(=O)Cn1cc(NC(=O)Cc2ccccc2)cn1

>  <score_type>  (92) 
oracle

>  <origin>  (92) 
adg

>  <m_score__min__energy>  (92) 
-8.5199999999999996

>  <m_primary>  (92) 
energy

$$$$
92:0
     RDKit          3D

 63 65  0  0  0  0  0  0  0  0999 V2000
   58.9540   29.5470   49.2020 C   0  0  0  0  0  0  0  0  0  0  0  0
   60.3390   28.9570   48.9610 C   0  0  0  0  0  0  0  0  0  0  0  0
   60.4000   28.1100   47.6790 C   0  0  0  0  0  0  0  0  0  0  0  0
   59.2320   28.3610   46.8050 N   0  0  0  0  0  0  0  0  0  0  0  0
   59.1630   29.4960   46.0230 C   0  0  0  0  0  0  0  0  0  0  0  0
   60.2230   30.4750   46.0300 N   0  0  0  0  0  0  0  0  0  0  0  0
   58.0240   29.7250   45.2300 C   0  0  0  0  0  0  0  0  0  0  0  0
   57.9110   30.9230   44.3740 C   0  0  0  0  0  0  0  0  0  0  0  0
   58.7880   31.1250   43.4920 O   0  0  0  0  0  0  0  0  0  0  0  0
   56.7730   31.8940   44.5950 C   0  0  0  0  0  0  0  0  0  0  0  0
   57.1920   33.1790   45.2130 N   0  0  0  0  0  0  0  0  0  0  0  0
   57.4110   33.0090   46.6770 C   0  0  0  0  0  0  0  0  0  0  0  0
   58.8760   32.6760   47.0020 C   0  0  0  0  0  0  0  0  0  0  0  0
   59.8020   33.7610   46.5860 N   0  0  0  0  0  0  0  0  0  0  0  0
   60.1910   34.6080   47.7360 C   0  0  0  0  0  0  0  0  0  0  0  0
   60.3310   33.7820   48.9940 C   0  0  0  0  0  0  0  0  0  0  0  0
   59.6700   34.1820   50.1680 C   0  0  0  0  0  0  0  0  0  0  0  0
   59.8020   33.4370   51.3430 C   0  0  0  0  0  0  0  0  0  0  0  0
   58.8930   33.9900   52.9300 Br  0  0  0  0  0  0  0  0  0  0  0  0
   60.5970   32.2880   51.3550 C   0  0  0  0  0  0  0  0  0  0  0  0
   61.2670   31.8860   50.1980 C   0  0  0  0  0  0  0  0  0  0  0  0
   61.1450   32.6310   49.0070 C   0  0  0  0  0  0  0  0  0  0  0  0
   61.8140   32.2600   47.8290 O   0  0  0  0  0  0  0  0  0  0  0  0
   63.1430   32.6520   47.4980 C   0  0  0  0  0  0  0  0  0  0  0  0
   59.2660   34.5840   45.4740 C   0  0  0  0  0  0  0  0  0  0  0  0
   58.3860   33.7550   44.5250 C   0  0  0  0  0  0  0  0  0  0  0  0
   56.9920   28.7820   45.2360 C   0  0  0  0  0  0  0  0  0  0  0  0
   55.9610   28.9850   44.5340 O   0  0  0  0  0  0  0  0  0  0  0  0
   57.1010   27.6450   45.9880 N   0  0  0  0  0  0  0  0  0  0  0  0
   55.9960   26.6680   46.0060 C   0  0  0  0  0  0  0  0  0  0  0  0
   58.2020   27.4480   46.7810 C   0  0  0  0  0  0  0  0  0  0  0  0
   58.2660   26.4100   47.5020 O   0  0  0  0  0  0  0  0  0  0  0  0
   58.7717   29.6246   50.2840 H   0  0  0  0  0  0  0  0  0  0  0  0
   58.8975   30.5473   48.7479 H   0  0  0  0  0  0  0  0  0  0  0  0
   58.1935   28.8947   48.7479 H   0  0  0  0  0  0  0  0  0  0  0  0
   61.0637   29.7801   48.8755 H   0  0  0  0  0  0  0  0  0  0  0  0
   60.5755   28.2985   49.8098 H   0  0  0  0  0  0  0  0  0  0  0  0
   61.3186   28.3611   47.1284 H   0  0  0  0  0  0  0  0  0  0  0  0
   60.3929   27.0484   47.9669 H   0  0  0  0  0  0  0  0  0  0  0  0
   60.9510   30.5240   46.7720 H   0  0  0  0  0  0  0  0  0  0  0  0
   60.3540   31.1450   45.2410 H   0  0  0  0  0  0  0  0  0  0  0  0
   56.3094   32.1123   43.6216 H   0  0  0  0  0  0  0  0  0  0  0  0
   56.0743   31.4142   45.2962 H   0  0  0  0  0  0  0  0  0  0  0  0
   56.4000   33.8570   45.1080 H   0  0  0  0  0  0  0  0  0  0  0  0
   57.1367   33.9434   47.1886 H   0  0  0  0  0  0  0  0  0  0  0  0
   56.7864   32.1711   47.0203 H   0  0  0  0  0  0  0  0  0  0  0  0
   58.9727   32.5239   48.0871 H   0  0  0  0  0  0  0  0  0  0  0  0
   59.1480   31.7670   46.4455 H   0  0  0  0  0  0  0  0  0  0  0  0
   61.1530   35.0939   47.5158 H   0  0  0  0  0  0  0  0  0  0  0  0
   59.4065   35.3620   47.8972 H   0  0  0  0  0  0  0  0  0  0  0  0
   59.0449   35.0871   50.1620 H   0  0  0  0  0  0  0  0  0  0  0  0
   60.6952   31.6986   52.2785 H   0  0  0  0  0  0  0  0  0  0  0  0
   61.8940   30.9824   50.2156 H   0  0  0  0  0  0  0  0  0  0  0  0
   63.7162   32.8211   48.4215 H   0  0  0  0  0  0  0  0  0  0  0  0
   63.6236   31.8574   46.9085 H   0  0  0  0  0  0  0  0  0  0  0  0
   63.1154   33.5803   46.9085 H   0  0  0  0  0  0  0  0  0  0  0  0
   58.6635   35.4025   45.8948 H   0  0  0  0  0  0  0  0  0  0  0  0
   60.1166   34.9763   44.8973 H   0  0  0  0  0  0  0  0  0  0  0  0
   58.0428   34.4030   43.7051 H   0  0  0  0  0  0  0  0  0  0  0  0
   58.9932   32.9179   44.1501 H   0  0  0  0  0  0  0  0  0  0  0  0
   55.7308   26.4335   47.0475 H   0  0  0  0  0  0  0  0  0  0  0  0
   55.1217   27.0938   45.4920 H   0  0  0  0  0  0  0  0  0  0  0  0
   56.3115   25.7481   45.4920 H   0  0  0  0  0  0  0  0  0  0  0  0
  1  2  1  0
  2  3  1  0
  3  4  1  0
  4  5  1  0
  5  6  1  0
  5  7  2  0
  7  8  1  0
  8  9  2  0
  8 10  1  0
 10 11  1  0
 11 12  1  0
 12 13  1  0
 13 14  1  0
 14 15  1  0
 15 16  1  0
 16 17  2  0
 17 18  1  0
 18 19  1  0
 18 20  2  0
 20 21  1  0
 21 22  2  0
 22 23  1  0
 23 24  1  0
 14 25  1  0
 25 26  1  0
  7 27  1  0
 27 28  2  0
 27 29  1  0
 29 30  1  0
 29 31  1  0
 31 32  2  0
 31  4  1  0
 26 11  1  0
 22 16  1  0
  1 33  1  0
  1 34  1  0
  1 35  1  0
  2 36  1  0
  2 37  1  0
  3 38  1  0
  3 39  1  0
  6 40  1  0
  6 41  1  0
 10 42  1  0
 10 43  1  0
 11 44  1  0
 12 45  1  0
 12 46  1  0
 13 47  1  0
 13 48  1  0
 15 49  1  0
 15 50  1  0
 17 51  1  0
 20 52  1  0
 21 53  1  0
 24 54  1  0
 24 55  1  0
 24 56  1  0
 25 57  1  0
 25 58  1  0
 26 59  1  0
 26 60  1  0
 30 61  1  0
 30 62  1  0
 30 63  1  0
M  CHG  1  11   1
M  END
>  <UniqueID>  (93) 
86

>  <SMILES>  (93) 
CCCn1c(N)c(C(=O)C[NH+]2CCN(Cc3cc(Br)ccc3OC)CC2)c(=O)n(C)c1=O

>  <Energy>  (93) 
94.28917332426022

>  <Genealogy>  (93) 
CCCn1c(N)c(C(=O)C[NH+]2CCN(Cc3cc(Br)ccc3OC)CC2)c(=O)n(C)c1=O (protonated)
CCCn1c(N)c(C(=O)C[NH+]2CCN(Cc3cc(Br)ccc3OC)CC2)c(=O)n(C)c1=O (3D coordinates assigned)
CCCn1c(N)c(C(=O)C[NH+]2CCN(Cc3cc(Br)ccc3OC)CC2)c(=O)n(C)c1=O (nonaromatic ring conformer: 94.28917332426022 kcal/mol)

>  <smiles>  (93) 
CCCn1c(N)c(C(=O)CN2CCN(Cc3cc(Br)ccc3OC)CC2)c(=O)n(C)c1=O

>  <score_type>  (93) 
oracle

>  <origin>  (93) 
adg

>  <m_score__min__energy>  (93) 
-5.9500000000000002

>  <m_primary>  (93) 
energy

$$$$
93:0
     RDKit          3D

 49 53  0  0  0  0  0  0  0  0999 V2000
   56.2400   20.0800   42.9840 N   0  0  0  0  0  0  0  0  0  0  0  0
   56.6730   21.1650   43.5420 C   0  0  0  0  0  0  0  0  0  0  0  0
   55.9750   22.2900   43.2460 N   0  0  0  0  0  0  0  0  0  0  0  0
   56.3840   23.4680   43.7950 C   0  0  0  0  0  0  0  0  0  0  0  0
   57.4880   23.5270   44.6380 C   0  0  0  0  0  0  0  0  0  0  0  0
   57.8570   24.8410   45.1390 C   0  0  0  0  0  0  0  0  0  0  0  0
   58.0270   24.9680   46.4970 C   0  0  0  0  0  0  0  0  0  0  0  0
   58.3730   26.1860   47.0850 C   0  0  0  0  0  0  0  0  0  0  0  0
   58.5640   27.3330   46.3050 C   0  0  0  0  0  0  0  0  0  0  0  0
   58.9190   28.6100   46.9490 C   0  0  0  0  0  0  0  0  0  0  0  0
   58.3760   29.8380   46.3090 C   0  0  0  0  0  0  0  0  0  0  0  0
   57.2830   30.0400   45.5700 N   0  0  0  0  0  0  0  0  0  0  0  0
   57.2140   31.3160   45.2450 O   0  0  0  0  0  0  0  0  0  0  0  0
   58.2210   31.9670   45.7430 C   0  0  0  0  0  0  0  0  0  0  0  0
   58.6070   33.3300   45.6890 N   0  0  0  0  0  0  0  0  0  0  0  0
   58.6580   34.2580   46.8130 C   0  0  0  0  0  0  0  0  0  0  0  0
   59.6380   35.3310   46.3500 C   0  0  0  0  0  0  0  0  0  0  0  0
   59.2820   35.4170   44.8740 C   0  0  0  0  0  0  0  0  0  0  0  0
   59.0450   34.0060   44.4880 C   0  0  0  0  0  0  0  0  0  0  0  0
   58.9630   31.0470   46.4170 N   0  0  0  0  0  0  0  0  0  0  0  0
   60.4430   28.7040   47.1730 C   0  0  0  0  0  0  0  0  0  0  0  0
   60.1200   29.4690   48.4310 C   0  0  0  0  0  0  0  0  0  0  0  0
   58.7820   28.7060   48.4320 C   0  0  0  0  0  0  0  0  0  0  0  0
   58.3880   27.1770   44.9500 C   0  0  0  0  0  0  0  0  0  0  0  0
   58.0410   25.9570   44.3680 C   0  0  0  0  0  0  0  0  0  0  0  0
   58.1730   22.3760   44.9180 C   0  0  0  0  0  0  0  0  0  0  0  0
   57.7290   21.2200   44.3470 N   0  0  0  0  0  0  0  0  0  0  0  0
   56.5960   19.1720   43.4020 H   0  0  0  0  0  0  0  0  0  0  0  0
   55.8299   24.3904   43.5668 H   0  0  0  0  0  0  0  0  0  0  0  0
   57.8865   24.0854   47.1383 H   0  0  0  0  0  0  0  0  0  0  0  0
   58.4973   26.2454   48.1763 H   0  0  0  0  0  0  0  0  0  0  0  0
   57.6661   34.6910   47.0098 H   0  0  0  0  0  0  0  0  0  0  0  0
   58.9664   33.7748   47.7518 H   0  0  0  0  0  0  0  0  0  0  0  0
   59.4656   36.2874   46.8653 H   0  0  0  0  0  0  0  0  0  0  0  0
   60.6949   35.1035   46.5531 H   0  0  0  0  0  0  0  0  0  0  0  0
   58.3761   36.0225   44.7235 H   0  0  0  0  0  0  0  0  0  0  0  0
   60.0679   35.8976   44.2728 H   0  0  0  0  0  0  0  0  0  0  0  0
   58.2675   33.9479   43.7120 H   0  0  0  0  0  0  0  0  0  0  0  0
   59.9541   33.5440   44.0755 H   0  0  0  0  0  0  0  0  0  0  0  0
   60.9468   27.7396   47.3349 H   0  0  0  0  0  0  0  0  0  0  0  0
   61.1253   29.0985   46.4056 H   0  0  0  0  0  0  0  0  0  0  0  0
   60.7772   29.2531   49.2863 H   0  0  0  0  0  0  0  0  0  0  0  0
   60.1721   30.5666   48.4826 H   0  0  0  0  0  0  0  0  0  0  0  0
   58.8034   27.7408   48.9592 H   0  0  0  0  0  0  0  0  0  0  0  0
   57.8789   29.1174   48.9066 H   0  0  0  0  0  0  0  0  0  0  0  0
   58.5267   28.0513   44.2970 H   0  0  0  0  0  0  0  0  0  0  0  0
   57.9139   25.8914   43.2773 H   0  0  0  0  0  0  0  0  0  0  0  0
   59.0511   22.3830   45.5805 H   0  0  0  0  0  0  0  0  0  0  0  0
   58.2560   20.3390   44.5650 H   0  0  0  0  0  0  0  0  0  0  0  0
  1  2  2  3
  2  3  1  0
  3  4  2  0
  4  5  1  0
  5  6  1  0
  6  7  2  0
  7  8  1  0
  8  9  2  0
  9 10  1  0
 10 11  1  0
 11 12  2  0
 12 13  1  0
 13 14  1  0
 14 15  1  0
 15 16  1  0
 16 17  1  0
 17 18  1  0
 18 19  1  0
 14 20  2  0
 10 21  1  0
 21 22  1  0
 22 23  1  0
  9 24  1  0
 24 25  2  0
  5 26  2  0
 26 27  1  0
 27  2  1  0
 25  6  1  0
 23 10  1  0
 20 11  1  0
 19 15  1  0
  1 28  1  0
  4 29  1  0
  7 30  1  0
  8 31  1  0
 16 32  1  0
 16 33  1  0
 17 34  1  0
 17 35  1  0
 18 36  1  0
 18 37  1  0
 19 38  1  0
 19 39  1  0
 21 40  1  0
 21 41  1  0
 22 42  1  0
 22 43  1  0
 23 44  1  0
 23 45  1  0
 24 46  1  0
 25 47  1  0
 26 48  1  0
 27 49  1  0
M  END
>  <smiles>  (94) 
N=c1ncc(-c2ccc(C3(c4noc(N5CCCC5)n4)CCC3)cc2)c[nH]1

>  <score_type>  (94) 
oracle

>  <origin>  (94) 
adg

>  <m_score__min__energy>  (94) 
-9.9299999999999997

>  <m_primary>  (94) 
energy

$$$$
94:0
     RDKit          3D

 39 41  0  0  0  0  0  0  0  0999 V2000
   57.6620   30.9210   43.0790 O   0  0  0  0  0  0  0  0  0  0  0  0
   57.3430   30.8190   44.2910 C   0  0  0  0  0  0  0  0  0  0  0  0
   56.6260   31.8910   44.9160 N   0  0  0  0  0  0  0  0  0  0  0  0
   57.0240   33.2980   44.8890 C   0  0  0  0  0  0  0  0  0  0  0  0
   58.0690   33.5820   45.9370 C   0  0  0  0  0  0  0  0  0  0  0  0
   59.0550   34.5580   45.7170 C   0  0  0  0  0  0  0  0  0  0  0  0
   59.9890   34.8540   46.7150 C   0  0  0  0  0  0  0  0  0  0  0  0
   59.9530   34.1720   47.9330 C   0  0  0  0  0  0  0  0  0  0  0  0
   58.9840   33.1880   48.1560 C   0  0  0  0  0  0  0  0  0  0  0  0
   58.9390   32.3330   49.6870 Cl  0  0  0  0  0  0  0  0  0  0  0  0
   58.0470   32.8900   47.1600 C   0  0  0  0  0  0  0  0  0  0  0  0
   57.7600   29.6250   45.0460 C   0  0  0  0  0  0  0  0  0  0  0  0
   57.2160   28.3700   44.7430 C   0  0  0  0  0  0  0  0  0  0  0  0
   57.5540   27.2430   45.5110 C   0  0  0  0  0  0  0  0  0  0  0  0
   57.0040   25.9470   45.2060 N   0  0  0  0  0  0  0  0  0  0  0  0
   57.7550   25.0890   44.5100 N   0  0  0  0  0  0  0  0  0  0  0  0
   57.3100   23.8510   44.1810 C   0  0  0  0  0  0  0  0  0  0  0  0
   56.0350   23.4700   44.5850 C   0  0  0  0  0  0  0  0  0  0  0  0
   55.5840   22.3320   44.2930 O   0  0  0  0  0  0  0  0  0  0  0  0
   55.2810   24.3370   45.3040 N   0  0  0  0  0  0  0  0  0  0  0  0
   55.7520   25.5690   45.6230 C   0  0  0  0  0  0  0  0  0  0  0  0
   55.0370   26.3390   46.3200 O   0  0  0  0  0  0  0  0  0  0  0  0
   58.4720   27.3820   46.5650 C   0  0  0  0  0  0  0  0  0  0  0  0
   59.0530   28.6290   46.8540 C   0  0  0  0  0  0  0  0  0  0  0  0
   59.9760   28.7860   48.0350 C   0  0  0  0  0  0  0  0  0  0  0  0
   60.8970   29.7810   47.7630 F   0  0  0  0  0  0  0  0  0  0  0  0
   59.2660   29.1270   49.1730 F   0  0  0  0  0  0  0  0  0  0  0  0
   60.6520   27.6040   48.2870 F   0  0  0  0  0  0  0  0  0  0  0  0
   58.6790   29.7500   46.0950 C   0  0  0  0  0  0  0  0  0  0  0  0
   57.4347   33.5370   43.8969 H   0  0  0  0  0  0  0  0  0  0  0  0
   56.1393   33.9173   45.0983 H   0  0  0  0  0  0  0  0  0  0  0  0
   59.0927   35.0917   44.7559 H   0  0  0  0  0  0  0  0  0  0  0  0
   60.7534   35.6255   46.5402 H   0  0  0  0  0  0  0  0  0  0  0  0
   60.6869   34.4086   48.7175 H   0  0  0  0  0  0  0  0  0  0  0  0
   57.2903   32.1110   47.3351 H   0  0  0  0  0  0  0  0  0  0  0  0
   56.5194   28.2662   43.8980 H   0  0  0  0  0  0  0  0  0  0  0  0
   57.9453   23.1615   43.6057 H   0  0  0  0  0  0  0  0  0  0  0  0
   58.7396   26.5043   47.1717 H   0  0  0  0  0  0  0  0  0  0  0  0
   59.1117   30.7345   46.3266 H   0  0  0  0  0  0  0  0  0  0  0  0
  1  2  2  0
  2  3  1  0
  3  4  1  0
  4  5  1  0
  5  6  2  0
  6  7  1  0
  7  8  2  0
  8  9  1  0
  9 10  1  0
  9 11  2  0
  2 12  1  0
 12 13  2  0
 13 14  1  0
 14 15  1  0
 15 16  1  0
 16 17  2  0
 17 18  1  0
 18 19  2  0
 18 20  1  0
 20 21  1  0
 21 22  2  0
 14 23  2  0
 23 24  1  0
 24 25  1  0
 25 26  1  0
 25 27  1  0
 25 28  1  0
 24 29  2  0
 11  5  1  0
 29 12  1  0
 21 15  1  0
  4 30  1  0
  4 31  1  0
  6 32  1  0
  7 33  1  0
  8 34  1  0
 11 35  1  0
 13 36  1  0
 17 37  1  0
 23 38  1  0
 29 39  1  0
M  CHG  2   3  -1  20  -1
M  END
>  <UniqueID>  (95) 
87

>  <SMILES>  (95) 
O=C([N-]Cc1cccc(Cl)c1)c1cc(-n2ncc(=O)[n-]c2=O)cc(C(F)(F)F)c1

>  <Energy>  (95) 
51.96505131593892

>  <Genealogy>  (95) 
O=C([N-]Cc1cccc(Cl)c1)c1cc(-n2ncc(=O)[n-]c2=O)cc(C(F)(F)F)c1 (protonated)
O=C([N-]Cc1cccc(Cl)c1)c1cc(-n2ncc(=O)[n-]c2=O)cc(C(F)(F)F)c1 (3D coordinates assigned)
O=C([N-]Cc1cccc(Cl)c1)c1cc(-n2ncc(=O)[n-]c2=O)cc(C(F)(F)F)c1 (optimized conformer: 51.96505131593892 kcal/mol)

>  <smiles>  (95) 
O=C(NCc1cccc(Cl)c1)c1cc(-n2ncc(=O)[nH]c2=O)cc(C(F)(F)F)c1

>  <score_type>  (95) 
oracle

>  <origin>  (95) 
adg

>  <m_score__min__energy>  (95) 
-11.44

>  <m_primary>  (95) 
energy

$$$$
95:0
     RDKit          3D

 37 40  0  0  1  0  0  0  0  0999 V2000
   56.9380   30.6650   42.4830 F   0  0  0  0  0  0  0  0  0  0  0  0
   57.4380   31.4110   43.5000 C   0  0  0  0  0  0  0  0  0  0  0  0
   57.9610   32.6470   43.1830 C   0  0  0  0  0  0  0  0  0  0  0  0
   58.4860   33.4570   44.1750 C   0  0  0  0  0  0  0  0  0  0  0  0
   58.4910   33.0210   45.5230 C   0  0  0  0  0  0  0  0  0  0  0  0
   59.1070   33.7880   46.4550 N   0  0  0  0  0  0  0  0  0  0  0  0
   59.7400   33.5680   47.4960 C   0  0  0  0  0  0  0  0  0  0  0  0
   59.0430   33.3090   48.6250 N   0  0  0  0  0  0  0  0  0  0  0  0
   59.6550   33.0620   49.7840 C   0  0  0  0  0  0  0  0  0  0  0  0
   58.8060   32.7930   50.9540 C   0  0  0  0  0  0  0  0  0  0  0  0
   57.7970   31.8360   50.9140 C   0  0  0  0  0  0  0  0  0  0  0  0
   56.9880   31.5630   51.9930 C   0  0  0  0  0  0  0  0  0  0  0  0
   57.1740   32.2380   53.1260 N   0  0  0  0  0  0  0  0  0  0  0  0
   58.1430   33.1840   53.2280 C   0  0  0  0  0  0  0  0  0  0  0  0
   58.9560   33.4620   52.1500 C   0  0  0  0  0  0  0  0  0  0  0  0
   60.9930   33.0680   49.8400 N   0  0  0  0  0  0  0  0  0  0  0  0
   61.7020   33.3230   48.7270 C   0  0  0  0  0  0  0  0  0  0  0  0
   63.0560   33.3200   48.8190 C   0  0  0  0  0  0  0  0  0  0  0  0
   63.7830   33.5790   47.6910 C   0  0  0  0  0  0  0  0  0  0  0  0
   63.2540   33.8420   46.4640 C   0  0  0  0  0  0  0  0  0  0  0  0
   61.8500   33.8410   46.3820 C   0  0  0  0  0  0  0  0  0  0  0  0
   61.1090   33.5850   47.4970 C   0  0  0  0  0  0  0  0  0  0  0  0
   57.9490   31.7470   45.8230 C   0  0  0  0  0  0  0  0  0  0  0  0
   57.4420   30.9850   44.8120 C   0  0  0  0  0  0  0  0  0  0  0  0
   57.9609   32.9904   42.1380 H   0  0  0  0  0  0  0  0  0  0  0  0
   58.9007   34.4424   43.9159 H   0  0  0  0  0  0  0  0  0  0  0  0
   57.6395   31.2744   49.9813 H   0  0  0  0  0  0  0  0  0  0  0  0
   56.1998   30.7991   51.9210 H   0  0  0  0  0  0  0  0  0  0  0  0
   58.2795   33.7298   54.1732 H   0  0  0  0  0  0  0  0  0  0  0  0
   59.7373   34.2303   52.2457 H   0  0  0  0  0  0  0  0  0  0  0  0
   61.4850   32.8800   50.7250 H   0  0  0  0  0  0  0  0  0  0  0  0
   63.5557   33.1143   49.7771 H   0  0  0  0  0  0  0  0  0  0  0  0
   64.8793   33.5747   47.7812 H   0  0  0  0  0  0  0  0  0  0  0  0
   63.8880   34.0435   45.5880 H   0  0  0  0  0  0  0  0  0  0  0  0
   61.3523   34.0458   45.4227 H   0  0  0  0  0  0  0  0  0  0  0  0
   57.9372   31.3769   46.8588 H   0  0  0  0  0  0  0  0  0  0  0  0
   57.0219   29.9969   45.0509 H   0  0  0  0  0  0  0  0  0  0  0  0
  1  2  1  0
  2  3  2  0
  3  4  1  0
  4  5  2  0
  5  6  1  0
  6  7  2  0
  7  8  1  0
  8  9  2  0
  9 10  1  0
 10 11  2  0
 11 12  1  0
 12 13  2  0
 13 14  1  0
 14 15  2  0
  9 16  1  0
 16 17  1  0
 17 18  2  0
 18 19  1  0
 19 20  2  0
 20 21  1  0
 21 22  2  0
  5 23  1  0
 23 24  2  0
 24  2  1  0
 22  7  1  0
 15 10  1  0
 22 17  1  0
  3 25  1  0
  4 26  1  0
 11 27  1  0
 12 28  1  0
 14 29  1  0
 15 30  1  0
 16 31  1  0
 18 32  1  0
 19 33  1  0
 20 34  1  0
 21 35  1  0
 23 36  1  0
 24 37  1  0
M  END
>  <smiles>  (96) 
Fc1ccc(N=c2nc(-c3ccncc3)[nH]c3ccccc23)cc1

>  <score_type>  (96) 
oracle

>  <origin>  (96) 
adg

>  <m_score__min__energy>  (96) 
-7.2999999999999998

>  <m_primary>  (96) 
energy

$$$$
96:0
     RDKit          3D

 58 62  0  0  0  0  0  0  0  0999 V2000
   61.7970   30.8200   48.6140 C   0  0  0  0  0  0  0  0  0  0  0  0
   61.1400   31.7790   47.8410 C   0  0  0  0  0  0  0  0  0  0  0  0
   59.9370   32.3520   48.2900 C   0  0  0  0  0  0  0  0  0  0  0  0
   59.2370   33.4240   47.4740 C   0  0  1  0  0  0  0  0  0  0  0  0
   60.1990   34.6120   47.2600 C   0  0  0  0  0  0  0  0  0  0  0  0
   59.6420   35.5890   46.2270 C   0  0  0  0  0  0  0  0  0  0  0  0
   59.5350   34.9010   44.8660 C   0  0  0  0  0  0  0  0  0  0  0  0
   58.7740   33.6030   44.9450 C   0  0  0  0  0  0  0  0  0  0  0  0
   58.2170   33.0730   43.7600 C   0  0  0  0  0  0  0  0  0  0  0  0
   57.5320   31.8660   43.8380 C   0  0  0  0  0  0  0  0  0  0  0  0
   57.3930   31.1920   45.0040 C   0  0  0  0  0  0  0  0  0  0  0  0
   57.9350   31.6600   46.1950 C   0  0  0  0  0  0  0  0  0  0  0  0
   58.6720   32.8680   46.1710 C   0  0  0  0  0  0  0  0  0  0  0  0
   56.6640   30.0380   44.7850 O   0  0  0  0  0  0  0  0  0  0  0  0
   56.3270   29.9850   43.3930 C   0  0  0  0  0  0  0  0  0  0  0  0
   56.9000   31.1710   42.8240 O   0  0  0  0  0  0  0  0  0  0  0  0
   59.4040   31.9380   49.5200 C   0  0  0  0  0  0  0  0  0  0  0  0
   60.0620   30.9750   50.2910 C   0  0  0  0  0  0  0  0  0  0  0  0
   61.2820   30.4230   49.8530 C   0  0  0  0  0  0  0  0  0  0  0  0
   62.0230   29.4920   50.6010 O   0  0  0  0  0  0  0  0  0  0  0  0
   62.3300   29.5670   51.9960 C   0  0  0  0  0  0  0  0  0  0  0  0
   63.4780   30.5570   52.2810 C   0  0  0  0  0  0  0  0  0  0  0  0
   63.7150   31.5180   51.1690 N   0  0  0  0  0  0  0  0  0  0  0  0
   62.8950   32.7450   51.3460 C   0  0  0  0  0  0  0  0  0  0  0  0
   63.3410   33.9170   50.4340 C   0  0  0  0  0  0  0  0  0  0  0  0
   64.2120   33.4410   49.2670 C   0  0  0  0  0  0  0  0  0  0  0  0
   65.4370   32.6550   49.7650 C   0  0  0  0  0  0  0  0  0  0  0  0
   65.1490   31.8800   51.0680 C   0  0  0  0  0  0  0  0  0  0  0  0
   62.7308   30.3710   48.2446 H   0  0  0  0  0  0  0  0  0  0  0  0
   61.5659   32.0882   46.8751 H   0  0  0  0  0  0  0  0  0  0  0  0
   58.3632   33.7924   48.0315 H   0  0  0  0  0  0  0  0  0  0  0  0
   60.3375   35.1392   48.2155 H   0  0  0  0  0  0  0  0  0  0  0  0
   61.1595   34.2227   46.8915 H   0  0  0  0  0  0  0  0  0  0  0  0
   58.6444   35.9265   46.5447 H   0  0  0  0  0  0  0  0  0  0  0  0
   60.3175   36.4532   46.1442 H   0  0  0  0  0  0  0  0  0  0  0  0
   59.0160   35.5744   44.1680 H   0  0  0  0  0  0  0  0  0  0  0  0
   60.5544   34.6753   44.5196 H   0  0  0  0  0  0  0  0  0  0  0  0
   58.3225   33.6014   42.8010 H   0  0  0  0  0  0  0  0  0  0  0  0
   57.7945   31.1047   47.1341 H   0  0  0  0  0  0  0  0  0  0  0  0
   56.7561   29.0864   42.9258 H   0  0  0  0  0  0  0  0  0  0  0  0
   55.2397   29.9355   43.2339 H   0  0  0  0  0  0  0  0  0  0  0  0
   58.4609   32.3745   49.8806 H   0  0  0  0  0  0  0  0  0  0  0  0
   59.6245   30.6464   51.2453 H   0  0  0  0  0  0  0  0  0  0  0  0
   61.4328   29.8970   52.5401 H   0  0  0  0  0  0  0  0  0  0  0  0
   62.6511   28.5687   52.3281 H   0  0  0  0  0  0  0  0  0  0  0  0
   63.2305   31.1271   53.1886 H   0  0  0  0  0  0  0  0  0  0  0  0
   64.3971   29.9648   52.4020 H   0  0  0  0  0  0  0  0  0  0  0  0
   63.4120   31.0760   50.2720 H   0  0  0  0  0  0  0  0  0  0  0  0
   61.8476   32.5014   51.1145 H   0  0  0  0  0  0  0  0  0  0  0  0
   63.0231   33.0753   52.3874 H   0  0  0  0  0  0  0  0  0  0  0  0
   62.4458   34.4119   50.0294 H   0  0  0  0  0  0  0  0  0  0  0  0
   63.9401   34.6103   51.0426 H   0  0  0  0  0  0  0  0  0  0  0  0
   63.6112   32.7911   48.6138 H   0  0  0  0  0  0  0  0  0  0  0  0
   64.5679   34.3250   48.7176 H   0  0  0  0  0  0  0  0  0  0  0  0
   65.7370   31.9380   48.9866 H   0  0  0  0  0  0  0  0  0  0  0  0
   66.2373   33.3796   49.9758 H   0  0  0  0  0  0  0  0  0  0  0  0
   65.7531   30.9608   51.0800 H   0  0  0  0  0  0  0  0  0  0  0  0
   65.4072   32.5242   51.9215 H   0  0  0  0  0  0  0  0  0  0  0  0
  1  2  2  0
  2  3  1  0
  3  4  1  0
  4  5  1  0
  5  6  1  0
  6  7  1  0
  7  8  1  0
  8  9  2  0
  9 10  1  0
 10 11  2  0
 11 12  1  0
 12 13  2  0
 11 14  1  0
 14 15  1  0
 15 16  1  0
  3 17  2  0
 17 18  1  0
 18 19  2  0
 19 20  1  0
 20 21  1  0
 21 22  1  0
 22 23  1  0
 23 24  1  0
 24 25  1  0
 25 26  1  0
 26 27  1  0
 27 28  1  0
 19  1  1  0
 28 23  1  0
 13  4  1  0
 13  8  1  0
 16 10  1  0
  1 29  1  0
  2 30  1  0
  4 31  1  1
  5 32  1  0
  5 33  1  0
  6 34  1  0
  6 35  1  0
  7 36  1  0
  7 37  1  0
  9 38  1  0
 12 39  1  0
 15 40  1  0
 15 41  1  0
 17 42  1  0
 18 43  1  0
 21 44  1  0
 21 45  1  0
 22 46  1  0
 22 47  1  0
 23 48  1  0
 24 49  1  0
 24 50  1  0
 25 51  1  0
 25 52  1  0
 26 53  1  0
 26 54  1  0
 27 55  1  0
 27 56  1  0
 28 57  1  0
 28 58  1  0
M  CHG  1  23   1
M  END
>  <UniqueID>  (97) 
88

>  <SMILES>  (97) 
c1cc([C@H]2CCCc3cc4c(cc32)OCO4)ccc1OCC[NH+]1CCCCC1

>  <Energy>  (97) 
98.90810047209386

>  <Genealogy>  (97) 
c1cc(C2CCCc3cc4c(cc32)OCO4)ccc1OCC[NH+]1CCCCC1 (protonated)
c1cc([C@H]2CCCc3cc4c(cc32)OCO4)ccc1OCC[NH+]1CCCCC1 (chirality)
c1cc([C@H]2CCCc3cc4c(cc32)OCO4)ccc1OCC[NH+]1CCCCC1 (3D coordinates assigned)
c1cc([C@H]2CCCc3cc4c(cc32)OCO4)ccc1OCC[NH+]1CCCCC1 (nonaromatic ring conformer: 98.90810047209386 kcal/mol)

>  <smiles>  (97) 
c1cc(C2CCCc3cc4c(cc32)OCO4)ccc1OCCN1CCCCC1

>  <score_type>  (97) 
oracle

>  <origin>  (97) 
adg

>  <m_score__min__energy>  (97) 
-6.3600000000000003

>  <m_primary>  (97) 
energy

$$$$
