0:0
     RDKit          3D

 40 41  0  0  0  0  0  0  0  0999 V2000
   59.9020   34.6160   47.0390 C   0  0  0  0  0  0  0  0  0  0  0  0
   58.4780   34.3150   46.9470 N   0  0  0  0  0  0  0  0  0  0  0  0
   58.0810   33.8450   45.3230 S   0  0  0  0  0  0  0  0  0  0  0  0
   56.8280   34.5590   44.8960 O   0  0  0  0  0  0  0  0  0  0  0  0
   59.1930   34.2420   44.3910 O   0  0  0  0  0  0  0  0  0  0  0  0
   57.8090   32.1060   45.2360 C   0  0  0  0  0  0  0  0  0  0  0  0
   58.3600   31.2510   46.1990 C   0  0  0  0  0  0  0  0  0  0  0  0
   58.1290   29.8740   46.1340 C   0  0  0  0  0  0  0  0  0  0  0  0
   57.3320   29.3320   45.1080 C   0  0  0  0  0  0  0  0  0  0  0  0
   57.0850   27.8720   45.0270 C   0  0  0  0  0  0  0  0  0  0  0  0
   57.8230   27.1570   44.2950 O   0  0  0  0  0  0  0  0  0  0  0  0
   55.9850   27.2690   45.7300 N   0  0  0  0  0  0  0  0  0  0  0  0
   55.9100   25.8680   46.0480 C   0  0  0  0  0  0  0  0  0  0  0  0
   56.7830   25.2820   46.9810 C   0  0  0  0  0  0  0  0  0  0  0  0
   56.6820   23.9210   47.2810 C   0  0  0  0  0  0  0  0  0  0  0  0
   55.6970   23.1380   46.6740 C   0  0  0  0  0  0  0  0  0  0  0  0
   54.7870   23.7200   45.7740 C   0  0  0  0  0  0  0  0  0  0  0  0
   53.7710   22.9500   45.1180 N   0  0  0  0  0  0  0  0  0  0  0  0
   52.3610   23.1740   45.2000 C   0  0  0  0  0  0  0  0  0  0  0  0
   51.5850   22.1830   45.2660 O   0  0  0  0  0  0  0  0  0  0  0  0
   51.8430   24.4740   45.1550 O   0  0  0  0  0  0  0  0  0  0  0  0
   50.7390   24.8320   44.3340 C   0  0  0  0  0  0  0  0  0  0  0  0
   54.9100   25.0800   45.4580 C   0  0  0  0  0  0  0  0  0  0  0  0
   56.7870   30.1980   44.1430 C   0  0  0  0  0  0  0  0  0  0  0  0
   57.0200   31.5740   44.2110 C   0  0  0  0  0  0  0  0  0  0  0  0
   60.1960   34.6781   48.0972 H   0  0  0  0  0  0  0  0  0  0  0  0
   60.4778   33.8197   46.5446 H   0  0  0  0  0  0  0  0  0  0  0  0
   60.1063   35.5772   46.5446 H   0  0  0  0  0  0  0  0  0  0  0  0
   58.9772   31.6650   47.0100 H   0  0  0  0  0  0  0  0  0  0  0  0
   58.5730   29.2093   46.8897 H   0  0  0  0  0  0  0  0  0  0  0  0
   55.1440   27.8590   45.9240 H   0  0  0  0  0  0  0  0  0  0  0  0
   57.5484   25.8971   47.4767 H   0  0  0  0  0  0  0  0  0  0  0  0
   57.3806   23.4645   47.9977 H   0  0  0  0  0  0  0  0  0  0  0  0
   55.6332   22.0635   46.9008 H   0  0  0  0  0  0  0  0  0  0  0  0
   49.8845   25.1091   44.9689 H   0  0  0  0  0  0  0  0  0  0  0  0
   51.0162   25.6863   43.6989 H   0  0  0  0  0  0  0  0  0  0  0  0
   50.4621   23.9776   43.6989 H   0  0  0  0  0  0  0  0  0  0  0  0
   54.2138   25.5354   44.7384 H   0  0  0  0  0  0  0  0  0  0  0  0
   56.1722   29.7886   43.3279 H   0  0  0  0  0  0  0  0  0  0  0  0
   56.5810   32.2418   43.4551 H   0  0  0  0  0  0  0  0  0  0  0  0
  1  2  1  0
  2  3  1  0
  3  4  2  0
  3  5  2  0
  3  6  1  0
  6  7  2  0
  7  8  1  0
  8  9  2  0
  9 10  1  0
 10 11  2  0
 10 12  1  0
 12 13  1  0
 13 14  2  0
 14 15  1  0
 15 16  2  0
 16 17  1  0
 17 18  1  0
 18 19  1  0
 19 20  2  0
 19 21  1  0
 21 22  1  0
 17 23  2  0
  9 24  1  0
 24 25  2  0
 25  6  1  0
 23 13  1  0
  1 26  1  0
  1 27  1  0
  1 28  1  0
  7 29  1  0
  8 30  1  0
 12 31  1  0
 14 32  1  0
 15 33  1  0
 16 34  1  0
 22 35  1  0
 22 36  1  0
 22 37  1  0
 23 38  1  0
 24 39  1  0
 25 40  1  0
M  CHG  2   2  -1  18  -1
M  END
>  <UniqueID>  (1) 
1

>  <SMILES>  (1) 
C[N-]S(=O)(=O)c1ccc(C(=O)Nc2cccc([N-]C(=O)OC)c2)cc1

>  <Energy>  (1) 
44.56926302663561

>  <Genealogy>  (1) 
C[N-]S(=O)(=O)c1ccc(C(=O)Nc2cccc([N-]C(=O)OC)c2)cc1 (protonated)
C[N-]S(=O)(=O)c1ccc(C(=O)Nc2cccc([N-]C(=O)OC)c2)cc1 (3D coordinates assigned)
C[N-]S(=O)(=O)c1ccc(C(=O)Nc2cccc([N-]C(=O)OC)c2)cc1 (optimized conformer: 44.56926302663561 kcal/mol)

>  <smiles>  (1) 
CNS(=O)(=O)c1ccc(C(=O)Nc2cccc(NC(=O)OC)c2)cc1

>  <score_type>  (1) 
oracle

>  <origin>  (1) 
adg

>  <m_score__min__energy>  (1) 
-9.6899999999999995

>  <m_primary>  (1) 
energy

$$$$
1:0
     RDKit          3D

 44 46  0  0  0  0  0  0  0  0999 V2000
   55.1940   29.0630   44.7200 N   0  0  0  0  0  0  0  0  0  0  0  0
   56.5380   30.1230   44.4840 S   0  0  0  0  0  0  0  0  0  0  0  0
   56.9610   30.0590   43.0420 O   0  0  0  0  0  0  0  0  0  0  0  0
   56.1330   31.5350   44.8010 O   0  0  0  0  0  0  0  0  0  0  0  0
   57.8730   29.6350   45.5410 C   0  0  0  0  0  0  0  0  0  0  0  0
   58.6780   30.6330   46.1150 C   0  0  0  0  0  0  0  0  0  0  0  0
   59.7250   30.3090   46.9900 C   0  0  0  0  0  0  0  0  0  0  0  0
   60.5450   31.4250   47.6110 C   0  0  1  0  0  0  0  0  0  0  0  0
   62.0360   31.3170   47.1970 C   0  0  0  0  0  0  0  0  0  0  0  0
   62.7470   32.6370   47.4860 C   0  0  0  0  0  0  0  0  0  0  0  0
   62.0370   33.8140   46.7980 C   0  0  0  0  0  0  0  0  0  0  0  0
   60.6010   33.4550   46.3860 C   0  0  0  0  0  0  0  0  0  0  0  0
   59.9500   32.7060   47.3980 O   0  0  0  0  0  0  0  0  0  0  0  0
   59.9580   28.9590   47.2960 C   0  0  0  0  0  0  0  0  0  0  0  0
   59.1720   27.9580   46.7270 C   0  0  0  0  0  0  0  0  0  0  0  0
   58.1260   28.2750   45.8410 C   0  0  0  0  0  0  0  0  0  0  0  0
   57.3410   27.2260   45.2390 N   0  0  0  0  0  0  0  0  0  0  0  0
   57.4990   25.8140   45.5940 C   0  0  0  0  0  0  0  0  0  0  0  0
   56.2740   25.0340   45.2070 C   0  0  0  0  0  0  0  0  0  0  0  0
   55.1210   25.2050   45.9100 N   0  0  0  0  0  0  0  0  0  0  0  0
   53.9920   24.5020   45.6240 C   0  0  0  0  0  0  0  0  0  0  0  0
   53.9970   23.5660   44.5880 C   0  0  0  0  0  0  0  0  0  0  0  0
   55.1690   23.3610   43.8570 C   0  0  0  0  0  0  0  0  0  0  0  0
   56.3180   24.0920   44.1670 C   0  0  0  0  0  0  0  0  0  0  0  0
   57.4610   23.8820   43.4630 F   0  0  0  0  0  0  0  0  0  0  0  0
   54.7170   29.3660   45.5990 H   0  0  0  0  0  0  0  0  0  0  0  0
   58.4835   31.6884   45.8736 H   0  0  0  0  0  0  0  0  0  0  0  0
   60.5392   31.3033   48.7042 H   0  0  0  0  0  0  0  0  0  0  0  0
   62.5168   30.5098   47.7690 H   0  0  0  0  0  0  0  0  0  0  0  0
   62.1004   31.0963   46.1213 H   0  0  0  0  0  0  0  0  0  0  0  0
   62.7561   32.8091   48.5724 H   0  0  0  0  0  0  0  0  0  0  0  0
   63.7730   32.5726   47.0945 H   0  0  0  0  0  0  0  0  0  0  0  0
   62.0051   34.6657   47.4934 H   0  0  0  0  0  0  0  0  0  0  0  0
   62.5999   34.0666   45.8873 H   0  0  0  0  0  0  0  0  0  0  0  0
   60.0367   34.3820   46.2065 H   0  0  0  0  0  0  0  0  0  0  0  0
   60.6430   32.8437   45.4724 H   0  0  0  0  0  0  0  0  0  0  0  0
   60.7673   28.6887   47.9903 H   0  0  0  0  0  0  0  0  0  0  0  0
   59.3725   26.9051   46.9743 H   0  0  0  0  0  0  0  0  0  0  0  0
   56.6360   27.4710   44.5090 H   0  0  0  0  0  0  0  0  0  0  0  0
   58.3718   25.4032   45.0653 H   0  0  0  0  0  0  0  0  0  0  0  0
   57.6427   25.7344   46.6817 H   0  0  0  0  0  0  0  0  0  0  0  0
   53.0757   24.6709   46.2086 H   0  0  0  0  0  0  0  0  0  0  0  0
   53.0869   22.9958   44.3500 H   0  0  0  0  0  0  0  0  0  0  0  0
   55.1872   22.6257   43.0391 H   0  0  0  0  0  0  0  0  0  0  0  0
  1  2  1  0
  2  3  2  0
  2  4  2  0
  2  5  1  0
  5  6  2  0
  6  7  1  0
  7  8  1  0
  8  9  1  0
  9 10  1  0
 10 11  1  0
 11 12  1  0
 12 13  1  0
  7 14  2  0
 14 15  1  0
 15 16  2  0
 16 17  1  0
 17 18  1  0
 18 19  1  0
 19 20  2  0
 20 21  1  0
 21 22  2  0
 22 23  1  0
 23 24  2  0
 24 25  1  0
 16  5  1  0
 24 19  1  0
 13  8  1  0
  1 26  1  0
  6 27  1  0
  8 28  1  1
  9 29  1  0
  9 30  1  0
 10 31  1  0
 10 32  1  0
 11 33  1  0
 11 34  1  0
 12 35  1  0
 12 36  1  0
 14 37  1  0
 15 38  1  0
 17 39  1  0
 18 40  1  0
 18 41  1  0
 21 42  1  0
 22 43  1  0
 23 44  1  0
M  CHG  1   1  -1
M  END
>  <UniqueID>  (2) 
2

>  <SMILES>  (2) 
[NH-]S(=O)(=O)c1cc([C@H]2CCCCO2)ccc1NCc1ncccc1F

>  <Energy>  (2) 
56.8893463974131

>  <Genealogy>  (2) 
[NH-]S(=O)(=O)c1cc(C2CCCCO2)ccc1NCc1ncccc1F (protonated)
[NH-]S(=O)(=O)c1cc([C@H]2CCCCO2)ccc1NCc1ncccc1F (chirality)
[NH-]S(=O)(=O)c1cc([C@H]2CCCCO2)ccc1NCc1ncccc1F (3D coordinates assigned)
[NH-]S(=O)(=O)c1cc([C@H]2CCCCO2)ccc1NCc1ncccc1F (nonaromatic ring conformer: 56.8893463974131 kcal/mol)

>  <smiles>  (2) 
NS(=O)(=O)c1cc(C2CCCCO2)ccc1NCc1ncccc1F

>  <score_type>  (2) 
oracle

>  <origin>  (2) 
adg

>  <m_score__min__energy>  (2) 
-11.17

>  <m_primary>  (2) 
energy

$$$$
2:0
     RDKit          3D

 38 39  0  0  0  0  0  0  0  0999 V2000
   55.1590   26.5950   45.9880 O   0  0  0  0  0  0  0  0  0  0  0  0
   56.3710   26.4710   45.9030 C   0  0  0  0  0  0  0  0  0  0  0  0
   57.2870   27.6210   46.2330 C   0  0  1  0  0  0  0  0  0  0  0  0
   58.4550   27.1620   47.1190 C   0  0  0  0  0  0  0  0  0  0  0  0
   59.1260   28.3280   47.7880 C   0  0  0  0  0  0  0  0  0  0  0  0
   59.2670   28.3230   49.0410 O   0  0  0  0  0  0  0  0  0  0  0  0
   59.6050   29.4300   47.0030 N   0  0  0  0  0  0  0  0  0  0  0  0
   60.5160   30.4300   47.4900 C   0  0  0  0  0  0  0  0  0  0  0  0
   60.2360   31.0850   48.7000 C   0  0  0  0  0  0  0  0  0  0  0  0
   61.0950   32.0780   49.1820 C   0  0  0  0  0  0  0  0  0  0  0  0
   62.2320   32.4360   48.4530 C   0  0  0  0  0  0  0  0  0  0  0  0
   62.5060   31.8070   47.2360 C   0  0  0  0  0  0  0  0  0  0  0  0
   61.6510   30.8120   46.7510 C   0  0  0  0  0  0  0  0  0  0  0  0
   57.8260   28.1910   44.9950 N   0  0  0  0  0  0  0  0  0  0  0  0
   56.7910   29.4480   44.3820 S   0  0  0  0  0  0  0  0  0  0  0  0
   55.4380   29.3440   45.0310 O   0  0  0  0  0  0  0  0  0  0  0  0
   56.6370   29.2810   42.8970 O   0  0  0  0  0  0  0  0  0  0  0  0
   57.4980   31.0280   44.7100 C   0  0  0  0  0  0  0  0  0  0  0  0
   57.7670   31.4260   46.0280 C   0  0  0  0  0  0  0  0  0  0  0  0
   58.3350   32.6790   46.2810 C   0  0  0  0  0  0  0  0  0  0  0  0
   58.6330   33.5410   45.2210 C   0  0  0  0  0  0  0  0  0  0  0  0
   59.3460   35.1110   45.5390 Cl  0  0  0  0  0  0  0  0  0  0  0  0
   58.3610   33.1490   43.9050 C   0  0  0  0  0  0  0  0  0  0  0  0
   57.7930   31.8970   43.6510 C   0  0  0  0  0  0  0  0  0  0  0  0
   56.7985   25.5096   45.5821 H   0  0  0  0  0  0  0  0  0  0  0  0
   56.7032   28.3764   46.7795 H   0  0  0  0  0  0  0  0  0  0  0  0
   58.0717   26.4784   47.8909 H   0  0  0  0  0  0  0  0  0  0  0  0
   59.1949   26.6554   46.4819 H   0  0  0  0  0  0  0  0  0  0  0  0
   59.2230   29.5450   46.0370 H   0  0  0  0  0  0  0  0  0  0  0  0
   59.3359   30.8156   49.2721 H   0  0  0  0  0  0  0  0  0  0  0  0
   60.8751   32.5781   50.1368 H   0  0  0  0  0  0  0  0  0  0  0  0
   62.9105   33.2121   48.8368 H   0  0  0  0  0  0  0  0  0  0  0  0
   63.3964   32.0950   46.6578 H   0  0  0  0  0  0  0  0  0  0  0  0
   61.8667   30.3261   45.7880 H   0  0  0  0  0  0  0  0  0  0  0  0
   57.5308   30.7514   46.8642 H   0  0  0  0  0  0  0  0  0  0  0  0
   58.5476   32.9868   47.3154 H   0  0  0  0  0  0  0  0  0  0  0  0
   58.5943   33.8264   43.0703 H   0  0  0  0  0  0  0  0  0  0  0  0
   57.5769   31.5930   42.6162 H   0  0  0  0  0  0  0  0  0  0  0  0
  1  2  2  0
  2  3  1  0
  3  4  1  0
  4  5  1  0
  5  6  2  0
  5  7  1  0
  7  8  1  0
  8  9  2  0
  9 10  1  0
 10 11  2  0
 11 12  1  0
 12 13  2  0
  3 14  1  0
 14 15  1  0
 15 16  2  0
 15 17  2  0
 15 18  1  0
 18 19  2  0
 19 20  1  0
 20 21  2  0
 21 22  1  0
 21 23  1  0
 23 24  2  0
 13  8  1  0
 24 18  1  0
  2 25  1  0
  3 26  1  1
  4 27  1  0
  4 28  1  0
  7 29  1  0
  9 30  1  0
 10 31  1  0
 11 32  1  0
 12 33  1  0
 13 34  1  0
 19 35  1  0
 20 36  1  0
 23 37  1  0
 24 38  1  0
M  CHG  1  14  -1
M  END
>  <UniqueID>  (3) 
3

>  <SMILES>  (3) 
O=C[C@@H](CC(=O)Nc1ccccc1)[N-]S(=O)(=O)c1ccc(Cl)cc1

>  <Energy>  (3) 
36.76168548110336

>  <Genealogy>  (3) 
O=CC(CC(=O)Nc1ccccc1)[N-]S(=O)(=O)c1ccc(Cl)cc1 (protonated)
O=C[C@@H](CC(=O)Nc1ccccc1)[N-]S(=O)(=O)c1ccc(Cl)cc1 (chirality)
O=C[C@@H](CC(=O)Nc1ccccc1)[N-]S(=O)(=O)c1ccc(Cl)cc1 (3D coordinates assigned)
O=C[C@@H](CC(=O)Nc1ccccc1)[N-]S(=O)(=O)c1ccc(Cl)cc1 (optimized conformer: 36.76168548110336 kcal/mol)

>  <smiles>  (3) 
O=CC(CC(=O)Nc1ccccc1)NS(=O)(=O)c1ccc(Cl)cc1

>  <score_type>  (3) 
oracle

>  <origin>  (3) 
adg

>  <m_score__min__energy>  (3) 
-9.4100000000000001

>  <m_primary>  (3) 
energy

$$$$
3:0
     RDKit          3D

 42 44  0  0  0  0  0  0  0  0999 V2000
   62.8750   33.4730   47.0960 C   0  0  0  0  0  0  0  0  0  0  0  0
   61.6350   34.1460   47.2960 O   0  0  0  0  0  0  0  0  0  0  0  0
   60.4100   33.7230   46.7610 C   0  0  0  0  0  0  0  0  0  0  0  0
   59.5820   34.6790   46.1600 C   0  0  0  0  0  0  0  0  0  0  0  0
   58.3560   34.3080   45.6050 C   0  0  0  0  0  0  0  0  0  0  0  0
   57.9410   32.9750   45.6490 C   0  0  0  0  0  0  0  0  0  0  0  0
   58.7480   32.0040   46.2620 C   0  0  0  0  0  0  0  0  0  0  0  0
   58.3200   30.5650   46.2770 C   0  0  0  0  0  0  0  0  0  0  0  0
   57.3540   30.3400   45.2090 N   0  0  0  0  0  0  0  0  0  0  0  0
   56.3240   29.3400   45.1740 C   0  0  0  0  0  0  0  0  0  0  0  0
   55.1480   29.7200   44.9290 O   0  0  0  0  0  0  0  0  0  0  0  0
   56.5810   27.8930   45.4060 C   0  0  0  0  0  0  0  0  0  0  0  0
   57.8930   27.3920   45.3910 C   0  0  0  0  0  0  0  0  0  0  0  0
   58.1260   26.0320   45.6080 C   0  0  0  0  0  0  0  0  0  0  0  0
   59.4490   25.5840   45.6290 O   0  0  0  0  0  0  0  0  0  0  0  0
   57.0360   25.1600   45.8180 C   0  0  0  0  0  0  0  0  0  0  0  0
   57.2370   23.7060   46.0110 C   0  0  0  0  0  0  0  0  0  0  0  0
   58.0180   22.9720   45.1030 C   0  0  0  0  0  0  0  0  0  0  0  0
   58.2190   21.6020   45.2960 C   0  0  0  0  0  0  0  0  0  0  0  0
   57.6460   20.9570   46.3950 C   0  0  0  0  0  0  0  0  0  0  0  0
   56.8720   21.6830   47.3060 C   0  0  0  0  0  0  0  0  0  0  0  0
   56.6690   23.0530   47.1180 C   0  0  0  0  0  0  0  0  0  0  0  0
   55.7370   25.7020   45.8260 C   0  0  0  0  0  0  0  0  0  0  0  0
   54.7310   24.9630   46.0060 O   0  0  0  0  0  0  0  0  0  0  0  0
   55.5520   27.0320   45.6220 N   0  0  0  0  0  0  0  0  0  0  0  0
   59.9890   32.3800   46.8050 C   0  0  0  0  0  0  0  0  0  0  0  0
   63.3220   33.2304   48.0714 H   0  0  0  0  0  0  0  0  0  0  0  0
   62.7017   32.5452   46.5311 H   0  0  0  0  0  0  0  0  0  0  0  0
   63.5585   34.1239   46.5311 H   0  0  0  0  0  0  0  0  0  0  0  0
   59.9003   35.7313   46.1249 H   0  0  0  0  0  0  0  0  0  0  0  0
   57.7154   35.0670   45.1321 H   0  0  0  0  0  0  0  0  0  0  0  0
   56.9787   32.6853   45.2018 H   0  0  0  0  0  0  0  0  0  0  0  0
   59.1967   29.9190   46.1219 H   0  0  0  0  0  0  0  0  0  0  0  0
   57.8596   30.3270   47.2473 H   0  0  0  0  0  0  0  0  0  0  0  0
   58.7383   28.0717   45.2081 H   0  0  0  0  0  0  0  0  0  0  0  0
   60.2420   26.2030   45.5270 H   0  0  0  0  0  0  0  0  0  0  0  0
   58.4727   23.4765   44.2377 H   0  0  0  0  0  0  0  0  0  0  0  0
   58.8295   21.0307   44.5812 H   0  0  0  0  0  0  0  0  0  0  0  0
   57.8036   19.8785   46.5437 H   0  0  0  0  0  0  0  0  0  0  0  0
   56.4223   21.1750   48.1718 H   0  0  0  0  0  0  0  0  0  0  0  0
   56.0629   23.6216   47.8386 H   0  0  0  0  0  0  0  0  0  0  0  0
   60.6357   31.6198   47.2675 H   0  0  0  0  0  0  0  0  0  0  0  0
  1  2  1  0
  2  3  1  0
  3  4  2  0
  4  5  1  0
  5  6  2  0
  6  7  1  0
  7  8  1  0
  8  9  1  0
  9 10  1  0
 10 11  2  0
 10 12  1  0
 12 13  2  0
 13 14  1  0
 14 15  1  0
 14 16  2  0
 16 17  1  0
 17 18  2  0
 18 19  1  0
 19 20  2  0
 20 21  1  0
 21 22  2  0
 16 23  1  0
 23 24  2  0
 23 25  1  0
  7 26  2  0
 26  3  1  0
 25 12  1  0
 22 17  1  0
  1 27  1  0
  1 28  1  0
  1 29  1  0
  4 30  1  0
  5 31  1  0
  6 32  1  0
  8 33  1  0
  8 34  1  0
 13 35  1  0
 15 36  1  0
 18 37  1  0
 19 38  1  0
 20 39  1  0
 21 40  1  0
 22 41  1  0
 26 42  1  0
M  CHG  2   9  -1  25  -1
M  END
>  <UniqueID>  (4) 
4

>  <SMILES>  (4) 
COc1cccc(C[N-]C(=O)c2cc(O)c(-c3ccccc3)c(=O)[n-]2)c1

>  <Energy>  (4) 
54.10551725133774

>  <Genealogy>  (4) 
COc1cccc(C[N-]C(=O)c2cc(O)c(-c3ccccc3)c(=O)[n-]2)c1 (protonated)
COc1cccc(C[N-]C(=O)c2cc(O)c(-c3ccccc3)c(=O)[n-]2)c1 (3D coordinates assigned)
COc1cccc(C[N-]C(=O)c2cc(O)c(-c3ccccc3)c(=O)[n-]2)c1 (optimized conformer: 54.10551725133774 kcal/mol)

>  <smiles>  (4) 
COc1cccc(CNC(=O)c2cc(O)c(-c3ccccc3)c(=O)[nH]2)c1

>  <score_type>  (4) 
oracle

>  <origin>  (4) 
adg

>  <m_score__min__energy>  (4) 
-11.859999999999999

>  <m_primary>  (4) 
energy

$$$$
4:0
     RDKit          3D

 56 57  0  0  0  0  0  0  0  0999 V2000
   59.4180   29.7740   49.2880 C   0  0  0  0  0  0  0  0  0  0  0  0
   58.8910   30.9610   48.4890 C   0  0  0  0  0  0  0  0  0  0  0  0
   60.0280   31.8010   47.9650 C   0  0  0  0  0  0  0  0  0  0  0  0
   61.3320   31.5860   48.4340 C   0  0  0  0  0  0  0  0  0  0  0  0
   62.4040   32.3410   47.9380 C   0  0  0  0  0  0  0  0  0  0  0  0
   63.8010   32.0690   48.4300 C   0  0  0  0  0  0  0  0  0  0  0  0
   62.1460   33.3110   46.9460 C   0  0  0  0  0  0  0  0  0  0  0  0
   63.2370   34.1590   46.3640 C   0  0  0  0  0  0  0  0  0  0  0  0
   60.8750   33.4870   46.4950 N   0  0  0  0  0  0  0  0  0  0  0  0
   59.8220   32.7610   46.9600 C   0  0  0  0  0  0  0  0  0  0  0  0
   58.5370   32.9590   46.4340 O   0  0  0  0  0  0  0  0  0  0  0  0
   58.2820   33.2920   45.0700 C   0  0  0  0  0  0  0  0  0  0  0  0
   57.8700   32.0520   44.2780 C   0  0  0  0  0  0  0  0  0  0  0  0
   57.0380   31.1920   45.1160 N   0  0  0  0  0  0  0  0  0  0  0  0
   56.3940   29.8700   44.1860 S   0  0  0  0  0  0  0  0  0  0  0  0
   55.1560   29.3530   44.8670 O   0  0  0  0  0  0  0  0  0  0  0  0
   56.0380   30.2960   42.7860 O   0  0  0  0  0  0  0  0  0  0  0  0
   57.5980   28.5570   44.1060 C   0  0  0  0  0  0  0  0  0  0  0  0
   58.6620   28.7160   45.1970 C   0  0  0  0  0  0  0  0  0  0  0  0
   58.1610   28.2150   46.5540 C   0  0  0  0  0  0  0  0  0  0  0  0
   57.0700   27.3270   46.3760 O   0  0  0  0  0  0  0  0  0  0  0  0
   57.3960   26.0260   46.8260 C   0  0  0  0  0  0  0  0  0  0  0  0
   56.9370   25.0440   45.8330 N   0  0  0  0  0  0  0  0  0  0  0  0
   57.8600   24.2180   45.2500 C   0  0  0  0  0  0  0  0  0  0  0  0
   57.4690   23.2690   44.3090 C   0  0  0  0  0  0  0  0  0  0  0  0
   56.1220   23.1980   43.9550 C   0  0  0  0  0  0  0  0  0  0  0  0
   55.7300   22.3450   43.1170 O   0  0  0  0  0  0  0  0  0  0  0  0
   55.2290   24.0390   44.5340 N   0  0  0  0  0  0  0  0  0  0  0  0
   55.6170   24.9590   45.4560 C   0  0  0  0  0  0  0  0  0  0  0  0
   54.7500   25.7240   45.9590 O   0  0  0  0  0  0  0  0  0  0  0  0
   59.3242   29.9853   50.3634 H   0  0  0  0  0  0  0  0  0  0  0  0
   58.8341   28.8758   49.0385 H   0  0  0  0  0  0  0  0  0  0  0  0
   60.4759   29.6047   49.0385 H   0  0  0  0  0  0  0  0  0  0  0  0
   58.2965   30.5897   47.6413 H   0  0  0  0  0  0  0  0  0  0  0  0
   58.2690   31.5825   49.1499 H   0  0  0  0  0  0  0  0  0  0  0  0
   61.5156   30.8171   49.1989 H   0  0  0  0  0  0  0  0  0  0  0  0
   63.8086   32.0675   49.5300 H   0  0  0  0  0  0  0  0  0  0  0  0
   64.1358   31.0888   48.0597 H   0  0  0  0  0  0  0  0  0  0  0  0
   64.4791   32.8520   48.0597 H   0  0  0  0  0  0  0  0  0  0  0  0
   63.8216   34.6134   47.1774 H   0  0  0  0  0  0  0  0  0  0  0  0
   63.8961   33.5337   45.7438 H   0  0  0  0  0  0  0  0  0  0  0  0
   62.7937   34.9520   45.7438 H   0  0  0  0  0  0  0  0  0  0  0  0
   57.4716   34.0345   45.0252 H   0  0  0  0  0  0  0  0  0  0  0  0
   59.2020   33.7032   44.6289 H   0  0  0  0  0  0  0  0  0  0  0  0
   57.3007   32.3581   43.3880 H   0  0  0  0  0  0  0  0  0  0  0  0
   58.7695   31.5006   43.9668 H   0  0  0  0  0  0  0  0  0  0  0  0
   57.0868   27.5923   44.2407 H   0  0  0  0  0  0  0  0  0  0  0  0
   58.0947   28.5981   43.1254 H   0  0  0  0  0  0  0  0  0  0  0  0
   59.5542   28.1395   44.9115 H   0  0  0  0  0  0  0  0  0  0  0  0
   58.8979   29.7862   45.2924 H   0  0  0  0  0  0  0  0  0  0  0  0
   58.9771   27.6889   47.0709 H   0  0  0  0  0  0  0  0  0  0  0  0
   57.8293   29.0753   47.1539 H   0  0  0  0  0  0  0  0  0  0  0  0
   58.4856   25.9418   46.9508 H   0  0  0  0  0  0  0  0  0  0  0  0
   56.9047   25.8340   47.7913 H   0  0  0  0  0  0  0  0  0  0  0  0
   58.9208   24.3048   45.5276 H   0  0  0  0  0  0  0  0  0  0  0  0
   58.2062   22.5905   43.8550 H   0  0  0  0  0  0  0  0  0  0  0  0
  1  2  1  0
  2  3  1  0
  3  4  2  0
  4  5  1  0
  5  6  1  0
  5  7  2  0
  7  8  1  0
  7  9  1  0
  9 10  2  0
 10 11  1  0
 11 12  1  0
 12 13  1  0
 13 14  1  0
 14 15  1  0
 15 16  2  0
 15 17  2  0
 15 18  1  0
 18 19  1  0
 19 20  1  0
 20 21  1  0
 21 22  1  0
 22 23  1  0
 23 24  1  0
 24 25  2  0
 25 26  1  0
 26 27  2  0
 26 28  1  0
 28 29  1  0
 29 30  2  0
 10  3  1  0
 29 23  1  0
  1 31  1  0
  1 32  1  0
  1 33  1  0
  2 34  1  0
  2 35  1  0
  4 36  1  0
  6 37  1  0
  6 38  1  0
  6 39  1  0
  8 40  1  0
  8 41  1  0
  8 42  1  0
 12 43  1  0
 12 44  1  0
 13 45  1  0
 13 46  1  0
 18 47  1  0
 18 48  1  0
 19 49  1  0
 19 50  1  0
 20 51  1  0
 20 52  1  0
 22 53  1  0
 22 54  1  0
 24 55  1  0
 25 56  1  0
M  CHG  2  14  -1  28  -1
M  END
>  <UniqueID>  (5) 
5

>  <SMILES>  (5) 
CCc1cc(C)c(C)nc1OCC[N-]S(=O)(=O)CCCOCn1ccc(=O)[n-]c1=O

>  <Energy>  (5) 
45.50137768053473

>  <Genealogy>  (5) 
CCc1cc(C)c(C)nc1OCC[N-]S(=O)(=O)CCCOCn1ccc(=O)[n-]c1=O (protonated)
CCc1cc(C)c(C)nc1OCC[N-]S(=O)(=O)CCCOCn1ccc(=O)[n-]c1=O (3D coordinates assigned)
CCc1cc(C)c(C)nc1OCC[N-]S(=O)(=O)CCCOCn1ccc(=O)[n-]c1=O (optimized conformer: 45.50137768053473 kcal/mol)

>  <smiles>  (5) 
CCc1cc(C)c(C)nc1OCCNS(=O)(=O)CCCOCn1ccc(=O)[nH]c1=O

>  <score_type>  (5) 
oracle

>  <origin>  (5) 
adg

>  <m_score__min__energy>  (5) 
-11.99

>  <m_primary>  (5) 
energy

$$$$
5:0
     RDKit          3D

 46 48  0  0  1  0  0  0  0  0999 V2000
   57.0730   28.9140   42.9820 N   0  0  0  0  0  0  0  0  0  0  0  0
   56.6570   29.7140   44.4310 S   0  0  0  0  0  0  0  0  0  0  0  0
   55.1470   29.9000   44.4520 O   0  0  0  0  0  0  0  0  0  0  0  0
   57.0490   28.8420   45.5910 O   0  0  0  0  0  0  0  0  0  0  0  0
   57.3920   31.2890   44.5190 C   0  0  0  0  0  0  0  0  0  0  0  0
   57.8830   31.8380   43.3320 C   0  0  0  0  0  0  0  0  0  0  0  0
   58.4750   33.0840   43.3460 C   0  0  0  0  0  0  0  0  0  0  0  0
   58.5760   33.7760   44.5340 C   0  0  0  0  0  0  0  0  0  0  0  0
   58.0950   33.2400   45.7000 C   0  0  0  0  0  0  0  0  0  0  0  0
   58.2270   34.0250   46.9570 C   0  0  0  0  0  0  0  0  0  0  0  0
   59.2850   35.0940   46.8110 C   0  0  0  0  0  0  0  0  0  0  0  0
   60.7530   30.3810   48.6000 N   0  0  0  0  0  0  0  0  0  0  0  0
   61.2570   31.4700   48.1260 C   0  0  0  0  0  0  0  0  0  0  0  0
   62.3470   33.7280   47.1230 N   0  0  0  0  0  0  0  0  0  0  0  0
   63.1120   32.6210   47.0960 C   0  0  0  0  0  0  0  0  0  0  0  0
   62.5500   31.4490   47.6150 C   0  0  0  0  0  0  0  0  0  0  0  0
   61.1020   33.7150   47.6230 C   0  0  0  0  0  0  0  0  0  0  0  0
   60.4410   34.8040   47.6140 N   0  0  0  0  0  0  0  0  0  0  0  0
   60.4410   29.2650   47.7730 C   0  0  0  0  0  0  0  0  0  0  0  0
   60.4190   27.9670   48.2290 C   0  0  0  0  0  0  0  0  0  0  0  0
   60.1020   26.9620   47.3380 C   0  0  0  0  0  0  0  0  0  0  0  0
   59.8120   27.2310   46.0150 C   0  0  0  0  0  0  0  0  0  0  0  0
   59.8350   28.5330   45.5570 C   0  0  0  0  0  0  0  0  0  0  0  0
   59.5480   28.8330   44.2290 O   0  0  0  0  0  0  0  0  0  0  0  0
   60.1520   29.5360   46.4500 C   0  0  0  0  0  0  0  0  0  0  0  0
   60.5240   32.6190   48.1290 N   0  0  0  0  0  0  0  0  0  0  0  0
   57.5040   32.0020   45.7050 C   0  0  0  0  0  0  0  0  0  0  0  0
   56.7720   27.9380   42.9060 H   0  0  0  0  0  0  0  0  0  0  0  0
   58.0360   29.0940   42.6370 H   0  0  0  0  0  0  0  0  0  0  0  0
   57.7978   31.2784   42.3888 H   0  0  0  0  0  0  0  0  0  0  0  0
   58.8639   33.5225   42.4152 H   0  0  0  0  0  0  0  0  0  0  0  0
   59.0480   34.7695   44.5462 H   0  0  0  0  0  0  0  0  0  0  0  0
   57.2626   34.5008   47.1885 H   0  0  0  0  0  0  0  0  0  0  0  0
   58.5218   33.3445   47.7694 H   0  0  0  0  0  0  0  0  0  0  0  0
   59.5889   35.1543   45.7555 H   0  0  0  0  0  0  0  0  0  0  0  0
   58.8594   36.0496   47.1511 H   0  0  0  0  0  0  0  0  0  0  0  0
   62.7470   34.6110   46.7420 H   0  0  0  0  0  0  0  0  0  0  0  0
   64.1322   32.6367   46.6849 H   0  0  0  0  0  0  0  0  0  0  0  0
   63.1295   30.5140   47.6187 H   0  0  0  0  0  0  0  0  0  0  0  0
   60.6488   27.7357   49.2796 H   0  0  0  0  0  0  0  0  0  0  0  0
   60.0798   25.9203   47.6906 H   0  0  0  0  0  0  0  0  0  0  0  0
   59.5631   26.4093   45.3273 H   0  0  0  0  0  0  0  0  0  0  0  0
   58.5690   28.6810   43.9420 H   0  0  0  0  0  0  0  0  0  0  0  0
   60.1751   30.5783   46.0991 H   0  0  0  0  0  0  0  0  0  0  0  0
   59.5520   32.6260   48.5160 H   0  0  0  0  0  0  0  0  0  0  0  0
   57.1207   31.5763   46.6441 H   0  0  0  0  0  0  0  0  0  0  0  0
  1  2  1  0
  2  3  2  0
  2  4  2  0
  2  5  1  0
  5  6  2  0
  6  7  1  0
  7  8  2  0
  8  9  1  0
  9 10  1  0
 10 11  1  0
 11 12  1  0
 12 13  2  0
 13 14  1  0
 14 15  1  0
 15 16  2  0
 16 17  1  0
 17 18  2  0
 18 19  1  0
 19 20  2  0
 20 21  1  0
 21 22  2  0
 22 23  1  0
 23 24  1  0
 23 25  2  0
 17 26  1  0
  9 27  2  0
 27  5  1  0
 26 13  1  0
 25 19  1  0
  1 28  1  0
  1 29  1  0
  6 30  1  0
  7 31  1  0
  8 32  1  0
 10 33  1  0
 10 34  1  0
 11 35  1  0
 11 36  1  0
 14 37  1  0
 15 38  1  0
 16 39  1  0
 20 40  1  0
 21 41  1  0
 22 42  1  0
 24 43  1  0
 25 44  1  0
 26 45  1  0
 27 46  1  0
M  END
>  <smiles>  (6) 
NS(=O)(=O)c1cccc(CCN=c2[nH]ccc(=Nc3cccc(O)c3)[nH]2)c1

>  <score_type>  (6) 
oracle

>  <origin>  (6) 
adg

>  <m_score__min__energy>  (6) 
-9.5299999999999994

>  <m_primary>  (6) 
energy

$$$$
6:0
     RDKit          3D

 68 72  0  0  0  0  0  0  0  0999 V2000
   57.0730   33.7620   45.5500 C   0  0  0  0  0  0  0  0  0  0  0  0
   58.2530   34.5590   45.5780 O   0  0  0  0  0  0  0  0  0  0  0  0
   59.3460   34.3260   46.4250 C   0  0  0  0  0  0  0  0  0  0  0  0
   59.2490   34.7270   47.7640 C   0  0  0  0  0  0  0  0  0  0  0  0
   60.3090   34.5070   48.6490 C   0  0  0  0  0  0  0  0  0  0  0  0
   61.4790   33.8720   48.2090 C   0  0  0  0  0  0  0  0  0  0  0  0
   62.6230   33.6470   49.1580 C   0  0  0  0  0  0  0  0  0  0  0  0
   63.3770   32.3620   48.8060 C   0  0  0  0  0  0  0  0  0  0  0  0
   63.0280   31.3060   49.7550 N   0  0  0  0  0  0  0  0  0  0  0  0
   63.8860   30.6850   50.5430 N   0  0  0  0  0  0  0  0  0  0  0  0
   63.2610   29.7410   51.2240 N   0  0  0  0  0  0  0  0  0  0  0  0
   61.9810   29.7260   50.8790 N   0  0  0  0  0  0  0  0  0  0  0  0
   61.8430   30.6930   49.9470 C   0  0  0  0  0  0  0  0  0  0  0  0
   60.5300   31.1060   49.2970 C   0  0  2  0  0  0  0  0  0  0  0  0
   59.3680   31.1760   50.2770 C   0  0  0  0  0  0  0  0  0  0  0  0
   58.8690   32.4360   50.6410 C   0  0  0  0  0  0  0  0  0  0  0  0
   57.7860   32.5480   51.5150 C   0  0  0  0  0  0  0  0  0  0  0  0
   57.1740   31.3960   52.0430 C   0  0  0  0  0  0  0  0  0  0  0  0
   56.0910   31.4680   52.9340 O   0  0  0  0  0  0  0  0  0  0  0  0
   54.8260   30.8500   52.7150 C   0  0  0  0  0  0  0  0  0  0  0  0
   57.6530   30.1290   51.6770 C   0  0  0  0  0  0  0  0  0  0  0  0
   57.0220   28.9970   52.2210 O   0  0  0  0  0  0  0  0  0  0  0  0
   57.1830   28.5510   53.5640 C   0  0  0  0  0  0  0  0  0  0  0  0
   58.7380   30.0220   50.7850 C   0  0  0  0  0  0  0  0  0  0  0  0
   60.1690   30.3260   48.0820 N   0  0  0  0  0  0  0  0  0  0  0  0
   60.2560   28.8690   48.2940 C   0  0  0  0  0  0  0  0  0  0  0  0
   60.3620   28.1690   46.9400 C   0  0  0  0  0  0  0  0  0  0  0  0
   59.3120   28.6620   45.9760 C   0  0  0  0  0  0  0  0  0  0  0  0
   59.0460   27.9230   44.8120 C   0  0  0  0  0  0  0  0  0  0  0  0
   58.1120   28.3830   43.8810 C   0  0  0  0  0  0  0  0  0  0  0  0
   57.4420   29.5890   44.0980 C   0  0  0  0  0  0  0  0  0  0  0  0
   57.7090   30.3420   45.2460 C   0  0  0  0  0  0  0  0  0  0  0  0
   58.6570   29.8980   46.1810 C   0  0  0  0  0  0  0  0  0  0  0  0
   58.8860   30.6960   47.4440 C   0  0  0  0  0  0  0  0  0  0  0  0
   61.5870   33.4860   46.8630 C   0  0  0  0  0  0  0  0  0  0  0  0
   60.5300   33.7070   45.9780 C   0  0  0  0  0  0  0  0  0  0  0  0
   56.7523   33.5454   46.5797 H   0  0  0  0  0  0  0  0  0  0  0  0
   56.2750   34.3068   45.0243 H   0  0  0  0  0  0  0  0  0  0  0  0
   57.2804   32.8182   45.0243 H   0  0  0  0  0  0  0  0  0  0  0  0
   58.3322   35.2185   48.1217 H   0  0  0  0  0  0  0  0  0  0  0  0
   60.2245   34.8338   49.6959 H   0  0  0  0  0  0  0  0  0  0  0  0
   63.3153   34.4996   49.0968 H   0  0  0  0  0  0  0  0  0  0  0  0
   62.2216   33.5520   50.1777 H   0  0  0  0  0  0  0  0  0  0  0  0
   63.1022   32.0445   47.7893 H   0  0  0  0  0  0  0  0  0  0  0  0
   64.4594   32.5513   48.8559 H   0  0  0  0  0  0  0  0  0  0  0  0
   64.9060   30.8970   50.6160 H   0  0  0  0  0  0  0  0  0  0  0  0
   60.7264   32.1308   48.9488 H   0  0  0  0  0  0  0  0  0  0  0  0
   59.3359   33.3448   50.2335 H   0  0  0  0  0  0  0  0  0  0  0  0
   57.4086   33.5432   51.7927 H   0  0  0  0  0  0  0  0  0  0  0  0
   54.3572   30.6210   53.6834 H   0  0  0  0  0  0  0  0  0  0  0  0
   54.1778   31.5329   52.1463 H   0  0  0  0  0  0  0  0  0  0  0  0
   54.9663   29.9190   52.1463 H   0  0  0  0  0  0  0  0  0  0  0  0
   56.8924   29.3560   54.2550 H   0  0  0  0  0  0  0  0  0  0  0  0
   56.5457   27.6713   53.7371 H   0  0  0  0  0  0  0  0  0  0  0  0
   58.2353   28.2812   53.7371 H   0  0  0  0  0  0  0  0  0  0  0  0
   59.0973   29.0275   50.4818 H   0  0  0  0  0  0  0  0  0  0  0  0
   61.1456   28.6377   48.8982 H   0  0  0  0  0  0  0  0  0  0  0  0
   59.3568   28.5183   48.8216 H   0  0  0  0  0  0  0  0  0  0  0  0
   61.3573   28.3643   46.5142 H   0  0  0  0  0  0  0  0  0  0  0  0
   60.2061   27.0915   47.0968 H   0  0  0  0  0  0  0  0  0  0  0  0
   59.5764   26.9762   44.6323 H   0  0  0  0  0  0  0  0  0  0  0  0
   57.9038   27.7944   42.9753 H   0  0  0  0  0  0  0  0  0  0  0  0
   56.7037   29.9470   43.3654 H   0  0  0  0  0  0  0  0  0  0  0  0
   57.1731   31.2873   45.4170 H   0  0  0  0  0  0  0  0  0  0  0  0
   58.9047   31.7670   47.1940 H   0  0  0  0  0  0  0  0  0  0  0  0
   58.0696   30.4779   48.1482 H   0  0  0  0  0  0  0  0  0  0  0  0
   62.5097   33.0068   46.5039 H   0  0  0  0  0  0  0  0  0  0  0  0
   60.6221   33.3964   44.9268 H   0  0  0  0  0  0  0  0  0  0  0  0
  1  2  1  0
  2  3  1  0
  3  4  2  0
  4  5  1  0
  5  6  2  0
  6  7  1  0
  7  8  1  0
  8  9  1  0
  9 10  1  0
 10 11  2  0
 11 12  1  0
 12 13  2  0
 13 14  1  0
 14 15  1  0
 15 16  2  0
 16 17  1  0
 17 18  2  0
 18 19  1  0
 19 20  1  0
 18 21  1  0
 21 22  1  0
 22 23  1  0
 21 24  2  0
 14 25  1  0
 25 26  1  0
 26 27  1  0
 27 28  1  0
 28 29  2  0
 29 30  1  0
 30 31  2  0
 31 32  1  0
 32 33  2  0
 33 34  1  0
  6 35  1  0
 35 36  2  0
 36  3  1  0
 13  9  1  0
 24 15  1  0
 34 25  1  0
 33 28  1  0
  1 37  1  0
  1 38  1  0
  1 39  1  0
  4 40  1  0
  5 41  1  0
  7 42  1  0
  7 43  1  0
  8 44  1  0
  8 45  1  0
 10 46  1  0
 14 47  1  6
 16 48  1  0
 17 49  1  0
 20 50  1  0
 20 51  1  0
 20 52  1  0
 23 53  1  0
 23 54  1  0
 23 55  1  0
 24 56  1  0
 26 57  1  0
 26 58  1  0
 27 59  1  0
 27 60  1  0
 29 61  1  0
 30 62  1  0
 31 63  1  0
 32 64  1  0
 34 65  1  0
 34 66  1  0
 35 67  1  0
 36 68  1  0
M  CHG  1  10   1
M  END
>  <UniqueID>  (7) 
6

>  <SMILES>  (7) 
COc1ccc(CCn2[nH+]nnc2[C@H](c2ccc(OC)c(OC)c2)N2CCc3ccccc3C2)cc1

>  <Energy>  (7) 
118.36296912352357

>  <Genealogy>  (7) 
COc1ccc(CCn2[nH+]nnc2C(c2ccc(OC)c(OC)c2)N2CCc3ccccc3C2)cc1 (protonated)
COc1ccc(CCn2[nH+]nnc2[C@H](c2ccc(OC)c(OC)c2)N2CCc3ccccc3C2)cc1 (chirality)
COc1ccc(CCn2[nH+]nnc2[C@H](c2ccc(OC)c(OC)c2)N2CCc3ccccc3C2)cc1 (3D coordinates assigned)
COc1ccc(CCn2[nH+]nnc2[C@H](c2ccc(OC)c(OC)c2)N2CCc3ccccc3C2)cc1 (nonaromatic ring conformer: 118.36296912352357 kcal/mol)

>  <smiles>  (7) 
COc1ccc(CCn2nnnc2C(c2ccc(OC)c(OC)c2)N2CCc3ccccc3C2)cc1

>  <score_type>  (7) 
oracle

>  <origin>  (7) 
adg

>  <m_score__min__energy>  (7) 
-8.2300000000000004

>  <m_primary>  (7) 
energy

$$$$
7:0
     RDKit          3D

 36 37  0  0  0  0  0  0  0  0999 V2000
   54.8150   26.3320   46.0070 N   0  0  0  0  0  0  0  0  0  0  0  0
   56.1920   25.2930   46.1440 S   0  0  0  0  0  0  0  0  0  0  0  0
   56.3900   24.6090   44.8210 O   0  0  0  0  0  0  0  0  0  0  0  0
   55.9150   24.2670   47.2070 O   0  0  0  0  0  0  0  0  0  0  0  0
   57.6410   26.2270   46.5710 C   0  0  0  0  0  0  0  0  0  0  0  0
   58.3490   25.8710   47.7330 C   0  0  0  0  0  0  0  0  0  0  0  0
   59.4880   26.5780   48.1190 C   0  0  0  0  0  0  0  0  0  0  0  0
   59.9370   27.6520   47.3550 C   0  0  0  0  0  0  0  0  0  0  0  0
   59.2510   28.0200   46.1980 C   0  0  0  0  0  0  0  0  0  0  0  0
   58.1070   27.3140   45.7820 C   0  0  0  0  0  0  0  0  0  0  0  0
   57.4210   27.7550   44.5070 C   0  0  0  0  0  0  0  0  0  0  0  0
   56.2960   28.6530   44.7700 N   0  0  0  0  0  0  0  0  0  0  0  0
   56.4130   30.1420   43.8750 S   0  0  0  0  0  0  0  0  0  0  0  0
   55.4990   31.1420   44.5240 O   0  0  0  0  0  0  0  0  0  0  0  0
   55.9520   29.9340   42.4590 O   0  0  0  0  0  0  0  0  0  0  0  0
   58.0780   30.8140   43.9220 C   0  0  0  0  0  0  0  0  0  0  0  0
   58.1980   32.0030   44.8420 C   0  0  0  0  0  0  0  0  0  0  0  0
   58.3940   33.2930   44.3190 C   0  0  0  0  0  0  0  0  0  0  0  0
   58.5070   34.3920   45.1770 C   0  0  0  0  0  0  0  0  0  0  0  0
   58.4370   34.2100   46.5600 C   0  0  0  0  0  0  0  0  0  0  0  0
   58.2650   32.9290   47.0900 C   0  0  0  0  0  0  0  0  0  0  0  0
   58.1540   31.8280   46.2360 C   0  0  0  0  0  0  0  0  0  0  0  0
   55.1670   27.3160   46.0410 H   0  0  0  0  0  0  0  0  0  0  0  0
   58.0006   25.0255   48.3444 H   0  0  0  0  0  0  0  0  0  0  0  0
   60.0327   26.2863   49.0291 H   0  0  0  0  0  0  0  0  0  0  0  0
   60.8330   28.2103   47.6641 H   0  0  0  0  0  0  0  0  0  0  0  0
   59.6087   28.8731   45.6029 H   0  0  0  0  0  0  0  0  0  0  0  0
   58.1522   28.2785   43.8735 H   0  0  0  0  0  0  0  0  0  0  0  0
   57.0286   26.8580   44.0055 H   0  0  0  0  0  0  0  0  0  0  0  0
   58.7652   30.0286   44.2699 H   0  0  0  0  0  0  0  0  0  0  0  0
   58.3294   31.1523   42.9060 H   0  0  0  0  0  0  0  0  0  0  0  0
   58.4588   33.4388   43.2306 H   0  0  0  0  0  0  0  0  0  0  0  0
   58.6511   35.4005   44.7621 H   0  0  0  0  0  0  0  0  0  0  0  0
   58.5174   35.0765   47.2328 H   0  0  0  0  0  0  0  0  0  0  0  0
   58.2169   32.7867   48.1797 H   0  0  0  0  0  0  0  0  0  0  0  0
   58.0316   30.8192   46.6571 H   0  0  0  0  0  0  0  0  0  0  0  0
  1  2  1  0
  2  3  2  0
  2  4  2  0
  2  5  1  0
  5  6  2  0
  6  7  1  0
  7  8  2  0
  8  9  1  0
  9 10  2  0
 10 11  1  0
 11 12  1  0
 12 13  1  0
 13 14  2  0
 13 15  2  0
 13 16  1  0
 16 17  1  0
 17 18  2  0
 18 19  1  0
 19 20  2  0
 20 21  1  0
 21 22  2  0
 10  5  1  0
 22 17  1  0
  1 23  1  0
  6 24  1  0
  7 25  1  0
  8 26  1  0
  9 27  1  0
 11 28  1  0
 11 29  1  0
 16 30  1  0
 16 31  1  0
 18 32  1  0
 19 33  1  0
 20 34  1  0
 21 35  1  0
 22 36  1  0
M  CHG  2   1  -1  12  -1
M  END
>  <UniqueID>  (8) 
7

>  <SMILES>  (8) 
[NH-]S(=O)(=O)c1ccccc1C[N-]S(=O)(=O)Cc1ccccc1

>  <Energy>  (8) 
33.82236168596295

>  <Genealogy>  (8) 
[NH-]S(=O)(=O)c1ccccc1C[N-]S(=O)(=O)Cc1ccccc1 (protonated)
[NH-]S(=O)(=O)c1ccccc1C[N-]S(=O)(=O)Cc1ccccc1 (3D coordinates assigned)
[NH-]S(=O)(=O)c1ccccc1C[N-]S(=O)(=O)Cc1ccccc1 (optimized conformer: 33.82236168596295 kcal/mol)

>  <smiles>  (8) 
NS(=O)(=O)c1ccccc1CNS(=O)(=O)Cc1ccccc1

>  <score_type>  (8) 
oracle

>  <origin>  (8) 
adg

>  <m_score__min__energy>  (8) 
-12.91

>  <m_primary>  (8) 
energy

$$$$
8:0
     RDKit          3D

 59 61  0  0  0  0  0  0  0  0999 V2000
   59.2550   34.9880   47.7850 C   0  0  0  0  0  0  0  0  0  0  0  0
   59.5240   33.7600   48.4540 O   0  0  0  0  0  0  0  0  0  0  0  0
   59.9660   32.5910   47.8170 C   0  0  0  0  0  0  0  0  0  0  0  0
   61.3280   32.2760   47.6790 C   0  0  0  0  0  0  0  0  0  0  0  0
   61.7180   31.0980   47.0380 C   0  0  0  0  0  0  0  0  0  0  0  0
   60.7540   30.2130   46.5190 C   0  0  0  0  0  0  0  0  0  0  0  0
   61.1170   29.0340   45.8510 O   0  0  0  0  0  0  0  0  0  0  0  0
   60.7860   28.7350   44.5000 C   0  0  0  0  0  0  0  0  0  0  0  0
   59.3890   30.5270   46.6570 C   0  0  0  0  0  0  0  0  0  0  0  0
   58.3390   29.6200   46.1450 C   0  0  0  0  0  0  0  0  0  0  0  0
   58.2210   28.2670   46.4680 C   0  0  0  0  0  0  0  0  0  0  0  0
   59.1390   27.4800   47.3140 C   0  0  0  0  0  0  0  0  0  0  0  0
   59.0930   26.2240   47.2520 O   0  0  0  0  0  0  0  0  0  0  0  0
   60.0610   28.0860   48.2320 N   0  0  0  0  0  0  0  0  0  0  0  0
   59.9560   28.1440   49.6930 C   0  0  0  0  0  0  0  0  0  0  0  0
   59.1080   29.3450   50.0890 C   0  0  0  0  0  0  0  0  0  0  0  0
   60.0730   30.5160   50.2500 C   0  0  0  0  0  0  0  0  0  0  0  0
   61.4810   29.9260   50.2970 C   0  0  0  0  0  0  0  0  0  0  0  0
   61.3100   28.4160   50.3360 C   0  0  0  0  0  0  0  0  0  0  0  0
   56.9830   27.8770   45.9910 C   0  0  0  0  0  0  0  0  0  0  0  0
   56.3630   26.6480   46.1960 O   0  0  0  0  0  0  0  0  0  0  0  0
   56.4320   28.9630   45.3530 C   0  0  0  0  0  0  0  0  0  0  0  0
   55.1840   28.9830   44.7420 O   0  0  0  0  0  0  0  0  0  0  0  0
   57.2590   30.0270   45.4310 N   0  0  0  0  0  0  0  0  0  0  0  0
   56.9840   31.3700   44.9080 C   0  0  0  0  0  0  0  0  0  0  0  0
   58.1900   31.9720   44.1490 C   0  0  0  0  0  0  0  0  0  0  0  0
   58.3430   33.4420   44.2430 N   0  0  0  0  0  0  0  0  0  0  0  0
   57.1870   34.1280   44.8370 C   0  0  0  0  0  0  0  0  0  0  0  0
   59.6070   33.8720   44.8610 C   0  0  0  0  0  0  0  0  0  0  0  0
   59.0070   31.7110   47.3060 C   0  0  0  0  0  0  0  0  0  0  0  0
   59.0815   35.7801   48.5283 H   0  0  0  0  0  0  0  0  0  0  0  0
   60.1152   35.2584   47.1550 H   0  0  0  0  0  0  0  0  0  0  0  0
   58.3605   34.8740   47.1550 H   0  0  0  0  0  0  0  0  0  0  0  0
   62.0912   32.9605   48.0778 H   0  0  0  0  0  0  0  0  0  0  0  0
   62.7872   30.8598   46.9379 H   0  0  0  0  0  0  0  0  0  0  0  0
   59.9699   27.9978   44.4770 H   0  0  0  0  0  0  0  0  0  0  0  0
   60.4640   29.6545   43.9892 H   0  0  0  0  0  0  0  0  0  0  0  0
   61.6681   28.3215   43.9892 H   0  0  0  0  0  0  0  0  0  0  0  0
   59.5371   27.1807   50.0195 H   0  0  0  0  0  0  0  0  0  0  0  0
   58.3694   29.5652   49.3041 H   0  0  0  0  0  0  0  0  0  0  0  0
   58.5530   29.1534   51.0192 H   0  0  0  0  0  0  0  0  0  0  0  0
   59.9792   31.2038   49.3967 H   0  0  0  0  0  0  0  0  0  0  0  0
   59.8532   31.0848   51.1655 H   0  0  0  0  0  0  0  0  0  0  0  0
   62.0481   30.2221   49.4021 H   0  0  0  0  0  0  0  0  0  0  0  0
   62.0370   30.2881   51.1743 H   0  0  0  0  0  0  0  0  0  0  0  0
   62.1120   27.9233   49.7668 H   0  0  0  0  0  0  0  0  0  0  0  0
   61.3602   28.0256   51.3632 H   0  0  0  0  0  0  0  0  0  0  0  0
   56.8690   25.8680   46.5970 H   0  0  0  0  0  0  0  0  0  0  0  0
   56.1282   31.3114   44.2194 H   0  0  0  0  0  0  0  0  0  0  0  0
   56.7706   32.0242   45.7662 H   0  0  0  0  0  0  0  0  0  0  0  0
   59.1049   31.5113   44.5498 H   0  0  0  0  0  0  0  0  0  0  0  0
   58.0099   31.7581   43.0851 H   0  0  0  0  0  0  0  0  0  0  0  0
   57.2591   34.0852   45.9338 H   0  0  0  0  0  0  0  0  0  0  0  0
   57.1767   35.1785   44.5109 H   0  0  0  0  0  0  0  0  0  0  0  0
   56.2600   33.6337   44.5109 H   0  0  0  0  0  0  0  0  0  0  0  0
   59.5096   33.8389   45.9562 H   0  0  0  0  0  0  0  0  0  0  0  0
   60.4175   33.1990   44.5444 H   0  0  0  0  0  0  0  0  0  0  0  0
   59.8390   34.8996   44.5444 H   0  0  0  0  0  0  0  0  0  0  0  0
   57.9388   31.9501   47.4142 H   0  0  0  0  0  0  0  0  0  0  0  0
  1  2  1  0
  2  3  1  0
  3  4  2  0
  4  5  1  0
  5  6  2  0
  6  7  1  0
  7  8  1  0
  6  9  1  0
  9 10  1  0
 10 11  2  0
 11 12  1  0
 12 13  2  0
 12 14  1  0
 14 15  1  0
 15 16  1  0
 16 17  1  0
 17 18  1  0
 18 19  1  0
 11 20  1  0
 20 21  1  0
 20 22  2  0
 22 23  1  0
 22 24  1  0
 24 25  1  0
 25 26  1  0
 26 27  1  0
 27 28  1  0
 27 29  1  0
  9 30  2  0
 30  3  1  0
 24 10  1  0
 19 15  1  0
  1 31  1  0
  1 32  1  0
  1 33  1  0
  4 34  1  0
  5 35  1  0
  8 36  1  0
  8 37  1  0
  8 38  1  0
 15 39  1  0
 16 40  1  0
 16 41  1  0
 17 42  1  0
 17 43  1  0
 18 44  1  0
 18 45  1  0
 19 46  1  0
 19 47  1  0
 21 48  1  0
 25 49  1  0
 25 50  1  0
 26 51  1  0
 26 52  1  0
 28 53  1  0
 28 54  1  0
 28 55  1  0
 29 56  1  0
 29 57  1  0
 29 58  1  0
 30 59  1  0
M  CHG  2  14  -1  23  -1
M  END
>  <UniqueID>  (9) 
8

>  <SMILES>  (9) 
COc1ccc(OC)c(-c2c(C(=O)[N-]C3CCCC3)c(O)c([O-])n2CCN(C)C)c1

>  <Energy>  (9) 
97.91393021776214

>  <Genealogy>  (9) 
COc1ccc(OC)c(-c2c(C(=O)[N-]C3CCCC3)c(O)c([O-])n2CCN(C)C)c1 (protonated)
COc1ccc(OC)c(-c2c(C(=O)[N-]C3CCCC3)c(O)c([O-])n2CCN(C)C)c1 (3D coordinates assigned)
COc1ccc(OC)c(-c2c(C(=O)[N-]C3CCCC3)c(O)c([O-])n2CCN(C)C)c1 (nonaromatic ring conformer: 97.91393021776214 kcal/mol)

>  <smiles>  (9) 
COc1ccc(OC)c(-c2c(C(=O)NC3CCCC3)c(O)c(O)n2CCN(C)C)c1

>  <score_type>  (9) 
oracle

>  <origin>  (9) 
adg

>  <m_score__min__energy>  (9) 
-10.19

>  <m_primary>  (9) 
energy

$$$$
9:0
     RDKit          3D

 41 43  0  0  0  0  0  0  0  0999 V2000
   60.4160   26.7350   48.1660 C   0  0  0  0  0  0  0  0  0  0  0  0
   59.6200   27.6220   47.2960 N   0  0  0  0  0  0  0  0  0  0  0  0
   58.8330   28.5760   48.1100 C   0  0  0  0  0  0  0  0  0  0  0  0
   59.7600   29.6110   48.7560 C   0  0  0  0  0  0  0  0  0  0  0  0
   59.7450   30.8970   47.9750 C   0  0  0  0  0  0  0  0  0  0  0  0
   58.5250   31.4740   47.5850 C   0  0  0  0  0  0  0  0  0  0  0  0
   58.5110   32.6890   46.8920 C   0  0  0  0  0  0  0  0  0  0  0  0
   59.7110   33.3390   46.5940 C   0  0  0  0  0  0  0  0  0  0  0  0
   60.9280   32.7780   46.9910 C   0  0  0  0  0  0  0  0  0  0  0  0
   60.9460   31.5650   47.6860 C   0  0  0  0  0  0  0  0  0  0  0  0
   58.7570   26.8090   46.4130 C   0  0  0  0  0  0  0  0  0  0  0  0
   57.7030   27.6630   45.7490 C   0  0  0  0  0  0  0  0  0  0  0  0
   56.3120   27.4520   45.7110 C   0  0  0  0  0  0  0  0  0  0  0  0
   55.5370   26.3500   46.3180 C   0  0  0  0  0  0  0  0  0  0  0  0
   56.1010   25.5790   47.1380 O   0  0  0  0  0  0  0  0  0  0  0  0
   54.2100   26.1200   45.9890 O   0  0  0  0  0  0  0  0  0  0  0  0
   55.6910   28.4400   45.0250 N   0  0  0  0  0  0  0  0  0  0  0  0
   56.6680   29.2730   44.6370 C   0  0  0  0  0  0  0  0  0  0  0  0
   56.4940   30.4450   43.9050 C   0  0  0  0  0  0  0  0  0  0  0  0
   57.6300   31.2050   43.5890 C   0  0  0  0  0  0  0  0  0  0  0  0
   57.4590   32.6900   42.6690 Cl  0  0  0  0  0  0  0  0  0  0  0  0
   58.9060   30.7820   44.0090 C   0  0  0  0  0  0  0  0  0  0  0  0
   59.0640   29.5940   44.7480 C   0  0  0  0  0  0  0  0  0  0  0  0
   60.6830   29.1190   45.2330 Cl  0  0  0  0  0  0  0  0  0  0  0  0
   57.9090   28.8500   45.0540 C   0  0  0  0  0  0  0  0  0  0  0  0
   60.2054   26.9697   49.2198 H   0  0  0  0  0  0  0  0  0  0  0  0
   60.1496   25.6872   47.9634 H   0  0  0  0  0  0  0  0  0  0  0  0
   61.4864   26.8869   47.9634 H   0  0  0  0  0  0  0  0  0  0  0  0
   58.1067   29.0915   47.4644 H   0  0  0  0  0  0  0  0  0  0  0  0
   58.3059   28.0229   48.9014 H   0  0  0  0  0  0  0  0  0  0  0  0
   59.4209   29.8083   49.7836 H   0  0  0  0  0  0  0  0  0  0  0  0
   60.7853   29.2127   48.7631 H   0  0  0  0  0  0  0  0  0  0  0  0
   57.5779   30.9688   47.8253 H   0  0  0  0  0  0  0  0  0  0  0  0
   57.5538   33.1332   46.5813 H   0  0  0  0  0  0  0  0  0  0  0  0
   59.6981   34.2930   46.0465 H   0  0  0  0  0  0  0  0  0  0  0  0
   61.8723   33.2912   46.7565 H   0  0  0  0  0  0  0  0  0  0  0  0
   61.9047   31.1322   48.0077 H   0  0  0  0  0  0  0  0  0  0  0  0
   59.3787   26.3375   45.6376 H   0  0  0  0  0  0  0  0  0  0  0  0
   58.2544   26.0438   47.0228 H   0  0  0  0  0  0  0  0  0  0  0  0
   55.4924   30.7662   43.5832 H   0  0  0  0  0  0  0  0  0  0  0  0
   59.7895   31.3868   43.7567 H   0  0  0  0  0  0  0  0  0  0  0  0
  1  2  1  0
  2  3  1  0
  3  4  1  0
  4  5  1  0
  5  6  2  0
  6  7  1  0
  7  8  2  0
  8  9  1  0
  9 10  2  0
  2 11  1  0
 11 12  1  0
 12 13  2  0
 13 14  1  0
 14 15  2  0
 14 16  1  0
 13 17  1  0
 17 18  1  0
 18 19  2  0
 19 20  1  0
 20 21  1  0
 20 22  2  0
 22 23  1  0
 23 24  1  0
 23 25  2  0
 10  5  1  0
 25 12  1  0
 25 18  1  0
  1 26  1  0
  1 27  1  0
  1 28  1  0
  3 29  1  0
  3 30  1  0
  4 31  1  0
  4 32  1  0
  6 33  1  0
  7 34  1  0
  8 35  1  0
  9 36  1  0
 10 37  1  0
 11 38  1  0
 11 39  1  0
 19 40  1  0
 22 41  1  0
M  CHG  2  16  -1  17  -1
M  END
>  <UniqueID>  (10) 
9

>  <SMILES>  (10) 
CN(CCc1ccccc1)Cc1c(C(=O)[O-])[n-]c2cc(Cl)cc(Cl)c12

>  <Energy>  (10) 
76.98049189992632

>  <Genealogy>  (10) 
CN(CCc1ccccc1)Cc1c(C(=O)[O-])[n-]c2cc(Cl)cc(Cl)c12 (protonated)
CN(CCc1ccccc1)Cc1c(C(=O)[O-])[n-]c2cc(Cl)cc(Cl)c12 (3D coordinates assigned)
CN(CCc1ccccc1)Cc1c(C(=O)[O-])[n-]c2cc(Cl)cc(Cl)c12 (optimized conformer: 76.98049189992632 kcal/mol)

>  <smiles>  (10) 
CN(CCc1ccccc1)Cc1c(C(=O)O)[nH]c2cc(Cl)cc(Cl)c12

>  <score_type>  (10) 
oracle

>  <origin>  (10) 
adg

>  <m_score__min__energy>  (10) 
-11.869999999999999

>  <m_primary>  (10) 
energy

$$$$
10:0
     RDKit          3D

 51 53  0  0  1  0  0  0  0  0999 V2000
   50.6290   24.6510   44.0340 C   0  0  0  0  0  0  0  0  0  0  0  0
   51.4650   24.0830   45.1630 C   0  0  0  0  0  0  0  0  0  0  0  0
   52.5120   23.2660   44.6740 O   0  0  0  0  0  0  0  0  0  0  0  0
   53.7510   23.1830   45.3040 C   0  0  0  0  0  0  0  0  0  0  0  0
   54.4500   22.1160   45.2870 O   0  0  0  0  0  0  0  0  0  0  0  0
   54.3070   24.2810   45.9980 N   0  0  0  0  0  0  0  0  0  0  0  0
   55.5260   24.3350   46.3620 C   0  0  0  0  0  0  0  0  0  0  0  0
   56.2000   23.2590   46.8370 N   0  0  0  0  0  0  0  0  0  0  0  0
   57.4290   23.6390   47.1240 N   0  0  0  0  0  0  0  0  0  0  0  0
   57.5790   24.9310   46.8500 C   0  0  0  0  0  0  0  0  0  0  0  0
   58.6350   25.7830   46.9670 C   0  0  0  0  0  0  0  0  0  0  0  0
   58.4490   27.0980   46.5850 C   0  0  0  0  0  0  0  0  0  0  0  0
   59.4020   27.9460   46.6700 N   0  0  0  0  0  0  0  0  0  0  0  0
   59.4480   29.0670   45.7950 C   0  0  0  0  0  0  0  0  0  0  0  0
   60.3210   29.1810   44.8820 O   0  0  0  0  0  0  0  0  0  0  0  0
   58.4750   30.0900   45.9570 N   0  0  0  0  0  0  0  0  0  0  0  0
   58.4550   31.2490   45.1170 C   0  0  1  0  0  0  0  0  0  0  0  0
   57.1140   31.4790   44.4600 C   0  0  0  0  0  0  0  0  0  0  0  0
   56.2220   30.4620   44.7950 O   0  0  0  0  0  0  0  0  0  0  0  0
   55.9420   29.7120   43.6610 C   0  0  0  0  0  0  0  0  0  0  0  0
   58.7740   32.4150   45.9830 C   0  0  0  0  0  0  0  0  0  0  0  0
   58.9190   32.2600   47.3620 C   0  0  0  0  0  0  0  0  0  0  0  0
   59.2160   33.3440   48.1650 C   0  0  0  0  0  0  0  0  0  0  0  0
   59.3710   34.5920   47.6000 C   0  0  0  0  0  0  0  0  0  0  0  0
   59.2350   34.7850   46.2400 C   0  0  0  0  0  0  0  0  0  0  0  0
   58.9350   33.6760   45.4570 C   0  0  0  0  0  0  0  0  0  0  0  0
   57.2670   27.5330   46.1110 N   0  0  0  0  0  0  0  0  0  0  0  0
   56.2080   26.7110   45.9850 C   0  0  0  0  0  0  0  0  0  0  0  0
   56.3790   25.4070   46.3610 C   0  0  0  0  0  0  0  0  0  0  0  0
   49.7876   25.2227   44.4525 H   0  0  0  0  0  0  0  0  0  0  0  0
   51.2510   25.3142   43.4149 H   0  0  0  0  0  0  0  0  0  0  0  0
   50.2415   23.8284   43.4149 H   0  0  0  0  0  0  0  0  0  0  0  0
   51.8992   24.9136   45.7389 H   0  0  0  0  0  0  0  0  0  0  0  0
   50.8129   23.4647   45.7975 H   0  0  0  0  0  0  0  0  0  0  0  0
   55.8040   22.2880   46.9540 H   0  0  0  0  0  0  0  0  0  0  0  0
   58.1430   22.9860   47.5060 H   0  0  0  0  0  0  0  0  0  0  0  0
   59.6047   25.4357   47.3531 H   0  0  0  0  0  0  0  0  0  0  0  0
   57.7360   30.0110   46.7160 H   0  0  0  0  0  0  0  0  0  0  0  0
   59.1838   31.1089   44.3050 H   0  0  0  0  0  0  0  0  0  0  0  0
   56.7065   32.4431   44.7983 H   0  0  0  0  0  0  0  0  0  0  0  0
   57.2506   31.4852   43.3685 H   0  0  0  0  0  0  0  0  0  0  0  0
   55.5717   28.7202   43.9596 H   0  0  0  0  0  0  0  0  0  0  0  0
   55.1748   30.2249   43.0624 H   0  0  0  0  0  0  0  0  0  0  0  0
   56.8576   29.5966   43.0624 H   0  0  0  0  0  0  0  0  0  0  0  0
   58.7956   31.2648   47.8142 H   0  0  0  0  0  0  0  0  0  0  0  0
   59.3284   33.2120   49.2512 H   0  0  0  0  0  0  0  0  0  0  0  0
   59.6076   35.4506   48.2456 H   0  0  0  0  0  0  0  0  0  0  0  0
   59.3596   35.7816   45.7913 H   0  0  0  0  0  0  0  0  0  0  0  0
   58.8216   33.8125   44.3714 H   0  0  0  0  0  0  0  0  0  0  0  0
   57.1700   28.5540   45.8280 H   0  0  0  0  0  0  0  0  0  0  0  0
   55.2450   27.0732   45.5957 H   0  0  0  0  0  0  0  0  0  0  0  0
  1  2  1  0
  2  3  1  0
  3  4  1  0
  4  5  2  0
  4  6  1  0
  6  7  2  0
  7  8  1  0
  8  9  1  0
  9 10  1  0
 10 11  2  0
 11 12  1  0
 12 13  2  0
 13 14  1  0
 14 15  2  0
 14 16  1  0
 16 17  1  0
 17 18  1  0
 18 19  1  0
 19 20  1  0
 17 21  1  0
 21 22  2  0
 22 23  1  0
 23 24  2  0
 24 25  1  0
 25 26  2  0
 12 27  1  0
 27 28  1  0
 28 29  2  0
 29  7  1  0
 29 10  1  0
 26 21  1  0
  1 30  1  0
  1 31  1  0
  1 32  1  0
  2 33  1  0
  2 34  1  0
  8 35  1  0
  9 36  1  0
 11 37  1  0
 16 38  1  0
 17 39  1  6
 18 40  1  0
 18 41  1  0
 20 42  1  0
 20 43  1  0
 20 44  1  0
 22 45  1  0
 23 46  1  0
 24 47  1  0
 25 48  1  0
 26 49  1  0
 27 50  1  0
 28 51  1  0
M  END
>  <smiles>  (11) 
CCOC(=O)N=c1[nH][nH]c2cc(=NC(=O)NC(COC)c3ccccc3)[nH]cc12

>  <score_type>  (11) 
oracle

>  <origin>  (11) 
adg

>  <m_score__min__energy>  (11) 
-8.3200000000000003

>  <m_primary>  (11) 
energy

$$$$
11:0
     RDKit          3D

 54 55  0  0  0  0  0  0  0  0999 V2000
   57.1793   30.8829   43.1515 H   0  0  0  0  0  0  0  0  0  0  0  0
   57.2670   30.8790   44.2480 C   0  0  0  0  0  0  0  0  0  0  0  0
   57.1710   31.9970   44.8960 N   0  0  0  0  0  0  0  0  0  0  0  0
   58.2310   32.9960   44.8960 C   0  0  0  0  0  0  0  0  0  0  0  0
   58.3889   33.3574   43.8691 H   0  0  0  0  0  0  0  0  0  0  0  0
   59.1541   32.5379   45.2807 H   0  0  0  0  0  0  0  0  0  0  0  0
   57.8490   34.1780   45.7950 C   0  0  0  0  0  0  0  0  0  0  0  0
   56.7551   34.1895   45.9099 H   0  0  0  0  0  0  0  0  0  0  0  0
   58.2256   35.0904   45.3094 H   0  0  0  0  0  0  0  0  0  0  0  0
   58.4870   34.1120   47.1970 C   0  0  0  0  0  0  0  0  0  0  0  0
   57.7992   34.5789   47.9174 H   0  0  0  0  0  0  0  0  0  0  0  0
   59.4497   34.6417   47.1456 H   0  0  0  0  0  0  0  0  0  0  0  0
   58.7780   32.6710   47.6590 C   0  0  0  0  0  0  0  0  0  0  0  0
   58.5643   31.9857   46.8255 H   0  0  0  0  0  0  0  0  0  0  0  0
   58.1381   32.4694   48.5307 H   0  0  0  0  0  0  0  0  0  0  0  0
   60.2420   32.4640   48.1030 C   0  0  0  0  0  0  0  0  0  0  0  0
   60.2657   31.6571   48.8502 H   0  0  0  0  0  0  0  0  0  0  0  0
   60.5906   33.4262   48.5062 H   0  0  0  0  0  0  0  0  0  0  0  0
   61.1650   32.1030   46.9970 N   0  0  0  0  0  0  0  0  0  0  0  0
   60.6370   31.6030   46.2450 H   0  0  0  0  0  0  0  0  0  0  0  0
   62.2720   31.2400   47.4560 C   0  0  0  0  0  0  0  0  0  0  0  0
   62.2926   31.2239   48.5557 H   0  0  0  0  0  0  0  0  0  0  0  0
   62.1218   30.2183   47.0771 H   0  0  0  0  0  0  0  0  0  0  0  0
   63.2262   31.6350   47.0771 H   0  0  0  0  0  0  0  0  0  0  0  0
   61.7110   33.3370   46.3950 C   0  0  0  0  0  0  0  0  0  0  0  0
   62.0175   34.0296   47.1927 H   0  0  0  0  0  0  0  0  0  0  0  0
   62.5823   33.0866   45.7721 H   0  0  0  0  0  0  0  0  0  0  0  0
   60.9397   33.8134   45.7721 H   0  0  0  0  0  0  0  0  0  0  0  0
   57.4930   29.5920   44.9550 C   0  0  0  0  0  0  0  0  0  0  0  0
   56.4460   28.7030   45.2520 C   0  0  0  0  0  0  0  0  0  0  0  0
   55.1370   28.9690   44.8630 O   0  0  0  0  0  0  0  0  0  0  0  0
   56.7060   27.5550   45.9220 N   0  0  0  0  0  0  0  0  0  0  0  0
   57.9590   27.2310   46.3280 C   0  0  0  0  0  0  0  0  0  0  0  0
   58.1360   26.1520   46.9560 O   0  0  0  0  0  0  0  0  0  0  0  0
   59.0120   28.0690   46.0630 N   0  0  0  0  0  0  0  0  0  0  0  0
   60.3580   27.7480   46.5850 C   0  0  0  0  0  0  0  0  0  0  0  0
   60.7736   26.9072   46.0103 H   0  0  0  0  0  0  0  0  0  0  0  0
   60.9913   28.6416   46.4826 H   0  0  0  0  0  0  0  0  0  0  0  0
   60.3050   27.3600   48.0720 C   0  0  0  0  0  0  0  0  0  0  0  0
   59.4960   26.6295   48.2201 H   0  0  0  0  0  0  0  0  0  0  0  0
   61.2808   26.9334   48.3474 H   0  0  0  0  0  0  0  0  0  0  0  0
   60.0510   28.5550   48.9580 C   0  0  0  0  0  0  0  0  0  0  0  0
   61.0390   28.9950   49.8590 C   0  0  0  0  0  0  0  0  0  0  0  0
   62.0225   28.5026   49.8763 H   0  0  0  0  0  0  0  0  0  0  0  0
   60.7760   30.0550   50.7320 C   0  0  0  0  0  0  0  0  0  0  0  0
   61.5533   30.3955   51.4319 H   0  0  0  0  0  0  0  0  0  0  0  0
   59.5270   30.6830   50.7170 C   0  0  0  0  0  0  0  0  0  0  0  0
   59.2700   31.7020   51.5750 F   0  0  0  0  0  0  0  0  0  0  0  0
   58.5370   30.2490   49.8260 C   0  0  0  0  0  0  0  0  0  0  0  0
   57.5540   30.7425   49.8150 H   0  0  0  0  0  0  0  0  0  0  0  0
   58.7960   29.1890   48.9500 C   0  0  0  0  0  0  0  0  0  0  0  0
   58.0153   28.8506   48.2529 H   0  0  0  0  0  0  0  0  0  0  0  0
   58.7920   29.2390   45.3750 C   0  0  0  0  0  0  0  0  0  0  0  0
   59.7570   30.0170   45.1250 O   0  0  0  0  0  0  0  0  0  0  0  0
  1  2  1  0
  2  3  2  0
  3  4  1  0
  4  5  1  0
  4  6  1  0
  4  7  1  0
  7  8  1  0
  7  9  1  0
  7 10  1  0
 10 11  1  0
 10 12  1  0
 10 13  1  0
 13 14  1  0
 13 15  1  0
 13 16  1  0
 16 17  1  0
 16 18  1  0
 16 19  1  0
 19 20  1  0
 19 21  1  0
 21 22  1  0
 21 23  1  0
 21 24  1  0
 19 25  1  0
 25 26  1  0
 25 27  1  0
 25 28  1  0
  2 29  1  0
 29 30  2  0
 30 31  1  0
 30 32  1  0
 32 33  1  0
 33 34  2  0
 33 35  1  0
 35 36  1  0
 36 37  1  0
 36 38  1  0
 36 39  1  0
 39 40  1  0
 39 41  1  0
 39 42  1  0
 42 43  2  0
 43 44  1  0
 43 45  1  0
 45 46  1  0
 45 47  2  0
 47 48  1  0
 47 49  1  0
 49 50  1  0
 49 51  2  0
 51 52  1  0
 35 53  1  0
 53 54  2  0
 53 29  1  0
 51 42  1  0
M  CHG  3  19   1  31  -1  32  -1
M  END
>  <UniqueID>  (12) 
10

>  <SMILES>  (12) 
C[NH+](C)CCCCC/N=C/c1c([O-])[n-]c(=O)n(CCc2ccc(F)cc2)c1=O

>  <Energy>  (12) 
49.48394573480698

>  <Genealogy>  (12) 
C[NH+](C)CCCCCN=Cc1c([O-])[n-]c(=O)n(CCc2ccc(F)cc2)c1=O (protonated)
C[NH+](C)CCCCC/N=C/c1c([O-])[n-]c(=O)n(CCc2ccc(F)cc2)c1=O (cis-trans isomerization)
C[NH+](C)CCCCC/N=C/c1c([O-])[n-]c(=O)n(CCc2ccc(F)cc2)c1=O (3D coordinates assigned)
C[NH+](C)CCCCC/N=C/c1c([O-])[n-]c(=O)n(CCc2ccc(F)cc2)c1=O (optimized conformer: 49.48394573480698 kcal/mol)

>  <smiles>  (12) 
CN(C)CCCCCN=Cc1c(O)[nH]c(=O)n(CCc2ccc(F)cc2)c1=O

>  <score_type>  (12) 
oracle

>  <origin>  (12) 
adg

>  <m_score__min__energy>  (12) 
-10.99

>  <m_primary>  (12) 
energy

$$$$
12:0
     RDKit          3D

 46 48  0  0  0  0  0  0  0  0999 V2000
   65.9100   31.8870   50.4900 C   0  0  0  0  0  0  0  0  0  0  0  0
   65.5990   32.8930   49.5340 O   0  0  0  0  0  0  0  0  0  0  0  0
   64.2960   33.2530   49.1580 C   0  0  0  0  0  0  0  0  0  0  0  0
   63.4640   33.8330   50.1210 C   0  0  0  0  0  0  0  0  0  0  0  0
   62.1520   34.1950   49.8010 C   0  0  0  0  0  0  0  0  0  0  0  0
   61.6510   33.9810   48.5120 C   0  0  0  0  0  0  0  0  0  0  0  0
   60.3390   34.3840   48.2270 O   0  0  0  0  0  0  0  0  0  0  0  0
   59.6640   34.1560   47.0220 C   0  0  0  0  0  0  0  0  0  0  0  0
   59.6620   35.0620   46.0210 N   0  0  0  0  0  0  0  0  0  0  0  0
   58.9050   34.6550   44.9670 C   0  0  0  0  0  0  0  0  0  0  0  0
   58.2830   33.4230   45.1400 C   0  0  0  0  0  0  0  0  0  0  0  0
   57.4180   32.7280   44.1340 C   0  0  0  0  0  0  0  0  0  0  0  0
   56.5510   31.7990   44.7840 O   0  0  0  0  0  0  0  0  0  0  0  0
   56.4540   30.4540   44.4120 C   0  0  0  0  0  0  0  0  0  0  0  0
   55.5220   30.0570   43.6590 O   0  0  0  0  0  0  0  0  0  0  0  0
   57.4530   29.4750   44.9380 C   0  0  0  0  0  0  0  0  0  0  0  0
   56.8620   28.1400   44.9940 N   0  0  0  0  0  0  0  0  0  0  0  0
   57.6090   26.9870   45.4140 C   0  0  0  0  0  0  0  0  0  0  0  0
   58.8480   27.0880   45.6310 O   0  0  0  0  0  0  0  0  0  0  0  0
   56.9550   25.6660   45.5580 C   0  0  0  0  0  0  0  0  0  0  0  0
   57.7330   24.4960   45.4620 C   0  0  0  0  0  0  0  0  0  0  0  0
   57.1380   23.2370   45.5930 C   0  0  0  0  0  0  0  0  0  0  0  0
   55.7670   23.1310   45.8230 C   0  0  0  0  0  0  0  0  0  0  0  0
   54.9870   24.2830   45.9380 C   0  0  0  0  0  0  0  0  0  0  0  0
   55.5730   25.5500   45.8190 C   0  0  0  0  0  0  0  0  0  0  0  0
   54.7760   26.6790   45.9930 O   0  0  0  0  0  0  0  0  0  0  0  0
   58.7110   32.8130   46.6500 S   0  0  0  0  0  0  0  0  0  0  0  0
   62.4920   33.4220   47.5330 C   0  0  0  0  0  0  0  0  0  0  0  0
   63.8020   33.0520   47.8560 C   0  0  0  0  0  0  0  0  0  0  0  0
   65.7843   32.2937   51.5043 H   0  0  0  0  0  0  0  0  0  0  0  0
   65.2351   31.0294   50.3526 H   0  0  0  0  0  0  0  0  0  0  0  0
   66.9512   31.5599   50.3526 H   0  0  0  0  0  0  0  0  0  0  0  0
   63.8449   34.0058   51.1384 H   0  0  0  0  0  0  0  0  0  0  0  0
   61.5089   34.6513   50.5680 H   0  0  0  0  0  0  0  0  0  0  0  0
   58.7935   35.2528   44.0503 H   0  0  0  0  0  0  0  0  0  0  0  0
   56.8136   33.4744   43.5977 H   0  0  0  0  0  0  0  0  0  0  0  0
   58.0597   32.1834   43.4257 H   0  0  0  0  0  0  0  0  0  0  0  0
   58.3303   29.4576   44.2746 H   0  0  0  0  0  0  0  0  0  0  0  0
   57.7573   29.7782   45.9507 H   0  0  0  0  0  0  0  0  0  0  0  0
   55.8810   28.0250   44.6550 H   0  0  0  0  0  0  0  0  0  0  0  0
   58.8156   24.5728   45.2828 H   0  0  0  0  0  0  0  0  0  0  0  0
   57.7531   22.3285   45.5144 H   0  0  0  0  0  0  0  0  0  0  0  0
   55.2998   22.1393   45.9139 H   0  0  0  0  0  0  0  0  0  0  0  0
   53.9062   24.1955   46.1231 H   0  0  0  0  0  0  0  0  0  0  0  0
   62.1181   33.2751   46.5090 H   0  0  0  0  0  0  0  0  0  0  0  0
   64.4488   32.6019   47.0885 H   0  0  0  0  0  0  0  0  0  0  0  0
  1  2  1  0
  2  3  1  0
  3  4  2  0
  4  5  1  0
  5  6  2  0
  6  7  1  0
  7  8  1  0
  8  9  2  0
  9 10  1  0
 10 11  2  0
 11 12  1  0
 12 13  1  0
 13 14  1  0
 14 15  2  0
 14 16  1  0
 16 17  1  0
 17 18  1  0
 18 19  2  0
 18 20  1  0
 20 21  2  0
 21 22  1  0
 22 23  2  0
 23 24  1  0
 24 25  2  0
 25 26  1  0
 11 27  1  0
  6 28  1  0
 28 29  2  0
 29  3  1  0
 27  8  1  0
 25 20  1  0
  1 30  1  0
  1 31  1  0
  1 32  1  0
  4 33  1  0
  5 34  1  0
 10 35  1  0
 12 36  1  0
 12 37  1  0
 16 38  1  0
 16 39  1  0
 17 40  1  0
 21 41  1  0
 22 42  1  0
 23 43  1  0
 24 44  1  0
 28 45  1  0
 29 46  1  0
M  CHG  1  26  -1
M  END
>  <UniqueID>  (13) 
11

>  <SMILES>  (13) 
COc1ccc(Oc2ncc(COC(=O)CNC(=O)c3ccccc3[O-])s2)cc1

>  <Energy>  (13) 
78.15055303267232

>  <Genealogy>  (13) 
COc1ccc(Oc2ncc(COC(=O)CNC(=O)c3ccccc3[O-])s2)cc1 (protonated)
COc1ccc(Oc2ncc(COC(=O)CNC(=O)c3ccccc3[O-])s2)cc1 (3D coordinates assigned)
COc1ccc(Oc2ncc(COC(=O)CNC(=O)c3ccccc3[O-])s2)cc1 (optimized conformer: 78.15055303267232 kcal/mol)

>  <smiles>  (13) 
COc1ccc(Oc2ncc(COC(=O)CNC(=O)c3ccccc3O)s2)cc1

>  <score_type>  (13) 
oracle

>  <origin>  (13) 
adg

>  <m_score__min__energy>  (13) 
-12.85

>  <m_primary>  (13) 
energy

$$$$
13:0
     RDKit          3D

 41 43  0  0  0  0  0  0  0  0999 V2000
   60.1790   29.4580   47.2090 C   0  0  0  0  0  0  0  0  0  0  0  0
   60.0600   30.8230   47.5940 O   0  0  0  0  0  0  0  0  0  0  0  0
   61.0220   31.8130   47.3310 C   0  0  0  0  0  0  0  0  0  0  0  0
   62.3980   31.5860   47.5360 C   0  0  0  0  0  0  0  0  0  0  0  0
   63.3280   32.5930   47.2720 C   0  0  0  0  0  0  0  0  0  0  0  0
   62.9010   33.8350   46.8010 C   0  0  0  0  0  0  0  0  0  0  0  0
   61.5410   34.0750   46.5930 C   0  0  0  0  0  0  0  0  0  0  0  0
   60.5940   33.0680   46.8500 C   0  0  0  0  0  0  0  0  0  0  0  0
   59.1280   33.3480   46.6400 C   0  0  0  0  0  0  0  0  0  0  0  0
   58.4820   32.2110   45.9890 N   0  0  0  0  0  0  0  0  0  0  0  0
   58.1620   32.2050   44.5890 C   0  0  0  0  0  0  0  0  0  0  0  0
   58.5230   33.1590   43.8510 O   0  0  0  0  0  0  0  0  0  0  0  0
   57.4100   31.0520   43.9890 C   0  0  1  0  0  0  0  0  0  0  0  0
   58.1830   29.7240   44.1000 C   0  0  0  0  0  0  0  0  0  0  0  0
   57.2540   28.8950   44.9310 C   0  0  0  0  0  0  0  0  0  0  0  0
   57.5060   27.4970   45.3550 C   0  0  0  0  0  0  0  0  0  0  0  0
   57.7880   26.5000   44.4010 C   0  0  0  0  0  0  0  0  0  0  0  0
   58.0240   25.1820   44.8020 C   0  0  0  0  0  0  0  0  0  0  0  0
   57.9830   24.8430   46.1560 C   0  0  0  0  0  0  0  0  0  0  0  0
   58.2120   23.5630   46.5420 F   0  0  0  0  0  0  0  0  0  0  0  0
   57.7040   25.8220   47.1120 C   0  0  0  0  0  0  0  0  0  0  0  0
   57.4660   27.1420   46.7170 C   0  0  0  0  0  0  0  0  0  0  0  0
   56.1830   29.5380   45.2500 N   0  0  0  0  0  0  0  0  0  0  0  0
   56.2250   30.8030   44.7250 O   0  0  0  0  0  0  0  0  0  0  0  0
   60.2340   28.8269   48.1082 H   0  0  0  0  0  0  0  0  0  0  0  0
   59.3027   29.1681   46.6106 H   0  0  0  0  0  0  0  0  0  0  0  0
   61.0922   29.3241   46.6106 H   0  0  0  0  0  0  0  0  0  0  0  0
   62.7412   30.6088   47.9065 H   0  0  0  0  0  0  0  0  0  0  0  0
   64.3997   32.4069   47.4356 H   0  0  0  0  0  0  0  0  0  0  0  0
   63.6365   34.6261   46.5932 H   0  0  0  0  0  0  0  0  0  0  0  0
   61.2088   35.0574   46.2261 H   0  0  0  0  0  0  0  0  0  0  0  0
   58.6499   33.5279   47.6142 H   0  0  0  0  0  0  0  0  0  0  0  0
   59.0219   34.2350   45.9982 H   0  0  0  0  0  0  0  0  0  0  0  0
   58.2400   31.3770   46.5710 H   0  0  0  0  0  0  0  0  0  0  0  0
   57.2342   31.3373   42.9413 H   0  0  0  0  0  0  0  0  0  0  0  0
   58.3460   29.2720   43.1105 H   0  0  0  0  0  0  0  0  0  0  0  0
   59.1897   29.8302   44.5304 H   0  0  0  0  0  0  0  0  0  0  0  0
   57.8228   26.7604   43.3328 H   0  0  0  0  0  0  0  0  0  0  0  0
   58.2425   24.4101   44.0494 H   0  0  0  0  0  0  0  0  0  0  0  0
   57.6714   25.5540   48.1784 H   0  0  0  0  0  0  0  0  0  0  0  0
   57.2461   27.9081   47.4751 H   0  0  0  0  0  0  0  0  0  0  0  0
  1  2  1  0
  2  3  1  0
  3  4  2  0
  4  5  1  0
  5  6  2  0
  6  7  1  0
  7  8  2  0
  8  9  1  0
  9 10  1  0
 10 11  1  0
 11 12  2  0
 11 13  1  0
 13 14  1  0
 14 15  1  0
 15 16  1  0
 16 17  2  0
 17 18  1  0
 18 19  2  0
 19 20  1  0
 19 21  1  0
 21 22  2  0
 15 23  2  0
 23 24  1  0
  8  3  1  0
 24 13  1  0
 22 16  1  0
  1 25  1  0
  1 26  1  0
  1 27  1  0
  4 28  1  0
  5 29  1  0
  6 30  1  0
  7 31  1  0
  9 32  1  0
  9 33  1  0
 10 34  1  0
 13 35  1  6
 14 36  1  0
 14 37  1  0
 17 38  1  0
 18 39  1  0
 21 40  1  0
 22 41  1  0
M  END
>  <UniqueID>  (14) 
12

>  <SMILES>  (14) 
COc1ccccc1CNC(=O)[C@H]1CC(c2ccc(F)cc2)=NO1

>  <Energy>  (14) 
52.78356377091775

>  <Genealogy>  (14) 
COc1ccccc1CNC(=O)[C@H]1CC(c2ccc(F)cc2)=NO1 (chirality)
COc1ccccc1CNC(=O)[C@H]1CC(c2ccc(F)cc2)=NO1 (3D coordinates assigned)
COc1ccccc1CNC(=O)[C@H]1CC(c2ccc(F)cc2)=NO1 (nonaromatic ring conformer: 52.78356377091775 kcal/mol)

>  <smiles>  (14) 
COc1ccccc1CNC(=O)C1CC(c2ccc(F)cc2)=NO1

>  <score_type>  (14) 
oracle

>  <origin>  (14) 
adg

>  <m_score__min__energy>  (14) 
-7.5

>  <m_primary>  (14) 
energy

$$$$
14:0
     RDKit          3D

 35 37  0  0  0  0  0  0  0  0999 V2000
   59.0080   35.3413   44.8723 H   0  0  0  0  0  0  0  0  0  0  0  0
   58.5190   34.3560   44.8690 C   0  0  0  0  0  0  0  0  0  0  0  0
   58.7280   33.4750   43.8040 C   0  0  0  0  0  0  0  0  0  0  0  0
   59.3886   33.7648   42.9736 H   0  0  0  0  0  0  0  0  0  0  0  0
   58.0990   32.2260   43.7920 C   0  0  0  0  0  0  0  0  0  0  0  0
   58.2819   31.5279   42.9618 H   0  0  0  0  0  0  0  0  0  0  0  0
   57.2360   31.8610   44.8350 C   0  0  0  0  0  0  0  0  0  0  0  0
   56.6490   30.5520   44.8320 N   0  0  0  0  0  0  0  0  0  0  0  0
   57.0540   29.5050   45.4920 C   0  0  0  0  0  0  0  0  0  0  0  0
   58.0240   29.6630   46.4270 N   0  0  0  0  0  0  0  0  0  0  0  0
   58.4760   28.6040   47.1430 C   0  0  0  0  0  0  0  0  0  0  0  0
   59.4840   28.8090   48.2280 C   0  0  0  0  0  0  0  0  0  0  0  0
   60.4351   29.1335   47.7806 H   0  0  0  0  0  0  0  0  0  0  0  0
   59.6201   27.8604   48.7679 H   0  0  0  0  0  0  0  0  0  0  0  0
   58.9120   30.0810   49.4100 S   0  0  0  0  0  0  0  0  0  0  0  0
   59.6920   31.4600   48.5590 C   0  0  0  0  0  0  0  0  0  0  0  0
   60.5280   31.2150   47.4610 C   0  0  0  0  0  0  0  0  0  0  0  0
   60.6912   30.1838   47.1146 H   0  0  0  0  0  0  0  0  0  0  0  0
   61.1550   32.2790   46.8050 C   0  0  0  0  0  0  0  0  0  0  0  0
   61.8203   32.0835   45.9511 H   0  0  0  0  0  0  0  0  0  0  0  0
   60.9360   33.5920   47.2350 C   0  0  0  0  0  0  0  0  0  0  0  0
   61.4283   34.4290   46.7182 H   0  0  0  0  0  0  0  0  0  0  0  0
   60.0920   33.8410   48.3210 C   0  0  0  0  0  0  0  0  0  0  0  0
   59.9189   34.8742   48.6565 H   0  0  0  0  0  0  0  0  0  0  0  0
   59.4670   32.7780   48.9820 C   0  0  0  0  0  0  0  0  0  0  0  0
   58.6530   33.0320   50.0380 F   0  0  0  0  0  0  0  0  0  0  0  0
   57.9560   27.3710   46.9220 N   0  0  0  0  0  0  0  0  0  0  0  0
   57.0020   27.1930   45.9760 C   0  0  0  0  0  0  0  0  0  0  0  0
   56.4040   25.6940   45.7090 S   0  0  0  0  0  0  0  0  0  0  0  0
   56.5520   28.2550   45.2530 N   0  0  0  0  0  0  0  0  0  0  0  0
   55.8500   28.0860   44.4990 H   0  0  0  0  0  0  0  0  0  0  0  0
   57.0570   32.7360   45.9210 C   0  0  0  0  0  0  0  0  0  0  0  0
   56.4188   32.4380   46.7659 H   0  0  0  0  0  0  0  0  0  0  0  0
   57.6880   33.9840   45.9300 C   0  0  0  0  0  0  0  0  0  0  0  0
   57.5304   34.6735   46.7725 H   0  0  0  0  0  0  0  0  0  0  0  0
  1  2  1  0
  2  3  2  0
  3  4  1  0
  3  5  1  0
  5  6  1  0
  5  7  2  0
  7  8  1  0
  8  9  2  0
  9 10  1  0
 10 11  1  0
 11 12  1  0
 12 13  1  0
 12 14  1  0
 12 15  1  0
 15 16  1  0
 16 17  2  0
 17 18  1  0
 17 19  1  0
 19 20  1  0
 19 21  2  0
 21 22  1  0
 21 23  1  0
 23 24  1  0
 23 25  2  0
 25 26  1  0
 11 27  2  0
 27 28  1  0
 28 29  2  0
 28 30  1  0
 30 31  1  0
  7 32  1  0
 32 33  1  0
 32 34  2  0
 34 35  1  0
 34  2  1  0
 30  9  1  0
 25 16  1  0
M  CHG  1  10  -1
M  END
>  <UniqueID>  (15) 
13

>  <SMILES>  (15) 
Fc1ccccc1SCc1nc(=S)[nH]/c(=N\c2ccccc2)[n-]1

>  <Energy>  (15) 
41.358863481482544

>  <Genealogy>  (15) 
Fc1ccccc1SCc1nc(=S)[nH]c(=Nc2ccccc2)[n-]1 (protonated)
Fc1ccccc1SCc1nc(=S)[nH]/c(=N\c2ccccc2)[n-]1 (cis-trans isomerization)
Fc1ccccc1SCc1nc(=S)[nH]/c(=N\c2ccccc2)[n-]1 (3D coordinates assigned)
Fc1ccccc1SCc1nc(=S)[nH]/c(=N\c2ccccc2)[n-]1 (optimized conformer: 41.358863481482544 kcal/mol)

>  <smiles>  (15) 
Fc1ccccc1SCc1nc(=S)[nH]c(=Nc2ccccc2)[nH]1

>  <score_type>  (15) 
oracle

>  <origin>  (15) 
adg

>  <m_score__min__energy>  (15) 
-9.0500000000000007

>  <m_primary>  (15) 
energy

$$$$
15:0
     RDKit          3D

 19 20  0  0  0  0  0  0  0  0999 V2000
   55.1390   27.4860   45.3590 H   0  0  0  0  0  0  0  0  0  0  0  0
   54.9670   26.7170   45.9940 O   0  0  0  0  0  0  0  0  0  0  0  0
   55.9030   25.7020   46.1780 C   0  0  0  0  0  0  0  0  0  0  0  0
   55.5880   24.4830   46.6440 N   0  0  0  0  0  0  0  0  0  0  0  0
   56.7700   23.8300   46.6090 C   0  0  0  0  0  0  0  0  0  0  0  0
   56.9310   22.2720   47.0680 S   0  0  0  0  0  0  0  0  0  0  0  0
   57.8040   24.5650   46.1450 N   0  0  0  0  0  0  0  0  0  0  0  0
   57.2510   25.7650   45.8990 C   0  0  0  0  0  0  0  0  0  0  0  0
   57.9790   26.8800   45.2770 C   0  0  0  0  0  0  0  0  0  0  0  0
   58.8764   26.6317   44.6913 H   0  0  0  0  0  0  0  0  0  0  0  0
   57.6400   28.1780   45.3640 C   0  0  0  0  0  0  0  0  0  0  0  0
   56.7690   28.8100   44.4980 C   0  0  0  0  0  0  0  0  0  0  0  0
   56.2816   28.3381   43.6321 H   0  0  0  0  0  0  0  0  0  0  0  0
   56.6080   30.0920   44.8760 N   0  0  0  0  0  0  0  0  0  0  0  0
   57.3610   30.3190   45.9400 N   0  0  0  0  0  0  0  0  0  0  0  0
   58.0140   29.1850   46.2590 C   0  0  0  0  0  0  0  0  0  0  0  0
   58.9250   29.1470   47.2340 C   0  0  0  0  0  0  0  0  0  0  0  0
   59.4401   28.2039   47.4690 H   0  0  0  0  0  0  0  0  0  0  0  0
   59.1606   30.0588   47.8025 H   0  0  0  0  0  0  0  0  0  0  0  0
  1  2  1  0
  2  3  1  0
  3  4  1  0
  4  5  1  0
  5  6  2  0
  5  7  1  0
  7  8  1  0
  8  9  1  0
  9 10  1  0
  9 11  2  0
 11 12  1  0
 12 13  1  0
 12 14  2  0
 14 15  1  0
 15 16  1  0
 16 17  2  0
 17 18  1  0
 17 19  1  0
  8  3  2  0
 16 11  1  0
M  CHG  3   4  -1   7  -1  15  -1
M  END
>  <UniqueID>  (16) 
14

>  <SMILES>  (16) 
C=c1[n-]nc/c1=C/c1[n-]c(=S)[n-]c1O

>  <Energy>  (16) 
89.53611797336278

>  <Genealogy>  (16) 
C=c1[n-]ncc1=Cc1[n-]c(=S)[n-]c1O (protonated)
C=c1[n-]nc/c1=C/c1[n-]c(=S)[n-]c1O (cis-trans isomerization)
C=c1[n-]nc/c1=C/c1[n-]c(=S)[n-]c1O (3D coordinates assigned)
C=c1[n-]nc/c1=C/c1[n-]c(=S)[n-]c1O (optimized conformer: 89.53611797336278 kcal/mol)

>  <smiles>  (16) 
C=c1[nH]ncc1=Cc1[nH]c(=S)[nH]c1O

>  <score_type>  (16) 
oracle

>  <origin>  (16) 
adg

>  <m_score__min__energy>  (16) 
-11.73

>  <m_primary>  (16) 
energy

$$$$
16:0
     RDKit          3D

 40 43  0  0  0  0  0  0  0  0999 V2000
   60.9330   28.6330   45.8300 O   0  0  0  0  0  0  0  0  0  0  0  0
   60.3650   29.7440   46.0020 C   0  0  0  0  0  0  0  0  0  0  0  0
   59.3870   30.1750   45.0450 N   0  0  0  0  0  0  0  0  0  0  0  0
   58.1420   29.7930   44.9610 C   0  0  0  0  0  0  0  0  0  0  0  0
   57.1360   30.5890   44.3740 C   0  0  0  0  0  0  0  0  0  0  0  0
   55.8210   30.1180   44.3320 C   0  0  0  0  0  0  0  0  0  0  0  0
   55.5120   28.9070   44.8640 N   0  0  0  0  0  0  0  0  0  0  0  0
   56.4570   28.1250   45.4500 C   0  0  0  0  0  0  0  0  0  0  0  0
   57.7830   28.5570   45.5150 C   0  0  0  0  0  0  0  0  0  0  0  0
   60.8020   30.6230   47.1040 C   0  0  0  0  0  0  0  0  0  0  0  0
   61.9990   31.0130   47.1460 O   0  0  0  0  0  0  0  0  0  0  0  0
   59.8730   31.0320   48.1770 C   0  0  0  0  0  0  0  0  0  0  0  0
   58.8860   32.0250   48.1160 C   0  0  0  0  0  0  0  0  0  0  0  0
   58.6550   32.9750   47.0070 C   0  0  0  0  0  0  0  0  0  0  0  0
   57.4080   33.0420   46.3590 C   0  0  0  0  0  0  0  0  0  0  0  0
   57.2080   33.9340   45.3020 C   0  0  0  0  0  0  0  0  0  0  0  0
   58.2510   34.7600   44.8750 C   0  0  0  0  0  0  0  0  0  0  0  0
   59.4980   34.6910   45.5010 C   0  0  0  0  0  0  0  0  0  0  0  0
   59.7030   33.7990   46.5590 C   0  0  0  0  0  0  0  0  0  0  0  0
   58.1510   32.0280   49.2530 N   0  0  0  0  0  0  0  0  0  0  0  0
   58.6540   31.0520   50.0300 C   0  0  0  0  0  0  0  0  0  0  0  0
   58.2010   30.6540   51.2920 C   0  0  0  0  0  0  0  0  0  0  0  0
   56.8630   31.4640   52.0890 Cl  0  0  0  0  0  0  0  0  0  0  0  0
   58.8460   29.5670   51.9100 C   0  0  0  0  0  0  0  0  0  0  0  0
   59.9070   28.9010   51.2590 C   0  0  0  0  0  0  0  0  0  0  0  0
   60.3390   29.3200   49.9890 C   0  0  0  0  0  0  0  0  0  0  0  0
   59.7000   30.4190   49.4070 C   0  0  0  0  0  0  0  0  0  0  0  0
   57.3851   31.5739   43.9522 H   0  0  0  0  0  0  0  0  0  0  0  0
   55.0339   30.7297   43.8668 H   0  0  0  0  0  0  0  0  0  0  0  0
   56.1763   27.1496   45.8740 H   0  0  0  0  0  0  0  0  0  0  0  0
   58.5443   27.9284   46.0001 H   0  0  0  0  0  0  0  0  0  0  0  0
   56.5858   32.3886   46.6862 H   0  0  0  0  0  0  0  0  0  0  0  0
   56.2279   33.9860   44.8053 H   0  0  0  0  0  0  0  0  0  0  0  0
   58.0902   35.4647   44.0458 H   0  0  0  0  0  0  0  0  0  0  0  0
   60.3197   35.3388   45.1616 H   0  0  0  0  0  0  0  0  0  0  0  0
   60.6891   33.7418   47.0431 H   0  0  0  0  0  0  0  0  0  0  0  0
   57.3560   32.6650   49.4830 H   0  0  0  0  0  0  0  0  0  0  0  0
   58.5215   29.2339   52.9069 H   0  0  0  0  0  0  0  0  0  0  0  0
   60.3991   28.0481   51.7493 H   0  0  0  0  0  0  0  0  0  0  0  0
   61.1557   28.7987   49.4682 H   0  0  0  0  0  0  0  0  0  0  0  0
  1  2  2  0
  2  3  1  0
  3  4  2  3
  4  5  1  0
  5  6  2  0
  6  7  1  0
  7  8  1  0
  8  9  2  0
  2 10  1  0
 10 11  2  0
 10 12  1  0
 12 13  2  0
 13 14  1  0
 14 15  2  0
 15 16  1  0
 16 17  2  0
 17 18  1  0
 18 19  2  0
 13 20  1  0
 20 21  1  0
 21 22  2  0
 22 23  1  0
 22 24  1  0
 24 25  2  0
 25 26  1  0
 26 27  2  0
  9  4  1  0
 27 12  1  0
 19 14  1  0
 27 21  1  0
  5 28  1  0
  6 29  1  0
  8 30  1  0
  9 31  1  0
 15 32  1  0
 16 33  1  0
 17 34  1  0
 18 35  1  0
 19 36  1  0
 20 37  1  0
 24 38  1  0
 25 39  1  0
 26 40  1  0
M  CHG  1   7  -1
M  END
>  <UniqueID>  (17) 
15

>  <SMILES>  (17) 
O=C(N=c1cc[n-]cc1)C(=O)c1c(-c2ccccc2)[nH]c2c(Cl)cccc12

>  <Energy>  (17) 
96.19243950018809

>  <Genealogy>  (17) 
O=C(N=c1cc[n-]cc1)C(=O)c1c(-c2ccccc2)[nH]c2c(Cl)cccc12 (protonated)
O=C(N=c1cc[n-]cc1)C(=O)c1c(-c2ccccc2)[nH]c2c(Cl)cccc12 (3D coordinates assigned)
O=C(N=c1cc[n-]cc1)C(=O)c1c(-c2ccccc2)[nH]c2c(Cl)cccc12 (optimized conformer: 96.19243950018809 kcal/mol)

>  <smiles>  (17) 
O=C(N=c1cc[nH]cc1)C(=O)c1c(-c2ccccc2)[nH]c2c(Cl)cccc12

>  <score_type>  (17) 
oracle

>  <origin>  (17) 
adg

>  <m_score__min__energy>  (17) 
-10.039999999999999

>  <m_primary>  (17) 
energy

$$$$
17:0
     RDKit          3D

 32 34  0  0  0  0  0  0  0  0999 V2000
   60.2199   35.7867   45.3838 H   0  0  0  0  0  0  0  0  0  0  0  0
   59.5170   35.0060   45.7100 C   0  0  0  0  0  0  0  0  0  0  0  0
   58.8160   34.2420   44.8300 N   0  0  0  0  0  0  0  0  0  0  0  0
   57.9910   33.3790   45.4580 C   0  0  0  0  0  0  0  0  0  0  0  0
   57.2680   32.3620   44.7510 N   0  0  0  0  0  0  0  0  0  0  0  0
   57.3690   31.0670   44.8750 C   0  0  0  0  0  0  0  0  0  0  0  0
   56.2400   30.3200   44.7570 N   0  0  0  0  0  0  0  0  0  0  0  0
   56.2400   28.9650   44.8730 C   0  0  0  0  0  0  0  0  0  0  0  0
   55.2994   28.4055   44.7621 H   0  0  0  0  0  0  0  0  0  0  0  0
   57.4370   28.2770   45.1340 C   0  0  0  0  0  0  0  0  0  0  0  0
   57.4770   26.8010   45.2740 C   0  0  0  0  0  0  0  0  0  0  0  0
   57.6210   26.3030   46.4230 O   0  0  0  0  0  0  0  0  0  0  0  0
   57.3460   25.9380   44.1290 N   0  0  0  0  0  0  0  0  0  0  0  0
   57.0880   26.3490   43.2050 H   0  0  0  0  0  0  0  0  0  0  0  0
   57.4850   24.5080   44.1840 C   0  0  0  0  0  0  0  0  0  0  0  0
   56.6840   23.7060   43.3560 C   0  0  0  0  0  0  0  0  0  0  0  0
   55.9470   24.1759   42.6881 H   0  0  0  0  0  0  0  0  0  0  0  0
   56.8160   22.3150   43.3740 C   0  0  0  0  0  0  0  0  0  0  0  0
   56.1749   21.6939   42.7312 H   0  0  0  0  0  0  0  0  0  0  0  0
   57.7620   21.7120   44.2080 C   0  0  0  0  0  0  0  0  0  0  0  0
   57.8603   20.6166   44.2269 H   0  0  0  0  0  0  0  0  0  0  0  0
   58.5820   22.5010   45.0170 C   0  0  0  0  0  0  0  0  0  0  0  0
   59.3316   22.0266   45.6674 H   0  0  0  0  0  0  0  0  0  0  0  0
   58.4520   23.8940   45.0020 C   0  0  0  0  0  0  0  0  0  0  0  0
   59.1084   24.5120   45.6322 H   0  0  0  0  0  0  0  0  0  0  0  0
   58.6090   29.0300   45.2980 C   0  0  0  0  0  0  0  0  0  0  0  0
   59.5566   28.5209   45.5279 H   0  0  0  0  0  0  0  0  0  0  0  0
   58.5830   30.4190   45.1720 C   0  0  0  0  0  0  0  0  0  0  0  0
   59.5051   31.0042   45.3038 H   0  0  0  0  0  0  0  0  0  0  0  0
   58.1600   33.4780   47.1320 S   0  0  0  0  0  0  0  0  0  0  0  0
   59.2810   34.7290   47.0510 C   0  0  0  0  0  0  0  0  0  0  0  0
   59.7455   35.2381   47.9084 H   0  0  0  0  0  0  0  0  0  0  0  0
  1  2  1  0
  2  3  1  0
  3  4  2  0
  4  5  1  0
  5  6  2  0
  6  7  1  0
  7  8  1  0
  8  9  1  0
  8 10  2  0
 10 11  1  0
 11 12  2  0
 11 13  1  0
 13 14  1  0
 13 15  1  0
 15 16  2  0
 16 17  1  0
 16 18  1  0
 18 19  1  0
 18 20  2  0
 20 21  1  0
 20 22  1  0
 22 23  1  0
 22 24  2  0
 24 25  1  0
 10 26  1  0
 26 27  1  0
 26 28  2  0
 28 29  1  0
  4 30  1  0
 30 31  1  0
 31 32  1  0
 31  2  2  0
 28  6  1  0
 24 15  1  0
M  CHG  1   7  -1
M  END
>  <UniqueID>  (18) 
16

>  <SMILES>  (18) 
O=C(Nc1ccccc1)c1cc/c(=N\c2nccs2)[n-]c1

>  <Energy>  (18) 
81.35253780423385

>  <Genealogy>  (18) 
O=C(Nc1ccccc1)c1ccc(=Nc2nccs2)[n-]c1 (protonated)
O=C(Nc1ccccc1)c1cc/c(=N\c2nccs2)[n-]c1 (cis-trans isomerization)
O=C(Nc1ccccc1)c1cc/c(=N\c2nccs2)[n-]c1 (3D coordinates assigned)
O=C(Nc1ccccc1)c1cc/c(=N\c2nccs2)[n-]c1 (optimized conformer: 81.35253780423385 kcal/mol)

>  <smiles>  (18) 
O=C(Nc1ccccc1)c1ccc(=Nc2nccs2)[nH]c1

>  <score_type>  (18) 
oracle

>  <origin>  (18) 
adg

>  <m_score__min__energy>  (18) 
-8.6799999999999997

>  <m_primary>  (18) 
energy

$$$$
18:0
     RDKit          3D

 63 66  0  0  0  0  0  0  0  0999 V2000
   56.2890   29.8320   43.6680 C   0  0  0  0  0  0  0  0  0  0  0  0
   55.8760   28.9780   44.8660 C   0  0  0  0  0  0  0  0  0  0  0  0
   57.0630   28.5200   45.6180 N   0  0  0  0  0  0  0  0  0  0  0  0
   58.1180   29.3950   45.6410 C   0  0  0  0  0  0  0  0  0  0  0  0
   59.3290   29.0800   46.2600 C   0  0  0  0  0  0  0  0  0  0  0  0
   60.4410   30.0680   46.2490 C   0  0  0  0  0  0  0  0  0  0  0  0
   61.5540   29.7440   45.7560 O   0  0  0  0  0  0  0  0  0  0  0  0
   60.2690   31.4080   46.7310 N   0  0  0  0  0  0  0  0  0  0  0  0
   59.3750   32.3940   46.1950 C   0  0  0  0  0  0  0  0  0  0  0  0
   59.1190   33.5540   46.9390 C   0  0  0  0  0  0  0  0  0  0  0  0
   58.2390   34.5260   46.4520 C   0  0  0  0  0  0  0  0  0  0  0  0
   57.5960   34.3390   45.2250 C   0  0  0  0  0  0  0  0  0  0  0  0
   57.8290   33.1760   44.4850 C   0  0  0  0  0  0  0  0  0  0  0  0
   58.7090   32.2010   44.9700 C   0  0  0  0  0  0  0  0  0  0  0  0
   59.4760   27.8240   46.8540 C   0  0  0  0  0  0  0  0  0  0  0  0
   60.5730   27.5110   47.3970 O   0  0  0  0  0  0  0  0  0  0  0  0
   58.3950   26.9240   46.8680 C   0  0  0  0  0  0  0  0  0  0  0  0
   58.5360   25.6700   47.4890 C   0  0  0  0  0  0  0  0  0  0  0  0
   57.4730   24.7770   47.5380 C   0  0  0  0  0  0  0  0  0  0  0  0
   56.2370   25.1180   46.9810 C   0  0  0  0  0  0  0  0  0  0  0  0
   55.1370   24.2460   47.0400 O   0  0  0  0  0  0  0  0  0  0  0  0
   55.2050   22.8640   47.2520 C   0  0  0  0  0  0  0  0  0  0  0  0
   55.7020   22.3930   48.3120 O   0  0  0  0  0  0  0  0  0  0  0  0
   54.7620   21.9840   46.2170 N   0  0  0  0  0  0  0  0  0  0  0  0
   54.7040   20.5320   46.3630 C   0  0  0  0  0  0  0  0  0  0  0  0
   56.0380   19.8800   45.9680 C   0  0  0  0  0  0  0  0  0  0  0  0
   57.2700   20.5390   46.6210 C   0  0  0  0  0  0  0  0  0  0  0  0
   58.3060   21.0820   45.6200 C   0  0  0  0  0  0  0  0  0  0  0  0
   57.7120   22.1060   44.6850 C   0  0  0  0  0  0  0  0  0  0  0  0
   58.0490   23.4630   44.8180 C   0  0  0  0  0  0  0  0  0  0  0  0
   57.4830   24.4170   43.9660 C   0  0  0  0  0  0  0  0  0  0  0  0
   56.5750   24.0230   42.9790 C   0  0  0  0  0  0  0  0  0  0  0  0
   56.2330   22.6750   42.8420 C   0  0  0  0  0  0  0  0  0  0  0  0
   56.7960   21.7190   43.6920 C   0  0  0  0  0  0  0  0  0  0  0  0
   56.0610   26.3760   46.3870 C   0  0  0  0  0  0  0  0  0  0  0  0
   54.7780   26.6800   45.9510 O   0  0  0  0  0  0  0  0  0  0  0  0
   57.1520   27.2960   46.2710 C   0  0  0  0  0  0  0  0  0  0  0  0
   56.7421   30.7689   44.0244 H   0  0  0  0  0  0  0  0  0  0  0  0
   57.0197   29.2799   43.0586 H   0  0  0  0  0  0  0  0  0  0  0  0
   55.4026   30.0620   43.0586 H   0  0  0  0  0  0  0  0  0  0  0  0
   55.2360   29.5758   45.5316 H   0  0  0  0  0  0  0  0  0  0  0  0
   55.3293   28.0968   44.4991 H   0  0  0  0  0  0  0  0  0  0  0  0
   58.0069   30.3763   45.1564 H   0  0  0  0  0  0  0  0  0  0  0  0
   59.6127   33.7007   47.9110 H   0  0  0  0  0  0  0  0  0  0  0  0
   58.0525   35.4395   47.0358 H   0  0  0  0  0  0  0  0  0  0  0  0
   56.9072   35.1064   44.8420 H   0  0  0  0  0  0  0  0  0  0  0  0
   57.3206   33.0268   43.5210 H   0  0  0  0  0  0  0  0  0  0  0  0
   58.8805   31.2811   44.3918 H   0  0  0  0  0  0  0  0  0  0  0  0
   59.4996   25.3930   47.9414 H   0  0  0  0  0  0  0  0  0  0  0  0
   57.6046   23.7960   48.0178 H   0  0  0  0  0  0  0  0  0  0  0  0
   54.4807   20.2855   47.4115 H   0  0  0  0  0  0  0  0  0  0  0  0
   53.9174   20.1462   45.6978 H   0  0  0  0  0  0  0  0  0  0  0  0
   56.0098   18.8224   46.2692 H   0  0  0  0  0  0  0  0  0  0  0  0
   56.1463   20.0051   44.8805 H   0  0  0  0  0  0  0  0  0  0  0  0
   56.9225   21.3759   47.2446 H   0  0  0  0  0  0  0  0  0  0  0  0
   57.7759   19.7532   47.2012 H   0  0  0  0  0  0  0  0  0  0  0  0
   59.1292   21.5492   46.1804 H   0  0  0  0  0  0  0  0  0  0  0  0
   58.6641   20.2375   45.0128 H   0  0  0  0  0  0  0  0  0  0  0  0
   58.7611   23.7768   45.5955 H   0  0  0  0  0  0  0  0  0  0  0  0
   57.7526   25.4781   44.0727 H   0  0  0  0  0  0  0  0  0  0  0  0
   56.1296   24.7741   42.3101 H   0  0  0  0  0  0  0  0  0  0  0  0
   55.5195   22.3658   42.0639 H   0  0  0  0  0  0  0  0  0  0  0  0
   56.5210   20.6595   43.5833 H   0  0  0  0  0  0  0  0  0  0  0  0
  1  2  1  0
  2  3  1  0
  3  4  1  0
  4  5  2  0
  5  6  1  0
  6  7  2  0
  6  8  1  0
  8  9  1  0
  9 10  2  0
 10 11  1  0
 11 12  2  0
 12 13  1  0
 13 14  2  0
  5 15  1  0
 15 16  2  0
 15 17  1  0
 17 18  2  0
 18 19  1  0
 19 20  2  0
 20 21  1  0
 21 22  1  0
 22 23  2  0
 22 24  1  0
 24 25  1  0
 25 26  1  0
 26 27  1  0
 27 28  1  0
 28 29  1  0
 29 30  2  0
 30 31  1  0
 31 32  2  0
 32 33  1  0
 33 34  2  0
 20 35  1  0
 35 36  1  0
 35 37  2  0
 37  3  1  0
 14  9  1  0
 37 17  1  0
 34 29  1  0
  1 38  1  0
  1 39  1  0
  1 40  1  0
  2 41  1  0
  2 42  1  0
  4 43  1  0
 10 44  1  0
 11 45  1  0
 12 46  1  0
 13 47  1  0
 14 48  1  0
 18 49  1  0
 19 50  1  0
 25 51  1  0
 25 52  1  0
 26 53  1  0
 26 54  1  0
 27 55  1  0
 27 56  1  0
 28 57  1  0
 28 58  1  0
 30 59  1  0
 31 60  1  0
 32 61  1  0
 33 62  1  0
 34 63  1  0
M  CHG  3   8  -1  24  -1  36  -1
M  END
>  <UniqueID>  (19) 
17

>  <SMILES>  (19) 
CCn1cc(C(=O)[N-]c2ccccc2)c(=O)c2ccc(OC(=O)[N-]CCCCc3ccccc3)c([O-])c21

>  <Energy>  (19) 
86.608778435725

>  <Genealogy>  (19) 
CCn1cc(C(=O)[N-]c2ccccc2)c(=O)c2ccc(OC(=O)[N-]CCCCc3ccccc3)c([O-])c21 (protonated)
CCn1cc(C(=O)[N-]c2ccccc2)c(=O)c2ccc(OC(=O)[N-]CCCCc3ccccc3)c([O-])c21 (3D coordinates assigned)
CCn1cc(C(=O)[N-]c2ccccc2)c(=O)c2ccc(OC(=O)[N-]CCCCc3ccccc3)c([O-])c21 (optimized conformer: 86.608778435725 kcal/mol)

>  <smiles>  (19) 
CCn1cc(C(=O)Nc2ccccc2)c(=O)c2ccc(OC(=O)NCCCCc3ccccc3)c(O)c21

>  <score_type>  (19) 
oracle

>  <origin>  (19) 
adg

>  <m_score__min__energy>  (19) 
-13.85

>  <m_primary>  (19) 
energy

$$$$
19:0
     RDKit          3D

 58 61  0  0  0  0  0  0  0  0999 V2000
   57.7716   31.8123   43.0789 H   0  0  0  0  0  0  0  0  0  0  0  0
   57.3830   31.5960   44.0850 C   0  0  0  0  0  0  0  0  0  0  0  0
   57.2730   30.1880   44.5190 C   0  0  0  0  0  0  0  0  0  0  0  0
   57.1310   29.2710   43.6670 O   0  0  0  0  0  0  0  0  0  0  0  0
   57.3910   29.8290   45.9020 N   0  0  0  0  0  0  0  0  0  0  0  0
   57.7870   28.5460   46.4130 C   0  0  0  0  0  0  0  0  0  0  0  0
   57.0560   27.3860   46.1070 C   0  0  0  0  0  0  0  0  0  0  0  0
   56.1435   27.4628   45.4975 H   0  0  0  0  0  0  0  0  0  0  0  0
   57.4770   26.1320   46.5700 C   0  0  0  0  0  0  0  0  0  0  0  0
   56.5420   24.6840   46.1880 S   0  0  0  0  0  0  0  0  0  0  0  0
   56.5190   23.7800   47.3890 O   0  0  0  0  0  0  0  0  0  0  0  0
   55.1240   25.0790   45.8770 O   0  0  0  0  0  0  0  0  0  0  0  0
   57.2170   23.8180   44.8260 N   0  0  0  0  0  0  0  0  0  0  0  0
   57.1380   22.3610   45.0490 C   0  0  0  0  0  0  0  0  0  0  0  0
   57.9664   22.0498   45.7024 H   0  0  0  0  0  0  0  0  0  0  0  0
   56.1725   22.1261   45.5209 H   0  0  0  0  0  0  0  0  0  0  0  0
   57.2350   21.6040   43.7150 C   0  0  0  0  0  0  0  0  0  0  0  0
   58.2024   21.8450   43.2503 H   0  0  0  0  0  0  0  0  0  0  0  0
   57.1316   20.5340   43.9484 H   0  0  0  0  0  0  0  0  0  0  0  0
   56.2020   21.9250   42.7900 O   0  0  0  0  0  0  0  0  0  0  0  0
   55.6120   23.1990   43.0080 C   0  0  0  0  0  0  0  0  0  0  0  0
   55.2061   23.5642   42.0531 H   0  0  0  0  0  0  0  0  0  0  0  0
   54.8276   23.0700   43.7683 H   0  0  0  0  0  0  0  0  0  0  0  0
   56.6060   24.2440   43.5490 C   0  0  0  0  0  0  0  0  0  0  0  0
   57.4034   24.3935   42.8062 H   0  0  0  0  0  0  0  0  0  0  0  0
   56.0524   25.1768   43.7317 H   0  0  0  0  0  0  0  0  0  0  0  0
   58.6490   26.0370   47.3300 C   0  0  0  0  0  0  0  0  0  0  0  0
   58.9794   25.0577   47.7066 H   0  0  0  0  0  0  0  0  0  0  0  0
   59.4000   27.1790   47.6120 C   0  0  0  0  0  0  0  0  0  0  0  0
   60.3288   27.0921   48.1948 H   0  0  0  0  0  0  0  0  0  0  0  0
   58.9780   28.4370   47.1570 C   0  0  0  0  0  0  0  0  0  0  0  0
   59.7490   29.6100   47.4660 N   0  0  0  0  0  0  0  0  0  0  0  0
   60.6100   30.1980   46.4370 C   0  0  0  0  0  0  0  0  0  0  0  0
   61.0218   29.3990   45.8030 H   0  0  0  0  0  0  0  0  0  0  0  0
   60.0209   30.8905   45.8178 H   0  0  0  0  0  0  0  0  0  0  0  0
   61.7570   30.9610   47.1060 C   0  0  0  0  0  0  0  0  0  0  0  0
   62.4185   30.2447   47.6152 H   0  0  0  0  0  0  0  0  0  0  0  0
   62.3133   31.5118   46.3332 H   0  0  0  0  0  0  0  0  0  0  0  0
   61.2570   31.8870   48.0540 O   0  0  0  0  0  0  0  0  0  0  0  0
   60.6230   31.1930   49.1140 C   0  0  0  0  0  0  0  0  0  0  0  0
   61.3307   30.4698   49.5454 H   0  0  0  0  0  0  0  0  0  0  0  0
   60.3091   31.9231   49.8745 H   0  0  0  0  0  0  0  0  0  0  0  0
   59.3830   30.4440   48.6120 C   0  0  0  0  0  0  0  0  0  0  0  0
   58.9876   29.8077   49.4175 H   0  0  0  0  0  0  0  0  0  0  0  0
   58.6140   31.1693   48.3077 H   0  0  0  0  0  0  0  0  0  0  0  0
   57.0260   32.6190   44.8740 C   0  0  0  0  0  0  0  0  0  0  0  0
   55.9654   32.9092   44.9027 H   0  0  0  0  0  0  0  0  0  0  0  0
   57.9850   33.3800   45.7100 C   0  0  0  0  0  0  0  0  0  0  0  0
   58.9180   34.2830   45.1580 C   0  0  0  0  0  0  0  0  0  0  0  0
   58.9426   34.4484   44.0708 H   0  0  0  0  0  0  0  0  0  0  0  0
   59.8120   34.9690   45.9870 C   0  0  0  0  0  0  0  0  0  0  0  0
   60.5299   35.6793   45.5511 H   0  0  0  0  0  0  0  0  0  0  0  0
   59.7950   34.7540   47.3670 C   0  0  0  0  0  0  0  0  0  0  0  0
   60.4957   35.2987   48.0169 H   0  0  0  0  0  0  0  0  0  0  0  0
   58.8890   33.8480   47.9220 C   0  0  0  0  0  0  0  0  0  0  0  0
   58.8806   33.6751   49.0083 H   0  0  0  0  0  0  0  0  0  0  0  0
   57.9920   33.1600   47.0980 C   0  0  0  0  0  0  0  0  0  0  0  0
   57.2865   32.4411   47.5400 H   0  0  0  0  0  0  0  0  0  0  0  0
  1  2  1  0
  2  3  1  0
  3  4  2  0
  3  5  1  0
  5  6  1  0
  6  7  2  0
  7  8  1  0
  7  9  1  0
  9 10  1  0
 10 11  2  0
 10 12  2  0
 10 13  1  0
 13 14  1  0
 14 15  1  0
 14 16  1  0
 14 17  1  0
 17 18  1  0
 17 19  1  0
 17 20  1  0
 20 21  1  0
 21 22  1  0
 21 23  1  0
 21 24  1  0
 24 25  1  0
 24 26  1  0
  9 27  2  0
 27 28  1  0
 27 29  1  0
 29 30  1  0
 29 31  2  0
 31 32  1  0
 32 33  1  0
 33 34  1  0
 33 35  1  0
 33 36  1  0
 36 37  1  0
 36 38  1  0
 36 39  1  0
 39 40  1  0
 40 41  1  0
 40 42  1  0
 40 43  1  0
 43 44  1  0
 43 45  1  0
  2 46  2  0
 46 47  1  0
 46 48  1  0
 48 49  2  0
 49 50  1  0
 49 51  1  0
 51 52  1  0
 51 53  2  0
 53 54  1  0
 53 55  1  0
 55 56  1  0
 55 57  2  0
 57 58  1  0
 31  6  1  0
 43 32  1  0
 57 48  1  0
 24 13  1  0
M  CHG  1   5  -1
M  END
>  <UniqueID>  (20) 
18

>  <SMILES>  (20) 
O=C(/C=C/c1ccccc1)[N-]c1cc(S(=O)(=O)N2CCOCC2)ccc1N1CCOCC1

>  <Energy>  (20) 
83.00545488997116

>  <Genealogy>  (20) 
O=C(C=Cc1ccccc1)[N-]c1cc(S(=O)(=O)N2CCOCC2)ccc1N1CCOCC1 (protonated)
O=C(/C=C/c1ccccc1)[N-]c1cc(S(=O)(=O)N2CCOCC2)ccc1N1CCOCC1 (cis-trans isomerization)
O=C(/C=C/c1ccccc1)[N-]c1cc(S(=O)(=O)N2CCOCC2)ccc1N1CCOCC1 (3D coordinates assigned)
O=C(/C=C/c1ccccc1)[N-]c1cc(S(=O)(=O)N2CCOCC2)ccc1N1CCOCC1 (nonaromatic ring conformer: 83.00545488997116 kcal/mol)

>  <smiles>  (20) 
O=C(C=Cc1ccccc1)Nc1cc(S(=O)(=O)N2CCOCC2)ccc1N1CCOCC1

>  <score_type>  (20) 
oracle

>  <origin>  (20) 
adg

>  <m_score__min__energy>  (20) 
-12.43

>  <m_primary>  (20) 
energy

$$$$
20:0
     RDKit          3D

 38 39  0  0  0  0  0  0  0  0999 V2000
   55.1480   29.3250   44.8580 N   0  0  0  0  0  0  0  0  0  0  0  0
   56.7710   29.8880   44.6740 S   0  0  0  0  0  0  0  0  0  0  0  0
   56.8220   31.3650   44.9460 O   0  0  0  0  0  0  0  0  0  0  0  0
   57.2310   29.6400   43.2640 O   0  0  0  0  0  0  0  0  0  0  0  0
   57.8230   29.0460   45.8070 C   0  0  0  0  0  0  0  0  0  0  0  0
   58.2660   27.7480   45.5220 C   0  0  0  0  0  0  0  0  0  0  0  0
   59.0970   27.0750   46.4230 C   0  0  0  0  0  0  0  0  0  0  0  0
   59.5010   27.6990   47.6070 C   0  0  0  0  0  0  0  0  0  0  0  0
   59.0700   28.9970   47.9060 C   0  0  0  0  0  0  0  0  0  0  0  0
   59.5470   29.6230   49.1060 N   0  0  0  0  0  0  0  0  0  0  0  0
   58.7410   30.2610   50.1020 C   0  0  0  0  0  0  0  0  0  0  0  0
   58.0840   29.5790   50.9330 O   0  0  0  0  0  0  0  0  0  0  0  0
   58.7360   31.7590   50.1980 C   0  0  0  0  0  0  0  0  0  0  0  0
   60.0660   32.3370   49.9340 N   0  0  0  0  0  0  0  0  0  0  0  0
   60.0050   33.6680   49.3110 C   0  0  0  0  0  0  0  0  0  0  0  0
   59.6130   33.5600   47.8520 C   0  0  0  0  0  0  0  0  0  0  0  0
   58.8820   34.6320   47.2950 C   0  0  0  0  0  0  0  0  0  0  0  0
   58.4750   34.6040   45.9610 C   0  0  0  0  0  0  0  0  0  0  0  0
   58.7900   33.5060   45.1600 C   0  0  0  0  0  0  0  0  0  0  0  0
   59.5170   32.4350   45.6920 C   0  0  0  0  0  0  0  0  0  0  0  0
   59.9320   32.4440   47.0300 C   0  0  0  0  0  0  0  0  0  0  0  0
   60.6550   31.3260   47.4840 O   0  0  0  0  0  0  0  0  0  0  0  0
   58.2340   29.6730   46.9960 C   0  0  0  0  0  0  0  0  0  0  0  0
   55.1520   28.6420   45.6470 H   0  0  0  0  0  0  0  0  0  0  0  0
   57.9593   27.2568   44.5868 H   0  0  0  0  0  0  0  0  0  0  0  0
   59.4337   26.0519   46.1996 H   0  0  0  0  0  0  0  0  0  0  0  0
   60.1613   27.1671   48.3077 H   0  0  0  0  0  0  0  0  0  0  0  0
   58.0232   32.1590   49.4619 H   0  0  0  0  0  0  0  0  0  0  0  0
   58.4464   32.0313   51.2237 H   0  0  0  0  0  0  0  0  0  0  0  0
   60.6000   31.6920   49.3030 H   0  0  0  0  0  0  0  0  0  0  0  0
   59.2603   34.2805   49.8404 H   0  0  0  0  0  0  0  0  0  0  0  0
   60.9992   34.1342   49.3760 H   0  0  0  0  0  0  0  0  0  0  0  0
   58.6302   35.5006   47.9212 H   0  0  0  0  0  0  0  0  0  0  0  0
   57.9063   35.4468   45.5411 H   0  0  0  0  0  0  0  0  0  0  0  0
   58.4665   33.4821   44.1089 H   0  0  0  0  0  0  0  0  0  0  0  0
   59.7656   31.5757   45.0518 H   0  0  0  0  0  0  0  0  0  0  0  0
   60.4430   30.7960   48.3200 H   0  0  0  0  0  0  0  0  0  0  0  0
   57.9008   30.6977   47.2171 H   0  0  0  0  0  0  0  0  0  0  0  0
  1  2  1  0
  2  3  2  0
  2  4  2  0
  2  5  1  0
  5  6  2  0
  6  7  1  0
  7  8  2  0
  8  9  1  0
  9 10  1  0
 10 11  1  0
 11 12  2  0
 11 13  1  0
 13 14  1  0
 14 15  1  0
 15 16  1  0
 16 17  2  0
 17 18  1  0
 18 19  2  0
 19 20  1  0
 20 21  2  0
 21 22  1  0
  9 23  2  0
 23  5  1  0
 21 16  1  0
  1 24  1  0
  6 25  1  0
  7 26  1  0
  8 27  1  0
 13 28  1  0
 13 29  1  0
 14 30  1  0
 15 31  1  0
 15 32  1  0
 17 33  1  0
 18 34  1  0
 19 35  1  0
 20 36  1  0
 22 37  1  0
 23 38  1  0
M  CHG  2   1  -1  10  -1
M  END
>  <UniqueID>  (21) 
19

>  <SMILES>  (21) 
[NH-]S(=O)(=O)c1cccc([N-]C(=O)CNCc2ccccc2O)c1

>  <Energy>  (21) 
44.16784809385127

>  <Genealogy>  (21) 
[NH-]S(=O)(=O)c1cccc([N-]C(=O)CNCc2ccccc2O)c1 (protonated)
[NH-]S(=O)(=O)c1cccc([N-]C(=O)CNCc2ccccc2O)c1 (3D coordinates assigned)
[NH-]S(=O)(=O)c1cccc([N-]C(=O)CNCc2ccccc2O)c1 (optimized conformer: 44.16784809385127 kcal/mol)

>  <smiles>  (21) 
NS(=O)(=O)c1cccc(NC(=O)CNCc2ccccc2O)c1

>  <score_type>  (21) 
oracle

>  <origin>  (21) 
adg

>  <m_score__min__energy>  (21) 
-10.9

>  <m_primary>  (21) 
energy

$$$$
21:0
     RDKit          3D

 52 55  0  0  0  0  0  0  0  0999 V2000
   56.6390   30.4200   42.7960 C   0  0  0  0  0  0  0  0  0  0  0  0
   57.2590   31.1300   43.9070 N   0  0  0  0  0  0  0  0  0  0  0  0
   58.0000   32.2480   43.8070 C   0  0  0  0  0  0  0  0  0  0  0  0
   58.3480   32.6360   45.0830 C   0  0  0  0  0  0  0  0  0  0  0  0
   59.1640   33.8300   45.4740 C   0  0  0  0  0  0  0  0  0  0  0  0
   60.1360   33.4660   46.5280 N   0  0  0  0  0  0  0  0  0  0  0  0
   61.4150   34.1890   46.3560 C   0  0  0  0  0  0  0  0  0  0  0  0
   62.6080   33.3520   46.8610 C   0  0  0  0  0  0  0  0  0  0  0  0
   62.2550   32.4230   48.0410 C   0  0  0  0  0  0  0  0  0  0  0  0
   61.6360   33.1030   49.2160 N   0  0  0  0  0  0  0  0  0  0  0  0
   61.1620   32.1360   50.2270 C   0  0  0  0  0  0  0  0  0  0  0  0
   60.8210   30.8260   49.5880 C   0  0  0  0  0  0  0  0  0  0  0  0
   61.0950   29.6260   50.1330 N   0  0  0  0  0  0  0  0  0  0  0  0
   60.6550   28.7300   49.2340 C   0  0  0  0  0  0  0  0  0  0  0  0
   60.1250   29.4290   48.1600 C   0  0  0  0  0  0  0  0  0  0  0  0
   59.5230   28.8780   46.9260 C   0  0  0  0  0  0  0  0  0  0  0  0
   60.1220   29.0720   45.6660 C   0  0  0  0  0  0  0  0  0  0  0  0
   59.5320   28.5410   44.5140 C   0  0  0  0  0  0  0  0  0  0  0  0
   58.3430   27.8130   44.6060 C   0  0  0  0  0  0  0  0  0  0  0  0
   57.7750   27.3000   43.4870 F   0  0  0  0  0  0  0  0  0  0  0  0
   57.7410   27.6160   45.8510 C   0  0  0  0  0  0  0  0  0  0  0  0
   58.3260   28.1440   47.0050 C   0  0  0  0  0  0  0  0  0  0  0  0
   60.2460   30.7130   48.4120 O   0  0  0  0  0  0  0  0  0  0  0  0
   60.6060   34.1260   48.9180 C   0  0  0  0  0  0  0  0  0  0  0  0
   59.5590   33.6870   47.8720 C   0  0  0  0  0  0  0  0  0  0  0  0
   57.7600   31.7080   45.9220 C   0  0  0  0  0  0  0  0  0  0  0  0
   57.0960   30.8010   45.1790 N   0  0  0  0  0  0  0  0  0  0  0  0
   55.9628   29.6457   43.1874 H   0  0  0  0  0  0  0  0  0  0  0  0
   56.0665   31.1299   42.1809 H   0  0  0  0  0  0  0  0  0  0  0  0
   57.4196   29.9484   42.1809 H   0  0  0  0  0  0  0  0  0  0  0  0
   58.2783   32.7606   42.8744 H   0  0  0  0  0  0  0  0  0  0  0  0
   59.7070   34.2025   44.5929 H   0  0  0  0  0  0  0  0  0  0  0  0
   58.4925   34.6105   45.8612 H   0  0  0  0  0  0  0  0  0  0  0  0
   61.5599   34.4105   45.2883 H   0  0  0  0  0  0  0  0  0  0  0  0
   61.3696   35.1169   46.9450 H   0  0  0  0  0  0  0  0  0  0  0  0
   62.9756   32.7332   46.0291 H   0  0  0  0  0  0  0  0  0  0  0  0
   63.3681   34.0596   47.2237 H   0  0  0  0  0  0  0  0  0  0  0  0
   61.5495   31.6617   47.6767 H   0  0  0  0  0  0  0  0  0  0  0  0
   63.2072   32.0020   48.3961 H   0  0  0  0  0  0  0  0  0  0  0  0
   61.9535   31.9779   50.9743 H   0  0  0  0  0  0  0  0  0  0  0  0
   60.2588   32.5408   50.7070 H   0  0  0  0  0  0  0  0  0  0  0  0
   61.5560   29.4310   51.0500 H   0  0  0  0  0  0  0  0  0  0  0  0
   60.7061   27.6356   49.3324 H   0  0  0  0  0  0  0  0  0  0  0  0
   61.0584   29.6439   45.5874 H   0  0  0  0  0  0  0  0  0  0  0  0
   60.0053   28.6970   43.5334 H   0  0  0  0  0  0  0  0  0  0  0  0
   56.8043   27.0439   45.9232 H   0  0  0  0  0  0  0  0  0  0  0  0
   57.8468   27.9844   47.9822 H   0  0  0  0  0  0  0  0  0  0  0  0
   60.0789   34.3668   49.8530 H   0  0  0  0  0  0  0  0  0  0  0  0
   61.1350   34.9906   48.4907 H   0  0  0  0  0  0  0  0  0  0  0  0
   59.0965   32.7489   48.2126 H   0  0  0  0  0  0  0  0  0  0  0  0
   58.8245   34.5009   47.7829 H   0  0  0  0  0  0  0  0  0  0  0  0
   57.8239   31.7097   47.0201 H   0  0  0  0  0  0  0  0  0  0  0  0
  1  2  1  0
  2  3  1  0
  3  4  2  0
  4  5  1  0
  5  6  1  0
  6  7  1  0
  7  8  1  0
  8  9  1  0
  9 10  1  0
 10 11  1  0
 11 12  1  0
 12 13  2  0
 13 14  1  0
 14 15  2  0
 15 16  1  0
 16 17  2  0
 17 18  1  0
 18 19  2  0
 19 20  1  0
 19 21  1  0
 21 22  2  0
 15 23  1  0
 10 24  1  0
 24 25  1  0
  4 26  1  0
 26 27  2  0
 27  2  1  0
 25  6  1  0
 23 12  1  0
 22 16  1  0
  1 28  1  0
  1 29  1  0
  1 30  1  0
  3 31  1  0
  5 32  1  0
  5 33  1  0
  7 34  1  0
  7 35  1  0
  8 36  1  0
  8 37  1  0
  9 38  1  0
  9 39  1  0
 11 40  1  0
 11 41  1  0
 13 42  1  0
 14 43  1  0
 17 44  1  0
 18 45  1  0
 21 46  1  0
 22 47  1  0
 24 48  1  0
 24 49  1  0
 25 50  1  0
 25 51  1  0
 26 52  1  0
M  CHG  1  13   1
M  END
>  <UniqueID>  (22) 
20

>  <SMILES>  (22) 
Cn1cc(CN2CCCN(Cc3[nH+]cc(-c4ccc(F)cc4)o3)CC2)cn1

>  <Energy>  (22) 
130.57520156712195

>  <Genealogy>  (22) 
Cn1cc(CN2CCCN(Cc3[nH+]cc(-c4ccc(F)cc4)o3)CC2)cn1 (protonated)
Cn1cc(CN2CCCN(Cc3[nH+]cc(-c4ccc(F)cc4)o3)CC2)cn1 (3D coordinates assigned)
Cn1cc(CN2CCCN(Cc3[nH+]cc(-c4ccc(F)cc4)o3)CC2)cn1 (nonaromatic ring conformer: 130.57520156712195 kcal/mol)

>  <smiles>  (22) 
Cn1cc(CN2CCCN(Cc3ncc(-c4ccc(F)cc4)o3)CC2)cn1

>  <score_type>  (22) 
oracle

>  <origin>  (22) 
adg

>  <m_score__min__energy>  (22) 
-3.8599999999999999

>  <m_primary>  (22) 
energy

$$$$
22:0
     RDKit          3D

 47 49  0  0  0  0  0  0  0  0999 V2000
   58.5910   31.6610   48.0280 C   0  0  0  0  0  0  0  0  0  0  0  0
   58.8580   32.8060   47.0930 C   0  0  0  0  0  0  0  0  0  0  0  0
   59.0080   34.1080   47.6020 C   0  0  0  0  0  0  0  0  0  0  0  0
   59.2540   35.1790   46.7390 C   0  0  0  0  0  0  0  0  0  0  0  0
   59.3600   34.9620   45.3640 C   0  0  0  0  0  0  0  0  0  0  0  0
   59.2220   33.6720   44.8480 C   0  0  0  0  0  0  0  0  0  0  0  0
   58.9550   32.5890   45.7030 C   0  0  0  0  0  0  0  0  0  0  0  0
   58.8820   31.2570   45.1700 N   0  0  0  0  0  0  0  0  0  0  0  0
   57.8130   30.5180   45.0510 C   0  0  0  0  0  0  0  0  0  0  0  0
   56.6500   30.9960   44.4120 C   0  0  0  0  0  0  0  0  0  0  0  0
   55.5210   30.1810   44.3270 C   0  0  0  0  0  0  0  0  0  0  0  0
   55.5390   28.9320   44.8550 N   0  0  0  0  0  0  0  0  0  0  0  0
   56.6390   28.4390   45.4800 C   0  0  0  0  0  0  0  0  0  0  0  0
   57.8010   29.2170   45.6000 C   0  0  0  0  0  0  0  0  0  0  0  0
   59.2380   28.4930   46.3450 S   0  0  0  0  0  0  0  0  0  0  0  0
   60.4320   29.3570   46.0520 O   0  0  0  0  0  0  0  0  0  0  0  0
   59.4840   27.1370   45.7450 O   0  0  0  0  0  0  0  0  0  0  0  0
   59.0280   28.2800   48.0560 N   0  0  0  0  0  0  0  0  0  0  0  0
   59.7690   28.9470   49.0870 C   0  0  0  0  0  0  0  0  0  0  0  0
   59.2990   28.9420   50.2580 O   0  0  0  0  0  0  0  0  0  0  0  0
   61.0430   29.5700   48.8170 N   0  0  0  0  0  0  0  0  0  0  0  0
   61.2960   30.7160   49.7060 C   0  0  0  0  0  0  0  0  0  0  0  0
   62.0550   31.7960   48.9770 C   0  0  0  0  0  0  0  0  0  0  0  0
   62.7250   31.5030   47.7780 C   0  0  0  0  0  0  0  0  0  0  0  0
   63.3860   32.5150   47.0760 C   0  0  0  0  0  0  0  0  0  0  0  0
   63.3780   33.8260   47.5640 C   0  0  0  0  0  0  0  0  0  0  0  0
   62.7110   34.1260   48.7550 C   0  0  0  0  0  0  0  0  0  0  0  0
   62.0500   33.1160   49.4580 C   0  0  0  0  0  0  0  0  0  0  0  0
   58.6724   32.0102   49.0679 H   0  0  0  0  0  0  0  0  0  0  0  0
   57.5779   31.2712   47.8504 H   0  0  0  0  0  0  0  0  0  0  0  0
   59.3272   30.8632   47.8504 H   0  0  0  0  0  0  0  0  0  0  0  0
   58.9313   34.2844   48.6851 H   0  0  0  0  0  0  0  0  0  0  0  0
   59.3644   36.1957   47.1440 H   0  0  0  0  0  0  0  0  0  0  0  0
   59.5523   35.8074   44.6870 H   0  0  0  0  0  0  0  0  0  0  0  0
   59.3229   33.5023   43.7659 H   0  0  0  0  0  0  0  0  0  0  0  0
   56.6333   32.0083   43.9820 H   0  0  0  0  0  0  0  0  0  0  0  0
   54.6129   30.5528   43.8299 H   0  0  0  0  0  0  0  0  0  0  0  0
   56.6193   27.4209   45.8960 H   0  0  0  0  0  0  0  0  0  0  0  0
   61.7950   28.8530   48.9450 H   0  0  0  0  0  0  0  0  0  0  0  0
   61.0540   29.9130   47.8300 H   0  0  0  0  0  0  0  0  0  0  0  0
   60.3350   31.1220   50.0547 H   0  0  0  0  0  0  0  0  0  0  0  0
   61.8980   30.3752   50.5612 H   0  0  0  0  0  0  0  0  0  0  0  0
   62.7296   30.4737   47.3900 H   0  0  0  0  0  0  0  0  0  0  0  0
   63.9128   32.2804   46.1393 H   0  0  0  0  0  0  0  0  0  0  0  0
   63.8973   34.6217   47.0097 H   0  0  0  0  0  0  0  0  0  0  0  0
   62.7066   35.1569   49.1386 H   0  0  0  0  0  0  0  0  0  0  0  0
   61.5227   33.3554   50.3932 H   0  0  0  0  0  0  0  0  0  0  0  0
  1  2  1  0
  2  3  2  0
  3  4  1  0
  4  5  2  0
  5  6  1  0
  6  7  2  0
  7  8  1  0
  8  9  2  3
  9 10  1  0
 10 11  2  0
 11 12  1  0
 12 13  1  0
 13 14  2  0
 14 15  1  0
 15 16  2  0
 15 17  2  0
 15 18  1  0
 18 19  1  0
 19 20  2  0
 19 21  1  0
 21 22  1  0
 22 23  1  0
 23 24  2  0
 24 25  1  0
 25 26  2  0
 26 27  1  0
 27 28  2  0
  7  2  1  0
 14  9  1  0
 28 23  1  0
  1 29  1  0
  1 30  1  0
  1 31  1  0
  3 32  1  0
  4 33  1  0
  5 34  1  0
  6 35  1  0
 10 36  1  0
 11 37  1  0
 13 38  1  0
 21 39  1  0
 21 40  1  0
 22 41  1  0
 22 42  1  0
 24 43  1  0
 25 44  1  0
 26 45  1  0
 27 46  1  0
 28 47  1  0
M  CHG  3  12  -1  18  -1  21   1
M  END
>  <UniqueID>  (23) 
21

>  <SMILES>  (23) 
Cc1ccccc1N=c1cc[n-]cc1S(=O)(=O)[N-]C(=O)[NH2+]Cc1ccccc1

>  <Energy>  (23) 
63.179121972121685

>  <Genealogy>  (23) 
Cc1ccccc1N=c1cc[n-]cc1S(=O)(=O)[N-]C(=O)[NH2+]Cc1ccccc1 (protonated)
Cc1ccccc1N=c1cc[n-]cc1S(=O)(=O)[N-]C(=O)[NH2+]Cc1ccccc1 (3D coordinates assigned)
Cc1ccccc1N=c1cc[n-]cc1S(=O)(=O)[N-]C(=O)[NH2+]Cc1ccccc1 (optimized conformer: 63.179121972121685 kcal/mol)

>  <smiles>  (23) 
Cc1ccccc1N=c1cc[nH]cc1S(=O)(=O)NC(=O)NCc1ccccc1

>  <score_type>  (23) 
oracle

>  <origin>  (23) 
adg

>  <m_score__min__energy>  (23) 
-9.4700000000000006

>  <m_primary>  (23) 
energy

$$$$
23:0
     RDKit          3D

 54 55  0  0  0  0  0  0  0  0999 V2000
   60.4000   27.8390   48.2600 C   0  0  0  0  0  0  0  0  0  0  0  0
   60.6320   29.2460   48.2820 O   0  0  0  0  0  0  0  0  0  0  0  0
   59.8140   30.1810   48.9400 C   0  0  0  0  0  0  0  0  0  0  0  0
   59.0450   29.8260   50.0680 C   0  0  0  0  0  0  0  0  0  0  0  0
   58.2410   30.7770   50.7050 C   0  0  0  0  0  0  0  0  0  0  0  0
   58.1970   32.0880   50.2310 C   0  0  0  0  0  0  0  0  0  0  0  0
   58.9550   32.4540   49.1180 C   0  0  0  0  0  0  0  0  0  0  0  0
   59.7590   31.5080   48.4590 C   0  0  0  0  0  0  0  0  0  0  0  0
   60.5800   31.9520   47.2730 C   0  0  0  0  0  0  0  0  0  0  0  0
   61.1060   33.3090   47.5170 N   0  0  0  0  0  0  0  0  0  0  0  0
   62.5040   33.4610   47.0830 C   0  0  0  0  0  0  0  0  0  0  0  0
   60.2110   34.4110   47.0830 C   0  0  0  0  0  0  0  0  0  0  0  0
   59.6020   34.2750   45.6620 C   0  0  0  0  0  0  0  0  0  0  0  0
   58.2830   33.4860   45.5610 C   0  0  0  0  0  0  0  0  0  0  0  0
   57.7530   33.3480   44.1290 C   0  0  0  0  0  0  0  0  0  0  0  0
   58.0050   32.0370   43.6340 O   0  0  0  0  0  0  0  0  0  0  0  0
   57.7600   30.8550   44.3430 C   0  0  0  0  0  0  0  0  0  0  0  0
   58.7330   30.4100   45.2440 C   0  0  0  0  0  0  0  0  0  0  0  0
   58.5380   29.2320   45.9700 C   0  0  0  0  0  0  0  0  0  0  0  0
   57.3700   28.4790   45.8070 C   0  0  0  0  0  0  0  0  0  0  0  0
   57.2220   27.2710   46.5670 N   0  0  0  0  0  0  0  0  0  0  0  0
   56.2480   25.9050   46.1200 S   0  0  0  0  0  0  0  0  0  0  0  0
   56.9080   25.1260   44.6610 C   0  0  0  0  0  0  0  0  0  0  0  0
   54.8290   26.3400   45.8860 O   0  0  0  0  0  0  0  0  0  0  0  0
   56.2680   24.9110   47.2460 O   0  0  0  0  0  0  0  0  0  0  0  0
   56.3840   28.9290   44.9100 C   0  0  0  0  0  0  0  0  0  0  0  0
   56.5790   30.1070   44.1820 C   0  0  0  0  0  0  0  0  0  0  0  0
   60.3378   27.4615   49.2913 H   0  0  0  0  0  0  0  0  0  0  0  0
   59.4555   27.6313   47.7359 H   0  0  0  0  0  0  0  0  0  0  0  0
   61.2278   27.3390   47.7359 H   0  0  0  0  0  0  0  0  0  0  0  0
   59.0778   28.7947   50.4491 H   0  0  0  0  0  0  0  0  0  0  0  0
   57.6420   30.4902   51.5819 H   0  0  0  0  0  0  0  0  0  0  0  0
   57.5645   32.8338   50.7347 H   0  0  0  0  0  0  0  0  0  0  0  0
   58.9230   33.4913   48.7534 H   0  0  0  0  0  0  0  0  0  0  0  0
   61.4183   31.2551   47.1262 H   0  0  0  0  0  0  0  0  0  0  0  0
   59.9476   31.9610   46.3730 H   0  0  0  0  0  0  0  0  0  0  0  0
   63.1563   33.5319   47.9658 H   0  0  0  0  0  0  0  0  0  0  0  0
   62.7974   32.5895   46.4794 H   0  0  0  0  0  0  0  0  0  0  0  0
   62.6032   34.3752   46.4794 H   0  0  0  0  0  0  0  0  0  0  0  0
   59.3797   34.4715   47.8008 H   0  0  0  0  0  0  0  0  0  0  0  0
   60.8437   35.3102   47.0490 H   0  0  0  0  0  0  0  0  0  0  0  0
   59.4171   35.2889   45.2775 H   0  0  0  0  0  0  0  0  0  0  0  0
   60.3361   33.6977   45.0807 H   0  0  0  0  0  0  0  0  0  0  0  0
   58.4499   32.4777   45.9678 H   0  0  0  0  0  0  0  0  0  0  0  0
   57.5282   34.0494   46.1292 H   0  0  0  0  0  0  0  0  0  0  0  0
   56.6692   33.5361   44.1233 H   0  0  0  0  0  0  0  0  0  0  0  0
   58.2652   34.0785   43.4855 H   0  0  0  0  0  0  0  0  0  0  0  0
   59.6570   30.9907   45.3819 H   0  0  0  0  0  0  0  0  0  0  0  0
   59.3102   28.8934   46.6765 H   0  0  0  0  0  0  0  0  0  0  0  0
   57.5932   24.3173   44.9552 H   0  0  0  0  0  0  0  0  0  0  0  0
   56.0840   24.7092   44.0633 H   0  0  0  0  0  0  0  0  0  0  0  0
   57.4545   25.8703   44.0633 H   0  0  0  0  0  0  0  0  0  0  0  0
   55.4563   28.3522   44.7808 H   0  0  0  0  0  0  0  0  0  0  0  0
   55.8051   30.4507   43.4798 H   0  0  0  0  0  0  0  0  0  0  0  0
  1  2  1  0
  2  3  1  0
  3  4  2  0
  4  5  1  0
  5  6  2  0
  6  7  1  0
  7  8  2  0
  8  9  1  0
  9 10  1  0
 10 11  1  0
 10 12  1  0
 12 13  1  0
 13 14  1  0
 14 15  1  0
 15 16  1  0
 16 17  1  0
 17 18  2  0
 18 19  1  0
 19 20  2  0
 20 21  1  0
 21 22  1  0
 22 23  1  0
 22 24  2  0
 22 25  2  0
 20 26  1  0
 26 27  2  0
  8  3  1  0
 27 17  1  0
  1 28  1  0
  1 29  1  0
  1 30  1  0
  4 31  1  0
  5 32  1  0
  6 33  1  0
  7 34  1  0
  9 35  1  0
  9 36  1  0
 11 37  1  0
 11 38  1  0
 11 39  1  0
 12 40  1  0
 12 41  1  0
 13 42  1  0
 13 43  1  0
 14 44  1  0
 14 45  1  0
 15 46  1  0
 15 47  1  0
 18 48  1  0
 19 49  1  0
 23 50  1  0
 23 51  1  0
 23 52  1  0
 26 53  1  0
 27 54  1  0
M  CHG  1  21  -1
M  END
>  <UniqueID>  (24) 
22

>  <SMILES>  (24) 
COc1ccccc1CN(C)CCCCOc1ccc([N-]S(C)(=O)=O)cc1

>  <Energy>  (24) 
55.12812939455532

>  <Genealogy>  (24) 
COc1ccccc1CN(C)CCCCOc1ccc([N-]S(C)(=O)=O)cc1 (protonated)
COc1ccccc1CN(C)CCCCOc1ccc([N-]S(C)(=O)=O)cc1 (3D coordinates assigned)
COc1ccccc1CN(C)CCCCOc1ccc([N-]S(C)(=O)=O)cc1 (optimized conformer: 55.12812939455532 kcal/mol)

>  <smiles>  (24) 
COc1ccccc1CN(C)CCCCOc1ccc(NS(C)(=O)=O)cc1

>  <score_type>  (24) 
oracle

>  <origin>  (24) 
adg

>  <m_score__min__energy>  (24) 
-9.1500000000000004

>  <m_primary>  (24) 
energy

$$$$
24:0
     RDKit          3D

 63 66  0  0  0  0  0  0  0  0999 V2000
   53.4830   24.4610   45.4590 C   0  0  0  0  0  0  0  0  0  0  0  0
   54.9770   24.4880   45.4470 C   0  0  0  0  0  0  0  0  0  0  0  0
   55.7350   24.0510   44.3640 C   0  0  0  0  0  0  0  0  0  0  0  0
   57.3630   24.2140   44.7670 S   0  0  0  0  0  0  0  0  0  0  0  0
   57.0260   24.8050   46.3000 C   0  0  0  0  0  0  0  0  0  0  0  0
   57.9370   25.1590   47.1550 N   0  0  0  0  0  0  0  0  0  0  0  0
   59.0440   26.0230   46.8550 C   0  0  0  0  0  0  0  0  0  0  0  0
   60.0950   25.5210   46.3800 O   0  0  0  0  0  0  0  0  0  0  0  0
   58.9880   27.4780   47.1390 C   0  0  0  0  0  0  0  0  0  0  0  0
   59.7040   28.0150   48.2190 C   0  0  0  0  0  0  0  0  0  0  0  0
   59.6430   29.3880   48.5050 C   0  0  0  0  0  0  0  0  0  0  0  0
   60.3350   29.9430   49.5920 O   0  0  0  0  0  0  0  0  0  0  0  0
   61.5660   30.6100   49.4910 C   0  0  0  0  0  0  0  0  0  0  0  0
   61.9440   31.2780   48.3150 C   0  0  0  0  0  0  0  0  0  0  0  0
   63.1630   31.9550   48.2490 C   0  0  0  0  0  0  0  0  0  0  0  0
   64.0390   31.9600   49.3460 C   0  0  0  0  0  0  0  0  0  0  0  0
   65.2810   32.6790   49.2400 N   0  0  0  0  0  0  0  0  0  0  0  0
   66.4060   32.9150   50.5410 S   0  0  0  0  0  0  0  0  0  0  0  0
   66.7390   31.3660   51.3560 C   0  0  0  0  0  0  0  0  0  0  0  0
   67.6940   33.4420   49.9760 O   0  0  0  0  0  0  0  0  0  0  0  0
   65.8640   33.9180   51.5200 O   0  0  0  0  0  0  0  0  0  0  0  0
   63.6740   31.2550   50.5090 C   0  0  0  0  0  0  0  0  0  0  0  0
   62.4480   30.5820   50.5740 C   0  0  0  0  0  0  0  0  0  0  0  0
   58.9010   30.2300   47.6740 C   0  0  0  0  0  0  0  0  0  0  0  0
   58.1720   29.7130   46.5960 C   0  0  0  0  0  0  0  0  0  0  0  0
   57.3910   30.6100   45.8460 O   0  0  0  0  0  0  0  0  0  0  0  0
   57.2860   30.6830   44.4160 C   0  0  2  0  0  0  0  0  0  0  0  0
   57.3630   32.1400   43.9020 C   0  0  0  0  0  0  0  0  0  0  0  0
   58.0270   33.0540   44.9020 C   0  0  0  0  0  0  0  0  0  0  0  0
   59.1610   33.8030   44.5420 C   0  0  0  0  0  0  0  0  0  0  0  0
   59.7470   34.6760   45.4620 C   0  0  0  0  0  0  0  0  0  0  0  0
   59.2100   34.8070   46.7450 C   0  0  0  0  0  0  0  0  0  0  0  0
   58.0850   34.0650   47.1110 C   0  0  0  0  0  0  0  0  0  0  0  0
   57.4930   33.1920   46.1930 C   0  0  0  0  0  0  0  0  0  0  0  0
   56.0710   29.9460   43.9120 C   0  0  0  0  0  0  0  0  0  0  0  0
   55.1590   29.3530   44.8340 N   0  0  0  0  0  0  0  0  0  0  0  0
   55.8890   29.7930   42.6730 O   0  0  0  0  0  0  0  0  0  0  0  0
   58.2350   28.3330   46.3210 C   0  0  0  0  0  0  0  0  0  0  0  0
   55.6960   24.8990   46.5280 N   0  0  0  0  0  0  0  0  0  0  0  0
   53.1247   24.4545   46.4990 H   0  0  0  0  0  0  0  0  0  0  0  0
   53.0960   25.3523   44.9434 H   0  0  0  0  0  0  0  0  0  0  0  0
   53.1285   23.5563   44.9434 H   0  0  0  0  0  0  0  0  0  0  0  0
   55.3402   23.6666   43.4119 H   0  0  0  0  0  0  0  0  0  0  0  0
   60.3189   27.3542   48.8476 H   0  0  0  0  0  0  0  0  0  0  0  0
   61.2759   31.2677   47.4412 H   0  0  0  0  0  0  0  0  0  0  0  0
   63.4399   32.4898   47.3285 H   0  0  0  0  0  0  0  0  0  0  0  0
   65.5270   33.1230   48.3260 H   0  0  0  0  0  0  0  0  0  0  0  0
   66.7078   31.5110   52.4460 H   0  0  0  0  0  0  0  0  0  0  0  0
   65.9793   30.6266   51.0626 H   0  0  0  0  0  0  0  0  0  0  0  0
   67.7355   31.0041   51.0626 H   0  0  0  0  0  0  0  0  0  0  0  0
   64.3562   31.2329   51.3716 H   0  0  0  0  0  0  0  0  0  0  0  0
   62.1773   30.0272   51.4844 H   0  0  0  0  0  0  0  0  0  0  0  0
   58.8890   31.3126   47.8686 H   0  0  0  0  0  0  0  0  0  0  0  0
   58.1612   30.1675   43.9937 H   0  0  0  0  0  0  0  0  0  0  0  0
   57.9407   32.1570   42.9660 H   0  0  0  0  0  0  0  0  0  0  0  0
   56.3361   32.4996   43.7402 H   0  0  0  0  0  0  0  0  0  0  0  0
   59.5880   33.7014   43.5334 H   0  0  0  0  0  0  0  0  0  0  0  0
   60.6331   35.2614   45.1755 H   0  0  0  0  0  0  0  0  0  0  0  0
   59.6736   35.4950   47.4673 H   0  0  0  0  0  0  0  0  0  0  0  0
   57.6642   34.1673   48.1222 H   0  0  0  0  0  0  0  0  0  0  0  0
   56.6053   32.6110   46.4836 H   0  0  0  0  0  0  0  0  0  0  0  0
   55.3580   29.3560   45.8600 H   0  0  0  0  0  0  0  0  0  0  0  0
   57.6896   27.9228   45.4583 H   0  0  0  0  0  0  0  0  0  0  0  0
  1  2  1  0
  2  3  2  0
  3  4  1  0
  4  5  1  0
  5  6  2  3
  6  7  1  0
  7  8  2  0
  7  9  1  0
  9 10  2  0
 10 11  1  0
 11 12  1  0
 12 13  1  0
 13 14  2  0
 14 15  1  0
 15 16  2  0
 16 17  1  0
 17 18  1  0
 18 19  1  0
 18 20  2  0
 18 21  2  0
 16 22  1  0
 22 23  2  0
 11 24  2  0
 24 25  1  0
 25 26  1  0
 26 27  1  0
 27 28  1  0
 28 29  1  0
 29 30  2  0
 30 31  1  0
 31 32  2  0
 32 33  1  0
 33 34  2  0
 27 35  1  0
 35 36  1  0
 35 37  2  0
 25 38  2  0
  5 39  1  0
 39  2  1  0
 38  9  1  0
 23 13  1  0
 34 29  1  0
  1 40  1  0
  1 41  1  0
  1 42  1  0
  3 43  1  0
 10 44  1  0
 14 45  1  0
 15 46  1  0
 17 47  1  0
 19 48  1  0
 19 49  1  0
 19 50  1  0
 22 51  1  0
 23 52  1  0
 24 53  1  0
 27 54  1  6
 28 55  1  0
 28 56  1  0
 30 57  1  0
 31 58  1  0
 32 59  1  0
 33 60  1  0
 34 61  1  0
 36 62  1  0
 38 63  1  0
M  CHG  2  36  -1  39  -1
M  END
>  <UniqueID>  (25) 
23

>  <SMILES>  (25) 
Cc1csc(=NC(=O)c2cc(Oc3ccc(NS(C)(=O)=O)cc3)cc(O[C@H](Cc3ccccc3)C([NH-])=O)c2)[n-]1

>  <Energy>  (25) 
103.83681321822395

>  <Genealogy>  (25) 
Cc1csc(=NC(=O)c2cc(Oc3ccc(NS(C)(=O)=O)cc3)cc(OC(Cc3ccccc3)C([NH-])=O)c2)[n-]1 (protonated)
Cc1csc(=NC(=O)c2cc(Oc3ccc(NS(C)(=O)=O)cc3)cc(O[C@H](Cc3ccccc3)C([NH-])=O)c2)[n-]1 (chirality)
Cc1csc(=NC(=O)c2cc(Oc3ccc(NS(C)(=O)=O)cc3)cc(O[C@H](Cc3ccccc3)C([NH-])=O)c2)[n-]1 (3D coordinates assigned)
Cc1csc(=NC(=O)c2cc(Oc3ccc(NS(C)(=O)=O)cc3)cc(O[C@H](Cc3ccccc3)C([NH-])=O)c2)[n-]1 (optimized conformer: 103.83681321822395 kcal/mol)

>  <smiles>  (25) 
Cc1csc(=NC(=O)c2cc(Oc3ccc(NS(C)(=O)=O)cc3)cc(OC(Cc3ccccc3)C(N)=O)c2)[nH]1

>  <score_type>  (25) 
oracle

>  <origin>  (25) 
adg

>  <m_score__min__energy>  (25) 
-14.99

>  <m_primary>  (25) 
energy

$$$$
25:0
     RDKit          3D

 26 27  0  0  0  0  0  0  0  0999 V2000
   55.9380   29.7730   42.3550 O   0  0  0  0  0  0  0  0  0  0  0  0
   56.4100   29.6070   43.7510 S   0  0  0  0  0  0  0  0  0  0  0  0
   55.1760   29.3990   44.6100 O   0  0  0  0  0  0  0  0  0  0  0  0
   57.3820   28.1940   43.8940 N   0  0  0  0  0  0  0  0  0  0  0  0
   58.4260   28.0820   44.8530 C   0  0  0  0  0  0  0  0  0  0  0  0
   58.1480   27.4430   46.0560 C   0  0  0  0  0  0  0  0  0  0  0  0
   59.1250   27.2980   47.0410 C   0  0  0  0  0  0  0  0  0  0  0  0
   60.3980   27.7970   46.8230 C   0  0  0  0  0  0  0  0  0  0  0  0
   60.6720   28.4360   45.6220 C   0  0  0  0  0  0  0  0  0  0  0  0
   59.6980   28.5780   44.6420 C   0  0  0  0  0  0  0  0  0  0  0  0
   57.2380   31.0470   44.3070 C   0  0  0  0  0  0  0  0  0  0  0  0
   57.7590   31.9720   43.4260 C   0  0  0  0  0  0  0  0  0  0  0  0
   58.4130   33.1090   43.8680 C   0  0  0  0  0  0  0  0  0  0  0  0
   58.5310   33.2960   45.2360 C   0  0  0  0  0  0  0  0  0  0  0  0
   59.3020   34.6390   45.7350 S   0  0  0  0  0  0  0  0  0  0  0  0
   58.0140   32.3790   46.0690 N   0  0  0  0  0  0  0  0  0  0  0  0
   57.3830   31.2820   45.6180 N   0  0  0  0  0  0  0  0  0  0  0  0
   57.2460   27.3420   43.2760 H   0  0  0  0  0  0  0  0  0  0  0  0
   57.1385   27.0442   46.2345 H   0  0  0  0  0  0  0  0  0  0  0  0
   58.8852   26.7896   47.9865 H   0  0  0  0  0  0  0  0  0  0  0  0
   61.1796   27.6887   47.5894 H   0  0  0  0  0  0  0  0  0  0  0  0
   61.6801   28.8379   45.4426 H   0  0  0  0  0  0  0  0  0  0  0  0
   59.9397   29.0860   43.6967 H   0  0  0  0  0  0  0  0  0  0  0  0
   57.6519   31.8016   42.3446 H   0  0  0  0  0  0  0  0  0  0  0  0
   58.8254   33.8399   43.1569 H   0  0  0  0  0  0  0  0  0  0  0  0
   58.1250   32.5590   47.1020 H   0  0  0  0  0  0  0  0  0  0  0  0
  1  2  2  0
  2  3  2  0
  2  4  1  0
  4  5  1  0
  5  6  2  0
  6  7  1  0
  7  8  2  0
  8  9  1  0
  9 10  2  0
  2 11  1  0
 11 12  1  0
 12 13  2  0
 13 14  1  0
 14 15  2  0
 14 16  1  0
 16 17  1  0
 10  5  1  0
 17 11  2  0
  4 18  1  0
  6 19  1  0
  7 20  1  0
  8 21  1  0
  9 22  1  0
 10 23  1  0
 12 24  1  0
 13 25  1  0
 16 26  1  0
M  END
>  <smiles>  (26) 
O=S(=O)(Nc1ccccc1)c1ccc(=S)[nH]n1

>  <score_type>  (26) 
oracle

>  <origin>  (26) 
adg

>  <m_score__min__energy>  (26) 
-7.3200000000000003

>  <m_primary>  (26) 
energy

$$$$
26:0
     RDKit          3D

 43 45  0  0  0  0  0  0  0  0999 V2000
   59.2530   34.9760   45.7320 C   0  0  0  0  0  0  0  0  0  0  0  0
   58.1940   34.3120   44.8570 C   0  0  0  0  0  0  0  0  0  0  0  0
   57.4400   33.3650   45.6110 O   0  0  0  0  0  0  0  0  0  0  0  0
   57.5840   31.9790   45.4750 C   0  0  0  0  0  0  0  0  0  0  0  0
   56.7030   31.3020   44.8770 O   0  0  0  0  0  0  0  0  0  0  0  0
   58.7710   31.3020   46.0240 C   0  0  0  0  0  0  0  0  0  0  0  0
   59.8560   32.0350   46.5250 C   0  0  0  0  0  0  0  0  0  0  0  0
   60.9790   31.3650   47.0400 C   0  0  0  0  0  0  0  0  0  0  0  0
   62.1320   32.1360   47.5720 C   0  0  0  0  0  0  0  0  0  0  0  0
   62.6590   33.3210   47.0560 C   0  0  0  0  0  0  0  0  0  0  0  0
   63.7520   33.8130   47.7810 C   0  0  0  0  0  0  0  0  0  0  0  0
   64.1010   33.0280   48.8710 C   0  0  0  0  0  0  0  0  0  0  0  0
   63.0450   31.7240   48.9310 S   0  0  0  0  0  0  0  0  0  0  0  0
   60.9800   29.9590   47.0460 C   0  0  0  0  0  0  0  0  0  0  0  0
   59.8780   29.2530   46.5380 C   0  0  0  0  0  0  0  0  0  0  0  0
   59.8560   27.7730   46.5310 C   0  0  0  0  0  0  0  0  0  0  0  0
   60.7050   27.1290   47.2070 O   0  0  0  0  0  0  0  0  0  0  0  0
   58.8740   27.0620   45.7590 N   0  0  0  0  0  0  0  0  0  0  0  0
   58.8600   25.6040   45.6650 C   0  0  0  0  0  0  0  0  0  0  0  0
   57.4540   25.1100   45.4610 C   0  0  0  0  0  0  0  0  0  0  0  0
   57.1660   24.1260   44.5040 C   0  0  0  0  0  0  0  0  0  0  0  0
   55.8510   23.6980   44.3170 C   0  0  0  0  0  0  0  0  0  0  0  0
   54.8320   24.2610   45.0870 C   0  0  0  0  0  0  0  0  0  0  0  0
   55.1240   25.2190   46.0080 N   0  0  0  0  0  0  0  0  0  0  0  0
   56.3970   25.6530   46.2080 C   0  0  0  0  0  0  0  0  0  0  0  0
   58.8140   29.9420   46.0460 N   0  0  0  0  0  0  0  0  0  0  0  0
   59.0036   34.8196   46.7919 H   0  0  0  0  0  0  0  0  0  0  0  0
   60.2366   34.5326   45.5175 H   0  0  0  0  0  0  0  0  0  0  0  0
   59.2823   36.0545   45.5175 H   0  0  0  0  0  0  0  0  0  0  0  0
   57.5153   35.0830   44.4633 H   0  0  0  0  0  0  0  0  0  0  0  0
   58.6956   33.7877   44.0303 H   0  0  0  0  0  0  0  0  0  0  0  0
   59.8284   33.1346   46.5150 H   0  0  0  0  0  0  0  0  0  0  0  0
   62.2542   33.8214   46.1640 H   0  0  0  0  0  0  0  0  0  0  0  0
   64.2848   34.7368   47.5111 H   0  0  0  0  0  0  0  0  0  0  0  0
   64.9249   33.2255   49.5725 H   0  0  0  0  0  0  0  0  0  0  0  0
   61.8449   29.4118   47.4490 H   0  0  0  0  0  0  0  0  0  0  0  0
   58.1350   27.5920   45.2450 H   0  0  0  0  0  0  0  0  0  0  0  0
   59.4828   25.2887   44.8149 H   0  0  0  0  0  0  0  0  0  0  0  0
   59.2573   25.1803   46.5992 H   0  0  0  0  0  0  0  0  0  0  0  0
   57.9768   23.6916   43.9008 H   0  0  0  0  0  0  0  0  0  0  0  0
   55.6197   22.9244   43.5700 H   0  0  0  0  0  0  0  0  0  0  0  0
   53.7921   23.9299   44.9491 H   0  0  0  0  0  0  0  0  0  0  0  0
   56.5991   26.4322   46.9577 H   0  0  0  0  0  0  0  0  0  0  0  0
  1  2  1  0
  2  3  1  0
  3  4  1  0
  4  5  2  0
  4  6  1  0
  6  7  2  0
  7  8  1  0
  8  9  1  0
  9 10  2  0
 10 11  1  0
 11 12  2  0
 12 13  1  0
  8 14  2  0
 14 15  1  0
 15 16  1  0
 16 17  2  0
 16 18  1  0
 18 19  1  0
 19 20  1  0
 20 21  2  0
 21 22  1  0
 22 23  2  0
 23 24  1  0
 24 25  2  0
 15 26  2  0
 26  6  1  0
 13  9  1  0
 25 20  1  0
  1 27  1  0
  1 28  1  0
  1 29  1  0
  2 30  1  0
  2 31  1  0
  7 32  1  0
 10 33  1  0
 11 34  1  0
 12 35  1  0
 14 36  1  0
 18 37  1  0
 19 38  1  0
 19 39  1  0
 21 40  1  0
 22 41  1  0
 23 42  1  0
 25 43  1  0
M  END
>  <UniqueID>  (27) 
24

>  <SMILES>  (27) 
CCOC(=O)c1cc(-c2cccs2)cc(C(=O)NCc2cccnc2)n1

>  <Energy>  (27) 
68.0892738408542

>  <Genealogy>  (27) 
CCOC(=O)c1cc(-c2cccs2)cc(C(=O)NCc2cccnc2)n1 (3D coordinates assigned)
CCOC(=O)c1cc(-c2cccs2)cc(C(=O)NCc2cccnc2)n1 (optimized conformer: 68.0892738408542 kcal/mol)

>  <smiles>  (27) 
CCOC(=O)c1cc(-c2cccs2)cc(C(=O)NCc2cccnc2)n1

>  <score_type>  (27) 
oracle

>  <origin>  (27) 
adg

>  <m_score__min__energy>  (27) 
-7.4699999999999998

>  <m_primary>  (27) 
energy

$$$$
27:0
     RDKit          3D

 47 49  0  0  0  0  0  0  0  0999 V2000
   55.5270   26.8620   45.9340 O   0  0  0  0  0  0  0  0  0  0  0  0
   56.2830   25.8570   46.0240 C   0  0  0  0  0  0  0  0  0  0  0  0
   57.3710   25.6550   45.0150 C   0  0  0  0  0  0  0  0  0  0  0  0
   58.6290   26.2420   45.4860 N   0  0  0  0  0  0  0  0  0  0  0  0
   59.4760   25.6530   46.3550 C   0  0  0  0  0  0  0  0  0  0  0  0
   60.5200   26.5050   46.6530 C   0  0  0  0  0  0  0  0  0  0  0  0
   60.3000   27.6660   45.9390 C   0  0  0  0  0  0  0  0  0  0  0  0
   59.1320   27.4720   45.2230 C   0  0  0  0  0  0  0  0  0  0  0  0
   58.5070   28.5060   44.3310 C   0  0  0  0  0  0  0  0  0  0  0  0
   57.1350   28.7800   44.7630 N   0  0  0  0  0  0  0  0  0  0  0  0
   56.6120   30.3110   44.1210 S   0  0  0  0  0  0  0  0  0  0  0  0
   56.7400   30.2880   42.6250 O   0  0  0  0  0  0  0  0  0  0  0  0
   55.1640   30.5040   44.4800 O   0  0  0  0  0  0  0  0  0  0  0  0
   57.5790   31.6510   44.7540 C   0  0  0  0  0  0  0  0  0  0  0  0
   57.7160   32.8300   44.0040 C   0  0  0  0  0  0  0  0  0  0  0  0
   58.4680   33.8990   44.4980 C   0  0  0  0  0  0  0  0  0  0  0  0
   59.0800   33.8060   45.7490 C   0  0  0  0  0  0  0  0  0  0  0  0
   58.9400   32.6420   46.5100 C   0  0  0  0  0  0  0  0  0  0  0  0
   58.1900   31.5670   46.0200 C   0  0  0  0  0  0  0  0  0  0  0  0
   58.0560   30.4570   46.7880 F   0  0  0  0  0  0  0  0  0  0  0  0
   56.1490   24.9460   47.1200 N   0  0  0  0  0  0  0  0  0  0  0  0
   55.7330   23.5580   46.9650 C   0  0  0  0  0  0  0  0  0  0  0  0
   56.3260   22.9700   45.7090 C   0  0  0  0  0  0  0  0  0  0  0  0
   57.5930   22.3610   45.7660 C   0  0  0  0  0  0  0  0  0  0  0  0
   58.1510   21.7780   44.6260 C   0  0  0  0  0  0  0  0  0  0  0  0
   57.4540   21.7980   43.4180 C   0  0  0  0  0  0  0  0  0  0  0  0
   56.1970   22.3990   43.3460 C   0  0  0  0  0  0  0  0  0  0  0  0
   55.6220   22.9780   44.4840 C   0  0  0  0  0  0  0  0  0  0  0  0
   54.0290   23.7120   44.3300 Cl  0  0  0  0  0  0  0  0  0  0  0  0
   57.5149   24.5770   44.8498 H   0  0  0  0  0  0  0  0  0  0  0  0
   57.0795   26.1490   44.0764 H   0  0  0  0  0  0  0  0  0  0  0  0
   59.3525   24.6404   46.7665 H   0  0  0  0  0  0  0  0  0  0  0  0
   61.3636   26.2991   47.3283 H   0  0  0  0  0  0  0  0  0  0  0  0
   60.9296   28.5680   45.9393 H   0  0  0  0  0  0  0  0  0  0  0  0
   59.0962   29.4335   44.3808 H   0  0  0  0  0  0  0  0  0  0  0  0
   58.4906   28.1280   43.2981 H   0  0  0  0  0  0  0  0  0  0  0  0
   56.5020   28.0420   44.3790 H   0  0  0  0  0  0  0  0  0  0  0  0
   57.2283   32.9126   43.0215 H   0  0  0  0  0  0  0  0  0  0  0  0
   58.5779   34.8156   43.8999 H   0  0  0  0  0  0  0  0  0  0  0  0
   59.6722   34.6484   46.1358 H   0  0  0  0  0  0  0  0  0  0  0  0
   59.4207   32.5708   47.4968 H   0  0  0  0  0  0  0  0  0  0  0  0
   56.0757   22.9774   47.8342 H   0  0  0  0  0  0  0  0  0  0  0  0
   54.6360   23.5194   46.8943 H   0  0  0  0  0  0  0  0  0  0  0  0
   58.1483   22.3439   46.7154 H   0  0  0  0  0  0  0  0  0  0  0  0
   59.1414   21.3025   44.6809 H   0  0  0  0  0  0  0  0  0  0  0  0
   57.8959   21.3394   42.5211 H   0  0  0  0  0  0  0  0  0  0  0  0
   55.6543   22.4182   42.3894 H   0  0  0  0  0  0  0  0  0  0  0  0
  1  2  2  0
  2  3  1  0
  3  4  1  0
  4  5  1  0
  5  6  2  0
  6  7  1  0
  7  8  2  0
  8  9  1  0
  9 10  1  0
 10 11  1  0
 11 12  2  0
 11 13  2  0
 11 14  1  0
 14 15  2  0
 15 16  1  0
 16 17  2  0
 17 18  1  0
 18 19  2  0
 19 20  1  0
  2 21  1  0
 21 22  1  0
 22 23  1  0
 23 24  2  0
 24 25  1  0
 25 26  2  0
 26 27  1  0
 27 28  2  0
 28 29  1  0
  8  4  1  0
 19 14  1  0
 28 23  1  0
  3 30  1  0
  3 31  1  0
  5 32  1  0
  6 33  1  0
  7 34  1  0
  9 35  1  0
  9 36  1  0
 10 37  1  0
 15 38  1  0
 16 39  1  0
 17 40  1  0
 18 41  1  0
 22 42  1  0
 22 43  1  0
 24 44  1  0
 25 45  1  0
 26 46  1  0
 27 47  1  0
M  CHG  1  21  -1
M  END
>  <UniqueID>  (28) 
25

>  <SMILES>  (28) 
O=C(Cn1cccc1CNS(=O)(=O)c1ccccc1F)[N-]Cc1ccccc1Cl

>  <Energy>  (28) 
66.54187786119714

>  <Genealogy>  (28) 
O=C(Cn1cccc1CNS(=O)(=O)c1ccccc1F)[N-]Cc1ccccc1Cl (protonated)
O=C(Cn1cccc1CNS(=O)(=O)c1ccccc1F)[N-]Cc1ccccc1Cl (3D coordinates assigned)
O=C(Cn1cccc1CNS(=O)(=O)c1ccccc1F)[N-]Cc1ccccc1Cl (optimized conformer: 66.54187786119714 kcal/mol)

>  <smiles>  (28) 
O=C(Cn1cccc1CNS(=O)(=O)c1ccccc1F)NCc1ccccc1Cl

>  <score_type>  (28) 
oracle

>  <origin>  (28) 
adg

>  <m_score__min__energy>  (28) 
-11.369999999999999

>  <m_primary>  (28) 
energy

$$$$
28:0
     RDKit          3D

 39 43  0  0  0  0  0  0  0  0999 V2000
   54.8230   29.3390   43.9880 O   0  0  0  0  0  0  0  0  0  0  0  0
   55.9050   29.9800   44.0390 C   0  0  0  0  0  0  0  0  0  0  0  0
   56.6480   30.4630   42.9000 C   0  0  0  0  0  0  0  0  0  0  0  0
   57.7210   31.0800   43.3740 C   0  0  0  0  0  0  0  0  0  0  0  0
   57.7380   31.0350   44.8800 C   0  0  2  0  0  0  0  0  0  0  0  0
   56.5520   30.3150   45.2110 O   0  0  0  0  0  0  0  0  0  0  0  0
   57.6820   32.3520   45.4290 O   0  0  0  0  0  0  0  0  0  0  0  0
   58.7340   32.5430   46.2980 C   0  0  0  0  0  0  0  0  0  0  0  0
   59.0010   33.7010   47.0430 C   0  0  0  0  0  0  0  0  0  0  0  0
   60.1370   33.6580   47.8580 C   0  0  0  0  0  0  0  0  0  0  0  0
   60.9440   32.5550   47.9250 C   0  0  0  0  0  0  0  0  0  0  0  0
   60.6850   31.3960   47.1830 C   0  0  0  0  0  0  0  0  0  0  0  0
   59.5430   31.4250   46.3650 C   0  0  0  0  0  0  0  0  0  0  0  0
   59.0280   30.3640   45.4580 C   0  0  1  0  0  0  0  0  0  0  0  0
   58.7230   29.2110   46.2190 O   0  0  0  0  0  0  0  0  0  0  0  0
   59.6130   28.1630   45.8940 C   0  0  0  0  0  0  0  0  0  0  0  0
   58.8760   27.1380   45.0840 C   0  0  0  0  0  0  0  0  0  0  0  0
   58.5190   27.4110   43.7530 C   0  0  0  0  0  0  0  0  0  0  0  0
   57.7970   26.4710   43.0110 C   0  0  0  0  0  0  0  0  0  0  0  0
   57.4160   25.2600   43.5950 C   0  0  0  0  0  0  0  0  0  0  0  0
   57.7520   24.9890   44.9250 C   0  0  0  0  0  0  0  0  0  0  0  0
   58.4740   25.9270   45.6700 C   0  0  0  0  0  0  0  0  0  0  0  0
   61.9820   32.8000   48.8030 O   0  0  0  0  0  0  0  0  0  0  0  0
   61.8240   34.1310   49.3180 C   0  0  0  0  0  0  0  0  0  0  0  0
   60.6380   34.6400   48.6910 O   0  0  0  0  0  0  0  0  0  0  0  0
   56.3759   30.3422   41.8411 H   0  0  0  0  0  0  0  0  0  0  0  0
   58.4927   31.5589   42.7535 H   0  0  0  0  0  0  0  0  0  0  0  0
   58.3555   34.5901   46.9895 H   0  0  0  0  0  0  0  0  0  0  0  0
   61.3386   30.5129   47.2375 H   0  0  0  0  0  0  0  0  0  0  0  0
   59.7265   30.0348   44.6746 H   0  0  0  0  0  0  0  0  0  0  0  0
   60.4552   28.5610   45.3090 H   0  0  0  0  0  0  0  0  0  0  0  0
   60.0019   27.7034   46.8146 H   0  0  0  0  0  0  0  0  0  0  0  0
   58.8084   28.3674   43.2930 H   0  0  0  0  0  0  0  0  0  0  0  0
   57.5285   26.6852   41.9660 H   0  0  0  0  0  0  0  0  0  0  0  0
   56.8518   24.5200   43.0085 H   0  0  0  0  0  0  0  0  0  0  0  0
   57.4483   24.0374   45.3857 H   0  0  0  0  0  0  0  0  0  0  0  0
   58.7279   25.7152   46.7191 H   0  0  0  0  0  0  0  0  0  0  0  0
   61.7033   34.1096   50.4111 H   0  0  0  0  0  0  0  0  0  0  0  0
   62.7018   34.7596   49.1075 H   0  0  0  0  0  0  0  0  0  0  0  0
  1  2  2  0
  2  3  1  0
  3  4  2  0
  4  5  1  0
  5  6  1  1
  5  7  1  0
  7  8  1  0
  8  9  2  0
  9 10  1  0
 10 11  2  0
 11 12  1  0
 12 13  2  0
 13 14  1  0
 14 15  1  0
 15 16  1  0
 16 17  1  0
 17 18  2  0
 18 19  1  0
 19 20  2  0
 20 21  1  0
 21 22  2  0
 11 23  1  0
 23 24  1  0
 24 25  1  0
  6  2  1  0
 13  8  1  0
 22 17  1  0
 14  5  1  0
 25 10  1  0
  3 26  1  0
  4 27  1  0
  9 28  1  0
 12 29  1  0
 14 30  1  6
 16 31  1  0
 16 32  1  0
 18 33  1  0
 19 34  1  0
 20 35  1  0
 21 36  1  0
 22 37  1  0
 24 38  1  0
 24 39  1  0
M  END
>  <UniqueID>  (29) 
26

>  <SMILES>  (29) 
O=C1C=C[C@]2(O1)Oc1cc3c(cc1[C@H]2OCc1ccccc1)OCO3

>  <Energy>  (29) 
108.33696556960827

>  <Genealogy>  (29) 
O=C1C=C[C@]2(O1)Oc1cc3c(cc1[C@H]2OCc1ccccc1)OCO3 (chirality)
O=C1C=C[C@]2(O1)Oc1cc3c(cc1[C@H]2OCc1ccccc1)OCO3 (3D coordinates assigned)
O=C1C=C[C@]2(O1)Oc1cc3c(cc1[C@H]2OCc1ccccc1)OCO3 (nonaromatic ring conformer: 108.33696556960827 kcal/mol)

>  <smiles>  (29) 
O=C1C=CC2(O1)Oc1cc3c(cc1C2OCc1ccccc1)OCO3

>  <score_type>  (29) 
oracle

>  <origin>  (29) 
adg

>  <m_score__min__energy>  (29) 
-7.8899999999999997

>  <m_primary>  (29) 
energy

$$$$
29:0
     RDKit          3D

 25 26  0  0  0  0  0  0  0  0999 V2000
   60.8830   34.2150   48.8200 C   0  0  0  0  0  0  0  0  0  0  0  0
   60.2340   34.6320   47.6230 O   0  0  0  0  0  0  0  0  0  0  0  0
   59.4530   33.7950   46.8120 C   0  0  0  0  0  0  0  0  0  0  0  0
   58.4580   34.2900   45.9510 C   0  0  0  0  0  0  0  0  0  0  0  0
   57.7060   33.4150   45.1610 C   0  0  0  0  0  0  0  0  0  0  0  0
   57.9340   32.0280   45.2140 C   0  0  0  0  0  0  0  0  0  0  0  0
   57.1430   31.0870   44.3830 C   0  0  0  0  0  0  0  0  0  0  0  0
   56.0040   30.6180   44.7620 N   0  0  0  0  0  0  0  0  0  0  0  0
   55.4680   29.7210   43.7460 C   0  0  0  0  0  0  0  0  0  0  0  0
   56.5240   29.7020   42.6320 C   0  0  0  0  0  0  0  0  0  0  0  0
   57.5520   30.6050   43.1130 N   0  0  0  0  0  0  0  0  0  0  0  0
   58.9270   31.5390   46.0830 C   0  0  0  0  0  0  0  0  0  0  0  0
   59.6780   32.4160   46.8700 C   0  0  0  0  0  0  0  0  0  0  0  0
   60.3167   34.5789   49.6900 H   0  0  0  0  0  0  0  0  0  0  0  0
   60.9313   33.1164   48.8473 H   0  0  0  0  0  0  0  0  0  0  0  0
   61.9023   34.6276   48.8473 H   0  0  0  0  0  0  0  0  0  0  0  0
   58.2698   35.3725   45.8984 H   0  0  0  0  0  0  0  0  0  0  0  0
   56.9294   33.8148   44.4923 H   0  0  0  0  0  0  0  0  0  0  0  0
   55.3242   28.7117   44.1590 H   0  0  0  0  0  0  0  0  0  0  0  0
   54.4866   30.0547   43.3779 H   0  0  0  0  0  0  0  0  0  0  0  0
   56.9274   28.6883   42.4919 H   0  0  0  0  0  0  0  0  0  0  0  0
   56.1170   30.0030   41.6554 H   0  0  0  0  0  0  0  0  0  0  0  0
   58.4540   30.7920   42.6260 H   0  0  0  0  0  0  0  0  0  0  0  0
   59.1137   30.4566   46.1433 H   0  0  0  0  0  0  0  0  0  0  0  0
   60.4533   32.0181   47.5413 H   0  0  0  0  0  0  0  0  0  0  0  0
  1  2  1  0
  2  3  1  0
  3  4  2  0
  4  5  1  0
  5  6  2  0
  6  7  1  0
  7  8  2  0
  8  9  1  0
  9 10  1  0
 10 11  1  0
  6 12  1  0
 12 13  2  0
 13  3  1  0
 11  7  1  0
  1 14  1  0
  1 15  1  0
  1 16  1  0
  4 17  1  0
  5 18  1  0
  9 19  1  0
  9 20  1  0
 10 21  1  0
 10 22  1  0
 11 23  1  0
 12 24  1  0
 13 25  1  0
M  END
>  <UniqueID>  (30) 
27

>  <SMILES>  (30) 
COc1ccc(C2=NCCN2)cc1

>  <Energy>  (30) 
37.216545479977746

>  <Genealogy>  (30) 
COc1ccc(C2=NCCN2)cc1 (3D coordinates assigned)
COc1ccc(C2=NCCN2)cc1 (nonaromatic ring conformer: 37.216545479977746 kcal/mol)

>  <smiles>  (30) 
COc1ccc(C2=NCCN2)cc1

>  <score_type>  (30) 
oracle

>  <origin>  (30) 
adg

>  <m_score__min__energy>  (30) 
-5.2400000000000002

>  <m_primary>  (30) 
energy

$$$$
30:0
     RDKit          3D

 56 58  0  0  0  0  0  0  0  0999 V2000
   58.1420   21.7720   44.5570 C   0  0  0  0  0  0  0  0  0  0  0  0
   57.6260   23.1010   44.8840 C   0  0  0  0  0  0  0  0  0  0  0  0
   57.2020   24.1960   45.1540 C   0  0  0  0  0  0  0  0  0  0  0  0
   56.6970   25.5040   45.4730 C   0  0  0  0  0  0  0  0  0  0  0  0
   55.5510   25.6120   45.9860 O   0  0  0  0  0  0  0  0  0  0  0  0
   57.4950   26.6640   45.2060 N   0  0  0  0  0  0  0  0  0  0  0  0
   57.0580   28.0200   45.5490 C   0  0  0  0  0  0  0  0  0  0  0  0
   58.1910   28.8430   46.1350 C   0  0  0  0  0  0  0  0  0  0  0  0
   58.7740   28.4580   47.3570 C   0  0  0  0  0  0  0  0  0  0  0  0
   59.8050   29.2060   47.9260 C   0  0  0  0  0  0  0  0  0  0  0  0
   60.2990   30.3410   47.2730 C   0  0  0  0  0  0  0  0  0  0  0  0
   61.3680   31.1110   47.8540 N   0  0  0  0  0  0  0  0  0  0  0  0
   61.5940   31.0550   49.3000 C   0  0  0  0  0  0  0  0  0  0  0  0
   63.0880   31.2280   49.6080 C   0  0  0  0  0  0  0  0  0  0  0  0
   63.6780   32.4000   48.9280 N   0  0  0  0  0  0  0  0  0  0  0  0
   63.2670   33.6750   49.5380 C   0  0  0  0  0  0  0  0  0  0  0  0
   63.4470   32.3680   47.4690 C   0  0  0  0  0  0  0  0  0  0  0  0
   61.9620   32.2220   47.1060 C   0  0  0  0  0  0  0  0  0  0  0  0
   59.7580   30.7100   46.0350 C   0  0  0  0  0  0  0  0  0  0  0  0
   58.7210   29.9640   45.4430 C   0  0  0  0  0  0  0  0  0  0  0  0
   58.2390   30.3140   44.1290 N   0  0  0  0  0  0  0  0  0  0  0  0
   57.4150   31.4960   43.8750 C   0  0  0  0  0  0  0  0  0  0  0  0
   57.8990   32.6610   44.6960 C   0  0  0  0  0  0  0  0  0  0  0  0
   58.8600   33.5450   44.1760 C   0  0  0  0  0  0  0  0  0  0  0  0
   59.3410   34.6000   44.9570 C   0  0  0  0  0  0  0  0  0  0  0  0
   58.8780   34.7720   46.2660 C   0  0  0  0  0  0  0  0  0  0  0  0
   57.9360   33.8860   46.7950 C   0  0  0  0  0  0  0  0  0  0  0  0
   57.4500   32.8310   46.0170 C   0  0  0  0  0  0  0  0  0  0  0  0
   58.3553   21.2227   45.4859 H   0  0  0  0  0  0  0  0  0  0  0  0
   57.3921   21.2218   43.9696 H   0  0  0  0  0  0  0  0  0  0  0  0
   59.0666   21.8720   43.9696 H   0  0  0  0  0  0  0  0  0  0  0  0
   58.4800   26.5260   44.8830 H   0  0  0  0  0  0  0  0  0  0  0  0
   56.6899   28.5168   44.6393 H   0  0  0  0  0  0  0  0  0  0  0  0
   56.2628   27.9433   46.3052 H   0  0  0  0  0  0  0  0  0  0  0  0
   58.4117   27.5551   47.8703 H   0  0  0  0  0  0  0  0  0  0  0  0
   60.2320   28.9021   48.8931 H   0  0  0  0  0  0  0  0  0  0  0  0
   61.0263   31.8607   49.7884 H   0  0  0  0  0  0  0  0  0  0  0  0
   61.2592   30.0781   49.6790 H   0  0  0  0  0  0  0  0  0  0  0  0
   63.2115   31.3521   50.6940 H   0  0  0  0  0  0  0  0  0  0  0  0
   63.6094   30.3323   49.2393 H   0  0  0  0  0  0  0  0  0  0  0  0
   63.2965   33.5835   50.6338 H   0  0  0  0  0  0  0  0  0  0  0  0
   63.9535   34.4727   49.2180 H   0  0  0  0  0  0  0  0  0  0  0  0
   62.2439   33.9216   49.2180 H   0  0  0  0  0  0  0  0  0  0  0  0
   63.8254   33.3041   47.0324 H   0  0  0  0  0  0  0  0  0  0  0  0
   63.9743   31.4895   47.0688 H   0  0  0  0  0  0  0  0  0  0  0  0
   61.4329   33.1533   47.3564 H   0  0  0  0  0  0  0  0  0  0  0  0
   61.8729   32.0192   46.0285 H   0  0  0  0  0  0  0  0  0  0  0  0
   60.1498   31.5975   45.5165 H   0  0  0  0  0  0  0  0  0  0  0  0
   58.5210   29.7240   43.3130 H   0  0  0  0  0  0  0  0  0  0  0  0
   57.4736   31.7558   42.8077 H   0  0  0  0  0  0  0  0  0  0  0  0
   56.3748   31.2716   44.1535 H   0  0  0  0  0  0  0  0  0  0  0  0
   59.2349   33.4063   43.1512 H   0  0  0  0  0  0  0  0  0  0  0  0
   60.0847   35.2960   44.5417 H   0  0  0  0  0  0  0  0  0  0  0  0
   59.2554   35.6043   46.8783 H   0  0  0  0  0  0  0  0  0  0  0  0
   57.5760   34.0189   47.8259 H   0  0  0  0  0  0  0  0  0  0  0  0
   56.7138   32.1317   46.4401 H   0  0  0  0  0  0  0  0  0  0  0  0
  1  2  1  0
  2  3  3  0
  3  4  1  0
  4  5  2  0
  4  6  1  0
  6  7  1  0
  7  8  1  0
  8  9  2  0
  9 10  1  0
 10 11  2  0
 11 12  1  0
 12 13  1  0
 13 14  1  0
 14 15  1  0
 15 16  1  0
 15 17  1  0
 17 18  1  0
 11 19  1  0
 19 20  2  0
 20 21  1  0
 21 22  1  0
 22 23  1  0
 23 24  2  0
 24 25  1  0
 25 26  2  0
 26 27  1  0
 27 28  2  0
 20  8  1  0
 28 23  1  0
 18 12  1  0
  1 29  1  0
  1 30  1  0
  1 31  1  0
  6 32  1  0
  7 33  1  0
  7 34  1  0
  9 35  1  0
 10 36  1  0
 13 37  1  0
 13 38  1  0
 14 39  1  0
 14 40  1  0
 16 41  1  0
 16 42  1  0
 16 43  1  0
 17 44  1  0
 17 45  1  0
 18 46  1  0
 18 47  1  0
 19 48  1  0
 21 49  1  0
 22 50  1  0
 22 51  1  0
 24 52  1  0
 25 53  1  0
 26 54  1  0
 27 55  1  0
 28 56  1  0
M  END
>  <UniqueID>  (31) 
28

>  <SMILES>  (31) 
CC#CC(=O)NCc1ccc(N2CCN(C)CC2)cc1NCc1ccccc1

>  <Energy>  (31) 
60.27602628417117

>  <Genealogy>  (31) 
CC#CC(=O)NCc1ccc(N2CCN(C)CC2)cc1NCc1ccccc1 (3D coordinates assigned)
CC#CC(=O)NCc1ccc(N2CCN(C)CC2)cc1NCc1ccccc1 (nonaromatic ring conformer: 60.27602628417117 kcal/mol)

>  <smiles>  (31) 
CC#CC(=O)NCc1ccc(N2CCN(C)CC2)cc1NCc1ccccc1

>  <score_type>  (31) 
oracle

>  <origin>  (31) 
adg

>  <m_score__min__energy>  (31) 
-8.0999999999999996

>  <m_primary>  (31) 
energy

$$$$
31:0
     RDKit          3D

 32 33  0  0  0  0  0  0  0  0999 V2000
   55.3600   29.3570   45.1030 N   0  0  0  0  0  0  0  0  0  0  0  0
   56.6890   29.8360   44.1050 S   0  0  0  0  0  0  0  0  0  0  0  0
   56.1300   30.4140   42.8360 O   0  0  0  0  0  0  0  0  0  0  0  0
   57.5230   28.6270   43.7870 O   0  0  0  0  0  0  0  0  0  0  0  0
   57.6850   31.0480   44.9330 C   0  0  0  0  0  0  0  0  0  0  0  0
   57.7390   32.3450   44.3940 C   0  0  0  0  0  0  0  0  0  0  0  0
   58.5750   33.3150   44.9480 C   0  0  0  0  0  0  0  0  0  0  0  0
   59.3760   33.0030   46.0440 C   0  0  0  0  0  0  0  0  0  0  0  0
   59.3300   31.7240   46.6010 C   0  0  0  0  0  0  0  0  0  0  0  0
   58.4740   30.7410   46.0770 C   0  0  0  0  0  0  0  0  0  0  0  0
   58.4590   29.4290   46.7560 C   0  0  0  0  0  0  0  0  0  0  0  0
   59.2690   28.4820   46.4140 N   0  0  0  0  0  0  0  0  0  0  0  0
   59.0780   27.2000   46.8840 O   0  0  0  0  0  0  0  0  0  0  0  0
   58.0620   26.3740   46.3930 C   0  0  0  0  0  0  0  0  0  0  0  0
   58.4060   25.1280   45.8630 C   0  0  0  0  0  0  0  0  0  0  0  0
   57.4210   24.2750   45.3600 C   0  0  0  0  0  0  0  0  0  0  0  0
   56.0650   24.6520   45.3830 C   0  0  0  0  0  0  0  0  0  0  0  0
   55.0430   23.7210   44.8400 C   0  0  0  0  0  0  0  0  0  0  0  0
   53.9210   23.5930   45.3970 O   0  0  0  0  0  0  0  0  0  0  0  0
   55.3110   22.9730   43.7000 O   0  0  0  0  0  0  0  0  0  0  0  0
   55.7190   25.9100   45.9260 C   0  0  0  0  0  0  0  0  0  0  0  0
   54.3950   26.3320   45.9790 O   0  0  0  0  0  0  0  0  0  0  0  0
   56.7130   26.7580   46.4260 C   0  0  0  0  0  0  0  0  0  0  0  0
   54.5000   29.3920   44.5110 H   0  0  0  0  0  0  0  0  0  0  0  0
   57.1144   32.5984   43.5247 H   0  0  0  0  0  0  0  0  0  0  0  0
   58.6016   34.3274   44.5187 H   0  0  0  0  0  0  0  0  0  0  0  0
   60.0450   33.7648   46.4707 H   0  0  0  0  0  0  0  0  0  0  0  0
   59.9720   31.4827   47.4610 H   0  0  0  0  0  0  0  0  0  0  0  0
   57.7418   29.2542   47.5715 H   0  0  0  0  0  0  0  0  0  0  0  0
   59.4607   24.8163   45.8417 H   0  0  0  0  0  0  0  0  0  0  0  0
   57.7078   23.2989   44.9417 H   0  0  0  0  0  0  0  0  0  0  0  0
   56.4344   27.7345   46.8488 H   0  0  0  0  0  0  0  0  0  0  0  0
  1  2  1  0
  2  3  2  0
  2  4  2  0
  2  5  1  0
  5  6  2  0
  6  7  1  0
  7  8  2  0
  8  9  1  0
  9 10  2  0
 10 11  1  0
 11 12  2  3
 12 13  1  0
 13 14  1  0
 14 15  2  0
 15 16  1  0
 16 17  2  0
 17 18  1  0
 18 19  2  0
 18 20  1  0
 17 21  1  0
 21 22  1  0
 21 23  2  0
 10  5  1  0
 23 14  1  0
  1 24  1  0
  6 25  1  0
  7 26  1  0
  8 27  1  0
  9 28  1  0
 11 29  1  0
 15 30  1  0
 16 31  1  0
 23 32  1  0
M  CHG  3   1  -1  20  -1  22  -1
M  END
>  <UniqueID>  (32) 
29

>  <SMILES>  (32) 
[NH-]S(=O)(=O)c1ccccc1C=NOc1ccc(C(=O)[O-])c([O-])c1

>  <Energy>  (32) 
39.497457577482244

>  <Genealogy>  (32) 
[NH-]S(=O)(=O)c1ccccc1C=NOc1ccc(C(=O)[O-])c([O-])c1 (protonated)
[NH-]S(=O)(=O)c1ccccc1C=NOc1ccc(C(=O)[O-])c([O-])c1 (3D coordinates assigned)
[NH-]S(=O)(=O)c1ccccc1C=NOc1ccc(C(=O)[O-])c([O-])c1 (optimized conformer: 39.497457577482244 kcal/mol)

>  <smiles>  (32) 
NS(=O)(=O)c1ccccc1C=NOc1ccc(C(=O)O)c(O)c1

>  <score_type>  (32) 
oracle

>  <origin>  (32) 
adg

>  <m_score__min__energy>  (32) 
-15.890000000000001

>  <m_primary>  (32) 
energy

$$$$
32:0
     RDKit          3D

 41 43  0  0  0  0  0  0  0  0999 V2000
   59.5260   33.8900   48.9550 O   0  0  0  0  0  0  0  0  0  0  0  0
   58.9050   32.9880   48.3340 C   0  0  0  0  0  0  0  0  0  0  0  0
   58.5030   31.8490   49.0230 O   0  0  0  0  0  0  0  0  0  0  0  0
   58.6070   33.1350   46.8930 C   0  0  0  0  0  0  0  0  0  0  0  0
   58.8490   34.3520   46.2310 C   0  0  0  0  0  0  0  0  0  0  0  0
   58.5650   34.4850   44.8690 C   0  0  0  0  0  0  0  0  0  0  0  0
   58.0300   33.4110   44.1570 C   0  0  0  0  0  0  0  0  0  0  0  0
   57.7770   32.1950   44.8020 C   0  0  0  0  0  0  0  0  0  0  0  0
   57.0680   30.8460   43.9180 S   0  0  0  0  0  0  0  0  0  0  0  0
   56.8810   31.2550   42.4840 O   0  0  0  0  0  0  0  0  0  0  0  0
   55.7330   30.4730   44.4990 O   0  0  0  0  0  0  0  0  0  0  0  0
   58.1180   29.4660   43.9870 N   0  0  0  0  0  0  0  0  0  0  0  0
   58.1840   28.5550   45.1010 C   0  0  0  0  0  0  0  0  0  0  0  0
   59.2860   28.6140   45.9670 C   0  0  0  0  0  0  0  0  0  0  0  0
   59.3830   27.7420   47.0540 C   0  0  0  0  0  0  0  0  0  0  0  0
   58.3710   26.8110   47.2970 C   0  0  0  0  0  0  0  0  0  0  0  0
   57.2500   26.7530   46.4630 C   0  0  0  0  0  0  0  0  0  0  0  0
   56.2280   25.7860   46.7400 N   0  0  0  0  0  0  0  0  0  0  0  0
   55.2870   25.2670   45.7890 C   0  0  0  0  0  0  0  0  0  0  0  0
   54.1700   25.8330   45.6350 O   0  0  0  0  0  0  0  0  0  0  0  0
   55.5980   24.0330   45.0320 C   0  0  0  0  0  0  0  0  0  0  0  0
   55.9250   24.0940   43.6660 C   0  0  0  0  0  0  0  0  0  0  0  0
   56.2080   22.9170   42.9670 C   0  0  0  0  0  0  0  0  0  0  0  0
   56.1760   21.7200   43.6080 N   0  0  0  0  0  0  0  0  0  0  0  0
   55.8680   21.6270   44.9290 C   0  0  0  0  0  0  0  0  0  0  0  0
   55.5710   22.7780   45.6630 C   0  0  0  0  0  0  0  0  0  0  0  0
   57.1740   27.6040   45.3470 C   0  0  0  0  0  0  0  0  0  0  0  0
   58.0720   32.0570   46.1660 C   0  0  0  0  0  0  0  0  0  0  0  0
   59.2643   35.2044   46.7886 H   0  0  0  0  0  0  0  0  0  0  0  0
   58.7637   35.4383   44.3574 H   0  0  0  0  0  0  0  0  0  0  0  0
   57.8064   33.5203   43.0855 H   0  0  0  0  0  0  0  0  0  0  0  0
   58.7600   29.3210   43.1770 H   0  0  0  0  0  0  0  0  0  0  0  0
   60.0807   29.3534   45.7886 H   0  0  0  0  0  0  0  0  0  0  0  0
   60.2577   27.7888   47.7194 H   0  0  0  0  0  0  0  0  0  0  0  0
   58.4560   26.1199   48.1486 H   0  0  0  0  0  0  0  0  0  0  0  0
   55.9580   25.0644   43.1491 H   0  0  0  0  0  0  0  0  0  0  0  0
   56.4569   22.9603   41.8964 H   0  0  0  0  0  0  0  0  0  0  0  0
   55.8526   20.6433   45.4210 H   0  0  0  0  0  0  0  0  0  0  0  0
   55.3171   22.7020   46.7306 H   0  0  0  0  0  0  0  0  0  0  0  0
   56.3186   27.5269   44.6597 H   0  0  0  0  0  0  0  0  0  0  0  0
   57.8834   31.0981   46.6710 H   0  0  0  0  0  0  0  0  0  0  0  0
  1  2  2  0
  2  3  1  0
  2  4  1  0
  4  5  2  0
  5  6  1  0
  6  7  2  0
  7  8  1  0
  8  9  1  0
  9 10  2  0
  9 11  2  0
  9 12  1  0
 12 13  1  0
 13 14  2  0
 14 15  1  0
 15 16  2  0
 16 17  1  0
 17 18  1  0
 18 19  1  0
 19 20  2  0
 19 21  1  0
 21 22  2  0
 22 23  1  0
 23 24  2  0
 24 25  1  0
 25 26  2  0
 17 27  2  0
  8 28  2  0
 28  4  1  0
 27 13  1  0
 26 21  1  0
  5 29  1  0
  6 30  1  0
  7 31  1  0
 12 32  1  0
 14 33  1  0
 15 34  1  0
 16 35  1  0
 22 36  1  0
 23 37  1  0
 25 38  1  0
 26 39  1  0
 27 40  1  0
 28 41  1  0
M  CHG  2   3  -1  18  -1
M  END
>  <UniqueID>  (33) 
30

>  <SMILES>  (33) 
O=C([O-])c1cccc(S(=O)(=O)Nc2cccc([N-]C(=O)c3ccncc3)c2)c1

>  <Energy>  (33) 
50.976839421929974

>  <Genealogy>  (33) 
O=C([O-])c1cccc(S(=O)(=O)Nc2cccc([N-]C(=O)c3ccncc3)c2)c1 (protonated)
O=C([O-])c1cccc(S(=O)(=O)Nc2cccc([N-]C(=O)c3ccncc3)c2)c1 (3D coordinates assigned)
O=C([O-])c1cccc(S(=O)(=O)Nc2cccc([N-]C(=O)c3ccncc3)c2)c1 (optimized conformer: 50.976839421929974 kcal/mol)

>  <smiles>  (33) 
O=C(O)c1cccc(S(=O)(=O)Nc2cccc(NC(=O)c3ccncc3)c2)c1

>  <score_type>  (33) 
oracle

>  <origin>  (33) 
adg

>  <m_score__min__energy>  (33) 
-13.550000000000001

>  <m_primary>  (33) 
energy

$$$$
33:0
     RDKit          3D

 40 42  0  0  0  0  0  0  0  0999 V2000
   60.2620   27.7120   46.4620 C   0  0  0  0  0  0  0  0  0  0  0  0
   59.1530   27.8720   47.4470 C   0  0  0  0  0  0  0  0  0  0  0  0
   58.1860   27.0630   47.4380 O   0  0  0  0  0  0  0  0  0  0  0  0
   59.1670   28.9790   48.3550 N   0  0  0  0  0  0  0  0  0  0  0  0
   59.8990   30.2150   48.1080 C   0  0  0  0  0  0  0  0  0  0  0  0
   58.9310   31.3900   47.9510 C   0  0  0  0  0  0  0  0  0  0  0  0
   58.7720   31.7530   46.5010 C   0  0  0  0  0  0  0  0  0  0  0  0
   59.2240   32.8980   45.8320 C   0  0  0  0  0  0  0  0  0  0  0  0
   59.9870   34.0290   46.4070 C   0  0  0  0  0  0  0  0  0  0  0  0
   59.6300   35.2100   46.1500 O   0  0  0  0  0  0  0  0  0  0  0  0
   61.1890   33.8070   47.2450 C   0  0  0  0  0  0  0  0  0  0  0  0
   61.1380   33.9430   48.6450 C   0  0  0  0  0  0  0  0  0  0  0  0
   62.2840   33.7370   49.4200 C   0  0  0  0  0  0  0  0  0  0  0  0
   63.4950   33.4020   48.8060 C   0  0  0  0  0  0  0  0  0  0  0  0
   64.9320   33.1460   49.7800 Cl  0  0  0  0  0  0  0  0  0  0  0  0
   63.5610   33.2790   47.4160 C   0  0  0  0  0  0  0  0  0  0  0  0
   62.4160   33.4840   46.6380 C   0  0  0  0  0  0  0  0  0  0  0  0
   58.8460   32.8570   44.5660 O   0  0  0  0  0  0  0  0  0  0  0  0
   58.1660   31.7520   44.3800 C   0  0  0  0  0  0  0  0  0  0  0  0
   57.5750   31.3060   43.1980 C   0  0  0  0  0  0  0  0  0  0  0  0
   57.7170   32.3340   41.5910 Br  0  0  0  0  0  0  0  0  0  0  0  0
   56.8740   30.0820   43.2310 C   0  0  0  0  0  0  0  0  0  0  0  0
   56.2680   29.6010   42.0730 O   0  0  0  0  0  0  0  0  0  0  0  0
   56.7850   29.3480   44.4400 C   0  0  0  0  0  0  0  0  0  0  0  0
   57.3940   29.8260   45.6130 C   0  0  0  0  0  0  0  0  0  0  0  0
   58.0830   31.0360   45.5430 C   0  0  0  0  0  0  0  0  0  0  0  0
   61.2123   27.5749   46.9988 H   0  0  0  0  0  0  0  0  0  0  0  0
   60.0675   26.8326   45.8305 H   0  0  0  0  0  0  0  0  0  0  0  0
   60.3240   28.6105   45.8305 H   0  0  0  0  0  0  0  0  0  0  0  0
   60.5728   30.4119   48.9549 H   0  0  0  0  0  0  0  0  0  0  0  0
   60.4784   30.1054   47.1794 H   0  0  0  0  0  0  0  0  0  0  0  0
   57.9507   31.1086   48.3630 H   0  0  0  0  0  0  0  0  0  0  0  0
   59.3356   32.2581   48.4921 H   0  0  0  0  0  0  0  0  0  0  0  0
   60.1900   34.2133   49.1332 H   0  0  0  0  0  0  0  0  0  0  0  0
   62.2327   33.8386   50.5141 H   0  0  0  0  0  0  0  0  0  0  0  0
   64.5145   33.0206   46.9323 H   0  0  0  0  0  0  0  0  0  0  0  0
   62.4760   33.3918   45.5435 H   0  0  0  0  0  0  0  0  0  0  0  0
   55.5510   28.8860   42.1080 H   0  0  0  0  0  0  0  0  0  0  0  0
   56.2345   28.3959   44.4605 H   0  0  0  0  0  0  0  0  0  0  0  0
   57.3291   29.2635   46.5561 H   0  0  0  0  0  0  0  0  0  0  0  0
  1  2  1  0
  2  3  2  0
  2  4  1  0
  4  5  1  0
  5  6  1  0
  6  7  1  0
  7  8  2  0
  8  9  1  0
  9 10  2  0
  9 11  1  0
 11 12  2  0
 12 13  1  0
 13 14  2  0
 14 15  1  0
 14 16  1  0
 16 17  2  0
  8 18  1  0
 18 19  1  0
 19 20  2  0
 20 21  1  0
 20 22  1  0
 22 23  1  0
 22 24  2  0
 24 25  1  0
 25 26  2  0
 26  7  1  0
 17 11  1  0
 26 19  1  0
  1 27  1  0
  1 28  1  0
  1 29  1  0
  5 30  1  0
  5 31  1  0
  6 32  1  0
  6 33  1  0
 12 34  1  0
 13 35  1  0
 16 36  1  0
 17 37  1  0
 23 38  1  0
 24 39  1  0
 25 40  1  0
M  CHG  1   4  -1
M  END
>  <UniqueID>  (34) 
31

>  <SMILES>  (34) 
CC(=O)[N-]CCc1c(C(=O)c2ccc(Cl)cc2)oc2c(Br)c(O)ccc12

>  <Energy>  (34) 
73.45456914944211

>  <Genealogy>  (34) 
CC(=O)[N-]CCc1c(C(=O)c2ccc(Cl)cc2)oc2c(Br)c(O)ccc12 (protonated)
CC(=O)[N-]CCc1c(C(=O)c2ccc(Cl)cc2)oc2c(Br)c(O)ccc12 (3D coordinates assigned)
CC(=O)[N-]CCc1c(C(=O)c2ccc(Cl)cc2)oc2c(Br)c(O)ccc12 (optimized conformer: 73.45456914944211 kcal/mol)

>  <smiles>  (34) 
CC(=O)NCCc1c(C(=O)c2ccc(Cl)cc2)oc2c(Br)c(O)ccc12

>  <score_type>  (34) 
oracle

>  <origin>  (34) 
adg

>  <m_score__min__energy>  (34) 
-9.3499999999999996

>  <m_primary>  (34) 
energy

$$$$
34:0
     RDKit          3D

 39 41  0  0  0  0  0  0  0  0999 V2000
   57.1230   28.7960   43.1310 N   0  0  0  0  0  0  0  0  0  0  0  0
   56.6740   30.4240   43.5150 S   0  0  0  0  0  0  0  0  0  0  0  0
   55.3160   30.4060   44.1540 O   0  0  0  0  0  0  0  0  0  0  0  0
   56.6260   31.2370   42.2510 O   0  0  0  0  0  0  0  0  0  0  0  0
   57.8470   31.1280   44.6280 C   0  0  0  0  0  0  0  0  0  0  0  0
   58.0820   32.5100   44.7060 C   0  0  0  0  0  0  0  0  0  0  0  0
   59.0560   32.8630   45.6290 C   0  0  0  0  0  0  0  0  0  0  0  0
   59.6250   31.4600   46.3580 S   0  0  0  0  0  0  0  0  0  0  0  0
   58.6410   30.3920   45.5090 C   0  0  0  0  0  0  0  0  0  0  0  0
   58.6650   28.6440   45.7360 S   0  0  0  0  0  0  0  0  0  0  0  0
   59.6120   28.3080   46.8530 O   0  0  0  0  0  0  0  0  0  0  0  0
   59.1100   27.9470   44.4790 O   0  0  0  0  0  0  0  0  0  0  0  0
   57.0740   28.0840   46.1520 N   0  0  0  0  0  0  0  0  0  0  0  0
   56.6950   26.8470   46.0460 C   0  0  0  0  0  0  0  0  0  0  0  0
   55.4310   26.4510   46.3030 N   0  0  0  0  0  0  0  0  0  0  0  0
   55.2320   25.1540   46.0710 N   0  0  0  0  0  0  0  0  0  0  0  0
   56.3380   24.5140   45.6290 C   0  0  0  0  0  0  0  0  0  0  0  0
   56.3650   23.0660   45.2470 C   0  0  0  0  0  0  0  0  0  0  0  0
   55.4360   22.8230   44.0980 C   0  0  0  0  0  0  0  0  0  0  0  0
   55.8490   22.2080   43.0770 O   0  0  0  0  0  0  0  0  0  0  0  0
   54.0810   23.2870   44.1720 N   0  0  0  0  0  0  0  0  0  0  0  0
   53.1630   23.0190   45.2430 C   0  0  0  0  0  0  0  0  0  0  0  0
   53.5660   22.3380   46.4100 C   0  0  0  0  0  0  0  0  0  0  0  0
   52.6400   22.0710   47.4230 C   0  0  0  0  0  0  0  0  0  0  0  0
   51.3060   22.4610   47.2750 C   0  0  0  0  0  0  0  0  0  0  0  0
   50.8910   23.1080   46.1060 C   0  0  0  0  0  0  0  0  0  0  0  0
   51.8150   23.3820   45.0890 C   0  0  0  0  0  0  0  0  0  0  0  0
   51.3940   23.9980   43.9520 F   0  0  0  0  0  0  0  0  0  0  0  0
   57.6560   25.5610   45.5230 S   0  0  0  0  0  0  0  0  0  0  0  0
   58.1480   28.8050   42.9320 H   0  0  0  0  0  0  0  0  0  0  0  0
   56.9870   28.2240   43.9930 H   0  0  0  0  0  0  0  0  0  0  0  0
   57.5430   33.2459   44.0913 H   0  0  0  0  0  0  0  0  0  0  0  0
   59.3972   33.8859   45.8463 H   0  0  0  0  0  0  0  0  0  0  0  0
   57.3876   22.7852   44.9546 H   0  0  0  0  0  0  0  0  0  0  0  0
   56.0434   22.4594   46.1064 H   0  0  0  0  0  0  0  0  0  0  0  0
   54.6116   22.0159   46.5238 H   0  0  0  0  0  0  0  0  0  0  0  0
   52.9620   21.5529   48.3384 H   0  0  0  0  0  0  0  0  0  0  0  0
   50.5820   22.2591   48.0781 H   0  0  0  0  0  0  0  0  0  0  0  0
   49.8379   23.4020   45.9852 H   0  0  0  0  0  0  0  0  0  0  0  0
  1  2  1  0
  2  3  2  0
  2  4  2  0
  2  5  1  0
  5  6  1  0
  6  7  2  0
  7  8  1  0
  8  9  1  0
  9 10  1  0
 10 11  2  0
 10 12  2  0
 10 13  1  0
 13 14  2  3
 14 15  1  0
 15 16  1  0
 16 17  2  0
 17 18  1  0
 18 19  1  0
 19 20  2  0
 19 21  1  0
 21 22  1  0
 22 23  2  0
 23 24  1  0
 24 25  2  0
 25 26  1  0
 26 27  2  0
 27 28  1  0
 17 29  1  0
  9  5  2  0
 29 14  1  0
 27 22  1  0
  1 30  1  0
  1 31  1  0
  6 32  1  0
  7 33  1  0
 18 34  1  0
 18 35  1  0
 23 36  1  0
 24 37  1  0
 25 38  1  0
 26 39  1  0
M  CHG  2  15  -1  21  -1
M  END
>  <UniqueID>  (35) 
32

>  <SMILES>  (35) 
NS(=O)(=O)c1ccsc1S(=O)(=O)N=c1[n-]nc(CC(=O)[N-]c2ccccc2F)s1

>  <Energy>  (35) 
103.35545381043194

>  <Genealogy>  (35) 
NS(=O)(=O)c1ccsc1S(=O)(=O)N=c1[n-]nc(CC(=O)[N-]c2ccccc2F)s1 (protonated)
NS(=O)(=O)c1ccsc1S(=O)(=O)N=c1[n-]nc(CC(=O)[N-]c2ccccc2F)s1 (3D coordinates assigned)
NS(=O)(=O)c1ccsc1S(=O)(=O)N=c1[n-]nc(CC(=O)[N-]c2ccccc2F)s1 (optimized conformer: 103.35545381043194 kcal/mol)

>  <smiles>  (35) 
NS(=O)(=O)c1ccsc1S(=O)(=O)N=c1[nH]nc(CC(=O)Nc2ccccc2F)s1

>  <score_type>  (35) 
oracle

>  <origin>  (35) 
adg

>  <m_score__min__energy>  (35) 
-12.52

>  <m_primary>  (35) 
energy

$$$$
35:0
     RDKit          3D

 42 44  0  0  0  0  0  0  0  0999 V2000
   54.9120   29.4620   43.1720 O   0  0  0  0  0  0  0  0  0  0  0  0
   55.7660   29.7680   44.0490 C   0  0  0  0  0  0  0  0  0  0  0  0
   55.8770   28.9830   45.2430 N   0  0  0  0  0  0  0  0  0  0  0  0
   56.7660   27.8310   45.3730 C   0  0  0  0  0  0  0  0  0  0  0  0
   58.1800   28.3090   45.5840 C   0  0  0  0  0  0  0  0  0  0  0  0
   59.0930   28.3460   44.5210 C   0  0  0  0  0  0  0  0  0  0  0  0
   60.3440   28.9390   44.6970 C   0  0  0  0  0  0  0  0  0  0  0  0
   60.6760   29.4910   45.9360 C   0  0  0  0  0  0  0  0  0  0  0  0
   59.7910   29.4370   46.9610 N   0  0  0  0  0  0  0  0  0  0  0  0
   58.5640   28.8620   46.8160 C   0  0  0  0  0  0  0  0  0  0  0  0
   56.6720   30.9150   43.8300 C   0  0  0  0  0  0  0  0  0  0  0  0
   57.0480   31.2880   42.5280 C   0  0  0  0  0  0  0  0  0  0  0  0
   57.9530   32.3330   42.3250 C   0  0  0  0  0  0  0  0  0  0  0  0
   58.5040   33.0050   43.4180 C   0  0  0  0  0  0  0  0  0  0  0  0
   58.1410   32.6450   44.7220 C   0  0  0  0  0  0  0  0  0  0  0  0
   58.8960   33.4260   46.1070 S   0  0  0  0  0  0  0  0  0  0  0  0
   57.8570   33.9310   47.0710 O   0  0  0  0  0  0  0  0  0  0  0  0
   59.7040   34.5910   45.6160 O   0  0  0  0  0  0  0  0  0  0  0  0
   59.9380   32.3080   46.9280 N   0  0  0  0  0  0  0  0  0  0  0  0
   61.2270   32.6540   47.4730 C   0  0  0  0  0  0  0  0  0  0  0  0
   62.1280   33.5010   46.7860 C   0  0  0  0  0  0  0  0  0  0  0  0
   63.3820   33.7890   47.3330 C   0  0  0  0  0  0  0  0  0  0  0  0
   63.7510   33.2420   48.5650 C   0  0  0  0  0  0  0  0  0  0  0  0
   64.9750   33.5120   49.0800 F   0  0  0  0  0  0  0  0  0  0  0  0
   62.8630   32.4120   49.2590 C   0  0  0  0  0  0  0  0  0  0  0  0
   61.6080   32.1170   48.7150 C   0  0  0  0  0  0  0  0  0  0  0  0
   57.2180   31.6100   44.9240 C   0  0  0  0  0  0  0  0  0  0  0  0
   56.4528   27.2213   46.2333 H   0  0  0  0  0  0  0  0  0  0  0  0
   56.7168   27.2245   44.4566 H   0  0  0  0  0  0  0  0  0  0  0  0
   58.8236   27.9079   43.5487 H   0  0  0  0  0  0  0  0  0  0  0  0
   61.0635   28.9714   43.8656 H   0  0  0  0  0  0  0  0  0  0  0  0
   61.6559   29.9697   46.0801 H   0  0  0  0  0  0  0  0  0  0  0  0
   57.8704   28.8310   47.6692 H   0  0  0  0  0  0  0  0  0  0  0  0
   56.6271   30.7538   41.6634 H   0  0  0  0  0  0  0  0  0  0  0  0
   58.2319   32.6269   41.3023 H   0  0  0  0  0  0  0  0  0  0  0  0
   59.2252   33.8194   43.2545 H   0  0  0  0  0  0  0  0  0  0  0  0
   59.5590   31.3480   47.0950 H   0  0  0  0  0  0  0  0  0  0  0  0
   61.8406   33.9350   45.8170 H   0  0  0  0  0  0  0  0  0  0  0  0
   64.0790   34.4468   46.7931 H   0  0  0  0  0  0  0  0  0  0  0  0
   63.1521   31.9911   50.2333 H   0  0  0  0  0  0  0  0  0  0  0  0
   60.9154   31.4609   49.2625 H   0  0  0  0  0  0  0  0  0  0  0  0
   56.9180   31.3389   45.9470 H   0  0  0  0  0  0  0  0  0  0  0  0
  1  2  2  0
  2  3  1  0
  3  4  1  0
  4  5  1  0
  5  6  2  0
  6  7  1  0
  7  8  2  0
  8  9  1  0
  9 10  2  0
  2 11  1  0
 11 12  2  0
 12 13  1  0
 13 14  2  0
 14 15  1  0
 15 16  1  0
 16 17  2  0
 16 18  2  0
 16 19  1  0
 19 20  1  0
 20 21  2  0
 21 22  1  0
 22 23  2  0
 23 24  1  0
 23 25  1  0
 25 26  2  0
 15 27  2  0
 10  5  1  0
 27 11  1  0
 26 20  1  0
  4 28  1  0
  4 29  1  0
  6 30  1  0
  7 31  1  0
  8 32  1  0
 10 33  1  0
 12 34  1  0
 13 35  1  0
 14 36  1  0
 19 37  1  0
 21 38  1  0
 22 39  1  0
 25 40  1  0
 26 41  1  0
 27 42  1  0
M  CHG  1   3  -1
M  END
>  <UniqueID>  (36) 
33

>  <SMILES>  (36) 
O=C([N-]Cc1cccnc1)c1cccc(S(=O)(=O)Nc2ccc(F)cc2)c1

>  <Energy>  (36) 
48.25047062889448

>  <Genealogy>  (36) 
O=C([N-]Cc1cccnc1)c1cccc(S(=O)(=O)Nc2ccc(F)cc2)c1 (protonated)
O=C([N-]Cc1cccnc1)c1cccc(S(=O)(=O)Nc2ccc(F)cc2)c1 (3D coordinates assigned)
O=C([N-]Cc1cccnc1)c1cccc(S(=O)(=O)Nc2ccc(F)cc2)c1 (optimized conformer: 48.25047062889448 kcal/mol)

>  <smiles>  (36) 
O=C(NCc1cccnc1)c1cccc(S(=O)(=O)Nc2ccc(F)cc2)c1

>  <score_type>  (36) 
oracle

>  <origin>  (36) 
adg

>  <m_score__min__energy>  (36) 
-11.42

>  <m_primary>  (36) 
energy

$$$$
36:0
     RDKit          3D

 55 58  0  0  0  0  0  0  0  0999 V2000
   55.2090   30.3760   54.5390 O   0  0  0  0  0  0  0  0  0  0  0  0
   55.0700   30.4050   53.2870 C   0  0  0  0  0  0  0  0  0  0  0  0
   53.7910   30.0660   52.7300 N   0  0  0  0  0  0  0  0  0  0  0  0
   52.8300   30.8880   52.4070 C   0  0  0  0  0  0  0  0  0  0  0  0
   51.8100   31.2620   53.3090 C   0  0  0  0  0  0  0  0  0  0  0  0
   50.8120   32.1450   52.8910 C   0  0  0  0  0  0  0  0  0  0  0  0
   50.8150   32.6310   51.6220 N   0  0  0  0  0  0  0  0  0  0  0  0
   51.7750   32.2760   50.7280 C   0  0  0  0  0  0  0  0  0  0  0  0
   52.7930   31.3960   51.1030 C   0  0  0  0  0  0  0  0  0  0  0  0
   56.2410   30.7130   52.4270 C   0  0  0  0  0  0  0  0  0  0  0  0
   56.4830   32.0330   52.0060 C   0  0  0  0  0  0  0  0  0  0  0  0
   57.5800   32.3270   51.1930 C   0  0  0  0  0  0  0  0  0  0  0  0
   58.4570   31.3100   50.7940 C   0  0  0  0  0  0  0  0  0  0  0  0
   59.5900   31.6180   49.9670 N   0  0  0  0  0  0  0  0  0  0  0  0
   59.9350   33.0200   49.7070 C   0  0  0  0  0  0  0  0  0  0  0  0
   59.4610   33.4400   48.3430 C   0  0  0  0  0  0  0  0  0  0  0  0
   58.1930   33.0510   47.8750 C   0  0  0  0  0  0  0  0  0  0  0  0
   57.7760   33.4120   46.5900 C   0  0  0  0  0  0  0  0  0  0  0  0
   58.6180   34.1610   45.7640 C   0  0  0  0  0  0  0  0  0  0  0  0
   59.8770   34.5550   46.2230 C   0  0  0  0  0  0  0  0  0  0  0  0
   60.3000   34.1960   47.5070 C   0  0  0  0  0  0  0  0  0  0  0  0
   60.6570   30.3310   49.4740 S   0  0  0  0  0  0  0  0  0  0  0  0
   61.4260   29.8260   50.6640 O   0  0  0  0  0  0  0  0  0  0  0  0
   61.6450   30.8410   48.4620 O   0  0  0  0  0  0  0  0  0  0  0  0
   59.7410   28.9770   48.7480 C   0  0  0  0  0  0  0  0  0  0  0  0
   59.5400   29.1730   47.2700 C   0  0  0  0  0  0  0  0  0  0  0  0
   60.3780   28.5260   46.3450 C   0  0  0  0  0  0  0  0  0  0  0  0
   60.1960   28.7190   44.9720 C   0  0  0  0  0  0  0  0  0  0  0  0
   59.1770   29.5560   44.5110 C   0  0  0  0  0  0  0  0  0  0  0  0
   58.3310   30.1930   45.4220 C   0  0  0  0  0  0  0  0  0  0  0  0
   58.5050   29.9980   46.7960 C   0  0  0  0  0  0  0  0  0  0  0  0
   58.2200   29.9940   51.2110 C   0  0  0  0  0  0  0  0  0  0  0  0
   57.1280   29.6980   52.0280 C   0  0  0  0  0  0  0  0  0  0  0  0
   51.8015   30.8609   54.3332 H   0  0  0  0  0  0  0  0  0  0  0  0
   50.0203   32.4483   53.5919 H   0  0  0  0  0  0  0  0  0  0  0  0
   51.7504   32.6827   49.7063 H   0  0  0  0  0  0  0  0  0  0  0  0
   53.5639   31.1028   50.3752 H   0  0  0  0  0  0  0  0  0  0  0  0
   55.8036   32.8394   52.3192 H   0  0  0  0  0  0  0  0  0  0  0  0
   57.7562   33.3619   50.8645 H   0  0  0  0  0  0  0  0  0  0  0  0
   59.4577   33.6562   50.4669 H   0  0  0  0  0  0  0  0  0  0  0  0
   61.0287   33.1289   49.7503 H   0  0  0  0  0  0  0  0  0  0  0  0
   57.5272   32.4609   48.5219 H   0  0  0  0  0  0  0  0  0  0  0  0
   56.7832   33.1057   46.2288 H   0  0  0  0  0  0  0  0  0  0  0  0
   58.2894   34.4404   44.7521 H   0  0  0  0  0  0  0  0  0  0  0  0
   60.5371   35.1487   45.5735 H   0  0  0  0  0  0  0  0  0  0  0  0
   61.2931   34.5067   47.8636 H   0  0  0  0  0  0  0  0  0  0  0  0
   60.2967   28.0419   48.9117 H   0  0  0  0  0  0  0  0  0  0  0  0
   58.7516   28.9354   49.2269 H   0  0  0  0  0  0  0  0  0  0  0  0
   61.1808   27.8647   46.7030 H   0  0  0  0  0  0  0  0  0  0  0  0
   60.8563   28.2109   44.2538 H   0  0  0  0  0  0  0  0  0  0  0  0
   59.0408   29.7134   43.4309 H   0  0  0  0  0  0  0  0  0  0  0  0
   57.5266   30.8491   45.0581 H   0  0  0  0  0  0  0  0  0  0  0  0
   57.8289   30.4924   47.5091 H   0  0  0  0  0  0  0  0  0  0  0  0
   58.8987   29.1890   50.8926 H   0  0  0  0  0  0  0  0  0  0  0  0
   56.9602   28.6635   52.3620 H   0  0  0  0  0  0  0  0  0  0  0  0
  1  2  2  0
  2  3  1  0
  3  4  2  3
  4  5  1  0
  5  6  2  0
  6  7  1  0
  7  8  1  0
  8  9  2  0
  2 10  1  0
 10 11  2  0
 11 12  1  0
 12 13  2  0
 13 14  1  0
 14 15  1  0
 15 16  1  0
 16 17  2  0
 17 18  1  0
 18 19  2  0
 19 20  1  0
 20 21  2  0
 14 22  1  0
 22 23  2  0
 22 24  2  0
 22 25  1  0
 25 26  1  0
 26 27  2  0
 27 28  1  0
 28 29  2  0
 29 30  1  0
 30 31  2  0
 13 32  1  0
 32 33  2  0
  9  4  1  0
 33 10  1  0
 21 16  1  0
 31 26  1  0
  5 34  1  0
  6 35  1  0
  8 36  1  0
  9 37  1  0
 11 38  1  0
 12 39  1  0
 15 40  1  0
 15 41  1  0
 17 42  1  0
 18 43  1  0
 19 44  1  0
 20 45  1  0
 21 46  1  0
 25 47  1  0
 25 48  1  0
 27 49  1  0
 28 50  1  0
 29 51  1  0
 30 52  1  0
 31 53  1  0
 32 54  1  0
 33 55  1  0
M  CHG  1   7  -1
M  END
>  <UniqueID>  (37) 
34

>  <SMILES>  (37) 
O=C(N=c1cc[n-]cc1)c1ccc(N(Cc2ccccc2)S(=O)(=O)Cc2ccccc2)cc1

>  <Energy>  (37) 
67.52043303292571

>  <Genealogy>  (37) 
O=C(N=c1cc[n-]cc1)c1ccc(N(Cc2ccccc2)S(=O)(=O)Cc2ccccc2)cc1 (protonated)
O=C(N=c1cc[n-]cc1)c1ccc(N(Cc2ccccc2)S(=O)(=O)Cc2ccccc2)cc1 (3D coordinates assigned)
O=C(N=c1cc[n-]cc1)c1ccc(N(Cc2ccccc2)S(=O)(=O)Cc2ccccc2)cc1 (optimized conformer: 67.52043303292571 kcal/mol)

>  <smiles>  (37) 
O=C(N=c1cc[nH]cc1)c1ccc(N(Cc2ccccc2)S(=O)(=O)Cc2ccccc2)cc1

>  <score_type>  (37) 
oracle

>  <origin>  (37) 
adg

>  <m_score__min__energy>  (37) 
-11.630000000000001

>  <m_primary>  (37) 
energy

$$$$
37:0
     RDKit          3D

 65 67  0  0  0  0  0  0  0  0999 V2000
   59.5100   29.0400   50.9710 H   0  0  0  0  0  0  0  0  0  0  0  0
   60.2300   29.2930   50.3050 O   0  0  0  0  0  0  0  0  0  0  0  0
   60.1660   30.4740   49.5640 C   0  0  0  0  0  0  0  0  0  0  0  0
   61.1090   30.7170   48.5590 C   0  0  0  0  0  0  0  0  0  0  0  0
   61.8657   29.9529   48.3278 H   0  0  0  0  0  0  0  0  0  0  0  0
   61.1010   31.9280   47.8400 C   0  0  0  0  0  0  0  0  0  0  0  0
   62.0690   32.2210   46.8620 O   0  0  0  0  0  0  0  0  0  0  0  0
   63.2980   32.9110   47.0900 C   0  0  0  0  0  0  0  0  0  0  0  0
   63.2734   33.8768   46.5640 H   0  0  0  0  0  0  0  0  0  0  0  0
   64.1266   32.2935   46.7131 H   0  0  0  0  0  0  0  0  0  0  0  0
   63.5040   33.1540   48.5610 C   0  0  0  0  0  0  0  0  0  0  0  0
   62.8680   34.2270   49.2050 C   0  0  0  0  0  0  0  0  0  0  0  0
   62.2087   34.8963   48.6329 H   0  0  0  0  0  0  0  0  0  0  0  0
   63.0690   34.4480   50.5690 C   0  0  0  0  0  0  0  0  0  0  0  0
   62.5588   35.2834   51.0707 H   0  0  0  0  0  0  0  0  0  0  0  0
   63.9170   33.6100   51.2980 C   0  0  0  0  0  0  0  0  0  0  0  0
   64.0717   33.7901   52.3721 H   0  0  0  0  0  0  0  0  0  0  0  0
   64.5710   32.5430   50.6710 C   0  0  0  0  0  0  0  0  0  0  0  0
   65.4220   31.7370   51.4440 O   0  0  0  0  0  0  0  0  0  0  0  0
   66.7520   31.3830   51.0720 C   0  0  0  0  0  0  0  0  0  0  0  0
   67.3556   31.2224   51.9775 H   0  0  0  0  0  0  0  0  0  0  0  0
   66.7323   30.4588   50.4757 H   0  0  0  0  0  0  0  0  0  0  0  0
   67.1943   32.1947   50.4757 H   0  0  0  0  0  0  0  0  0  0  0  0
   64.3620   32.3200   49.2970 C   0  0  0  0  0  0  0  0  0  0  0  0
   64.8747   31.4859   48.7955 H   0  0  0  0  0  0  0  0  0  0  0  0
   60.1080   32.8880   48.1200 C   0  0  0  0  0  0  0  0  0  0  0  0
   60.1060   34.2240   47.4120 C   0  0  0  0  0  0  0  0  0  0  0  0
   60.4260   35.0029   48.1197 H   0  0  0  0  0  0  0  0  0  0  0  0
   60.7958   34.1601   46.5575 H   0  0  0  0  0  0  0  0  0  0  0  0
   58.7120   34.5810   46.8760 C   0  0  0  0  0  0  0  0  0  0  0  0
   57.9813   34.4917   47.6934 H   0  0  0  0  0  0  0  0  0  0  0  0
   58.7446   35.6105   46.4898 H   0  0  0  0  0  0  0  0  0  0  0  0
   58.3010   33.6670   45.7500 C   0  0  0  0  0  0  0  0  0  0  0  0
   58.6740   33.9600   44.4310 C   0  0  0  0  0  0  0  0  0  0  0  0
   59.2215   34.8880   44.2096 H   0  0  0  0  0  0  0  0  0  0  0  0
   58.3530   33.0780   43.3970 C   0  0  0  0  0  0  0  0  0  0  0  0
   58.6331   33.3221   42.3616 H   0  0  0  0  0  0  0  0  0  0  0  0
   57.6770   31.8860   43.6730 C   0  0  0  0  0  0  0  0  0  0  0  0
   57.3790   31.0110   42.6350 O   0  0  0  0  0  0  0  0  0  0  0  0
   57.3100   31.5690   44.9880 C   0  0  0  0  0  0  0  0  0  0  0  0
   56.6630   30.3460   45.2270 O   0  0  0  0  0  0  0  0  0  0  0  0
   57.1400   29.0820   44.7780 C   0  0  0  0  0  0  0  0  0  0  0  0
   57.3783   28.4504   45.6465 H   0  0  0  0  0  0  0  0  0  0  0  0
   56.3648   28.5924   44.1703 H   0  0  0  0  0  0  0  0  0  0  0  0
   58.0454   29.2266   44.1703 H   0  0  0  0  0  0  0  0  0  0  0  0
   57.6120   32.4730   46.0240 C   0  0  0  0  0  0  0  0  0  0  0  0
   57.3065   32.2432   47.0555 H   0  0  0  0  0  0  0  0  0  0  0  0
   59.1590   32.6340   49.1220 C   0  0  0  0  0  0  0  0  0  0  0  0
   58.3901   33.3885   49.3445 H   0  0  0  0  0  0  0  0  0  0  0  0
   59.1770   31.4330   49.8430 C   0  0  0  0  0  0  0  0  0  0  0  0
   58.2030   31.2300   50.9380 C   0  0  0  0  0  0  0  0  0  0  0  0
   57.7420   30.0730   51.1300 O   0  0  0  0  0  0  0  0  0  0  0  0
   57.7210   32.3330   51.7950 C   0  0  0  0  0  0  0  0  0  0  0  0
   56.7359   32.2379   52.2750 H   0  0  0  0  0  0  0  0  0  0  0  0
   58.4380   33.4450   52.0100 C   0  0  0  0  0  0  0  0  0  0  0  0
   58.2002   34.3451   51.4240 H   0  0  0  0  0  0  0  0  0  0  0  0
   59.5080   33.5140   52.9760 N   0  0  0  0  0  0  0  0  0  0  0  0
   59.3940   34.3030   54.2120 C   0  0  0  0  0  0  0  0  0  0  0  0
   59.4902   33.6371   55.0823 H   0  0  0  0  0  0  0  0  0  0  0  0
   60.1922   35.0594   54.2391 H   0  0  0  0  0  0  0  0  0  0  0  0
   58.4144   34.8026   54.2391 H   0  0  0  0  0  0  0  0  0  0  0  0
   60.7490   32.7990   52.6680 C   0  0  0  0  0  0  0  0  0  0  0  0
   61.2485   32.5112   53.6048 H   0  0  0  0  0  0  0  0  0  0  0  0
   60.5168   31.8962   52.0840 H   0  0  0  0  0  0  0  0  0  0  0  0
   61.4135   33.4527   52.0840 H   0  0  0  0  0  0  0  0  0  0  0  0
  1  2  1  0
  2  3  1  0
  3  4  2  0
  4  5  1  0
  4  6  1  0
  6  7  1  0
  7  8  1  0
  8  9  1  0
  8 10  1  0
  8 11  1  0
 11 12  2  0
 12 13  1  0
 12 14  1  0
 14 15  1  0
 14 16  2  0
 16 17  1  0
 16 18  1  0
 18 19  1  0
 19 20  1  0
 20 21  1  0
 20 22  1  0
 20 23  1  0
 18 24  2  0
 24 25  1  0
  6 26  2  0
 26 27  1  0
 27 28  1  0
 27 29  1  0
 27 30  1  0
 30 31  1  0
 30 32  1  0
 30 33  1  0
 33 34  2  0
 34 35  1  0
 34 36  1  0
 36 37  1  0
 36 38  2  0
 38 39  1  0
 38 40  1  0
 40 41  1  0
 41 42  1  0
 42 43  1  0
 42 44  1  0
 42 45  1  0
 40 46  2  0
 46 47  1  0
 26 48  1  0
 48 49  1  0
 48 50  2  0
 50 51  1  0
 51 52  2  0
 51 53  1  0
 53 54  1  0
 53 55  2  0
 55 56  1  0
 55 57  1  0
 57 58  1  0
 58 59  1  0
 58 60  1  0
 58 61  1  0
 57 62  1  0
 62 63  1  0
 62 64  1  0
 62 65  1  0
 50  3  1  0
 24 11  1  0
 46 33  1  0
M  CHG  1  39  -1
M  END
>  <UniqueID>  (38) 
35

>  <SMILES>  (38) 
COc1cccc(COc2cc(O)c(C(=O)/C=C/N(C)C)cc2CCc2ccc([O-])c(OC)c2)c1

>  <Energy>  (38) 
63.21854205911523

>  <Genealogy>  (38) 
COc1cccc(COc2cc(O)c(C(=O)C=CN(C)C)cc2CCc2ccc([O-])c(OC)c2)c1 (protonated)
COc1cccc(COc2cc(O)c(C(=O)/C=C/N(C)C)cc2CCc2ccc([O-])c(OC)c2)c1 (cis-trans isomerization)
COc1cccc(COc2cc(O)c(C(=O)/C=C/N(C)C)cc2CCc2ccc([O-])c(OC)c2)c1 (3D coordinates assigned)
COc1cccc(COc2cc(O)c(C(=O)/C=C/N(C)C)cc2CCc2ccc([O-])c(OC)c2)c1 (optimized conformer: 63.21854205911523 kcal/mol)

>  <smiles>  (38) 
COc1cccc(COc2cc(O)c(C(=O)C=CN(C)C)cc2CCc2ccc(O)c(OC)c2)c1

>  <score_type>  (38) 
oracle

>  <origin>  (38) 
adg

>  <m_score__min__energy>  (38) 
-11.140000000000001

>  <m_primary>  (38) 
energy

$$$$
38:0
     RDKit          3D

 39 41  0  0  0  0  0  0  0  0999 V2000
   54.4360   24.0970   44.5500 C   0  0  0  0  0  0  0  0  0  0  0  0
   55.5700   24.5080   45.3710 N   0  0  0  0  0  0  0  0  0  0  0  0
   55.7510   25.6870   45.9850 C   0  0  0  0  0  0  0  0  0  0  0  0
   54.8180   26.7160   46.0130 O   0  0  0  0  0  0  0  0  0  0  0  0
   56.9990   25.7000   46.5700 C   0  0  0  0  0  0  0  0  0  0  0  0
   57.5750   26.7920   47.4160 C   0  0  0  0  0  0  0  0  0  0  0  0
   58.5160   27.6340   46.5990 C   0  0  0  0  0  0  0  0  0  0  0  0
   59.6510   27.0600   46.0090 C   0  0  0  0  0  0  0  0  0  0  0  0
   60.5080   27.8390   45.2290 C   0  0  0  0  0  0  0  0  0  0  0  0
   60.2310   29.1920   45.0170 C   0  0  0  0  0  0  0  0  0  0  0  0
   59.0780   29.7750   45.5720 C   0  0  0  0  0  0  0  0  0  0  0  0
   58.7740   31.1660   45.3800 N   0  0  0  0  0  0  0  0  0  0  0  0
   57.5590   31.6500   44.7860 C   0  0  0  0  0  0  0  0  0  0  0  0
   56.5930   30.8690   44.5710 O   0  0  0  0  0  0  0  0  0  0  0  0
   57.3950   33.1110   44.5050 C   0  0  0  0  0  0  0  0  0  0  0  0
   58.2240   33.9110   45.4590 C   0  0  0  0  0  0  0  0  0  0  0  0
   59.2340   34.7990   45.1130 C   0  0  0  0  0  0  0  0  0  0  0  0
   59.8890   35.3460   46.2230 C   0  0  0  0  0  0  0  0  0  0  0  0
   59.4050   34.8820   47.4400 C   0  0  0  0  0  0  0  0  0  0  0  0
   58.1650   33.7880   47.1350 S   0  0  0  0  0  0  0  0  0  0  0  0
   58.2340   28.9920   46.3750 C   0  0  0  0  0  0  0  0  0  0  0  0
   57.6190   24.5240   46.3290 N   0  0  0  0  0  0  0  0  0  0  0  0
   56.7220   23.8380   45.5850 C   0  0  0  0  0  0  0  0  0  0  0  0
   56.9490   22.6840   45.1350 O   0  0  0  0  0  0  0  0  0  0  0  0
   53.6024   23.7949   45.2010 H   0  0  0  0  0  0  0  0  0  0  0  0
   54.1193   24.9375   43.9150 H   0  0  0  0  0  0  0  0  0  0  0  0
   54.7314   23.2487   43.9150 H   0  0  0  0  0  0  0  0  0  0  0  0
   56.7603   27.4239   47.7994 H   0  0  0  0  0  0  0  0  0  0  0  0
   58.1272   26.3449   48.2557 H   0  0  0  0  0  0  0  0  0  0  0  0
   59.8671   25.9922   46.1611 H   0  0  0  0  0  0  0  0  0  0  0  0
   61.4042   27.3860   44.7799 H   0  0  0  0  0  0  0  0  0  0  0  0
   60.9177   29.8036   44.4134 H   0  0  0  0  0  0  0  0  0  0  0  0
   59.4310   31.8720   45.7840 H   0  0  0  0  0  0  0  0  0  0  0  0
   57.7185   33.3226   43.4752 H   0  0  0  0  0  0  0  0  0  0  0  0
   56.3370   33.3860   44.6273 H   0  0  0  0  0  0  0  0  0  0  0  0
   59.4930   35.0473   44.0732 H   0  0  0  0  0  0  0  0  0  0  0  0
   60.7092   36.0742   46.1395 H   0  0  0  0  0  0  0  0  0  0  0  0
   59.7707   35.1797   48.4338 H   0  0  0  0  0  0  0  0  0  0  0  0
   57.3431   29.4461   46.8334 H   0  0  0  0  0  0  0  0  0  0  0  0
  1  2  1  0
  2  3  1  0
  3  4  1  0
  3  5  2  0
  5  6  1  0
  6  7  1  0
  7  8  2  0
  8  9  1  0
  9 10  2  0
 10 11  1  0
 11 12  1  0
 12 13  1  0
 13 14  2  0
 13 15  1  0
 15 16  1  0
 16 17  2  0
 17 18  1  0
 18 19  2  0
 19 20  1  0
 11 21  2  0
  5 22  1  0
 22 23  1  0
 23 24  2  0
 23  2  1  0
 21  7  1  0
 20 16  1  0
  1 25  1  0
  1 26  1  0
  1 27  1  0
  6 28  1  0
  6 29  1  0
  8 30  1  0
  9 31  1  0
 10 32  1  0
 12 33  1  0
 15 34  1  0
 15 35  1  0
 17 36  1  0
 18 37  1  0
 19 38  1  0
 21 39  1  0
M  CHG  2   4  -1  22  -1
M  END
>  <UniqueID>  (39) 
36

>  <SMILES>  (39) 
Cn1c([O-])c(Cc2cccc(NC(=O)Cc3cccs3)c2)[n-]c1=O

>  <Energy>  (39) 
97.18046278536052

>  <Genealogy>  (39) 
Cn1c([O-])c(Cc2cccc(NC(=O)Cc3cccs3)c2)[n-]c1=O (protonated)
Cn1c([O-])c(Cc2cccc(NC(=O)Cc3cccs3)c2)[n-]c1=O (3D coordinates assigned)
Cn1c([O-])c(Cc2cccc(NC(=O)Cc3cccs3)c2)[n-]c1=O (optimized conformer: 97.18046278536052 kcal/mol)

>  <smiles>  (39) 
Cn1c(O)c(Cc2cccc(NC(=O)Cc3cccs3)c2)[nH]c1=O

>  <score_type>  (39) 
oracle

>  <origin>  (39) 
adg

>  <m_score__min__energy>  (39) 
-14.69

>  <m_primary>  (39) 
energy

$$$$
39:0
     RDKit          3D

 50 52  0  0  0  0  0  0  0  0999 V2000
   61.8800   29.9790   50.5100 C   0  0  0  0  0  0  0  0  0  0  0  0
   60.5270   29.6880   50.1780 O   0  0  0  0  0  0  0  0  0  0  0  0
   60.0910   29.2250   48.9260 C   0  0  0  0  0  0  0  0  0  0  0  0
   59.9310   27.8490   48.6680 C   0  0  0  0  0  0  0  0  0  0  0  0
   59.4430   27.4110   47.4350 C   0  0  0  0  0  0  0  0  0  0  0  0
   59.0990   28.3350   46.4450 C   0  0  0  0  0  0  0  0  0  0  0  0
   58.4630   27.7890   44.8960 S   0  0  0  0  0  0  0  0  0  0  0  0
   59.4200   28.1850   43.8080 O   0  0  0  0  0  0  0  0  0  0  0  0
   58.3000   26.2950   44.8900 O   0  0  0  0  0  0  0  0  0  0  0  0
   56.9230   28.5210   44.5980 N   0  0  0  0  0  0  0  0  0  0  0  0
   56.7770   29.9150   44.3250 C   0  0  0  0  0  0  0  0  0  0  0  0
   55.7330   30.5260   44.6840 O   0  0  0  0  0  0  0  0  0  0  0  0
   57.8260   30.6140   43.6440 N   0  0  0  0  0  0  0  0  0  0  0  0
   57.7500   32.0390   43.3320 C   0  0  0  0  0  0  0  0  0  0  0  0
   58.1110   32.8600   44.5410 C   0  0  0  0  0  0  0  0  0  0  0  0
   59.1090   33.8450   44.4490 C   0  0  0  0  0  0  0  0  0  0  0  0
   59.4350   34.6230   45.5630 C   0  0  0  0  0  0  0  0  0  0  0  0
   58.7640   34.4290   46.7740 C   0  0  0  0  0  0  0  0  0  0  0  0
   57.7650   33.4560   46.8710 C   0  0  0  0  0  0  0  0  0  0  0  0
   57.4370   32.6740   45.7600 C   0  0  0  0  0  0  0  0  0  0  0  0
   59.2700   29.7020   46.6870 C   0  0  0  0  0  0  0  0  0  0  0  0
   59.7820   30.1570   47.9070 C   0  0  0  0  0  0  0  0  0  0  0  0
   59.9460   31.5440   48.0710 O   0  0  0  0  0  0  0  0  0  0  0  0
   61.1730   32.2190   48.0790 C   0  0  0  0  0  0  0  0  0  0  0  0
   62.1760   31.7740   47.2080 C   0  0  0  0  0  0  0  0  0  0  0  0
   63.3900   32.4560   47.1170 C   0  0  0  0  0  0  0  0  0  0  0  0
   63.6190   33.5840   47.9070 C   0  0  0  0  0  0  0  0  0  0  0  0
   62.6430   34.0170   48.8090 C   0  0  0  0  0  0  0  0  0  0  0  0
   61.4230   33.3270   48.9280 C   0  0  0  0  0  0  0  0  0  0  0  0
   60.4730   33.7300   49.9280 N   0  0  0  0  0  0  0  0  0  0  0  0
   60.4700   33.1810   51.0500 O   0  0  0  0  0  0  0  0  0  0  0  0
   59.4500   34.5900   49.6050 O   0  0  0  0  0  0  0  0  0  0  0  0
   61.9921   30.0031   51.6040 H   0  0  0  0  0  0  0  0  0  0  0  0
   62.5357   29.2013   50.0913 H   0  0  0  0  0  0  0  0  0  0  0  0
   62.1580   30.9575   50.0913 H   0  0  0  0  0  0  0  0  0  0  0  0
   60.1925   27.1142   49.4437 H   0  0  0  0  0  0  0  0  0  0  0  0
   59.3290   26.3340   47.2424 H   0  0  0  0  0  0  0  0  0  0  0  0
   58.6890   30.0870   43.3790 H   0  0  0  0  0  0  0  0  0  0  0  0
   58.4499   32.2692   42.5152 H   0  0  0  0  0  0  0  0  0  0  0  0
   56.7215   32.2838   43.0282 H   0  0  0  0  0  0  0  0  0  0  0  0
   59.6356   34.0042   43.4964 H   0  0  0  0  0  0  0  0  0  0  0  0
   60.2207   35.3891   45.4870 H   0  0  0  0  0  0  0  0  0  0  0  0
   59.0221   35.0418   47.6503 H   0  0  0  0  0  0  0  0  0  0  0  0
   57.2360   33.3055   47.8236 H   0  0  0  0  0  0  0  0  0  0  0  0
   56.6490   31.9107   45.8400 H   0  0  0  0  0  0  0  0  0  0  0  0
   58.9983   30.4291   45.9076 H   0  0  0  0  0  0  0  0  0  0  0  0
   62.0051   30.8797   46.5908 H   0  0  0  0  0  0  0  0  0  0  0  0
   64.1671   32.1046   46.4223 H   0  0  0  0  0  0  0  0  0  0  0  0
   64.5684   34.1326   47.8195 H   0  0  0  0  0  0  0  0  0  0  0  0
   62.8305   34.9047   49.4310 H   0  0  0  0  0  0  0  0  0  0  0  0
  1  2  1  0
  2  3  1  0
  3  4  2  0
  4  5  1  0
  5  6  2  0
  6  7  1  0
  7  8  2  0
  7  9  2  0
  7 10  1  0
 10 11  1  0
 11 12  2  0
 11 13  1  0
 13 14  1  0
 14 15  1  0
 15 16  2  0
 16 17  1  0
 17 18  2  0
 18 19  1  0
 19 20  2  0
  6 21  1  0
 21 22  2  0
 22 23  1  0
 23 24  1  0
 24 25  2  0
 25 26  1  0
 26 27  2  0
 27 28  1  0
 28 29  2  0
 29 30  1  0
 30 31  2  0
 30 32  1  0
 22  3  1  0
 29 24  1  0
 20 15  1  0
  1 33  1  0
  1 34  1  0
  1 35  1  0
  4 36  1  0
  5 37  1  0
 13 38  1  0
 14 39  1  0
 14 40  1  0
 16 41  1  0
 17 42  1  0
 18 43  1  0
 19 44  1  0
 20 45  1  0
 21 46  1  0
 25 47  1  0
 26 48  1  0
 27 49  1  0
 28 50  1  0
M  CHG  3  10  -1  30   1  32  -1
M  END
>  <UniqueID>  (40) 
37

>  <SMILES>  (40) 
COc1ccc(S(=O)(=O)[N-]C(=O)NCc2ccccc2)cc1Oc1ccccc1[N+](=O)[O-]

>  <Energy>  (40) 
63.5992445076595

>  <Genealogy>  (40) 
COc1ccc(S(=O)(=O)[N-]C(=O)NCc2ccccc2)cc1Oc1ccccc1[N+](=O)[O-] (protonated)
COc1ccc(S(=O)(=O)[N-]C(=O)NCc2ccccc2)cc1Oc1ccccc1[N+](=O)[O-] (3D coordinates assigned)
COc1ccc(S(=O)(=O)[N-]C(=O)NCc2ccccc2)cc1Oc1ccccc1[N+](=O)[O-] (optimized conformer: 63.5992445076595 kcal/mol)

>  <smiles>  (40) 
COc1ccc(S(=O)(=O)NC(=O)NCc2ccccc2)cc1Oc1ccccc1[N+](=O)[O-]

>  <score_type>  (40) 
oracle

>  <origin>  (40) 
adg

>  <m_score__min__energy>  (40) 
-11.08

>  <m_primary>  (40) 
energy

$$$$
40:0
     RDKit          3D

 44 46  0  0  0  0  0  0  0  0999 V2000
   58.9080   34.7720   45.2460 C   0  0  0  0  0  0  0  0  0  0  0  0
   58.4910   33.3450   45.0440 C   0  0  0  0  0  0  0  0  0  0  0  0
   57.9430   32.9400   43.8230 C   0  0  0  0  0  0  0  0  0  0  0  0
   57.5940   31.6000   43.5990 C   0  0  0  0  0  0  0  0  0  0  0  0
   57.0300   31.2270   42.2500 C   0  0  0  0  0  0  0  0  0  0  0  0
   57.7630   30.6490   44.6380 C   0  0  0  0  0  0  0  0  0  0  0  0
   57.3460   29.2370   44.4460 C   0  0  0  0  0  0  0  0  0  0  0  0
   57.6690   28.6400   43.3850 O   0  0  0  0  0  0  0  0  0  0  0  0
   56.5360   28.5460   45.4070 N   0  0  0  0  0  0  0  0  0  0  0  0
   56.8140   27.2650   45.9900 C   0  0  0  0  0  0  0  0  0  0  0  0
   58.0600   26.9690   46.5690 C   0  0  0  0  0  0  0  0  0  0  0  0
   58.2950   25.7090   47.1240 C   0  0  0  0  0  0  0  0  0  0  0  0
   57.2950   24.7340   47.1010 C   0  0  0  0  0  0  0  0  0  0  0  0
   56.0460   25.0180   46.5240 C   0  0  0  0  0  0  0  0  0  0  0  0
   55.0080   24.0300   46.4580 N   0  0  0  0  0  0  0  0  0  0  0  0
   54.6770   23.2360   45.3120 C   0  0  0  0  0  0  0  0  0  0  0  0
   53.4630   23.0150   45.0570 O   0  0  0  0  0  0  0  0  0  0  0  0
   55.7180   22.6150   44.4750 C   0  0  0  0  0  0  0  0  0  0  0  0
   57.0080   22.3220   44.8730 C   0  0  0  0  0  0  0  0  0  0  0  0
   57.6220   21.7680   43.7720 C   0  0  0  0  0  0  0  0  0  0  0  0
   56.6730   21.7590   42.7680 C   0  0  0  0  0  0  0  0  0  0  0  0
   55.5510   22.2720   43.2170 O   0  0  0  0  0  0  0  0  0  0  0  0
   55.8270   26.2730   45.9400 C   0  0  0  0  0  0  0  0  0  0  0  0
   58.3420   31.0560   45.8670 C   0  0  0  0  0  0  0  0  0  0  0  0
   58.5710   30.0800   46.9930 C   0  0  0  0  0  0  0  0  0  0  0  0
   58.7150   32.3970   46.0480 C   0  0  0  0  0  0  0  0  0  0  0  0
   58.9707   34.9867   46.3230 H   0  0  0  0  0  0  0  0  0  0  0  0
   59.8916   34.9358   44.7815 H   0  0  0  0  0  0  0  0  0  0  0  0
   58.1674   35.4397   44.7815 H   0  0  0  0  0  0  0  0  0  0  0  0
   57.7834   33.6824   43.0272 H   0  0  0  0  0  0  0  0  0  0  0  0
   56.1196   30.6249   42.3869 H   0  0  0  0  0  0  0  0  0  0  0  0
   56.7842   32.1412   41.6898 H   0  0  0  0  0  0  0  0  0  0  0  0
   57.7750   30.6429   41.6898 H   0  0  0  0  0  0  0  0  0  0  0  0
   58.8524   27.7318   46.5851 H   0  0  0  0  0  0  0  0  0  0  0  0
   59.2702   25.4839   47.5804 H   0  0  0  0  0  0  0  0  0  0  0  0
   57.4859   23.7417   47.5356 H   0  0  0  0  0  0  0  0  0  0  0  0
   57.4526   22.4953   45.8641 H   0  0  0  0  0  0  0  0  0  0  0  0
   58.6585   21.4058   43.7053 H   0  0  0  0  0  0  0  0  0  0  0  0
   56.8331   21.3798   41.7479 H   0  0  0  0  0  0  0  0  0  0  0  0
   54.8707   26.4807   45.4376 H   0  0  0  0  0  0  0  0  0  0  0  0
   58.4498   30.5967   47.9565 H   0  0  0  0  0  0  0  0  0  0  0  0
   57.8408   29.2604   46.9220 H   0  0  0  0  0  0  0  0  0  0  0  0
   59.5896   29.6707   46.9220 H   0  0  0  0  0  0  0  0  0  0  0  0
   59.1893   32.7063   46.9910 H   0  0  0  0  0  0  0  0  0  0  0  0
  1  2  1  0
  2  3  2  0
  3  4  1  0
  4  5  1  0
  4  6  2  0
  6  7  1  0
  7  8  2  0
  7  9  1  0
  9 10  1  0
 10 11  2  0
 11 12  1  0
 12 13  2  0
 13 14  1  0
 14 15  1  0
 15 16  1  0
 16 17  2  0
 16 18  1  0
 18 19  2  0
 19 20  1  0
 20 21  2  0
 21 22  1  0
 14 23  2  0
  6 24  1  0
 24 25  1  0
 24 26  2  0
 26  2  1  0
 23 10  1  0
 22 18  1  0
  1 27  1  0
  1 28  1  0
  1 29  1  0
  3 30  1  0
  5 31  1  0
  5 32  1  0
  5 33  1  0
 11 34  1  0
 12 35  1  0
 13 36  1  0
 19 37  1  0
 20 38  1  0
 21 39  1  0
 23 40  1  0
 25 41  1  0
 25 42  1  0
 25 43  1  0
 26 44  1  0
M  CHG  2   9  -1  15  -1
M  END
>  <UniqueID>  (41) 
38

>  <SMILES>  (41) 
Cc1cc(C)c(C(=O)[N-]c2cccc([N-]C(=O)c3ccco3)c2)c(C)c1

>  <Energy>  (41) 
85.98895239734703

>  <Genealogy>  (41) 
Cc1cc(C)c(C(=O)[N-]c2cccc([N-]C(=O)c3ccco3)c2)c(C)c1 (protonated)
Cc1cc(C)c(C(=O)[N-]c2cccc([N-]C(=O)c3ccco3)c2)c(C)c1 (3D coordinates assigned)
Cc1cc(C)c(C(=O)[N-]c2cccc([N-]C(=O)c3ccco3)c2)c(C)c1 (optimized conformer: 85.98895239734703 kcal/mol)

>  <smiles>  (41) 
Cc1cc(C)c(C(=O)Nc2cccc(NC(=O)c3ccco3)c2)c(C)c1

>  <score_type>  (41) 
oracle

>  <origin>  (41) 
adg

>  <m_score__min__energy>  (41) 
-12.029999999999999

>  <m_primary>  (41) 
energy

$$$$
41:0
     RDKit          3D

 60 62  0  0  0  0  0  0  0  0999 V2000
   62.2460   33.8210   46.5080 C   0  0  0  0  0  0  0  0  0  0  0  0
   61.9850   32.4980   47.0580 N   0  0  0  0  0  0  0  0  0  0  0  0
   60.6570   32.0560   47.3680 C   0  0  0  0  0  0  0  0  0  0  0  0
   59.6660   32.7770   47.0700 O   0  0  0  0  0  0  0  0  0  0  0  0
   60.4330   30.7280   47.9760 C   0  0  0  0  0  0  0  0  0  0  0  0
   60.6210   30.6120   49.3620 C   0  0  0  0  0  0  0  0  0  0  0  0
   60.3650   29.4110   50.0160 C   0  0  0  0  0  0  0  0  0  0  0  0
   59.9080   28.3090   49.3000 C   0  0  0  0  0  0  0  0  0  0  0  0
   59.7190   28.3880   47.9140 C   0  0  0  0  0  0  0  0  0  0  0  0
   59.2400   27.1780   47.2130 C   0  0  0  0  0  0  0  0  0  0  0  0
   57.8640   26.9210   47.1190 C   0  0  0  0  0  0  0  0  0  0  0  0
   57.4060   25.7560   46.4980 C   0  0  0  0  0  0  0  0  0  0  0  0
   58.3200   24.8390   45.9430 C   0  0  0  0  0  0  0  0  0  0  0  0
   57.9190   23.6470   45.3170 O   0  0  0  0  0  0  0  0  0  0  0  0
   58.7890   22.5860   44.9230 C   0  0  0  0  0  0  0  0  0  0  0  0
   58.0080   21.2780   44.7640 C   0  0  0  0  0  0  0  0  0  0  0  0
   57.2520   21.2420   43.4300 C   0  0  0  0  0  0  0  0  0  0  0  0
   55.9170   21.8630   43.5690 N   0  0  0  0  0  0  0  0  0  0  0  0
   55.9190   23.2430   43.0510 C   0  0  0  0  0  0  0  0  0  0  0  0
   55.5050   21.8740   44.9820 C   0  0  0  0  0  0  0  0  0  0  0  0
   59.6910   25.1150   46.0180 C   0  0  0  0  0  0  0  0  0  0  0  0
   60.1510   26.2760   46.6460 C   0  0  0  0  0  0  0  0  0  0  0  0
   60.0180   29.5950   47.2210 C   0  0  0  0  0  0  0  0  0  0  0  0
   59.9810   29.6350   45.6950 C   0  0  0  0  0  0  0  0  0  0  0  0
   58.6530   30.1290   45.1770 C   0  0  0  0  0  0  0  0  0  0  0  0
   58.5490   31.3990   44.5850 C   0  0  0  0  0  0  0  0  0  0  0  0
   57.3230   31.8450   44.0820 C   0  0  0  0  0  0  0  0  0  0  0  0
   56.1900   31.0330   44.1740 C   0  0  0  0  0  0  0  0  0  0  0  0
   56.2790   29.7760   44.7810 C   0  0  0  0  0  0  0  0  0  0  0  0
   55.1520   28.9690   44.8720 O   0  0  0  0  0  0  0  0  0  0  0  0
   57.5020   29.3290   45.2900 C   0  0  0  0  0  0  0  0  0  0  0  0
   62.3875   34.5383   47.3298 H   0  0  0  0  0  0  0  0  0  0  0  0
   63.1550   33.7881   45.8894 H   0  0  0  0  0  0  0  0  0  0  0  0
   61.3926   34.1358   45.8894 H   0  0  0  0  0  0  0  0  0  0  0  0
   62.7920   31.8550   47.2270 H   0  0  0  0  0  0  0  0  0  0  0  0
   60.9746   31.4802   49.9375 H   0  0  0  0  0  0  0  0  0  0  0  0
   60.5243   29.3325   51.1016 H   0  0  0  0  0  0  0  0  0  0  0  0
   59.6932   27.3675   49.8267 H   0  0  0  0  0  0  0  0  0  0  0  0
   57.1428   27.6394   47.5358 H   0  0  0  0  0  0  0  0  0  0  0  0
   56.3262   25.5539   46.4423 H   0  0  0  0  0  0  0  0  0  0  0  0
   59.2616   22.8436   43.9637 H   0  0  0  0  0  0  0  0  0  0  0  0
   59.5551   22.4489   45.7004 H   0  0  0  0  0  0  0  0  0  0  0  0
   58.7116   20.4333   44.8006 H   0  0  0  0  0  0  0  0  0  0  0  0
   57.2754   21.2082   45.5815 H   0  0  0  0  0  0  0  0  0  0  0  0
   57.8294   21.7927   42.6727 H   0  0  0  0  0  0  0  0  0  0  0  0
   57.1241   20.1932   43.1241 H   0  0  0  0  0  0  0  0  0  0  0  0
   55.9200   23.9507   43.8931 H   0  0  0  0  0  0  0  0  0  0  0  0
   56.8174   23.4028   42.4367 H   0  0  0  0  0  0  0  0  0  0  0  0
   55.0211   23.4054   42.4367 H   0  0  0  0  0  0  0  0  0  0  0  0
   56.3976   21.8502   45.6244 H   0  0  0  0  0  0  0  0  0  0  0  0
   54.9287   22.7879   45.1888 H   0  0  0  0  0  0  0  0  0  0  0  0
   54.8808   20.9922   45.1888 H   0  0  0  0  0  0  0  0  0  0  0  0
   60.4130   24.4111   45.5783 H   0  0  0  0  0  0  0  0  0  0  0  0
   61.2304   26.4823   46.6954 H   0  0  0  0  0  0  0  0  0  0  0  0
   60.7746   30.3077   45.3376 H   0  0  0  0  0  0  0  0  0  0  0  0
   60.1320   28.6107   45.3235 H   0  0  0  0  0  0  0  0  0  0  0  0
   59.4364   32.0455   44.5169 H   0  0  0  0  0  0  0  0  0  0  0  0
   57.2505   32.8373   43.6129 H   0  0  0  0  0  0  0  0  0  0  0  0
   55.2285   31.3819   43.7693 H   0  0  0  0  0  0  0  0  0  0  0  0
   57.5642   28.3468   45.7813 H   0  0  0  0  0  0  0  0  0  0  0  0
  1  2  1  0
  2  3  1  0
  3  4  2  0
  3  5  1  0
  5  6  2  0
  6  7  1  0
  7  8  2  0
  8  9  1  0
  9 10  1  0
 10 11  2  0
 11 12  1  0
 12 13  2  0
 13 14  1  0
 14 15  1  0
 15 16  1  0
 16 17  1  0
 17 18  1  0
 18 19  1  0
 18 20  1  0
 13 21  1  0
 21 22  2  0
  9 23  2  0
 23 24  1  0
 24 25  1  0
 25 26  2  0
 26 27  1  0
 27 28  2  0
 28 29  1  0
 29 30  1  0
 29 31  2  0
 23  5  1  0
 31 25  1  0
 22 10  1  0
  1 32  1  0
  1 33  1  0
  1 34  1  0
  2 35  1  0
  6 36  1  0
  7 37  1  0
  8 38  1  0
 11 39  1  0
 12 40  1  0
 15 41  1  0
 15 42  1  0
 16 43  1  0
 16 44  1  0
 17 45  1  0
 17 46  1  0
 19 47  1  0
 19 48  1  0
 19 49  1  0
 20 50  1  0
 20 51  1  0
 20 52  1  0
 21 53  1  0
 22 54  1  0
 24 55  1  0
 24 56  1  0
 26 57  1  0
 27 58  1  0
 28 59  1  0
 31 60  1  0
M  CHG  1  30  -1
M  END
>  <UniqueID>  (42) 
39

>  <SMILES>  (42) 
CNC(=O)c1cccc(-c2ccc(OCCCN(C)C)cc2)c1Cc1cccc([O-])c1

>  <Energy>  (42) 
69.49756554003828

>  <Genealogy>  (42) 
CNC(=O)c1cccc(-c2ccc(OCCCN(C)C)cc2)c1Cc1cccc([O-])c1 (protonated)
CNC(=O)c1cccc(-c2ccc(OCCCN(C)C)cc2)c1Cc1cccc([O-])c1 (3D coordinates assigned)
CNC(=O)c1cccc(-c2ccc(OCCCN(C)C)cc2)c1Cc1cccc([O-])c1 (optimized conformer: 69.49756554003828 kcal/mol)

>  <smiles>  (42) 
CNC(=O)c1cccc(-c2ccc(OCCCN(C)C)cc2)c1Cc1cccc(O)c1

>  <score_type>  (42) 
oracle

>  <origin>  (42) 
adg

>  <m_score__min__energy>  (42) 
-11.68

>  <m_primary>  (42) 
energy

$$$$
42:0
     RDKit          3D

 37 38  0  0  0  0  0  0  0  0999 V2000
   58.8780   31.7470   47.6410 C   0  0  0  0  0  0  0  0  0  0  0  0
   58.5290   32.1110   46.2170 C   0  0  0  0  0  0  0  0  0  0  0  0
   57.8310   31.1870   45.4050 C   0  0  0  0  0  0  0  0  0  0  0  0
   57.3810   29.9390   45.9530 N   0  0  0  0  0  0  0  0  0  0  0  0
   56.7070   28.9020   45.2230 C   0  0  0  0  0  0  0  0  0  0  0  0
   55.5090   29.0800   44.8820 O   0  0  0  0  0  0  0  0  0  0  0  0
   57.3750   27.5960   44.8990 C   0  0  0  0  0  0  0  0  0  0  0  0
   57.5360   26.8110   46.1210 N   0  0  0  0  0  0  0  0  0  0  0  0
   56.2880   25.6080   46.2240 S   0  0  0  0  0  0  0  0  0  0  0  0
   54.9600   26.2540   45.9510 O   0  0  0  0  0  0  0  0  0  0  0  0
   56.2590   25.0300   47.6120 O   0  0  0  0  0  0  0  0  0  0  0  0
   56.5640   24.3330   45.0410 C   0  0  0  0  0  0  0  0  0  0  0  0
   55.6180   24.0790   44.0360 C   0  0  0  0  0  0  0  0  0  0  0  0
   55.8360   23.0520   43.1110 C   0  0  0  0  0  0  0  0  0  0  0  0
   56.9940   22.2730   43.1890 C   0  0  0  0  0  0  0  0  0  0  0  0
   57.9360   22.5190   44.1930 C   0  0  0  0  0  0  0  0  0  0  0  0
   57.7210   23.5450   45.1190 C   0  0  0  0  0  0  0  0  0  0  0  0
   57.5300   31.5150   44.0740 C   0  0  0  0  0  0  0  0  0  0  0  0
   57.9480   32.7280   43.5340 C   0  0  0  0  0  0  0  0  0  0  0  0
   58.6340   33.6460   44.3250 C   0  0  0  0  0  0  0  0  0  0  0  0
   58.9080   33.3700   45.6740 C   0  0  0  0  0  0  0  0  0  0  0  0
   59.5640   34.3740   46.4680 N   0  0  0  0  0  0  0  0  0  0  0  0
   60.7910   34.5710   46.3570 O   0  0  0  0  0  0  0  0  0  0  0  0
   58.8880   34.9820   47.5020 O   0  0  0  0  0  0  0  0  0  0  0  0
   58.2861   32.3643   48.3328 H   0  0  0  0  0  0  0  0  0  0  0  0
   58.6527   30.6842   47.8135 H   0  0  0  0  0  0  0  0  0  0  0  0
   59.9493   31.9274   47.8135 H   0  0  0  0  0  0  0  0  0  0  0  0
   56.7557   27.0358   44.1830 H   0  0  0  0  0  0  0  0  0  0  0  0
   58.3634   27.7910   44.4574 H   0  0  0  0  0  0  0  0  0  0  0  0
   54.7040   24.6880   43.9754 H   0  0  0  0  0  0  0  0  0  0  0  0
   55.0952   22.8574   42.3215 H   0  0  0  0  0  0  0  0  0  0  0  0
   57.1644   21.4665   42.4607 H   0  0  0  0  0  0  0  0  0  0  0  0
   58.8467   21.9051   44.2545 H   0  0  0  0  0  0  0  0  0  0  0  0
   58.4614   23.7341   45.9103 H   0  0  0  0  0  0  0  0  0  0  0  0
   56.9597   30.8085   43.4531 H   0  0  0  0  0  0  0  0  0  0  0  0
   57.7360   32.9618   42.4803 H   0  0  0  0  0  0  0  0  0  0  0  0
   58.9653   34.5993   43.8875 H   0  0  0  0  0  0  0  0  0  0  0  0
  1  2  1  0
  2  3  2  0
  3  4  1  0
  4  5  1  0
  5  6  2  0
  5  7  1  0
  7  8  1  0
  8  9  1  0
  9 10  2  0
  9 11  2  0
  9 12  1  0
 12 13  2  0
 13 14  1  0
 14 15  2  0
 15 16  1  0
 16 17  2  0
  3 18  1  0
 18 19  2  0
 19 20  1  0
 20 21  2  0
 21 22  1  0
 22 23  2  0
 22 24  1  0
 21  2  1  0
 17 12  1  0
  1 25  1  0
  1 26  1  0
  1 27  1  0
  7 28  1  0
  7 29  1  0
 13 30  1  0
 14 31  1  0
 15 32  1  0
 16 33  1  0
 17 34  1  0
 18 35  1  0
 19 36  1  0
 20 37  1  0
M  CHG  4   4  -1   8  -1  22   1  24  -1
M  END
>  <UniqueID>  (43) 
40

>  <SMILES>  (43) 
Cc1c([N-]C(=O)C[N-]S(=O)(=O)c2ccccc2)cccc1[N+](=O)[O-]

>  <Energy>  (43) 
45.86282054139499

>  <Genealogy>  (43) 
Cc1c([N-]C(=O)C[N-]S(=O)(=O)c2ccccc2)cccc1[N+](=O)[O-] (protonated)
Cc1c([N-]C(=O)C[N-]S(=O)(=O)c2ccccc2)cccc1[N+](=O)[O-] (3D coordinates assigned)
Cc1c([N-]C(=O)C[N-]S(=O)(=O)c2ccccc2)cccc1[N+](=O)[O-] (optimized conformer: 45.86282054139499 kcal/mol)

>  <smiles>  (43) 
Cc1c(NC(=O)CNS(=O)(=O)c2ccccc2)cccc1[N+](=O)[O-]

>  <score_type>  (43) 
oracle

>  <origin>  (43) 
adg

>  <m_score__min__energy>  (43) 
-12.41

>  <m_primary>  (43) 
energy

$$$$
43:0
     RDKit          3D

 24 26  0  0  0  0  0  0  0  0999 V2000
   55.1450   27.5410   45.4630 H   0  0  0  0  0  0  0  0  0  0  0  0
   54.9660   26.6950   45.9880 O   0  0  0  0  0  0  0  0  0  0  0  0
   55.9980   25.8850   46.4530 C   0  0  0  0  0  0  0  0  0  0  0  0
   55.8020   24.6420   46.9230 N   0  0  0  0  0  0  0  0  0  0  0  0
   57.0500   24.2440   47.2510 C   0  0  0  0  0  0  0  0  0  0  0  0
   57.2930   23.1090   47.7380 O   0  0  0  0  0  0  0  0  0  0  0  0
   58.0150   25.1590   47.0190 N   0  0  0  0  0  0  0  0  0  0  0  0
   57.3390   26.2040   46.5090 C   0  0  0  0  0  0  0  0  0  0  0  0
   57.9680   27.4640   46.0920 C   0  0  0  0  0  0  0  0  0  0  0  0
   59.0638   27.5602   46.0961 H   0  0  0  0  0  0  0  0  0  0  0  0
   57.2300   28.4630   45.7190 N   0  0  0  0  0  0  0  0  0  0  0  0
   57.6650   29.8260   45.7530 C   0  0  0  0  0  0  0  0  0  0  0  0
   57.1120   30.8150   45.0070 N   0  0  0  0  0  0  0  0  0  0  0  0
   57.7290   31.9990   45.2500 C   0  0  0  0  0  0  0  0  0  0  0  0
   57.3900   33.2060   44.6370 C   0  0  0  0  0  0  0  0  0  0  0  0
   56.5747   33.2509   43.8999 H   0  0  0  0  0  0  0  0  0  0  0  0
   58.1110   34.3640   44.9800 C   0  0  0  0  0  0  0  0  0  0  0  0
   57.8593   35.3247   44.5070 H   0  0  0  0  0  0  0  0  0  0  0  0
   59.1540   34.3010   45.9260 C   0  0  0  0  0  0  0  0  0  0  0  0
   59.7104   35.2131   46.1877 H   0  0  0  0  0  0  0  0  0  0  0  0
   59.4870   33.0820   46.5360 C   0  0  0  0  0  0  0  0  0  0  0  0
   60.2999   33.0223   47.2746 H   0  0  0  0  0  0  0  0  0  0  0  0
   58.7580   31.9490   46.1790 C   0  0  0  0  0  0  0  0  0  0  0  0
   58.9270   30.3740   46.7360 S   0  0  0  0  0  0  0  0  0  0  0  0
  1  2  1  0
  2  3  1  0
  3  4  1  0
  4  5  1  0
  5  6  2  0
  5  7  1  0
  7  8  1  0
  8  9  1  0
  9 10  1  0
  9 11  2  0
 11 12  1  0
 12 13  2  0
 13 14  1  0
 14 15  2  0
 15 16  1  0
 15 17  1  0
 17 18  1  0
 17 19  2  0
 19 20  1  0
 19 21  1  0
 21 22  1  0
 21 23  2  0
 23 24  1  0
  8  3  2  0
 24 12  1  0
 23 14  1  0
M  CHG  2   4  -1   7  -1
M  END
>  <UniqueID>  (44) 
41

>  <SMILES>  (44) 
O=c1[n-]c(O)c(/C=N/c2nc3ccccc3s2)[n-]1

>  <Energy>  (44) 
89.03383154528818

>  <Genealogy>  (44) 
O=c1[n-]c(O)c(C=Nc2nc3ccccc3s2)[n-]1 (protonated)
O=c1[n-]c(O)c(/C=N/c2nc3ccccc3s2)[n-]1 (cis-trans isomerization)
O=c1[n-]c(O)c(/C=N/c2nc3ccccc3s2)[n-]1 (3D coordinates assigned)
O=c1[n-]c(O)c(/C=N/c2nc3ccccc3s2)[n-]1 (optimized conformer: 89.03383154528818 kcal/mol)

>  <smiles>  (44) 
O=c1[nH]c(O)c(C=Nc2nc3ccccc3s2)[nH]1

>  <score_type>  (44) 
oracle

>  <origin>  (44) 
adg

>  <m_score__min__energy>  (44) 
-11.699999999999999

>  <m_primary>  (44) 
energy

$$$$
44:0
     RDKit          3D

 68 71  0  0  0  0  0  0  0  0999 V2000
   58.3420   26.8340   44.8960 C   0  0  0  0  0  0  0  0  0  0  0  0
   59.0120   27.8160   45.7640 N   0  0  0  0  0  0  0  0  0  0  0  0
   60.4210   27.9870   45.3670 C   0  0  0  0  0  0  0  0  0  0  0  0
   58.9250   27.4080   47.1440 C   0  0  0  0  0  0  0  0  0  0  0  0
   57.8300   27.5010   47.7670 O   0  0  0  0  0  0  0  0  0  0  0  0
   60.0580   26.8750   47.7800 O   0  0  0  0  0  0  0  0  0  0  0  0
   60.4390   27.1460   49.1040 C   0  0  0  0  0  0  0  0  0  0  0  0
   60.4350   26.1550   50.0990 C   0  0  0  0  0  0  0  0  0  0  0  0
   60.8480   26.4620   51.3940 C   0  0  0  0  0  0  0  0  0  0  0  0
   61.2770   27.7520   51.7120 C   0  0  0  0  0  0  0  0  0  0  0  0
   61.2730   28.7790   50.7380 C   0  0  0  0  0  0  0  0  0  0  0  0
   61.7540   30.1220   51.0570 N   0  0  0  0  0  0  0  0  0  0  0  0
   60.9340   31.2840   50.6320 C   0  0  0  0  0  0  0  0  0  0  0  0
   60.4130   31.2190   49.2150 C   0  0  0  0  0  0  0  0  0  0  0  0
   61.2960   30.9650   48.1520 C   0  0  0  0  0  0  0  0  0  0  0  0
   60.8110   30.8370   46.8460 C   0  0  0  0  0  0  0  0  0  0  0  0
   59.4410   30.9390   46.5830 C   0  0  0  0  0  0  0  0  0  0  0  0
   59.0130   30.7800   45.2560 O   0  0  0  0  0  0  0  0  0  0  0  0
   57.3780   30.6510   44.7610 S   0  0  0  0  0  0  0  0  0  0  0  0
   56.6030   29.3550   45.6130 N   0  0  0  0  0  0  0  0  0  0  0  0
   57.3110   30.4050   43.2790 O   0  0  0  0  0  0  0  0  0  0  0  0
   56.6710   31.9400   45.0750 O   0  0  0  0  0  0  0  0  0  0  0  0
   58.5520   31.1870   47.6480 C   0  0  0  0  0  0  0  0  0  0  0  0
   59.0390   31.3330   48.9540 C   0  0  0  0  0  0  0  0  0  0  0  0
   63.0510   30.2940   51.7540 C   0  0  0  0  0  0  0  0  0  0  0  0
   63.9570   31.2580   51.0320 C   0  0  0  0  0  0  0  0  0  0  0  0
   65.1610   31.6850   51.6150 C   0  0  0  0  0  0  0  0  0  0  0  0
   65.9450   32.6530   50.9820 C   0  0  0  0  0  0  0  0  0  0  0  0
   65.5280   33.2160   49.7720 C   0  0  0  0  0  0  0  0  0  0  0  0
   64.3290   32.8020   49.1780 C   0  0  0  0  0  0  0  0  0  0  0  0
   63.9080   33.4130   47.9880 O   0  0  0  0  0  0  0  0  0  0  0  0
   62.5880   33.8120   47.7520 C   0  0  0  0  0  0  0  0  0  0  0  0
   62.0900   33.8070   46.4430 C   0  0  0  0  0  0  0  0  0  0  0  0
   60.7760   34.2180   46.1890 C   0  0  0  0  0  0  0  0  0  0  0  0
   59.9440   34.6020   47.2430 C   0  0  0  0  0  0  0  0  0  0  0  0
   60.4300   34.5920   48.5530 C   0  0  0  0  0  0  0  0  0  0  0  0
   61.7540   34.2120   48.8100 C   0  0  0  0  0  0  0  0  0  0  0  0
   63.5450   31.8270   49.8150 C   0  0  0  0  0  0  0  0  0  0  0  0
   60.8120   28.4530   49.4400 C   0  0  0  0  0  0  0  0  0  0  0  0
   57.8304   26.0842   45.5174 H   0  0  0  0  0  0  0  0  0  0  0  0
   57.6055   27.3482   44.2610 H   0  0  0  0  0  0  0  0  0  0  0  0
   59.0893   26.3358   44.2610 H   0  0  0  0  0  0  0  0  0  0  0  0
   58.5210   28.7330   45.6530 H   0  0  0  0  0  0  0  0  0  0  0  0
   61.0489   28.0632   46.2670 H   0  0  0  0  0  0  0  0  0  0  0  0
   60.7411   27.1211   44.7689 H   0  0  0  0  0  0  0  0  0  0  0  0
   60.5247   28.9043   44.7689 H   0  0  0  0  0  0  0  0  0  0  0  0
   60.1052   25.1342   49.8556 H   0  0  0  0  0  0  0  0  0  0  0  0
   60.8359   25.6831   52.1706 H   0  0  0  0  0  0  0  0  0  0  0  0
   61.6226   27.9731   52.7326 H   0  0  0  0  0  0  0  0  0  0  0  0
   60.0703   31.3571   51.3093 H   0  0  0  0  0  0  0  0  0  0  0  0
   61.5994   32.1590   50.6731 H   0  0  0  0  0  0  0  0  0  0  0  0
   62.3740   30.8663   48.3476 H   0  0  0  0  0  0  0  0  0  0  0  0
   61.5130   30.6546   46.0190 H   0  0  0  0  0  0  0  0  0  0  0  0
   57.2870   28.9970   46.3180 H   0  0  0  0  0  0  0  0  0  0  0  0
   57.4722   31.2662   47.4536 H   0  0  0  0  0  0  0  0  0  0  0  0
   58.3405   31.5380   49.7787 H   0  0  0  0  0  0  0  0  0  0  0  0
   62.8613   30.6765   52.7678 H   0  0  0  0  0  0  0  0  0  0  0  0
   63.5522   29.3153   51.7850 H   0  0  0  0  0  0  0  0  0  0  0  0
   65.4882   31.2559   52.5735 H   0  0  0  0  0  0  0  0  0  0  0  0
   66.8937   32.9733   51.4373 H   0  0  0  0  0  0  0  0  0  0  0  0
   66.1436   33.9866   49.2850 H   0  0  0  0  0  0  0  0  0  0  0  0
   62.7327   33.4794   45.6126 H   0  0  0  0  0  0  0  0  0  0  0  0
   60.3978   34.2385   45.1563 H   0  0  0  0  0  0  0  0  0  0  0  0
   58.9078   34.9118   47.0422 H   0  0  0  0  0  0  0  0  0  0  0  0
   59.7715   34.8832   49.3847 H   0  0  0  0  0  0  0  0  0  0  0  0
   62.1405   34.2268   49.8398 H   0  0  0  0  0  0  0  0  0  0  0  0
   62.5983   31.5051   49.3566 H   0  0  0  0  0  0  0  0  0  0  0  0
   60.7453   29.2440   48.6785 H   0  0  0  0  0  0  0  0  0  0  0  0
  1  2  1  0
  2  3  1  0
  2  4  1  0
  4  5  2  0
  4  6  1  0
  6  7  1  0
  7  8  2  0
  8  9  1  0
  9 10  2  0
 10 11  1  0
 11 12  1  0
 12 13  1  0
 13 14  1  0
 14 15  2  0
 15 16  1  0
 16 17  2  0
 17 18  1  0
 18 19  1  0
 19 20  1  0
 19 21  2  0
 19 22  2  0
 17 23  1  0
 23 24  2  0
 12 25  1  0
 25 26  1  0
 26 27  2  0
 27 28  1  0
 28 29  2  0
 29 30  1  0
 30 31  1  0
 31 32  1  0
 32 33  2  0
 33 34  1  0
 34 35  2  0
 35 36  1  0
 36 37  2  0
 30 38  2  0
 11 39  2  0
 39  7  1  0
 24 14  1  0
 38 26  1  0
 37 32  1  0
  1 40  1  0
  1 41  1  0
  1 42  1  0
  2 43  1  0
  3 44  1  0
  3 45  1  0
  3 46  1  0
  8 47  1  0
  9 48  1  0
 10 49  1  0
 13 50  1  0
 13 51  1  0
 15 52  1  0
 16 53  1  0
 20 54  1  0
 23 55  1  0
 24 56  1  0
 25 57  1  0
 25 58  1  0
 27 59  1  0
 28 60  1  0
 29 61  1  0
 33 62  1  0
 34 63  1  0
 35 64  1  0
 36 65  1  0
 37 66  1  0
 38 67  1  0
 39 68  1  0
M  CHG  2   2   1  20  -1
M  END
>  <UniqueID>  (45) 
42

>  <SMILES>  (45) 
C[NH+](C)C(=O)Oc1cccc(N(Cc2ccc(OS([NH-])(=O)=O)cc2)Cc2cccc(Oc3ccccc3)c2)c1

>  <Energy>  (45) 
88.4967715938732

>  <Genealogy>  (45) 
C[NH+](C)C(=O)Oc1cccc(N(Cc2ccc(OS([NH-])(=O)=O)cc2)Cc2cccc(Oc3ccccc3)c2)c1 (protonated)
C[NH+](C)C(=O)Oc1cccc(N(Cc2ccc(OS([NH-])(=O)=O)cc2)Cc2cccc(Oc3ccccc3)c2)c1 (3D coordinates assigned)
C[NH+](C)C(=O)Oc1cccc(N(Cc2ccc(OS([NH-])(=O)=O)cc2)Cc2cccc(Oc3ccccc3)c2)c1 (optimized conformer: 88.4967715938732 kcal/mol)

>  <smiles>  (45) 
CN(C)C(=O)Oc1cccc(N(Cc2ccc(OS(N)(=O)=O)cc2)Cc2cccc(Oc3ccccc3)c2)c1

>  <score_type>  (45) 
oracle

>  <origin>  (45) 
adg

>  <m_score__min__energy>  (45) 
-11.42

>  <m_primary>  (45) 
energy

$$$$
46:0
     RDKit          3D

 40 42  0  0  0  0  0  0  0  0999 V2000
   55.1220   29.3050   44.6200 N   0  0  0  0  0  0  0  0  0  0  0  0
   56.5170   29.5770   44.7390 C   0  0  0  0  0  0  0  0  0  0  0  0
   57.2310   28.8290   45.4590 O   0  0  0  0  0  0  0  0  0  0  0  0
   57.1020   30.7450   44.0480 C   0  0  0  0  0  0  0  0  0  0  0  0
   57.0910   30.8680   42.6460 C   0  0  0  0  0  0  0  0  0  0  0  0
   57.6760   32.0370   42.1740 C   0  0  0  0  0  0  0  0  0  0  0  0
   58.2150   32.9300   43.4920 S   0  0  0  0  0  0  0  0  0  0  0  0
   57.6980   31.8470   44.6750 C   0  0  0  0  0  0  0  0  0  0  0  0
   57.9890   31.9660   46.0760 N   0  0  0  0  0  0  0  0  0  0  0  0
   58.2240   33.2280   46.7190 C   0  0  0  0  0  0  0  0  0  0  0  0
   57.6340   34.2620   46.3020 O   0  0  0  0  0  0  0  0  0  0  0  0
   59.1370   33.3240   47.8820 C   0  0  0  0  0  0  0  0  0  0  0  0
   60.3070   34.0990   47.8120 C   0  0  0  0  0  0  0  0  0  0  0  0
   61.1620   34.1850   48.9130 C   0  0  0  0  0  0  0  0  0  0  0  0
   60.8750   33.4770   50.0830 C   0  0  0  0  0  0  0  0  0  0  0  0
   59.7410   32.6640   50.1530 C   0  0  0  0  0  0  0  0  0  0  0  0
   59.4810   31.9260   51.3530 N   0  0  0  0  0  0  0  0  0  0  0  0
   58.8770   30.2980   51.3810 S   0  0  0  0  0  0  0  0  0  0  0  0
   57.3740   30.3430   51.3800 O   0  0  0  0  0  0  0  0  0  0  0  0
   59.3260   29.6280   52.6500 O   0  0  0  0  0  0  0  0  0  0  0  0
   59.4060   29.3580   49.9850 C   0  0  0  0  0  0  0  0  0  0  0  0
   60.3730   28.3520   50.1390 C   0  0  0  0  0  0  0  0  0  0  0  0
   60.7650   27.5780   49.0420 C   0  0  0  0  0  0  0  0  0  0  0  0
   60.1900   27.8020   47.7850 C   0  0  0  0  0  0  0  0  0  0  0  0
   60.6940   26.8400   46.4060 Cl  0  0  0  0  0  0  0  0  0  0  0  0
   59.2230   28.8030   47.6250 C   0  0  0  0  0  0  0  0  0  0  0  0
   58.8350   29.5810   48.7200 C   0  0  0  0  0  0  0  0  0  0  0  0
   58.8610   32.6180   49.0650 C   0  0  0  0  0  0  0  0  0  0  0  0
   54.4920   29.3540   45.4520 H   0  0  0  0  0  0  0  0  0  0  0  0
   56.6574   30.1057   41.9820 H   0  0  0  0  0  0  0  0  0  0  0  0
   57.7702   32.3283   41.1175 H   0  0  0  0  0  0  0  0  0  0  0  0
   58.0870   31.0980   46.6470 H   0  0  0  0  0  0  0  0  0  0  0  0
   60.5506   34.6404   46.8859 H   0  0  0  0  0  0  0  0  0  0  0  0
   62.0642   34.8121   48.8589 H   0  0  0  0  0  0  0  0  0  0  0  0
   61.5443   33.5601   50.9520 H   0  0  0  0  0  0  0  0  0  0  0  0
   60.8240   28.1718   51.1260 H   0  0  0  0  0  0  0  0  0  0  0  0
   61.5253   26.7929   49.1667 H   0  0  0  0  0  0  0  0  0  0  0  0
   58.7691   28.9768   46.6382 H   0  0  0  0  0  0  0  0  0  0  0  0
   58.0801   30.3706   48.5911 H   0  0  0  0  0  0  0  0  0  0  0  0
   57.9403   32.0205   49.1374 H   0  0  0  0  0  0  0  0  0  0  0  0
  1  2  1  0
  2  3  2  0
  2  4  1  0
  4  5  1  0
  5  6  2  0
  6  7  1  0
  7  8  1  0
  8  9  1  0
  9 10  1  0
 10 11  2  0
 10 12  1  0
 12 13  2  0
 13 14  1  0
 14 15  2  0
 15 16  1  0
 16 17  1  0
 17 18  1  0
 18 19  2  0
 18 20  2  0
 18 21  1  0
 21 22  2  0
 22 23  1  0
 23 24  2  0
 24 25  1  0
 24 26  1  0
 26 27  2  0
 16 28  2  0
  8  4  2  0
 28 12  1  0
 27 21  1  0
  1 29  1  0
  5 30  1  0
  6 31  1  0
  9 32  1  0
 13 33  1  0
 14 34  1  0
 15 35  1  0
 22 36  1  0
 23 37  1  0
 26 38  1  0
 27 39  1  0
 28 40  1  0
M  CHG  2   1  -1  17  -1
M  END
>  <UniqueID>  (46) 
43

>  <SMILES>  (46) 
[NH-]C(=O)c1ccsc1NC(=O)c1cccc([N-]S(=O)(=O)c2ccc(Cl)cc2)c1

>  <Energy>  (46) 
79.2632744695912

>  <Genealogy>  (46) 
[NH-]C(=O)c1ccsc1NC(=O)c1cccc([N-]S(=O)(=O)c2ccc(Cl)cc2)c1 (protonated)
[NH-]C(=O)c1ccsc1NC(=O)c1cccc([N-]S(=O)(=O)c2ccc(Cl)cc2)c1 (3D coordinates assigned)
[NH-]C(=O)c1ccsc1NC(=O)c1cccc([N-]S(=O)(=O)c2ccc(Cl)cc2)c1 (optimized conformer: 79.2632744695912 kcal/mol)

>  <smiles>  (46) 
NC(=O)c1ccsc1NC(=O)c1cccc(NS(=O)(=O)c2ccc(Cl)cc2)c1

>  <score_type>  (46) 
oracle

>  <origin>  (46) 
adg

>  <m_score__min__energy>  (46) 
-14.029999999999999

>  <m_primary>  (46) 
energy

$$$$
47:0
     RDKit          3D

 35 37  0  0  0  0  0  0  0  0999 V2000
   60.4226   35.8328   47.8667 H   0  0  0  0  0  0  0  0  0  0  0  0
   59.8740   34.9690   47.4630 C   0  0  0  0  0  0  0  0  0  0  0  0
   59.5080   33.9190   48.3090 C   0  0  0  0  0  0  0  0  0  0  0  0
   59.7687   33.9597   49.3769 H   0  0  0  0  0  0  0  0  0  0  0  0
   58.8120   32.8170   47.8040 C   0  0  0  0  0  0  0  0  0  0  0  0
   58.5277   31.9929   48.4748 H   0  0  0  0  0  0  0  0  0  0  0  0
   58.4750   32.7600   46.4420 C   0  0  0  0  0  0  0  0  0  0  0  0
   57.7780   31.6590   45.9230 C   0  0  0  0  0  0  0  0  0  0  0  0
   57.4900   30.8303   46.5866 H   0  0  0  0  0  0  0  0  0  0  0  0
   57.4470   31.6110   44.5610 C   0  0  0  0  0  0  0  0  0  0  0  0
   56.6000   30.2170   43.8970 S   0  0  0  0  0  0  0  0  0  0  0  0
   55.2470   30.0650   44.5330 O   0  0  0  0  0  0  0  0  0  0  0  0
   56.4140   30.4120   42.4190 O   0  0  0  0  0  0  0  0  0  0  0  0
   57.5330   28.7840   44.1710 N   0  0  0  0  0  0  0  0  0  0  0  0
   57.1830   27.8810   45.0320 C   0  0  0  0  0  0  0  0  0  0  0  0
   55.9480   27.6520   45.4170 O   0  0  0  0  0  0  0  0  0  0  0  0
   55.9300   26.7010   46.3040 N   0  0  0  0  0  0  0  0  0  0  0  0
   55.0690   26.3360   46.7690 H   0  0  0  0  0  0  0  0  0  0  0  0
   57.1990   26.2960   46.5150 C   0  0  0  0  0  0  0  0  0  0  0  0
   57.5960   25.2180   47.4710 C   0  0  0  0  0  0  0  0  0  0  0  0
   57.4641   25.5760   48.5027 H   0  0  0  0  0  0  0  0  0  0  0  0
   56.9652   24.3319   47.3070 H   0  0  0  0  0  0  0  0  0  0  0  0
   58.6508   24.9526   47.3070 H   0  0  0  0  0  0  0  0  0  0  0  0
   58.0400   27.0230   45.6900 C   0  0  0  0  0  0  0  0  0  0  0  0
   59.5350   26.9830   45.6290 C   0  0  0  0  0  0  0  0  0  0  0  0
   59.9435   26.9721   46.6503 H   0  0  0  0  0  0  0  0  0  0  0  0
   59.8561   26.0759   45.0959 H   0  0  0  0  0  0  0  0  0  0  0  0
   59.9041   27.8716   45.0959 H   0  0  0  0  0  0  0  0  0  0  0  0
   57.8220   32.6630   43.7160 C   0  0  0  0  0  0  0  0  0  0  0  0
   57.5695   32.6210   42.6462 H   0  0  0  0  0  0  0  0  0  0  0  0
   58.5150   33.7660   44.2230 C   0  0  0  0  0  0  0  0  0  0  0  0
   58.8008   34.5899   43.5525 H   0  0  0  0  0  0  0  0  0  0  0  0
   58.8470   33.8250   45.5850 C   0  0  0  0  0  0  0  0  0  0  0  0
   59.5450   34.9250   46.1050 C   0  0  0  0  0  0  0  0  0  0  0  0
   59.8340   35.7546   45.4430 H   0  0  0  0  0  0  0  0  0  0  0  0
  1  2  1  0
  2  3  2  0
  3  4  1  0
  3  5  1  0
  5  6  1  0
  5  7  2  0
  7  8  1  0
  8  9  1  0
  8 10  2  0
 10 11  1  0
 11 12  2  0
 11 13  2  0
 11 14  1  0
 14 15  2  0
 15 16  1  0
 16 17  1  0
 17 18  1  0
 17 19  1  0
 19 20  1  0
 20 21  1  0
 20 22  1  0
 20 23  1  0
 19 24  2  0
 24 25  1  0
 25 26  1  0
 25 27  1  0
 25 28  1  0
 10 29  1  0
 29 30  1  0
 29 31  2  0
 31 32  1  0
 31 33  1  0
 33 34  2  0
 34 35  1  0
 34  2  1  0
 33  7  1  0
 24 15  1  0
M  END
>  <UniqueID>  (47) 
44

>  <SMILES>  (47) 
Cc1[nH]o/c(=N\S(=O)(=O)c2ccc3ccccc3c2)c1C

>  <Energy>  (47) 
72.90242699675429

>  <Genealogy>  (47) 
Cc1[nH]o/c(=N\S(=O)(=O)c2ccc3ccccc3c2)c1C (cis-trans isomerization)
Cc1[nH]o/c(=N\S(=O)(=O)c2ccc3ccccc3c2)c1C (3D coordinates assigned)
Cc1[nH]o/c(=N\S(=O)(=O)c2ccc3ccccc3c2)c1C (optimized conformer: 72.90242699675429 kcal/mol)

>  <smiles>  (47) 
Cc1[nH]oc(=NS(=O)(=O)c2ccc3ccccc3c2)c1C

>  <score_type>  (47) 
oracle

>  <origin>  (47) 
adg

>  <m_score__min__energy>  (47) 
-9.5700000000000003

>  <m_primary>  (47) 
energy

$$$$
48:0
     RDKit          3D

 45 48  0  0  0  0  0  0  0  0999 V2000
   55.6930   26.6230   45.8930 O   0  0  0  0  0  0  0  0  0  0  0  0
   56.8980   26.9190   45.6810 C   0  0  0  0  0  0  0  0  0  0  0  0
   57.8150   25.8670   45.3460 N   0  0  0  0  0  0  0  0  0  0  0  0
   57.4640   24.5660   44.8470 C   0  0  0  0  0  0  0  0  0  0  0  0
   56.8420   24.4660   43.5970 C   0  0  0  0  0  0  0  0  0  0  0  0
   56.4790   23.2160   43.0860 C   0  0  0  0  0  0  0  0  0  0  0  0
   56.7220   22.0540   43.8310 C   0  0  0  0  0  0  0  0  0  0  0  0
   56.3690   20.8030   43.3320 O   0  0  0  0  0  0  0  0  0  0  0  0
   57.3230   22.1510   45.0910 C   0  0  0  0  0  0  0  0  0  0  0  0
   57.6840   23.4000   45.6030 C   0  0  0  0  0  0  0  0  0  0  0  0
   57.3200   28.3370   45.7420 C   0  0  0  0  0  0  0  0  0  0  0  0
   56.8930   29.2430   44.7580 C   0  0  0  0  0  0  0  0  0  0  0  0
   57.2560   30.5900   44.8320 C   0  0  0  0  0  0  0  0  0  0  0  0
   58.0670   31.0450   45.8790 C   0  0  0  0  0  0  0  0  0  0  0  0
   58.4670   32.7540   46.0210 S   0  0  0  0  0  0  0  0  0  0  0  0
   57.2030   33.5610   46.1240 O   0  0  0  0  0  0  0  0  0  0  0  0
   59.2310   33.1880   44.8030 O   0  0  0  0  0  0  0  0  0  0  0  0
   59.4330   33.0060   47.4390 N   0  0  0  0  0  0  0  0  0  0  0  0
   58.9350   32.9440   48.8110 C   0  0  0  0  0  0  0  0  0  0  0  0
   60.1550   33.2450   49.7160 C   0  0  0  0  0  0  0  0  0  0  0  0
   61.2660   33.4500   48.7420 C   0  0  0  0  0  0  0  0  0  0  0  0
   62.6020   33.7550   49.0110 C   0  0  0  0  0  0  0  0  0  0  0  0
   63.4830   33.9090   47.9280 C   0  0  0  0  0  0  0  0  0  0  0  0
   63.0190   33.7580   46.6080 C   0  0  0  0  0  0  0  0  0  0  0  0
   61.6690   33.4540   46.3630 C   0  0  0  0  0  0  0  0  0  0  0  0
   60.8150   33.3050   47.4600 C   0  0  0  0  0  0  0  0  0  0  0  0
   58.5150   30.1410   46.8490 C   0  0  0  0  0  0  0  0  0  0  0  0
   58.1510   28.7950   46.7790 C   0  0  0  0  0  0  0  0  0  0  0  0
   56.6376   25.3758   43.0134 H   0  0  0  0  0  0  0  0  0  0  0  0
   56.0018   23.1446   42.0975 H   0  0  0  0  0  0  0  0  0  0  0  0
   56.9910   20.0060   43.4070 H   0  0  0  0  0  0  0  0  0  0  0  0
   57.5118   21.2414   45.6801 H   0  0  0  0  0  0  0  0  0  0  0  0
   58.1418   23.4719   46.6006 H   0  0  0  0  0  0  0  0  0  0  0  0
   56.2689   28.8900   43.9238 H   0  0  0  0  0  0  0  0  0  0  0  0
   56.9036   31.2956   44.0652 H   0  0  0  0  0  0  0  0  0  0  0  0
   58.1474   33.6959   48.9671 H   0  0  0  0  0  0  0  0  0  0  0  0
   58.4946   31.9619   49.0381 H   0  0  0  0  0  0  0  0  0  0  0  0
   59.9857   34.1511   50.3163 H   0  0  0  0  0  0  0  0  0  0  0  0
   60.3611   32.4427   50.4397 H   0  0  0  0  0  0  0  0  0  0  0  0
   62.9558   33.8718   50.0460 H   0  0  0  0  0  0  0  0  0  0  0  0
   64.5406   34.1488   48.1125 H   0  0  0  0  0  0  0  0  0  0  0  0
   63.7154   33.8783   45.7651 H   0  0  0  0  0  0  0  0  0  0  0  0
   61.2942   33.3364   45.3355 H   0  0  0  0  0  0  0  0  0  0  0  0
   59.1568   30.4926   47.6702 H   0  0  0  0  0  0  0  0  0  0  0  0
   58.5165   28.0892   47.5394 H   0  0  0  0  0  0  0  0  0  0  0  0
  1  2  2  0
  2  3  1  0
  3  4  1  0
  4  5  2  0
  5  6  1  0
  6  7  2  0
  7  8  1  0
  7  9  1  0
  9 10  2  0
  2 11  1  0
 11 12  2  0
 12 13  1  0
 13 14  2  0
 14 15  1  0
 15 16  2  0
 15 17  2  0
 15 18  1  0
 18 19  1  0
 19 20  1  0
 20 21  1  0
 21 22  2  0
 22 23  1  0
 23 24  2  0
 24 25  1  0
 25 26  2  0
 14 27  1  0
 27 28  2  0
 10  4  1  0
 28 11  1  0
 26 18  1  0
 26 21  1  0
  5 29  1  0
  6 30  1  0
  8 31  1  0
  9 32  1  0
 10 33  1  0
 12 34  1  0
 13 35  1  0
 19 36  1  0
 19 37  1  0
 20 38  1  0
 20 39  1  0
 22 40  1  0
 23 41  1  0
 24 42  1  0
 25 43  1  0
 27 44  1  0
 28 45  1  0
M  CHG  1   3  -1
M  END
>  <UniqueID>  (48) 
45

>  <SMILES>  (48) 
O=C([N-]c1ccc(O)cc1)c1ccc(S(=O)(=O)N2CCc3ccccc32)cc1

>  <Energy>  (48) 
71.40513220316244

>  <Genealogy>  (48) 
O=C([N-]c1ccc(O)cc1)c1ccc(S(=O)(=O)N2CCc3ccccc32)cc1 (protonated)
O=C([N-]c1ccc(O)cc1)c1ccc(S(=O)(=O)N2CCc3ccccc32)cc1 (3D coordinates assigned)
O=C([N-]c1ccc(O)cc1)c1ccc(S(=O)(=O)N2CCc3ccccc32)cc1 (nonaromatic ring conformer: 71.40513220316244 kcal/mol)

>  <smiles>  (48) 
O=C(Nc1ccc(O)cc1)c1ccc(S(=O)(=O)N2CCc3ccccc32)cc1

>  <score_type>  (48) 
oracle

>  <origin>  (48) 
adg

>  <m_score__min__energy>  (48) 
-10.94

>  <m_primary>  (48) 
energy

$$$$
49:0
     RDKit          3D

 50 52  0  0  0  0  0  0  0  0999 V2000
   56.6430   22.1560   49.2040 C   0  0  0  0  0  0  0  0  0  0  0  0
   57.0460   22.8450   48.0260 O   0  0  0  0  0  0  0  0  0  0  0  0
   56.1720   23.5480   47.1850 C   0  0  0  0  0  0  0  0  0  0  0  0
   55.0620   22.8740   46.6640 C   0  0  0  0  0  0  0  0  0  0  0  0
   54.1800   23.5270   45.7980 C   0  0  0  0  0  0  0  0  0  0  0  0
   54.4020   24.8590   45.4420 C   0  0  0  0  0  0  0  0  0  0  0  0
   55.5010   25.5560   45.9710 C   0  0  0  0  0  0  0  0  0  0  0  0
   55.7480   26.9350   45.6680 N   0  0  0  0  0  0  0  0  0  0  0  0
   57.3080   27.6460   45.3950 S   0  0  0  0  0  0  0  0  0  0  0  0
   57.5220   28.7390   46.4030 O   0  0  0  0  0  0  0  0  0  0  0  0
   58.3690   26.6000   45.5880 O   0  0  0  0  0  0  0  0  0  0  0  0
   57.4370   28.3100   43.7940 N   0  0  0  0  0  0  0  0  0  0  0  0
   56.6990   29.8810   43.7330 S   0  0  0  0  0  0  0  0  0  0  0  0
   55.7680   30.0230   44.9040 O   0  0  0  0  0  0  0  0  0  0  0  0
   55.9280   30.0570   42.4540 O   0  0  0  0  0  0  0  0  0  0  0  0
   57.9470   31.0780   43.8470 N   0  0  0  0  0  0  0  0  0  0  0  0
   58.0840   32.0440   44.8930 C   0  0  0  0  0  0  0  0  0  0  0  0
   57.9160   33.4220   44.6680 C   0  0  0  0  0  0  0  0  0  0  0  0
   58.0440   34.3260   45.7260 C   0  0  0  0  0  0  0  0  0  0  0  0
   58.3280   33.8650   47.0140 C   0  0  0  0  0  0  0  0  0  0  0  0
   58.4980   32.4940   47.2480 C   0  0  0  0  0  0  0  0  0  0  0  0
   58.8110   31.8920   48.8730 S   0  0  0  0  0  0  0  0  0  0  0  0
   58.8040   30.3900   48.8430 O   0  0  0  0  0  0  0  0  0  0  0  0
   57.7480   32.3570   49.8300 O   0  0  0  0  0  0  0  0  0  0  0  0
   60.3580   32.4410   49.4310 N   0  0  0  0  0  0  0  0  0  0  0  0
   61.5170   32.6200   48.6060 C   0  0  0  0  0  0  0  0  0  0  0  0
   62.0560   33.9070   48.4770 C   0  0  0  0  0  0  0  0  0  0  0  0
   63.1720   34.1270   47.6650 C   0  0  0  0  0  0  0  0  0  0  0  0
   63.7690   33.0600   46.9880 C   0  0  0  0  0  0  0  0  0  0  0  0
   63.2450   31.7720   47.1190 C   0  0  0  0  0  0  0  0  0  0  0  0
   62.1220   31.5490   47.9220 C   0  0  0  0  0  0  0  0  0  0  0  0
   58.3880   31.5910   46.1840 C   0  0  0  0  0  0  0  0  0  0  0  0
   56.3790   24.8980   46.8430 C   0  0  0  0  0  0  0  0  0  0  0  0
   56.9726   22.7196   50.0893 H   0  0  0  0  0  0  0  0  0  0  0  0
   55.5472   22.0614   49.2167 H   0  0  0  0  0  0  0  0  0  0  0  0
   57.0977   21.1545   49.2167 H   0  0  0  0  0  0  0  0  0  0  0  0
   54.8823   21.8238   46.9375 H   0  0  0  0  0  0  0  0  0  0  0  0
   53.3084   22.9899   45.3957 H   0  0  0  0  0  0  0  0  0  0  0  0
   53.7152   25.3632   44.7462 H   0  0  0  0  0  0  0  0  0  0  0  0
   58.4570   28.4370   43.5980 H   0  0  0  0  0  0  0  0  0  0  0  0
   57.6834   33.7889   43.6574 H   0  0  0  0  0  0  0  0  0  0  0  0
   57.9208   35.4038   45.5442 H   0  0  0  0  0  0  0  0  0  0  0  0
   58.4183   34.5794   47.8455 H   0  0  0  0  0  0  0  0  0  0  0  0
   61.5983   34.7486   49.0177 H   0  0  0  0  0  0  0  0  0  0  0  0
   63.5815   35.1424   47.5585 H   0  0  0  0  0  0  0  0  0  0  0  0
   64.6501   33.2343   46.3530 H   0  0  0  0  0  0  0  0  0  0  0  0
   63.7167   30.9311   46.5894 H   0  0  0  0  0  0  0  0  0  0  0  0
   61.7103   30.5336   48.0193 H   0  0  0  0  0  0  0  0  0  0  0  0
   58.5415   30.5165   46.3627 H   0  0  0  0  0  0  0  0  0  0  0  0
   57.2378   25.4413   47.2641 H   0  0  0  0  0  0  0  0  0  0  0  0
  1  2  1  0
  2  3  1  0
  3  4  2  0
  4  5  1  0
  5  6  2  0
  6  7  1  0
  7  8  1  0
  8  9  1  0
  9 10  2  0
  9 11  2  0
  9 12  1  0
 12 13  1  0
 13 14  2  0
 13 15  2  0
 13 16  1  0
 16 17  1  0
 17 18  2  0
 18 19  1  0
 19 20  2  0
 20 21  1  0
 21 22  1  0
 22 23  2  0
 22 24  2  0
 22 25  1  0
 25 26  1  0
 26 27  2  0
 27 28  1  0
 28 29  2  0
 29 30  1  0
 30 31  2  0
 21 32  2  0
  7 33  2  0
 33  3  1  0
 32 17  1  0
 31 26  1  0
  1 34  1  0
  1 35  1  0
  1 36  1  0
  4 37  1  0
  5 38  1  0
  6 39  1  0
 12 40  1  0
 18 41  1  0
 19 42  1  0
 20 43  1  0
 27 44  1  0
 28 45  1  0
 29 46  1  0
 30 47  1  0
 31 48  1  0
 32 49  1  0
 33 50  1  0
M  CHG  3   8  -1  16  -1  25  -1
M  END
>  <UniqueID>  (49) 
46

>  <SMILES>  (49) 
COc1cccc([N-]S(=O)(=O)NS(=O)(=O)[N-]c2cccc(S(=O)(=O)[N-]c3ccccc3)c2)c1

>  <Energy>  (49) 
51.78297948113824

>  <Genealogy>  (49) 
COc1cccc([N-]S(=O)(=O)NS(=O)(=O)[N-]c2cccc(S(=O)(=O)[N-]c3ccccc3)c2)c1 (protonated)
COc1cccc([N-]S(=O)(=O)NS(=O)(=O)[N-]c2cccc(S(=O)(=O)[N-]c3ccccc3)c2)c1 (3D coordinates assigned)
COc1cccc([N-]S(=O)(=O)NS(=O)(=O)[N-]c2cccc(S(=O)(=O)[N-]c3ccccc3)c2)c1 (optimized conformer: 51.78297948113824 kcal/mol)

>  <smiles>  (49) 
COc1cccc(NS(=O)(=O)NS(=O)(=O)Nc2cccc(S(=O)(=O)Nc3ccccc3)c2)c1

>  <score_type>  (49) 
oracle

>  <origin>  (49) 
adg

>  <m_score__min__energy>  (49) 
-14.31

>  <m_primary>  (49) 
energy

$$$$
50:0
     RDKit          3D

 55 58  0  0  0  0  0  0  0  0999 V2000
   56.0840   27.9040   44.8660 H   0  0  0  0  0  0  0  0  0  0  0  0
   56.0790   28.9480   44.8770 N   0  0  0  0  0  0  0  0  0  0  0  0
   56.9840   29.6580   45.4760 C   0  0  0  0  0  0  0  0  0  0  0  0
   57.0330   30.9950   45.2350 N   0  0  0  0  0  0  0  0  0  0  0  0
   57.9500   31.8050   45.8260 C   0  0  0  0  0  0  0  0  0  0  0  0
   57.9591   32.8813   45.5990 H   0  0  0  0  0  0  0  0  0  0  0  0
   58.8820   31.2730   46.7220 C   0  0  0  0  0  0  0  0  0  0  0  0
   59.8810   32.1500   47.3720 C   0  0  0  0  0  0  0  0  0  0  0  0
   60.9930   32.5560   46.6260 C   0  0  0  0  0  0  0  0  0  0  0  0
   61.0907   32.2406   45.5767 H   0  0  0  0  0  0  0  0  0  0  0  0
   61.9510   33.3350   47.1860 N   0  0  0  0  0  0  0  0  0  0  0  0
   61.8800   33.7620   48.4750 C   0  0  0  0  0  0  0  0  0  0  0  0
   62.8330   34.5030   48.9490 N   0  0  0  0  0  0  0  0  0  0  0  0
   63.0010   34.5910   49.9760 H   0  0  0  0  0  0  0  0  0  0  0  0
   60.7740   33.4020   49.2740 C   0  0  0  0  0  0  0  0  0  0  0  0
   60.6580   33.8370   50.6090 C   0  0  0  0  0  0  0  0  0  0  0  0
   61.4559   34.4508   51.0524 H   0  0  0  0  0  0  0  0  0  0  0  0
   59.5330   33.4950   51.3810 C   0  0  0  0  0  0  0  0  0  0  0  0
   59.3750   33.9350   52.7050 O   0  0  0  0  0  0  0  0  0  0  0  0
   60.3390   33.7620   53.7370 C   0  0  0  0  0  0  0  0  0  0  0  0
   59.8470   33.8503   54.7169 H   0  0  0  0  0  0  0  0  0  0  0  0
   60.7990   32.7670   53.6460 H   0  0  0  0  0  0  0  0  0  0  0  0
   61.1163   34.5350   53.6460 H   0  0  0  0  0  0  0  0  0  0  0  0
   58.5180   32.7150   50.8190 C   0  0  0  0  0  0  0  0  0  0  0  0
   57.3990   32.4090   51.6050 O   0  0  0  0  0  0  0  0  0  0  0  0
   57.3840   31.4460   52.6560 C   0  0  0  0  0  0  0  0  0  0  0  0
   58.0321   31.7859   53.4772 H   0  0  0  0  0  0  0  0  0  0  0  0
   56.3582   31.3232   53.0337 H   0  0  0  0  0  0  0  0  0  0  0  0
   57.8890   30.1380   52.1250 C   0  0  0  0  0  0  0  0  0  0  0  0
   57.0740   29.1890   51.9670 O   0  0  0  0  0  0  0  0  0  0  0  0
   59.2660   29.9730   51.7320 N   0  0  0  0  0  0  0  0  0  0  0  0
   60.3570   30.5010   52.5600 C   0  0  0  0  0  0  0  0  0  0  0  0
   60.0221   31.4203   53.0626 H   0  0  0  0  0  0  0  0  0  0  0  0
   60.6390   29.7494   53.3120 H   0  0  0  0  0  0  0  0  0  0  0  0
   61.5710   30.8160   51.6790 C   0  0  0  0  0  0  0  0  0  0  0  0
   61.3274   31.6607   51.0178 H   0  0  0  0  0  0  0  0  0  0  0  0
   62.4214   31.0711   52.3285 H   0  0  0  0  0  0  0  0  0  0  0  0
   61.9230   29.6960   50.8900 O   0  0  0  0  0  0  0  0  0  0  0  0
   60.8800   29.4070   49.9780 C   0  0  0  0  0  0  0  0  0  0  0  0
   60.6596   30.3071   49.3853 H   0  0  0  0  0  0  0  0  0  0  0  0
   61.2034   28.5857   49.3216 H   0  0  0  0  0  0  0  0  0  0  0  0
   59.6130   28.9720   50.7200 C   0  0  0  0  0  0  0  0  0  0  0  0
   58.7845   28.8743   50.0030 H   0  0  0  0  0  0  0  0  0  0  0  0
   59.7922   28.0041   51.2110 H   0  0  0  0  0  0  0  0  0  0  0  0
   58.6360   32.2540   49.4990 C   0  0  0  0  0  0  0  0  0  0  0  0
   57.8421   31.6237   49.0718 H   0  0  0  0  0  0  0  0  0  0  0  0
   59.7570   32.5870   48.7130 C   0  0  0  0  0  0  0  0  0  0  0  0
   58.8650   29.8970   46.9790 C   0  0  0  0  0  0  0  0  0  0  0  0
   59.6032   29.4603   47.6677 H   0  0  0  0  0  0  0  0  0  0  0  0
   57.9100   29.0700   46.3620 C   0  0  0  0  0  0  0  0  0  0  0  0
   57.8540   27.6860   46.6010 O   0  0  0  0  0  0  0  0  0  0  0  0
   58.9750   26.8710   46.9300 C   0  0  0  0  0  0  0  0  0  0  0  0
   58.6958   25.8125   46.8218 H   0  0  0  0  0  0  0  0  0  0  0  0
   60.0320   27.1560   46.0840 F   0  0  0  0  0  0  0  0  0  0  0  0
   59.3600   27.1340   48.2320 F   0  0  0  0  0  0  0  0  0  0  0  0
  1  2  1  0
  2  3  2  3
  3  4  1  0
  4  5  1  0
  5  6  1  0
  5  7  2  0
  7  8  1  0
  8  9  2  0
  9 10  1  0
  9 11  1  0
 11 12  1  0
 12 13  2  0
 13 14  1  0
 12 15  1  0
 15 16  2  0
 16 17  1  0
 16 18  1  0
 18 19  1  0
 19 20  1  0
 20 21  1  0
 20 22  1  0
 20 23  1  0
 18 24  2  0
 24 25  1  0
 25 26  1  0
 26 27  1  0
 26 28  1  0
 26 29  1  0
 29 30  2  0
 29 31  1  0
 31 32  1  0
 32 33  1  0
 32 34  1  0
 32 35  1  0
 35 36  1  0
 35 37  1  0
 35 38  1  0
 38 39  1  0
 39 40  1  0
 39 41  1  0
 39 42  1  0
 42 43  1  0
 42 44  1  0
 24 45  1  0
 45 46  1  0
 45 47  2  0
  7 48  1  0
 48 49  1  0
 48 50  2  0
 50 51  1  0
 51 52  1  0
 52 53  1  0
 52 54  1  0
 52 55  1  0
 50  3  1  0
 47  8  1  0
 47 15  1  0
 42 31  1  0
M  CHG  2   4  -1  11  -1
M  END
>  <UniqueID>  (50) 
47

>  <SMILES>  (50) 
[H]/N=c1\[n-]cc(-c2c[n-]c(=N)c(OC(F)F)c2)c2cc(OCC(=O)N3CCOCC3)c(OC)cc12

>  <Energy>  (50) 
77.77553111677292

>  <Genealogy>  (50) 
COc1cc2c(=N)[n-]cc(-c3c[n-]c(=N)c(OC(F)F)c3)c2cc1OCC(=O)N1CCOCC1 (protonated)
[H]/N=c1\[n-]cc(-c2c[n-]c(=N)c(OC(F)F)c2)c2cc(OCC(=O)N3CCOCC3)c(OC)cc12 (cis-trans isomerization)
[H]/N=c1\[n-]cc(-c2c[n-]c(=N)c(OC(F)F)c2)c2cc(OCC(=O)N3CCOCC3)c(OC)cc12 (3D coordinates assigned)
[H]/N=c1\[n-]cc(-c2c[n-]c(=N)c(OC(F)F)c2)c2cc(OCC(=O)N3CCOCC3)c(OC)cc12 (nonaromatic ring conformer: 77.77553111677292 kcal/mol)

>  <smiles>  (50) 
COc1cc2c(=N)[nH]cc(-c3c[nH]c(=N)c(OC(F)F)c3)c2cc1OCC(=O)N1CCOCC1

>  <score_type>  (50) 
oracle

>  <origin>  (50) 
adg

>  <m_score__min__energy>  (50) 
-9.25

>  <m_primary>  (50) 
energy

$$$$
51:0
     RDKit          3D

 50 52  0  0  0  0  0  0  0  0999 V2000
   51.4360   24.7190   44.7880 C   0  0  0  0  0  0  0  0  0  0  0  0
   52.7770   23.5580   44.9420 S   0  0  0  0  0  0  0  0  0  0  0  0
   52.2530   22.1900   45.2750 O   0  0  0  0  0  0  0  0  0  0  0  0
   53.5060   23.4880   43.6310 O   0  0  0  0  0  0  0  0  0  0  0  0
   53.8850   24.0850   46.1670 N   0  0  0  0  0  0  0  0  0  0  0  0
   55.2840   24.3540   45.9800 C   0  0  0  0  0  0  0  0  0  0  0  0
   56.2280   23.3210   45.8450 C   0  0  0  0  0  0  0  0  0  0  0  0
   57.5770   23.6220   45.6490 C   0  0  0  0  0  0  0  0  0  0  0  0
   58.0000   24.9500   45.5910 C   0  0  0  0  0  0  0  0  0  0  0  0
   57.0760   25.9980   45.7330 C   0  0  0  0  0  0  0  0  0  0  0  0
   57.5470   27.4020   45.6710 C   0  0  0  0  0  0  0  0  0  0  0  0
   57.3860   28.1510   44.4930 C   0  0  0  0  0  0  0  0  0  0  0  0
   57.8320   29.4740   44.4280 C   0  0  0  0  0  0  0  0  0  0  0  0
   58.4690   30.0650   45.5280 C   0  0  0  0  0  0  0  0  0  0  0  0
   58.8990   31.4340   45.4420 N   0  0  0  0  0  0  0  0  0  0  0  0
   58.0490   32.5190   45.0460 C   0  0  0  0  0  0  0  0  0  0  0  0
   56.8030   32.3520   44.9370 O   0  0  0  0  0  0  0  0  0  0  0  0
   58.6160   33.7790   44.8220 O   0  0  0  0  0  0  0  0  0  0  0  0
   59.3390   34.5080   45.8150 C   0  0  0  0  0  0  0  0  0  0  0  0
   60.7330   33.8620   45.9870 C   0  0  0  0  0  0  0  0  0  0  0  0
   61.3110   34.1240   47.3810 C   0  0  0  0  0  0  0  0  0  0  0  0
   60.4230   33.5180   48.4870 C   0  0  0  0  0  0  0  0  0  0  0  0
   58.9320   33.4370   48.1010 C   0  0  0  0  0  0  0  0  0  0  0  0
   58.5340   34.5620   47.1390 C   0  0  0  0  0  0  0  0  0  0  0  0
   58.6200   29.3220   46.7120 C   0  0  0  0  0  0  0  0  0  0  0  0
   58.1690   28.0000   46.7800 C   0  0  0  0  0  0  0  0  0  0  0  0
   55.7110   25.6910   45.9190 C   0  0  0  0  0  0  0  0  0  0  0  0
   54.7690   26.7110   46.0220 O   0  0  0  0  0  0  0  0  0  0  0  0
   51.0920   25.0168   45.7895 H   0  0  0  0  0  0  0  0  0  0  0  0
   51.7816   25.6078   44.2397 H   0  0  0  0  0  0  0  0  0  0  0  0
   50.6059   24.2497   44.2397 H   0  0  0  0  0  0  0  0  0  0  0  0
   55.9024   22.2714   45.8940 H   0  0  0  0  0  0  0  0  0  0  0  0
   58.3094   22.8086   45.5398 H   0  0  0  0  0  0  0  0  0  0  0  0
   59.0645   25.1779   45.4330 H   0  0  0  0  0  0  0  0  0  0  0  0
   56.9056   27.6929   43.6159 H   0  0  0  0  0  0  0  0  0  0  0  0
   57.6820   30.0559   43.5067 H   0  0  0  0  0  0  0  0  0  0  0  0
   59.8590   31.6760   45.7790 H   0  0  0  0  0  0  0  0  0  0  0  0
   59.4835   35.5518   45.4995 H   0  0  0  0  0  0  0  0  0  0  0  0
   60.6436   32.7760   45.8366 H   0  0  0  0  0  0  0  0  0  0  0  0
   61.4115   34.3083   45.2451 H   0  0  0  0  0  0  0  0  0  0  0  0
   62.3134   33.6750   47.4420 H   0  0  0  0  0  0  0  0  0  0  0  0
   61.3579   35.2122   47.5351 H   0  0  0  0  0  0  0  0  0  0  0  0
   60.7824   32.5014   48.7045 H   0  0  0  0  0  0  0  0  0  0  0  0
   60.4961   34.1814   49.3614 H   0  0  0  0  0  0  0  0  0  0  0  0
   58.7415   32.4685   47.6154 H   0  0  0  0  0  0  0  0  0  0  0  0
   58.3339   33.5422   49.0182 H   0  0  0  0  0  0  0  0  0  0  0  0
   57.4628   34.4682   46.9071 H   0  0  0  0  0  0  0  0  0  0  0  0
   58.7530   35.5216   47.6302 H   0  0  0  0  0  0  0  0  0  0  0  0
   59.0957   29.7833   47.5900 H   0  0  0  0  0  0  0  0  0  0  0  0
   58.3021   27.4244   47.7079 H   0  0  0  0  0  0  0  0  0  0  0  0
  1  2  1  0
  2  3  2  0
  2  4  2  0
  2  5  1  0
  5  6  1  0
  6  7  2  0
  7  8  1  0
  8  9  2  0
  9 10  1  0
 10 11  1  0
 11 12  2  0
 12 13  1  0
 13 14  2  0
 14 15  1  0
 15 16  1  0
 16 17  2  0
 16 18  1  0
 18 19  1  0
 19 20  1  0
 20 21  1  0
 21 22  1  0
 22 23  1  0
 23 24  1  0
 14 25  1  0
 25 26  2  0
 10 27  2  0
 27 28  1  0
 27  6  1  0
 26 11  1  0
 24 19  1  0
  1 29  1  0
  1 30  1  0
  1 31  1  0
  7 32  1  0
  8 33  1  0
  9 34  1  0
 12 35  1  0
 13 36  1  0
 15 37  1  0
 19 38  1  0
 20 39  1  0
 20 40  1  0
 21 41  1  0
 21 42  1  0
 22 43  1  0
 22 44  1  0
 23 45  1  0
 23 46  1  0
 24 47  1  0
 24 48  1  0
 25 49  1  0
 26 50  1  0
M  CHG  2   5  -1  28  -1
M  END
>  <UniqueID>  (51) 
48

>  <SMILES>  (51) 
CS(=O)(=O)[N-]c1cccc(-c2ccc(NC(=O)OC3CCCCC3)cc2)c1[O-]

>  <Energy>  (51) 
60.924741427963184

>  <Genealogy>  (51) 
CS(=O)(=O)[N-]c1cccc(-c2ccc(NC(=O)OC3CCCCC3)cc2)c1[O-] (protonated)
CS(=O)(=O)[N-]c1cccc(-c2ccc(NC(=O)OC3CCCCC3)cc2)c1[O-] (3D coordinates assigned)
CS(=O)(=O)[N-]c1cccc(-c2ccc(NC(=O)OC3CCCCC3)cc2)c1[O-] (nonaromatic ring conformer: 60.924741427963184 kcal/mol)

>  <smiles>  (51) 
CS(=O)(=O)Nc1cccc(-c2ccc(NC(=O)OC3CCCCC3)cc2)c1O

>  <score_type>  (51) 
oracle

>  <origin>  (51) 
adg

>  <m_score__min__energy>  (51) 
-14.550000000000001

>  <m_primary>  (51) 
energy

$$$$
52:0
     RDKit          3D

 32 33  0  0  0  0  0  0  0  0999 V2000
   54.6470   27.0720   46.7140 H   0  0  0  0  0  0  0  0  0  0  0  0
   54.7970   26.3270   45.9990 N   0  0  0  0  0  0  0  0  0  0  0  0
   56.4820   25.9420   46.0160 S   0  0  0  0  0  0  0  0  0  0  0  0
   56.7320   24.7500   45.1360 O   0  0  0  0  0  0  0  0  0  0  0  0
   56.8870   25.6150   47.4250 O   0  0  0  0  0  0  0  0  0  0  0  0
   57.4160   27.3130   45.4250 C   0  0  0  0  0  0  0  0  0  0  0  0
   58.7350   27.1280   44.9930 C   0  0  0  0  0  0  0  0  0  0  0  0
   59.1820   26.1230   45.0080 H   0  0  0  0  0  0  0  0  0  0  0  0
   59.4840   28.2180   44.5430 C   0  0  0  0  0  0  0  0  0  0  0  0
   60.5210   28.0696   44.2073 H   0  0  0  0  0  0  0  0  0  0  0  0
   58.9200   29.4960   44.5180 C   0  0  0  0  0  0  0  0  0  0  0  0
   59.5172   30.3526   44.1722 H   0  0  0  0  0  0  0  0  0  0  0  0
   57.5900   29.6900   44.9340 C   0  0  0  0  0  0  0  0  0  0  0  0
   56.9790   30.9900   44.9500 N   0  0  0  0  0  0  0  0  0  0  0  0
   57.5980   32.2310   44.5870 C   0  0  0  0  0  0  0  0  0  0  0  0
   57.4200   32.7270   43.4420 O   0  0  0  0  0  0  0  0  0  0  0  0
   58.4040   32.9590   45.5750 C   0  0  0  0  0  0  0  0  0  0  0  0
   59.7510   32.3440   46.3770 S   0  0  0  0  0  0  0  0  0  0  0  0
   59.9950   33.7740   47.2420 C   0  0  0  0  0  0  0  0  0  0  0  0
   60.9400   33.9880   48.1060 N   0  0  0  0  0  0  0  0  0  0  0  0
   62.5500   33.3560   47.9680 S   0  0  0  0  0  0  0  0  0  0  0  0
   62.5190   31.8560   48.0500 O   0  0  0  0  0  0  0  0  0  0  0  0
   63.4130   33.9110   49.0660 O   0  0  0  0  0  0  0  0  0  0  0  0
   63.2250   33.8380   46.3960 C   0  0  0  0  0  0  0  0  0  0  0  0
   64.1107   34.4705   46.5557 H   0  0  0  0  0  0  0  0  0  0  0  0
   63.5130   32.9400   45.8297 H   0  0  0  0  0  0  0  0  0  0  0  0
   62.4691   34.4018   45.8297 H   0  0  0  0  0  0  0  0  0  0  0  0
   59.0750   34.7120   46.9360 N   0  0  0  0  0  0  0  0  0  0  0  0
   58.1860   34.2640   46.0090 C   0  0  0  0  0  0  0  0  0  0  0  0
   57.3595   34.8841   45.6317 H   0  0  0  0  0  0  0  0  0  0  0  0
   56.8530   28.5970   45.4070 C   0  0  0  0  0  0  0  0  0  0  0  0
   55.8245   28.7470   45.7672 H   0  0  0  0  0  0  0  0  0  0  0  0
  1  2  1  0
  2  3  1  0
  3  4  2  0
  3  5  2  0
  3  6  1  0
  6  7  2  0
  7  8  1  0
  7  9  1  0
  9 10  1  0
  9 11  2  0
 11 12  1  0
 11 13  1  0
 13 14  1  0
 14 15  1  0
 15 16  2  0
 15 17  1  0
 17 18  1  0
 18 19  1  0
 19 20  2  0
 20 21  1  0
 21 22  2  0
 21 23  2  0
 21 24  1  0
 24 25  1  0
 24 26  1  0
 24 27  1  0
 19 28  1  0
 28 29  1  0
 29 30  1  0
 13 31  2  0
 31 32  1  0
 31  6  1  0
 29 17  2  0
M  CHG  3   2  -1  14  -1  28  -1
M  END
>  <UniqueID>  (52) 
49

>  <SMILES>  (52) 
CS(=O)(=O)/N=c1/[n-]cc(C(=O)[N-]c2cccc(S([NH-])(=O)=O)c2)s1

>  <Energy>  (52) 
64.21125913838381

>  <Genealogy>  (52) 
CS(=O)(=O)N=c1[n-]cc(C(=O)[N-]c2cccc(S([NH-])(=O)=O)c2)s1 (protonated)
CS(=O)(=O)/N=c1/[n-]cc(C(=O)[N-]c2cccc(S([NH-])(=O)=O)c2)s1 (cis-trans isomerization)
CS(=O)(=O)/N=c1/[n-]cc(C(=O)[N-]c2cccc(S([NH-])(=O)=O)c2)s1 (3D coordinates assigned)
CS(=O)(=O)/N=c1/[n-]cc(C(=O)[N-]c2cccc(S([NH-])(=O)=O)c2)s1 (optimized conformer: 64.21125913838381 kcal/mol)

>  <smiles>  (52) 
CS(=O)(=O)N=c1[nH]cc(C(=O)Nc2cccc(S(N)(=O)=O)c2)s1

>  <score_type>  (52) 
oracle

>  <origin>  (52) 
adg

>  <m_score__min__energy>  (52) 
-13.32

>  <m_primary>  (52) 
energy

$$$$
53:0
     RDKit          3D

 43 46  0  0  0  0  0  0  0  0999 V2000
   58.0230   23.2080   43.7520 O   0  0  0  0  0  0  0  0  0  0  0  0
   58.0470   23.2960   45.2510 S   0  0  0  0  0  0  0  0  0  0  0  0
   58.8050   22.1170   45.7910 O   0  0  0  0  0  0  0  0  0  0  0  0
   58.8540   24.7560   45.7220 N   0  0  0  0  0  0  0  0  0  0  0  0
   58.3380   26.0820   45.5410 C   0  0  0  0  0  0  0  0  0  0  0  0
   58.1560   26.5570   44.2360 C   0  0  0  0  0  0  0  0  0  0  0  0
   57.6450   27.8390   44.0130 C   0  0  0  0  0  0  0  0  0  0  0  0
   57.3330   28.6740   45.0920 C   0  0  0  0  0  0  0  0  0  0  0  0
   56.7520   29.9610   44.8370 N   0  0  0  0  0  0  0  0  0  0  0  0
   57.3490   31.1210   44.8480 C   0  0  0  0  0  0  0  0  0  0  0  0
   57.5840   31.8670   43.6730 C   0  0  0  0  0  0  0  0  0  0  0  0
   58.2190   33.1080   43.7570 C   0  0  0  0  0  0  0  0  0  0  0  0
   58.6100   33.6100   45.0010 C   0  0  0  0  0  0  0  0  0  0  0  0
   59.2520   34.8530   45.1200 C   0  0  0  0  0  0  0  0  0  0  0  0
   59.6260   35.3280   46.3800 C   0  0  0  0  0  0  0  0  0  0  0  0
   59.3610   34.5700   47.5250 C   0  0  0  0  0  0  0  0  0  0  0  0
   58.7210   33.3310   47.4170 C   0  0  0  0  0  0  0  0  0  0  0  0
   58.3440   32.8470   46.1590 C   0  0  0  0  0  0  0  0  0  0  0  0
   57.7240   31.6420   46.0490 N   0  0  0  0  0  0  0  0  0  0  0  0
   57.4890   28.1910   46.4020 C   0  0  0  0  0  0  0  0  0  0  0  0
   57.9980   26.9080   46.6260 C   0  0  0  0  0  0  0  0  0  0  0  0
   56.3860   23.3070   45.8460 C   0  0  0  0  0  0  0  0  0  0  0  0
   55.3630   23.8690   45.0660 C   0  0  0  0  0  0  0  0  0  0  0  0
   54.0430   23.8690   45.5280 C   0  0  0  0  0  0  0  0  0  0  0  0
   53.7370   23.3130   46.7720 C   0  0  0  0  0  0  0  0  0  0  0  0
   54.7490   22.7550   47.5570 C   0  0  0  0  0  0  0  0  0  0  0  0
   56.0760   22.7490   47.1010 C   0  0  0  0  0  0  0  0  0  0  0  0
   57.0830   22.1920   47.8890 O   0  0  0  0  0  0  0  0  0  0  0  0
   58.4170   25.9167   43.3805 H   0  0  0  0  0  0  0  0  0  0  0  0
   57.4873   28.1935   42.9837 H   0  0  0  0  0  0  0  0  0  0  0  0
   57.2685   31.4727   42.6958 H   0  0  0  0  0  0  0  0  0  0  0  0
   58.4114   33.6903   42.8438 H   0  0  0  0  0  0  0  0  0  0  0  0
   59.4605   35.4528   44.2218 H   0  0  0  0  0  0  0  0  0  0  0  0
   60.1304   36.3012   46.4714 H   0  0  0  0  0  0  0  0  0  0  0  0
   59.6570   34.9496   48.5141 H   0  0  0  0  0  0  0  0  0  0  0  0
   58.5142   32.7376   48.3198 H   0  0  0  0  0  0  0  0  0  0  0  0
   57.2093   28.8254   47.2560 H   0  0  0  0  0  0  0  0  0  0  0  0
   58.1328   26.5439   47.6552 H   0  0  0  0  0  0  0  0  0  0  0  0
   55.6007   24.3112   44.0873 H   0  0  0  0  0  0  0  0  0  0  0  0
   53.2449   24.3074   44.9109 H   0  0  0  0  0  0  0  0  0  0  0  0
   52.6983   23.3144   47.1341 H   0  0  0  0  0  0  0  0  0  0  0  0
   54.5045   22.3185   48.5367 H   0  0  0  0  0  0  0  0  0  0  0  0
   57.7760   21.5640   47.5000 H   0  0  0  0  0  0  0  0  0  0  0  0
  1  2  2  0
  2  3  2  0
  2  4  1  0
  4  5  1  0
  5  6  2  0
  6  7  1  0
  7  8  2  0
  8  9  1  0
  9 10  2  3
 10 11  1  0
 11 12  2  0
 12 13  1  0
 13 14  2  0
 14 15  1  0
 15 16  2  0
 16 17  1  0
 17 18  2  0
 18 19  1  0
  8 20  1  0
 20 21  2  0
  2 22  1  0
 22 23  2  0
 23 24  1  0
 24 25  2  0
 25 26  1  0
 26 27  2  0
 27 28  1  0
 21  5  1  0
 27 22  1  0
 19 10  1  0
 18 13  1  0
  6 29  1  0
  7 30  1  0
 11 31  1  0
 12 32  1  0
 14 33  1  0
 15 34  1  0
 16 35  1  0
 17 36  1  0
 20 37  1  0
 21 38  1  0
 23 39  1  0
 24 40  1  0
 25 41  1  0
 26 42  1  0
 28 43  1  0
M  CHG  2   4  -1  19  -1
M  END
>  <UniqueID>  (53) 
50

>  <SMILES>  (53) 
O=S(=O)([N-]c1ccc(N=c2ccc3ccccc3[n-]2)cc1)c1ccccc1O

>  <Energy>  (53) 
64.04884944438325

>  <Genealogy>  (53) 
O=S(=O)([N-]c1ccc(N=c2ccc3ccccc3[n-]2)cc1)c1ccccc1O (protonated)
O=S(=O)([N-]c1ccc(N=c2ccc3ccccc3[n-]2)cc1)c1ccccc1O (3D coordinates assigned)
O=S(=O)([N-]c1ccc(N=c2ccc3ccccc3[n-]2)cc1)c1ccccc1O (optimized conformer: 64.04884944438325 kcal/mol)

>  <smiles>  (53) 
O=S(=O)(Nc1ccc(N=c2ccc3ccccc3[nH]2)cc1)c1ccccc1O

>  <score_type>  (53) 
oracle

>  <origin>  (53) 
adg

>  <m_score__min__energy>  (53) 
-13.01

>  <m_primary>  (53) 
energy

$$$$
54:0
     RDKit          3D

 50 52  0  0  0  0  0  0  0  0999 V2000
   55.2780   28.9820   44.8490 N   0  0  0  0  0  0  0  0  0  0  0  0
   56.5540   30.0290   44.3440 S   0  0  0  0  0  0  0  0  0  0  0  0
   56.1850   31.4530   44.6490 O   0  0  0  0  0  0  0  0  0  0  0  0
   56.7570   29.8910   42.8610 O   0  0  0  0  0  0  0  0  0  0  0  0
   58.0380   29.5990   45.1880 C   0  0  0  0  0  0  0  0  0  0  0  0
   59.2620   29.6180   44.5080 C   0  0  0  0  0  0  0  0  0  0  0  0
   60.4370   29.2500   45.1690 C   0  0  0  0  0  0  0  0  0  0  0  0
   60.3960   28.8660   46.5130 C   0  0  0  0  0  0  0  0  0  0  0  0
   59.1750   28.8620   47.2110 C   0  0  0  0  0  0  0  0  0  0  0  0
   59.0810   28.4480   48.5820 N   0  0  0  0  0  0  0  0  0  0  0  0
   60.0990   27.8080   49.3600 C   0  0  0  0  0  0  0  0  0  0  0  0
   60.7950   26.8780   48.8700 O   0  0  0  0  0  0  0  0  0  0  0  0
   60.4040   28.3080   50.7390 C   0  0  0  0  0  0  0  0  0  0  0  0
   60.2690   29.7270   50.7990 O   0  0  0  0  0  0  0  0  0  0  0  0
   59.0560   30.3810   51.0480 C   0  0  0  0  0  0  0  0  0  0  0  0
   57.9850   29.7220   51.1270 O   0  0  0  0  0  0  0  0  0  0  0  0
   59.0610   31.8440   51.2220 C   0  0  0  0  0  0  0  0  0  0  0  0
   58.3520   32.4540   52.1940 N   0  0  0  0  0  0  0  0  0  0  0  0
   58.6070   33.7590   51.9860 C   0  0  0  0  0  0  0  0  0  0  0  0
   58.1210   34.6760   52.6990 O   0  0  0  0  0  0  0  0  0  0  0  0
   59.4090   33.9830   50.9740 O   0  0  0  0  0  0  0  0  0  0  0  0
   59.7190   32.8150   50.4680 C   0  0  0  0  0  0  0  0  0  0  0  0
   60.6450   32.6480   49.2910 C   0  0  0  0  0  0  0  0  0  0  0  0
   59.9120   32.4490   47.9420 C   0  0  0  0  0  0  0  0  0  0  0  0
   60.5750   33.2160   46.7640 C   0  0  0  0  0  0  0  0  0  0  0  0
   59.8040   34.4880   46.3910 C   0  0  0  0  0  0  0  0  0  0  0  0
   58.3520   34.1770   45.9740 C   0  0  0  0  0  0  0  0  0  0  0  0
   57.7570   32.9450   46.6870 C   0  0  0  0  0  0  0  0  0  0  0  0
   58.3920   32.7280   48.0640 C   0  0  0  0  0  0  0  0  0  0  0  0
   57.9980   29.2070   46.5340 C   0  0  0  0  0  0  0  0  0  0  0  0
   54.6920   29.5200   45.5270 H   0  0  0  0  0  0  0  0  0  0  0  0
   59.2987   29.9231   43.4518 H   0  0  0  0  0  0  0  0  0  0  0  0
   61.3963   29.2624   44.6309 H   0  0  0  0  0  0  0  0  0  0  0  0
   61.3217   28.5661   47.0260 H   0  0  0  0  0  0  0  0  0  0  0  0
   59.7055   27.8477   51.4533 H   0  0  0  0  0  0  0  0  0  0  0  0
   61.4398   28.0389   50.9932 H   0  0  0  0  0  0  0  0  0  0  0  0
   61.2741   33.5471   49.2144 H   0  0  0  0  0  0  0  0  0  0  0  0
   61.2333   31.7365   49.4732 H   0  0  0  0  0  0  0  0  0  0  0  0
   60.0188   31.3843   47.6870 H   0  0  0  0  0  0  0  0  0  0  0  0
   61.5985   33.4951   47.0549 H   0  0  0  0  0  0  0  0  0  0  0  0
   60.5738   32.5522   45.8869 H   0  0  0  0  0  0  0  0  0  0  0  0
   59.7881   35.1623   47.2600 H   0  0  0  0  0  0  0  0  0  0  0  0
   60.3121   34.9569   45.5355 H   0  0  0  0  0  0  0  0  0  0  0  0
   57.7273   35.0511   46.2098 H   0  0  0  0  0  0  0  0  0  0  0  0
   58.3659   33.9522   44.8973 H   0  0  0  0  0  0  0  0  0  0  0  0
   56.6744   33.0938   46.8128 H   0  0  0  0  0  0  0  0  0  0  0  0
   57.9630   32.0580   46.0699 H   0  0  0  0  0  0  0  0  0  0  0  0
   58.2406   33.6299   48.6752 H   0  0  0  0  0  0  0  0  0  0  0  0
   57.9142   31.8561   48.5347 H   0  0  0  0  0  0  0  0  0  0  0  0
   57.0341   29.1701   47.0627 H   0  0  0  0  0  0  0  0  0  0  0  0
  1  2  1  0
  2  3  2  0
  2  4  2  0
  2  5  1  0
  5  6  2  0
  6  7  1  0
  7  8  2  0
  8  9  1  0
  9 10  1  0
 10 11  1  0
 11 12  2  0
 11 13  1  0
 13 14  1  0
 14 15  1  0
 15 16  2  0
 15 17  1  0
 17 18  1  0
 18 19  1  0
 19 20  2  0
 19 21  1  0
 21 22  1  0
 22 23  1  0
 23 24  1  0
 24 25  1  0
 25 26  1  0
 26 27  1  0
 27 28  1  0
 28 29  1  0
  9 30  2  0
 30  5  1  0
 22 17  2  0
 29 24  1  0
  1 31  1  0
  6 32  1  0
  7 33  1  0
  8 34  1  0
 13 35  1  0
 13 36  1  0
 23 37  1  0
 23 38  1  0
 24 39  1  0
 25 40  1  0
 25 41  1  0
 26 42  1  0
 26 43  1  0
 27 44  1  0
 27 45  1  0
 28 46  1  0
 28 47  1  0
 29 48  1  0
 29 49  1  0
 30 50  1  0
M  CHG  3   1  -1  10  -1  18  -1
M  END
>  <UniqueID>  (54) 
51

>  <SMILES>  (54) 
[NH-]S(=O)(=O)c1cccc([N-]C(=O)COC(=O)c2[n-]c(=O)oc2CC2CCCCC2)c1

>  <Energy>  (54) 
84.42512078349134

>  <Genealogy>  (54) 
[NH-]S(=O)(=O)c1cccc([N-]C(=O)COC(=O)c2[n-]c(=O)oc2CC2CCCCC2)c1 (protonated)
[NH-]S(=O)(=O)c1cccc([N-]C(=O)COC(=O)c2[n-]c(=O)oc2CC2CCCCC2)c1 (3D coordinates assigned)
[NH-]S(=O)(=O)c1cccc([N-]C(=O)COC(=O)c2[n-]c(=O)oc2CC2CCCCC2)c1 (nonaromatic ring conformer: 84.42512078349134 kcal/mol)

>  <smiles>  (54) 
NS(=O)(=O)c1cccc(NC(=O)COC(=O)c2[nH]c(=O)oc2CC2CCCCC2)c1

>  <score_type>  (54) 
oracle

>  <origin>  (54) 
adg

>  <m_score__min__energy>  (54) 
-14.289999999999999

>  <m_primary>  (54) 
energy

$$$$
55:0
     RDKit          3D

 43 45  0  0  0  0  0  0  0  0999 V2000
   56.8680   30.5850   43.6730 C   0  0  0  0  0  0  0  0  0  0  0  0
   57.0110   31.1510   44.9710 O   0  0  0  0  0  0  0  0  0  0  0  0
   57.7960   32.2730   45.2750 C   0  0  0  0  0  0  0  0  0  0  0  0
   57.6520   33.4790   44.5570 C   0  0  0  0  0  0  0  0  0  0  0  0
   58.4120   34.6040   44.8930 C   0  0  0  0  0  0  0  0  0  0  0  0
   59.3130   34.5470   45.9540 C   0  0  0  0  0  0  0  0  0  0  0  0
   59.4680   33.3570   46.6720 C   0  0  0  0  0  0  0  0  0  0  0  0
   58.7370   32.2100   46.3320 C   0  0  0  0  0  0  0  0  0  0  0  0
   58.9720   31.0250   47.1100 N   0  0  0  0  0  0  0  0  0  0  0  0
   59.7850   29.5820   46.5890 S   0  0  0  0  0  0  0  0  0  0  0  0
   60.2360   29.7650   45.1670 O   0  0  0  0  0  0  0  0  0  0  0  0
   60.9960   29.3420   47.4500 O   0  0  0  0  0  0  0  0  0  0  0  0
   58.6790   28.2120   46.6480 C   0  0  0  0  0  0  0  0  0  0  0  0
   57.4950   28.2110   45.8990 C   0  0  0  0  0  0  0  0  0  0  0  0
   56.6410   27.1060   45.9380 C   0  0  0  0  0  0  0  0  0  0  0  0
   56.9370   26.0110   46.7570 C   0  0  0  0  0  0  0  0  0  0  0  0
   56.0450   24.8890   46.7770 N   0  0  0  0  0  0  0  0  0  0  0  0
   55.2560   24.4440   45.6660 C   0  0  0  0  0  0  0  0  0  0  0  0
   54.0940   24.9070   45.5250 O   0  0  0  0  0  0  0  0  0  0  0  0
   55.7540   23.3980   44.7450 C   0  0  0  0  0  0  0  0  0  0  0  0
   55.3260   23.3100   43.4770 C   0  0  0  0  0  0  0  0  0  0  0  0
   55.8490   22.3210   42.6310 O   0  0  0  0  0  0  0  0  0  0  0  0
   56.9990   21.5520   42.9930 C   0  0  0  0  0  0  0  0  0  0  0  0
   56.9660   21.2560   44.4940 C   0  0  0  0  0  0  0  0  0  0  0  0
   56.6880   22.4600   45.2110 O   0  0  0  0  0  0  0  0  0  0  0  0
   58.1260   26.0100   47.5030 C   0  0  0  0  0  0  0  0  0  0  0  0
   58.9920   27.1040   47.4460 C   0  0  0  0  0  0  0  0  0  0  0  0
   56.5995   29.5222   43.7640 H   0  0  0  0  0  0  0  0  0  0  0  0
   56.0762   31.1177   43.1259 H   0  0  0  0  0  0  0  0  0  0  0  0
   57.8178   30.6777   43.1259 H   0  0  0  0  0  0  0  0  0  0  0  0
   56.9349   33.5350   43.7247 H   0  0  0  0  0  0  0  0  0  0  0  0
   58.2981   35.5352   44.3186 H   0  0  0  0  0  0  0  0  0  0  0  0
   59.9011   35.4358   46.2263 H   0  0  0  0  0  0  0  0  0  0  0  0
   60.1733   33.3204   47.5153 H   0  0  0  0  0  0  0  0  0  0  0  0
   57.2372   29.0822   45.2788 H   0  0  0  0  0  0  0  0  0  0  0  0
   55.7304   27.0969   45.3210 H   0  0  0  0  0  0  0  0  0  0  0  0
   54.5667   24.0117   43.1014 H   0  0  0  0  0  0  0  0  0  0  0  0
   56.9976   20.6053   42.4329 H   0  0  0  0  0  0  0  0  0  0  0  0
   57.9095   22.1204   42.7524 H   0  0  0  0  0  0  0  0  0  0  0  0
   56.1812   20.5145   44.7043 H   0  0  0  0  0  0  0  0  0  0  0  0
   57.9412   20.8576   44.8106 H   0  0  0  0  0  0  0  0  0  0  0  0
   58.3764   25.1448   48.1345 H   0  0  0  0  0  0  0  0  0  0  0  0
   59.9240   27.0957   48.0302 H   0  0  0  0  0  0  0  0  0  0  0  0
  1  2  1  0
  2  3  1  0
  3  4  2  0
  4  5  1  0
  5  6  2  0
  6  7  1  0
  7  8  2  0
  8  9  1  0
  9 10  1  0
 10 11  2  0
 10 12  2  0
 10 13  1  0
 13 14  2  0
 14 15  1  0
 15 16  2  0
 16 17  1  0
 17 18  1  0
 18 19  2  0
 18 20  1  0
 20 21  2  0
 21 22  1  0
 22 23  1  0
 23 24  1  0
 24 25  1  0
 16 26  1  0
 26 27  2  0
  8  3  1  0
 27 13  1  0
 25 20  1  0
  1 28  1  0
  1 29  1  0
  1 30  1  0
  4 31  1  0
  5 32  1  0
  6 33  1  0
  7 34  1  0
 14 35  1  0
 15 36  1  0
 21 37  1  0
 23 38  1  0
 23 39  1  0
 24 40  1  0
 24 41  1  0
 26 42  1  0
 27 43  1  0
M  CHG  2   9  -1  17  -1
M  END
>  <UniqueID>  (55) 
52

>  <SMILES>  (55) 
COc1ccccc1[N-]S(=O)(=O)c1ccc([N-]C(=O)C2=COCCO2)cc1

>  <Energy>  (55) 
55.44984959366238

>  <Genealogy>  (55) 
COc1ccccc1[N-]S(=O)(=O)c1ccc([N-]C(=O)C2=COCCO2)cc1 (protonated)
COc1ccccc1[N-]S(=O)(=O)c1ccc([N-]C(=O)C2=COCCO2)cc1 (3D coordinates assigned)
COc1ccccc1[N-]S(=O)(=O)c1ccc([N-]C(=O)C2=COCCO2)cc1 (nonaromatic ring conformer: 55.44984959366238 kcal/mol)

>  <smiles>  (55) 
COc1ccccc1NS(=O)(=O)c1ccc(NC(=O)C2=COCCO2)cc1

>  <score_type>  (55) 
oracle

>  <origin>  (55) 
adg

>  <m_score__min__energy>  (55) 
-11.16

>  <m_primary>  (55) 
energy

$$$$
56:0
     RDKit          3D

 65 69  0  0  1  0  0  0  0  0999 V2000
   52.8270   27.4740   53.3900 N   0  0  0  0  0  0  0  0  0  0  0  0
   53.7100   28.1820   53.1540 C   0  0  0  0  0  0  0  0  0  0  0  0
   54.8140   29.0650   52.8850 C   0  0  0  0  0  0  0  0  0  0  0  0
   56.1250   28.7380   53.1700 C   0  0  0  0  0  0  0  0  0  0  0  0
   57.1370   29.6450   52.8790 C   0  0  0  0  0  0  0  0  0  0  0  0
   56.8840   30.8660   52.3110 C   0  0  0  0  0  0  0  0  0  0  0  0
   57.8420   31.8440   52.0010 N   0  0  0  0  0  0  0  0  0  0  0  0
   58.6050   31.9550   50.8280 C   0  0  0  0  0  0  0  0  0  0  0  0
   58.8810   33.1350   50.1720 C   0  0  0  0  0  0  0  0  0  0  0  0
   59.6670   33.1810   49.0170 C   0  0  0  0  0  0  0  0  0  0  0  0
   59.9110   34.2700   48.4090 N   0  0  0  0  0  0  0  0  0  0  0  0
   59.4180   34.6820   47.1470 C   0  0  1  0  0  0  0  0  0  0  0  0
   60.2100   33.9990   45.9970 C   0  0  0  0  0  0  0  0  0  0  0  0
   59.2810   34.3280   44.8510 C   0  0  0  0  0  0  0  0  0  0  0  0
   57.9400   34.2910   45.3900 N   0  0  0  0  0  0  0  0  0  0  0  0
   58.0470   34.0770   46.8240 C   0  0  0  0  0  0  0  0  0  0  0  0
   60.1560   32.0460   48.5510 N   0  0  0  0  0  0  0  0  0  0  0  0
   59.9060   30.8810   49.1650 C   0  0  0  0  0  0  0  0  0  0  0  0
   60.4200   29.8190   48.6550 N   0  0  0  0  0  0  0  0  0  0  0  0
   59.7190   29.0010   47.7520 C   0  0  0  0  0  0  0  0  0  0  0  0
   58.7180   29.6120   46.9980 C   0  0  0  0  0  0  0  0  0  0  0  0
   57.9630   28.9200   46.0770 C   0  0  0  0  0  0  0  0  0  0  0  0
   58.1750   27.5590   45.8590 C   0  0  0  0  0  0  0  0  0  0  0  0
   57.4550   26.7920   44.9310 N   0  0  0  0  0  0  0  0  0  0  0  0
   57.2560   25.4080   44.9380 C   0  0  0  0  0  0  0  0  0  0  0  0
   57.7090   24.6770   45.8230 O   0  0  0  0  0  0  0  0  0  0  0  0
   56.5000   24.7500   43.8950 N   0  0  0  0  0  0  0  0  0  0  0  0
   56.3930   23.3220   44.0710 C   0  0  0  0  0  0  0  0  0  0  0  0
   57.0000   22.4340   43.2110 C   0  0  0  0  0  0  0  0  0  0  0  0
   56.9260   21.0730   43.3190 C   0  0  0  0  0  0  0  0  0  0  0  0
   56.1930   20.5410   44.3600 C   0  0  0  0  0  0  0  0  0  0  0  0
   56.0700   19.1950   44.5340 F   0  0  0  0  0  0  0  0  0  0  0  0
   55.5750   21.4080   45.2380 C   0  0  0  0  0  0  0  0  0  0  0  0
   55.6630   22.7770   45.1120 C   0  0  0  0  0  0  0  0  0  0  0  0
   55.0260   23.5770   46.0110 F   0  0  0  0  0  0  0  0  0  0  0  0
   59.1660   26.9850   46.6140 C   0  0  0  0  0  0  0  0  0  0  0  0
   59.9290   27.6650   47.5390 C   0  0  0  0  0  0  0  0  0  0  0  0
   59.1510   30.8390   50.2710 N   0  0  0  0  0  0  0  0  0  0  0  0
   55.5440   31.1550   52.0390 C   0  0  0  0  0  0  0  0  0  0  0  0
   54.5320   30.2740   52.3190 C   0  0  0  0  0  0  0  0  0  0  0  0
   56.3668   27.7659   53.6244 H   0  0  0  0  0  0  0  0  0  0  0  0
   58.1770   29.3733   53.1127 H   0  0  0  0  0  0  0  0  0  0  0  0
   58.0060   32.5830   52.7470 H   0  0  0  0  0  0  0  0  0  0  0  0
   58.4685   34.0733   50.5711 H   0  0  0  0  0  0  0  0  0  0  0  0
   59.4538   35.7799   47.2049 H   0  0  0  0  0  0  0  0  0  0  0  0
   61.2073   34.4428   45.8613 H   0  0  0  0  0  0  0  0  0  0  0  0
   60.4291   32.9305   46.1398 H   0  0  0  0  0  0  0  0  0  0  0  0
   59.5046   35.3297   44.4554 H   0  0  0  0  0  0  0  0  0  0  0  0
   59.3985   33.6124   44.0239 H   0  0  0  0  0  0  0  0  0  0  0  0
   57.3970   35.1570   45.1770 H   0  0  0  0  0  0  0  0  0  0  0  0
   57.2443   34.5994   47.3651 H   0  0  0  0  0  0  0  0  0  0  0  0
   57.9525   33.0214   47.1186 H   0  0  0  0  0  0  0  0  0  0  0  0
   60.7380   32.0330   47.7110 H   0  0  0  0  0  0  0  0  0  0  0  0
   58.5243   30.6849   47.1439 H   0  0  0  0  0  0  0  0  0  0  0  0
   57.1838   29.4470   45.5068 H   0  0  0  0  0  0  0  0  0  0  0  0
   57.0080   27.3220   44.1240 H   0  0  0  0  0  0  0  0  0  0  0  0
   56.0850   25.2630   43.1140 H   0  0  0  0  0  0  0  0  0  0  0  0
   57.5861   22.8492   42.3779 H   0  0  0  0  0  0  0  0  0  0  0  0
   57.4368   20.4201   42.5959 H   0  0  0  0  0  0  0  0  0  0  0  0
   54.9897   20.9899   46.0703 H   0  0  0  0  0  0  0  0  0  0  0  0
   59.3647   25.9124   46.4721 H   0  0  0  0  0  0  0  0  0  0  0  0
   60.7073   27.1337   48.1065 H   0  0  0  0  0  0  0  0  0  0  0  0
   58.9690   29.9290   50.7270 H   0  0  0  0  0  0  0  0  0  0  0  0
   55.2924   32.1243   51.5839 H   0  0  0  0  0  0  0  0  0  0  0  0
   53.4907   30.5421   52.0870 H   0  0  0  0  0  0  0  0  0  0  0  0
  1  2  3  0
  2  3  1  0
  3  4  2  0
  4  5  1  0
  5  6  2  0
  6  7  1  0
  7  8  1  0
  8  9  2  0
  9 10  1  0
 10 11  2  0
 11 12  1  0
 12 13  1  0
 13 14  1  0
 14 15  1  0
 15 16  1  0
 10 17  1  0
 17 18  1  0
 18 19  2  0
 19 20  1  0
 20 21  2  0
 21 22  1  0
 22 23  2  0
 23 24  1  0
 24 25  1  0
 25 26  2  0
 25 27  1  0
 27 28  1  0
 28 29  2  0
 29 30  1  0
 30 31  2  0
 31 32  1  0
 31 33  1  0
 33 34  2  0
 34 35  1  0
 23 36  1  0
 36 37  2  0
 18 38  1  0
  6 39  1  0
 39 40  2  0
 40  3  1  0
 38  8  1  0
 16 12  1  0
 37 20  1  0
 34 28  1  0
  4 41  1  0
  5 42  1  0
  7 43  1  0
  9 44  1  0
 12 45  1  6
 13 46  1  0
 13 47  1  0
 14 48  1  0
 14 49  1  0
 15 50  1  0
 16 51  1  0
 16 52  1  0
 17 53  1  0
 21 54  1  0
 22 55  1  0
 24 56  1  0
 27 57  1  0
 29 58  1  0
 30 59  1  0
 33 60  1  0
 36 61  1  0
 37 62  1  0
 38 63  1  0
 39 64  1  0
 40 65  1  0
M  END
>  <smiles>  (56) 
N#Cc1ccc(Nc2cc(=NC3CCNC3)[nH]c(=Nc3ccc(NC(=O)Nc4ccc(F)cc4F)cc3)[nH]2)cc1

>  <score_type>  (56) 
oracle

>  <origin>  (56) 
adg

>  <m_score__min__energy>  (56) 
-9.3699999999999992

>  <m_primary>  (56) 
energy

$$$$
57:0
     RDKit          3D

 35 37  0  0  0  0  0  0  0  0999 V2000
   56.2910   30.9100   44.4970 C   0  0  0  0  0  0  0  0  0  0  0  0
   57.2040   29.9510   45.2160 C   0  0  0  0  0  0  0  0  0  0  0  0
   58.4400   30.3970   45.7230 C   0  0  0  0  0  0  0  0  0  0  0  0
   58.8360   31.7170   45.5220 O   0  0  0  0  0  0  0  0  0  0  0  0
   59.2720   29.5180   46.4410 C   0  0  0  0  0  0  0  0  0  0  0  0
   60.6180   29.9660   46.9560 C   0  0  0  0  0  0  0  0  0  0  0  0
   60.4990   31.3040   47.6360 C   0  0  0  0  0  0  0  0  0  0  0  0
   59.5330   31.5060   48.6360 C   0  0  0  0  0  0  0  0  0  0  0  0
   59.4440   32.7380   49.2910 C   0  0  0  0  0  0  0  0  0  0  0  0
   60.3240   33.7740   48.9590 C   0  0  0  0  0  0  0  0  0  0  0  0
   61.2920   33.5770   47.9720 C   0  0  0  0  0  0  0  0  0  0  0  0
   61.3850   32.3460   47.3140 C   0  0  0  0  0  0  0  0  0  0  0  0
   58.8660   28.1900   46.6330 C   0  0  0  0  0  0  0  0  0  0  0  0
   57.6410   27.7310   46.1350 C   0  0  0  0  0  0  0  0  0  0  0  0
   57.2640   26.3210   46.3740 C   0  0  0  0  0  0  0  0  0  0  0  0
   58.1250   25.3380   46.4840 O   0  0  0  0  0  0  0  0  0  0  0  0
   57.4240   24.2420   46.6700 C   0  0  0  0  0  0  0  0  0  0  0  0
   57.9470   23.1070   46.8210 O   0  0  0  0  0  0  0  0  0  0  0  0
   56.0890   24.4430   46.6780 N   0  0  0  0  0  0  0  0  0  0  0  0
   56.0010   25.7720   46.4820 C   0  0  0  0  0  0  0  0  0  0  0  0
   54.7960   26.4560   46.3630 O   0  0  0  0  0  0  0  0  0  0  0  0
   56.7920   28.6250   45.4560 C   0  0  0  0  0  0  0  0  0  0  0  0
   55.5240   28.2160   45.0500 O   0  0  0  0  0  0  0  0  0  0  0  0
   55.7276   31.5018   45.2334 H   0  0  0  0  0  0  0  0  0  0  0  0
   56.8899   31.5835   43.8663 H   0  0  0  0  0  0  0  0  0  0  0  0
   55.5889   30.3449   43.8663 H   0  0  0  0  0  0  0  0  0  0  0  0
   60.9957   29.2253   47.6763 H   0  0  0  0  0  0  0  0  0  0  0  0
   61.3132   30.0563   46.1083 H   0  0  0  0  0  0  0  0  0  0  0  0
   58.8440   30.6917   48.9047 H   0  0  0  0  0  0  0  0  0  0  0  0
   58.6812   32.8931   50.0683 H   0  0  0  0  0  0  0  0  0  0  0  0
   60.2533   34.7428   49.4751 H   0  0  0  0  0  0  0  0  0  0  0  0
   61.9832   34.3920   47.7112 H   0  0  0  0  0  0  0  0  0  0  0  0
   62.1539   32.1933   46.5423 H   0  0  0  0  0  0  0  0  0  0  0  0
   59.5202   27.4980   47.1835 H   0  0  0  0  0  0  0  0  0  0  0  0
   54.7750   27.4680   46.3620 H   0  0  0  0  0  0  0  0  0  0  0  0
  1  2  1  0
  2  3  2  0
  3  4  1  0
  3  5  1  0
  5  6  1  0
  6  7  1  0
  7  8  2  0
  8  9  1  0
  9 10  2  0
 10 11  1  0
 11 12  2  0
  5 13  2  0
 13 14  1  0
 14 15  1  0
 15 16  1  0
 16 17  1  0
 17 18  2  0
 17 19  1  0
 19 20  1  0
 20 21  1  0
 14 22  2  0
 22 23  1  0
 22  2  1  0
 12  7  1  0
 20 15  2  0
  1 24  1  0
  1 25  1  0
  1 26  1  0
  6 27  1  0
  6 28  1  0
  8 29  1  0
  9 30  1  0
 10 31  1  0
 11 32  1  0
 12 33  1  0
 13 34  1  0
 21 35  1  0
M  CHG  3   4  -1  19  -1  23  -1
M  END
>  <UniqueID>  (57) 
53

>  <SMILES>  (57) 
Cc1c([O-])c(Cc2ccccc2)cc(-c2oc(=O)[n-]c2O)c1[O-]

>  <Energy>  (57) 
74.05426819921126

>  <Genealogy>  (57) 
Cc1c([O-])c(Cc2ccccc2)cc(-c2oc(=O)[n-]c2O)c1[O-] (protonated)
Cc1c([O-])c(Cc2ccccc2)cc(-c2oc(=O)[n-]c2O)c1[O-] (3D coordinates assigned)
Cc1c([O-])c(Cc2ccccc2)cc(-c2oc(=O)[n-]c2O)c1[O-] (optimized conformer: 74.05426819921126 kcal/mol)

>  <smiles>  (57) 
Cc1c(O)c(Cc2ccccc2)cc(-c2oc(=O)[nH]c2O)c1O

>  <score_type>  (57) 
oracle

>  <origin>  (57) 
adg

>  <m_score__min__energy>  (57) 
-14.050000000000001

>  <m_primary>  (57) 
energy

$$$$
58:0
     RDKit          3D

 46 48  0  0  0  0  0  0  0  0999 V2000
   59.6340   34.4080   46.3980 C   0  0  0  0  0  0  0  0  0  0  0  0
   58.9140   33.2010   45.8550 C   0  0  0  0  0  0  0  0  0  0  0  0
   57.7500   33.3970   45.0920 C   0  0  0  0  0  0  0  0  0  0  0  0
   57.0640   32.3120   44.5460 C   0  0  0  0  0  0  0  0  0  0  0  0
   57.5250   31.0110   44.7560 C   0  0  0  0  0  0  0  0  0  0  0  0
   56.6430   29.6540   44.0580 S   0  0  0  0  0  0  0  0  0  0  0  0
   56.2450   29.9930   42.6490 O   0  0  0  0  0  0  0  0  0  0  0  0
   55.3990   29.3960   44.8630 O   0  0  0  0  0  0  0  0  0  0  0  0
   57.6300   28.2170   44.0450 N   0  0  0  0  0  0  0  0  0  0  0  0
   57.7720   27.4730   42.7920 C   0  0  0  0  0  0  0  0  0  0  0  0
   58.3440   27.7970   45.2270 C   0  0  0  0  0  0  0  0  0  0  0  0
   59.7520   27.7900   45.2530 C   0  0  0  0  0  0  0  0  0  0  0  0
   60.4390   27.3680   46.3940 C   0  0  0  0  0  0  0  0  0  0  0  0
   59.7330   26.9450   47.5210 C   0  0  0  0  0  0  0  0  0  0  0  0
   58.3370   26.9400   47.5080 C   0  0  0  0  0  0  0  0  0  0  0  0
   57.6440   27.3600   46.3690 C   0  0  0  0  0  0  0  0  0  0  0  0
   58.6760   30.7990   45.5250 C   0  0  0  0  0  0  0  0  0  0  0  0
   59.3770   31.8800   46.0900 C   0  0  0  0  0  0  0  0  0  0  0  0
   60.5670   31.5870   46.9270 C   0  0  0  0  0  0  0  0  0  0  0  0
   61.2880   30.5860   46.6690 O   0  0  0  0  0  0  0  0  0  0  0  0
   60.8990   32.4420   48.0350 N   0  0  0  0  0  0  0  0  0  0  0  0
   62.1900   32.4550   48.6700 C   0  0  0  0  0  0  0  0  0  0  0  0
   62.3830   31.8490   49.9240 C   0  0  0  0  0  0  0  0  0  0  0  0
   63.6470   31.8410   50.5120 C   0  0  0  0  0  0  0  0  0  0  0  0
   64.7170   32.4300   49.8400 C   0  0  0  0  0  0  0  0  0  0  0  0
   64.5250   33.0000   48.6220 N   0  0  0  0  0  0  0  0  0  0  0  0
   63.3040   33.0220   48.0210 C   0  0  0  0  0  0  0  0  0  0  0  0
   63.1560   33.8000   46.4530 Cl  0  0  0  0  0  0  0  0  0  0  0  0
   59.6177   34.3807   47.4975 H   0  0  0  0  0  0  0  0  0  0  0  0
   60.6763   34.4021   46.0464 H   0  0  0  0  0  0  0  0  0  0  0  0
   59.1336   35.3223   46.0464 H   0  0  0  0  0  0  0  0  0  0  0  0
   57.3757   34.4175   44.9235 H   0  0  0  0  0  0  0  0  0  0  0  0
   56.1566   32.4821   43.9479 H   0  0  0  0  0  0  0  0  0  0  0  0
   57.9739   26.4149   43.0147 H   0  0  0  0  0  0  0  0  0  0  0  0
   56.8421   27.5542   42.2100 H   0  0  0  0  0  0  0  0  0  0  0  0
   58.6066   27.8910   42.2100 H   0  0  0  0  0  0  0  0  0  0  0  0
   60.3155   28.1195   44.3677 H   0  0  0  0  0  0  0  0  0  0  0  0
   61.5390   27.3692   46.4040 H   0  0  0  0  0  0  0  0  0  0  0  0
   60.2762   26.6157   48.4191 H   0  0  0  0  0  0  0  0  0  0  0  0
   57.7811   26.6048   48.3961 H   0  0  0  0  0  0  0  0  0  0  0  0
   56.5441   27.3493   46.3642 H   0  0  0  0  0  0  0  0  0  0  0  0
   59.0370   29.7730   45.6896 H   0  0  0  0  0  0  0  0  0  0  0  0
   60.1420   33.0420   48.4320 H   0  0  0  0  0  0  0  0  0  0  0  0
   61.5340   31.3798   50.4427 H   0  0  0  0  0  0  0  0  0  0  0  0
   63.7986   31.3745   51.4966 H   0  0  0  0  0  0  0  0  0  0  0  0
   65.7178   32.4332   50.2965 H   0  0  0  0  0  0  0  0  0  0  0  0
  1  2  1  0
  2  3  2  0
  3  4  1  0
  4  5  2  0
  5  6  1  0
  6  7  2  0
  6  8  2  0
  6  9  1  0
  9 10  1  0
  9 11  1  0
 11 12  2  0
 12 13  1  0
 13 14  2  0
 14 15  1  0
 15 16  2  0
  5 17  1  0
 17 18  2  0
 18 19  1  0
 19 20  2  0
 19 21  1  0
 21 22  1  0
 22 23  2  0
 23 24  1  0
 24 25  2  0
 25 26  1  0
 26 27  2  0
 27 28  1  0
 18  2  1  0
 27 22  1  0
 16 11  1  0
  1 29  1  0
  1 30  1  0
  1 31  1  0
  3 32  1  0
  4 33  1  0
 10 34  1  0
 10 35  1  0
 10 36  1  0
 12 37  1  0
 13 38  1  0
 14 39  1  0
 15 40  1  0
 16 41  1  0
 17 42  1  0
 21 43  1  0
 23 44  1  0
 24 45  1  0
 25 46  1  0
M  END
>  <UniqueID>  (58) 
54

>  <SMILES>  (58) 
Cc1ccc(S(=O)(=O)N(C)c2ccccc2)cc1C(=O)Nc1cccnc1Cl

>  <Energy>  (58) 
62.057977445210994

>  <Genealogy>  (58) 
Cc1ccc(S(=O)(=O)N(C)c2ccccc2)cc1C(=O)Nc1cccnc1Cl (3D coordinates assigned)
Cc1ccc(S(=O)(=O)N(C)c2ccccc2)cc1C(=O)Nc1cccnc1Cl (optimized conformer: 62.057977445210994 kcal/mol)

>  <smiles>  (58) 
Cc1ccc(S(=O)(=O)N(C)c2ccccc2)cc1C(=O)Nc1cccnc1Cl

>  <score_type>  (58) 
oracle

>  <origin>  (58) 
adg

>  <m_score__min__energy>  (58) 
-9.6799999999999997

>  <m_primary>  (58) 
energy

$$$$
59:0
     RDKit          3D

 53 56  0  0  1  0  0  0  0  0999 V2000
   57.9730   29.2320   43.9700 N   0  0  0  0  0  0  0  0  0  0  0  0
   57.0590   28.6410   44.8720 C   0  0  0  0  0  0  0  0  0  0  0  0
   55.9150   29.1770   44.9310 O   0  0  0  0  0  0  0  0  0  0  0  0
   57.3000   27.5060   45.7310 C   0  0  0  0  0  0  0  0  0  0  0  0
   56.4040   26.4370   45.6000 C   0  0  0  0  0  0  0  0  0  0  0  0
   56.4600   25.3170   46.3840 C   0  0  0  0  0  0  0  0  0  0  0  0
   57.4220   25.2270   47.3360 C   0  0  0  0  0  0  0  0  0  0  0  0
   58.3120   26.2590   47.4810 C   0  0  0  0  0  0  0  0  0  0  0  0
   58.2720   27.4160   46.6830 C   0  0  0  0  0  0  0  0  0  0  0  0
   59.2840   28.4000   46.9670 C   0  0  0  0  0  0  0  0  0  0  0  0
   59.4600   29.0810   48.1390 C   0  0  0  0  0  0  0  0  0  0  0  0
   60.4330   30.0850   48.2600 C   0  0  0  0  0  0  0  0  0  0  0  0
   60.6050   30.7240   49.3510 N   0  0  0  0  0  0  0  0  0  0  0  0
   61.7620   30.4990   50.1560 C   0  0  0  0  0  0  0  0  0  0  0  0
   62.8190   31.5260   49.9550 C   0  0  0  0  0  0  0  0  0  0  0  0
   64.1070   31.3210   50.4550 C   0  0  0  0  0  0  0  0  0  0  0  0
   65.1130   32.2470   50.2880 C   0  0  0  0  0  0  0  0  0  0  0  0
   64.8650   33.4100   49.6140 C   0  0  0  0  0  0  0  0  0  0  0  0
   63.5940   33.6610   49.0950 C   0  0  0  0  0  0  0  0  0  0  0  0
   62.5890   32.7130   49.2740 C   0  0  0  0  0  0  0  0  0  0  0  0
   61.2830   32.9810   48.7390 N   0  0  0  0  0  0  0  0  0  0  0  0
   61.0960   33.2600   47.3680 C   0  0  0  0  0  0  0  0  0  0  0  0
   62.1600   33.2580   46.6620 O   0  0  0  0  0  0  0  0  0  0  0  0
   59.8340   33.5410   46.7250 C   0  0  0  0  0  0  0  0  0  0  0  0
   59.8490   34.2890   45.5600 C   0  0  0  0  0  0  0  0  0  0  0  0
   58.6970   34.6110   44.8780 C   0  0  0  0  0  0  0  0  0  0  0  0
   57.4510   34.1910   45.3390 C   0  0  0  0  0  0  0  0  0  0  0  0
   57.4430   33.4530   46.4910 C   0  0  0  0  0  0  0  0  0  0  0  0
   58.6000   33.1340   47.1690 C   0  0  0  0  0  0  0  0  0  0  0  0
   58.4730   32.4010   48.2910 F   0  0  0  0  0  0  0  0  0  0  0  0
   61.2240   30.4070   47.2190 N   0  0  0  0  0  0  0  0  0  0  0  0
   61.0280   29.7230   46.0790 C   0  0  0  0  0  0  0  0  0  0  0  0
   60.1030   28.7570   45.9380 N   0  0  0  0  0  0  0  0  0  0  0  0
   58.9300   29.4460   44.3440 H   0  0  0  0  0  0  0  0  0  0  0  0
   57.7610   29.4610   42.9840 H   0  0  0  0  0  0  0  0  0  0  0  0
   55.6195   26.5010   44.8316 H   0  0  0  0  0  0  0  0  0  0  0  0
   55.7353   24.5013   46.2443 H   0  0  0  0  0  0  0  0  0  0  0  0
   57.4868   24.3390   47.9820 H   0  0  0  0  0  0  0  0  0  0  0  0
   59.0903   26.1788   48.2541 H   0  0  0  0  0  0  0  0  0  0  0  0
   58.8264   28.8372   49.0045 H   0  0  0  0  0  0  0  0  0  0  0  0
   61.4603   30.5090   51.2138 H   0  0  0  0  0  0  0  0  0  0  0  0
   62.1858   29.5284   49.8588 H   0  0  0  0  0  0  0  0  0  0  0  0
   64.3249   30.3904   50.9995 H   0  0  0  0  0  0  0  0  0  0  0  0
   66.1152   32.0507   50.6967 H   0  0  0  0  0  0  0  0  0  0  0  0
   65.6685   34.1493   49.4804 H   0  0  0  0  0  0  0  0  0  0  0  0
   63.3885   34.5951   48.5517 H   0  0  0  0  0  0  0  0  0  0  0  0
   60.4950   32.9580   49.4060 H   0  0  0  0  0  0  0  0  0  0  0  0
   60.8147   34.6381   45.1656 H   0  0  0  0  0  0  0  0  0  0  0  0
   58.7612   35.2081   43.9564 H   0  0  0  0  0  0  0  0  0  0  0  0
   56.5223   34.4398   44.8046 H   0  0  0  0  0  0  0  0  0  0  0  0
   56.4799   33.1020   46.8900 H   0  0  0  0  0  0  0  0  0  0  0  0
   61.9640   31.1470   47.2600 H   0  0  0  0  0  0  0  0  0  0  0  0
   61.6598   29.9670   45.2122 H   0  0  0  0  0  0  0  0  0  0  0  0
  1  2  1  0
  2  3  2  0
  2  4  1  0
  4  5  2  0
  5  6  1  0
  6  7  2  0
  7  8  1  0
  8  9  2  0
  9 10  1  0
 10 11  2  0
 11 12  1  0
 12 13  2  0
 13 14  1  0
 14 15  1  0
 15 16  2  0
 16 17  1  0
 17 18  2  0
 18 19  1  0
 19 20  2  0
 20 21  1  0
 21 22  1  0
 22 23  2  0
 22 24  1  0
 24 25  2  0
 25 26  1  0
 26 27  2  0
 27 28  1  0
 28 29  2  0
 29 30  1  0
 12 31  1  0
 31 32  1  0
 32 33  2  0
  9  4  1  0
 33 10  1  0
 20 15  1  0
 29 24  1  0
  1 34  1  0
  1 35  1  0
  5 36  1  0
  6 37  1  0
  7 38  1  0
  8 39  1  0
 11 40  1  0
 14 41  1  0
 14 42  1  0
 16 43  1  0
 17 44  1  0
 18 45  1  0
 19 46  1  0
 21 47  1  0
 25 48  1  0
 26 49  1  0
 27 50  1  0
 28 51  1  0
 31 52  1  0
 32 53  1  0
M  END
>  <smiles>  (59) 
NC(=O)c1ccccc1-c1cc(=NCc2ccccc2NC(=O)c2ccccc2F)[nH]cn1

>  <score_type>  (59) 
oracle

>  <origin>  (59) 
adg

>  <m_score__min__energy>  (59) 
-9.9499999999999993

>  <m_primary>  (59) 
energy

$$$$
60:0
     RDKit          3D

 47 49  0  0  0  0  0  0  0  0999 V2000
   55.5190   29.0000   44.8870 O   0  0  0  0  0  0  0  0  0  0  0  0
   56.6020   29.6380   44.9550 C   0  0  0  0  0  0  0  0  0  0  0  0
   56.5670   31.0670   44.8450 N   0  0  0  0  0  0  0  0  0  0  0  0
   57.3980   31.8610   43.9470 C   0  0  0  0  0  0  0  0  0  0  0  0
   58.1560   32.9060   44.7250 C   0  0  0  0  0  0  0  0  0  0  0  0
   58.7740   33.7550   44.0970 O   0  0  0  0  0  0  0  0  0  0  0  0
   58.1900   32.8820   46.1860 N   0  0  0  0  0  0  0  0  0  0  0  0
   58.5210   34.1930   46.8000 C   0  0  0  0  0  0  0  0  0  0  0  0
   60.0190   34.5400   46.6930 C   0  0  0  0  0  0  0  0  0  0  0  0
   60.8500   33.4470   47.2380 N   0  0  0  0  0  0  0  0  0  0  0  0
   62.2860   33.7780   47.1370 C   0  0  0  0  0  0  0  0  0  0  0  0
   62.9370   33.7090   48.4940 C   0  0  0  0  0  0  0  0  0  0  0  0
   62.2770   34.2020   49.6290 C   0  0  0  0  0  0  0  0  0  0  0  0
   62.8820   34.1190   50.8840 C   0  0  0  0  0  0  0  0  0  0  0  0
   64.1460   33.5400   51.0200 C   0  0  0  0  0  0  0  0  0  0  0  0
   64.8220   33.0350   49.8930 C   0  0  0  0  0  0  0  0  0  0  0  0
   66.1230   32.4350   50.0260 N   0  0  0  0  0  0  0  0  0  0  0  0
   67.1560   33.0830   49.7520 O   0  0  0  0  0  0  0  0  0  0  0  0
   66.2540   31.1380   50.4670 O   0  0  0  0  0  0  0  0  0  0  0  0
   64.2060   33.1250   48.6320 C   0  0  0  0  0  0  0  0  0  0  0  0
   60.5620   32.1950   46.5190 C   0  0  0  0  0  0  0  0  0  0  0  0
   59.0860   31.8250   46.7020 C   0  0  0  0  0  0  0  0  0  0  0  0
   57.8570   28.8860   45.1230 C   0  0  0  0  0  0  0  0  0  0  0  0
   59.0730   29.1460   44.4980 C   0  0  0  0  0  0  0  0  0  0  0  0
   60.1080   28.3080   44.9310 C   0  0  0  0  0  0  0  0  0  0  0  0
   59.7210   27.4020   45.9100 C   0  0  0  0  0  0  0  0  0  0  0  0
   58.0920   27.6510   46.2420 S   0  0  0  0  0  0  0  0  0  0  0  0
   58.1128   31.2004   43.4345 H   0  0  0  0  0  0  0  0  0  0  0  0
   56.7526   32.3610   43.2098 H   0  0  0  0  0  0  0  0  0  0  0  0
   57.2210   32.6470   46.5050 H   0  0  0  0  0  0  0  0  0  0  0  0
   57.9412   34.9765   46.2902 H   0  0  0  0  0  0  0  0  0  0  0  0
   58.2703   34.1313   47.8693 H   0  0  0  0  0  0  0  0  0  0  0  0
   60.2782   34.6975   45.6356 H   0  0  0  0  0  0  0  0  0  0  0  0
   60.2121   35.4537   47.2743 H   0  0  0  0  0  0  0  0  0  0  0  0
   62.7768   33.0609   46.4626 H   0  0  0  0  0  0  0  0  0  0  0  0
   62.3901   34.7996   46.7426 H   0  0  0  0  0  0  0  0  0  0  0  0
   61.2797   34.6554   49.5298 H   0  0  0  0  0  0  0  0  0  0  0  0
   62.3612   34.5112   51.7700 H   0  0  0  0  0  0  0  0  0  0  0  0
   64.6156   33.4783   52.0128 H   0  0  0  0  0  0  0  0  0  0  0  0
   64.7242   32.7335   47.7442 H   0  0  0  0  0  0  0  0  0  0  0  0
   60.7755   32.3302   45.4484 H   0  0  0  0  0  0  0  0  0  0  0  0
   61.1933   31.3891   46.9214 H   0  0  0  0  0  0  0  0  0  0  0  0
   58.8830   30.8895   46.1601 H   0  0  0  0  0  0  0  0  0  0  0  0
   58.8927   31.7065   47.7784 H   0  0  0  0  0  0  0  0  0  0  0  0
   59.2077   29.9313   43.7396 H   0  0  0  0  0  0  0  0  0  0  0  0
   61.1320   28.3622   44.5329 H   0  0  0  0  0  0  0  0  0  0  0  0
   60.3687   26.6511   46.3860 H   0  0  0  0  0  0  0  0  0  0  0  0
  1  2  2  0
  2  3  1  0
  3  4  1  0
  4  5  1  0
  5  6  2  0
  5  7  1  0
  7  8  1  0
  8  9  1  0
  9 10  1  0
 10 11  1  0
 11 12  1  0
 12 13  2  0
 13 14  1  0
 14 15  2  0
 15 16  1  0
 16 17  1  0
 17 18  2  0
 17 19  1  0
 16 20  2  0
 10 21  1  0
 21 22  1  0
  2 23  1  0
 23 24  2  0
 24 25  1  0
 25 26  2  0
 26 27  1  0
 22  7  1  0
 27 23  1  0
 20 12  1  0
  4 28  1  0
  4 29  1  0
  7 30  1  0
  8 31  1  0
  8 32  1  0
  9 33  1  0
  9 34  1  0
 11 35  1  0
 11 36  1  0
 13 37  1  0
 14 38  1  0
 15 39  1  0
 20 40  1  0
 21 41  1  0
 21 42  1  0
 22 43  1  0
 22 44  1  0
 24 45  1  0
 25 46  1  0
 26 47  1  0
M  CHG  4   3  -1   7   1  17   1  19  -1
M  END
>  <UniqueID>  (60) 
55

>  <SMILES>  (60) 
O=C([N-]CC(=O)[NH+]1CCN(Cc2cccc([N+](=O)[O-])c2)CC1)c1cccs1

>  <Energy>  (60) 
84.68148856710843

>  <Genealogy>  (60) 
O=C([N-]CC(=O)[NH+]1CCN(Cc2cccc([N+](=O)[O-])c2)CC1)c1cccs1 (protonated)
O=C([N-]CC(=O)[NH+]1CCN(Cc2cccc([N+](=O)[O-])c2)CC1)c1cccs1 (3D coordinates assigned)
O=C([N-]CC(=O)[NH+]1CCN(Cc2cccc([N+](=O)[O-])c2)CC1)c1cccs1 (nonaromatic ring conformer: 84.68148856710843 kcal/mol)

>  <smiles>  (60) 
O=C(NCC(=O)N1CCN(Cc2cccc([N+](=O)[O-])c2)CC1)c1cccs1

>  <score_type>  (60) 
oracle

>  <origin>  (60) 
adg

>  <m_score__min__energy>  (60) 
-9.9299999999999997

>  <m_primary>  (60) 
energy

$$$$
61:0
     RDKit          3D

 51 54  0  0  0  0  0  0  0  0999 V2000
   60.3910   25.5180   46.0090 C   0  0  0  0  0  0  0  0  0  0  0  0
   58.9490   25.8970   46.1050 C   0  0  0  0  0  0  0  0  0  0  0  0
   57.9640   25.0910   45.7840 O   0  0  0  0  0  0  0  0  0  0  0  0
   56.8250   25.7310   45.9410 C   0  0  0  0  0  0  0  0  0  0  0  0
   57.0650   27.0170   46.3820 C   0  0  0  0  0  0  0  0  0  0  0  0
   58.4350   27.1210   46.4950 C   0  0  0  0  0  0  0  0  0  0  0  0
   59.1920   28.3330   46.8820 C   0  0  0  0  0  0  0  0  0  0  0  0
   59.8190   28.3480   48.1330 C   0  0  0  0  0  0  0  0  0  0  0  0
   59.7540   27.2230   48.9630 O   0  0  0  0  0  0  0  0  0  0  0  0
   60.5040   29.4970   48.5320 C   0  0  0  0  0  0  0  0  0  0  0  0
   61.0580   29.5270   49.6650 O   0  0  0  0  0  0  0  0  0  0  0  0
   60.5530   30.5870   47.7070 N   0  0  0  0  0  0  0  0  0  0  0  0
   61.2370   31.7820   48.1400 C   0  0  0  0  0  0  0  0  0  0  0  0
   62.3620   32.2480   47.4410 C   0  0  0  0  0  0  0  0  0  0  0  0
   63.0280   33.4000   47.8700 C   0  0  0  0  0  0  0  0  0  0  0  0
   62.5750   34.0930   48.9970 C   0  0  0  0  0  0  0  0  0  0  0  0
   61.4560   33.6340   49.6960 C   0  0  0  0  0  0  0  0  0  0  0  0
   60.7880   32.4820   49.2720 C   0  0  0  0  0  0  0  0  0  0  0  0
   59.9360   30.5580   46.4830 C   0  0  0  0  0  0  0  0  0  0  0  0
   59.9870   31.5790   45.7370 O   0  0  0  0  0  0  0  0  0  0  0  0
   59.2660   29.4340   46.0590 N   0  0  0  0  0  0  0  0  0  0  0  0
   58.5470   29.4680   44.7660 C   0  0  0  0  0  0  0  0  0  0  0  0
   57.2140   30.1480   44.9000 C   0  0  0  0  0  0  0  0  0  0  0  0
   56.1970   29.4830   45.2380 O   0  0  0  0  0  0  0  0  0  0  0  0
   57.1280   31.5570   44.6280 N   0  0  0  0  0  0  0  0  0  0  0  0
   56.9560   32.5210   45.4890 C   0  0  0  0  0  0  0  0  0  0  0  0
   57.9950   33.5100   45.8160 C   0  0  0  0  0  0  0  0  0  0  0  0
   58.3050   33.7860   47.1550 C   0  0  0  0  0  0  0  0  0  0  0  0
   59.2730   34.7460   47.4660 C   0  0  0  0  0  0  0  0  0  0  0  0
   59.9420   35.4250   46.4410 C   0  0  0  0  0  0  0  0  0  0  0  0
   59.6420   35.1440   45.1040 C   0  0  0  0  0  0  0  0  0  0  0  0
   58.6720   34.1860   44.7900 C   0  0  0  0  0  0  0  0  0  0  0  0
   60.8093   25.4080   47.0204 H   0  0  0  0  0  0  0  0  0  0  0  0
   60.4844   24.5648   45.4680 H   0  0  0  0  0  0  0  0  0  0  0  0
   60.9410   26.3021   45.4680 H   0  0  0  0  0  0  0  0  0  0  0  0
   55.8293   25.3046   45.7493 H   0  0  0  0  0  0  0  0  0  0  0  0
   56.3190   27.7959   46.5981 H   0  0  0  0  0  0  0  0  0  0  0  0
   60.2090   27.1900   49.8670 H   0  0  0  0  0  0  0  0  0  0  0  0
   62.7202   31.7054   46.5537 H   0  0  0  0  0  0  0  0  0  0  0  0
   63.9095   33.7617   47.3203 H   0  0  0  0  0  0  0  0  0  0  0  0
   63.0998   34.9995   49.3331 H   0  0  0  0  0  0  0  0  0  0  0  0
   61.1000   34.1804   50.5818 H   0  0  0  0  0  0  0  0  0  0  0  0
   59.9084   32.1225   49.8261 H   0  0  0  0  0  0  0  0  0  0  0  0
   59.1562   30.0153   44.0316 H   0  0  0  0  0  0  0  0  0  0  0  0
   58.3768   28.4325   44.4362 H   0  0  0  0  0  0  0  0  0  0  0  0
   55.9836   32.5988   45.9973 H   0  0  0  0  0  0  0  0  0  0  0  0
   57.7864   33.2470   47.9616 H   0  0  0  0  0  0  0  0  0  0  0  0
   59.5090   34.9678   48.5172 H   0  0  0  0  0  0  0  0  0  0  0  0
   60.7037   36.1796   46.6869 H   0  0  0  0  0  0  0  0  0  0  0  0
   60.1692   35.6767   44.2988 H   0  0  0  0  0  0  0  0  0  0  0  0
   58.4401   33.9627   43.7382 H   0  0  0  0  0  0  0  0  0  0  0  0
  1  2  1  0
  2  3  1  0
  3  4  1  0
  4  5  2  0
  5  6  1  0
  6  7  1  0
  7  8  2  0
  8  9  1  0
  8 10  1  0
 10 11  2  0
 10 12  1  0
 12 13  1  0
 13 14  2  0
 14 15  1  0
 15 16  2  0
 16 17  1  0
 17 18  2  0
 12 19  1  0
 19 20  2  0
 19 21  1  0
 21 22  1  0
 22 23  1  0
 23 24  2  0
 23 25  1  0
 25 26  2  3
 26 27  1  0
 27 28  2  0
 28 29  1  0
 29 30  2  0
 30 31  1  0
 31 32  2  0
  6  2  2  0
 21  7  1  0
 32 27  1  0
 18 13  1  0
  1 33  1  0
  1 34  1  0
  1 35  1  0
  4 36  1  0
  5 37  1  0
  9 38  1  0
 14 39  1  0
 15 40  1  0
 16 41  1  0
 17 42  1  0
 18 43  1  0
 22 44  1  0
 22 45  1  0
 26 46  1  0
 28 47  1  0
 29 48  1  0
 30 49  1  0
 31 50  1  0
 32 51  1  0
M  END
>  <UniqueID>  (61) 
56

>  <SMILES>  (61) 
Cc1occc1-c1c(O)c(=O)n(-c2ccccc2)c(=O)n1CC(=O)N=Cc1ccccc1

>  <Energy>  (61) 
113.38467291117509

>  <Genealogy>  (61) 
Cc1occc1-c1c(O)c(=O)n(-c2ccccc2)c(=O)n1CC(=O)N=Cc1ccccc1 (3D coordinates assigned)
Cc1occc1-c1c(O)c(=O)n(-c2ccccc2)c(=O)n1CC(=O)N=Cc1ccccc1 (optimized conformer: 113.38467291117509 kcal/mol)

>  <smiles>  (61) 
Cc1occc1-c1c(O)c(=O)n(-c2ccccc2)c(=O)n1CC(=O)N=Cc1ccccc1

>  <score_type>  (61) 
oracle

>  <origin>  (61) 
adg

>  <m_score__min__energy>  (61) 
-8.8900000000000006

>  <m_primary>  (61) 
energy

$$$$
62:0
     RDKit          3D

 29 30  0  0  0  0  0  0  0  0999 V2000
   62.7930   33.1570   47.2420 C   0  0  0  0  0  0  0  0  0  0  0  0
   61.3220   32.2470   47.8040 S   0  0  0  0  0  0  0  0  0  0  0  0
   60.2000   33.1610   46.7340 C   0  0  0  0  0  0  0  0  0  0  0  0
   60.4680   34.5120   46.4780 C   0  0  0  0  0  0  0  0  0  0  0  0
   59.6310   35.2500   45.6400 C   0  0  0  0  0  0  0  0  0  0  0  0
   58.5170   34.6470   45.0560 C   0  0  0  0  0  0  0  0  0  0  0  0
   58.2390   33.3010   45.3060 C   0  0  0  0  0  0  0  0  0  0  0  0
   59.0800   32.5400   46.1400 C   0  0  0  0  0  0  0  0  0  0  0  0
   58.7750   31.1600   46.4140 N   0  0  0  0  0  0  0  0  0  0  0  0
   58.4020   30.2220   45.3910 C   0  0  0  0  0  0  0  0  0  0  0  0
   58.6570   30.4820   44.1830 O   0  0  0  0  0  0  0  0  0  0  0  0
   57.7590   28.9320   45.7380 C   0  0  0  0  0  0  0  0  0  0  0  0
   58.4200   27.9750   46.5280 C   0  0  0  0  0  0  0  0  0  0  0  0
   57.7900   26.7700   46.8460 C   0  0  0  0  0  0  0  0  0  0  0  0
   56.4980   26.5280   46.3760 C   0  0  0  0  0  0  0  0  0  0  0  0
   55.9160   25.4470   46.6530 O   0  0  0  0  0  0  0  0  0  0  0  0
   55.8640   27.4620   45.6200 N   0  0  0  0  0  0  0  0  0  0  0  0
   56.4540   28.6450   45.2980 C   0  0  0  0  0  0  0  0  0  0  0  0
   63.3621   33.5091   48.1150 H   0  0  0  0  0  0  0  0  0  0  0  0
   63.4258   32.4924   46.6355 H   0  0  0  0  0  0  0  0  0  0  0  0
   62.4808   34.0200   46.6355 H   0  0  0  0  0  0  0  0  0  0  0  0
   61.3426   34.9935   46.9398 H   0  0  0  0  0  0  0  0  0  0  0  0
   59.8501   36.3092   45.4396 H   0  0  0  0  0  0  0  0  0  0  0  0
   57.8570   35.2317   44.3982 H   0  0  0  0  0  0  0  0  0  0  0  0
   57.3559   32.8320   44.8475 H   0  0  0  0  0  0  0  0  0  0  0  0
   58.9260   30.8010   47.3820 H   0  0  0  0  0  0  0  0  0  0  0  0
   59.4366   28.1761   46.8967 H   0  0  0  0  0  0  0  0  0  0  0  0
   58.3069   26.0186   47.4610 H   0  0  0  0  0  0  0  0  0  0  0  0
   55.9075   29.3811   44.6902 H   0  0  0  0  0  0  0  0  0  0  0  0
  1  2  1  0
  2  3  1  0
  3  4  2  0
  4  5  1  0
  5  6  2  0
  6  7  1  0
  7  8  2  0
  8  9  1  0
  9 10  1  0
 10 11  2  0
 10 12  1  0
 12 13  1  0
 13 14  2  0
 14 15  1  0
 15 16  2  0
 15 17  1  0
 17 18  1  0
  8  3  1  0
 18 12  2  0
  1 19  1  0
  1 20  1  0
  1 21  1  0
  4 22  1  0
  5 23  1  0
  6 24  1  0
  7 25  1  0
  9 26  1  0
 13 27  1  0
 14 28  1  0
 18 29  1  0
M  CHG  1  17  -1
M  END
>  <UniqueID>  (62) 
57

>  <SMILES>  (62) 
CSc1ccccc1NC(=O)c1ccc(=O)[n-]c1

>  <Energy>  (62) 
32.85702616489222

>  <Genealogy>  (62) 
CSc1ccccc1NC(=O)c1ccc(=O)[n-]c1 (protonated)
CSc1ccccc1NC(=O)c1ccc(=O)[n-]c1 (3D coordinates assigned)
CSc1ccccc1NC(=O)c1ccc(=O)[n-]c1 (optimized conformer: 32.85702616489222 kcal/mol)

>  <smiles>  (62) 
CSc1ccccc1NC(=O)c1ccc(=O)[nH]c1

>  <score_type>  (62) 
oracle

>  <origin>  (62) 
adg

>  <m_score__min__energy>  (62) 
-8.6400000000000006

>  <m_primary>  (62) 
energy

$$$$
63:0
     RDKit          3D

 51 53  0  0  0  0  0  0  0  0999 V2000
   55.5220   28.8140   44.9910 N   0  0  0  0  0  0  0  0  0  0  0  0
   56.7020   29.9720   44.4890 S   0  0  0  0  0  0  0  0  0  0  0  0
   56.2370   31.3580   44.8510 O   0  0  0  0  0  0  0  0  0  0  0  0
   56.8620   29.8840   42.9960 O   0  0  0  0  0  0  0  0  0  0  0  0
   58.2390   29.6380   45.2890 C   0  0  0  0  0  0  0  0  0  0  0  0
   59.3730   29.2850   44.5440 C   0  0  0  0  0  0  0  0  0  0  0  0
   60.5950   29.0710   45.1910 C   0  0  0  0  0  0  0  0  0  0  0  0
   60.6820   29.1700   46.5840 C   0  0  0  0  0  0  0  0  0  0  0  0
   59.5440   29.4800   47.3460 C   0  0  0  0  0  0  0  0  0  0  0  0
   59.6570   29.6110   48.7750 N   0  0  0  0  0  0  0  0  0  0  0  0
   59.3530   30.8230   49.4820 C   0  0  0  0  0  0  0  0  0  0  0  0
   58.5150   31.6390   49.0150 O   0  0  0  0  0  0  0  0  0  0  0  0
   60.0520   31.1410   50.7650 C   0  0  0  0  0  0  0  0  0  0  0  0
   60.3680   32.9370   50.8690 S   0  0  0  0  0  0  0  0  0  0  0  0
   62.0510   32.8290   50.2170 C   0  0  0  0  0  0  0  0  0  0  0  0
   63.0550   32.8030   51.1330 N   0  0  0  0  0  0  0  0  0  0  0  0
   64.3510   32.7590   50.7640 C   0  0  0  0  0  0  0  0  0  0  0  0
   65.2560   32.7530   51.6410 O   0  0  0  0  0  0  0  0  0  0  0  0
   64.6780   32.7270   49.4170 C   0  0  0  0  0  0  0  0  0  0  0  0
   63.6530   32.7300   48.4640 C   0  0  0  0  0  0  0  0  0  0  0  0
   64.0300   32.6870   47.0770 N   0  0  0  0  0  0  0  0  0  0  0  0
   62.3330   32.7810   48.8690 N   0  0  0  0  0  0  0  0  0  0  0  0
   61.2400   32.7520   47.8690 C   0  0  0  0  0  0  0  0  0  0  0  0
   60.4740   34.0870   47.8280 C   0  0  0  0  0  0  0  0  0  0  0  0
   59.3720   34.0600   46.7970 C   0  0  0  0  0  0  0  0  0  0  0  0
   58.0450   33.8110   47.1870 C   0  0  0  0  0  0  0  0  0  0  0  0
   57.0280   33.7630   46.2310 C   0  0  0  0  0  0  0  0  0  0  0  0
   57.3290   33.9520   44.8780 C   0  0  0  0  0  0  0  0  0  0  0  0
   58.6510   34.1810   44.4820 C   0  0  0  0  0  0  0  0  0  0  0  0
   59.6690   34.2380   45.4350 C   0  0  0  0  0  0  0  0  0  0  0  0
   58.3260   29.7330   46.6860 C   0  0  0  0  0  0  0  0  0  0  0  0
   54.6650   29.3440   45.2620 H   0  0  0  0  0  0  0  0  0  0  0  0
   59.3021   29.1764   43.4517 H   0  0  0  0  0  0  0  0  0  0  0  0
   61.4908   28.8240   44.6023 H   0  0  0  0  0  0  0  0  0  0  0  0
   61.6472   29.0041   47.0849 H   0  0  0  0  0  0  0  0  0  0  0  0
   59.9740   28.7770   49.3300 H   0  0  0  0  0  0  0  0  0  0  0  0
   59.4208   30.8317   51.6111 H   0  0  0  0  0  0  0  0  0  0  0  0
   61.0098   30.6011   50.8002 H   0  0  0  0  0  0  0  0  0  0  0  0
   65.7312   32.6996   49.1009 H   0  0  0  0  0  0  0  0  0  0  0  0
   64.7920   32.0860   46.7050 H   0  0  0  0  0  0  0  0  0  0  0  0
   63.4990   33.2450   46.3720 H   0  0  0  0  0  0  0  0  0  0  0  0
   61.6701   32.5565   46.8756 H   0  0  0  0  0  0  0  0  0  0  0  0
   60.5336   31.9585   48.1542 H   0  0  0  0  0  0  0  0  0  0  0  0
   60.0331   34.2769   48.8177 H   0  0  0  0  0  0  0  0  0  0  0  0
   61.1822   34.8835   47.5559 H   0  0  0  0  0  0  0  0  0  0  0  0
   57.8064   33.6533   48.2492 H   0  0  0  0  0  0  0  0  0  0  0  0
   55.9896   33.5764   46.5422 H   0  0  0  0  0  0  0  0  0  0  0  0
   56.5268   33.9206   44.1260 H   0  0  0  0  0  0  0  0  0  0  0  0
   58.8888   34.3165   43.4166 H   0  0  0  0  0  0  0  0  0  0  0  0
   60.7064   34.4227   45.1193 H   0  0  0  0  0  0  0  0  0  0  0  0
   57.4355   30.0074   47.2706 H   0  0  0  0  0  0  0  0  0  0  0  0
  1  2  1  0
  2  3  2  0
  2  4  2  0
  2  5  1  0
  5  6  2  0
  6  7  1  0
  7  8  2  0
  8  9  1  0
  9 10  1  0
 10 11  1  0
 11 12  2  0
 11 13  1  0
 13 14  1  0
 14 15  1  0
 15 16  2  0
 16 17  1  0
 17 18  2  0
 17 19  1  0
 19 20  2  0
 20 21  1  0
 20 22  1  0
 22 23  1  0
 23 24  1  0
 24 25  1  0
 25 26  2  0
 26 27  1  0
 27 28  2  0
 28 29  1  0
 29 30  2  0
  9 31  2  0
 31  5  1  0
 22 15  1  0
 30 25  1  0
  1 32  1  0
  6 33  1  0
  7 34  1  0
  8 35  1  0
 10 36  1  0
 13 37  1  0
 13 38  1  0
 19 39  1  0
 21 40  1  0
 21 41  1  0
 23 42  1  0
 23 43  1  0
 24 44  1  0
 24 45  1  0
 26 46  1  0
 27 47  1  0
 28 48  1  0
 29 49  1  0
 30 50  1  0
 31 51  1  0
M  CHG  1   1  -1
M  END
>  <UniqueID>  (63) 
58

>  <SMILES>  (63) 
[NH-]S(=O)(=O)c1cccc(NC(=O)CSc2nc(=O)cc(N)n2CCc2ccccc2)c1

>  <Energy>  (63) 
52.58072922775028

>  <Genealogy>  (63) 
[NH-]S(=O)(=O)c1cccc(NC(=O)CSc2nc(=O)cc(N)n2CCc2ccccc2)c1 (protonated)
[NH-]S(=O)(=O)c1cccc(NC(=O)CSc2nc(=O)cc(N)n2CCc2ccccc2)c1 (3D coordinates assigned)
[NH-]S(=O)(=O)c1cccc(NC(=O)CSc2nc(=O)cc(N)n2CCc2ccccc2)c1 (optimized conformer: 52.58072922775028 kcal/mol)

>  <smiles>  (63) 
Nc1cc(=O)nc(SCC(=O)Nc2cccc(S(N)(=O)=O)c2)n1CCc1ccccc1

>  <score_type>  (63) 
oracle

>  <origin>  (63) 
adg

>  <m_score__min__energy>  (63) 
-11.699999999999999

>  <m_primary>  (63) 
energy

$$$$
64:0
     RDKit          3D

 43 46  0  0  0  0  0  0  0  0999 V2000
   57.4040   28.2140   43.2480 N   0  0  0  0  0  0  0  0  0  0  0  0
   56.5140   29.6750   43.4940 S   0  0  0  0  0  0  0  0  0  0  0  0
   56.4380   30.4390   42.2020 O   0  0  0  0  0  0  0  0  0  0  0  0
   55.1170   29.3420   43.9380 O   0  0  0  0  0  0  0  0  0  0  0  0
   57.3110   30.6550   44.7220 C   0  0  0  0  0  0  0  0  0  0  0  0
   57.9440   30.0370   45.8070 C   0  0  0  0  0  0  0  0  0  0  0  0
   58.5870   30.8110   46.7750 C   0  0  0  0  0  0  0  0  0  0  0  0
   58.6030   32.2030   46.6670 C   0  0  0  0  0  0  0  0  0  0  0  0
   57.9790   32.8410   45.5780 C   0  0  0  0  0  0  0  0  0  0  0  0
   57.9960   34.3180   45.4590 C   0  0  0  0  0  0  0  0  0  0  0  0
   56.9790   34.9220   45.0190 O   0  0  0  0  0  0  0  0  0  0  0  0
   59.1690   35.0540   45.8480 N   0  0  0  0  0  0  0  0  0  0  0  0
   60.1440   34.6160   46.5870 C   0  0  0  0  0  0  0  0  0  0  0  0
   61.3090   34.1220   46.0970 N   0  0  0  0  0  0  0  0  0  0  0  0
   62.1320   33.7490   47.1090 C   0  0  0  0  0  0  0  0  0  0  0  0
   63.4000   33.1960   46.9320 C   0  0  0  0  0  0  0  0  0  0  0  0
   64.1510   32.8490   48.0680 C   0  0  0  0  0  0  0  0  0  0  0  0
   63.6430   33.0670   49.3660 C   0  0  0  0  0  0  0  0  0  0  0  0
   64.4280   32.6920   50.4660 O   0  0  0  0  0  0  0  0  0  0  0  0
   65.6720   33.2430   50.8020 C   0  0  0  0  0  0  0  0  0  0  0  0
   65.7170   34.2930   51.7270 C   0  0  0  0  0  0  0  0  0  0  0  0
   66.9400   34.8590   52.0980 C   0  0  0  0  0  0  0  0  0  0  0  0
   68.1310   34.3690   51.5550 C   0  0  0  0  0  0  0  0  0  0  0  0
   68.0990   33.3070   50.6480 C   0  0  0  0  0  0  0  0  0  0  0  0
   66.8770   32.7400   50.2740 C   0  0  0  0  0  0  0  0  0  0  0  0
   62.3490   33.6110   49.5270 C   0  0  0  0  0  0  0  0  0  0  0  0
   61.6270   33.9450   48.3850 C   0  0  0  0  0  0  0  0  0  0  0  0
   60.0870   34.6090   48.2770 S   0  0  0  0  0  0  0  0  0  0  0  0
   57.3360   32.0510   44.6050 C   0  0  0  0  0  0  0  0  0  0  0  0
   58.2130   28.4500   42.6300 H   0  0  0  0  0  0  0  0  0  0  0  0
   56.7880   27.5700   42.7030 H   0  0  0  0  0  0  0  0  0  0  0  0
   57.9348   28.9407   45.8970 H   0  0  0  0  0  0  0  0  0  0  0  0
   59.0831   30.3220   47.6264 H   0  0  0  0  0  0  0  0  0  0  0  0
   59.1064   32.8051   47.4377 H   0  0  0  0  0  0  0  0  0  0  0  0
   63.8048   33.0344   45.9220 H   0  0  0  0  0  0  0  0  0  0  0  0
   65.1481   32.4015   47.9435 H   0  0  0  0  0  0  0  0  0  0  0  0
   64.7832   34.6753   52.1649 H   0  0  0  0  0  0  0  0  0  0  0  0
   66.9651   35.6905   52.8177 H   0  0  0  0  0  0  0  0  0  0  0  0
   69.0928   34.8193   51.8416 H   0  0  0  0  0  0  0  0  0  0  0  0
   69.0372   32.9161   50.2272 H   0  0  0  0  0  0  0  0  0  0  0  0
   66.8566   31.8988   49.5655 H   0  0  0  0  0  0  0  0  0  0  0  0
   61.9231   33.7666   50.5292 H   0  0  0  0  0  0  0  0  0  0  0  0
   56.8490   32.5346   43.7454 H   0  0  0  0  0  0  0  0  0  0  0  0
  1  2  1  0
  2  3  2  0
  2  4  2  0
  2  5  1  0
  5  6  2  0
  6  7  1  0
  7  8  2  0
  8  9  1  0
  9 10  1  0
 10 11  2  0
 10 12  1  0
 12 13  2  3
 13 14  1  0
 14 15  1  0
 15 16  2  0
 16 17  1  0
 17 18  2  0
 18 19  1  0
 19 20  1  0
 20 21  2  0
 21 22  1  0
 22 23  2  0
 23 24  1  0
 24 25  2  0
 18 26  1  0
 26 27  2  0
 27 28  1  0
  9 29  2  0
 29  5  1  0
 28 13  1  0
 27 15  1  0
 25 20  1  0
  1 30  1  0
  1 31  1  0
  6 32  1  0
  7 33  1  0
  8 34  1  0
 16 35  1  0
 17 36  1  0
 21 37  1  0
 22 38  1  0
 23 39  1  0
 24 40  1  0
 25 41  1  0
 26 42  1  0
 29 43  1  0
M  CHG  1  14  -1
M  END
>  <UniqueID>  (64) 
59

>  <SMILES>  (64) 
NS(=O)(=O)c1cccc(C(=O)N=c2[n-]c3ccc(Oc4ccccc4)cc3s2)c1

>  <Energy>  (64) 
90.38657021580987

>  <Genealogy>  (64) 
NS(=O)(=O)c1cccc(C(=O)N=c2[n-]c3ccc(Oc4ccccc4)cc3s2)c1 (protonated)
NS(=O)(=O)c1cccc(C(=O)N=c2[n-]c3ccc(Oc4ccccc4)cc3s2)c1 (3D coordinates assigned)
NS(=O)(=O)c1cccc(C(=O)N=c2[n-]c3ccc(Oc4ccccc4)cc3s2)c1 (optimized conformer: 90.38657021580987 kcal/mol)

>  <smiles>  (64) 
NS(=O)(=O)c1cccc(C(=O)N=c2[nH]c3ccc(Oc4ccccc4)cc3s2)c1

>  <score_type>  (64) 
oracle

>  <origin>  (64) 
adg

>  <m_score__min__energy>  (64) 
-11.300000000000001

>  <m_primary>  (64) 
energy

$$$$
65:0
     RDKit          3D

 64 66  0  0  1  0  0  0  0  0999 V2000
   57.0100   34.2880   45.1910 C   0  0  0  0  0  0  0  0  0  0  0  0
   58.3000   33.8340   45.7700 C   0  0  0  0  0  0  0  0  0  0  0  0
   59.2000   34.8040   46.1540 C   0  0  0  0  0  0  0  0  0  0  0  0
   60.4090   34.4060   46.6990 C   0  0  0  0  0  0  0  0  0  0  0  0
   60.7690   33.0960   46.8800 C   0  0  0  0  0  0  0  0  0  0  0  0
   62.2470   32.5190   47.5580 S   0  0  0  0  0  0  0  0  0  0  0  0
   63.3780   33.3370   46.9620 O   0  0  0  0  0  0  0  0  0  0  0  0
   62.4630   31.1200   47.0050 O   0  0  0  0  0  0  0  0  0  0  0  0
   62.3300   32.4810   49.2560 N   0  0  0  0  0  0  0  0  0  0  0  0
   63.4640   32.1540   50.0340 C   0  0  0  0  0  0  0  0  0  0  0  0
   64.6580   32.5560   49.5630 N   0  0  0  0  0  0  0  0  0  0  0  0
   65.8240   32.3460   50.1940 C   0  0  0  0  0  0  0  0  0  0  0  0
   66.9550   32.7400   49.7210 N   0  0  0  0  0  0  0  0  0  0  0  0
   65.7790   31.6960   51.3600 N   0  0  0  0  0  0  0  0  0  0  0  0
   64.5960   31.2640   51.8880 C   0  0  0  0  0  0  0  0  0  0  0  0
   64.6900   30.6590   53.0000 N   0  0  0  0  0  0  0  0  0  0  0  0
   63.3830   31.4690   51.2570 C   0  0  0  0  0  0  0  0  0  0  0  0
   62.1090   31.0200   51.7820 C   0  0  0  0  0  0  0  0  0  0  0  0
   61.4880   29.8980   51.5170 C   0  0  0  0  0  0  0  0  0  0  0  0
   60.6620   29.6840   50.3210 C   0  0  0  0  0  0  0  0  0  0  0  0
   60.9780   28.7790   49.3370 C   0  0  0  0  0  0  0  0  0  0  0  0
   60.1680   28.6120   48.2250 C   0  0  0  0  0  0  0  0  0  0  0  0
   59.0190   29.3260   48.0430 C   0  0  0  0  0  0  0  0  0  0  0  0
   58.6840   30.2450   49.0280 C   0  0  0  0  0  0  0  0  0  0  0  0
   59.4920   30.4120   50.1340 C   0  0  0  0  0  0  0  0  0  0  0  0
   59.0470   31.5770   51.3440 S   0  0  0  0  0  0  0  0  0  0  0  0
   59.7620   32.8830   51.1290 O   0  0  0  0  0  0  0  0  0  0  0  0
   59.3240   31.0480   52.7440 O   0  0  0  0  0  0  0  0  0  0  0  0
   57.3630   31.8970   51.2630 N   0  0  0  0  0  0  0  0  0  0  0  0
   56.4580   30.8550   51.6300 C   0  0  0  0  0  0  0  0  0  0  0  0
   57.0000   29.7660   51.9930 O   0  0  0  0  0  0  0  0  0  0  0  0
   55.0510   31.0000   51.5990 N   0  0  0  0  0  0  0  0  0  0  0  0
   54.2250   29.8850   51.9970 C   0  0  0  0  0  0  0  0  0  0  0  0
   52.8140   29.9530   51.5130 C   0  0  0  0  0  0  0  0  0  0  0  0
   54.2830   29.7550   53.5040 C   0  0  0  0  0  0  0  0  0  0  0  0
   59.8310   32.1400   46.4800 C   0  0  0  0  0  0  0  0  0  0  0  0
   58.6140   32.4870   45.9330 C   0  0  0  0  0  0  0  0  0  0  0  0
   56.3101   34.5343   46.0031 H   0  0  0  0  0  0  0  0  0  0  0  0
   57.1804   35.1802   44.5705 H   0  0  0  0  0  0  0  0  0  0  0  0
   56.5840   33.4858   44.5705 H   0  0  0  0  0  0  0  0  0  0  0  0
   58.9633   35.8711   46.0303 H   0  0  0  0  0  0  0  0  0  0  0  0
   61.1217   35.1862   47.0043 H   0  0  0  0  0  0  0  0  0  0  0  0
   61.4290   32.7270   49.7710 H   0  0  0  0  0  0  0  0  0  0  0  0
   64.7100   33.0460   48.6510 H   0  0  0  0  0  0  0  0  0  0  0  0
   67.1700   32.8140   48.7090 H   0  0  0  0  0  0  0  0  0  0  0  0
   66.6930   31.5350   51.8480 H   0  0  0  0  0  0  0  0  0  0  0  0
   64.8960   31.1670   53.8790 H   0  0  0  0  0  0  0  0  0  0  0  0
   61.6054   31.7005   52.4844 H   0  0  0  0  0  0  0  0  0  0  0  0
   61.5907   29.0677   52.2312 H   0  0  0  0  0  0  0  0  0  0  0  0
   61.8922   28.1749   49.4336 H   0  0  0  0  0  0  0  0  0  0  0  0
   60.4618   27.8771   47.4610 H   0  0  0  0  0  0  0  0  0  0  0  0
   58.3865   29.1796   47.1550 H   0  0  0  0  0  0  0  0  0  0  0  0
   57.7675   30.8446   48.9261 H   0  0  0  0  0  0  0  0  0  0  0  0
   56.9460   32.8010   50.9630 H   0  0  0  0  0  0  0  0  0  0  0  0
   54.6350   31.9060   51.2900 H   0  0  0  0  0  0  0  0  0  0  0  0
   54.6352   28.9871   51.5116 H   0  0  0  0  0  0  0  0  0  0  0  0
   52.1318   29.9859   52.3753 H   0  0  0  0  0  0  0  0  0  0  0  0
   52.6786   30.8587   50.9036 H   0  0  0  0  0  0  0  0  0  0  0  0
   52.5922   29.0645   50.9036 H   0  0  0  0  0  0  0  0  0  0  0  0
   53.8764   30.6664   53.9666 H   0  0  0  0  0  0  0  0  0  0  0  0
   53.6872   28.8861   53.8203 H   0  0  0  0  0  0  0  0  0  0  0  0
   55.3276   29.6180   53.8203 H   0  0  0  0  0  0  0  0  0  0  0  0
   60.0721   31.0742   46.6060 H   0  0  0  0  0  0  0  0  0  0  0  0
   57.8989   31.7085   45.6287 H   0  0  0  0  0  0  0  0  0  0  0  0
  1  2  1  0
  2  3  2  0
  3  4  1  0
  4  5  2  0
  5  6  1  0
  6  7  2  0
  6  8  2  0
  6  9  1  0
  9 10  1  0
 10 11  1  0
 11 12  1  0
 12 13  2  3
 12 14  1  0
 14 15  1  0
 15 16  2  3
 15 17  1  0
 17 18  1  0
 18 19  2  0
 19 20  1  0
 20 21  2  0
 21 22  1  0
 22 23  2  0
 23 24  1  0
 24 25  2  0
 25 26  1  0
 26 27  2  0
 26 28  2  0
 26 29  1  0
 29 30  1  0
 30 31  2  0
 30 32  1  0
 32 33  1  0
 33 34  1  0
 33 35  1  0
  5 36  1  0
 36 37  2  0
 37  2  1  0
 17 10  2  0
 25 20  1  0
  1 38  1  0
  1 39  1  0
  1 40  1  0
  3 41  1  0
  4 42  1  0
  9 43  1  0
 11 44  1  0
 13 45  1  0
 14 46  1  0
 16 47  1  0
 18 48  1  0
 19 49  1  0
 21 50  1  0
 22 51  1  0
 23 52  1  0
 24 53  1  0
 29 54  1  0
 32 55  1  0
 33 56  1  0
 34 57  1  0
 34 58  1  0
 34 59  1  0
 35 60  1  0
 35 61  1  0
 35 62  1  0
 36 63  1  0
 37 64  1  0
M  END
>  <smiles>  (65) 
Cc1ccc(S(=O)(=O)Nc2[nH]c(=N)[nH]c(=N)c2C=Cc2ccccc2S(=O)(=O)NC(=O)NC(C)C)cc1

>  <score_type>  (65) 
oracle

>  <origin>  (65) 
adg

>  <m_score__min__energy>  (65) 
-11.07

>  <m_primary>  (65) 
energy

$$$$
66:0
     RDKit          3D

 39 43  0  0  0  0  0  0  0  0999 V2000
   55.9583   28.2061   44.3706 H   0  0  0  0  0  0  0  0  0  0  0  0
   56.6800   28.8700   44.8690 C   0  0  0  0  0  0  0  0  0  0  0  0
   56.6490   30.1690   44.8540 N   0  0  0  0  0  0  0  0  0  0  0  0
   57.7540   30.6380   45.5820 N   0  0  0  0  0  0  0  0  0  0  0  0
   57.7890   31.6610   46.4710 C   0  0  0  0  0  0  0  0  0  0  0  0
   57.3140   32.8690   46.3120 N   0  0  0  0  0  0  0  0  0  0  0  0
   57.8460   34.1870   45.9170 C   0  0  0  0  0  0  0  0  0  0  0  0
   56.8654   34.6782   46.0011 H   0  0  0  0  0  0  0  0  0  0  0  0
   59.2440   34.5770   46.3540 C   0  0  0  0  0  0  0  0  0  0  0  0
   59.4746   35.6260   46.5916 H   0  0  0  0  0  0  0  0  0  0  0  0
   59.9346   34.2478   47.1444 H   0  0  0  0  0  0  0  0  0  0  0  0
   58.9730   34.1600   44.9050 C   0  0  0  0  0  0  0  0  0  0  0  0
   59.0089   34.9091   44.1002 H   0  0  0  0  0  0  0  0  0  0  0  0
   59.3880   33.4060   44.2199 H   0  0  0  0  0  0  0  0  0  0  0  0
   58.4580   31.3140   47.5970 N   0  0  0  0  0  0  0  0  0  0  0  0
   58.8050   30.0310   47.3410 C   0  0  0  0  0  0  0  0  0  0  0  0
   59.3120   29.2270   48.2270 N   0  0  0  0  0  0  0  0  0  0  0  0
   60.6270   29.3960   48.8380 C   0  0  0  0  0  0  0  0  0  0  0  0
   60.5338   29.3158   49.9311 H   0  0  0  0  0  0  0  0  0  0  0  0
   61.3027   28.6134   48.4627 H   0  0  0  0  0  0  0  0  0  0  0  0
   61.1860   30.7370   48.4860 C   0  0  0  0  0  0  0  0  0  0  0  0
   62.1090   31.0680   47.1180 S   0  0  0  0  0  0  0  0  0  0  0  0
   62.2360   32.7190   47.4050 C   0  0  0  0  0  0  0  0  0  0  0  0
   63.0880   33.8540   46.3800 Cl  0  0  0  0  0  0  0  0  0  0  0  0
   61.5480   33.0360   48.5670 C   0  0  0  0  0  0  0  0  0  0  0  0
   61.4787   34.0566   48.9715 H   0  0  0  0  0  0  0  0  0  0  0  0
   60.9510   31.9240   49.1720 C   0  0  0  0  0  0  0  0  0  0  0  0
   60.3566   31.9828   50.0957 H   0  0  0  0  0  0  0  0  0  0  0  0
   58.4320   29.6430   46.1060 N   0  0  0  0  0  0  0  0  0  0  0  0
   57.8330   28.4360   45.6580 C   0  0  0  0  0  0  0  0  0  0  0  0
   58.2460   27.1780   45.8540 C   0  0  0  0  0  0  0  0  0  0  0  0
   59.2974   26.9413   45.6336 H   0  0  0  0  0  0  0  0  0  0  0  0
   57.3830   26.0900   46.3460 C   0  0  0  0  0  0  0  0  0  0  0  0
   57.8620   24.9690   46.9150 N   0  0  0  0  0  0  0  0  0  0  0  0
   56.7460   24.2960   47.2670 C   0  0  0  0  0  0  0  0  0  0  0  0
   56.7830   23.1690   47.8270 O   0  0  0  0  0  0  0  0  0  0  0  0
   55.5870   24.9270   46.9800 N   0  0  0  0  0  0  0  0  0  0  0  0
   56.0070   26.0660   46.4080 C   0  0  0  0  0  0  0  0  0  0  0  0
   55.1470   27.0720   45.9830 O   0  0  0  0  0  0  0  0  0  0  0  0
  1  2  1  0
  2  3  2  0
  3  4  1  0
  4  5  1  0
  5  6  2  0
  6  7  1  0
  7  8  1  0
  7  9  1  0
  9 10  1  0
  9 11  1  0
  9 12  1  0
 12 13  1  0
 12 14  1  0
  5 15  1  0
 15 16  1  0
 16 17  2  3
 17 18  1  0
 18 19  1  0
 18 20  1  0
 18 21  1  0
 21 22  1  0
 22 23  1  0
 23 24  1  0
 23 25  2  0
 25 26  1  0
 25 27  1  0
 27 28  1  0
 16 29  1  0
 29 30  1  0
 30 31  2  3
 31 32  1  0
 31 33  1  0
 33 34  1  0
 34 35  1  0
 35 36  2  0
 35 37  1  0
 37 38  1  0
 38 39  1  0
 30  2  1  0
 38 33  2  0
 29  4  1  0
 12  7  1  0
 27 21  2  0
M  CHG  4  15  -1  34  -1  37  -1  39  -1
M  END
>  <UniqueID>  (66) 
60

>  <SMILES>  (66) 
O=c1[n-]c([O-])c(C=C2C=Nn3/c(=N\C4CC4)[n-]c(=NCc4ccc(Cl)s4)n32)[n-]1

>  <Energy>  (66) 
478.7567759408413

>  <Genealogy>  (66) 
O=c1[n-]c([O-])c(C=C2C=Nn3c(=NC4CC4)[n-]c(=NCc4ccc(Cl)s4)n32)[n-]1 (protonated)
O=c1[n-]c([O-])c(C=C2C=Nn3/c(=N\C4CC4)[n-]c(=NCc4ccc(Cl)s4)n32)[n-]1 (cis-trans isomerization)
O=c1[n-]c([O-])c(C=C2C=Nn3/c(=N\C4CC4)[n-]c(=NCc4ccc(Cl)s4)n32)[n-]1 (3D coordinates assigned)
O=c1[n-]c([O-])c(C=C2C=Nn3/c(=N\C4CC4)[n-]c(=NCc4ccc(Cl)s4)n32)[n-]1 (nonaromatic ring conformer: 478.7567759408413 kcal/mol)

>  <smiles>  (66) 
O=c1[nH]c(O)c(C=C2C=Nn3c(=NC4CC4)[nH]c(=NCc4ccc(Cl)s4)n32)[nH]1

>  <score_type>  (66) 
oracle

>  <origin>  (66) 
adg

>  <m_score__min__energy>  (66) 
-16.760000000000002

>  <m_primary>  (66) 
energy

$$$$
67:0
     RDKit          3D

 54 57  0  0  0  0  0  0  0  0999 V2000
   60.9580   29.7210   51.2010 O   0  0  0  0  0  0  0  0  0  0  0  0
   60.1160   30.6590   51.1860 C   0  0  0  0  0  0  0  0  0  0  0  0
   60.1100   31.6060   52.2600 N   0  0  0  0  0  0  0  0  0  0  0  0
   59.2390   32.5680   52.3160 C   0  0  0  0  0  0  0  0  0  0  0  0
   58.1730   32.7180   51.2580 C   0  0  0  0  0  0  0  0  0  0  0  0
   58.6110   32.1670   49.9480 N   0  0  1  0  0  0  0  0  0  0  0  0
   59.6660   33.0260   49.3280 C   0  0  0  0  0  0  0  0  0  0  0  0
   59.2970   33.4190   47.9190 C   0  0  0  0  0  0  0  0  0  0  0  0
   59.8030   34.5970   47.3430 C   0  0  0  0  0  0  0  0  0  0  0  0
   59.3760   35.0020   46.0750 C   0  0  0  0  0  0  0  0  0  0  0  0
   58.4330   34.2410   45.3780 C   0  0  0  0  0  0  0  0  0  0  0  0
   57.9230   33.0650   45.9430 C   0  0  0  0  0  0  0  0  0  0  0  0
   56.9760   32.2980   45.2650 O   0  0  0  0  0  0  0  0  0  0  0  0
   57.2510   31.0510   44.6830 C   0  0  0  0  0  0  0  0  0  0  0  0
   56.5280   30.5650   43.5780 C   0  0  0  0  0  0  0  0  0  0  0  0
   56.7810   29.2850   43.0780 C   0  0  0  0  0  0  0  0  0  0  0  0
   57.7620   28.4810   43.6680 C   0  0  0  0  0  0  0  0  0  0  0  0
   58.5080   28.9710   44.7410 C   0  0  0  0  0  0  0  0  0  0  0  0
   58.2550   30.2490   45.2500 C   0  0  0  0  0  0  0  0  0  0  0  0
   58.3670   32.6480   47.2030 C   0  0  0  0  0  0  0  0  0  0  0  0
   59.0320   30.7460   50.1260 C   0  0  1  0  0  0  0  0  0  0  0  0
   59.3650   30.0680   48.8050 C   0  0  0  0  0  0  0  0  0  0  0  0
   58.4490   29.5050   48.1390 O   0  0  0  0  0  0  0  0  0  0  0  0
   60.7230   29.9370   48.3750 N   0  0  0  0  0  0  0  0  0  0  0  0
   61.2910   30.7400   47.3010 C   0  0  0  0  0  0  0  0  0  0  0  0
   62.3050   31.6940   47.8640 C   0  0  0  0  0  0  0  0  0  0  0  0
   62.8020   31.5100   49.1640 C   0  0  0  0  0  0  0  0  0  0  0  0
   63.7600   32.3870   49.6820 C   0  0  0  0  0  0  0  0  0  0  0  0
   64.2260   33.4550   48.9110 C   0  0  0  0  0  0  0  0  0  0  0  0
   63.7190   33.6580   47.6290 C   0  0  0  0  0  0  0  0  0  0  0  0
   62.7610   32.7840   47.1010 C   0  0  0  0  0  0  0  0  0  0  0  0
   59.2789   33.2856   53.1487 H   0  0  0  0  0  0  0  0  0  0  0  0
   57.2695   32.1825   51.5850 H   0  0  0  0  0  0  0  0  0  0  0  0
   57.9717   33.7914   51.1264 H   0  0  0  0  0  0  0  0  0  0  0  0
   57.7650   32.1630   49.3280 H   0  0  0  0  0  0  0  0  0  0  0  0
   59.7879   33.9363   49.9333 H   0  0  0  0  0  0  0  0  0  0  0  0
   60.6039   32.4522   49.2934 H   0  0  0  0  0  0  0  0  0  0  0  0
   60.5384   35.2030   47.8925 H   0  0  0  0  0  0  0  0  0  0  0  0
   59.7823   35.9201   45.6254 H   0  0  0  0  0  0  0  0  0  0  0  0
   58.0909   34.5661   44.3844 H   0  0  0  0  0  0  0  0  0  0  0  0
   55.7603   31.1955   43.1057 H   0  0  0  0  0  0  0  0  0  0  0  0
   56.2073   28.9086   42.2182 H   0  0  0  0  0  0  0  0  0  0  0  0
   57.9450   27.4653   43.2873 H   0  0  0  0  0  0  0  0  0  0  0  0
   59.2980   28.3497   45.1881 H   0  0  0  0  0  0  0  0  0  0  0  0
   58.8448   30.6275   46.0979 H   0  0  0  0  0  0  0  0  0  0  0  0
   57.9854   31.7111   47.6349 H   0  0  0  0  0  0  0  0  0  0  0  0
   58.1819   30.1592   50.5041 H   0  0  0  0  0  0  0  0  0  0  0  0
   61.7778   30.0792   46.5686 H   0  0  0  0  0  0  0  0  0  0  0  0
   60.4889   31.3096   46.8088 H   0  0  0  0  0  0  0  0  0  0  0  0
   62.4365   30.6731   49.7772 H   0  0  0  0  0  0  0  0  0  0  0  0
   64.1481   32.2356   50.7001 H   0  0  0  0  0  0  0  0  0  0  0  0
   64.9913   34.1340   49.3151 H   0  0  0  0  0  0  0  0  0  0  0  0
   64.0732   34.5091   47.0288 H   0  0  0  0  0  0  0  0  0  0  0  0
   62.3646   32.9500   46.0884 H   0  0  0  0  0  0  0  0  0  0  0  0
  1  2  2  0
  2  3  1  0
  3  4  2  0
  4  5  1  0
  5  6  1  0
  6  7  1  0
  7  8  1  0
  8  9  2  0
  9 10  1  0
 10 11  2  0
 11 12  1  0
 12 13  1  0
 13 14  1  0
 14 15  2  0
 15 16  1  0
 16 17  2  0
 17 18  1  0
 18 19  2  0
 12 20  2  0
  6 21  1  0
 21 22  1  0
 22 23  2  0
 22 24  1  0
 24 25  1  0
 25 26  1  0
 26 27  2  0
 27 28  1  0
 28 29  2  0
 29 30  1  0
 30 31  2  0
 21  2  1  0
 31 26  1  0
 20  8  1  0
 19 14  1  0
  4 32  1  0
  5 33  1  0
  5 34  1  0
  6 35  1  6
  7 36  1  0
  7 37  1  0
  9 38  1  0
 10 39  1  0
 11 40  1  0
 15 41  1  0
 16 42  1  0
 17 43  1  0
 18 44  1  0
 19 45  1  0
 20 46  1  0
 21 47  1  1
 25 48  1  0
 25 49  1  0
 27 50  1  0
 28 51  1  0
 29 52  1  0
 30 53  1  0
 31 54  1  0
M  CHG  2   6   1  24  -1
M  END
>  <UniqueID>  (67) 
61

>  <SMILES>  (67) 
O=C1N=CC[N@@H+](Cc2cccc(Oc3ccccc3)c2)[C@H]1C(=O)[N-]Cc1ccccc1

>  <Energy>  (67) 
76.5253192891007

>  <Genealogy>  (67) 
O=C1N=CC[NH+](Cc2cccc(Oc3ccccc3)c2)C1C(=O)[N-]Cc1ccccc1 (protonated)
O=C1N=CC[N@@H+](Cc2cccc(Oc3ccccc3)c2)[C@H]1C(=O)[N-]Cc1ccccc1 (chirality)
O=C1N=CC[N@@H+](Cc2cccc(Oc3ccccc3)c2)[C@H]1C(=O)[N-]Cc1ccccc1 (3D coordinates assigned)
O=C1N=CC[N@@H+](Cc2cccc(Oc3ccccc3)c2)[C@H]1C(=O)[N-]Cc1ccccc1 (nonaromatic ring conformer: 76.5253192891007 kcal/mol)

>  <smiles>  (67) 
O=C1N=CCN(Cc2cccc(Oc3ccccc3)c2)C1C(=O)NCc1ccccc1

>  <score_type>  (67) 
oracle

>  <origin>  (67) 
adg

>  <m_score__min__energy>  (67) 
-9.0999999999999996

>  <m_primary>  (67) 
energy

$$$$
68:0
     RDKit          3D

 55 58  0  0  0  0  0  0  0  0999 V2000
   50.9080   33.1160   52.0970 N   0  0  0  0  0  0  0  0  0  0  0  0
   51.4060   32.1630   51.1610 C   0  0  0  0  0  0  0  0  0  0  0  0
   51.0630   32.2520   49.9520 O   0  0  0  0  0  0  0  0  0  0  0  0
   52.3210   31.0840   51.6020 C   0  0  0  0  0  0  0  0  0  0  0  0
   51.8180   29.8780   52.1160 C   0  0  0  0  0  0  0  0  0  0  0  0
   52.6670   28.8970   52.5230 N   0  0  0  0  0  0  0  0  0  0  0  0
   54.0150   29.0370   52.4470 C   0  0  0  0  0  0  0  0  0  0  0  0
   54.5750   30.2140   51.9420 C   0  0  0  0  0  0  0  0  0  0  0  0
   55.9720   30.3150   51.8710 O   0  0  0  0  0  0  0  0  0  0  0  0
   56.8000   30.7550   52.9440 C   0  0  0  0  0  0  0  0  0  0  0  0
   57.7050   31.8490   52.4600 C   0  0  0  0  0  0  0  0  0  0  0  0
   57.5680   33.1500   52.9710 C   0  0  0  0  0  0  0  0  0  0  0  0
   58.4310   34.1640   52.5510 C   0  0  0  0  0  0  0  0  0  0  0  0
   59.4330   33.8910   51.6160 C   0  0  0  0  0  0  0  0  0  0  0  0
   59.5740   32.6030   51.0870 C   0  0  0  0  0  0  0  0  0  0  0  0
   60.6230   32.3500   50.1400 N   0  0  0  0  0  0  0  0  0  0  0  0
   60.4760   32.3320   48.7140 C   0  0  0  0  0  0  0  0  0  0  0  0
   60.7090   33.3900   48.0700 O   0  0  0  0  0  0  0  0  0  0  0  0
   60.0060   31.1270   47.9890 C   0  0  0  0  0  0  0  0  0  0  0  0
   58.9790   30.3340   48.5290 C   0  0  0  0  0  0  0  0  0  0  0  0
   58.5450   29.1860   47.8570 C   0  0  0  0  0  0  0  0  0  0  0  0
   59.1290   28.8140   46.6380 C   0  0  0  0  0  0  0  0  0  0  0  0
   58.7080   27.5710   45.9620 C   0  0  0  0  0  0  0  0  0  0  0  0
   59.2310   26.3550   46.4290 C   0  0  0  0  0  0  0  0  0  0  0  0
   58.8980   25.1530   45.8040 C   0  0  0  0  0  0  0  0  0  0  0  0
   58.0330   25.1500   44.7120 C   0  0  0  0  0  0  0  0  0  0  0  0
   57.4920   26.3480   44.2450 C   0  0  0  0  0  0  0  0  0  0  0  0
   57.8160   27.5680   44.8610 C   0  0  0  0  0  0  0  0  0  0  0  0
   57.0780   29.0570   44.2480 S   0  0  0  0  0  0  0  0  0  0  0  0
   55.4870   29.2340   44.8990 N   0  0  0  0  0  0  0  0  0  0  0  0
   57.9220   30.2420   44.6330 O   0  0  0  0  0  0  0  0  0  0  0  0
   56.9750   29.0050   42.7510 O   0  0  0  0  0  0  0  0  0  0  0  0
   60.1680   29.5930   46.1060 C   0  0  0  0  0  0  0  0  0  0  0  0
   60.6010   30.7420   46.7740 C   0  0  0  0  0  0  0  0  0  0  0  0
   58.7220   31.5750   51.5310 C   0  0  0  0  0  0  0  0  0  0  0  0
   53.7150   31.2460   51.5210 C   0  0  0  0  0  0  0  0  0  0  0  0
   49.9500   33.5170   52.0000 H   0  0  0  0  0  0  0  0  0  0  0  0
   50.7311   29.7260   52.1898 H   0  0  0  0  0  0  0  0  0  0  0  0
   54.6700   28.2202   52.7845 H   0  0  0  0  0  0  0  0  0  0  0  0
   56.1698   31.1351   53.7616 H   0  0  0  0  0  0  0  0  0  0  0  0
   57.4055   29.9126   53.3096 H   0  0  0  0  0  0  0  0  0  0  0  0
   56.7784   33.3708   53.7043 H   0  0  0  0  0  0  0  0  0  0  0  0
   58.3219   35.1804   52.9572 H   0  0  0  0  0  0  0  0  0  0  0  0
   60.1143   34.6924   51.2942 H   0  0  0  0  0  0  0  0  0  0  0  0
   58.5140   30.6173   49.4848 H   0  0  0  0  0  0  0  0  0  0  0  0
   57.7407   28.5716   48.2878 H   0  0  0  0  0  0  0  0  0  0  0  0
   59.9091   26.3498   47.2951 H   0  0  0  0  0  0  0  0  0  0  0  0
   59.3190   24.2065   46.1739 H   0  0  0  0  0  0  0  0  0  0  0  0
   57.7762   24.2017   44.2173 H   0  0  0  0  0  0  0  0  0  0  0  0
   56.8050   26.3371   43.3860 H   0  0  0  0  0  0  0  0  0  0  0  0
   55.4150   28.5680   45.6980 H   0  0  0  0  0  0  0  0  0  0  0  0
   60.6438   29.2981   45.1591 H   0  0  0  0  0  0  0  0  0  0  0  0
   61.4126   31.3492   46.3466 H   0  0  0  0  0  0  0  0  0  0  0  0
   58.8531   30.5519   51.1487 H   0  0  0  0  0  0  0  0  0  0  0  0
   54.1356   32.1830   51.1270 H   0  0  0  0  0  0  0  0  0  0  0  0
  1  2  1  0
  2  3  2  0
  2  4  1  0
  4  5  2  0
  5  6  1  0
  6  7  2  0
  7  8  1  0
  8  9  1  0
  9 10  1  0
 10 11  1  0
 11 12  2  0
 12 13  1  0
 13 14  2  0
 14 15  1  0
 15 16  1  0
 16 17  1  0
 17 18  2  0
 17 19  1  0
 19 20  2  0
 20 21  1  0
 21 22  2  0
 22 23  1  0
 23 24  2  0
 24 25  1  0
 25 26  2  0
 26 27  1  0
 27 28  2  0
 28 29  1  0
 29 30  1  0
 29 31  2  0
 29 32  2  0
 22 33  1  0
 33 34  2  0
 15 35  2  0
  8 36  2  0
 36  4  1  0
 35 11  1  0
 34 19  1  0
 28 23  1  0
  1 37  1  0
  5 38  1  0
  7 39  1  0
 10 40  1  0
 10 41  1  0
 12 42  1  0
 13 43  1  0
 14 44  1  0
 20 45  1  0
 21 46  1  0
 24 47  1  0
 25 48  1  0
 26 49  1  0
 27 50  1  0
 30 51  1  0
 33 52  1  0
 34 53  1  0
 35 54  1  0
 36 55  1  0
M  CHG  3   1  -1  16  -1  30  -1
M  END
>  <UniqueID>  (68) 
62

>  <SMILES>  (68) 
[NH-]C(=O)c1cncc(OCc2cccc([N-]C(=O)c3ccc(-c4ccccc4S([NH-])(=O)=O)cc3)c2)c1

>  <Energy>  (68) 
73.70317918942695

>  <Genealogy>  (68) 
[NH-]C(=O)c1cncc(OCc2cccc([N-]C(=O)c3ccc(-c4ccccc4S([NH-])(=O)=O)cc3)c2)c1 (protonated)
[NH-]C(=O)c1cncc(OCc2cccc([N-]C(=O)c3ccc(-c4ccccc4S([NH-])(=O)=O)cc3)c2)c1 (3D coordinates assigned)
[NH-]C(=O)c1cncc(OCc2cccc([N-]C(=O)c3ccc(-c4ccccc4S([NH-])(=O)=O)cc3)c2)c1 (optimized conformer: 73.70317918942695 kcal/mol)

>  <smiles>  (68) 
NC(=O)c1cncc(OCc2cccc(NC(=O)c3ccc(-c4ccccc4S(N)(=O)=O)cc3)c2)c1

>  <score_type>  (68) 
oracle

>  <origin>  (68) 
adg

>  <m_score__min__energy>  (68) 
-17.16

>  <m_primary>  (68) 
energy

$$$$
69:0
     RDKit          3D

 42 44  0  0  0  0  0  0  0  0999 V2000
   60.7130   34.0830   47.8010 C   0  0  0  0  0  0  0  0  0  0  0  0
   59.6850   33.6420   46.7940 C   0  0  0  0  0  0  0  0  0  0  0  0
   58.8100   34.6050   46.2580 C   0  0  0  0  0  0  0  0  0  0  0  0
   57.8530   34.2440   45.3080 C   0  0  0  0  0  0  0  0  0  0  0  0
   57.7570   32.9220   44.8810 C   0  0  0  0  0  0  0  0  0  0  0  0
   58.6040   31.9510   45.4160 C   0  0  0  0  0  0  0  0  0  0  0  0
   59.5560   32.2880   46.3930 C   0  0  0  0  0  0  0  0  0  0  0  0
   60.5600   30.9920   47.0750 S   0  0  0  0  0  0  0  0  0  0  0  0
   60.1590   30.6740   48.4890 O   0  0  0  0  0  0  0  0  0  0  0  0
   61.9950   31.4340   47.0580 O   0  0  0  0  0  0  0  0  0  0  0  0
   60.4020   29.5430   46.1290 N   0  0  0  0  0  0  0  0  0  0  0  0
   59.2420   28.6940   46.1680 C   0  0  0  0  0  0  0  0  0  0  0  0
   58.1830   28.8460   45.2540 C   0  0  0  0  0  0  0  0  0  0  0  0
   57.1050   27.9600   45.2670 C   0  0  0  0  0  0  0  0  0  0  0  0
   57.0610   26.9030   46.1910 C   0  0  0  0  0  0  0  0  0  0  0  0
   55.9480   25.9270   46.1710 C   0  0  0  0  0  0  0  0  0  0  0  0
   54.7710   26.3350   45.9910 O   0  0  0  0  0  0  0  0  0  0  0  0
   56.1740   24.5170   46.3100 N   0  0  0  0  0  0  0  0  0  0  0  0
   56.4970   23.6070   45.2470 C   0  0  0  0  0  0  0  0  0  0  0  0
   57.6800   22.8480   45.2490 C   0  0  0  0  0  0  0  0  0  0  0  0
   57.9470   21.9680   44.1990 C   0  0  0  0  0  0  0  0  0  0  0  0
   57.0210   21.8430   43.1620 C   0  0  0  0  0  0  0  0  0  0  0  0
   55.8710   22.5680   43.1850 N   0  0  0  0  0  0  0  0  0  0  0  0
   55.5890   23.4320   44.1970 C   0  0  0  0  0  0  0  0  0  0  0  0
   58.0920   26.7820   47.1380 C   0  0  0  0  0  0  0  0  0  0  0  0
   59.1730   27.6690   47.1220 C   0  0  0  0  0  0  0  0  0  0  0  0
   60.3258   33.9169   48.8171 H   0  0  0  0  0  0  0  0  0  0  0  0
   61.6364   33.5018   47.6609 H   0  0  0  0  0  0  0  0  0  0  0  0
   60.9282   35.1526   47.6609 H   0  0  0  0  0  0  0  0  0  0  0  0
   58.8807   35.6512   46.5905 H   0  0  0  0  0  0  0  0  0  0  0  0
   57.1737   35.0049   44.8961 H   0  0  0  0  0  0  0  0  0  0  0  0
   57.0124   32.6430   44.1209 H   0  0  0  0  0  0  0  0  0  0  0  0
   58.5257   30.9101   45.0691 H   0  0  0  0  0  0  0  0  0  0  0  0
   61.1480   29.3530   45.4230 H   0  0  0  0  0  0  0  0  0  0  0  0
   58.2051   29.6688   44.5243 H   0  0  0  0  0  0  0  0  0  0  0  0
   56.2830   28.0904   44.5478 H   0  0  0  0  0  0  0  0  0  0  0  0
   58.3957   22.9476   46.0784 H   0  0  0  0  0  0  0  0  0  0  0  0
   58.8764   21.3798   44.1888 H   0  0  0  0  0  0  0  0  0  0  0  0
   57.2218   21.1574   42.3255 H   0  0  0  0  0  0  0  0  0  0  0  0
   54.6440   23.9950   44.1899 H   0  0  0  0  0  0  0  0  0  0  0  0
   58.0486   25.9857   47.8956 H   0  0  0  0  0  0  0  0  0  0  0  0
   59.9769   27.5615   47.8651 H   0  0  0  0  0  0  0  0  0  0  0  0
  1  2  1  0
  2  3  2  0
  3  4  1  0
  4  5  2  0
  5  6  1  0
  6  7  2  0
  7  8  1  0
  8  9  2  0
  8 10  2  0
  8 11  1  0
 11 12  1  0
 12 13  2  0
 13 14  1  0
 14 15  2  0
 15 16  1  0
 16 17  2  0
 16 18  1  0
 18 19  1  0
 19 20  2  0
 20 21  1  0
 21 22  2  0
 22 23  1  0
 23 24  2  0
 15 25  1  0
 25 26  2  0
  7  2  1  0
 26 12  1  0
 24 19  1  0
  1 27  1  0
  1 28  1  0
  1 29  1  0
  3 30  1  0
  4 31  1  0
  5 32  1  0
  6 33  1  0
 11 34  1  0
 13 35  1  0
 14 36  1  0
 20 37  1  0
 21 38  1  0
 22 39  1  0
 24 40  1  0
 25 41  1  0
 26 42  1  0
M  CHG  1  18  -1
M  END
>  <UniqueID>  (69) 
63

>  <SMILES>  (69) 
Cc1ccccc1S(=O)(=O)Nc1ccc(C(=O)[N-]c2cccnc2)cc1

>  <Energy>  (69) 
55.7134686575958

>  <Genealogy>  (69) 
Cc1ccccc1S(=O)(=O)Nc1ccc(C(=O)[N-]c2cccnc2)cc1 (protonated)
Cc1ccccc1S(=O)(=O)Nc1ccc(C(=O)[N-]c2cccnc2)cc1 (3D coordinates assigned)
Cc1ccccc1S(=O)(=O)Nc1ccc(C(=O)[N-]c2cccnc2)cc1 (optimized conformer: 55.7134686575958 kcal/mol)

>  <smiles>  (69) 
Cc1ccccc1S(=O)(=O)Nc1ccc(C(=O)Nc2cccnc2)cc1

>  <score_type>  (69) 
oracle

>  <origin>  (69) 
adg

>  <m_score__min__energy>  (69) 
-10.69

>  <m_primary>  (69) 
energy

$$$$
70:0
     RDKit          3D

 45 46  0  0  0  0  0  0  0  0999 V2000
   60.9060   26.3990   46.6320 C   0  0  0  0  0  0  0  0  0  0  0  0
   59.8020   27.2090   46.0200 C   0  0  0  0  0  0  0  0  0  0  0  0
   58.4660   26.9620   46.3710 C   0  0  0  0  0  0  0  0  0  0  0  0
   57.4390   27.7410   45.8310 C   0  0  0  0  0  0  0  0  0  0  0  0
   57.7370   28.7860   44.9460 C   0  0  0  0  0  0  0  0  0  0  0  0
   56.4420   29.7580   44.2570 S   0  0  0  0  0  0  0  0  0  0  0  0
   55.1410   29.3600   44.8940 O   0  0  0  0  0  0  0  0  0  0  0  0
   56.3580   29.5290   42.7730 O   0  0  0  0  0  0  0  0  0  0  0  0
   56.7330   31.4400   44.5710 N   0  0  0  0  0  0  0  0  0  0  0  0
   57.6950   31.9790   43.6110 C   0  0  0  0  0  0  0  0  0  0  0  0
   58.2610   33.3000   44.1250 C   0  0  0  0  0  0  0  0  0  0  0  0
   57.0160   34.2020   45.1250 S   0  0  0  0  0  0  0  0  0  0  0  0
   57.4050   33.4350   46.7420 C   0  0  0  0  0  0  0  0  0  0  0  0
   58.8910   33.2760   46.9220 C   0  0  0  0  0  0  0  0  0  0  0  0
   59.7470   34.3770   46.7890 C   0  0  0  0  0  0  0  0  0  0  0  0
   61.1280   34.2140   46.8940 C   0  0  0  0  0  0  0  0  0  0  0  0
   61.6830   32.9460   47.1330 C   0  0  0  0  0  0  0  0  0  0  0  0
   63.1810   32.7990   47.2010 C   0  0  0  0  0  0  0  0  0  0  0  0
   60.8260   31.8290   47.2780 C   0  0  0  0  0  0  0  0  0  0  0  0
   61.3770   30.4500   47.5290 C   0  0  0  0  0  0  0  0  0  0  0  0
   59.4350   32.0090   47.1810 C   0  0  0  0  0  0  0  0  0  0  0  0
   59.0710   29.0420   44.6010 C   0  0  0  0  0  0  0  0  0  0  0  0
   60.0990   28.2630   45.1430 C   0  0  0  0  0  0  0  0  0  0  0  0
   60.8347   26.4513   47.7284 H   0  0  0  0  0  0  0  0  0  0  0  0
   60.8152   25.3517   46.3082 H   0  0  0  0  0  0  0  0  0  0  0  0
   61.8778   26.8000   46.3082 H   0  0  0  0  0  0  0  0  0  0  0  0
   58.2259   26.1513   47.0746 H   0  0  0  0  0  0  0  0  0  0  0  0
   56.3932   27.5332   46.1015 H   0  0  0  0  0  0  0  0  0  0  0  0
   58.5158   31.2595   43.4747 H   0  0  0  0  0  0  0  0  0  0  0  0
   57.1879   32.1528   42.6505 H   0  0  0  0  0  0  0  0  0  0  0  0
   59.1437   33.0950   44.7486 H   0  0  0  0  0  0  0  0  0  0  0  0
   58.5363   33.9235   43.2616 H   0  0  0  0  0  0  0  0  0  0  0  0
   57.0118   34.0737   47.5466 H   0  0  0  0  0  0  0  0  0  0  0  0
   56.9399   32.4388   46.7775 H   0  0  0  0  0  0  0  0  0  0  0  0
   59.3272   35.3762   46.6006 H   0  0  0  0  0  0  0  0  0  0  0  0
   61.7891   35.0869   46.7886 H   0  0  0  0  0  0  0  0  0  0  0  0
   63.4990   32.7678   48.2536 H   0  0  0  0  0  0  0  0  0  0  0  0
   63.4811   31.8671   46.6995 H   0  0  0  0  0  0  0  0  0  0  0  0
   63.6565   33.6548   46.6995 H   0  0  0  0  0  0  0  0  0  0  0  0
   61.4470   30.2748   48.6127 H   0  0  0  0  0  0  0  0  0  0  0  0
   60.7092   29.7008   47.0788 H   0  0  0  0  0  0  0  0  0  0  0  0
   62.3772   30.3673   47.0788 H   0  0  0  0  0  0  0  0  0  0  0  0
   58.7651   31.1460   47.3097 H   0  0  0  0  0  0  0  0  0  0  0  0
   59.3103   29.8573   43.9024 H   0  0  0  0  0  0  0  0  0  0  0  0
   61.1453   28.4780   44.8802 H   0  0  0  0  0  0  0  0  0  0  0  0
  1  2  1  0
  2  3  2  0
  3  4  1  0
  4  5  2  0
  5  6  1  0
  6  7  2  0
  6  8  2  0
  6  9  1  0
  9 10  1  0
 10 11  1  0
 11 12  1  0
 12 13  1  0
 13 14  1  0
 14 15  2  0
 15 16  1  0
 16 17  2  0
 17 18  1  0
 17 19  1  0
 19 20  1  0
 19 21  2  0
  5 22  1  0
 22 23  2  0
 23  2  1  0
 21 14  1  0
  1 24  1  0
  1 25  1  0
  1 26  1  0
  3 27  1  0
  4 28  1  0
 10 29  1  0
 10 30  1  0
 11 31  1  0
 11 32  1  0
 13 33  1  0
 13 34  1  0
 15 35  1  0
 16 36  1  0
 18 37  1  0
 18 38  1  0
 18 39  1  0
 20 40  1  0
 20 41  1  0
 20 42  1  0
 21 43  1  0
 22 44  1  0
 23 45  1  0
M  CHG  1   9  -1
M  END
>  <UniqueID>  (70) 
64

>  <SMILES>  (70) 
Cc1ccc(S(=O)(=O)[N-]CCSCc2ccc(C)c(C)c2)cc1

>  <Energy>  (70) 
34.54510622403932

>  <Genealogy>  (70) 
Cc1ccc(S(=O)(=O)[N-]CCSCc2ccc(C)c(C)c2)cc1 (protonated)
Cc1ccc(S(=O)(=O)[N-]CCSCc2ccc(C)c(C)c2)cc1 (3D coordinates assigned)
Cc1ccc(S(=O)(=O)[N-]CCSCc2ccc(C)c(C)c2)cc1 (optimized conformer: 34.54510622403932 kcal/mol)

>  <smiles>  (70) 
Cc1ccc(S(=O)(=O)NCCSCc2ccc(C)c(C)c2)cc1

>  <score_type>  (70) 
oracle

>  <origin>  (70) 
adg

>  <m_score__min__energy>  (70) 
-10.369999999999999

>  <m_primary>  (70) 
energy

$$$$
71:0
     RDKit          3D

 36 37  0  0  0  0  0  0  0  0999 V2000
   65.1920   32.9090   50.0980 C   0  0  0  0  0  0  0  0  0  0  0  0
   64.5090   32.2820   49.0160 O   0  0  0  0  0  0  0  0  0  0  0  0
   63.3620   32.8000   48.3980 C   0  0  0  0  0  0  0  0  0  0  0  0
   63.3800   33.3290   47.0920 C   0  0  0  0  0  0  0  0  0  0  0  0
   62.2080   33.8330   46.5200 C   0  0  0  0  0  0  0  0  0  0  0  0
   61.0070   33.8130   47.2400 C   0  0  0  0  0  0  0  0  0  0  0  0
   59.5270   34.4380   46.5190 S   0  0  0  0  0  0  0  0  0  0  0  0
   58.3970   34.2540   47.4930 O   0  0  0  0  0  0  0  0  0  0  0  0
   59.6670   35.9010   46.2030 O   0  0  0  0  0  0  0  0  0  0  0  0
   59.1630   33.5770   45.0590 N   0  0  0  0  0  0  0  0  0  0  0  0
   58.5150   32.2990   44.9930 C   0  0  0  0  0  0  0  0  0  0  0  0
   57.4130   32.0610   44.1540 C   0  0  0  0  0  0  0  0  0  0  0  0
   56.8160   30.7980   44.1170 C   0  0  0  0  0  0  0  0  0  0  0  0
   57.3030   29.7510   44.9150 C   0  0  0  0  0  0  0  0  0  0  0  0
   56.6630   28.4640   44.8500 N   0  0  0  0  0  0  0  0  0  0  0  0
   57.0130   27.1480   45.9260 S   0  0  0  0  0  0  0  0  0  0  0  0
   55.5470   26.3430   46.3610 N   0  0  0  0  0  0  0  0  0  0  0  0
   57.9550   26.1840   45.2610 O   0  0  0  0  0  0  0  0  0  0  0  0
   57.6620   27.6890   47.1680 O   0  0  0  0  0  0  0  0  0  0  0  0
   58.4050   29.9960   45.7570 C   0  0  0  0  0  0  0  0  0  0  0  0
   59.0010   31.2600   45.7920 C   0  0  0  0  0  0  0  0  0  0  0  0
   60.9880   33.2930   48.5400 C   0  0  0  0  0  0  0  0  0  0  0  0
   62.1580   32.7890   49.1130 C   0  0  0  0  0  0  0  0  0  0  0  0
   64.7876   32.5378   51.0512 H   0  0  0  0  0  0  0  0  0  0  0  0
   66.2652   32.6750   50.0390 H   0  0  0  0  0  0  0  0  0  0  0  0
   65.0504   33.9983   50.0390 H   0  0  0  0  0  0  0  0  0  0  0  0
   64.3197   33.3455   46.5204 H   0  0  0  0  0  0  0  0  0  0  0  0
   62.2293   34.2466   45.5010 H   0  0  0  0  0  0  0  0  0  0  0  0
   57.0188   32.8720   43.5240 H   0  0  0  0  0  0  0  0  0  0  0  0
   55.9550   30.6224   43.4553 H   0  0  0  0  0  0  0  0  0  0  0  0
   55.9440   28.2930   44.1130 H   0  0  0  0  0  0  0  0  0  0  0  0
   54.8000   27.0720   46.4020 H   0  0  0  0  0  0  0  0  0  0  0  0
   58.7991   29.1880   46.3909 H   0  0  0  0  0  0  0  0  0  0  0  0
   59.8606   31.4388   46.4546 H   0  0  0  0  0  0  0  0  0  0  0  0
   60.0485   33.2814   49.1120 H   0  0  0  0  0  0  0  0  0  0  0  0
   62.1334   32.3802   50.1339 H   0  0  0  0  0  0  0  0  0  0  0  0
  1  2  1  0
  2  3  1  0
  3  4  2  0
  4  5  1  0
  5  6  2  0
  6  7  1  0
  7  8  2  0
  7  9  2  0
  7 10  1  0
 10 11  1  0
 11 12  2  0
 12 13  1  0
 13 14  2  0
 14 15  1  0
 15 16  1  0
 16 17  1  0
 16 18  2  0
 16 19  2  0
 14 20  1  0
 20 21  2  0
  6 22  1  0
 22 23  2  0
 23  3  1  0
 21 11  1  0
  1 24  1  0
  1 25  1  0
  1 26  1  0
  4 27  1  0
  5 28  1  0
 12 29  1  0
 13 30  1  0
 15 31  1  0
 17 32  1  0
 20 33  1  0
 21 34  1  0
 22 35  1  0
 23 36  1  0
M  CHG  2  10  -1  17  -1
M  END
>  <UniqueID>  (71) 
65

>  <SMILES>  (71) 
COc1ccc(S(=O)(=O)[N-]c2ccc(NS([NH-])(=O)=O)cc2)cc1

>  <Energy>  (71) 
39.592775965487014

>  <Genealogy>  (71) 
COc1ccc(S(=O)(=O)[N-]c2ccc(NS([NH-])(=O)=O)cc2)cc1 (protonated)
COc1ccc(S(=O)(=O)[N-]c2ccc(NS([NH-])(=O)=O)cc2)cc1 (3D coordinates assigned)
COc1ccc(S(=O)(=O)[N-]c2ccc(NS([NH-])(=O)=O)cc2)cc1 (optimized conformer: 39.592775965487014 kcal/mol)

>  <smiles>  (71) 
COc1ccc(S(=O)(=O)Nc2ccc(NS(N)(=O)=O)cc2)cc1

>  <score_type>  (71) 
oracle

>  <origin>  (71) 
adg

>  <m_score__min__energy>  (71) 
-11.42

>  <m_primary>  (71) 
energy

$$$$
72:0
     RDKit          3D

 61 65  0  0  1  0  0  0  0  0999 V2000
   61.6190   33.8890   53.7580 C   0  0  0  0  0  0  0  0  0  0  0  0
   61.0850   33.2360   52.5660 N   0  0  0  0  0  0  0  0  0  0  0  0
   62.0530   33.4100   51.5320 C   0  0  0  0  0  0  0  0  0  0  0  0
   61.4870   33.9160   50.2220 C   0  0  0  0  0  0  0  0  0  0  0  0
   60.2260   33.2680   49.9680 N   0  0  0  0  0  0  0  0  0  0  0  0
   59.9180   32.5080   48.8140 C   0  0  0  0  0  0  0  0  0  0  0  0
   59.1450   32.9670   47.7690 C   0  0  0  0  0  0  0  0  0  0  0  0
   58.8690   32.1790   46.6490 C   0  0  0  0  0  0  0  0  0  0  0  0
   58.1330   32.6390   45.6720 N   0  0  0  0  0  0  0  0  0  0  0  0
   57.5420   31.6590   44.8180 C   0  0  0  0  0  0  0  0  0  0  0  0
   57.4350   31.8400   43.4510 C   0  0  0  0  0  0  0  0  0  0  0  0
   56.8430   30.8200   42.7150 C   0  0  0  0  0  0  0  0  0  0  0  0
   56.3900   29.6910   43.3290 N   0  0  0  0  0  0  0  0  0  0  0  0
   56.5080   29.5370   44.6750 C   0  0  0  0  0  0  0  0  0  0  0  0
   56.0780   28.4690   45.2510 N   0  0  0  0  0  0  0  0  0  0  0  0
   57.0820   30.5270   45.3830 N   0  0  0  0  0  0  0  0  0  0  0  0
   59.3750   30.9350   46.5890 N   0  0  0  0  0  0  0  0  0  0  0  0
   60.1300   30.4890   47.6100 C   0  0  0  0  0  0  0  0  0  0  0  0
   60.7760   28.8290   47.4790 S   0  0  0  0  0  0  0  0  0  0  0  0
   59.5780   27.6550   46.9220 C   0  0  0  0  0  0  0  0  0  0  0  0
   59.3360   27.4480   45.5660 C   0  0  0  0  0  0  0  0  0  0  0  0
   58.3910   26.5200   45.1900 C   0  0  0  0  0  0  0  0  0  0  0  0
   57.6740   25.7860   46.1410 C   0  0  0  0  0  0  0  0  0  0  0  0
   56.7200   24.8530   45.6450 N   0  0  0  0  0  0  0  0  0  0  0  0
   55.3420   25.1230   45.5940 C   0  0  0  0  0  0  0  0  0  0  0  0
   54.8550   26.2250   45.9910 O   0  0  0  0  0  0  0  0  0  0  0  0
   54.3820   24.1260   45.0730 C   0  0  0  0  0  0  0  0  0  0  0  0
   54.8950   23.3160   43.8900 C   0  0  0  0  0  0  0  0  0  0  0  0
   54.6300   22.6740   45.2380 C   0  0  0  0  0  0  0  0  0  0  0  0
   57.9080   25.9850   47.4840 C   0  0  0  0  0  0  0  0  0  0  0  0
   58.8480   26.9090   47.8440 C   0  0  0  0  0  0  0  0  0  0  0  0
   60.3940   31.2480   48.6890 N   0  0  0  0  0  0  0  0  0  0  0  0
   59.1950   33.4170   50.9880 C   0  0  0  0  0  0  0  0  0  0  0  0
   59.7960   33.7900   52.3010 C   0  0  0  0  0  0  0  0  0  0  0  0
   61.2172   33.3976   54.6564 H   0  0  0  0  0  0  0  0  0  0  0  0
   62.7163   33.8121   53.7578 H   0  0  0  0  0  0  0  0  0  0  0  0
   61.3258   34.9492   53.7578 H   0  0  0  0  0  0  0  0  0  0  0  0
   62.8051   34.1318   51.8832 H   0  0  0  0  0  0  0  0  0  0  0  0
   62.4751   32.4150   51.3274 H   0  0  0  0  0  0  0  0  0  0  0  0
   61.3358   35.0039   50.2825 H   0  0  0  0  0  0  0  0  0  0  0  0
   62.1887   33.6911   49.4053 H   0  0  0  0  0  0  0  0  0  0  0  0
   58.7326   33.9856   47.8186 H   0  0  0  0  0  0  0  0  0  0  0  0
   57.8039   32.7553   42.9651 H   0  0  0  0  0  0  0  0  0  0  0  0
   56.7391   30.9254   41.6250 H   0  0  0  0  0  0  0  0  0  0  0  0
   55.9430   28.9150   42.7960 H   0  0  0  0  0  0  0  0  0  0  0  0
   55.1460   28.1120   44.9510 H   0  0  0  0  0  0  0  0  0  0  0  0
   59.1790   30.3250   45.7540 H   0  0  0  0  0  0  0  0  0  0  0  0
   59.8918   28.0176   44.8066 H   0  0  0  0  0  0  0  0  0  0  0  0
   58.1958   26.3523   44.1205 H   0  0  0  0  0  0  0  0  0  0  0  0
   57.0920   23.9320   45.3110 H   0  0  0  0  0  0  0  0  0  0  0  0
   53.5126   24.7572   45.3091 H   0  0  0  0  0  0  0  0  0  0  0  0
   54.2355   23.1038   43.0356 H   0  0  0  0  0  0  0  0  0  0  0  0
   55.7524   23.3811   43.2040 H   0  0  0  0  0  0  0  0  0  0  0  0
   53.7816   21.9842   45.3582 H   0  0  0  0  0  0  0  0  0  0  0  0
   55.2272   22.0673   45.9346 H   0  0  0  0  0  0  0  0  0  0  0  0
   57.3537   25.4161   48.2450 H   0  0  0  0  0  0  0  0  0  0  0  0
   59.0376   27.0717   48.9153 H   0  0  0  0  0  0  0  0  0  0  0  0
   58.4918   34.2037   50.6772 H   0  0  0  0  0  0  0  0  0  0  0  0
   58.6710   32.4565   51.1013 H   0  0  0  0  0  0  0  0  0  0  0  0
   59.8847   34.8859   52.3341 H   0  0  0  0  0  0  0  0  0  0  0  0
   59.1256   33.3763   53.0687 H   0  0  0  0  0  0  0  0  0  0  0  0
  1  2  1  0
  2  3  1  0
  3  4  1  0
  4  5  1  0
  5  6  1  0
  6  7  2  0
  7  8  1  0
  8  9  2  0
  9 10  1  0
 10 11  1  0
 11 12  2  0
 12 13  1  0
 13 14  1  0
 14 15  2  3
 14 16  1  0
  8 17  1  0
 17 18  1  0
 18 19  1  0
 19 20  1  0
 20 21  2  0
 21 22  1  0
 22 23  2  0
 23 24  1  0
 24 25  1  0
 25 26  2  0
 25 27  1  0
 27 28  1  0
 28 29  1  0
 23 30  1  0
 30 31  2  0
 18 32  2  0
  5 33  1  0
 33 34  1  0
 34  2  1  0
 32  6  1  0
 16 10  2  0
 31 20  1  0
 29 27  1  0
  1 35  1  0
  1 36  1  0
  1 37  1  0
  3 38  1  0
  3 39  1  0
  4 40  1  0
  4 41  1  0
  7 42  1  0
 11 43  1  0
 12 44  1  0
 13 45  1  0
 15 46  1  0
 17 47  1  0
 21 48  1  0
 22 49  1  0
 24 50  1  0
 27 51  1  0
 28 52  1  0
 28 53  1  0
 29 54  1  0
 29 55  1  0
 30 56  1  0
 31 57  1  0
 33 58  1  0
 33 59  1  0
 34 60  1  0
 34 61  1  0
M  END
>  <smiles>  (72) 
CN1CCN(c2cc(=Nc3cc[nH]c(=N)n3)[nH]c(Sc3ccc(NC(=O)C4CC4)cc3)n2)CC1

>  <score_type>  (72) 
oracle

>  <origin>  (72) 
adg

>  <m_score__min__energy>  (72) 
-10.050000000000001

>  <m_primary>  (72) 
energy

$$$$
73:0
     RDKit          3D

 61 64  0  0  0  0  0  0  0  0999 V2000
   59.5220   34.7670   47.4020 C   0  0  0  0  0  0  0  0  0  0  0  0
   58.8070   33.8920   46.4050 C   0  0  0  0  0  0  0  0  0  0  0  0
   58.4880   34.3980   45.1350 C   0  0  0  0  0  0  0  0  0  0  0  0
   57.8050   33.6080   44.2080 C   0  0  0  0  0  0  0  0  0  0  0  0
   57.4650   32.2920   44.5240 C   0  0  0  0  0  0  0  0  0  0  0  0
   57.8160   31.7480   45.7640 C   0  0  0  0  0  0  0  0  0  0  0  0
   57.5110   30.3990   46.0080 O   0  0  0  0  0  0  0  0  0  0  0  0
   58.4650   29.3740   46.1430 C   0  0  0  0  0  0  0  0  0  0  0  0
   59.4470   29.2360   45.1560 C   0  0  0  0  0  0  0  0  0  0  0  0
   60.3960   28.2160   45.2450 C   0  0  0  0  0  0  0  0  0  0  0  0
   60.3800   27.3360   46.3310 C   0  0  0  0  0  0  0  0  0  0  0  0
   59.4170   27.4750   47.3310 C   0  0  0  0  0  0  0  0  0  0  0  0
   58.4630   28.4920   47.2430 C   0  0  0  0  0  0  0  0  0  0  0  0
   58.4520   32.5660   46.7340 C   0  0  0  0  0  0  0  0  0  0  0  0
   58.7260   32.0630   48.0530 N   0  0  0  0  0  0  0  0  0  0  0  0
   59.9550   31.4070   48.3900 C   0  0  0  0  0  0  0  0  0  0  0  0
   60.7990   31.1370   47.4910 O   0  0  0  0  0  0  0  0  0  0  0  0
   60.2280   31.0020   49.8090 C   0  0  0  0  0  0  0  0  0  0  0  0
   59.1190   31.4340   50.6890 N   0  0  0  0  0  0  0  0  0  0  0  0
   59.0590   32.7110   51.2160 C   0  0  0  0  0  0  0  0  0  0  0  0
   60.1610   33.7250   51.0110 C   0  0  0  0  0  0  0  0  0  0  0  0
   57.9520   33.0800   52.0000 C   0  0  0  0  0  0  0  0  0  0  0  0
   56.9550   32.1920   52.2280 N   0  0  0  0  0  0  0  0  0  0  0  0
   57.0020   30.9290   51.7260 C   0  0  0  0  0  0  0  0  0  0  0  0
   56.0340   30.0850   51.9440 N   0  0  0  0  0  0  0  0  0  0  0  0
   54.7700   30.3960   52.6120 C   0  0  0  0  0  0  0  0  0  0  0  0
   53.7040   30.8060   51.5920 C   0  0  0  0  0  0  0  0  0  0  0  0
   52.4210   31.1600   52.2900 C   0  0  0  0  0  0  0  0  0  0  0  0
   51.8640   30.2940   53.2440 C   0  0  0  0  0  0  0  0  0  0  0  0
   50.6540   30.6350   53.8530 C   0  0  0  0  0  0  0  0  0  0  0  0
   50.0080   31.8200   53.4990 C   0  0  0  0  0  0  0  0  0  0  0  0
   50.5850   32.6510   52.5370 C   0  0  0  0  0  0  0  0  0  0  0  0
   51.7660   32.3060   51.9590 N   0  0  0  0  0  0  0  0  0  0  0  0
   58.1040   30.5400   50.9500 C   0  0  0  0  0  0  0  0  0  0  0  0
   58.1520   29.3620   50.4900 O   0  0  0  0  0  0  0  0  0  0  0  0
   59.2618   34.4486   48.4223 H   0  0  0  0  0  0  0  0  0  0  0  0
   60.6085   34.6773   47.2558 H   0  0  0  0  0  0  0  0  0  0  0  0
   59.2176   35.8139   47.2558 H   0  0  0  0  0  0  0  0  0  0  0  0
   58.7783   35.4248   44.8680 H   0  0  0  0  0  0  0  0  0  0  0  0
   57.5343   34.0240   43.2263 H   0  0  0  0  0  0  0  0  0  0  0  0
   56.9175   31.6785   43.7933 H   0  0  0  0  0  0  0  0  0  0  0  0
   59.4714   29.9342   44.3063 H   0  0  0  0  0  0  0  0  0  0  0  0
   61.1576   28.1046   44.4592 H   0  0  0  0  0  0  0  0  0  0  0  0
   61.1281   26.5323   46.3973 H   0  0  0  0  0  0  0  0  0  0  0  0
   59.4089   26.7848   48.1875 H   0  0  0  0  0  0  0  0  0  0  0  0
   57.7077   28.6050   48.0347 H   0  0  0  0  0  0  0  0  0  0  0  0
   57.9640   32.1000   48.7630 H   0  0  0  0  0  0  0  0  0  0  0  0
   60.3276   29.9078   49.8613 H   0  0  0  0  0  0  0  0  0  0  0  0
   61.1591   31.4816   50.1451 H   0  0  0  0  0  0  0  0  0  0  0  0
   60.5318   34.0662   51.9888 H   0  0  0  0  0  0  0  0  0  0  0  0
   60.9847   33.2624   50.4475 H   0  0  0  0  0  0  0  0  0  0  0  0
   59.7684   34.5843   50.4475 H   0  0  0  0  0  0  0  0  0  0  0  0
   57.8954   34.0914   52.4289 H   0  0  0  0  0  0  0  0  0  0  0  0
   54.4229   29.5072   53.1593 H   0  0  0  0  0  0  0  0  0  0  0  0
   54.9343   31.2328   53.3068 H   0  0  0  0  0  0  0  0  0  0  0  0
   54.0611   31.6784   51.0251 H   0  0  0  0  0  0  0  0  0  0  0  0
   53.5189   29.9628   50.9103 H   0  0  0  0  0  0  0  0  0  0  0  0
   52.3750   29.3567   53.5092 H   0  0  0  0  0  0  0  0  0  0  0  0
   50.2114   29.9708   54.6100 H   0  0  0  0  0  0  0  0  0  0  0  0
   49.0545   32.0964   53.9727 H   0  0  0  0  0  0  0  0  0  0  0  0
   50.0835   33.5859   52.2464 H   0  0  0  0  0  0  0  0  0  0  0  0
  1  2  1  0
  2  3  2  0
  3  4  1  0
  4  5  2  0
  5  6  1  0
  6  7  1  0
  7  8  1  0
  8  9  2  0
  9 10  1  0
 10 11  2  0
 11 12  1  0
 12 13  2  0
  6 14  2  0
 14 15  1  0
 15 16  1  0
 16 17  2  0
 16 18  1  0
 18 19  1  0
 19 20  1  0
 20 21  1  0
 20 22  2  0
 22 23  1  0
 23 24  1  0
 24 25  2  3
 25 26  1  0
 26 27  1  0
 27 28  1  0
 28 29  2  0
 29 30  1  0
 30 31  2  0
 31 32  1  0
 32 33  2  0
 24 34  1  0
 34 35  2  0
 14  2  1  0
 34 19  1  0
 13  8  1  0
 33 28  1  0
  1 36  1  0
  1 37  1  0
  1 38  1  0
  3 39  1  0
  4 40  1  0
  5 41  1  0
  9 42  1  0
 10 43  1  0
 11 44  1  0
 12 45  1  0
 13 46  1  0
 15 47  1  0
 18 48  1  0
 18 49  1  0
 21 50  1  0
 21 51  1  0
 21 52  1  0
 22 53  1  0
 26 54  1  0
 26 55  1  0
 27 56  1  0
 27 57  1  0
 29 58  1  0
 30 59  1  0
 31 60  1  0
 32 61  1  0
M  CHG  1  23  -1
M  END
>  <UniqueID>  (73) 
66

>  <SMILES>  (73) 
Cc1cccc(Oc2ccccc2)c1NC(=O)Cn1c(C)c[n-]c(=NCCc2ccccn2)c1=O

>  <Energy>  (73) 
79.43239533844638

>  <Genealogy>  (73) 
Cc1cccc(Oc2ccccc2)c1NC(=O)Cn1c(C)c[n-]c(=NCCc2ccccn2)c1=O (protonated)
Cc1cccc(Oc2ccccc2)c1NC(=O)Cn1c(C)c[n-]c(=NCCc2ccccn2)c1=O (3D coordinates assigned)
Cc1cccc(Oc2ccccc2)c1NC(=O)Cn1c(C)c[n-]c(=NCCc2ccccn2)c1=O (optimized conformer: 79.43239533844638 kcal/mol)

>  <smiles>  (73) 
Cc1cccc(Oc2ccccc2)c1NC(=O)Cn1c(C)c[nH]c(=NCCc2ccccn2)c1=O

>  <score_type>  (73) 
oracle

>  <origin>  (73) 
adg

>  <m_score__min__energy>  (73) 
-11.09

>  <m_primary>  (73) 
energy

$$$$
74:0
     RDKit          3D

 49 51  0  0  0  0  0  0  0  0999 V2000
   63.2110   33.8620   46.3660 C   0  0  0  0  0  0  0  0  0  0  0  0
   61.8580   33.8290   47.0290 C   0  0  0  0  0  0  0  0  0  0  0  0
   60.7110   33.9810   46.2330 C   0  0  0  0  0  0  0  0  0  0  0  0
   59.4400   33.9400   46.8030 C   0  0  0  0  0  0  0  0  0  0  0  0
   59.2940   33.7430   48.1740 C   0  0  0  0  0  0  0  0  0  0  0  0
   60.4220   33.6090   48.9970 C   0  0  0  0  0  0  0  0  0  0  0  0
   60.2440   33.3420   50.3970 N   0  0  0  0  0  0  0  0  0  0  0  0
   59.1940   32.5050   50.9300 C   0  0  0  0  0  0  0  0  0  0  0  0
   58.1820   33.0680   51.7360 C   0  0  0  0  0  0  0  0  0  0  0  0
   57.1610   32.2750   52.2590 C   0  0  0  0  0  0  0  0  0  0  0  0
   57.1340   30.9080   51.9980 C   0  0  0  0  0  0  0  0  0  0  0  0
   58.1360   30.3260   51.2240 C   0  0  0  0  0  0  0  0  0  0  0  0
   59.1790   31.1040   50.6940 C   0  0  0  0  0  0  0  0  0  0  0  0
   60.4440   30.2940   49.7520 S   0  0  0  0  0  0  0  0  0  0  0  0
   60.4200   28.8280   50.0820 O   0  0  0  0  0  0  0  0  0  0  0  0
   61.8000   30.8440   50.0930 O   0  0  0  0  0  0  0  0  0  0  0  0
   60.1720   30.4990   48.0500 N   0  0  0  0  0  0  0  0  0  0  0  0
   59.4740   29.5720   47.2100 C   0  0  0  0  0  0  0  0  0  0  0  0
   59.7760   28.2000   47.2040 C   0  0  0  0  0  0  0  0  0  0  0  0
   59.0920   27.3340   46.3460 C   0  0  0  0  0  0  0  0  0  0  0  0
   58.0990   27.8280   45.4960 C   0  0  0  0  0  0  0  0  0  0  0  0
   57.7780   29.1930   45.5080 C   0  0  0  0  0  0  0  0  0  0  0  0
   56.5340   29.8350   44.4410 S   0  0  0  0  0  0  0  0  0  0  0  0
   56.8370   29.3100   42.8210 N   0  0  0  0  0  0  0  0  0  0  0  0
   55.1780   29.3480   44.8690 O   0  0  0  0  0  0  0  0  0  0  0  0
   56.5530   31.3370   44.5000 O   0  0  0  0  0  0  0  0  0  0  0  0
   58.4650   30.0570   46.3700 C   0  0  0  0  0  0  0  0  0  0  0  0
   61.7190   33.6750   48.4340 C   0  0  0  0  0  0  0  0  0  0  0  0
   62.9320   33.5410   49.3270 C   0  0  0  0  0  0  0  0  0  0  0  0
   63.9963   33.8812   47.1360 H   0  0  0  0  0  0  0  0  0  0  0  0
   63.3340   32.9666   45.7390 H   0  0  0  0  0  0  0  0  0  0  0  0
   63.2902   34.7623   45.7390 H   0  0  0  0  0  0  0  0  0  0  0  0
   60.8169   34.1339   45.1488 H   0  0  0  0  0  0  0  0  0  0  0  0
   58.5499   34.0635   46.1686 H   0  0  0  0  0  0  0  0  0  0  0  0
   58.2873   33.6921   48.6144 H   0  0  0  0  0  0  0  0  0  0  0  0
   60.9040   33.8260   51.0390 H   0  0  0  0  0  0  0  0  0  0  0  0
   58.1986   34.1459   51.9546 H   0  0  0  0  0  0  0  0  0  0  0  0
   56.3752   32.7308   52.8792 H   0  0  0  0  0  0  0  0  0  0  0  0
   56.3214   30.2869   52.4029 H   0  0  0  0  0  0  0  0  0  0  0  0
   58.1101   29.2444   51.0256 H   0  0  0  0  0  0  0  0  0  0  0  0
   60.5526   27.8062   47.8761 H   0  0  0  0  0  0  0  0  0  0  0  0
   59.3359   26.2614   46.3399 H   0  0  0  0  0  0  0  0  0  0  0  0
   57.5683   27.1450   44.8164 H   0  0  0  0  0  0  0  0  0  0  0  0
   57.8640   29.4050   42.6560 H   0  0  0  0  0  0  0  0  0  0  0  0
   56.6210   28.2900   42.7860 H   0  0  0  0  0  0  0  0  0  0  0  0
   58.2092   31.1267   46.3870 H   0  0  0  0  0  0  0  0  0  0  0  0
   62.6174   33.5758   50.3805 H   0  0  0  0  0  0  0  0  0  0  0  0
   63.4319   32.5822   49.1251 H   0  0  0  0  0  0  0  0  0  0  0  0
   63.6291   34.3676   49.1251 H   0  0  0  0  0  0  0  0  0  0  0  0
  1  2  1  0
  2  3  2  0
  3  4  1  0
  4  5  2  0
  5  6  1  0
  6  7  1  0
  7  8  1  0
  8  9  2  0
  9 10  1  0
 10 11  2  0
 11 12  1  0
 12 13  2  0
 13 14  1  0
 14 15  2  0
 14 16  2  0
 14 17  1  0
 17 18  1  0
 18 19  2  0
 19 20  1  0
 20 21  2  0
 21 22  1  0
 22 23  1  0
 23 24  1  0
 23 25  2  0
 23 26  2  0
 22 27  2  0
  6 28  2  0
 28 29  1  0
 28  2  1  0
 13  8  1  0
 27 18  1  0
  1 30  1  0
  1 31  1  0
  1 32  1  0
  3 33  1  0
  4 34  1  0
  5 35  1  0
  7 36  1  0
  9 37  1  0
 10 38  1  0
 11 39  1  0
 12 40  1  0
 19 41  1  0
 20 42  1  0
 21 43  1  0
 24 44  1  0
 24 45  1  0
 27 46  1  0
 29 47  1  0
 29 48  1  0
 29 49  1  0
M  CHG  1  17  -1
M  END
>  <UniqueID>  (74) 
67

>  <SMILES>  (74) 
Cc1cccc(Nc2ccccc2S(=O)(=O)[N-]c2cccc(S(N)(=O)=O)c2)c1C

>  <Energy>  (74) 
61.75599750198757

>  <Genealogy>  (74) 
Cc1cccc(Nc2ccccc2S(=O)(=O)[N-]c2cccc(S(N)(=O)=O)c2)c1C (protonated)
Cc1cccc(Nc2ccccc2S(=O)(=O)[N-]c2cccc(S(N)(=O)=O)c2)c1C (3D coordinates assigned)
Cc1cccc(Nc2ccccc2S(=O)(=O)[N-]c2cccc(S(N)(=O)=O)c2)c1C (optimized conformer: 61.75599750198757 kcal/mol)

>  <smiles>  (74) 
Cc1cccc(Nc2ccccc2S(=O)(=O)Nc2cccc(S(N)(=O)=O)c2)c1C

>  <score_type>  (74) 
oracle

>  <origin>  (74) 
adg

>  <m_score__min__energy>  (74) 
-11.41

>  <m_primary>  (74) 
energy

$$$$
75:0
     RDKit          3D

 47 48  0  0  0  0  0  0  0  0999 V2000
   60.2630   27.4920   48.5930 C   0  0  0  0  0  0  0  0  0  0  0  0
   60.7730   28.6470   49.2530 O   0  0  0  0  0  0  0  0  0  0  0  0
   60.4640   29.9700   48.8940 C   0  0  0  0  0  0  0  0  0  0  0  0
   59.1750   30.4450   49.1600 C   0  0  0  0  0  0  0  0  0  0  0  0
   58.8130   31.7490   48.8160 C   0  0  0  0  0  0  0  0  0  0  0  0
   59.7350   32.6020   48.1860 C   0  0  0  0  0  0  0  0  0  0  0  0
   59.3290   34.0180   47.8470 C   0  0  0  0  0  0  0  0  0  0  0  0
   59.0950   34.1410   46.3730 C   0  0  0  0  0  0  0  0  0  0  0  0
   59.3720   35.2230   45.7850 O   0  0  0  0  0  0  0  0  0  0  0  0
   58.5260   33.0430   45.6450 N   0  0  0  0  0  0  0  0  0  0  0  0
   57.9660   33.1970   44.3050 C   0  0  0  0  0  0  0  0  0  0  0  0
   57.2760   31.9270   43.8760 C   0  0  0  0  0  0  0  0  0  0  0  0
   57.0750   31.7260   42.6470 O   0  0  0  0  0  0  0  0  0  0  0  0
   56.9220   30.8960   44.8150 N   0  0  0  0  0  0  0  0  0  0  0  0
   57.6220   29.6600   45.0180 C   0  0  0  0  0  0  0  0  0  0  0  0
   59.0170   29.5790   44.8750 C   0  0  0  0  0  0  0  0  0  0  0  0
   59.6740   28.3560   45.0590 C   0  0  0  0  0  0  0  0  0  0  0  0
   58.9480   27.2140   45.4140 C   0  0  0  0  0  0  0  0  0  0  0  0
   57.5610   27.2950   45.6100 C   0  0  0  0  0  0  0  0  0  0  0  0
   56.6350   25.8670   46.0710 S   0  0  0  0  0  0  0  0  0  0  0  0
   54.9450   26.2050   45.9280 N   0  0  0  0  0  0  0  0  0  0  0  0
   56.9620   25.4940   47.4910 O   0  0  0  0  0  0  0  0  0  0  0  0
   56.9820   24.7100   45.1760 O   0  0  0  0  0  0  0  0  0  0  0  0
   56.9060   28.5240   45.4210 C   0  0  0  0  0  0  0  0  0  0  0  0
   61.0480   32.1460   47.9340 C   0  0  0  0  0  0  0  0  0  0  0  0
   61.9720   33.0310   47.3470 O   0  0  0  0  0  0  0  0  0  0  0  0
   63.3590   32.7560   47.1680 C   0  0  0  0  0  0  0  0  0  0  0  0
   61.4020   30.8250   48.2820 C   0  0  0  0  0  0  0  0  0  0  0  0
   59.9377   26.7552   49.3422 H   0  0  0  0  0  0  0  0  0  0  0  0
   59.4072   27.7773   47.9636 H   0  0  0  0  0  0  0  0  0  0  0  0
   61.0504   27.0517   47.9636 H   0  0  0  0  0  0  0  0  0  0  0  0
   58.4402   29.7852   49.6445 H   0  0  0  0  0  0  0  0  0  0  0  0
   57.7987   32.1111   49.0398 H   0  0  0  0  0  0  0  0  0  0  0  0
   58.4040   34.2713   48.3857 H   0  0  0  0  0  0  0  0  0  0  0  0
   60.1330   34.7070   48.1452 H   0  0  0  0  0  0  0  0  0  0  0  0
   58.4810   32.1050   46.1030 H   0  0  0  0  0  0  0  0  0  0  0  0
   57.2382   34.0218   44.3087 H   0  0  0  0  0  0  0  0  0  0  0  0
   58.7814   33.4164   43.6000 H   0  0  0  0  0  0  0  0  0  0  0  0
   59.5951   30.4788   44.6177 H   0  0  0  0  0  0  0  0  0  0  0  0
   60.7639   28.2931   44.9240 H   0  0  0  0  0  0  0  0  0  0  0  0
   59.4652   26.2513   45.5396 H   0  0  0  0  0  0  0  0  0  0  0  0
   54.7650   27.0920   46.4440 H   0  0  0  0  0  0  0  0  0  0  0  0
   55.8215   28.5953   45.5908 H   0  0  0  0  0  0  0  0  0  0  0  0
   63.8436   32.6599   48.1508 H   0  0  0  0  0  0  0  0  0  0  0  0
   63.4773   31.8169   46.6075 H   0  0  0  0  0  0  0  0  0  0  0  0
   63.8266   33.5789   46.6075 H   0  0  0  0  0  0  0  0  0  0  0  0
   62.4185   30.4598   48.0738 H   0  0  0  0  0  0  0  0  0  0  0  0
  1  2  1  0
  2  3  1  0
  3  4  2  0
  4  5  1  0
  5  6  2  0
  6  7  1  0
  7  8  1  0
  8  9  2  0
  8 10  1  0
 10 11  1  0
 11 12  1  0
 12 13  2  0
 12 14  1  0
 14 15  1  0
 15 16  2  0
 16 17  1  0
 17 18  2  0
 18 19  1  0
 19 20  1  0
 20 21  1  0
 20 22  2  0
 20 23  2  0
 19 24  2  0
  6 25  1  0
 25 26  1  0
 26 27  1  0
 25 28  2  0
 28  3  1  0
 24 15  1  0
  1 29  1  0
  1 30  1  0
  1 31  1  0
  4 32  1  0
  5 33  1  0
  7 34  1  0
  7 35  1  0
 10 36  1  0
 11 37  1  0
 11 38  1  0
 16 39  1  0
 17 40  1  0
 18 41  1  0
 21 42  1  0
 24 43  1  0
 27 44  1  0
 27 45  1  0
 27 46  1  0
 28 47  1  0
M  CHG  2  14  -1  21  -1
M  END
>  <UniqueID>  (75) 
68

>  <SMILES>  (75) 
COc1ccc(CC(=O)NCC(=O)[N-]c2cccc(S([NH-])(=O)=O)c2)c(OC)c1

>  <Energy>  (75) 
46.29274923978165

>  <Genealogy>  (75) 
COc1ccc(CC(=O)NCC(=O)[N-]c2cccc(S([NH-])(=O)=O)c2)c(OC)c1 (protonated)
COc1ccc(CC(=O)NCC(=O)[N-]c2cccc(S([NH-])(=O)=O)c2)c(OC)c1 (3D coordinates assigned)
COc1ccc(CC(=O)NCC(=O)[N-]c2cccc(S([NH-])(=O)=O)c2)c(OC)c1 (optimized conformer: 46.29274923978165 kcal/mol)

>  <smiles>  (75) 
COc1ccc(CC(=O)NCC(=O)Nc2cccc(S(N)(=O)=O)c2)c(OC)c1

>  <score_type>  (75) 
oracle

>  <origin>  (75) 
adg

>  <m_score__min__energy>  (75) 
-12.09

>  <m_primary>  (75) 
energy

$$$$
76:0
     RDKit          3D

 42 44  0  0  0  0  0  0  0  0999 V2000
   55.2350   30.0830   44.4960 O   0  0  0  0  0  0  0  0  0  0  0  0
   56.4590   29.9180   44.7350 C   0  0  0  0  0  0  0  0  0  0  0  0
   57.2120   31.0200   45.2590 N   0  0  0  0  0  0  0  0  0  0  0  0
   57.0590   32.4210   44.8710 C   0  0  0  0  0  0  0  0  0  0  0  0
   58.0140   33.2940   45.6400 C   0  0  0  0  0  0  0  0  0  0  0  0
   58.7590   34.2890   44.9840 C   0  0  0  0  0  0  0  0  0  0  0  0
   59.6410   35.0980   45.7050 C   0  0  0  0  0  0  0  0  0  0  0  0
   59.7860   34.9240   47.0840 C   0  0  0  0  0  0  0  0  0  0  0  0
   59.0420   33.9430   47.7460 C   0  0  0  0  0  0  0  0  0  0  0  0
   58.1550   33.1330   47.0290 C   0  0  0  0  0  0  0  0  0  0  0  0
   57.0600   28.5960   44.4790 C   0  0  0  0  0  0  0  0  0  0  0  0
   56.9890   27.4920   45.3120 C   0  0  0  0  0  0  0  0  0  0  0  0
   57.7930   26.5340   44.7290 C   0  0  0  0  0  0  0  0  0  0  0  0
   58.1440   24.9380   45.3750 S   0  0  0  0  0  0  0  0  0  0  0  0
   57.1540   24.6210   46.4620 O   0  0  0  0  0  0  0  0  0  0  0  0
   59.5210   24.9450   45.9790 O   0  0  0  0  0  0  0  0  0  0  0  0
   58.0590   23.7140   44.1320 N   0  0  0  0  0  0  0  0  0  0  0  0
   57.8770   22.3830   44.7420 C   0  0  0  0  0  0  0  0  0  0  0  0
   57.2760   21.3960   43.7280 C   0  0  0  0  0  0  0  0  0  0  0  0
   56.0060   21.7860   43.2180 O   0  0  0  0  0  0  0  0  0  0  0  0
   55.7580   23.1820   43.2980 C   0  0  0  0  0  0  0  0  0  0  0  0
   57.0250   24.0380   43.1240 C   0  0  0  0  0  0  0  0  0  0  0  0
   58.3260   27.0840   43.5820 C   0  0  0  0  0  0  0  0  0  0  0  0
   57.8820   28.3450   43.4400 N   0  0  0  0  0  0  0  0  0  0  0  0
   57.2641   32.5220   43.7950 H   0  0  0  0  0  0  0  0  0  0  0  0
   56.0303   32.7395   45.0953 H   0  0  0  0  0  0  0  0  0  0  0  0
   58.6473   34.4314   43.8990 H   0  0  0  0  0  0  0  0  0  0  0  0
   60.2228   35.8739   45.1858 H   0  0  0  0  0  0  0  0  0  0  0  0
   60.4852   35.5586   47.6482 H   0  0  0  0  0  0  0  0  0  0  0  0
   59.1541   33.8078   48.8319 H   0  0  0  0  0  0  0  0  0  0  0  0
   57.5656   32.3671   47.5544 H   0  0  0  0  0  0  0  0  0  0  0  0
   56.4121   27.3983   46.2439 H   0  0  0  0  0  0  0  0  0  0  0  0
   58.8531   22.0042   45.0792 H   0  0  0  0  0  0  0  0  0  0  0  0
   57.1879   22.4767   45.5942 H   0  0  0  0  0  0  0  0  0  0  0  0
   57.9735   21.3023   42.8826 H   0  0  0  0  0  0  0  0  0  0  0  0
   57.1245   20.4464   44.2622 H   0  0  0  0  0  0  0  0  0  0  0  0
   55.0417   23.4548   42.5091 H   0  0  0  0  0  0  0  0  0  0  0  0
   55.3643   23.3850   44.3049 H   0  0  0  0  0  0  0  0  0  0  0  0
   57.4392   23.8586   42.1209 H   0  0  0  0  0  0  0  0  0  0  0  0
   56.7419   25.0927   43.2564 H   0  0  0  0  0  0  0  0  0  0  0  0
   59.0092   26.5700   42.8899 H   0  0  0  0  0  0  0  0  0  0  0  0
   58.1410   29.0060   42.6740 H   0  0  0  0  0  0  0  0  0  0  0  0
  1  2  2  0
  2  3  1  0
  3  4  1  0
  4  5  1  0
  5  6  2  0
  6  7  1  0
  7  8  2  0
  8  9  1  0
  9 10  2  0
  2 11  1  0
 11 12  2  0
 12 13  1  0
 13 14  1  0
 14 15  2  0
 14 16  2  0
 14 17  1  0
 17 18  1  0
 18 19  1  0
 19 20  1  0
 20 21  1  0
 21 22  1  0
 13 23  2  0
 23 24  1  0
 10  5  1  0
 24 11  1  0
 22 17  1  0
  4 25  1  0
  4 26  1  0
  6 27  1  0
  7 28  1  0
  8 29  1  0
  9 30  1  0
 10 31  1  0
 12 32  1  0
 18 33  1  0
 18 34  1  0
 19 35  1  0
 19 36  1  0
 21 37  1  0
 21 38  1  0
 22 39  1  0
 22 40  1  0
 23 41  1  0
 24 42  1  0
M  CHG  1   3  -1
M  END
>  <UniqueID>  (76) 
69

>  <SMILES>  (76) 
O=C([N-]Cc1ccccc1)c1cc(S(=O)(=O)N2CCOCC2)c[nH]1

>  <Energy>  (76) 
79.4902902258754

>  <Genealogy>  (76) 
O=C([N-]Cc1ccccc1)c1cc(S(=O)(=O)N2CCOCC2)c[nH]1 (protonated)
O=C([N-]Cc1ccccc1)c1cc(S(=O)(=O)N2CCOCC2)c[nH]1 (3D coordinates assigned)
O=C([N-]Cc1ccccc1)c1cc(S(=O)(=O)N2CCOCC2)c[nH]1 (nonaromatic ring conformer: 79.4902902258754 kcal/mol)

>  <smiles>  (76) 
O=C(NCc1ccccc1)c1cc(S(=O)(=O)N2CCOCC2)c[nH]1

>  <score_type>  (76) 
oracle

>  <origin>  (76) 
adg

>  <m_score__min__energy>  (76) 
-10.460000000000001

>  <m_primary>  (76) 
energy

$$$$
77:0
     RDKit          3D

 58 60  0  0  0  0  0  0  0  0999 V2000
   61.8070   30.5860   50.0770 C   0  0  0  0  0  0  0  0  0  0  0  0
   61.0660   29.2950   50.4100 C   0  0  0  0  0  0  0  0  0  0  0  0
   61.0550   28.4120   49.2880 O   0  0  0  0  0  0  0  0  0  0  0  0
   60.3260   28.6060   48.1020 C   0  0  0  0  0  0  0  0  0  0  0  0
   59.1800   27.8280   47.8960 C   0  0  0  0  0  0  0  0  0  0  0  0
   58.4170   27.9790   46.7360 C   0  0  0  0  0  0  0  0  0  0  0  0
   58.7980   28.9060   45.7520 C   0  0  0  0  0  0  0  0  0  0  0  0
   57.9600   29.0900   44.5180 C   0  0  0  0  0  0  0  0  0  0  0  0
   58.4570   30.2380   43.7570 N   0  0  0  0  0  0  0  0  0  0  0  0
   57.5270   31.6530   44.1490 S   0  0  0  0  0  0  0  0  0  0  0  0
   57.4540   32.5470   42.9430 O   0  0  0  0  0  0  0  0  0  0  0  0
   56.1350   31.2440   44.5470 O   0  0  0  0  0  0  0  0  0  0  0  0
   58.2970   32.5320   45.4690 C   0  0  0  0  0  0  0  0  0  0  0  0
   59.2770   33.4920   45.2010 C   0  0  0  0  0  0  0  0  0  0  0  0
   59.8650   34.2080   46.2440 C   0  0  0  0  0  0  0  0  0  0  0  0
   59.4930   33.9560   47.5770 C   0  0  0  0  0  0  0  0  0  0  0  0
   60.0550   34.6620   48.6550 O   0  0  0  0  0  0  0  0  0  0  0  0
   61.1700   34.2150   49.4200 C   0  0  0  0  0  0  0  0  0  0  0  0
   58.5340   32.9690   47.8530 C   0  0  0  0  0  0  0  0  0  0  0  0
   58.1650   32.7330   49.2210 N   0  0  0  0  0  0  0  0  0  0  0  0
   58.3970   31.5460   49.9920 C   0  0  0  0  0  0  0  0  0  0  0  0
   58.5080   30.4320   49.4100 O   0  0  0  0  0  0  0  0  0  0  0  0
   58.5550   31.6190   51.4700 C   0  0  0  0  0  0  0  0  0  0  0  0
   59.5730   32.4310   52.0070 C   0  0  0  0  0  0  0  0  0  0  0  0
   59.7580   32.5290   53.3870 C   0  0  0  0  0  0  0  0  0  0  0  0
   58.9270   31.8250   54.2550 C   0  0  0  0  0  0  0  0  0  0  0  0
   57.9040   31.0240   53.7480 C   0  0  0  0  0  0  0  0  0  0  0  0
   57.7050   30.9080   52.3560 C   0  0  0  0  0  0  0  0  0  0  0  0
   56.6750   30.1040   51.8370 O   0  0  0  0  0  0  0  0  0  0  0  0
   55.2820   30.3590   51.9950 C   0  0  0  0  0  0  0  0  0  0  0  0
   57.9270   32.2710   46.7930 C   0  0  0  0  0  0  0  0  0  0  0  0
   59.9340   29.7010   45.9630 C   0  0  0  0  0  0  0  0  0  0  0  0
   60.6950   29.5530   47.1260 C   0  0  0  0  0  0  0  0  0  0  0  0
   62.0978   31.0927   51.0090 H   0  0  0  0  0  0  0  0  0  0  0  0
   62.7077   30.3511   49.4909 H   0  0  0  0  0  0  0  0  0  0  0  0
   61.1498   31.2453   49.4909 H   0  0  0  0  0  0  0  0  0  0  0  0
   61.5674   28.7990   51.2542 H   0  0  0  0  0  0  0  0  0  0  0  0
   60.0272   29.5430   50.6733 H   0  0  0  0  0  0  0  0  0  0  0  0
   58.8780   27.0911   48.6548 H   0  0  0  0  0  0  0  0  0  0  0  0
   57.5131   27.3688   46.5923 H   0  0  0  0  0  0  0  0  0  0  0  0
   58.0192   28.1845   43.8962 H   0  0  0  0  0  0  0  0  0  0  0  0
   56.9140   29.2677   44.8083 H   0  0  0  0  0  0  0  0  0  0  0  0
   58.3070   30.0450   42.7390 H   0  0  0  0  0  0  0  0  0  0  0  0
   59.5860   33.6838   44.1629 H   0  0  0  0  0  0  0  0  0  0  0  0
   60.6234   34.9735   46.0229 H   0  0  0  0  0  0  0  0  0  0  0  0
   60.9400   34.3072   50.4917 H   0  0  0  0  0  0  0  0  0  0  0  0
   61.3814   33.1626   49.1796 H   0  0  0  0  0  0  0  0  0  0  0  0
   62.0498   34.8299   49.1796 H   0  0  0  0  0  0  0  0  0  0  0  0
   60.2309   32.9954   51.3298 H   0  0  0  0  0  0  0  0  0  0  0  0
   60.5615   33.1633   53.7896 H   0  0  0  0  0  0  0  0  0  0  0  0
   59.0777   31.9008   55.3420 H   0  0  0  0  0  0  0  0  0  0  0  0
   57.2461   30.4776   54.4398 H   0  0  0  0  0  0  0  0  0  0  0  0
   55.0367   30.4039   53.0664 H   0  0  0  0  0  0  0  0  0  0  0  0
   55.0287   31.3184   51.5203 H   0  0  0  0  0  0  0  0  0  0  0  0
   54.7053   29.5515   51.5203 H   0  0  0  0  0  0  0  0  0  0  0  0
   57.1567   31.5153   47.0064 H   0  0  0  0  0  0  0  0  0  0  0  0
   60.2279   30.4456   45.2085 H   0  0  0  0  0  0  0  0  0  0  0  0
   61.5864   30.1789   47.2801 H   0  0  0  0  0  0  0  0  0  0  0  0
  1  2  1  0
  2  3  1  0
  3  4  1  0
  4  5  2  0
  5  6  1  0
  6  7  2  0
  7  8  1  0
  8  9  1  0
  9 10  1  0
 10 11  2  0
 10 12  2  0
 10 13  1  0
 13 14  2  0
 14 15  1  0
 15 16  2  0
 16 17  1  0
 17 18  1  0
 16 19  1  0
 19 20  1  0
 20 21  1  0
 21 22  2  0
 21 23  1  0
 23 24  2  0
 24 25  1  0
 25 26  2  0
 26 27  1  0
 27 28  2  0
 28 29  1  0
 29 30  1  0
 19 31  2  0
  7 32  1  0
 32 33  2  0
 33  4  1  0
 31 13  1  0
 28 23  1  0
  1 34  1  0
  1 35  1  0
  1 36  1  0
  2 37  1  0
  2 38  1  0
  5 39  1  0
  6 40  1  0
  8 41  1  0
  8 42  1  0
  9 43  1  0
 14 44  1  0
 15 45  1  0
 18 46  1  0
 18 47  1  0
 18 48  1  0
 24 49  1  0
 25 50  1  0
 26 51  1  0
 27 52  1  0
 30 53  1  0
 30 54  1  0
 30 55  1  0
 31 56  1  0
 32 57  1  0
 33 58  1  0
M  CHG  1  20  -1
M  END
>  <UniqueID>  (77) 
70

>  <SMILES>  (77) 
CCOc1ccc(CNS(=O)(=O)c2ccc(OC)c([N-]C(=O)c3ccccc3OC)c2)cc1

>  <Energy>  (77) 
59.6996965946612

>  <Genealogy>  (77) 
CCOc1ccc(CNS(=O)(=O)c2ccc(OC)c([N-]C(=O)c3ccccc3OC)c2)cc1 (protonated)
CCOc1ccc(CNS(=O)(=O)c2ccc(OC)c([N-]C(=O)c3ccccc3OC)c2)cc1 (3D coordinates assigned)
CCOc1ccc(CNS(=O)(=O)c2ccc(OC)c([N-]C(=O)c3ccccc3OC)c2)cc1 (optimized conformer: 59.6996965946612 kcal/mol)

>  <smiles>  (77) 
CCOc1ccc(CNS(=O)(=O)c2ccc(OC)c(NC(=O)c3ccccc3OC)c2)cc1

>  <score_type>  (77) 
oracle

>  <origin>  (77) 
adg

>  <m_score__min__energy>  (77) 
-11.539999999999999

>  <m_primary>  (77) 
energy

$$$$
78:0
     RDKit          3D

 43 44  0  0  0  0  0  0  0  0999 V2000
   55.8770   23.0500   43.0610 C   0  0  0  0  0  0  0  0  0  0  0  0
   55.1800   22.9790   44.3360 N   0  0  0  0  0  0  0  0  0  0  0  0
   55.4370   23.8910   45.4080 C   0  0  0  0  0  0  0  0  0  0  0  0
   56.4350   23.7260   46.1590 O   0  0  0  0  0  0  0  0  0  0  0  0
   54.5340   25.0250   45.6340 C   0  0  0  0  0  0  0  0  0  0  0  0
   53.2870   24.8650   45.5410 O   0  0  0  0  0  0  0  0  0  0  0  0
   55.0730   26.3100   45.9570 N   0  0  0  0  0  0  0  0  0  0  0  0
   56.3660   26.4870   46.6060 C   0  0  0  0  0  0  0  0  0  0  0  0
   57.4120   26.9610   45.5910 C   0  0  0  0  0  0  0  0  0  0  0  0
   57.8270   28.3540   45.8430 N   0  0  0  0  0  0  0  0  0  0  0  0
   58.5380   28.7050   47.0510 C   0  0  0  0  0  0  0  0  0  0  0  0
   58.1790   28.2000   48.1470 O   0  0  0  0  0  0  0  0  0  0  0  0
   59.6100   29.6590   47.0550 N   0  0  0  0  0  0  0  0  0  0  0  0
   59.4880   31.0870   47.0930 C   0  0  0  0  0  0  0  0  0  0  0  0
   60.6550   31.8640   47.0660 C   0  0  0  0  0  0  0  0  0  0  0  0
   60.5740   33.2600   47.0830 C   0  0  0  0  0  0  0  0  0  0  0  0
   59.3280   33.8890   47.1120 C   0  0  0  0  0  0  0  0  0  0  0  0
   59.2500   35.2430   47.1270 F   0  0  0  0  0  0  0  0  0  0  0  0
   58.1590   33.1230   47.1170 C   0  0  0  0  0  0  0  0  0  0  0  0
   58.2360   31.7270   47.1000 C   0  0  0  0  0  0  0  0  0  0  0  0
   57.5620   29.3900   44.8680 C   0  0  0  0  0  0  0  0  0  0  0  0
   58.6380   30.1060   44.3090 C   0  0  0  0  0  0  0  0  0  0  0  0
   58.4130   31.1190   43.3750 C   0  0  0  0  0  0  0  0  0  0  0  0
   57.1120   31.4280   42.9780 C   0  0  0  0  0  0  0  0  0  0  0  0
   56.0340   30.7170   43.5090 C   0  0  0  0  0  0  0  0  0  0  0  0
   56.2480   29.6930   44.4440 C   0  0  0  0  0  0  0  0  0  0  0  0
   55.1590   28.9710   44.9280 O   0  0  0  0  0  0  0  0  0  0  0  0
   56.9569   23.1600   43.2391 H   0  0  0  0  0  0  0  0  0  0  0  0
   55.6916   22.1283   42.4899 H   0  0  0  0  0  0  0  0  0  0  0  0
   55.5095   23.9154   42.4899 H   0  0  0  0  0  0  0  0  0  0  0  0
   56.2708   27.2365   47.4055 H   0  0  0  0  0  0  0  0  0  0  0  0
   56.6887   25.5237   47.0279 H   0  0  0  0  0  0  0  0  0  0  0  0
   58.2950   26.3085   45.6584 H   0  0  0  0  0  0  0  0  0  0  0  0
   56.9618   26.9141   44.5884 H   0  0  0  0  0  0  0  0  0  0  0  0
   61.6388   31.3731   47.0313 H   0  0  0  0  0  0  0  0  0  0  0  0
   61.4936   33.8635   47.0735 H   0  0  0  0  0  0  0  0  0  0  0  0
   57.1773   33.6189   47.1343 H   0  0  0  0  0  0  0  0  0  0  0  0
   57.3139   31.1273   47.0921 H   0  0  0  0  0  0  0  0  0  0  0  0
   59.6676   29.8644   44.6117 H   0  0  0  0  0  0  0  0  0  0  0  0
   59.2629   31.6743   42.9516 H   0  0  0  0  0  0  0  0  0  0  0  0
   56.9355   32.2311   42.2473 H   0  0  0  0  0  0  0  0  0  0  0  0
   55.0094   30.9615   43.1920 H   0  0  0  0  0  0  0  0  0  0  0  0
   55.1410   27.9580   44.9120 H   0  0  0  0  0  0  0  0  0  0  0  0
  1  2  1  0
  2  3  1  0
  3  4  2  0
  3  5  1  0
  5  6  2  0
  5  7  1  0
  7  8  1  0
  8  9  1  0
  9 10  1  0
 10 11  1  0
 11 12  2  0
 11 13  1  0
 13 14  1  0
 14 15  2  0
 15 16  1  0
 16 17  2  0
 17 18  1  0
 17 19  1  0
 19 20  2  0
 10 21  1  0
 21 22  2  0
 22 23  1  0
 23 24  2  0
 24 25  1  0
 25 26  2  0
 26 27  1  0
 20 14  1  0
 26 21  1  0
  1 28  1  0
  1 29  1  0
  1 30  1  0
  8 31  1  0
  8 32  1  0
  9 33  1  0
  9 34  1  0
 15 35  1  0
 16 36  1  0
 19 37  1  0
 20 38  1  0
 22 39  1  0
 23 40  1  0
 24 41  1  0
 25 42  1  0
 27 43  1  0
M  CHG  3   2  -1   7  -1  13  -1
M  END
>  <UniqueID>  (78) 
71

>  <SMILES>  (78) 
C[N-]C(=O)C(=O)[N-]CCN(C(=O)[N-]c1ccc(F)cc1)c1ccccc1O

>  <Energy>  (78) 
47.7581346006787

>  <Genealogy>  (78) 
C[N-]C(=O)C(=O)[N-]CCN(C(=O)[N-]c1ccc(F)cc1)c1ccccc1O (protonated)
C[N-]C(=O)C(=O)[N-]CCN(C(=O)[N-]c1ccc(F)cc1)c1ccccc1O (3D coordinates assigned)
C[N-]C(=O)C(=O)[N-]CCN(C(=O)[N-]c1ccc(F)cc1)c1ccccc1O (optimized conformer: 47.7581346006787 kcal/mol)

>  <smiles>  (78) 
CNC(=O)C(=O)NCCN(C(=O)Nc1ccc(F)cc1)c1ccccc1O

>  <score_type>  (78) 
oracle

>  <origin>  (78) 
adg

>  <m_score__min__energy>  (78) 
-12.630000000000001

>  <m_primary>  (78) 
energy

$$$$
79:0
     RDKit          3D

 74 79  0  0  0  0  0  0  0  0999 V2000
   59.6480   35.5740   45.6230 C   0  0  0  0  0  0  0  0  0  0  0  0
   58.6430   34.7160   46.1510 O   0  0  0  0  0  0  0  0  0  0  0  0
   58.5090   33.3560   45.8320 C   0  0  0  0  0  0  0  0  0  0  0  0
   57.5270   32.9030   44.9200 C   0  0  0  0  0  0  0  0  0  0  0  0
   57.4110   31.5360   44.6780 C   0  0  0  0  0  0  0  0  0  0  0  0
   58.2320   30.6290   45.2900 C   0  0  0  0  0  0  0  0  0  0  0  0
   59.2070   31.0370   46.2040 C   0  0  0  0  0  0  0  0  0  0  0  0
   59.3580   32.4130   46.4700 C   0  0  0  0  0  0  0  0  0  0  0  0
   60.3440   32.8400   47.4270 N   0  0  0  0  0  0  0  0  0  0  0  0
   59.9940   33.8530   48.4290 C   0  0  0  0  0  0  0  0  0  0  0  0
   61.2410   34.5060   49.0260 C   0  0  0  0  0  0  0  0  0  0  0  0
   62.1600   33.4580   49.5070 N   0  0  0  0  0  0  0  0  0  0  0  0
   63.2400   34.0490   50.3230 C   0  0  0  0  0  0  0  0  0  0  0  0
   64.3430   33.0460   50.5520 C   0  0  0  0  0  0  0  0  0  0  0  0
   65.6650   33.3370   50.1710 C   0  0  0  0  0  0  0  0  0  0  0  0
   66.6770   32.3960   50.3770 C   0  0  0  0  0  0  0  0  0  0  0  0
   66.3800   31.1590   50.9600 C   0  0  0  0  0  0  0  0  0  0  0  0
   67.3640   30.2470   51.1560 F   0  0  0  0  0  0  0  0  0  0  0  0
   65.0680   30.8650   51.3450 C   0  0  0  0  0  0  0  0  0  0  0  0
   64.0540   31.8050   51.1460 C   0  0  0  0  0  0  0  0  0  0  0  0
   62.7160   32.7100   48.3610 C   0  0  0  0  0  0  0  0  0  0  0  0
   61.6190   32.1740   47.4870 C   0  0  0  0  0  0  0  0  0  0  0  0
   61.8470   31.1640   46.7640 O   0  0  0  0  0  0  0  0  0  0  0  0
   57.8610   29.2990   44.9530 N   0  0  0  0  0  0  0  0  0  0  0  0
   58.3970   28.0910   45.5060 C   0  0  0  0  0  0  0  0  0  0  0  0
   59.3810   27.5350   44.9480 O   0  0  0  0  0  0  0  0  0  0  0  0
   57.8330   27.5040   46.7670 C   0  0  0  0  0  0  0  0  0  0  0  0
   58.7310   27.8080   47.9260 C   0  0  0  0  0  0  0  0  0  0  0  0
   59.6800   26.9110   48.3010 N   0  0  0  0  0  0  0  0  0  0  0  0
   60.5490   27.1930   49.3020 C   0  0  0  0  0  0  0  0  0  0  0  0
   61.4210   26.3460   49.6320 O   0  0  0  0  0  0  0  0  0  0  0  0
   60.4820   28.4220   49.9590 C   0  0  0  0  0  0  0  0  0  0  0  0
   59.5010   29.3500   49.5630 C   0  0  0  0  0  0  0  0  0  0  0  0
   59.3830   30.6470   50.1920 N   0  0  0  0  0  0  0  0  0  0  0  0
   60.5640   31.3160   50.7600 C   0  0  0  0  0  0  0  0  0  0  0  0
   60.1480   32.3520   51.8090 C   0  0  0  0  0  0  0  0  0  0  0  0
   59.1520   33.2130   51.2960 O   0  0  0  0  0  0  0  0  0  0  0  0
   57.9690   32.4750   51.0690 C   0  0  0  0  0  0  0  0  0  0  0  0
   58.1740   31.4470   49.9510 C   0  0  0  0  0  0  0  0  0  0  0  0
   58.6590   29.0160   48.5460 N   0  0  0  0  0  0  0  0  0  0  0  0
   56.6630   29.3460   44.1150 C   0  0  0  0  0  0  0  0  0  0  0  0
   56.3900   30.8430   43.8440 C   0  0  0  0  0  0  0  0  0  0  0  0
   60.1996   36.0449   46.4500 H   0  0  0  0  0  0  0  0  0  0  0  0
   60.3438   34.9871   45.0054 H   0  0  0  0  0  0  0  0  0  0  0  0
   59.1775   36.3532   45.0054 H   0  0  0  0  0  0  0  0  0  0  0  0
   56.8655   33.6188   44.4100 H   0  0  0  0  0  0  0  0  0  0  0  0
   59.8461   30.2967   46.7076 H   0  0  0  0  0  0  0  0  0  0  0  0
   59.3777   34.6293   47.9521 H   0  0  0  0  0  0  0  0  0  0  0  0
   59.4415   33.3581   49.2413 H   0  0  0  0  0  0  0  0  0  0  0  0
   61.7436   35.1096   48.2559 H   0  0  0  0  0  0  0  0  0  0  0  0
   60.9501   35.1536   49.8663 H   0  0  0  0  0  0  0  0  0  0  0  0
   63.6509   34.9246   49.7991 H   0  0  0  0  0  0  0  0  0  0  0  0
   62.8251   34.3479   51.2969 H   0  0  0  0  0  0  0  0  0  0  0  0
   65.9027   34.3071   49.7100 H   0  0  0  0  0  0  0  0  0  0  0  0
   67.7104   32.6282   50.0800 H   0  0  0  0  0  0  0  0  0  0  0  0
   64.8345   29.8933   51.8046 H   0  0  0  0  0  0  0  0  0  0  0  0
   63.0243   31.5730   51.4556 H   0  0  0  0  0  0  0  0  0  0  0  0
   63.3532   33.3821   47.7675 H   0  0  0  0  0  0  0  0  0  0  0  0
   63.3035   31.8635   48.7460 H   0  0  0  0  0  0  0  0  0  0  0  0
   56.8385   27.9348   46.9552 H   0  0  0  0  0  0  0  0  0  0  0  0
   57.7540   26.4130   46.6509 H   0  0  0  0  0  0  0  0  0  0  0  0
   61.1834   28.6613   50.7719 H   0  0  0  0  0  0  0  0  0  0  0  0
   61.2124   30.5637   51.2329 H   0  0  0  0  0  0  0  0  0  0  0  0
   61.1027   31.8298   49.9502 H   0  0  0  0  0  0  0  0  0  0  0  0
   59.7536   31.8310   52.6939 H   0  0  0  0  0  0  0  0  0  0  0  0
   61.0286   32.9531   52.0797 H   0  0  0  0  0  0  0  0  0  0  0  0
   57.6883   31.9503   51.9942 H   0  0  0  0  0  0  0  0  0  0  0  0
   57.1725   33.1706   50.7662 H   0  0  0  0  0  0  0  0  0  0  0  0
   57.3013   30.7785   49.9115 H   0  0  0  0  0  0  0  0  0  0  0  0
   58.2902   31.9824   48.9971 H   0  0  0  0  0  0  0  0  0  0  0  0
   56.8372   28.8121   43.1692 H   0  0  0  0  0  0  0  0  0  0  0  0
   55.8068   28.8637   44.6093 H   0  0  0  0  0  0  0  0  0  0  0  0
   56.5244   31.0811   42.7785 H   0  0  0  0  0  0  0  0  0  0  0  0
   55.3602   31.1430   44.0881 H   0  0  0  0  0  0  0  0  0  0  0  0
  1  2  1  0
  2  3  1  0
  3  4  2  0
  4  5  1  0
  5  6  2  0
  6  7  1  0
  7  8  2  0
  8  9  1  0
  9 10  1  0
 10 11  1  0
 11 12  1  0
 12 13  1  0
 13 14  1  0
 14 15  2  0
 15 16  1  0
 16 17  2  0
 17 18  1  0
 17 19  1  0
 19 20  2  0
 12 21  1  0
 21 22  1  0
 22 23  2  0
  6 24  1  0
 24 25  1  0
 25 26  2  0
 25 27  1  0
 27 28  1  0
 28 29  2  0
 29 30  1  0
 30 31  2  0
 30 32  1  0
 32 33  2  0
 33 34  1  0
 34 35  1  0
 35 36  1  0
 36 37  1  0
 37 38  1  0
 38 39  1  0
 33 40  1  0
 24 41  1  0
 41 42  1  0
  8  3  1  0
 22  9  1  0
 40 28  1  0
 42  5  1  0
 20 14  1  0
 39 34  1  0
  1 43  1  0
  1 44  1  0
  1 45  1  0
  4 46  1  0
  7 47  1  0
 10 48  1  0
 10 49  1  0
 11 50  1  0
 11 51  1  0
 13 52  1  0
 13 53  1  0
 15 54  1  0
 16 55  1  0
 19 56  1  0
 20 57  1  0
 21 58  1  0
 21 59  1  0
 27 60  1  0
 27 61  1  0
 32 62  1  0
 35 63  1  0
 35 64  1  0
 36 65  1  0
 36 66  1  0
 38 67  1  0
 38 68  1  0
 39 69  1  0
 39 70  1  0
 41 71  1  0
 41 72  1  0
 42 73  1  0
 42 74  1  0
M  CHG  1  40  -1
M  END
>  <UniqueID>  (79) 
72

>  <SMILES>  (79) 
COc1cc2c(cc1N1CCN(Cc3ccc(F)cc3)CC1=O)N(C(=O)Cc1nc(=O)cc(N3CCOCC3)[n-]1)CC2

>  <Energy>  (79) 
108.90464655464605

>  <Genealogy>  (79) 
COc1cc2c(cc1N1CCN(Cc3ccc(F)cc3)CC1=O)N(C(=O)Cc1nc(=O)cc(N3CCOCC3)[n-]1)CC2 (protonated)
COc1cc2c(cc1N1CCN(Cc3ccc(F)cc3)CC1=O)N(C(=O)Cc1nc(=O)cc(N3CCOCC3)[n-]1)CC2 (3D coordinates assigned)
COc1cc2c(cc1N1CCN(Cc3ccc(F)cc3)CC1=O)N(C(=O)Cc1nc(=O)cc(N3CCOCC3)[n-]1)CC2 (nonaromatic ring conformer: 108.90464655464605 kcal/mol)

>  <smiles>  (79) 
COc1cc2c(cc1N1CCN(Cc3ccc(F)cc3)CC1=O)N(C(=O)Cc1nc(=O)cc(N3CCOCC3)[nH]1)CC2

>  <score_type>  (79) 
oracle

>  <origin>  (79) 
adg

>  <m_score__min__energy>  (79) 
-11.49

>  <m_primary>  (79) 
energy

$$$$
80:0
     RDKit          3D

 49 52  0  0  0  0  0  0  0  0999 V2000
   52.6075   28.9959   55.1659 H   0  0  0  0  0  0  0  0  0  0  0  0
   51.7690   29.5680   54.7420 C   0  0  0  0  0  0  0  0  0  0  0  0
   50.7617   29.4683   55.1727 H   0  0  0  0  0  0  0  0  0  0  0  0
   51.9740   30.3840   53.7040 C   0  0  0  0  0  0  0  0  0  0  0  0
   50.9980   31.1450   53.0970 C   0  0  0  0  0  0  0  0  0  0  0  0
   49.9320   31.1971   53.3635 H   0  0  0  0  0  0  0  0  0  0  0  0
   51.6390   31.8260   52.0870 C   0  0  0  0  0  0  0  0  0  0  0  0
   51.0200   32.7140   51.2180 O   0  0  0  0  0  0  0  0  0  0  0  0
   52.9520   31.5330   52.0310 N   0  0  0  0  0  0  0  0  0  0  0  0
   53.1690   30.6480   53.0280 C   0  0  0  0  0  0  0  0  0  0  0  0
   54.3680   30.0900   53.2770 C   0  0  0  0  0  0  0  0  0  0  0  0
   54.3879   29.1145   53.7849 H   0  0  0  0  0  0  0  0  0  0  0  0
   55.6630   30.7090   52.9090 C   0  0  0  0  0  0  0  0  0  0  0  0
   56.7590   30.7210   53.7890 C   0  0  0  0  0  0  0  0  0  0  0  0
   56.6597   30.2788   54.7913 H   0  0  0  0  0  0  0  0  0  0  0  0
   57.9740   31.2910   53.3990 C   0  0  0  0  0  0  0  0  0  0  0  0
   58.8214   31.3006   54.1003 H   0  0  0  0  0  0  0  0  0  0  0  0
   58.1230   31.8520   52.1190 C   0  0  0  0  0  0  0  0  0  0  0  0
   59.4100   32.4550   51.6950 C   0  0  0  0  0  0  0  0  0  0  0  0
   59.6660   33.6510   52.0030 O   0  0  0  0  0  0  0  0  0  0  0  0
   60.3870   31.6810   50.9760 N   0  0  0  0  0  0  0  0  0  0  0  0
   60.3570   30.6440   51.0780 H   0  0  0  0  0  0  0  0  0  0  0  0
   61.4700   32.2760   50.2360 C   0  0  0  0  0  0  0  0  0  0  0  0
   62.7890   31.8250   50.4290 C   0  0  0  0  0  0  0  0  0  0  0  0
   62.9897   31.0189   51.1501 H   0  0  0  0  0  0  0  0  0  0  0  0
   63.8450   32.3920   49.7130 C   0  0  0  0  0  0  0  0  0  0  0  0
   64.8712   32.0271   49.8670 H   0  0  0  0  0  0  0  0  0  0  0  0
   63.6010   33.4200   48.8030 C   0  0  0  0  0  0  0  0  0  0  0  0
   64.4342   33.8617   48.2367 H   0  0  0  0  0  0  0  0  0  0  0  0
   62.3010   33.8890   48.6100 C   0  0  0  0  0  0  0  0  0  0  0  0
   62.1157   34.7067   47.8980 H   0  0  0  0  0  0  0  0  0  0  0  0
   61.2260   33.3240   49.3190 C   0  0  0  0  0  0  0  0  0  0  0  0
   59.8960   33.8310   49.1190 N   0  0  0  0  0  0  0  0  0  0  0  0
   59.3820   34.2000   49.9500 H   0  0  0  0  0  0  0  0  0  0  0  0
   59.2710   33.9430   47.8280 C   0  0  0  0  0  0  0  0  0  0  0  0
   58.1280   33.1910   47.4980 C   0  0  0  0  0  0  0  0  0  0  0  0
   57.7042   32.4894   48.2316 H   0  0  0  0  0  0  0  0  0  0  0  0
   57.5280   33.3310   46.2420 C   0  0  0  0  0  0  0  0  0  0  0  0
   56.6400   32.7337   45.9877 H   0  0  0  0  0  0  0  0  0  0  0  0
   58.0550   34.2280   45.3110 C   0  0  0  0  0  0  0  0  0  0  0  0
   57.5848   34.3336   44.3222 H   0  0  0  0  0  0  0  0  0  0  0  0
   59.1800   34.9920   45.6350 C   0  0  0  0  0  0  0  0  0  0  0  0
   59.5912   35.7024   44.9027 H   0  0  0  0  0  0  0  0  0  0  0  0
   59.7830   34.8540   46.8890 C   0  0  0  0  0  0  0  0  0  0  0  0
   60.6638   35.4625   47.1419 H   0  0  0  0  0  0  0  0  0  0  0  0
   57.0370   31.8040   51.2280 C   0  0  0  0  0  0  0  0  0  0  0  0
   57.1441   32.2189   50.2149 H   0  0  0  0  0  0  0  0  0  0  0  0
   55.8230   31.2340   51.6180 C   0  0  0  0  0  0  0  0  0  0  0  0
   54.9849   31.1964   50.9065 H   0  0  0  0  0  0  0  0  0  0  0  0
  1  2  1  0
  2  3  1  0
  2  4  2  0
  4  5  1  0
  5  6  1  0
  5  7  2  0
  7  8  1  0
  7  9  1  0
  9 10  1  0
 10 11  2  0
 11 12  1  0
 11 13  1  0
 13 14  2  0
 14 15  1  0
 14 16  1  0
 16 17  1  0
 16 18  2  0
 18 19  1  0
 19 20  2  0
 19 21  1  0
 21 22  1  0
 21 23  1  0
 23 24  2  0
 24 25  1  0
 24 26  1  0
 26 27  1  0
 26 28  2  0
 28 29  1  0
 28 30  1  0
 30 31  1  0
 30 32  2  0
 32 33  1  0
 33 34  1  0
 33 35  1  0
 35 36  2  0
 36 37  1  0
 36 38  1  0
 38 39  1  0
 38 40  2  0
 40 41  1  0
 40 42  1  0
 42 43  1  0
 42 44  2  0
 44 45  1  0
 18 46  1  0
 46 47  1  0
 46 48  2  0
 48 49  1  0
 10  4  1  0
 48 13  1  0
 32 23  1  0
 44 35  1  0
M  CHG  2   8  -1   9  -1
M  END
>  <UniqueID>  (80) 
73

>  <SMILES>  (80) 
C=c1cc([O-])[n-]/c1=C\c1ccc(C(=O)Nc2ccccc2Nc2ccccc2)cc1

>  <Energy>  (80) 
99.28364663737725

>  <Genealogy>  (80) 
C=c1cc([O-])[n-]c1=Cc1ccc(C(=O)Nc2ccccc2Nc2ccccc2)cc1 (protonated)
C=c1cc([O-])[n-]/c1=C\c1ccc(C(=O)Nc2ccccc2Nc2ccccc2)cc1 (cis-trans isomerization)
C=c1cc([O-])[n-]/c1=C\c1ccc(C(=O)Nc2ccccc2Nc2ccccc2)cc1 (3D coordinates assigned)
C=c1cc([O-])[n-]/c1=C\c1ccc(C(=O)Nc2ccccc2Nc2ccccc2)cc1 (optimized conformer: 99.28364663737725 kcal/mol)

>  <smiles>  (80) 
C=c1cc(O)[nH]c1=Cc1ccc(C(=O)Nc2ccccc2Nc2ccccc2)cc1

>  <score_type>  (80) 
oracle

>  <origin>  (80) 
adg

>  <m_score__min__energy>  (80) 
-14.390000000000001

>  <m_primary>  (80) 
energy

$$$$
81:0
     RDKit          3D

 46 47  0  0  0  0  0  0  0  0999 V2000
   54.2470   26.3660   46.3320 H   0  0  0  0  0  0  0  0  0  0  0  0
   55.2220   26.1760   46.0070 N   0  0  0  0  0  0  0  0  0  0  0  0
   56.1340   27.0950   45.9630 C   0  0  0  0  0  0  0  0  0  0  0  0
   55.9060   28.2250   45.2530 N   0  0  0  0  0  0  0  0  0  0  0  0
   56.8130   29.2330   45.1630 C   0  0  0  0  0  0  0  0  0  0  0  0
   56.4370   30.4390   44.3480 C   0  0  0  0  0  0  0  0  0  0  0  0
   56.1779   31.2699   45.0207 H   0  0  0  0  0  0  0  0  0  0  0  0
   57.2864   30.7321   43.7135 H   0  0  0  0  0  0  0  0  0  0  0  0
   55.5715   30.1974   43.7135 H   0  0  0  0  0  0  0  0  0  0  0  0
   58.0480   29.1380   45.8610 C   0  0  0  0  0  0  0  0  0  0  0  0
   59.0550   30.2750   45.7970 C   0  0  0  0  0  0  0  0  0  0  0  0
   60.0163   29.9253   46.2014 H   0  0  0  0  0  0  0  0  0  0  0  0
   59.1636   30.5837   44.7468 H   0  0  0  0  0  0  0  0  0  0  0  0
   58.6040   31.4280   46.5720 N   0  0  0  0  0  0  0  0  0  0  0  0
   59.3540   32.1260   47.5770 C   0  0  0  0  0  0  0  0  0  0  0  0
   58.7750   32.4460   48.6490 O   0  0  0  0  0  0  0  0  0  0  0  0
   60.7670   32.5260   47.3770 C   0  0  0  0  0  0  0  0  0  0  0  0
   61.0890   33.7160   46.6620 C   0  0  0  0  0  0  0  0  0  0  0  0
   60.0270   34.6910   46.1750 C   0  0  0  0  0  0  0  0  0  0  0  0
   59.3013   34.8529   46.9857 H   0  0  0  0  0  0  0  0  0  0  0  0
   60.5396   35.6221   45.8915 H   0  0  0  0  0  0  0  0  0  0  0  0
   59.2750   34.1870   44.9400 C   0  0  0  0  0  0  0  0  0  0  0  0
   58.4001   33.6006   45.2574 H   0  0  0  0  0  0  0  0  0  0  0  0
   58.9423   35.0452   44.3377 H   0  0  0  0  0  0  0  0  0  0  0  0
   59.9424   33.5531   44.3377 H   0  0  0  0  0  0  0  0  0  0  0  0
   62.4410   34.0760   46.5120 C   0  0  0  0  0  0  0  0  0  0  0  0
   62.6985   35.0071   45.9860 H   0  0  0  0  0  0  0  0  0  0  0  0
   63.4570   33.2720   47.0190 C   0  0  0  0  0  0  0  0  0  0  0  0
   64.5089   33.5447   46.8483 H   0  0  0  0  0  0  0  0  0  0  0  0
   63.1470   32.1260   47.7400 C   0  0  0  0  0  0  0  0  0  0  0  0
   63.9579   31.4986   48.1386 H   0  0  0  0  0  0  0  0  0  0  0  0
   61.8110   31.7590   47.9660 C   0  0  0  0  0  0  0  0  0  0  0  0
   61.5470   30.5460   48.8390 C   0  0  0  0  0  0  0  0  0  0  0  0
   61.3250   29.6827   48.1944 H   0  0  0  0  0  0  0  0  0  0  0  0
   62.4425   30.3576   49.4495 H   0  0  0  0  0  0  0  0  0  0  0  0
   60.4180   30.7710   49.7370 N   0  0  0  0  0  0  0  0  0  0  0  0
   60.3540   31.7830   49.9980 H   0  0  0  0  0  0  0  0  0  0  0  0
   59.5340   30.4880   49.2560 H   0  0  0  0  0  0  0  0  0  0  0  0
   60.5290   30.1840   50.5920 H   0  0  0  0  0  0  0  0  0  0  0  0
   58.3210   27.9430   46.5800 C   0  0  0  0  0  0  0  0  0  0  0  0
   59.6320   27.7100   47.2880 C   0  0  0  0  0  0  0  0  0  0  0  0
   59.4714   27.7385   48.3758 H   0  0  0  0  0  0  0  0  0  0  0  0
   60.0333   26.7265   47.0023 H   0  0  0  0  0  0  0  0  0  0  0  0
   60.3476   28.4950   47.0023 H   0  0  0  0  0  0  0  0  0  0  0  0
   57.3500   26.9320   46.6320 C   0  0  0  0  0  0  0  0  0  0  0  0
   57.5459   26.0104   47.1997 H   0  0  0  0  0  0  0  0  0  0  0  0
  1  2  1  0
  2  3  2  0
  3  4  1  0
  4  5  1  0
  5  6  1  0
  6  7  1  0
  6  8  1  0
  6  9  1  0
  5 10  2  0
 10 11  1  0
 11 12  1  0
 11 13  1  0
 11 14  1  0
 14 15  1  0
 15 16  2  0
 15 17  1  0
 17 18  2  0
 18 19  1  0
 19 20  1  0
 19 21  1  0
 19 22  1  0
 22 23  1  0
 22 24  1  0
 22 25  1  0
 18 26  1  0
 26 27  1  0
 26 28  2  0
 28 29  1  0
 28 30  1  0
 30 31  1  0
 30 32  2  0
 32 33  1  0
 33 34  1  0
 33 35  1  0
 33 36  1  0
 36 37  1  0
 36 38  1  0
 36 39  1  0
 10 40  1  0
 40 41  1  0
 41 42  1  0
 41 43  1  0
 41 44  1  0
 40 45  2  0
 45 46  1  0
 45  3  1  0
 32 17  1  0
M  CHG  3   4  -1  14  -1  36   1
M  END
>  <UniqueID>  (81) 
74

>  <SMILES>  (81) 
[H]/N=c1\cc(C)c(C[N-]C(=O)c2c(CC)cccc2C[NH3+])c(C)[n-]1

>  <Energy>  (81) 
53.30581538470767

>  <Genealogy>  (81) 
CCc1cccc(C[NH3+])c1C(=O)[N-]Cc1c(C)cc(=N)[n-]c1C (protonated)
[H]/N=c1\cc(C)c(C[N-]C(=O)c2c(CC)cccc2C[NH3+])c(C)[n-]1 (cis-trans isomerization)
[H]/N=c1\cc(C)c(C[N-]C(=O)c2c(CC)cccc2C[NH3+])c(C)[n-]1 (3D coordinates assigned)
[H]/N=c1\cc(C)c(C[N-]C(=O)c2c(CC)cccc2C[NH3+])c(C)[n-]1 (optimized conformer: 53.30581538470767 kcal/mol)

>  <smiles>  (81) 
CCc1cccc(CN)c1C(=O)NCc1c(C)cc(=N)[nH]c1C

>  <score_type>  (81) 
oracle

>  <origin>  (81) 
adg

>  <m_score__min__energy>  (81) 
-9.1799999999999997

>  <m_primary>  (81) 
energy

$$$$
82:0
     RDKit          3D

 50 53  0  0  0  0  0  0  0  0999 V2000
   55.1390   27.3940   45.9950 H   0  0  0  0  0  0  0  0  0  0  0  0
   55.1000   26.3500   46.0140 N   0  0  0  0  0  0  0  0  0  0  0  0
   56.7290   25.7890   46.1440 S   0  0  0  0  0  0  0  0  0  0  0  0
   56.9900   24.7530   45.0860 O   0  0  0  0  0  0  0  0  0  0  0  0
   56.9350   25.1610   47.4940 O   0  0  0  0  0  0  0  0  0  0  0  0
   57.8350   27.1450   45.9450 C   0  0  0  0  0  0  0  0  0  0  0  0
   59.2210   26.9380   45.9790 C   0  0  0  0  0  0  0  0  0  0  0  0
   59.6214   25.9257   46.1367 H   0  0  0  0  0  0  0  0  0  0  0  0
   60.0940   28.0150   45.8130 C   0  0  0  0  0  0  0  0  0  0  0  0
   61.1809   27.8493   45.8477 H   0  0  0  0  0  0  0  0  0  0  0  0
   59.5930   29.3020   45.6030 C   0  0  0  0  0  0  0  0  0  0  0  0
   60.2874   30.1464   45.4815 H   0  0  0  0  0  0  0  0  0  0  0  0
   58.2030   29.5240   45.5460 C   0  0  0  0  0  0  0  0  0  0  0  0
   57.6560   30.8870   45.3340 C   0  0  0  0  0  0  0  0  0  0  0  0
   56.6650   31.0370   44.5680 O   0  0  0  0  0  0  0  0  0  0  0  0
   58.2470   32.0830   45.9850 C   0  0  0  0  0  0  0  0  0  0  0  0
   58.4800   33.2480   45.2320 C   0  0  0  0  0  0  0  0  0  0  0  0
   58.2380   33.2613   44.1590 H   0  0  0  0  0  0  0  0  0  0  0  0
   59.0160   34.3880   45.8350 C   0  0  0  0  0  0  0  0  0  0  0  0
   59.2990   35.8340   44.8810 Cl  0  0  0  0  0  0  0  0  0  0  0  0
   59.3280   34.3770   47.1950 C   0  0  0  0  0  0  0  0  0  0  0  0
   59.7589   35.2724   47.6668 H   0  0  0  0  0  0  0  0  0  0  0  0
   59.0940   33.2310   47.9580 C   0  0  0  0  0  0  0  0  0  0  0  0
   59.3484   33.2258   49.0282 H   0  0  0  0  0  0  0  0  0  0  0  0
   58.5350   32.0830   47.3670 C   0  0  0  0  0  0  0  0  0  0  0  0
   58.3220   30.9160   48.1180 O   0  0  0  0  0  0  0  0  0  0  0  0
   59.2920   30.2440   48.8760 C   0  0  0  0  0  0  0  0  0  0  0  0
   60.5210   30.8100   49.0110 N   0  0  0  0  0  0  0  0  0  0  0  0
   61.5280   30.2150   49.7130 C   0  0  0  0  0  0  0  0  0  0  0  0
   62.6970   30.7740   49.8290 N   0  0  0  0  0  0  0  0  0  0  0  0
   62.9590   32.1720   50.0310 C   0  0  0  0  0  0  0  0  0  0  0  0
   63.1810   32.7540   51.2230 N   0  0  0  0  0  0  0  0  0  0  0  0
   63.4010   34.0490   50.9020 C   0  0  0  0  0  0  0  0  0  0  0  0
   63.6189   34.8238   51.6518 H   0  0  0  0  0  0  0  0  0  0  0  0
   63.3290   34.3060   49.5760 N   0  0  0  0  0  0  0  0  0  0  0  0
   63.0480   33.1100   49.0350 C   0  0  0  0  0  0  0  0  0  0  0  0
   62.8440   32.8310   47.3140 S   0  0  0  0  0  0  0  0  0  0  0  0
   64.1920   32.7840   46.6500 O   0  0  0  0  0  0  0  0  0  0  0  0
   62.0410   33.9550   46.7230 O   0  0  0  0  0  0  0  0  0  0  0  0
   62.0060   31.3390   47.0570 N   0  0  0  0  0  0  0  0  0  0  0  0
   62.3340   30.6750   47.7920 H   0  0  0  0  0  0  0  0  0  0  0  0
   60.9950   31.5160   47.2440 H   0  0  0  0  0  0  0  0  0  0  0  0
   61.3040   28.9710   50.3130 C   0  0  0  0  0  0  0  0  0  0  0  0
   62.1042   28.4810   50.8871 H   0  0  0  0  0  0  0  0  0  0  0  0
   60.0580   28.3560   50.1780 C   0  0  0  0  0  0  0  0  0  0  0  0
   59.8750   27.3751   50.6410 H   0  0  0  0  0  0  0  0  0  0  0  0
   59.0450   28.9870   49.4550 C   0  0  0  0  0  0  0  0  0  0  0  0
   58.0627   28.5056   49.3392 H   0  0  0  0  0  0  0  0  0  0  0  0
   57.3300   28.4350   45.7300 C   0  0  0  0  0  0  0  0  0  0  0  0
   56.2424   28.5977   45.7049 H   0  0  0  0  0  0  0  0  0  0  0  0
  1  2  1  0
  2  3  1  0
  3  4  2  0
  3  5  2  0
  3  6  1  0
  6  7  2  0
  7  8  1  0
  7  9  1  0
  9 10  1  0
  9 11  2  0
 11 12  1  0
 11 13  1  0
 13 14  1  0
 14 15  2  0
 14 16  1  0
 16 17  2  0
 17 18  1  0
 17 19  1  0
 19 20  1  0
 19 21  2  0
 21 22  1  0
 21 23  1  0
 23 24  1  0
 23 25  2  0
 25 26  1  0
 26 27  1  0
 27 28  1  0
 28 29  1  0
 29 30  2  0
 30 31  1  0
 31 32  1  0
 32 33  1  0
 33 34  1  0
 33 35  2  0
 35 36  1  0
 36 37  1  0
 37 38  2  0
 37 39  2  0
 37 40  1  0
 40 41  1  0
 40 42  1  0
 29 43  1  0
 43 44  1  0
 43 45  2  0
 45 46  1  0
 45 47  1  0
 47 48  1  0
 13 49  2  0
 49 50  1  0
 49  6  1  0
 25 16  1  0
 47 27  2  0
 36 31  2  0
M  CHG  3   2  -1  28  -1  32  -1
M  END
>  <UniqueID>  (82) 
75

>  <SMILES>  (82) 
[NH-]S(=O)(=O)c1cccc(C(=O)c2cc(Cl)ccc2Oc2ccc/c(=N/c3[n-]cnc3S(N)(=O)=O)[n-]2)c1

>  <Energy>  (82) 
97.93697246789868

>  <Genealogy>  (82) 
[NH-]S(=O)(=O)c1cccc(C(=O)c2cc(Cl)ccc2Oc2cccc(=Nc3[n-]cnc3S(N)(=O)=O)[n-]2)c1 (protonated)
[NH-]S(=O)(=O)c1cccc(C(=O)c2cc(Cl)ccc2Oc2ccc/c(=N/c3[n-]cnc3S(N)(=O)=O)[n-]2)c1 (cis-trans isomerization)
[NH-]S(=O)(=O)c1cccc(C(=O)c2cc(Cl)ccc2Oc2ccc/c(=N/c3[n-]cnc3S(N)(=O)=O)[n-]2)c1 (3D coordinates assigned)
[NH-]S(=O)(=O)c1cccc(C(=O)c2cc(Cl)ccc2Oc2ccc/c(=N/c3[n-]cnc3S(N)(=O)=O)[n-]2)c1 (optimized conformer: 97.93697246789868 kcal/mol)

>  <smiles>  (82) 
NS(=O)(=O)c1cccc(C(=O)c2cc(Cl)ccc2Oc2cccc(=Nc3[nH]cnc3S(N)(=O)=O)[nH]2)c1

>  <score_type>  (82) 
oracle

>  <origin>  (82) 
adg

>  <m_score__min__energy>  (82) 
-14.640000000000001

>  <m_primary>  (82) 
energy

$$$$
83:0
     RDKit          3D

 68 71  0  0  1  0  0  0  0  0999 V2000
   55.0700   30.2630   54.2530 C   0  0  0  0  0  0  0  0  0  0  0  0
   55.4480   30.4400   52.5280 S   0  0  0  0  0  0  0  0  0  0  0  0
   53.9280   30.6010   51.6430 C   0  0  0  0  0  0  0  0  0  0  0  0
   56.2140   29.2210   52.1170 O   0  0  0  0  0  0  0  0  0  0  0  0
   56.3910   31.6820   52.2830 N   0  0  0  0  0  0  0  0  0  0  0  0
   57.7200   31.3800   51.9090 C   0  0  0  0  0  0  0  0  0  0  0  0
   57.9700   31.0830   50.6060 C   0  0  0  0  0  0  0  0  0  0  0  0
   59.2820   30.7950   50.1970 C   0  0  0  0  0  0  0  0  0  0  0  0
   59.3880   30.4930   48.8910 O   0  0  0  0  0  0  0  0  0  0  0  0
   58.6750   29.6260   48.0790 C   0  0  0  0  0  0  0  0  0  0  0  0
   59.4390   29.2960   46.8030 C   0  0  0  0  0  0  0  0  0  0  0  0
   59.2070   30.4430   45.7870 C   0  0  0  0  0  0  0  0  0  0  0  0
   58.6400   29.9240   44.5740 N   0  0  0  0  0  0  0  0  0  0  0  0
   57.2680   30.7680   44.0130 S   0  0  0  0  0  0  0  0  0  0  0  0
   56.9950   30.3470   42.6100 O   0  0  0  0  0  0  0  0  0  0  0  0
   56.0320   30.4610   44.8170 O   0  0  0  0  0  0  0  0  0  0  0  0
   57.4810   32.4810   44.0790 N   0  0  0  0  0  0  0  0  0  0  0  0
   57.0150   33.0690   45.2980 C   0  0  0  0  0  0  0  0  0  0  0  0
   58.0950   33.6000   46.1660 C   0  0  0  0  0  0  0  0  0  0  0  0
   59.0240   34.5260   45.7360 C   0  0  0  0  0  0  0  0  0  0  0  0
   60.0240   35.0120   46.5600 C   0  0  0  0  0  0  0  0  0  0  0  0
   60.0550   34.5170   47.8680 C   0  0  0  0  0  0  0  0  0  0  0  0
   59.1300   33.5930   48.3020 C   0  0  0  0  0  0  0  0  0  0  0  0
   58.1300   33.1110   47.4730 C   0  0  0  0  0  0  0  0  0  0  0  0
   60.2220   30.8510   51.1800 C   0  0  0  0  0  0  0  0  0  0  0  0
   61.5160   30.5760   50.8750 C   0  0  0  0  0  0  0  0  0  0  0  0
   61.9360   30.7520   49.7160 N   0  0  0  0  0  0  0  0  0  0  0  0
   62.4700   31.6710   48.9180 C   0  0  0  0  0  0  0  0  0  0  0  0
   63.0090   32.8630   49.5050 C   0  0  0  0  0  0  0  0  0  0  0  0
   63.4200   33.8940   48.7290 C   0  0  0  0  0  0  0  0  0  0  0  0
   63.3410   33.8400   47.3750 C   0  0  0  0  0  0  0  0  0  0  0  0
   63.7700   34.9060   46.6550 F   0  0  0  0  0  0  0  0  0  0  0  0
   62.8340   32.7230   46.7590 C   0  0  0  0  0  0  0  0  0  0  0  0
   62.4010   31.6460   47.4970 C   0  0  0  0  0  0  0  0  0  0  0  0
   61.8970   30.5500   46.8800 F   0  0  0  0  0  0  0  0  0  0  0  0
   62.5220   30.5530   51.8180 N   0  0  0  0  0  0  0  0  0  0  0  0
   62.1770   30.8370   53.0870 C   0  0  0  0  0  0  0  0  0  0  0  0
   60.9180   31.1370   53.4470 N   0  0  0  0  0  0  0  0  0  0  0  0
   59.9620   31.1460   52.5050 C   0  0  0  0  0  0  0  0  0  0  0  0
   58.6810   31.4190   52.8910 C   0  0  0  0  0  0  0  0  0  0  0  0
   55.9048   30.6539   54.8533 H   0  0  0  0  0  0  0  0  0  0  0  0
   54.1546   30.8261   54.4874 H   0  0  0  0  0  0  0  0  0  0  0  0
   54.9163   29.1993   54.4874 H   0  0  0  0  0  0  0  0  0  0  0  0
   53.0957   30.6892   52.3568 H   0  0  0  0  0  0  0  0  0  0  0  0
   53.9654   31.5002   51.0105 H   0  0  0  0  0  0  0  0  0  0  0  0
   53.7762   29.7139   51.0105 H   0  0  0  0  0  0  0  0  0  0  0  0
   57.1479   31.0684   49.8753 H   0  0  0  0  0  0  0  0  0  0  0  0
   58.4846   28.6944   48.6320 H   0  0  0  0  0  0  0  0  0  0  0  0
   57.7312   30.1161   47.7977 H   0  0  0  0  0  0  0  0  0  0  0  0
   60.5127   29.2070   47.0248 H   0  0  0  0  0  0  0  0  0  0  0  0
   59.0851   28.3420   46.3851 H   0  0  0  0  0  0  0  0  0  0  0  0
   58.5180   31.1811   46.2234 H   0  0  0  0  0  0  0  0  0  0  0  0
   60.1715   30.9194   45.5572 H   0  0  0  0  0  0  0  0  0  0  0  0
   59.3360   29.9050   43.8160 H   0  0  0  0  0  0  0  0  0  0  0  0
   58.4220   32.7690   43.7660 H   0  0  0  0  0  0  0  0  0  0  0  0
   56.3366   33.8971   45.0449 H   0  0  0  0  0  0  0  0  0  0  0  0
   56.5161   32.2695   45.8654 H   0  0  0  0  0  0  0  0  0  0  0  0
   58.9673   34.8912   44.6999 H   0  0  0  0  0  0  0  0  0  0  0  0
   60.7576   35.7504   46.2043 H   0  0  0  0  0  0  0  0  0  0  0  0
   60.8313   34.8717   48.5619 H   0  0  0  0  0  0  0  0  0  0  0  0
   59.1870   33.2269   49.3377 H   0  0  0  0  0  0  0  0  0  0  0  0
   57.3950   32.3744   47.8295 H   0  0  0  0  0  0  0  0  0  0  0  0
   63.0897   32.9410   50.5993 H   0  0  0  0  0  0  0  0  0  0  0  0
   63.8276   34.7968   49.2074 H   0  0  0  0  0  0  0  0  0  0  0  0
   62.7732   32.6887   45.6612 H   0  0  0  0  0  0  0  0  0  0  0  0
   62.9579   30.8230   53.8616 H   0  0  0  0  0  0  0  0  0  0  0  0
   60.6860   31.3600   54.4510 H   0  0  0  0  0  0  0  0  0  0  0  0
   58.4307   31.6581   53.9351 H   0  0  0  0  0  0  0  0  0  0  0  0
  1  2  1  0
  2  3  1  0
  2  4  2  0
  2  5  2  0
  5  6  1  0
  6  7  2  0
  7  8  1  0
  8  9  1  0
  9 10  1  0
 10 11  1  0
 11 12  1  0
 12 13  1  0
 13 14  1  0
 14 15  2  0
 14 16  2  0
 14 17  1  0
 17 18  1  0
 18 19  1  0
 19 20  2  0
 20 21  1  0
 21 22  2  0
 22 23  1  0
 23 24  2  0
  8 25  2  0
 25 26  1  0
 26 27  2  0
 27 28  1  0
 28 29  2  0
 29 30  1  0
 30 31  2  0
 31 32  1  0
 31 33  1  0
 33 34  2  0
 34 35  1  0
 26 36  1  0
 36 37  2  0
 37 38  1  0
 38 39  1  0
 39 40  2  0
 40  6  1  0
 24 19  1  0
 39 25  1  0
 34 28  1  0
  1 41  1  0
  1 42  1  0
  1 43  1  0
  3 44  1  0
  3 45  1  0
  3 46  1  0
  7 47  1  0
 10 48  1  0
 10 49  1  0
 11 50  1  0
 11 51  1  0
 12 52  1  0
 12 53  1  0
 13 54  1  0
 17 55  1  0
 18 56  1  0
 18 57  1  0
 20 58  1  0
 21 59  1  0
 22 60  1  0
 23 61  1  0
 24 62  1  0
 29 63  1  0
 30 64  1  0
 33 65  1  0
 37 66  1  0
 38 67  1  0
 40 68  1  0
M  END
>  <smiles>  (83) 
CS(C)(=O)=Nc1cc(OCCCNS(=O)(=O)NCc2ccccc2)c2c(=Nc3ccc(F)cc3F)nc[nH]c2c1

>  <score_type>  (83) 
oracle

>  <origin>  (83) 
adg

>  <m_score__min__energy>  (83) 
-10.130000000000001

>  <m_primary>  (83) 
energy

$$$$
84:0
     RDKit          3D

 49 50  0  0  0  0  0  0  0  0999 V2000
   60.3230   30.4430   46.3760 C   0  0  0  0  0  0  0  0  0  0  0  0
   59.2960   29.3370   46.4030 C   0  0  0  0  0  0  0  0  0  0  0  0
   59.1300   28.5370   47.5690 C   0  0  0  0  0  0  0  0  0  0  0  0
   59.7990   28.8870   48.8060 N   0  0  0  0  0  0  0  0  0  0  0  0
   59.2170   29.7220   49.8580 C   0  0  0  0  0  0  0  0  0  0  0  0
   60.2550   30.7220   50.3890 C   0  0  0  0  0  0  0  0  0  0  0  0
   61.5860   30.4550   49.8050 N   0  0  0  0  0  0  0  0  0  0  0  0
   62.0490   31.5970   48.9980 C   0  0  0  0  0  0  0  0  0  0  0  0
   62.5620   30.1810   50.8710 C   0  0  0  0  0  0  0  0  0  0  0  0
   58.2770   27.4150   47.5090 C   0  0  0  0  0  0  0  0  0  0  0  0
   57.5780   27.1100   46.3440 C   0  0  0  0  0  0  0  0  0  0  0  0
   57.6870   27.9310   45.2290 C   0  0  0  0  0  0  0  0  0  0  0  0
   58.5100   29.0630   45.2560 C   0  0  0  0  0  0  0  0  0  0  0  0
   58.5300   29.9110   44.1020 N   0  0  0  0  0  0  0  0  0  0  0  0
   57.2480   31.0290   43.7360 S   0  0  0  0  0  0  0  0  0  0  0  0
   56.1710   30.8730   44.7730 O   0  0  0  0  0  0  0  0  0  0  0  0
   56.6700   30.6890   42.3910 O   0  0  0  0  0  0  0  0  0  0  0  0
   57.7660   32.7490   43.7160 C   0  0  0  0  0  0  0  0  0  0  0  0
   58.2620   33.2360   45.0540 C   0  0  0  0  0  0  0  0  0  0  0  0
   57.7720   32.6620   46.2400 C   0  0  0  0  0  0  0  0  0  0  0  0
   58.2430   33.0970   47.4820 C   0  0  0  0  0  0  0  0  0  0  0  0
   59.2130   34.1000   47.5510 C   0  0  0  0  0  0  0  0  0  0  0  0
   59.7240   34.6580   46.3760 C   0  0  0  0  0  0  0  0  0  0  0  0
   59.2600   34.2230   45.1320 C   0  0  0  0  0  0  0  0  0  0  0  0
   60.5851   30.7252   47.4064 H   0  0  0  0  0  0  0  0  0  0  0  0
   61.2243   30.0937   45.8510 H   0  0  0  0  0  0  0  0  0  0  0  0
   59.9080   31.3160   45.8510 H   0  0  0  0  0  0  0  0  0  0  0  0
   60.7880   28.5930   48.9620 H   0  0  0  0  0  0  0  0  0  0  0  0
   58.3590   30.2748   49.4479 H   0  0  0  0  0  0  0  0  0  0  0  0
   58.8914   29.0748   50.6858 H   0  0  0  0  0  0  0  0  0  0  0  0
   59.9422   31.7424   50.1226 H   0  0  0  0  0  0  0  0  0  0  0  0
   60.3211   30.6154   51.4818 H   0  0  0  0  0  0  0  0  0  0  0  0
   62.3777   32.4078   49.6647 H   0  0  0  0  0  0  0  0  0  0  0  0
   62.8899   31.2805   48.3633 H   0  0  0  0  0  0  0  0  0  0  0  0
   61.2252   31.9555   48.3633 H   0  0  0  0  0  0  0  0  0  0  0  0
   62.0817   30.3158   51.8514 H   0  0  0  0  0  0  0  0  0  0  0  0
   62.9243   29.1464   50.7794 H   0  0  0  0  0  0  0  0  0  0  0  0
   63.4098   30.8759   50.7794 H   0  0  0  0  0  0  0  0  0  0  0  0
   58.1625   26.7724   48.3944 H   0  0  0  0  0  0  0  0  0  0  0  0
   56.9377   26.2164   46.3066 H   0  0  0  0  0  0  0  0  0  0  0  0
   57.1217   27.6896   44.3168 H   0  0  0  0  0  0  0  0  0  0  0  0
   59.1280   29.6210   43.2970 H   0  0  0  0  0  0  0  0  0  0  0  0
   58.5764   32.8614   42.9808 H   0  0  0  0  0  0  0  0  0  0  0  0
   56.8843   33.3527   43.4550 H   0  0  0  0  0  0  0  0  0  0  0  0
   57.0140   31.8664   46.1903 H   0  0  0  0  0  0  0  0  0  0  0  0
   57.8494   32.6490   48.4063 H   0  0  0  0  0  0  0  0  0  0  0  0
   59.5742   34.4502   48.5292 H   0  0  0  0  0  0  0  0  0  0  0  0
   60.4937   35.4419   46.4307 H   0  0  0  0  0  0  0  0  0  0  0  0
   59.6772   34.6544   44.2101 H   0  0  0  0  0  0  0  0  0  0  0  0
  1  2  1  0
  2  3  2  0
  3  4  1  0
  4  5  1  0
  5  6  1  0
  6  7  1  0
  7  8  1  0
  7  9  1  0
  3 10  1  0
 10 11  2  0
 11 12  1  0
 12 13  2  0
 13 14  1  0
 14 15  1  0
 15 16  2  0
 15 17  2  0
 15 18  1  0
 18 19  1  0
 19 20  2  0
 20 21  1  0
 21 22  2  0
 22 23  1  0
 23 24  2  0
 13  2  1  0
 24 19  1  0
  1 25  1  0
  1 26  1  0
  1 27  1  0
  4 28  1  0
  5 29  1  0
  5 30  1  0
  6 31  1  0
  6 32  1  0
  8 33  1  0
  8 34  1  0
  8 35  1  0
  9 36  1  0
  9 37  1  0
  9 38  1  0
 10 39  1  0
 11 40  1  0
 12 41  1  0
 14 42  1  0
 18 43  1  0
 18 44  1  0
 20 45  1  0
 21 46  1  0
 22 47  1  0
 23 48  1  0
 24 49  1  0
M  END
>  <UniqueID>  (84) 
76

>  <SMILES>  (84) 
Cc1c(NCCN(C)C)cccc1NS(=O)(=O)Cc1ccccc1

>  <Energy>  (84) 
50.75526758044567

>  <Genealogy>  (84) 
Cc1c(NCCN(C)C)cccc1NS(=O)(=O)Cc1ccccc1 (3D coordinates assigned)
Cc1c(NCCN(C)C)cccc1NS(=O)(=O)Cc1ccccc1 (optimized conformer: 50.75526758044567 kcal/mol)

>  <smiles>  (84) 
Cc1c(NCCN(C)C)cccc1NS(=O)(=O)Cc1ccccc1

>  <score_type>  (84) 
oracle

>  <origin>  (84) 
adg

>  <m_score__min__energy>  (84) 
-7.7800000000000002

>  <m_primary>  (84) 
energy

$$$$
85:0
     RDKit          3D

 50 53  0  0  0  0  0  0  0  0999 V2000
   55.3300   28.9680   44.8520 N   0  0  0  0  0  0  0  0  0  0  0  0
   56.6200   30.0320   44.4150 S   0  0  0  0  0  0  0  0  0  0  0  0
   56.8260   29.9860   42.9260 O   0  0  0  0  0  0  0  0  0  0  0  0
   56.2630   31.4380   44.8090 O   0  0  0  0  0  0  0  0  0  0  0  0
   58.0960   29.5390   45.2380 C   0  0  0  0  0  0  0  0  0  0  0  0
   59.1900   29.0720   44.4990 C   0  0  0  0  0  0  0  0  0  0  0  0
   60.3520   28.6540   45.1540 C   0  0  0  0  0  0  0  0  0  0  0  0
   60.4290   28.7070   46.5480 C   0  0  0  0  0  0  0  0  0  0  0  0
   59.3440   29.1980   47.3000 C   0  0  0  0  0  0  0  0  0  0  0  0
   59.3690   29.2370   48.7380 N   0  0  0  0  0  0  0  0  0  0  0  0
   58.9570   30.2100   49.4970 C   0  0  0  0  0  0  0  0  0  0  0  0
   59.4670   31.4530   49.3150 N   0  0  0  0  0  0  0  0  0  0  0  0
   59.0690   32.4820   50.1080 C   0  0  0  0  0  0  0  0  0  0  0  0
   59.6620   33.8430   49.9290 C   0  0  0  0  0  0  0  0  0  0  0  0
   60.6520   33.8360   48.7840 C   0  0  0  0  0  0  0  0  0  0  0  0
   62.0460   33.7830   49.0350 C   0  0  0  0  0  0  0  0  0  0  0  0
   62.7070   33.7490   50.6680 Cl  0  0  0  0  0  0  0  0  0  0  0  0
   62.9500   33.7470   47.9670 C   0  0  0  0  0  0  0  0  0  0  0  0
   62.4910   33.7520   46.6510 C   0  0  0  0  0  0  0  0  0  0  0  0
   61.1220   33.7850   46.3900 C   0  0  0  0  0  0  0  0  0  0  0  0
   60.2000   33.8210   47.4420 C   0  0  0  0  0  0  0  0  0  0  0  0
   58.4870   33.8340   47.0300 Cl  0  0  0  0  0  0  0  0  0  0  0  0
   58.1710   32.2570   51.1010 N   0  0  0  0  0  0  0  0  0  0  0  0
   57.6590   31.0130   51.3020 C   0  0  0  0  0  0  0  0  0  0  0  0
   56.7090   30.7760   52.3620 N   0  0  0  0  0  0  0  0  0  0  0  0
   57.1440   30.8700   53.7630 C   0  0  0  0  0  0  0  0  0  0  0  0
   56.1980   30.0800   54.6730 C   0  0  0  0  0  0  0  0  0  0  0  0
   54.8530   30.4390   54.4320 O   0  0  0  0  0  0  0  0  0  0  0  0
   54.4850   30.0360   53.1280 C   0  0  0  0  0  0  0  0  0  0  0  0
   55.2690   30.8220   52.0730 C   0  0  0  0  0  0  0  0  0  0  0  0
   58.0610   29.9950   50.4970 N   0  0  0  0  0  0  0  0  0  0  0  0
   58.1720   29.5830   46.6380 C   0  0  0  0  0  0  0  0  0  0  0  0
   54.5740   29.5590   45.2620 H   0  0  0  0  0  0  0  0  0  0  0  0
   59.1348   29.0340   43.4010 H   0  0  0  0  0  0  0  0  0  0  0  0
   61.2075   28.2826   44.5707 H   0  0  0  0  0  0  0  0  0  0  0  0
   61.3402   28.3641   47.0600 H   0  0  0  0  0  0  0  0  0  0  0  0
   58.8595   34.5631   49.7110 H   0  0  0  0  0  0  0  0  0  0  0  0
   60.1845   34.1310   50.8532 H   0  0  0  0  0  0  0  0  0  0  0  0
   64.0310   33.7145   48.1678 H   0  0  0  0  0  0  0  0  0  0  0  0
   63.2092   33.7299   45.8181 H   0  0  0  0  0  0  0  0  0  0  0  0
   60.7641   33.7827   45.3499 H   0  0  0  0  0  0  0  0  0  0  0  0
   58.1606   30.4600   53.8546 H   0  0  0  0  0  0  0  0  0  0  0  0
   57.1320   31.9265   54.0690 H   0  0  0  0  0  0  0  0  0  0  0  0
   56.3246   29.0048   54.4782 H   0  0  0  0  0  0  0  0  0  0  0  0
   56.4421   30.3110   55.7204 H   0  0  0  0  0  0  0  0  0  0  0  0
   54.6966   28.9631   53.0091 H   0  0  0  0  0  0  0  0  0  0  0  0
   53.4118   30.2330   52.9883 H   0  0  0  0  0  0  0  0  0  0  0  0
   55.0844   30.3815   51.0821 H   0  0  0  0  0  0  0  0  0  0  0  0
   54.9360   31.8702   52.0900 H   0  0  0  0  0  0  0  0  0  0  0  0
   57.3032   29.9230   47.2208 H   0  0  0  0  0  0  0  0  0  0  0  0
  1  2  1  0
  2  3  2  0
  2  4  2  0
  2  5  1  0
  5  6  2  0
  6  7  1  0
  7  8  2  0
  8  9  1  0
  9 10  1  0
 10 11  2  3
 11 12  1  0
 12 13  2  0
 13 14  1  0
 14 15  1  0
 15 16  2  0
 16 17  1  0
 16 18  1  0
 18 19  2  0
 19 20  1  0
 20 21  2  0
 21 22  1  0
 13 23  1  0
 23 24  1  0
 24 25  1  0
 25 26  1  0
 26 27  1  0
 27 28  1  0
 28 29  1  0
 29 30  1  0
 24 31  2  0
  9 32  2  0
 32  5  1  0
 31 11  1  0
 21 15  1  0
 30 25  1  0
  1 33  1  0
  6 34  1  0
  7 35  1  0
  8 36  1  0
 14 37  1  0
 14 38  1  0
 18 39  1  0
 19 40  1  0
 20 41  1  0
 26 42  1  0
 26 43  1  0
 27 44  1  0
 27 45  1  0
 29 46  1  0
 29 47  1  0
 30 48  1  0
 30 49  1  0
 32 50  1  0
M  CHG  2   1  -1  23  -1
M  END
>  <UniqueID>  (85) 
77

>  <SMILES>  (85) 
[NH-]S(=O)(=O)c1cccc(N=c2nc(Cc3c(Cl)cccc3Cl)[n-]c(N3CCOCC3)n2)c1

>  <Energy>  (85) 
61.82901651606102

>  <Genealogy>  (85) 
[NH-]S(=O)(=O)c1cccc(N=c2nc(Cc3c(Cl)cccc3Cl)[n-]c(N3CCOCC3)n2)c1 (protonated)
[NH-]S(=O)(=O)c1cccc(N=c2nc(Cc3c(Cl)cccc3Cl)[n-]c(N3CCOCC3)n2)c1 (3D coordinates assigned)
[NH-]S(=O)(=O)c1cccc(N=c2nc(Cc3c(Cl)cccc3Cl)[n-]c(N3CCOCC3)n2)c1 (nonaromatic ring conformer: 61.82901651606102 kcal/mol)

>  <smiles>  (85) 
NS(=O)(=O)c1cccc(N=c2nc(Cc3c(Cl)cccc3Cl)[nH]c(N3CCOCC3)n2)c1

>  <score_type>  (85) 
oracle

>  <origin>  (85) 
adg

>  <m_score__min__energy>  (85) 
-13.800000000000001

>  <m_primary>  (85) 
energy

$$$$
86:0
     RDKit          3D

 53 55  0  0  0  0  0  0  0  0999 V2000
   57.0280   31.1140   42.6220 C   0  0  0  0  0  0  0  0  0  0  0  0
   57.5970   31.6080   43.9250 C   0  0  0  0  0  0  0  0  0  0  0  0
   58.0740   32.9280   44.0000 C   0  0  0  0  0  0  0  0  0  0  0  0
   58.5980   33.4290   45.1920 C   0  0  0  0  0  0  0  0  0  0  0  0
   58.6350   32.6280   46.3370 C   0  0  0  0  0  0  0  0  0  0  0  0
   59.3040   33.2590   47.8440 S   0  0  0  0  0  0  0  0  0  0  0  0
   58.4850   32.7570   49.0010 O   0  0  0  0  0  0  0  0  0  0  0  0
   59.2190   34.7610   47.8320 O   0  0  0  0  0  0  0  0  0  0  0  0
   60.9680   32.7700   48.0640 N   0  0  0  0  0  0  0  0  0  0  0  0
   61.6470   33.6640   49.0210 C   0  0  0  0  0  0  0  0  0  0  0  0
   63.1720   33.5940   48.8410 C   0  0  0  0  0  0  0  0  0  0  0  0
   63.6200   33.9790   47.5450 O   0  0  0  0  0  0  0  0  0  0  0  0
   62.6330   33.8410   46.5330 C   0  0  0  0  0  0  0  0  0  0  0  0
   61.6780   32.6570   46.7710 C   0  0  0  0  0  0  0  0  0  0  0  0
   58.1550   31.3140   46.2760 C   0  0  0  0  0  0  0  0  0  0  0  0
   57.6410   30.7900   45.0790 C   0  0  0  0  0  0  0  0  0  0  0  0
   57.1240   29.0930   45.0440 S   0  0  0  0  0  0  0  0  0  0  0  0
   55.6580   29.0000   44.7240 O   0  0  0  0  0  0  0  0  0  0  0  0
   57.8850   28.3720   43.9670 O   0  0  0  0  0  0  0  0  0  0  0  0
   57.4370   28.3230   46.5760 N   0  0  0  0  0  0  0  0  0  0  0  0
   58.5210   27.3430   46.4760 C   0  0  0  0  0  0  0  0  0  0  0  0
   58.0220   26.0310   45.9260 C   0  0  0  0  0  0  0  0  0  0  0  0
   56.6630   25.8670   45.6120 C   0  0  0  0  0  0  0  0  0  0  0  0
   56.2110   24.6780   45.0340 C   0  0  0  0  0  0  0  0  0  0  0  0
   57.1090   23.6350   44.7750 C   0  0  0  0  0  0  0  0  0  0  0  0
   56.5610   22.1470   44.0110 S   0  0  0  0  0  0  0  0  0  0  0  0
   57.9170   21.1170   43.7160 N   0  0  0  0  0  0  0  0  0  0  0  0
   55.8760   22.4700   42.7130 O   0  0  0  0  0  0  0  0  0  0  0  0
   55.5850   21.4360   44.9070 O   0  0  0  0  0  0  0  0  0  0  0  0
   58.4570   23.7790   45.1270 C   0  0  0  0  0  0  0  0  0  0  0  0
   58.9120   24.9680   45.7050 C   0  0  0  0  0  0  0  0  0  0  0  0
   56.2115   30.4051   42.8238 H   0  0  0  0  0  0  0  0  0  0  0  0
   56.6395   31.9662   42.0450 H   0  0  0  0  0  0  0  0  0  0  0  0
   57.8172   30.6097   42.0450 H   0  0  0  0  0  0  0  0  0  0  0  0
   58.0337   33.5727   43.1097 H   0  0  0  0  0  0  0  0  0  0  0  0
   58.9836   34.4585   45.2310 H   0  0  0  0  0  0  0  0  0  0  0  0
   61.3103   34.6974   48.8513 H   0  0  0  0  0  0  0  0  0  0  0  0
   61.3962   33.3442   50.0432 H   0  0  0  0  0  0  0  0  0  0  0  0
   63.6387   34.2610   49.5808 H   0  0  0  0  0  0  0  0  0  0  0  0
   63.4610   32.5416   48.9783 H   0  0  0  0  0  0  0  0  0  0  0  0
   62.0394   34.7663   46.4958 H   0  0  0  0  0  0  0  0  0  0  0  0
   63.1608   33.6488   45.5872 H   0  0  0  0  0  0  0  0  0  0  0  0
   60.9360   32.6303   45.9594 H   0  0  0  0  0  0  0  0  0  0  0  0
   62.2777   31.7351   46.7917 H   0  0  0  0  0  0  0  0  0  0  0  0
   58.1809   30.6841   47.1774 H   0  0  0  0  0  0  0  0  0  0  0  0
   59.3012   27.7381   45.8088 H   0  0  0  0  0  0  0  0  0  0  0  0
   58.9248   27.1667   47.4839 H   0  0  0  0  0  0  0  0  0  0  0  0
   55.9509   26.6786   45.8222 H   0  0  0  0  0  0  0  0  0  0  0  0
   55.1468   24.5608   44.7817 H   0  0  0  0  0  0  0  0  0  0  0  0
   57.5410   20.2090   43.3630 H   0  0  0  0  0  0  0  0  0  0  0  0
   58.3570   20.9200   44.6420 H   0  0  0  0  0  0  0  0  0  0  0  0
   59.1609   22.9529   44.9479 H   0  0  0  0  0  0  0  0  0  0  0  0
   59.9702   25.0708   45.9873 H   0  0  0  0  0  0  0  0  0  0  0  0
  1  2  1  0
  2  3  2  0
  3  4  1  0
  4  5  2  0
  5  6  1  0
  6  7  2  0
  6  8  2  0
  6  9  1  0
  9 10  1  0
 10 11  1  0
 11 12  1  0
 12 13  1  0
 13 14  1  0
  5 15  1  0
 15 16  2  0
 16 17  1  0
 17 18  2  0
 17 19  2  0
 17 20  1  0
 20 21  1  0
 21 22  1  0
 22 23  2  0
 23 24  1  0
 24 25  2  0
 25 26  1  0
 26 27  1  0
 26 28  2  0
 26 29  2  0
 25 30  1  0
 30 31  2  0
 16  2  1  0
 31 22  1  0
 14  9  1  0
  1 32  1  0
  1 33  1  0
  1 34  1  0
  3 35  1  0
  4 36  1  0
 10 37  1  0
 10 38  1  0
 11 39  1  0
 11 40  1  0
 13 41  1  0
 13 42  1  0
 14 43  1  0
 14 44  1  0
 15 45  1  0
 21 46  1  0
 21 47  1  0
 23 48  1  0
 24 49  1  0
 27 50  1  0
 27 51  1  0
 30 52  1  0
 31 53  1  0
M  CHG  1  20  -1
M  END
>  <UniqueID>  (86) 
78

>  <SMILES>  (86) 
Cc1ccc(S(=O)(=O)N2CCOCC2)cc1S(=O)(=O)[N-]Cc1ccc(S(N)(=O)=O)cc1

>  <Energy>  (86) 
58.50756436960096

>  <Genealogy>  (86) 
Cc1ccc(S(=O)(=O)N2CCOCC2)cc1S(=O)(=O)[N-]Cc1ccc(S(N)(=O)=O)cc1 (protonated)
Cc1ccc(S(=O)(=O)N2CCOCC2)cc1S(=O)(=O)[N-]Cc1ccc(S(N)(=O)=O)cc1 (3D coordinates assigned)
Cc1ccc(S(=O)(=O)N2CCOCC2)cc1S(=O)(=O)[N-]Cc1ccc(S(N)(=O)=O)cc1 (nonaromatic ring conformer: 58.50756436960096 kcal/mol)

>  <smiles>  (86) 
Cc1ccc(S(=O)(=O)N2CCOCC2)cc1S(=O)(=O)NCc1ccc(S(N)(=O)=O)cc1

>  <score_type>  (86) 
oracle

>  <origin>  (86) 
adg

>  <m_score__min__energy>  (86) 
-11.77

>  <m_primary>  (86) 
energy

$$$$
87:0
     RDKit          3D

 81 85  0  0  0  0  0  0  0  0999 V2000
   58.6460   32.3410   50.4430 C   0  0  0  0  0  0  0  0  0  0  0  0
   59.3680   31.8880   49.3030 O   0  0  0  0  0  0  0  0  0  0  0  0
   59.9810   32.7250   48.3540 C   0  0  0  0  0  0  0  0  0  0  0  0
   61.3900   32.8770   48.4120 C   0  0  0  0  0  0  0  0  0  0  0  0
   62.2340   32.2300   49.5060 C   0  0  0  0  0  0  0  0  0  0  0  0
   61.8750   32.7530   50.9220 C   0  0  0  0  0  0  0  0  0  0  0  0
   63.1230   33.0930   51.7540 C   0  0  0  0  0  0  0  0  0  0  0  0
   64.1430   32.0240   51.6870 N   0  0  0  0  0  0  0  0  0  0  0  0
   63.7560   30.8350   52.4800 C   0  0  0  0  0  0  0  0  0  0  0  0
   62.5850   31.1570   53.4250 C   0  0  0  0  0  0  0  0  0  0  0  0
   61.3140   30.3310   53.1380 C   0  0  0  0  0  0  0  0  0  0  0  0
   61.5610   29.1330   52.2150 C   0  0  0  0  0  0  0  0  0  0  0  0
   61.0730   29.4100   50.8690 N   0  0  0  0  0  0  0  0  0  0  0  0
   60.8460   28.4120   49.8660 C   0  0  0  0  0  0  0  0  0  0  0  0
   61.3070   27.2540   50.0440 O   0  0  0  0  0  0  0  0  0  0  0  0
   60.1240   28.7120   48.6150 C   0  0  0  0  0  0  0  0  0  0  0  0
   58.8250   28.2230   48.4050 C   0  0  0  0  0  0  0  0  0  0  0  0
   58.1500   28.5100   47.2150 C   0  0  0  0  0  0  0  0  0  0  0  0
   58.7710   29.2750   46.2180 C   0  0  0  0  0  0  0  0  0  0  0  0
   58.0480   29.6050   44.9750 C   0  0  0  0  0  0  0  0  0  0  0  0
   57.9090   30.9570   44.6240 C   0  0  0  0  0  0  0  0  0  0  0  0
   57.2220   31.3190   43.4630 C   0  0  0  0  0  0  0  0  0  0  0  0
   56.6690   30.3350   42.6430 C   0  0  0  0  0  0  0  0  0  0  0  0
   56.8070   28.9860   42.9770 C   0  0  0  0  0  0  0  0  0  0  0  0
   57.4980   28.6030   44.1380 C   0  0  0  0  0  0  0  0  0  0  0  0
   57.6920   26.8790   44.5040 S   0  0  0  0  0  0  0  0  0  0  0  0
   57.4250   25.9220   43.0870 N   0  0  0  0  0  0  0  0  0  0  0  0
   59.0900   26.6250   44.9960 O   0  0  0  0  0  0  0  0  0  0  0  0
   56.7040   26.4720   45.5620 O   0  0  0  0  0  0  0  0  0  0  0  0
   60.0710   29.7560   46.4230 C   0  0  0  0  0  0  0  0  0  0  0  0
   60.7490   29.4650   47.6100 C   0  0  0  0  0  0  0  0  0  0  0  0
   64.5740   31.6780   50.3020 C   0  0  0  0  0  0  0  0  0  0  0  0
   63.7380   32.3450   49.1960 C   0  0  0  0  0  0  0  0  0  0  0  0
   62.0370   33.6590   47.4460 C   0  0  0  0  0  0  0  0  0  0  0  0
   61.3250   34.2440   46.4090 C   0  0  0  0  0  0  0  0  0  0  0  0
   59.9410   34.0700   46.3060 C   0  0  0  0  0  0  0  0  0  0  0  0
   59.2410   33.3500   47.3080 C   0  0  0  0  0  0  0  0  0  0  0  0
   57.7420   33.1230   47.1830 C   0  0  0  0  0  0  0  0  0  0  0  0
   57.0600   33.8960   46.0460 C   0  0  0  0  0  0  0  0  0  0  0  0
   57.9370   33.9540   44.8030 C   0  0  0  0  0  0  0  0  0  0  0  0
   59.2310   34.6920   45.1290 C   0  0  0  0  0  0  0  0  0  0  0  0
   59.1636   32.0162   51.3577 H   0  0  0  0  0  0  0  0  0  0  0  0
   58.5856   33.4392   50.4262 H   0  0  0  0  0  0  0  0  0  0  0  0
   57.6309   31.9176   50.4262 H   0  0  0  0  0  0  0  0  0  0  0  0
   61.9876   31.1580   49.5134 H   0  0  0  0  0  0  0  0  0  0  0  0
   61.2612   33.6599   50.8187 H   0  0  0  0  0  0  0  0  0  0  0  0
   61.3289   31.9550   51.4464 H   0  0  0  0  0  0  0  0  0  0  0  0
   63.5614   34.0264   51.3711 H   0  0  0  0  0  0  0  0  0  0  0  0
   62.8122   33.2001   52.8037 H   0  0  0  0  0  0  0  0  0  0  0  0
   63.4538   30.0291   51.7951 H   0  0  0  0  0  0  0  0  0  0  0  0
   64.6191   30.5233   53.0865 H   0  0  0  0  0  0  0  0  0  0  0  0
   62.9056   30.9542   54.4575 H   0  0  0  0  0  0  0  0  0  0  0  0
   62.3249   32.2141   53.2674 H   0  0  0  0  0  0  0  0  0  0  0  0
   60.9173   29.9584   54.0939 H   0  0  0  0  0  0  0  0  0  0  0  0
   60.6045   30.9958   52.6236 H   0  0  0  0  0  0  0  0  0  0  0  0
   62.6406   28.9266   52.1723 H   0  0  0  0  0  0  0  0  0  0  0  0
   61.0214   28.2617   52.6145 H   0  0  0  0  0  0  0  0  0  0  0  0
   58.3370   27.6124   49.1789 H   0  0  0  0  0  0  0  0  0  0  0  0
   57.1278   28.1342   47.0604 H   0  0  0  0  0  0  0  0  0  0  0  0
   58.3438   31.7362   45.2673 H   0  0  0  0  0  0  0  0  0  0  0  0
   57.1169   32.3807   43.1950 H   0  0  0  0  0  0  0  0  0  0  0  0
   56.1235   30.6221   41.7320 H   0  0  0  0  0  0  0  0  0  0  0  0
   56.3701   28.2159   42.3242 H   0  0  0  0  0  0  0  0  0  0  0  0
   57.0160   26.5530   42.3620 H   0  0  0  0  0  0  0  0  0  0  0  0
   56.6830   25.2270   43.3240 H   0  0  0  0  0  0  0  0  0  0  0  0
   60.5593   30.3644   45.6475 H   0  0  0  0  0  0  0  0  0  0  0  0
   61.7770   29.8280   47.7567 H   0  0  0  0  0  0  0  0  0  0  0  0
   65.6214   31.9904   50.1785 H   0  0  0  0  0  0  0  0  0  0  0  0
   64.4370   30.5923   50.1904 H   0  0  0  0  0  0  0  0  0  0  0  0
   64.0123   33.4081   49.1275 H   0  0  0  0  0  0  0  0  0  0  0  0
   63.9424   31.8358   48.2426 H   0  0  0  0  0  0  0  0  0  0  0  0
   63.1245   33.8112   47.5108 H   0  0  0  0  0  0  0  0  0  0  0  0
   61.8544   34.8511   45.6599 H   0  0  0  0  0  0  0  0  0  0  0  0
   57.5726   32.0492   47.0148 H   0  0  0  0  0  0  0  0  0  0  0  0
   57.2964   33.4952   48.1173 H   0  0  0  0  0  0  0  0  0  0  0  0
   56.1135   33.3963   45.7921 H   0  0  0  0  0  0  0  0  0  0  0  0
   56.8809   34.9257   46.3891 H   0  0  0  0  0  0  0  0  0  0  0  0
   58.1713   32.9317   44.4713 H   0  0  0  0  0  0  0  0  0  0  0  0
   57.4031   34.4857   44.0016 H   0  0  0  0  0  0  0  0  0  0  0  0
   59.8938   34.6558   44.2519 H   0  0  0  0  0  0  0  0  0  0  0  0
   58.9798   35.7313   45.3874 H   0  0  0  0  0  0  0  0  0  0  0  0
  1  2  1  0
  2  3  1  0
  3  4  2  0
  4  5  1  0
  5  6  1  0
  6  7  1  0
  7  8  1  0
  8  9  1  0
  9 10  1  0
 10 11  1  0
 11 12  1  0
 12 13  1  0
 13 14  1  0
 14 15  2  0
 14 16  1  0
 16 17  2  0
 17 18  1  0
 18 19  2  0
 19 20  1  0
 20 21  2  0
 21 22  1  0
 22 23  2  0
 23 24  1  0
 24 25  2  0
 25 26  1  0
 26 27  1  0
 26 28  2  0
 26 29  2  0
 19 30  1  0
 30 31  2  0
  8 32  1  0
 32 33  1  0
  4 34  1  0
 34 35  2  0
 35 36  1  0
 36 37  2  0
 37 38  1  0
 38 39  1  0
 39 40  1  0
 40 41  1  0
 37  3  1  0
 33  5  1  0
 41 36  1  0
 31 16  1  0
 25 20  1  0
  1 42  1  0
  1 43  1  0
  1 44  1  0
  5 45  1  0
  6 46  1  0
  6 47  1  0
  7 48  1  0
  7 49  1  0
  9 50  1  0
  9 51  1  0
 10 52  1  0
 10 53  1  0
 11 54  1  0
 11 55  1  0
 12 56  1  0
 12 57  1  0
 17 58  1  0
 18 59  1  0
 21 60  1  0
 22 61  1  0
 23 62  1  0
 24 63  1  0
 27 64  1  0
 27 65  1  0
 30 66  1  0
 31 67  1  0
 32 68  1  0
 32 69  1  0
 33 70  1  0
 33 71  1  0
 34 72  1  0
 35 73  1  0
 38 74  1  0
 38 75  1  0
 39 76  1  0
 39 77  1  0
 40 78  1  0
 40 79  1  0
 41 80  1  0
 41 81  1  0
M  CHG  1  13  -1
M  END
>  <UniqueID>  (87) 
79

>  <SMILES>  (87) 
COc1c(C2CCN(CCCC[N-]C(=O)c3ccc(-c4ccccc4S(N)(=O)=O)cc3)CC2)ccc2c1CCCC2

>  <Energy>  (87) 
113.98621924190458

>  <Genealogy>  (87) 
COc1c(C2CCN(CCCC[N-]C(=O)c3ccc(-c4ccccc4S(N)(=O)=O)cc3)CC2)ccc2c1CCCC2 (protonated)
COc1c(C2CCN(CCCC[N-]C(=O)c3ccc(-c4ccccc4S(N)(=O)=O)cc3)CC2)ccc2c1CCCC2 (3D coordinates assigned)
COc1c(C2CCN(CCCC[N-]C(=O)c3ccc(-c4ccccc4S(N)(=O)=O)cc3)CC2)ccc2c1CCCC2 (nonaromatic ring conformer: 113.98621924190458 kcal/mol)

>  <smiles>  (87) 
COc1c(C2CCN(CCCCNC(=O)c3ccc(-c4ccccc4S(N)(=O)=O)cc3)CC2)ccc2c1CCCC2

>  <score_type>  (87) 
oracle

>  <origin>  (87) 
adg

>  <m_score__min__energy>  (87) 
-11.609999999999999

>  <m_primary>  (87) 
energy

$$$$
88:0
     RDKit          3D

 48 50  0  0  0  0  0  0  0  0999 V2000
   56.5580   20.7820   43.9990 C   0  0  0  0  0  0  0  0  0  0  0  0
   55.6830   21.8290   44.4060 O   0  0  0  0  0  0  0  0  0  0  0  0
   56.1070   23.1020   44.8130 C   0  0  0  0  0  0  0  0  0  0  0  0
   57.4780   23.3810   44.7980 C   0  0  0  0  0  0  0  0  0  0  0  0
   57.9520   24.6360   45.1900 C   0  0  0  0  0  0  0  0  0  0  0  0
   57.0580   25.6370   45.6010 C   0  0  0  0  0  0  0  0  0  0  0  0
   57.5740   26.9950   46.0070 C   0  0  0  0  0  0  0  0  0  0  0  0
   58.2550   27.6540   44.8730 N   0  0  0  0  0  0  0  0  0  0  0  0
   59.5850   28.2410   45.1560 C   0  0  0  0  0  0  0  0  0  0  0  0
   59.8090   29.6680   44.6190 C   0  0  0  0  0  0  0  0  0  0  0  0
   58.9550   30.7820   45.2530 C   0  0  0  0  0  0  0  0  0  0  0  0
   57.6350   30.9260   44.5940 N   0  0  0  0  0  0  0  0  0  0  0  0
   56.9350   32.1360   45.0770 C   0  0  0  0  0  0  0  0  0  0  0  0
   57.9220   33.1430   45.5910 C   0  0  0  0  0  0  0  0  0  0  0  0
   58.5040   34.1150   44.7800 C   0  0  0  0  0  0  0  0  0  0  0  0
   59.5120   35.0520   45.7460 S   0  0  0  0  0  0  0  0  0  0  0  0
   59.1800   34.1730   47.1400 C   0  0  0  0  0  0  0  0  0  0  0  0
   59.7040   34.4990   48.4960 C   0  0  0  0  0  0  0  0  0  0  0  0
   58.2900   33.1850   46.9010 N   0  0  0  0  0  0  0  0  0  0  0  0
   56.8070   29.7140   44.8120 C   0  0  0  0  0  0  0  0  0  0  0  0
   57.3830   28.5160   44.0530 C   0  0  0  0  0  0  0  0  0  0  0  0
   55.6790   25.3580   45.6250 C   0  0  0  0  0  0  0  0  0  0  0  0
   54.7700   26.3280   46.0370 O   0  0  0  0  0  0  0  0  0  0  0  0
   55.2080   24.1010   45.2330 C   0  0  0  0  0  0  0  0  0  0  0  0
   56.9734   20.2849   44.8880 H   0  0  0  0  0  0  0  0  0  0  0  0
   55.9991   20.0502   43.3973 H   0  0  0  0  0  0  0  0  0  0  0  0
   57.3774   21.2021   43.3973 H   0  0  0  0  0  0  0  0  0  0  0  0
   58.1888   22.6061   44.4750 H   0  0  0  0  0  0  0  0  0  0  0  0
   59.0327   24.8406   45.1763 H   0  0  0  0  0  0  0  0  0  0  0  0
   56.7295   27.6196   46.3337 H   0  0  0  0  0  0  0  0  0  0  0  0
   58.2948   26.8690   46.8283 H   0  0  0  0  0  0  0  0  0  0  0  0
   59.7195   28.2648   46.2475 H   0  0  0  0  0  0  0  0  0  0  0  0
   60.3134   27.6040   44.6329 H   0  0  0  0  0  0  0  0  0  0  0  0
   60.8664   29.9241   44.7811 H   0  0  0  0  0  0  0  0  0  0  0  0
   59.5046   29.6330   43.5625 H   0  0  0  0  0  0  0  0  0  0  0  0
   58.7956   30.5439   46.3150 H   0  0  0  0  0  0  0  0  0  0  0  0
   59.4968   31.7313   45.1299 H   0  0  0  0  0  0  0  0  0  0  0  0
   56.3638   32.5792   44.2479 H   0  0  0  0  0  0  0  0  0  0  0  0
   56.2567   31.8524   45.8952 H   0  0  0  0  0  0  0  0  0  0  0  0
   58.3344   34.2459   43.7011 H   0  0  0  0  0  0  0  0  0  0  0  0
   59.0315   34.0806   49.2593 H   0  0  0  0  0  0  0  0  0  0  0  0
   60.7081   34.0659   48.6149 H   0  0  0  0  0  0  0  0  0  0  0  0
   59.7593   35.5912   48.6149 H   0  0  0  0  0  0  0  0  0  0  0  0
   56.7838   29.4821   45.8870 H   0  0  0  0  0  0  0  0  0  0  0  0
   55.7908   29.9107   44.4397 H   0  0  0  0  0  0  0  0  0  0  0  0
   56.5463   27.9074   43.6795 H   0  0  0  0  0  0  0  0  0  0  0  0
   58.0052   28.9207   43.2411 H   0  0  0  0  0  0  0  0  0  0  0  0
   54.1283   23.8913   45.2529 H   0  0  0  0  0  0  0  0  0  0  0  0
  1  2  1  0
  2  3  1  0
  3  4  2  0
  4  5  1  0
  5  6  2  0
  6  7  1  0
  7  8  1  0
  8  9  1  0
  9 10  1  0
 10 11  1  0
 11 12  1  0
 12 13  1  0
 13 14  1  0
 14 15  2  0
 15 16  1  0
 16 17  1  0
 17 18  1  0
 17 19  2  0
 12 20  1  0
 20 21  1  0
  6 22  1  0
 22 23  1  0
 22 24  2  0
 24  3  1  0
 21  8  1  0
 19 14  1  0
  1 25  1  0
  1 26  1  0
  1 27  1  0
  4 28  1  0
  5 29  1  0
  7 30  1  0
  7 31  1  0
  9 32  1  0
  9 33  1  0
 10 34  1  0
 10 35  1  0
 11 36  1  0
 11 37  1  0
 13 38  1  0
 13 39  1  0
 15 40  1  0
 18 41  1  0
 18 42  1  0
 18 43  1  0
 20 44  1  0
 20 45  1  0
 21 46  1  0
 21 47  1  0
 24 48  1  0
M  CHG  1  23  -1
M  END
>  <UniqueID>  (88) 
80

>  <SMILES>  (88) 
COc1ccc(CN2CCCN(Cc3csc(C)n3)CC2)c([O-])c1

>  <Energy>  (88) 
90.52455962181689

>  <Genealogy>  (88) 
COc1ccc(CN2CCCN(Cc3csc(C)n3)CC2)c([O-])c1 (protonated)
COc1ccc(CN2CCCN(Cc3csc(C)n3)CC2)c([O-])c1 (3D coordinates assigned)
COc1ccc(CN2CCCN(Cc3csc(C)n3)CC2)c([O-])c1 (nonaromatic ring conformer: 90.52455962181689 kcal/mol)

>  <smiles>  (88) 
COc1ccc(CN2CCCN(Cc3csc(C)n3)CC2)c(O)c1

>  <score_type>  (88) 
oracle

>  <origin>  (88) 
adg

>  <m_score__min__energy>  (88) 
-10.44

>  <m_primary>  (88) 
energy

$$$$
89:0
     RDKit          3D

 43 45  0  0  0  0  0  0  0  0999 V2000
   55.1450   29.3590   44.9150 N   0  0  0  0  0  0  0  0  0  0  0  0
   56.5810   29.5820   43.9790 S   0  0  0  0  0  0  0  0  0  0  0  0
   56.1970   29.8240   42.5450 O   0  0  0  0  0  0  0  0  0  0  0  0
   57.4330   28.3480   44.0540 O   0  0  0  0  0  0  0  0  0  0  0  0
   57.4810   30.9580   44.6100 C   0  0  0  0  0  0  0  0  0  0  0  0
   57.3980   32.2140   43.9960 C   0  0  0  0  0  0  0  0  0  0  0  0
   58.1010   33.3000   44.5260 C   0  0  0  0  0  0  0  0  0  0  0  0
   58.8730   33.1410   45.6800 C   0  0  0  0  0  0  0  0  0  0  0  0
   58.9500   31.8910   46.3170 C   0  0  0  0  0  0  0  0  0  0  0  0
   59.7440   31.7370   47.5600 C   0  0  0  0  0  0  0  0  0  0  0  0
   59.7290   32.6560   48.4200 O   0  0  0  0  0  0  0  0  0  0  0  0
   60.5720   30.5880   47.7980 N   0  0  0  0  0  0  0  0  0  0  0  0
   60.2760   29.2360   47.4180 C   0  0  0  0  0  0  0  0  0  0  0  0
   59.7200   28.3720   48.3680 C   0  0  0  0  0  0  0  0  0  0  0  0
   59.4320   27.0450   48.0340 C   0  0  0  0  0  0  0  0  0  0  0  0
   59.6690   26.5730   46.7400 C   0  0  0  0  0  0  0  0  0  0  0  0
   59.3860   25.2290   46.4500 O   0  0  0  0  0  0  0  0  0  0  0  0
   58.1760   24.7470   45.9280 C   0  0  0  0  0  0  0  0  0  0  0  0
   57.0060   25.4730   46.1640 C   0  0  0  0  0  0  0  0  0  0  0  0
   55.7950   25.0160   45.6420 C   0  0  0  0  0  0  0  0  0  0  0  0
   55.7580   23.8800   44.8980 N   0  0  0  0  0  0  0  0  0  0  0  0
   56.8790   23.1530   44.6310 C   0  0  0  0  0  0  0  0  0  0  0  0
   56.7790   21.9290   43.8080 C   0  0  0  0  0  0  0  0  0  0  0  0
   57.6730   20.8340   44.0130 N   0  0  0  0  0  0  0  0  0  0  0  0
   55.8960   21.8390   42.9110 O   0  0  0  0  0  0  0  0  0  0  0  0
   58.1150   23.5860   45.1390 C   0  0  0  0  0  0  0  0  0  0  0  0
   60.2210   27.4410   45.7810 C   0  0  0  0  0  0  0  0  0  0  0  0
   60.5050   28.7670   46.1130 C   0  0  0  0  0  0  0  0  0  0  0  0
   58.2690   30.7960   45.7560 C   0  0  0  0  0  0  0  0  0  0  0  0
   55.3470   28.6110   45.6160 H   0  0  0  0  0  0  0  0  0  0  0  0
   56.7793   32.3461   43.0961 H   0  0  0  0  0  0  0  0  0  0  0  0
   58.0463   34.2820   44.0335 H   0  0  0  0  0  0  0  0  0  0  0  0
   59.4236   33.9995   46.0921 H   0  0  0  0  0  0  0  0  0  0  0  0
   59.5083   28.7387   49.3832 H   0  0  0  0  0  0  0  0  0  0  0  0
   59.0161   26.3681   48.7948 H   0  0  0  0  0  0  0  0  0  0  0  0
   57.0390   26.3987   46.7573 H   0  0  0  0  0  0  0  0  0  0  0  0
   54.8684   25.5770   45.8335 H   0  0  0  0  0  0  0  0  0  0  0  0
   58.4180   20.8670   44.7440 H   0  0  0  0  0  0  0  0  0  0  0  0
   57.5930   19.9750   43.4250 H   0  0  0  0  0  0  0  0  0  0  0  0
   59.0314   23.0184   44.9200 H   0  0  0  0  0  0  0  0  0  0  0  0
   60.4298   27.0737   44.7654 H   0  0  0  0  0  0  0  0  0  0  0  0
   60.9098   29.4478   45.3497 H   0  0  0  0  0  0  0  0  0  0  0  0
   58.3562   29.8033   46.2217 H   0  0  0  0  0  0  0  0  0  0  0  0
  1  2  1  0
  2  3  2  0
  2  4  2  0
  2  5  1  0
  5  6  2  0
  6  7  1  0
  7  8  2  0
  8  9  1  0
  9 10  1  0
 10 11  2  0
 10 12  1  0
 12 13  1  0
 13 14  2  0
 14 15  1  0
 15 16  2  0
 16 17  1  0
 17 18  1  0
 18 19  2  0
 19 20  1  0
 20 21  2  0
 21 22  1  0
 22 23  1  0
 23 24  1  0
 23 25  2  0
 22 26  2  0
 16 27  1  0
 27 28  2  0
  9 29  2  0
 29  5  1  0
 28 13  1  0
 26 18  1  0
  1 30  1  0
  6 31  1  0
  7 32  1  0
  8 33  1  0
 14 34  1  0
 15 35  1  0
 19 36  1  0
 20 37  1  0
 24 38  1  0
 24 39  1  0
 26 40  1  0
 27 41  1  0
 28 42  1  0
 29 43  1  0
M  CHG  2   1  -1  12  -1
M  END
>  <UniqueID>  (89) 
81

>  <SMILES>  (89) 
[NH-]S(=O)(=O)c1cccc(C(=O)[N-]c2ccc(Oc3ccnc(C(N)=O)c3)cc2)c1

>  <Energy>  (89) 
57.60478727991731

>  <Genealogy>  (89) 
[NH-]S(=O)(=O)c1cccc(C(=O)[N-]c2ccc(Oc3ccnc(C(N)=O)c3)cc2)c1 (protonated)
[NH-]S(=O)(=O)c1cccc(C(=O)[N-]c2ccc(Oc3ccnc(C(N)=O)c3)cc2)c1 (3D coordinates assigned)
[NH-]S(=O)(=O)c1cccc(C(=O)[N-]c2ccc(Oc3ccnc(C(N)=O)c3)cc2)c1 (optimized conformer: 57.60478727991731 kcal/mol)

>  <smiles>  (89) 
NC(=O)c1cc(Oc2ccc(NC(=O)c3cccc(S(N)(=O)=O)c3)cc2)ccn1

>  <score_type>  (89) 
oracle

>  <origin>  (89) 
adg

>  <m_score__min__energy>  (89) 
-12.949999999999999

>  <m_primary>  (89) 
energy

$$$$
