0:0
     RDKit          3D

 46 48  0  0  0  0  0  0  0  0999 V2000
   55.6770   29.2990   45.8980 H   0  0  0  0  0  0  0  0  0  0  0  0
   55.5010   29.3210   44.8690 N   0  0  0  0  0  0  0  0  0  0  0  0
   56.2950   30.1310   44.0080 C   0  0  0  0  0  0  0  0  0  0  0  0
   56.2660   29.9350   42.7640 O   0  0  0  0  0  0  0  0  0  0  0  0
   57.2210   31.1320   44.5740 C   0  0  0  0  0  0  0  0  0  0  0  0
   57.4800   32.2700   43.7940 C   0  0  0  0  0  0  0  0  0  0  0  0
   56.8922   32.4497   42.8818 H   0  0  0  0  0  0  0  0  0  0  0  0
   58.4470   33.1500   44.1530 N   0  0  0  0  0  0  0  0  0  0  0  0
   59.1950   32.9850   45.2730 C   0  0  0  0  0  0  0  0  0  0  0  0
   60.2240   33.9400   45.5730 N   0  0  0  0  0  0  0  0  0  0  0  0
   60.3770   34.7150   44.8890 H   0  0  0  0  0  0  0  0  0  0  0  0
   61.0340   33.9190   46.7620 C   0  0  0  0  0  0  0  0  0  0  0  0
   62.3850   33.5260   46.7200 C   0  0  0  0  0  0  0  0  0  0  0  0
   62.8466   33.2525   45.7597 H   0  0  0  0  0  0  0  0  0  0  0  0
   63.1420   33.4820   47.8940 C   0  0  0  0  0  0  0  0  0  0  0  0
   64.2005   33.1854   47.8537 H   0  0  0  0  0  0  0  0  0  0  0  0
   62.5570   33.8140   49.1190 C   0  0  0  0  0  0  0  0  0  0  0  0
   63.2930   33.7670   50.2580 F   0  0  0  0  0  0  0  0  0  0  0  0
   61.2100   34.1830   49.1720 C   0  0  0  0  0  0  0  0  0  0  0  0
   60.7480   34.4383   50.1371 H   0  0  0  0  0  0  0  0  0  0  0  0
   60.4490   34.2280   48.0000 C   0  0  0  0  0  0  0  0  0  0  0  0
   59.3861   34.5071   48.0483 H   0  0  0  0  0  0  0  0  0  0  0  0
   58.9800   31.8630   46.0840 C   0  0  0  0  0  0  0  0  0  0  0  0
   59.6182   31.6948   46.9640 H   0  0  0  0  0  0  0  0  0  0  0  0
   57.9580   30.9540   45.7820 C   0  0  0  0  0  0  0  0  0  0  0  0
   57.7260   30.0160   46.6650 N   0  0  0  0  0  0  0  0  0  0  0  0
   58.6220   29.4350   47.6260 C   0  0  0  0  0  0  0  0  0  0  0  0
   59.0270   30.1610   48.7720 C   0  0  0  0  0  0  0  0  0  0  0  0
   58.5370   31.5620   49.0290 C   0  0  0  0  0  0  0  0  0  0  0  0
   58.4761   31.7360   50.1134 H   0  0  0  0  0  0  0  0  0  0  0  0
   59.2363   32.2831   48.5806 H   0  0  0  0  0  0  0  0  0  0  0  0
   57.5407   31.6900   48.5806 H   0  0  0  0  0  0  0  0  0  0  0  0
   59.8890   29.5600   49.7000 C   0  0  0  0  0  0  0  0  0  0  0  0
   60.1519   30.0956   50.6241 H   0  0  0  0  0  0  0  0  0  0  0  0
   60.4190   28.2860   49.4640 C   0  0  0  0  0  0  0  0  0  0  0  0
   61.3210   27.6410   50.4750 C   0  0  0  0  0  0  0  0  0  0  0  0
   60.9730   27.8898   51.4884 H   0  0  0  0  0  0  0  0  0  0  0  0
   61.3032   26.5496   50.3388 H   0  0  0  0  0  0  0  0  0  0  0  0
   62.3480   28.0108   50.3388 H   0  0  0  0  0  0  0  0  0  0  0  0
   60.0650   27.5950   48.2990 C   0  0  0  0  0  0  0  0  0  0  0  0
   60.4830   26.5952   48.1102 H   0  0  0  0  0  0  0  0  0  0  0  0
   59.1820   28.1660   47.3700 C   0  0  0  0  0  0  0  0  0  0  0  0
   58.8230   27.4140   46.1160 C   0  0  0  0  0  0  0  0  0  0  0  0
   58.3635   26.4514   46.3846 H   0  0  0  0  0  0  0  0  0  0  0  0
   58.1111   28.0075   45.5236 H   0  0  0  0  0  0  0  0  0  0  0  0
   59.7322   27.2337   45.5236 H   0  0  0  0  0  0  0  0  0  0  0  0
  1  2  1  0
  2  3  1  0
  3  4  2  0
  3  5  1  0
  5  6  2  0
  6  7  1  0
  6  8  1  0
  8  9  1  0
  9 10  1  0
 10 11  1  0
 10 12  1  0
 12 13  2  0
 13 14  1  0
 13 15  1  0
 15 16  1  0
 15 17  2  0
 17 18  1  0
 17 19  1  0
 19 20  1  0
 19 21  2  0
 21 22  1  0
  9 23  2  0
 23 24  1  0
 23 25  1  0
 25 26  2  0
 26 27  1  0
 27 28  2  0
 28 29  1  0
 29 30  1  0
 29 31  1  0
 29 32  1  0
 28 33  1  0
 33 34  1  0
 33 35  2  0
 35 36  1  0
 36 37  1  0
 36 38  1  0
 36 39  1  0
 35 40  1  0
 40 41  1  0
 40 42  2  0
 42 43  1  0
 43 44  1  0
 43 45  1  0
 43 46  1  0
 25  5  1  0
 42 27  1  0
 21 12  1  0
M  CHG  2   2  -1   8  -1
M  END
>  <UniqueID>  (1) 
1

>  <SMILES>  (1) 
Cc1cc(C)c(/N=c2/cc(Nc3ccc(F)cc3)[n-]cc2C([NH-])=O)c(C)c1

>  <Energy>  (1) 
74.387069729029

>  <Genealogy>  (1) 
Cc1cc(C)c(N=c2cc(Nc3ccc(F)cc3)[n-]cc2C([NH-])=O)c(C)c1 (protonated)
Cc1cc(C)c(/N=c2/cc(Nc3ccc(F)cc3)[n-]cc2C([NH-])=O)c(C)c1 (cis-trans isomerization)
Cc1cc(C)c(/N=c2/cc(Nc3ccc(F)cc3)[n-]cc2C([NH-])=O)c(C)c1 (3D coordinates assigned)
Cc1cc(C)c(/N=c2/cc(Nc3ccc(F)cc3)[n-]cc2C([NH-])=O)c(C)c1 (optimized conformer: 74.387069729029 kcal/mol)

>  <smiles>  (1) 
Cc1cc(C)c(N=c2cc(Nc3ccc(F)cc3)[nH]cc2C(N)=O)c(C)c1

>  <score_type>  (1) 
oracle

>  <origin>  (1) 
adg

>  <m_score__min__energy>  (1) 
-11.880000000000001

>  <m_primary>  (1) 
energy

$$$$
1:0
     RDKit          3D

 37 39  0  0  0  0  0  0  0  0999 V2000
   57.0020   20.9710   42.9790 C   0  0  0  0  0  0  0  0  0  0  0  0
   56.3100   21.1720   44.2590 N   0  0  0  0  0  0  0  0  0  0  0  0
   55.9210   19.9950   45.0470 C   0  0  0  0  0  0  0  0  0  0  0  0
   56.0150   22.5110   44.7380 C   0  0  0  0  0  0  0  0  0  0  0  0
   54.6770   22.8960   45.0530 C   0  0  0  0  0  0  0  0  0  0  0  0
   54.3840   24.1910   45.5180 C   0  0  0  0  0  0  0  0  0  0  0  0
   55.4390   25.0820   45.6630 C   0  0  0  0  0  0  0  0  0  0  0  0
   55.3860   26.3540   46.0870 N   0  0  0  0  0  0  0  0  0  0  0  0
   56.6890   26.7300   46.0340 C   0  0  0  0  0  0  0  0  0  0  0  0
   57.0660   27.9330   46.3560 N   0  0  0  0  0  0  0  0  0  0  0  0
   58.1890   28.6500   45.8180 C   0  0  0  0  0  0  0  0  0  0  0  0
   59.2130   28.0000   45.4790 O   0  0  0  0  0  0  0  0  0  0  0  0
   58.1490   30.1090   45.5650 C   0  0  0  0  0  0  0  0  0  0  0  0
   59.1700   30.9040   46.1160 C   0  0  0  0  0  0  0  0  0  0  0  0
   59.1400   32.2910   45.9840 C   0  0  0  0  0  0  0  0  0  0  0  0
   58.0870   32.9060   45.3110 C   0  0  0  0  0  0  0  0  0  0  0  0
   57.0650   32.1350   44.7550 C   0  0  0  0  0  0  0  0  0  0  0  0
   57.0830   30.7300   44.8620 C   0  0  0  0  0  0  0  0  0  0  0  0
   56.0130   29.9540   44.1860 C   0  0  0  0  0  0  0  0  0  0  0  0
   55.1310   29.3640   44.8670 O   0  0  0  0  0  0  0  0  0  0  0  0
   55.9350   29.9010   42.8000 O   0  0  0  0  0  0  0  0  0  0  0  0
   57.5430   25.7670   45.5900 N   0  0  0  0  0  0  0  0  0  0  0  0
   56.7180   24.7340   45.3680 C   0  0  0  0  0  0  0  0  0  0  0  0
   57.0530   23.4670   44.9040 C   0  0  0  0  0  0  0  0  0  0  0  0
   58.0426   20.6687   43.1683 H   0  0  0  0  0  0  0  0  0  0  0  0
   56.4903   20.1844   42.4051 H   0  0  0  0  0  0  0  0  0  0  0  0
   56.9913   21.9094   42.4051 H   0  0  0  0  0  0  0  0  0  0  0  0
   55.9985   20.2295   46.1189 H   0  0  0  0  0  0  0  0  0  0  0  0
   54.8838   19.7189   44.8061 H   0  0  0  0  0  0  0  0  0  0  0  0
   56.5894   19.1552   44.8061 H   0  0  0  0  0  0  0  0  0  0  0  0
   53.8615   22.1680   44.9301 H   0  0  0  0  0  0  0  0  0  0  0  0
   53.3526   24.4881   45.7589 H   0  0  0  0  0  0  0  0  0  0  0  0
   60.0004   30.4263   46.6565 H   0  0  0  0  0  0  0  0  0  0  0  0
   59.9492   32.9010   46.4120 H   0  0  0  0  0  0  0  0  0  0  0  0
   58.0608   34.0017   45.2175 H   0  0  0  0  0  0  0  0  0  0  0  0
   56.2362   32.6296   44.2274 H   0  0  0  0  0  0  0  0  0  0  0  0
   58.0970   23.2107   44.6709 H   0  0  0  0  0  0  0  0  0  0  0  0
  1  2  1  0
  2  3  1  0
  2  4  1  0
  4  5  2  0
  5  6  1  0
  6  7  2  0
  7  8  1  0
  8  9  1  0
  9 10  2  3
 10 11  1  0
 11 12  2  0
 11 13  1  0
 13 14  2  0
 14 15  1  0
 15 16  2  0
 16 17  1  0
 17 18  2  0
 18 19  1  0
 19 20  2  0
 19 21  1  0
  9 22  1  0
 22 23  1  0
 23 24  2  0
 24  4  1  0
 23  7  1  0
 18 13  1  0
  1 25  1  0
  1 26  1  0
  1 27  1  0
  3 28  1  0
  3 29  1  0
  3 30  1  0
  5 31  1  0
  6 32  1  0
 14 33  1  0
 15 34  1  0
 16 35  1  0
 17 36  1  0
 24 37  1  0
M  CHG  3   8  -1  21  -1  22  -1
M  END
>  <UniqueID>  (2) 
2

>  <SMILES>  (2) 
CN(C)c1ccc2[n-]c(=NC(=O)c3ccccc3C(=O)[O-])[n-]c2c1

>  <Energy>  (2) 
88.79981873763117

>  <Genealogy>  (2) 
CN(C)c1ccc2[n-]c(=NC(=O)c3ccccc3C(=O)[O-])[n-]c2c1 (protonated)
CN(C)c1ccc2[n-]c(=NC(=O)c3ccccc3C(=O)[O-])[n-]c2c1 (3D coordinates assigned)
CN(C)c1ccc2[n-]c(=NC(=O)c3ccccc3C(=O)[O-])[n-]c2c1 (optimized conformer: 88.79981873763117 kcal/mol)

>  <smiles>  (2) 
CN(C)c1ccc2[nH]c(=NC(=O)c3ccccc3C(=O)O)[nH]c2c1

>  <score_type>  (2) 
oracle

>  <origin>  (2) 
adg

>  <m_score__min__energy>  (2) 
-12.789999999999999

>  <m_primary>  (2) 
energy

$$$$
2:0
     RDKit          3D

 41 43  0  0  0  0  0  0  0  0999 V2000
   59.3173   34.7941   46.0632 H   0  0  0  0  0  0  0  0  0  0  0  0
   58.8580   33.8290   45.8030 C   0  0  0  0  0  0  0  0  0  0  0  0
   57.5760   33.7930   45.2560 C   0  0  0  0  0  0  0  0  0  0  0  0
   57.0256   34.7298   45.0843 H   0  0  0  0  0  0  0  0  0  0  0  0
   56.9900   32.5700   44.9260 C   0  0  0  0  0  0  0  0  0  0  0  0
   55.9719   32.5458   44.5101 H   0  0  0  0  0  0  0  0  0  0  0  0
   57.6930   31.3700   45.1220 C   0  0  0  0  0  0  0  0  0  0  0  0
   56.9250   29.8370   44.6900 S   0  0  0  0  0  0  0  0  0  0  0  0
   57.4260   29.3170   43.3710 O   0  0  0  0  0  0  0  0  0  0  0  0
   55.4500   30.0910   44.5600 O   0  0  0  0  0  0  0  0  0  0  0  0
   57.1600   28.6290   45.9150 N   0  0  0  0  0  0  0  0  0  0  0  0
   56.7580   27.3890   45.9620 C   0  0  0  0  0  0  0  0  0  0  0  0
   55.4820   27.0890   45.9870 O   0  0  0  0  0  0  0  0  0  0  0  0
   55.2950   25.8050   46.0680 N   0  0  0  0  0  0  0  0  0  0  0  0
   56.5120   25.2300   46.0940 C   0  0  0  0  0  0  0  0  0  0  0  0
   56.7210   23.7570   46.2390 C   0  0  0  0  0  0  0  0  0  0  0  0
   56.7581   23.4953   47.3068 H   0  0  0  0  0  0  0  0  0  0  0  0
   55.8901   23.2197   45.7585 H   0  0  0  0  0  0  0  0  0  0  0  0
   57.6686   23.4721   45.7585 H   0  0  0  0  0  0  0  0  0  0  0  0
   57.4970   26.2040   46.0090 C   0  0  0  0  0  0  0  0  0  0  0  0
   58.9720   25.9560   46.1190 C   0  0  0  0  0  0  0  0  0  0  0  0
   59.2576   25.9080   47.1802 H   0  0  0  0  0  0  0  0  0  0  0  0
   59.2212   25.0033   45.6287 H   0  0  0  0  0  0  0  0  0  0  0  0
   59.5190   26.7748   45.6287 H   0  0  0  0  0  0  0  0  0  0  0  0
   58.9920   31.4020   45.6690 C   0  0  0  0  0  0  0  0  0  0  0  0
   59.6890   30.1720   45.9270 N   0  0  0  0  0  0  0  0  0  0  0  0
   60.3940   29.8250   47.1270 C   0  0  0  0  0  0  0  0  0  0  0  0
   60.4440   28.6130   47.4660 O   0  0  0  0  0  0  0  0  0  0  0  0
   61.1350   30.8350   47.9180 C   0  0  0  0  0  0  0  0  0  0  0  0
   62.4080   31.2460   47.4860 C   0  0  0  0  0  0  0  0  0  0  0  0
   62.8314   30.8236   46.5628 H   0  0  0  0  0  0  0  0  0  0  0  0
   63.1410   32.1840   48.2150 C   0  0  0  0  0  0  0  0  0  0  0  0
   64.1360   32.4964   47.8651 H   0  0  0  0  0  0  0  0  0  0  0  0
   62.6120   32.7260   49.3880 C   0  0  0  0  0  0  0  0  0  0  0  0
   63.5320   33.9060   50.3020 Cl  0  0  0  0  0  0  0  0  0  0  0  0
   61.3470   32.3280   49.8320 C   0  0  0  0  0  0  0  0  0  0  0  0
   60.9323   32.7569   50.7562 H   0  0  0  0  0  0  0  0  0  0  0  0
   60.6040   31.3860   49.1070 C   0  0  0  0  0  0  0  0  0  0  0  0
   58.9970   30.9730   49.6920 Cl  0  0  0  0  0  0  0  0  0  0  0  0
   59.5600   32.6410   46.0210 C   0  0  0  0  0  0  0  0  0  0  0  0
   60.5633   32.6740   46.4707 H   0  0  0  0  0  0  0  0  0  0  0  0
  1  2  1  0
  2  3  2  0
  3  4  1  0
  3  5  1  0
  5  6  1  0
  5  7  2  0
  7  8  1  0
  8  9  2  0
  8 10  2  0
  8 11  1  0
 11 12  2  0
 12 13  1  0
 13 14  1  0
 14 15  1  0
 15 16  1  0
 16 17  1  0
 16 18  1  0
 16 19  1  0
 15 20  2  0
 20 21  1  0
 21 22  1  0
 21 23  1  0
 21 24  1  0
  7 25  1  0
 25 26  1  0
 26 27  1  0
 27 28  2  0
 27 29  1  0
 29 30  2  0
 30 31  1  0
 30 32  1  0
 32 33  1  0
 32 34  2  0
 34 35  1  0
 34 36  1  0
 36 37  1  0
 36 38  2  0
 38 39  1  0
 25 40  2  0
 40 41  1  0
 40  2  1  0
 20 12  1  0
 38 29  1  0
M  CHG  2  14  -1  26  -1
M  END
>  <UniqueID>  (3) 
3

>  <SMILES>  (3) 
Cc1[n-]o/c(=N/S(=O)(=O)c2ccccc2[N-]C(=O)c2ccc(Cl)cc2Cl)c1C

>  <Energy>  (3) 
90.20657226926632

>  <Genealogy>  (3) 
Cc1[n-]oc(=NS(=O)(=O)c2ccccc2[N-]C(=O)c2ccc(Cl)cc2Cl)c1C (protonated)
Cc1[n-]o/c(=N/S(=O)(=O)c2ccccc2[N-]C(=O)c2ccc(Cl)cc2Cl)c1C (cis-trans isomerization)
Cc1[n-]o/c(=N/S(=O)(=O)c2ccccc2[N-]C(=O)c2ccc(Cl)cc2Cl)c1C (3D coordinates assigned)
Cc1[n-]o/c(=N/S(=O)(=O)c2ccccc2[N-]C(=O)c2ccc(Cl)cc2Cl)c1C (optimized conformer: 90.20657226926632 kcal/mol)

>  <smiles>  (3) 
Cc1[nH]oc(=NS(=O)(=O)c2ccccc2NC(=O)c2ccc(Cl)cc2Cl)c1C

>  <score_type>  (3) 
oracle

>  <origin>  (3) 
adg

>  <m_score__min__energy>  (3) 
-13.710000000000001

>  <m_primary>  (3) 
energy

$$$$
3:0
     RDKit          3D

 38 40  0  0  1  0  0  0  0  0999 V2000
   56.1490   29.8140   43.6480 C   0  0  0  0  0  0  0  0  0  0  0  0
   56.9520   29.4430   44.8420 C   0  0  0  0  0  0  0  0  0  0  0  0
   57.7610   30.3770   45.4310 C   0  0  0  0  0  0  0  0  0  0  0  0
   57.5850   27.8020   46.4200 C   0  0  0  0  0  0  0  0  0  0  0  0
   57.5160   26.5970   46.9010 N   0  0  0  0  0  0  0  0  0  0  0  0
   57.0430   25.4940   46.1060 C   0  0  0  0  0  0  0  0  0  0  0  0
   60.4960   32.8000   46.6080 C   0  0  0  0  0  0  0  0  0  0  0  0
   60.5820   34.1630   46.3770 C   0  0  0  0  0  0  0  0  0  0  0  0
   59.4460   34.9500   46.4220 C   0  0  0  0  0  0  0  0  0  0  0  0
   57.5530   23.4440   44.9450 C   0  0  0  0  0  0  0  0  0  0  0  0
   57.9520   24.5100   45.7000 C   0  0  0  0  0  0  0  0  0  0  0  0
   58.3860   28.7380   46.9950 N   0  0  0  0  0  0  0  0  0  0  0  0
   58.4860   29.9860   46.5360 C   0  0  0  0  0  0  0  0  0  0  0  0
   59.2510   30.8200   47.1140 N   0  0  0  0  0  0  0  0  0  0  0  0
   59.2520   32.2240   46.8880 C   0  0  0  0  0  0  0  0  0  0  0  0
   58.1050   32.9930   46.9390 C   0  0  0  0  0  0  0  0  0  0  0  0
   58.2400   34.3390   46.7030 C   0  0  0  0  0  0  0  0  0  0  0  0
   56.2150   23.3600   44.5890 C   0  0  0  0  0  0  0  0  0  0  0  0
   55.2900   24.3230   44.9780 C   0  0  0  0  0  0  0  0  0  0  0  0
   55.6970   25.4050   45.7460 C   0  0  0  0  0  0  0  0  0  0  0  0
   54.7850   26.3800   46.1450 O   0  0  0  0  0  0  0  0  0  0  0  0
   56.8710   28.1840   45.3330 N   0  0  0  0  0  0  0  0  0  0  0  0
   55.1944   30.2551   43.9707 H   0  0  0  0  0  0  0  0  0  0  0  0
   56.7058   30.5461   43.0447 H   0  0  0  0  0  0  0  0  0  0  0  0
   55.9524   28.9155   43.0447 H   0  0  0  0  0  0  0  0  0  0  0  0
   57.8299   31.4017   45.0370 H   0  0  0  0  0  0  0  0  0  0  0  0
   61.4000   32.1743   46.5716 H   0  0  0  0  0  0  0  0  0  0  0  0
   61.5576   34.6210   46.1569 H   0  0  0  0  0  0  0  0  0  0  0  0
   59.5015   36.0332   46.2390 H   0  0  0  0  0  0  0  0  0  0  0  0
   58.2721   22.6742   44.6284 H   0  0  0  0  0  0  0  0  0  0  0  0
   59.0082   24.5969   45.9947 H   0  0  0  0  0  0  0  0  0  0  0  0
   58.9390   28.4710   47.8250 H   0  0  0  0  0  0  0  0  0  0  0  0
   57.1246   32.5455   47.1595 H   0  0  0  0  0  0  0  0  0  0  0  0
   57.3367   34.9657   46.7399 H   0  0  0  0  0  0  0  0  0  0  0  0
   55.8760   22.5077   43.9819 H   0  0  0  0  0  0  0  0  0  0  0  0
   54.2363   24.2271   44.6771 H   0  0  0  0  0  0  0  0  0  0  0  0
   54.7440   26.7020   47.1220 H   0  0  0  0  0  0  0  0  0  0  0  0
   56.2440   27.4590   44.8780 H   0  0  0  0  0  0  0  0  0  0  0  0
  1  2  1  0
  2  3  2  0
  3  4  1  0
  4  5  2  0
  5  6  1  0
  6  7  2  0
  7  8  1  0
  8  9  2  0
  9 10  1  0
 10 11  2  0
  4 12  1  0
 12 13  1  0
 13 14  2  0
 14 15  1  0
 15 16  2  0
 16 17  1  0
 17 18  2  0
 18 19  1  0
 19 20  2  0
 20 21  1  0
 13 22  1  0
 22  2  1  0
 11  6  1  0
 20 15  1  0
  1 23  1  0
  1 24  1  0
  1 25  1  0
  3 26  1  0
  7 27  1  0
  8 28  1  0
  9 29  1  0
 10 30  1  0
 11 31  1  0
 12 32  1  0
 16 33  1  0
 17 34  1  0
 18 35  1  0
 19 36  1  0
 21 37  1  0
 22 38  1  0
M  END
>  <smiles>  (4) 
Cc1cc(=Nc2ccccc2)[nH]c(=Nc2ccccc2O)[nH]1

>  <score_type>  (4) 
oracle

>  <origin>  (4) 
adg

>  <m_score__min__energy>  (4) 
-8.9299999999999997

>  <m_primary>  (4) 
energy

$$$$
4:0
     RDKit          3D

 56 58  0  0  0  0  0  0  0  0999 V2000
   58.7630   34.6080   53.2670 C   0  0  0  0  0  0  0  0  0  0  0  0
   58.4350   34.0500   51.9990 O   0  0  0  0  0  0  0  0  0  0  0  0
   59.3170   33.2870   51.2170 C   0  0  0  0  0  0  0  0  0  0  0  0
   60.7100   33.4950   51.2290 C   0  0  0  0  0  0  0  0  0  0  0  0
   61.5460   32.7120   50.4270 C   0  0  0  0  0  0  0  0  0  0  0  0
   61.0050   31.7210   49.5930 C   0  0  0  0  0  0  0  0  0  0  0  0
   61.9060   30.8640   48.7480 C   0  0  0  0  0  0  0  0  0  0  0  0
   61.1370   30.2780   47.6070 C   0  0  0  0  0  0  0  0  0  0  0  0
   61.0830   30.8340   46.3810 N   0  0  0  0  0  0  0  0  0  0  0  0
   60.3620   30.0140   45.6790 O   0  0  0  0  0  0  0  0  0  0  0  0
   59.9970   28.9990   46.4250 C   0  0  0  0  0  0  0  0  0  0  0  0
   59.1380   27.8690   45.9480 C   0  0  0  0  0  0  0  0  0  0  0  0
   57.8140   27.7940   46.7200 C   0  0  0  0  0  0  0  0  0  0  0  0
   56.6430   27.5290   45.8070 C   0  0  0  0  0  0  0  0  0  0  0  0
   56.2400   26.3460   45.6480 O   0  0  0  0  0  0  0  0  0  0  0  0
   55.9220   28.5940   45.1760 N   0  0  0  0  0  0  0  0  0  0  0  0
   56.4970   29.6930   44.4550 C   0  0  0  0  0  0  0  0  0  0  0  0
   56.4650   29.7460   43.0520 C   0  0  0  0  0  0  0  0  0  0  0  0
   57.0090   30.8420   42.3800 C   0  0  0  0  0  0  0  0  0  0  0  0
   57.5660   31.9020   43.1000 C   0  0  0  0  0  0  0  0  0  0  0  0
   57.5710   31.8840   44.5070 C   0  0  0  0  0  0  0  0  0  0  0  0
   58.1570   33.0190   45.2620 C   0  0  0  0  0  0  0  0  0  0  0  0
   57.4520   34.0400   45.4910 O   0  0  0  0  0  0  0  0  0  0  0  0
   59.5080   32.9640   45.7510 N   0  0  0  0  0  0  0  0  0  0  0  0
   60.1570   34.1100   46.3940 C   0  0  0  0  0  0  0  0  0  0  0  0
   61.6320   33.7900   46.6550 C   0  0  0  0  0  0  0  0  0  0  0  0
   59.4340   34.4490   47.7000 C   0  0  0  0  0  0  0  0  0  0  0  0
   57.0320   30.7680   45.1750 C   0  0  0  0  0  0  0  0  0  0  0  0
   60.4700   29.1070   47.6810 N   0  0  0  0  0  0  0  0  0  0  0  0
   59.6180   31.5040   49.5940 C   0  0  0  0  0  0  0  0  0  0  0  0
   58.7830   32.2860   50.3970 C   0  0  0  0  0  0  0  0  0  0  0  0
   58.3794   33.9554   54.0651 H   0  0  0  0  0  0  0  0  0  0  0  0
   59.8558   34.6947   53.3578 H   0  0  0  0  0  0  0  0  0  0  0  0
   58.3072   35.6050   53.3578 H   0  0  0  0  0  0  0  0  0  0  0  0
   61.1418   34.2763   51.8717 H   0  0  0  0  0  0  0  0  0  0  0  0
   62.6338   32.8736   50.4498 H   0  0  0  0  0  0  0  0  0  0  0  0
   62.7287   31.4790   48.3544 H   0  0  0  0  0  0  0  0  0  0  0  0
   62.3103   30.0486   49.3659 H   0  0  0  0  0  0  0  0  0  0  0  0
   58.9195   28.0143   44.8798 H   0  0  0  0  0  0  0  0  0  0  0  0
   59.6850   26.9295   46.1156 H   0  0  0  0  0  0  0  0  0  0  0  0
   57.8792   26.9820   47.4591 H   0  0  0  0  0  0  0  0  0  0  0  0
   57.6504   28.7651   47.2100 H   0  0  0  0  0  0  0  0  0  0  0  0
   56.0105   28.9225   42.4816 H   0  0  0  0  0  0  0  0  0  0  0  0
   56.9991   30.8712   41.2804 H   0  0  0  0  0  0  0  0  0  0  0  0
   58.0037   32.7566   42.5632 H   0  0  0  0  0  0  0  0  0  0  0  0
   59.9800   32.0350   45.8220 H   0  0  0  0  0  0  0  0  0  0  0  0
   60.1026   34.9847   45.7292 H   0  0  0  0  0  0  0  0  0  0  0  0
   61.8124   33.7509   47.7394 H   0  0  0  0  0  0  0  0  0  0  0  0
   61.8810   32.8169   46.2065 H   0  0  0  0  0  0  0  0  0  0  0  0
   62.2619   34.5724   46.2065 H   0  0  0  0  0  0  0  0  0  0  0  0
   60.0619   34.1546   48.5538 H   0  0  0  0  0  0  0  0  0  0  0  0
   59.2415   35.5312   47.7423 H   0  0  0  0  0  0  0  0  0  0  0  0
   58.4790   33.9048   47.7423 H   0  0  0  0  0  0  0  0  0  0  0  0
   57.0312   30.7404   46.2747 H   0  0  0  0  0  0  0  0  0  0  0  0
   59.1866   30.7152   48.9602 H   0  0  0  0  0  0  0  0  0  0  0  0
   57.6967   32.1133   50.3845 H   0  0  0  0  0  0  0  0  0  0  0  0
  1  2  1  0
  2  3  1  0
  3  4  2  0
  4  5  1  0
  5  6  2  0
  6  7  1  0
  7  8  1  0
  8  9  2  0
  9 10  1  0
 10 11  1  0
 11 12  1  0
 12 13  1  0
 13 14  1  0
 14 15  2  0
 14 16  1  0
 16 17  1  0
 17 18  2  0
 18 19  1  0
 19 20  2  0
 20 21  1  0
 21 22  1  0
 22 23  2  0
 22 24  1  0
 24 25  1  0
 25 26  1  0
 25 27  1  0
 21 28  2  0
 11 29  2  0
  6 30  1  0
 30 31  2  0
 31  3  1  0
 29  8  1  0
 28 17  1  0
  1 32  1  0
  1 33  1  0
  1 34  1  0
  4 35  1  0
  5 36  1  0
  7 37  1  0
  7 38  1  0
 12 39  1  0
 12 40  1  0
 13 41  1  0
 13 42  1  0
 18 43  1  0
 19 44  1  0
 20 45  1  0
 24 46  1  0
 25 47  1  0
 26 48  1  0
 26 49  1  0
 26 50  1  0
 27 51  1  0
 27 52  1  0
 27 53  1  0
 28 54  1  0
 30 55  1  0
 31 56  1  0
M  CHG  1  16  -1
M  END
>  <UniqueID>  (5) 
4

>  <SMILES>  (5) 
COc1ccc(Cc2noc(CCC(=O)[N-]c3cccc(C(=O)NC(C)C)c3)n2)cc1

>  <Energy>  (5) 
86.90165012007802

>  <Genealogy>  (5) 
COc1ccc(Cc2noc(CCC(=O)[N-]c3cccc(C(=O)NC(C)C)c3)n2)cc1 (protonated)
COc1ccc(Cc2noc(CCC(=O)[N-]c3cccc(C(=O)NC(C)C)c3)n2)cc1 (3D coordinates assigned)
COc1ccc(Cc2noc(CCC(=O)[N-]c3cccc(C(=O)NC(C)C)c3)n2)cc1 (optimized conformer: 86.90165012007802 kcal/mol)

>  <smiles>  (5) 
COc1ccc(Cc2noc(CCC(=O)Nc3cccc(C(=O)NC(C)C)c3)n2)cc1

>  <score_type>  (5) 
oracle

>  <origin>  (5) 
adg

>  <m_score__min__energy>  (5) 
-11.220000000000001

>  <m_primary>  (5) 
energy

$$$$
5:0
     RDKit          3D

 86 91  0  0  0  0  0  0  0  0999 V2000
   60.9499   30.2449   52.0901 H   0  0  0  0  0  0  0  0  0  0  0  0
   60.5550   30.3420   51.0680 C   0  0  0  0  0  0  0  0  0  0  0  0
   60.0030   31.5090   50.6550 N   0  0  0  0  0  0  0  0  0  0  0  0
   59.4890   31.6700   49.4060 C   0  0  0  0  0  0  0  0  0  0  0  0
   58.9770   32.8160   49.0620 N   0  0  0  0  0  0  0  0  0  0  0  0
   58.9920   33.3650   47.7370 C   0  0  0  0  0  0  0  0  0  0  0  0
   57.7700   33.6530   47.1140 C   0  0  0  0  0  0  0  0  0  0  0  0
   56.8275   33.4775   47.6534 H   0  0  0  0  0  0  0  0  0  0  0  0
   57.7400   34.1610   45.8140 C   0  0  0  0  0  0  0  0  0  0  0  0
   56.7758   34.3736   45.3291 H   0  0  0  0  0  0  0  0  0  0  0  0
   58.9310   34.3990   45.1300 C   0  0  0  0  0  0  0  0  0  0  0  0
   58.9051   34.7874   44.1012 H   0  0  0  0  0  0  0  0  0  0  0  0
   60.1580   34.1450   45.7490 C   0  0  0  0  0  0  0  0  0  0  0  0
   61.0946   34.3402   45.2062 H   0  0  0  0  0  0  0  0  0  0  0  0
   60.2030   33.6420   47.0600 C   0  0  0  0  0  0  0  0  0  0  0  0
   61.4790   33.4710   47.7060 N   0  0  0  0  0  0  0  0  0  0  0  0
   62.4000   32.4230   47.2450 C   0  0  0  0  0  0  0  0  0  0  0  0
   61.8323   31.4987   47.0620 H   0  0  0  0  0  0  0  0  0  0  0  0
   62.8862   32.7628   46.3187 H   0  0  0  0  0  0  0  0  0  0  0  0
   63.4780   32.1500   48.2930 C   0  0  0  0  0  0  0  0  0  0  0  0
   63.9846   31.2012   48.0623 H   0  0  0  0  0  0  0  0  0  0  0  0
   64.2169   32.9649   48.2868 H   0  0  0  0  0  0  0  0  0  0  0  0
   62.8450   32.0620   49.6220 N   0  0  0  0  0  0  0  0  0  0  0  0
   63.7310   31.4690   50.6460 C   0  0  0  0  0  0  0  0  0  0  0  0
   63.2675   31.6123   51.6332 H   0  0  0  0  0  0  0  0  0  0  0  0
   63.8520   30.4052   50.3937 H   0  0  0  0  0  0  0  0  0  0  0  0
   65.1080   32.0790   50.6720 C   0  0  0  0  0  0  0  0  0  0  0  0
   66.2080   31.4280   50.3690 O   0  0  0  0  0  0  0  0  0  0  0  0
   67.2270   32.2450   50.5030 C   0  0  0  0  0  0  0  0  0  0  0  0
   68.2789   31.9807   50.3193 H   0  0  0  0  0  0  0  0  0  0  0  0
   66.7790   33.4850   50.9090 C   0  0  0  0  0  0  0  0  0  0  0  0
   67.3919   34.3776   51.1028 H   0  0  0  0  0  0  0  0  0  0  0  0
   65.4100   33.3810   51.0230 C   0  0  0  0  0  0  0  0  0  0  0  0
   64.7056   34.1685   51.3290 H   0  0  0  0  0  0  0  0  0  0  0  0
   62.2150   33.3300   50.0660 C   0  0  0  0  0  0  0  0  0  0  0  0
   61.3110   33.0870   50.6438 H   0  0  0  0  0  0  0  0  0  0  0  0
   62.9600   33.8699   50.6688 H   0  0  0  0  0  0  0  0  0  0  0  0
   61.8160   34.2540   48.9000 C   0  0  0  0  0  0  0  0  0  0  0  0
   60.9422   34.8526   49.1971 H   0  0  0  0  0  0  0  0  0  0  0  0
   62.6669   34.9096   48.6629 H   0  0  0  0  0  0  0  0  0  0  0  0
   59.5410   30.5750   48.5010 C   0  0  0  0  0  0  0  0  0  0  0  0
   59.0580   30.5970   47.2870 N   0  0  0  0  0  0  0  0  0  0  0  0
   58.3920   29.5290   46.5430 C   0  0  0  0  0  0  0  0  0  0  0  0
   58.7605   28.5546   46.8963 H   0  0  0  0  0  0  0  0  0  0  0  0
   57.3063   29.5989   46.7055 H   0  0  0  0  0  0  0  0  0  0  0  0
   58.6880   29.6710   45.0370 C   0  0  0  0  0  0  0  0  0  0  0  0
   59.7440   29.4002   44.8905 H   0  0  0  0  0  0  0  0  0  0  0  0
   57.8260   28.7050   44.1860 C   0  0  0  0  0  0  0  0  0  0  0  0
   58.4393   28.3187   43.3586 H   0  0  0  0  0  0  0  0  0  0  0  0
   57.4816   27.8926   44.8428 H   0  0  0  0  0  0  0  0  0  0  0  0
   56.5830   29.3970   43.6000 C   0  0  0  0  0  0  0  0  0  0  0  0
   56.8499   29.8718   42.6443 H   0  0  0  0  0  0  0  0  0  0  0  0
   55.7973   28.6433   43.4429 H   0  0  0  0  0  0  0  0  0  0  0  0
   56.0990   30.3830   44.4900 O   0  0  0  0  0  0  0  0  0  0  0  0
   56.9770   31.4990   44.5180 C   0  0  0  0  0  0  0  0  0  0  0  0
   56.8009   32.0995   43.6134 H   0  0  0  0  0  0  0  0  0  0  0  0
   56.7584   32.0507   45.4442 H   0  0  0  0  0  0  0  0  0  0  0  0
   58.4780   31.1230   44.5670 C   0  0  0  0  0  0  0  0  0  0  0  0
   58.9069   31.2372   43.5605 H   0  0  0  0  0  0  0  0  0  0  0  0
   58.9749   31.7908   45.2861 H   0  0  0  0  0  0  0  0  0  0  0  0
   60.1080   29.4150   48.9310 N   0  0  0  0  0  0  0  0  0  0  0  0
   60.6170   29.2640   50.1820 C   0  0  0  0  0  0  0  0  0  0  0  0
   61.1710   27.9600   50.5960 C   0  0  0  0  0  0  0  0  0  0  0  0
   61.0240   26.9490   49.8570 O   0  0  0  0  0  0  0  0  0  0  0  0
   61.9050   27.8430   51.8220 N   0  0  0  0  0  0  0  0  0  0  0  0
   61.7320   28.5360   52.5830 H   0  0  0  0  0  0  0  0  0  0  0  0
   63.0550   26.9490   51.9510 C   0  0  0  0  0  0  0  0  0  0  0  0
   63.3743   26.6224   50.9503 H   0  0  0  0  0  0  0  0  0  0  0  0
   62.7642   26.0787   52.5577 H   0  0  0  0  0  0  0  0  0  0  0  0
   64.2250   27.6750   52.6460 C   0  0  2  0  0  0  0  0  0  0  0  0
   63.9464   28.7363   52.7235 H   0  0  0  0  0  0  0  0  0  0  0  0
   65.5060   27.6000   51.8320 C   0  0  0  0  0  0  0  0  0  0  0  0
   66.3050   28.7430   51.6260 C   0  0  0  0  0  0  0  0  0  0  0  0
   65.9824   29.7158   52.0256 H   0  0  0  0  0  0  0  0  0  0  0  0
   67.5040   28.6460   50.9170 C   0  0  0  0  0  0  0  0  0  0  0  0
   68.1305   29.5388   50.7738 H   0  0  0  0  0  0  0  0  0  0  0  0
   67.9100   27.4180   50.3890 C   0  0  0  0  0  0  0  0  0  0  0  0
   68.8515   27.3466   49.8247 H   0  0  0  0  0  0  0  0  0  0  0  0
   67.1220   26.2820   50.5770 C   0  0  0  0  0  0  0  0  0  0  0  0
   67.4414   25.3165   50.1577 H   0  0  0  0  0  0  0  0  0  0  0  0
   65.9280   26.3690   51.2970 C   0  0  0  0  0  0  0  0  0  0  0  0
   65.3136   25.4690   51.4467 H   0  0  0  0  0  0  0  0  0  0  0  0
   64.4490   27.1260   54.0590 C   0  0  0  0  0  0  0  0  0  0  0  0
   64.1413   27.8801   54.7984 H   0  0  0  0  0  0  0  0  0  0  0  0
   63.8516   26.2126   54.1965 H   0  0  0  0  0  0  0  0  0  0  0  0
   65.5148   26.8912   54.1965 H   0  0  0  0  0  0  0  0  0  0  0  0
  1  2  1  0
  2  3  1  0
  3  4  1  0
  4  5  2  0
  5  6  1  0
  6  7  2  0
  7  8  1  0
  7  9  1  0
  9 10  1  0
  9 11  2  0
 11 12  1  0
 11 13  1  0
 13 14  1  0
 13 15  2  0
 15 16  1  0
 16 17  1  0
 17 18  1  0
 17 19  1  0
 17 20  1  0
 20 21  1  0
 20 22  1  0
 20 23  1  0
 23 24  1  0
 24 25  1  0
 24 26  1  0
 24 27  1  0
 27 28  1  0
 28 29  1  0
 29 30  1  0
 29 31  2  0
 31 32  1  0
 31 33  1  0
 33 34  1  0
 23 35  1  0
 35 36  1  0
 35 37  1  0
 35 38  1  0
 38 39  1  0
 38 40  1  0
  4 41  1  0
 41 42  2  3
 42 43  1  0
 43 44  1  0
 43 45  1  0
 43 46  1  0
 46 47  1  0
 46 48  1  0
 48 49  1  0
 48 50  1  0
 48 51  1  0
 51 52  1  0
 51 53  1  0
 51 54  1  0
 54 55  1  0
 55 56  1  0
 55 57  1  0
 55 58  1  0
 58 59  1  0
 58 60  1  0
 41 61  1  0
 61 62  1  0
 62 63  1  0
 63 64  2  0
 63 65  1  0
 65 66  1  0
 65 67  1  0
 67 68  1  0
 67 69  1  0
 67 70  1  0
 70 71  1  1
 70 72  1  0
 72 73  2  0
 73 74  1  0
 73 75  1  0
 75 76  1  0
 75 77  2  0
 77 78  1  0
 77 79  1  0
 79 80  1  0
 79 81  2  0
 81 82  1  0
 70 83  1  0
 83 84  1  0
 83 85  1  0
 83 86  1  0
 62  2  2  0
 81 72  1  0
 15  6  1  0
 38 16  1  0
 58 46  1  0
 33 27  2  0
M  CHG  2   3  -1  61  -1
M  END
>  <UniqueID>  (6) 
5

>  <SMILES>  (6) 
C[C@H](CNC(=O)c1c[n-]/c(=N\c2ccccc2N2CCN(Cc3ccco3)CC2)c(=NCC2CCOCC2)[n-]1)c1ccccc1

>  <Energy>  (6) 
139.77125892079872

>  <Genealogy>  (6) 
CC(CNC(=O)c1c[n-]c(=Nc2ccccc2N2CCN(Cc3ccco3)CC2)c(=NCC2CCOCC2)[n-]1)c1ccccc1 (protonated)
C[C@H](CNC(=O)c1c[n-]c(=Nc2ccccc2N2CCN(Cc3ccco3)CC2)c(=NCC2CCOCC2)[n-]1)c1ccccc1 (chirality)
C[C@H](CNC(=O)c1c[n-]/c(=N\c2ccccc2N2CCN(Cc3ccco3)CC2)c(=NCC2CCOCC2)[n-]1)c1ccccc1 (cis-trans isomerization)
C[C@H](CNC(=O)c1c[n-]/c(=N\c2ccccc2N2CCN(Cc3ccco3)CC2)c(=NCC2CCOCC2)[n-]1)c1ccccc1 (3D coordinates assigned)
C[C@H](CNC(=O)c1c[n-]/c(=N\c2ccccc2N2CCN(Cc3ccco3)CC2)c(=NCC2CCOCC2)[n-]1)c1ccccc1 (nonaromatic ring conformer: 139.77125892079872 kcal/mol)

>  <smiles>  (6) 
CC(CNC(=O)c1c[nH]c(=Nc2ccccc2N2CCN(Cc3ccco3)CC2)c(=NCC2CCOCC2)[nH]1)c1ccccc1

>  <score_type>  (6) 
oracle

>  <origin>  (6) 
adg

>  <m_score__min__energy>  (6) 
-12.869999999999999

>  <m_primary>  (6) 
energy

$$$$
6:0
     RDKit          3D

 48 51  0  0  0  0  0  0  0  0999 V2000
   53.8290   24.1630   45.2830 C   0  0  0  0  0  0  0  0  0  0  0  0
   54.5270   25.3580   45.6140 O   0  0  0  0  0  0  0  0  0  0  0  0
   55.8820   25.4050   45.9750 C   0  0  0  0  0  0  0  0  0  0  0  0
   56.5870   24.2820   46.4720 C   0  0  0  0  0  0  0  0  0  0  0  0
   57.9530   24.3860   46.8190 C   0  0  0  0  0  0  0  0  0  0  0  0
   58.6380   25.6050   46.6770 C   0  0  0  0  0  0  0  0  0  0  0  0
   57.9230   26.6950   46.1880 C   0  0  0  0  0  0  0  0  0  0  0  0
   56.5880   26.6030   45.8450 C   0  0  0  0  0  0  0  0  0  0  0  0
   56.1130   27.7870   45.3930 N   0  0  0  0  0  0  0  0  0  0  0  0
   57.1680   28.6290   45.4560 C   0  0  0  0  0  0  0  0  0  0  0  0
   57.1900   29.9740   45.0920 C   0  0  0  0  0  0  0  0  0  0  0  0
   58.4050   30.6890   45.2330 C   0  0  0  0  0  0  0  0  0  0  0  0
   58.4940   32.1220   44.8650 C   0  0  0  0  0  0  0  0  0  0  0  0
   58.3550   32.4560   43.6570 O   0  0  0  0  0  0  0  0  0  0  0  0
   58.7600   33.1300   45.8550 N   0  0  0  0  0  0  0  0  0  0  0  0
   58.8900   34.5480   45.5160 C   0  0  0  0  0  0  0  0  0  0  0  0
   59.5660   35.3300   46.6490 C   0  0  0  0  0  0  0  0  0  0  0  0
   60.7380   34.5710   47.2180 C   0  0  0  0  0  0  0  0  0  0  0  0
   61.7280   34.0560   46.3670 C   0  0  0  0  0  0  0  0  0  0  0  0
   62.8340   33.3860   46.8970 C   0  0  0  0  0  0  0  0  0  0  0  0
   62.9680   33.2300   48.2830 C   0  0  0  0  0  0  0  0  0  0  0  0
   64.1020   32.5460   48.8250 N   0  0  0  0  0  0  0  0  0  0  0  0
   61.9860   33.7530   49.1370 C   0  0  0  0  0  0  0  0  0  0  0  0
   60.8790   34.4220   48.6070 C   0  0  0  0  0  0  0  0  0  0  0  0
   59.5580   30.0160   45.7200 C   0  0  0  0  0  0  0  0  0  0  0  0
   59.5080   28.6590   46.0800 C   0  0  0  0  0  0  0  0  0  0  0  0
   58.2930   27.9960   45.9360 C   0  0  0  0  0  0  0  0  0  0  0  0
   53.5275   23.6468   46.2064 H   0  0  0  0  0  0  0  0  0  0  0  0
   52.9344   24.4122   44.6934 H   0  0  0  0  0  0  0  0  0  0  0  0
   54.4855   23.5062   44.6934 H   0  0  0  0  0  0  0  0  0  0  0  0
   56.0667   23.3199   46.5890 H   0  0  0  0  0  0  0  0  0  0  0  0
   58.4855   23.5039   47.2041 H   0  0  0  0  0  0  0  0  0  0  0  0
   59.7016   25.6947   46.9429 H   0  0  0  0  0  0  0  0  0  0  0  0
   55.1460   28.0030   45.0660 H   0  0  0  0  0  0  0  0  0  0  0  0
   56.2867   30.4682   44.7049 H   0  0  0  0  0  0  0  0  0  0  0  0
   58.9180   32.8580   46.8500 H   0  0  0  0  0  0  0  0  0  0  0  0
   59.4954   34.6444   44.6027 H   0  0  0  0  0  0  0  0  0  0  0  0
   57.8830   34.9623   45.3597 H   0  0  0  0  0  0  0  0  0  0  0  0
   59.9207   36.2943   46.2563 H   0  0  0  0  0  0  0  0  0  0  0  0
   58.8296   35.4826   47.4518 H   0  0  0  0  0  0  0  0  0  0  0  0
   61.6330   34.1802   45.2782 H   0  0  0  0  0  0  0  0  0  0  0  0
   63.6026   32.9794   46.2232 H   0  0  0  0  0  0  0  0  0  0  0  0
   64.1510   32.3150   49.8410 H   0  0  0  0  0  0  0  0  0  0  0  0
   64.9010   32.2670   48.2120 H   0  0  0  0  0  0  0  0  0  0  0  0
   62.0872   33.6365   50.2261 H   0  0  0  0  0  0  0  0  0  0  0  0
   60.1142   34.8340   49.2818 H   0  0  0  0  0  0  0  0  0  0  0  0
   60.5053   30.5667   45.8167 H   0  0  0  0  0  0  0  0  0  0  0  0
   60.3984   28.1386   46.4625 H   0  0  0  0  0  0  0  0  0  0  0  0
  1  2  1  0
  2  3  1  0
  3  4  2  0
  4  5  1  0
  5  6  2  0
  6  7  1  0
  7  8  2  0
  8  9  1  0
  9 10  1  0
 10 11  2  0
 11 12  1  0
 12 13  1  0
 13 14  2  0
 13 15  1  0
 15 16  1  0
 16 17  1  0
 17 18  1  0
 18 19  2  0
 19 20  1  0
 20 21  2  0
 21 22  1  0
 21 23  1  0
 23 24  2  0
 12 25  2  0
 25 26  1  0
 26 27  2  0
  8  3  1  0
 27 10  1  0
 27  7  1  0
 24 18  1  0
  1 28  1  0
  1 29  1  0
  1 30  1  0
  4 31  1  0
  5 32  1  0
  6 33  1  0
  9 34  1  0
 11 35  1  0
 15 36  1  0
 16 37  1  0
 16 38  1  0
 17 39  1  0
 17 40  1  0
 19 41  1  0
 20 42  1  0
 22 43  1  0
 22 44  1  0
 23 45  1  0
 24 46  1  0
 25 47  1  0
 26 48  1  0
M  END
>  <UniqueID>  (7) 
6

>  <SMILES>  (7) 
COc1cccc2c1[nH]c1cc(C(=O)NCCc3ccc(N)cc3)ccc12

>  <Energy>  (7) 
88.23695786514206

>  <Genealogy>  (7) 
COc1cccc2c1[nH]c1cc(C(=O)NCCc3ccc(N)cc3)ccc12 (3D coordinates assigned)
COc1cccc2c1[nH]c1cc(C(=O)NCCc3ccc(N)cc3)ccc12 (optimized conformer: 88.23695786514206 kcal/mol)

>  <smiles>  (7) 
COc1cccc2c1[nH]c1cc(C(=O)NCCc3ccc(N)cc3)ccc12

>  <score_type>  (7) 
oracle

>  <origin>  (7) 
adg

>  <m_score__min__energy>  (7) 
-9.0500000000000007

>  <m_primary>  (7) 
energy

$$$$
7:0
     RDKit          3D

 27 28  0  0  0  0  0  0  0  0999 V2000
   54.7050   27.0810   46.7640 H   0  0  0  0  0  0  0  0  0  0  0  0
   55.1510   26.5420   45.9890 N   0  0  0  0  0  0  0  0  0  0  0  0
   56.7870   27.0890   45.8740 S   0  0  0  0  0  0  0  0  0  0  0  0
   57.4500   26.9940   47.2190 O   0  0  0  0  0  0  0  0  0  0  0  0
   57.5270   26.2230   44.8930 O   0  0  0  0  0  0  0  0  0  0  0  0
   56.8130   28.7510   45.3230 C   0  0  0  0  0  0  0  0  0  0  0  0
   55.7180   29.4140   44.8920 N   0  0  0  0  0  0  0  0  0  0  0  0
   55.9770   30.6670   44.5240 N   0  0  0  0  0  0  0  0  0  0  0  0
   57.2800   30.9950   44.6650 C   0  0  0  0  0  0  0  0  0  0  0  0
   57.7720   32.1570   44.3690 N   0  0  0  0  0  0  0  0  0  0  0  0
   58.1680   33.3500   45.5640 S   0  0  0  0  0  0  0  0  0  0  0  0
   58.0830   34.7160   44.9420 O   0  0  0  0  0  0  0  0  0  0  0  0
   57.1810   33.2670   46.6940 O   0  0  0  0  0  0  0  0  0  0  0  0
   59.7840   33.0470   46.1930 C   0  0  0  0  0  0  0  0  0  0  0  0
   60.7460   34.0640   46.1500 C   0  0  0  0  0  0  0  0  0  0  0  0
   60.4900   35.0429   45.7184 H   0  0  0  0  0  0  0  0  0  0  0  0
   62.0310   33.8390   46.6540 C   0  0  0  0  0  0  0  0  0  0  0  0
   62.7828   34.6411   46.6163 H   0  0  0  0  0  0  0  0  0  0  0  0
   62.3640   32.5950   47.2070 C   0  0  0  0  0  0  0  0  0  0  0  0
   63.6780   32.3640   47.7220 N   0  0  0  0  0  0  0  0  0  0  0  0
   64.5200   32.4880   47.1160 H   0  0  0  0  0  0  0  0  0  0  0  0
   63.8200   32.0710   48.7140 H   0  0  0  0  0  0  0  0  0  0  0  0
   61.4000   31.5770   47.2510 C   0  0  0  0  0  0  0  0  0  0  0  0
   61.6559   30.5982   47.6828 H   0  0  0  0  0  0  0  0  0  0  0  0
   60.1150   31.8020   46.7480 C   0  0  0  0  0  0  0  0  0  0  0  0
   59.3621   31.0011   46.7876 H   0  0  0  0  0  0  0  0  0  0  0  0
   58.1940   29.7170   45.2660 S   0  0  0  0  0  0  0  0  0  0  0  0
  1  2  1  0
  2  3  1  0
  3  4  2  0
  3  5  2  0
  3  6  1  0
  6  7  2  0
  7  8  1  0
  8  9  1  0
  9 10  2  0
 10 11  1  0
 11 12  2  0
 11 13  2  0
 11 14  1  0
 14 15  2  0
 15 16  1  0
 15 17  1  0
 17 18  1  0
 17 19  2  0
 19 20  1  0
 20 21  1  0
 20 22  1  0
 19 23  1  0
 23 24  1  0
 23 25  2  0
 25 26  1  0
  9 27  1  0
 27  6  1  0
 25 14  1  0
M  CHG  2   2  -1   8  -1
M  END
>  <UniqueID>  (8) 
7

>  <SMILES>  (8) 
[NH-]S(=O)(=O)c1n[n-]/c(=N\S(=O)(=O)c2ccc(N)cc2)s1

>  <Energy>  (8) 
63.17807344479278

>  <Genealogy>  (8) 
[NH-]S(=O)(=O)c1n[n-]c(=NS(=O)(=O)c2ccc(N)cc2)s1 (protonated)
[NH-]S(=O)(=O)c1n[n-]/c(=N\S(=O)(=O)c2ccc(N)cc2)s1 (cis-trans isomerization)
[NH-]S(=O)(=O)c1n[n-]/c(=N\S(=O)(=O)c2ccc(N)cc2)s1 (3D coordinates assigned)
[NH-]S(=O)(=O)c1n[n-]/c(=N\S(=O)(=O)c2ccc(N)cc2)s1 (optimized conformer: 63.17807344479278 kcal/mol)

>  <smiles>  (8) 
Nc1ccc(S(=O)(=O)N=c2[nH]nc(S(N)(=O)=O)s2)cc1

>  <score_type>  (8) 
oracle

>  <origin>  (8) 
adg

>  <m_score__min__energy>  (8) 
-12.49

>  <m_primary>  (8) 
energy

$$$$
8:0
     RDKit          3D

 33 34  0  0  0  0  0  0  0  0999 V2000
   61.3810   30.6302   45.5357 H   0  0  0  0  0  0  0  0  0  0  0  0
   60.6260   30.0860   46.1220 C   0  0  0  0  0  0  0  0  0  0  0  0
   60.2850   28.8900   45.7320 N   0  0  0  0  0  0  0  0  0  0  0  0
   58.9750   28.3030   45.7860 C   0  0  0  0  0  0  0  0  0  0  0  0
   58.7460   27.0640   46.4090 C   0  0  0  0  0  0  0  0  0  0  0  0
   59.5866   26.5104   46.8527 H   0  0  0  0  0  0  0  0  0  0  0  0
   57.4560   26.5330   46.4670 C   0  0  0  0  0  0  0  0  0  0  0  0
   57.2860   25.5546   46.9402 H   0  0  0  0  0  0  0  0  0  0  0  0
   56.3800   27.2420   45.9250 C   0  0  0  0  0  0  0  0  0  0  0  0
   55.1010   26.7010   45.9880 O   0  0  0  0  0  0  0  0  0  0  0  0
   56.5840   28.4940   45.3290 C   0  0  0  0  0  0  0  0  0  0  0  0
   55.4750   29.1780   44.8070 O   0  0  0  0  0  0  0  0  0  0  0  0
   55.5310   30.0890   43.7140 C   0  0  0  0  0  0  0  0  0  0  0  0
   55.5943   31.1181   44.0973 H   0  0  0  0  0  0  0  0  0  0  0  0
   56.4175   29.8712   43.1002 H   0  0  0  0  0  0  0  0  0  0  0  0
   54.6245   29.9814   43.1002 H   0  0  0  0  0  0  0  0  0  0  0  0
   57.8890   29.0250   45.2730 C   0  0  0  0  0  0  0  0  0  0  0  0
   58.0561   30.0146   44.8227 H   0  0  0  0  0  0  0  0  0  0  0  0
   60.0500   30.7500   47.3130 C   0  0  0  0  0  0  0  0  0  0  0  0
   60.5020   30.3540   48.5820 C   0  0  0  0  0  0  0  0  0  0  0  0
   61.2854   29.5862   48.6647 H   0  0  0  0  0  0  0  0  0  0  0  0
   59.9700   30.9220   49.7380 C   0  0  0  0  0  0  0  0  0  0  0  0
   60.3353   30.5972   50.7234 H   0  0  0  0  0  0  0  0  0  0  0  0
   58.9730   31.9040   49.6550 C   0  0  0  0  0  0  0  0  0  0  0  0
   58.4220   32.4840   50.8520 N   0  0  0  0  0  0  0  0  0  0  0  0
   58.8980   33.5360   51.3280 O   0  0  0  0  0  0  0  0  0  0  0  0
   57.3580   31.8900   51.4910 O   0  0  0  0  0  0  0  0  0  0  0  0
   58.5230   32.3100   48.3870 C   0  0  0  0  0  0  0  0  0  0  0  0
   57.7385   33.0777   48.3140 H   0  0  0  0  0  0  0  0  0  0  0  0
   59.0560   31.7540   47.2080 C   0  0  0  0  0  0  0  0  0  0  0  0
   58.5370   32.1830   45.9340 N   0  0  0  0  0  0  0  0  0  0  0  0
   57.4050   31.8090   45.5610 O   0  0  0  0  0  0  0  0  0  0  0  0
   59.2070   33.1090   45.1690 O   0  0  0  0  0  0  0  0  0  0  0  0
  1  2  1  0
  2  3  2  0
  3  4  1  0
  4  5  2  0
  5  6  1  0
  5  7  1  0
  7  8  1  0
  7  9  2  0
  9 10  1  0
  9 11  1  0
 11 12  1  0
 12 13  1  0
 13 14  1  0
 13 15  1  0
 13 16  1  0
 11 17  2  0
 17 18  1  0
  2 19  1  0
 19 20  2  0
 20 21  1  0
 20 22  1  0
 22 23  1  0
 22 24  2  0
 24 25  1  0
 25 26  2  0
 25 27  1  0
 24 28  1  0
 28 29  1  0
 28 30  2  0
 30 31  1  0
 31 32  2  0
 31 33  1  0
 17  4  1  0
 30 19  1  0
M  CHG  5  10  -1  25   1  27  -1  31   1  33  -1
M  END
>  <UniqueID>  (9) 
8

>  <SMILES>  (9) 
COc1cc(/N=C\c2ccc([N+](=O)[O-])cc2[N+](=O)[O-])ccc1[O-]

>  <Energy>  (9) 
52.02248667334675

>  <Genealogy>  (9) 
COc1cc(N=Cc2ccc([N+](=O)[O-])cc2[N+](=O)[O-])ccc1[O-] (protonated)
COc1cc(/N=C\c2ccc([N+](=O)[O-])cc2[N+](=O)[O-])ccc1[O-] (cis-trans isomerization)
COc1cc(/N=C\c2ccc([N+](=O)[O-])cc2[N+](=O)[O-])ccc1[O-] (3D coordinates assigned)
COc1cc(/N=C\c2ccc([N+](=O)[O-])cc2[N+](=O)[O-])ccc1[O-] (optimized conformer: 52.02248667334675 kcal/mol)

>  <smiles>  (9) 
COc1cc(N=Cc2ccc([N+](=O)[O-])cc2[N+](=O)[O-])ccc1O

>  <score_type>  (9) 
oracle

>  <origin>  (9) 
adg

>  <m_score__min__energy>  (9) 
-10.81

>  <m_primary>  (9) 
energy

$$$$
9:0
     RDKit          3D

 41 43  0  0  0  0  0  0  0  0999 V2000
   54.9210   26.4030   45.8760 N   0  0  0  0  0  0  0  0  0  0  0  0
   56.2480   26.0950   46.3220 C   0  0  0  0  0  0  0  0  0  0  0  0
   56.4760   24.8620   46.9560 C   0  0  0  0  0  0  0  0  0  0  0  0
   57.7650   24.4830   47.3320 C   0  0  0  0  0  0  0  0  0  0  0  0
   58.8430   25.3280   47.0790 C   0  0  0  0  0  0  0  0  0  0  0  0
   58.6350   26.5640   46.4650 C   0  0  0  0  0  0  0  0  0  0  0  0
   57.3400   26.9730   46.0930 C   0  0  0  0  0  0  0  0  0  0  0  0
   57.1590   28.3290   45.5210 C   0  0  0  0  0  0  0  0  0  0  0  0
   56.0070   28.7230   45.1940 O   0  0  0  0  0  0  0  0  0  0  0  0
   58.2880   29.2020   45.3520 N   0  0  0  0  0  0  0  0  0  0  0  0
   58.1560   30.5500   44.8790 C   0  0  0  0  0  0  0  0  0  0  0  0
   57.8780   30.7650   43.5200 C   0  0  0  0  0  0  0  0  0  0  0  0
   57.7000   32.0600   43.0290 C   0  0  0  0  0  0  0  0  0  0  0  0
   57.3340   32.3120   41.3310 Cl  0  0  0  0  0  0  0  0  0  0  0  0
   57.8100   33.1540   43.8890 C   0  0  0  0  0  0  0  0  0  0  0  0
   58.1140   32.9570   45.2370 C   0  0  0  0  0  0  0  0  0  0  0  0
   58.2990   31.6600   45.7450 C   0  0  0  0  0  0  0  0  0  0  0  0
   58.7130   31.4970   47.1130 N   0  0  0  0  0  0  0  0  0  0  0  0
   59.7400   30.5070   47.4510 C   0  0  0  0  0  0  0  0  0  0  0  0
   60.4040   30.8720   48.7800 C   0  0  0  0  0  0  0  0  0  0  0  0
   60.6190   32.2660   48.8230 O   0  0  0  0  0  0  0  0  0  0  0  0
   59.3920   32.9560   49.0090 C   0  0  0  0  0  0  0  0  0  0  0  0
   58.2230   32.4100   48.1530 C   0  0  0  0  0  0  0  0  0  0  0  0
   54.0750   26.0460   46.3700 H   0  0  0  0  0  0  0  0  0  0  0  0
   54.7680   27.1000   45.1140 H   0  0  0  0  0  0  0  0  0  0  0  0
   55.6298   24.1888   47.1579 H   0  0  0  0  0  0  0  0  0  0  0  0
   57.9302   23.5156   47.8289 H   0  0  0  0  0  0  0  0  0  0  0  0
   59.8601   25.0206   47.3636 H   0  0  0  0  0  0  0  0  0  0  0  0
   59.4918   27.2256   46.2696 H   0  0  0  0  0  0  0  0  0  0  0  0
   59.2430   28.7790   45.3580 H   0  0  0  0  0  0  0  0  0  0  0  0
   57.7998   29.9067   42.8365 H   0  0  0  0  0  0  0  0  0  0  0  0
   57.6569   34.1729   43.5038 H   0  0  0  0  0  0  0  0  0  0  0  0
   58.2095   33.8241   45.9071 H   0  0  0  0  0  0  0  0  0  0  0  0
   59.2741   29.5143   47.5375 H   0  0  0  0  0  0  0  0  0  0  0  0
   60.5029   30.4943   46.6586 H   0  0  0  0  0  0  0  0  0  0  0  0
   59.7493   30.5747   49.6124 H   0  0  0  0  0  0  0  0  0  0  0  0
   61.3662   30.3464   48.8694 H   0  0  0  0  0  0  0  0  0  0  0  0
   59.1094   32.8783   50.0692 H   0  0  0  0  0  0  0  0  0  0  0  0
   59.5609   33.9948   48.6891 H   0  0  0  0  0  0  0  0  0  0  0  0
   57.5219   31.8688   48.8053 H   0  0  0  0  0  0  0  0  0  0  0  0
   57.7201   33.2582   47.6656 H   0  0  0  0  0  0  0  0  0  0  0  0
  1  2  1  0
  2  3  2  0
  3  4  1  0
  4  5  2  0
  5  6  1  0
  6  7  2  0
  7  8  1  0
  8  9  2  0
  8 10  1  0
 10 11  1  0
 11 12  2  0
 12 13  1  0
 13 14  1  0
 13 15  2  0
 15 16  1  0
 16 17  2  0
 17 18  1  0
 18 19  1  0
 19 20  1  0
 20 21  1  0
 21 22  1  0
 22 23  1  0
  7  2  1  0
 17 11  1  0
 23 18  1  0
  1 24  1  0
  1 25  1  0
  3 26  1  0
  4 27  1  0
  5 28  1  0
  6 29  1  0
 10 30  1  0
 12 31  1  0
 15 32  1  0
 16 33  1  0
 19 34  1  0
 19 35  1  0
 20 36  1  0
 20 37  1  0
 22 38  1  0
 22 39  1  0
 23 40  1  0
 23 41  1  0
M  END
>  <UniqueID>  (10) 
9

>  <SMILES>  (10) 
Nc1ccccc1C(=O)Nc1cc(Cl)ccc1N1CCOCC1

>  <Energy>  (10) 
63.850034725098766

>  <Genealogy>  (10) 
Nc1ccccc1C(=O)Nc1cc(Cl)ccc1N1CCOCC1 (3D coordinates assigned)
Nc1ccccc1C(=O)Nc1cc(Cl)ccc1N1CCOCC1 (nonaromatic ring conformer: 63.850034725098766 kcal/mol)

>  <smiles>  (10) 
Nc1ccccc1C(=O)Nc1cc(Cl)ccc1N1CCOCC1

>  <score_type>  (10) 
oracle

>  <origin>  (10) 
adg

>  <m_score__min__energy>  (10) 
-7.54

>  <m_primary>  (10) 
energy

$$$$
10:0
     RDKit          3D

 53 55  0  0  0  0  0  0  0  0999 V2000
   65.3670   32.6550   50.0170 C   0  0  0  0  0  0  0  0  0  0  0  0
   64.0730   31.8550   50.1090 C   0  0  0  0  0  0  0  0  0  0  0  0
   63.1830   32.1460   48.9300 C   0  0  0  0  0  0  0  0  0  0  0  0
   63.2180   33.4040   48.3090 C   0  0  0  0  0  0  0  0  0  0  0  0
   62.3860   33.6750   47.2210 C   0  0  0  0  0  0  0  0  0  0  0  0
   61.4980   32.7010   46.7580 C   0  0  0  0  0  0  0  0  0  0  0  0
   61.4200   31.4550   47.3910 C   0  0  0  0  0  0  0  0  0  0  0  0
   60.5070   30.4760   46.8760 N   0  0  0  0  0  0  0  0  0  0  0  0
   59.0800   30.4950   47.0150 C   0  0  0  0  0  0  0  0  0  0  0  0
   58.5640   30.3140   48.1520 O   0  0  0  0  0  0  0  0  0  0  0  0
   58.2370   30.7680   45.8700 N   0  0  0  0  0  0  0  0  0  0  0  0
   57.3940   31.9780   45.8310 C   0  0  0  0  0  0  0  0  0  0  0  0
   58.2170   33.2310   46.0180 C   0  0  0  0  0  0  0  0  0  0  0  0
   58.4640   33.7220   47.3130 C   0  0  0  0  0  0  0  0  0  0  0  0
   59.1750   34.9110   47.4960 C   0  0  0  0  0  0  0  0  0  0  0  0
   59.6580   35.6160   46.3910 C   0  0  0  0  0  0  0  0  0  0  0  0
   59.4410   35.1250   45.1020 C   0  0  0  0  0  0  0  0  0  0  0  0
   58.7310   33.9350   44.9110 C   0  0  0  0  0  0  0  0  0  0  0  0
   58.5390   33.4820   43.6480 F   0  0  0  0  0  0  0  0  0  0  0  0
   58.1520   29.7980   44.7610 C   0  0  0  0  0  0  0  0  0  0  0  0
   57.9450   28.3910   45.2710 C   0  0  0  0  0  0  0  0  0  0  0  0
   59.0560   27.5880   45.5720 C   0  0  0  0  0  0  0  0  0  0  0  0
   58.8810   26.3070   46.0950 C   0  0  0  0  0  0  0  0  0  0  0  0
   57.5970   25.8100   46.3230 C   0  0  0  0  0  0  0  0  0  0  0  0
   56.4690   26.5920   46.0120 C   0  0  0  0  0  0  0  0  0  0  0  0
   55.1590   26.1340   46.2290 O   0  0  0  0  0  0  0  0  0  0  0  0
   54.6040   24.9700   45.6280 C   0  0  0  0  0  0  0  0  0  0  0  0
   56.6480   27.8740   45.4710 C   0  0  0  0  0  0  0  0  0  0  0  0
   55.5300   28.6360   45.1490 O   0  0  0  0  0  0  0  0  0  0  0  0
   62.2780   31.1740   48.4700 C   0  0  0  0  0  0  0  0  0  0  0  0
   65.7316   32.8804   51.0301 H   0  0  0  0  0  0  0  0  0  0  0  0
   66.1240   32.0671   49.4773 H   0  0  0  0  0  0  0  0  0  0  0  0
   65.1794   33.5949   49.4773 H   0  0  0  0  0  0  0  0  0  0  0  0
   64.3124   30.7815   50.1245 H   0  0  0  0  0  0  0  0  0  0  0  0
   63.5447   32.1414   51.0304 H   0  0  0  0  0  0  0  0  0  0  0  0
   63.9036   34.1796   48.6809 H   0  0  0  0  0  0  0  0  0  0  0  0
   62.4298   34.6571   46.7275 H   0  0  0  0  0  0  0  0  0  0  0  0
   60.8561   32.9146   45.8906 H   0  0  0  0  0  0  0  0  0  0  0  0
   56.8837   32.0272   44.8578 H   0  0  0  0  0  0  0  0  0  0  0  0
   56.6647   31.9177   46.6523 H   0  0  0  0  0  0  0  0  0  0  0  0
   58.0949   33.1661   48.1875 H   0  0  0  0  0  0  0  0  0  0  0  0
   59.3547   35.2925   48.5120 H   0  0  0  0  0  0  0  0  0  0  0  0
   60.2088   36.5571   46.5362 H   0  0  0  0  0  0  0  0  0  0  0  0
   59.8300   35.6762   44.2332 H   0  0  0  0  0  0  0  0  0  0  0  0
   57.3072   30.0707   44.1115 H   0  0  0  0  0  0  0  0  0  0  0  0
   59.0998   29.8272   44.2034 H   0  0  0  0  0  0  0  0  0  0  0  0
   60.0715   27.9715   45.3942 H   0  0  0  0  0  0  0  0  0  0  0  0
   59.7584   25.6860   46.3287 H   0  0  0  0  0  0  0  0  0  0  0  0
   57.4662   24.8036   46.7473 H   0  0  0  0  0  0  0  0  0  0  0  0
   54.2724   24.2746   46.4131 H   0  0  0  0  0  0  0  0  0  0  0  0
   53.7445   25.2543   45.0031 H   0  0  0  0  0  0  0  0  0  0  0  0
   55.3659   24.4812   45.0031 H   0  0  0  0  0  0  0  0  0  0  0  0
   62.2403   30.1881   48.9563 H   0  0  0  0  0  0  0  0  0  0  0  0
  1  2  1  0
  2  3  1  0
  3  4  2  0
  4  5  1  0
  5  6  2  0
  6  7  1  0
  7  8  1  0
  8  9  1  0
  9 10  2  0
  9 11  1  0
 11 12  1  0
 12 13  1  0
 13 14  2  0
 14 15  1  0
 15 16  2  0
 16 17  1  0
 17 18  2  0
 18 19  1  0
 11 20  1  0
 20 21  1  0
 21 22  2  0
 22 23  1  0
 23 24  2  0
 24 25  1  0
 25 26  1  0
 26 27  1  0
 25 28  2  0
 28 29  1  0
  7 30  2  0
 30  3  1  0
 18 13  1  0
 28 21  1  0
  1 31  1  0
  1 32  1  0
  1 33  1  0
  2 34  1  0
  2 35  1  0
  4 36  1  0
  5 37  1  0
  6 38  1  0
 12 39  1  0
 12 40  1  0
 14 41  1  0
 15 42  1  0
 16 43  1  0
 17 44  1  0
 20 45  1  0
 20 46  1  0
 22 47  1  0
 23 48  1  0
 24 49  1  0
 27 50  1  0
 27 51  1  0
 27 52  1  0
 30 53  1  0
M  CHG  2   8  -1  29  -1
M  END
>  <UniqueID>  (11) 
10

>  <SMILES>  (11) 
CCc1cccc([N-]C(=O)N(Cc2ccccc2F)Cc2cccc(OC)c2[O-])c1

>  <Energy>  (11) 
52.81052668961473

>  <Genealogy>  (11) 
CCc1cccc([N-]C(=O)N(Cc2ccccc2F)Cc2cccc(OC)c2[O-])c1 (protonated)
CCc1cccc([N-]C(=O)N(Cc2ccccc2F)Cc2cccc(OC)c2[O-])c1 (3D coordinates assigned)
CCc1cccc([N-]C(=O)N(Cc2ccccc2F)Cc2cccc(OC)c2[O-])c1 (optimized conformer: 52.81052668961473 kcal/mol)

>  <smiles>  (11) 
CCc1cccc(NC(=O)N(Cc2ccccc2F)Cc2cccc(OC)c2O)c1

>  <score_type>  (11) 
oracle

>  <origin>  (11) 
adg

>  <m_score__min__energy>  (11) 
-13.199999999999999

>  <m_primary>  (11) 
energy

$$$$
11:0
     RDKit          3D

 50 51  0  0  0  0  0  0  0  0999 V2000
   54.8430   23.9050   46.2670 C   0  0  0  0  0  0  0  0  0  0  0  0
   54.4540   25.2000   45.5730 C   0  0  0  0  0  0  0  0  0  0  0  0
   55.2120   26.2780   46.1170 O   0  0  0  0  0  0  0  0  0  0  0  0
   56.5660   26.5220   45.8330 C   0  0  0  0  0  0  0  0  0  0  0  0
   57.5540   25.5290   45.9900 C   0  0  0  0  0  0  0  0  0  0  0  0
   58.8890   25.8130   45.6940 C   0  0  0  0  0  0  0  0  0  0  0  0
   59.2540   27.0830   45.2480 C   0  0  0  0  0  0  0  0  0  0  0  0
   58.2820   28.0750   45.0890 C   0  0  0  0  0  0  0  0  0  0  0  0
   56.9320   27.7950   45.3670 C   0  0  0  0  0  0  0  0  0  0  0  0
   55.9160   28.7980   45.2380 N   0  0  0  0  0  0  0  0  0  0  0  0
   55.6960   29.6610   44.1150 C   0  0  0  0  0  0  0  0  0  0  0  0
   54.6500   29.5580   43.4190 O   0  0  0  0  0  0  0  0  0  0  0  0
   56.6900   30.7390   43.8100 C   0  0  0  0  0  0  0  0  0  0  0  0
   56.7430   31.6870   44.8760 O   0  0  0  0  0  0  0  0  0  0  0  0
   57.7890   31.7500   45.8060 C   0  0  0  0  0  0  0  0  0  0  0  0
   58.5080   32.8890   45.9650 N   0  0  0  0  0  0  0  0  0  0  0  0
   59.5250   32.9480   46.8620 C   0  0  0  0  0  0  0  0  0  0  0  0
   60.2970   34.1540   47.0090 N   0  0  0  0  0  0  0  0  0  0  0  0
   61.4760   34.1620   47.8810 C   0  0  0  0  0  0  0  0  0  0  0  0
   59.8990   35.3620   46.2800 C   0  0  0  0  0  0  0  0  0  0  0  0
   59.8170   31.8490   47.6050 N   0  0  0  0  0  0  0  0  0  0  0  0
   59.1090   30.6970   47.4600 C   0  0  0  0  0  0  0  0  0  0  0  0
   59.4620   29.5400   48.2540 N   0  0  0  0  0  0  0  0  0  0  0  0
   58.8790   29.3910   49.5920 C   0  0  0  0  0  0  0  0  0  0  0  0
   60.3900   28.5250   47.7440 C   0  0  0  0  0  0  0  0  0  0  0  0
   58.0860   30.6550   46.5540 N   0  0  0  0  0  0  0  0  0  0  0  0
   54.8006   24.0461   47.3571 H   0  0  0  0  0  0  0  0  0  0  0  0
   54.1448   23.1074   45.9731 H   0  0  0  0  0  0  0  0  0  0  0  0
   55.8651   23.6242   45.9731 H   0  0  0  0  0  0  0  0  0  0  0  0
   54.6594   25.1145   44.4957 H   0  0  0  0  0  0  0  0  0  0  0  0
   53.3819   25.3911   45.7283 H   0  0  0  0  0  0  0  0  0  0  0  0
   57.2727   24.5272   46.3468 H   0  0  0  0  0  0  0  0  0  0  0  0
   59.6550   25.0326   45.8130 H   0  0  0  0  0  0  0  0  0  0  0  0
   60.3074   27.3042   45.0212 H   0  0  0  0  0  0  0  0  0  0  0  0
   58.5740   29.0783   44.7452 H   0  0  0  0  0  0  0  0  0  0  0  0
   57.6843   30.2875   43.6774 H   0  0  0  0  0  0  0  0  0  0  0  0
   56.3823   31.2562   42.8892 H   0  0  0  0  0  0  0  0  0  0  0  0
   61.1541   34.1598   48.9328 H   0  0  0  0  0  0  0  0  0  0  0  0
   62.0852   33.2680   47.6821 H   0  0  0  0  0  0  0  0  0  0  0  0
   62.0730   35.0642   47.6821 H   0  0  0  0  0  0  0  0  0  0  0  0
   59.6381   36.1540   46.9974 H   0  0  0  0  0  0  0  0  0  0  0  0
   60.7332   35.7003   45.6478 H   0  0  0  0  0  0  0  0  0  0  0  0
   59.0271   35.1382   45.6478 H   0  0  0  0  0  0  0  0  0  0  0  0
   59.6497   29.5880   50.3518 H   0  0  0  0  0  0  0  0  0  0  0  0
   58.0527   30.1068   49.7137 H   0  0  0  0  0  0  0  0  0  0  0  0
   58.4975   28.3665   49.7137 H   0  0  0  0  0  0  0  0  0  0  0  0
   60.8653   28.0051   48.5889 H   0  0  0  0  0  0  0  0  0  0  0  0
   59.8375   27.7983   47.1303 H   0  0  0  0  0  0  0  0  0  0  0  0
   61.1632   29.0104   47.1303 H   0  0  0  0  0  0  0  0  0  0  0  0
   57.5210   29.7900   46.4100 H   0  0  0  0  0  0  0  0  0  0  0  0
  1  2  1  0
  2  3  1  0
  3  4  1  0
  4  5  2  0
  5  6  1  0
  6  7  2  0
  7  8  1  0
  8  9  2  0
  9 10  1  0
 10 11  1  0
 11 12  2  0
 11 13  1  0
 13 14  1  0
 14 15  1  0
 15 16  2  0
 16 17  1  0
 17 18  1  0
 18 19  1  0
 18 20  1  0
 17 21  2  0
 21 22  1  0
 22 23  1  0
 23 24  1  0
 23 25  1  0
 22 26  2  0
  9  4  1  0
 26 15  1  0
  1 27  1  0
  1 28  1  0
  1 29  1  0
  2 30  1  0
  2 31  1  0
  5 32  1  0
  6 33  1  0
  7 34  1  0
  8 35  1  0
 13 36  1  0
 13 37  1  0
 19 38  1  0
 19 39  1  0
 19 40  1  0
 20 41  1  0
 20 42  1  0
 20 43  1  0
 24 44  1  0
 24 45  1  0
 24 46  1  0
 25 47  1  0
 25 48  1  0
 25 49  1  0
 26 50  1  0
M  CHG  2  10  -1  26   1
M  END
>  <UniqueID>  (12) 
11

>  <SMILES>  (12) 
CCOc1ccccc1[N-]C(=O)COc1nc(N(C)C)nc(N(C)C)[nH+]1

>  <Energy>  (12) 
39.514781796581644

>  <Genealogy>  (12) 
CCOc1ccccc1[N-]C(=O)COc1nc(N(C)C)nc(N(C)C)[nH+]1 (protonated)
CCOc1ccccc1[N-]C(=O)COc1nc(N(C)C)nc(N(C)C)[nH+]1 (3D coordinates assigned)
CCOc1ccccc1[N-]C(=O)COc1nc(N(C)C)nc(N(C)C)[nH+]1 (optimized conformer: 39.514781796581644 kcal/mol)

>  <smiles>  (12) 
CCOc1ccccc1NC(=O)COc1nc(N(C)C)nc(N(C)C)n1

>  <score_type>  (12) 
oracle

>  <origin>  (12) 
adg

>  <m_score__min__energy>  (12) 
-7.4699999999999998

>  <m_primary>  (12) 
energy

$$$$
12:0
     RDKit          3D

 19 20  0  0  0  0  0  0  0  0999 V2000
   58.2175   27.6696   44.4006 H   0  0  0  0  0  0  0  0  0  0  0  0
   57.4170   27.6670   45.1550 C   0  0  0  0  0  0  0  0  0  0  0  0
   56.6850   28.7280   45.3050 N   0  0  0  0  0  0  0  0  0  0  0  0
   56.9980   29.9980   44.7270 C   0  0  0  0  0  0  0  0  0  0  0  0
   57.3870   31.0810   45.4350 N   0  0  0  0  0  0  0  0  0  0  0  0
   57.6170   32.1480   44.6250 C   0  0  0  0  0  0  0  0  0  0  0  0
   57.9434   33.1239   45.0137 H   0  0  0  0  0  0  0  0  0  0  0  0
   57.4100   31.9170   43.2700 C   0  0  0  0  0  0  0  0  0  0  0  0
   57.5422   32.6517   42.4620 H   0  0  0  0  0  0  0  0  0  0  0  0
   56.9220   30.3180   43.0810 S   0  0  0  0  0  0  0  0  0  0  0  0
   57.2000   26.4480   45.9780 C   0  0  0  0  0  0  0  0  0  0  0  0
   55.9160   26.0130   46.3690 C   0  0  0  0  0  0  0  0  0  0  0  0
   54.7720   26.7120   46.0010 O   0  0  0  0  0  0  0  0  0  0  0  0
   55.7790   24.8910   47.1220 N   0  0  0  0  0  0  0  0  0  0  0  0
   56.8580   24.1680   47.5110 C   0  0  0  0  0  0  0  0  0  0  0  0
   56.6570   22.8240   48.4150 S   0  0  0  0  0  0  0  0  0  0  0  0
   58.1040   24.5620   47.1490 N   0  0  0  0  0  0  0  0  0  0  0  0
   58.3010   25.6750   46.3980 C   0  0  0  0  0  0  0  0  0  0  0  0
   59.4770   26.0030   46.0860 O   0  0  0  0  0  0  0  0  0  0  0  0
  1  2  1  0
  2  3  2  0
  3  4  1  0
  4  5  2  0
  5  6  1  0
  6  7  1  0
  6  8  2  0
  8  9  1  0
  8 10  1  0
  2 11  1  0
 11 12  2  0
 12 13  1  0
 12 14  1  0
 14 15  1  0
 15 16  2  0
 15 17  1  0
 17 18  1  0
 18 19  2  0
 10  4  1  0
 18 11  1  0
M  CHG  3  13  -1  14  -1  17  -1
M  END
>  <UniqueID>  (13) 
12

>  <SMILES>  (13) 
O=c1[n-]c(=S)[n-]c([O-])c1/C=N/c1nccs1

>  <Energy>  (13) 
53.16614177095622

>  <Genealogy>  (13) 
O=c1[n-]c(=S)[n-]c([O-])c1C=Nc1nccs1 (protonated)
O=c1[n-]c(=S)[n-]c([O-])c1/C=N/c1nccs1 (cis-trans isomerization)
O=c1[n-]c(=S)[n-]c([O-])c1/C=N/c1nccs1 (3D coordinates assigned)
O=c1[n-]c(=S)[n-]c([O-])c1/C=N/c1nccs1 (optimized conformer: 53.16614177095622 kcal/mol)

>  <smiles>  (13) 
O=c1[nH]c(=S)[nH]c(O)c1C=Nc1nccs1

>  <score_type>  (13) 
oracle

>  <origin>  (13) 
adg

>  <m_score__min__energy>  (13) 
-13.43

>  <m_primary>  (13) 
energy

$$$$
13:0
     RDKit          3D

 55 58  0  0  0  0  0  0  0  0999 V2000
   53.3590   23.3760   45.0310 C   0  0  0  0  0  0  0  0  0  0  0  0
   54.7900   23.8330   45.1790 C   0  0  0  0  0  0  0  0  0  0  0  0
   55.8470   22.9500   44.8970 C   0  0  0  0  0  0  0  0  0  0  0  0
   55.5400   21.6450   44.5130 O   0  0  0  0  0  0  0  0  0  0  0  0
   57.1570   23.3560   44.9950 N   0  0  0  0  0  0  0  0  0  0  0  0
   58.2350   22.3940   44.6930 C   0  0  0  0  0  0  0  0  0  0  0  0
   57.4610   24.6500   45.3750 C   0  0  0  0  0  0  0  0  0  0  0  0
   58.7990   25.0930   45.5140 C   0  0  0  0  0  0  0  0  0  0  0  0
   59.0870   26.4060   45.8860 C   0  0  0  0  0  0  0  0  0  0  0  0
   58.0560   27.3150   46.1260 C   0  0  0  0  0  0  0  0  0  0  0  0
   58.4540   28.9600   46.6090 S   0  0  0  0  0  0  0  0  0  0  0  0
   59.8010   29.3580   46.0700 O   0  0  0  0  0  0  0  0  0  0  0  0
   58.4670   29.0350   48.1090 O   0  0  0  0  0  0  0  0  0  0  0  0
   57.2430   30.0180   45.9660 N   0  0  0  0  0  0  0  0  0  0  0  0
   57.3410   30.7660   44.7450 C   0  0  0  0  0  0  0  0  0  0  0  0
   56.9810   30.1910   43.5110 C   0  0  0  0  0  0  0  0  0  0  0  0
   57.0160   30.9500   42.3400 C   0  0  0  0  0  0  0  0  0  0  0  0
   57.3990   32.2900   42.3840 C   0  0  0  0  0  0  0  0  0  0  0  0
   57.7570   32.8750   43.5990 C   0  0  0  0  0  0  0  0  0  0  0  0
   57.7480   32.1210   44.7870 C   0  0  0  0  0  0  0  0  0  0  0  0
   58.1490   32.7770   46.0540 C   0  0  0  0  0  0  0  0  0  0  0  0
   58.1690   34.0360   46.1160 O   0  0  0  0  0  0  0  0  0  0  0  0
   58.5460   32.0000   47.1950 N   0  0  0  0  0  0  0  0  0  0  0  0
   58.8290   32.6030   48.4950 C   0  0  0  0  0  0  0  0  0  0  0  0
   60.3140   32.7020   48.7030 C   0  0  0  0  0  0  0  0  0  0  0  0
   61.1850   31.9240   47.9250 C   0  0  0  0  0  0  0  0  0  0  0  0
   62.5700   32.0380   48.0910 C   0  0  0  0  0  0  0  0  0  0  0  0
   63.0930   32.9420   49.0220 C   0  0  0  0  0  0  0  0  0  0  0  0
   64.8280   33.0980   49.2120 Cl  0  0  0  0  0  0  0  0  0  0  0  0
   62.2290   33.7300   49.7910 C   0  0  0  0  0  0  0  0  0  0  0  0
   60.8450   33.6120   49.6330 C   0  0  0  0  0  0  0  0  0  0  0  0
   56.7270   26.9030   46.0020 C   0  0  0  0  0  0  0  0  0  0  0  0
   56.4160   25.5780   45.6330 C   0  0  0  0  0  0  0  0  0  0  0  0
   55.0810   25.1590   45.5230 C   0  0  0  0  0  0  0  0  0  0  0  0
   54.1390   25.9750   45.7330 O   0  0  0  0  0  0  0  0  0  0  0  0
   52.9145   23.2341   46.0271 H   0  0  0  0  0  0  0  0  0  0  0  0
   52.7866   24.1360   44.4790 H   0  0  0  0  0  0  0  0  0  0  0  0
   53.3331   22.4249   44.4790 H   0  0  0  0  0  0  0  0  0  0  0  0
   58.6611   22.0138   45.6331 H   0  0  0  0  0  0  0  0  0  0  0  0
   57.8256   21.5556   44.1104 H   0  0  0  0  0  0  0  0  0  0  0  0
   59.0216   22.8958   44.1104 H   0  0  0  0  0  0  0  0  0  0  0  0
   59.6241   24.3904   45.3256 H   0  0  0  0  0  0  0  0  0  0  0  0
   60.1339   26.7270   45.9909 H   0  0  0  0  0  0  0  0  0  0  0  0
   56.6701   29.1367   43.4696 H   0  0  0  0  0  0  0  0  0  0  0  0
   56.7406   30.4896   41.3797 H   0  0  0  0  0  0  0  0  0  0  0  0
   57.4189   32.8864   41.4600 H   0  0  0  0  0  0  0  0  0  0  0  0
   58.0489   33.9352   43.6285 H   0  0  0  0  0  0  0  0  0  0  0  0
   58.7330   30.9790   47.0830 H   0  0  0  0  0  0  0  0  0  0  0  0
   58.3878   33.6099   48.5333 H   0  0  0  0  0  0  0  0  0  0  0  0
   58.3944   31.9750   49.2867 H   0  0  0  0  0  0  0  0  0  0  0  0
   60.7779   31.2222   47.1822 H   0  0  0  0  0  0  0  0  0  0  0  0
   63.2484   31.4159   47.4886 H   0  0  0  0  0  0  0  0  0  0  0  0
   62.6396   34.4433   50.5208 H   0  0  0  0  0  0  0  0  0  0  0  0
   60.1693   34.2336   50.2388 H   0  0  0  0  0  0  0  0  0  0  0  0
   55.9148   27.6195   46.1942 H   0  0  0  0  0  0  0  0  0  0  0  0
  1  2  1  0
  2  3  2  0
  3  4  1  0
  3  5  1  0
  5  6  1  0
  5  7  1  0
  7  8  2  0
  8  9  1  0
  9 10  2  0
 10 11  1  0
 11 12  2  0
 11 13  2  0
 11 14  1  0
 14 15  1  0
 15 16  2  0
 16 17  1  0
 17 18  2  0
 18 19  1  0
 19 20  2  0
 20 21  1  0
 21 22  2  0
 21 23  1  0
 23 24  1  0
 24 25  1  0
 25 26  2  0
 26 27  1  0
 27 28  2  0
 28 29  1  0
 28 30  1  0
 30 31  2  0
 10 32  1  0
 32 33  2  0
 33 34  1  0
 34 35  2  0
 34  2  1  0
 33  7  1  0
 20 15  1  0
 31 25  1  0
  1 36  1  0
  1 37  1  0
  1 38  1  0
  6 39  1  0
  6 40  1  0
  6 41  1  0
  8 42  1  0
  9 43  1  0
 16 44  1  0
 17 45  1  0
 18 46  1  0
 19 47  1  0
 23 48  1  0
 24 49  1  0
 24 50  1  0
 26 51  1  0
 27 52  1  0
 30 53  1  0
 31 54  1  0
 32 55  1  0
M  CHG  2   4  -1  14  -1
M  END
>  <UniqueID>  (14) 
13

>  <SMILES>  (14) 
Cc1c([O-])n(C)c2ccc(S(=O)(=O)[N-]c3ccccc3C(=O)NCc3ccc(Cl)cc3)cc2c1=O

>  <Energy>  (14) 
77.78452398978902

>  <Genealogy>  (14) 
Cc1c([O-])n(C)c2ccc(S(=O)(=O)[N-]c3ccccc3C(=O)NCc3ccc(Cl)cc3)cc2c1=O (protonated)
Cc1c([O-])n(C)c2ccc(S(=O)(=O)[N-]c3ccccc3C(=O)NCc3ccc(Cl)cc3)cc2c1=O (3D coordinates assigned)
Cc1c([O-])n(C)c2ccc(S(=O)(=O)[N-]c3ccccc3C(=O)NCc3ccc(Cl)cc3)cc2c1=O (optimized conformer: 77.78452398978902 kcal/mol)

>  <smiles>  (14) 
Cc1c(O)n(C)c2ccc(S(=O)(=O)Nc3ccccc3C(=O)NCc3ccc(Cl)cc3)cc2c1=O

>  <score_type>  (14) 
oracle

>  <origin>  (14) 
adg

>  <m_score__min__energy>  (14) 
-12.91

>  <m_primary>  (14) 
energy

$$$$
14:0
     RDKit          3D

 54 58  0  0  0  0  0  0  0  0999 V2000
   64.4471   30.5829   50.8107 H   0  0  0  0  0  0  0  0  0  0  0  0
   63.4570   30.9980   50.5710 C   0  0  0  0  0  0  0  0  0  0  0  0
   62.3900   30.4670   51.1820 C   0  0  0  0  0  0  0  0  0  0  0  0
   62.0882   30.8650   52.1621 H   0  0  0  0  0  0  0  0  0  0  0  0
   61.6060   29.3700   50.5900 C   0  0  0  0  0  0  0  0  0  0  0  0
   61.2150   28.2830   51.2970 N   0  0  0  0  0  0  0  0  0  0  0  0
   60.5160   27.4760   50.5050 N   0  0  0  0  0  0  0  0  0  0  0  0
   60.4490   28.0570   49.2970 C   0  0  0  0  0  0  0  0  0  0  0  0
   59.7890   27.5840   48.1650 C   0  0  0  0  0  0  0  0  0  0  0  0
   59.2667   26.6159   48.1754 H   0  0  0  0  0  0  0  0  0  0  0  0
   59.8120   28.3890   47.0010 C   0  0  0  0  0  0  0  0  0  0  0  0
   59.2030   27.9750   45.8080 O   0  0  0  0  0  0  0  0  0  0  0  0
   58.3110   28.7410   45.0440 C   0  0  0  0  0  0  0  0  0  0  0  0
   57.8670   28.2300   43.8190 C   0  0  0  0  0  0  0  0  0  0  0  0
   58.1908   27.2302   43.4942 H   0  0  0  0  0  0  0  0  0  0  0  0
   57.0150   28.9820   43.0060 C   0  0  0  0  0  0  0  0  0  0  0  0
   56.6681   28.5716   42.0462 H   0  0  0  0  0  0  0  0  0  0  0  0
   56.6030   30.2540   43.4100 C   0  0  0  0  0  0  0  0  0  0  0  0
   55.9395   30.8460   42.7625 H   0  0  0  0  0  0  0  0  0  0  0  0
   57.0310   30.7790   44.6360 C   0  0  0  0  0  0  0  0  0  0  0  0
   56.6250   32.1050   45.0020 N   0  0  0  0  0  0  0  0  0  0  0  0
   57.5040   33.2190   45.2030 C   0  0  0  0  0  0  0  0  0  0  0  0
   57.6010   34.0860   44.2940 O   0  0  0  0  0  0  0  0  0  0  0  0
   58.2590   33.4060   46.4590 C   0  0  0  0  0  0  0  0  0  0  0  0
   58.1120   32.4990   47.4650 N   0  0  0  0  0  0  0  0  0  0  0  0
   58.7970   32.5970   48.6370 C   0  0  0  0  0  0  0  0  0  0  0  0
   58.6060   31.5600   49.6980 C   0  0  0  0  0  0  0  0  0  0  0  0
   58.6924   32.0292   50.6891 H   0  0  0  0  0  0  0  0  0  0  0  0
   57.6093   31.1068   49.5925 H   0  0  0  0  0  0  0  0  0  0  0  0
   59.3758   30.7814   49.5925 H   0  0  0  0  0  0  0  0  0  0  0  0
   59.7170   33.6370   48.8180 C   0  0  0  0  0  0  0  0  0  0  0  0
   60.2951   33.7113   49.7509 H   0  0  0  0  0  0  0  0  0  0  0  0
   59.8930   34.5780   47.8030 C   0  0  0  0  0  0  0  0  0  0  0  0
   60.6040   35.4065   47.9375 H   0  0  0  0  0  0  0  0  0  0  0  0
   59.1660   34.4670   46.6170 C   0  0  0  0  0  0  0  0  0  0  0  0
   59.3021   35.2045   45.8123 H   0  0  0  0  0  0  0  0  0  0  0  0
   57.8990   30.0250   45.4460 C   0  0  0  0  0  0  0  0  0  0  0  0
   58.2577   30.4413   46.3989 H   0  0  0  0  0  0  0  0  0  0  0  0
   60.4980   29.6250   47.0160 C   0  0  0  0  0  0  0  0  0  0  0  0
   60.5270   30.2403   46.1046 H   0  0  0  0  0  0  0  0  0  0  0  0
   61.1440   30.0790   48.1800 C   0  0  0  0  0  0  0  0  0  0  0  0
   61.6541   31.0533   48.2049 H   0  0  0  0  0  0  0  0  0  0  0  0
   61.1150   29.2500   49.3020 C   0  0  0  0  0  0  0  0  0  0  0  0
   63.3890   32.1120   49.5900 C   0  0  0  0  0  0  0  0  0  0  0  0
   63.7450   31.8490   48.2550 C   0  0  0  0  0  0  0  0  0  0  0  0
   64.0602   30.8359   47.9645 H   0  0  0  0  0  0  0  0  0  0  0  0
   63.7020   32.8630   47.2940 C   0  0  0  0  0  0  0  0  0  0  0  0
   63.9741   32.6432   46.2511 H   0  0  0  0  0  0  0  0  0  0  0  0
   63.3140   34.1550   47.6560 C   0  0  0  0  0  0  0  0  0  0  0  0
   63.2780   34.9514   46.8981 H   0  0  0  0  0  0  0  0  0  0  0  0
   62.9720   34.4350   48.9800 C   0  0  0  0  0  0  0  0  0  0  0  0
   62.6717   35.4541   49.2650 H   0  0  0  0  0  0  0  0  0  0  0  0
   63.0100   33.4240   49.9450 C   0  0  0  0  0  0  0  0  0  0  0  0
   62.7428   33.6528   50.9873 H   0  0  0  0  0  0  0  0  0  0  0  0
  1  2  1  0
  2  3  2  0
  3  4  1  0
  3  5  1  0
  5  6  1  0
  6  7  1  0
  7  8  2  0
  8  9  1  0
  9 10  1  0
  9 11  2  0
 11 12  1  0
 12 13  1  0
 13 14  2  0
 14 15  1  0
 14 16  1  0
 16 17  1  0
 16 18  2  0
 18 19  1  0
 18 20  1  0
 20 21  1  0
 21 22  1  0
 22 23  2  0
 22 24  1  0
 24 25  2  0
 25 26  1  0
 26 27  1  0
 27 28  1  0
 27 29  1  0
 27 30  1  0
 26 31  2  0
 31 32  1  0
 31 33  1  0
 33 34  1  0
 33 35  2  0
 35 36  1  0
 20 37  2  0
 37 38  1  0
 11 39  1  0
 39 40  1  0
 39 41  2  0
 41 42  1  0
 41 43  1  0
  2 44  1  0
 44 45  2  0
 45 46  1  0
 45 47  1  0
 47 48  1  0
 47 49  2  0
 49 50  1  0
 49 51  1  0
 51 52  1  0
 51 53  2  0
 53 54  1  0
 43  5  2  0
 53 44  1  0
 43  8  1  0
 37 13  1  0
 35 24  1  0
M  CHG  2   6  -1  21  -1
M  END
>  <UniqueID>  (15) 
14

>  <SMILES>  (15) 
Cc1cccc(C(=O)[N-]c2cccc(Oc3ccc4c(/C=C/c5ccccc5)[n-]nc4c3)c2)n1

>  <Energy>  (15) 
113.16277786303678

>  <Genealogy>  (15) 
Cc1cccc(C(=O)[N-]c2cccc(Oc3ccc4c(C=Cc5ccccc5)[n-]nc4c3)c2)n1 (protonated)
Cc1cccc(C(=O)[N-]c2cccc(Oc3ccc4c(/C=C/c5ccccc5)[n-]nc4c3)c2)n1 (cis-trans isomerization)
Cc1cccc(C(=O)[N-]c2cccc(Oc3ccc4c(/C=C/c5ccccc5)[n-]nc4c3)c2)n1 (3D coordinates assigned)
Cc1cccc(C(=O)[N-]c2cccc(Oc3ccc4c(/C=C/c5ccccc5)[n-]nc4c3)c2)n1 (optimized conformer: 113.16277786303678 kcal/mol)

>  <smiles>  (15) 
Cc1cccc(C(=O)Nc2cccc(Oc3ccc4c(C=Cc5ccccc5)[nH]nc4c3)c2)n1

>  <score_type>  (15) 
oracle

>  <origin>  (15) 
adg

>  <m_score__min__energy>  (15) 
-13.699999999999999

>  <m_primary>  (15) 
energy

$$$$
15:0
     RDKit          3D

 31 32  0  0  0  0  0  0  0  0999 V2000
   59.2130   28.6690   47.2290 C   0  0  0  0  0  0  0  0  0  0  0  0
   58.1850   29.6220   46.9840 O   0  0  0  0  0  0  0  0  0  0  0  0
   57.8380   30.1170   45.7170 C   0  0  0  0  0  0  0  0  0  0  0  0
   58.2010   31.4150   45.3020 C   0  0  0  0  0  0  0  0  0  0  0  0
   57.7900   31.8990   44.0560 C   0  0  0  0  0  0  0  0  0  0  0  0
   57.0110   31.1010   43.2180 C   0  0  0  0  0  0  0  0  0  0  0  0
   56.6510   29.8120   43.6140 C   0  0  0  0  0  0  0  0  0  0  0  0
   57.0810   29.3030   44.8470 C   0  0  0  0  0  0  0  0  0  0  0  0
   56.6880   27.9760   45.2300 N   0  0  0  0  0  0  0  0  0  0  0  0
   57.3910   26.8040   44.7970 C   0  0  0  0  0  0  0  0  0  0  0  0
   58.1090   26.8380   43.7610 O   0  0  0  0  0  0  0  0  0  0  0  0
   57.3260   25.5470   45.6080 C   0  0  0  0  0  0  0  0  0  0  0  0
   56.0120   24.8500   45.3480 C   0  0  0  0  0  0  0  0  0  0  0  0
   54.7930   25.4640   45.6830 C   0  0  0  0  0  0  0  0  0  0  0  0
   54.7700   26.7060   46.3060 O   0  0  0  0  0  0  0  0  0  0  0  0
   53.6190   24.8480   45.3910 N   0  0  0  0  0  0  0  0  0  0  0  0
   53.5950   23.6430   44.7670 C   0  0  0  0  0  0  0  0  0  0  0  0
   52.4950   23.0900   44.5080 O   0  0  0  0  0  0  0  0  0  0  0  0
   54.7570   23.0360   44.4180 N   0  0  0  0  0  0  0  0  0  0  0  0
   55.9590   23.6090   44.6870 C   0  0  0  0  0  0  0  0  0  0  0  0
   57.0150   23.0200   44.3350 O   0  0  0  0  0  0  0  0  0  0  0  0
   59.3469   28.5448   48.3137 H   0  0  0  0  0  0  0  0  0  0  0  0
   58.9328   27.7041   46.7813 H   0  0  0  0  0  0  0  0  0  0  0  0
   60.1540   29.0214   46.7813 H   0  0  0  0  0  0  0  0  0  0  0  0
   58.8105   32.0500   45.9617 H   0  0  0  0  0  0  0  0  0  0  0  0
   58.0814   32.9104   43.7363 H   0  0  0  0  0  0  0  0  0  0  0  0
   56.6798   31.4884   42.2432 H   0  0  0  0  0  0  0  0  0  0  0  0
   56.0261   29.1919   42.9545 H   0  0  0  0  0  0  0  0  0  0  0  0
   55.8180   27.8550   45.7950 H   0  0  0  0  0  0  0  0  0  0  0  0
   58.1560   24.8835   45.3237 H   0  0  0  0  0  0  0  0  0  0  0  0
   57.4054   25.7947   46.6768 H   0  0  0  0  0  0  0  0  0  0  0  0
  1  2  1  0
  2  3  1  0
  3  4  2  0
  4  5  1  0
  5  6  2  0
  6  7  1  0
  7  8  2  0
  8  9  1  0
  9 10  1  0
 10 11  2  0
 10 12  1  0
 12 13  1  0
 13 14  2  0
 14 15  1  0
 14 16  1  0
 16 17  1  0
 17 18  2  0
 17 19  1  0
 19 20  1  0
 20 21  2  0
  8  3  1  0
 20 13  1  0
  1 22  1  0
  1 23  1  0
  1 24  1  0
  4 25  1  0
  5 26  1  0
  6 27  1  0
  7 28  1  0
  9 29  1  0
 12 30  1  0
 12 31  1  0
M  CHG  3  15  -1  16  -1  19  -1
M  END
>  <UniqueID>  (16) 
15

>  <SMILES>  (16) 
COc1ccccc1NC(=O)Cc1c([O-])[n-]c(=O)[n-]c1=O

>  <Energy>  (16) 
35.98377444918025

>  <Genealogy>  (16) 
COc1ccccc1NC(=O)Cc1c([O-])[n-]c(=O)[n-]c1=O (protonated)
COc1ccccc1NC(=O)Cc1c([O-])[n-]c(=O)[n-]c1=O (3D coordinates assigned)
COc1ccccc1NC(=O)Cc1c([O-])[n-]c(=O)[n-]c1=O (optimized conformer: 35.98377444918025 kcal/mol)

>  <smiles>  (16) 
COc1ccccc1NC(=O)Cc1c(O)[nH]c(=O)[nH]c1=O

>  <score_type>  (16) 
oracle

>  <origin>  (16) 
adg

>  <m_score__min__energy>  (16) 
-13.58

>  <m_primary>  (16) 
energy

$$$$
16:0
     RDKit          3D

 29 31  0  0  0  0  0  0  0  0999 V2000
   57.2370   32.0363   41.6451 H   0  0  0  0  0  0  0  0  0  0  0  0
   57.2870   31.5180   42.6140 C   0  0  0  0  0  0  0  0  0  0  0  0
   58.0310   32.0650   43.6620 C   0  0  0  0  0  0  0  0  0  0  0  0
   58.5604   33.0187   43.5201 H   0  0  0  0  0  0  0  0  0  0  0  0
   58.1040   31.4030   44.8900 C   0  0  0  0  0  0  0  0  0  0  0  0
   58.6777   31.8473   45.7168 H   0  0  0  0  0  0  0  0  0  0  0  0
   57.4510   30.1760   45.0760 C   0  0  0  0  0  0  0  0  0  0  0  0
   57.5230   29.5460   46.3650 N   0  0  0  0  0  0  0  0  0  0  0  0
   58.6000   29.3150   47.0620 C   0  0  0  0  0  0  0  0  0  0  0  0
   58.9500   30.0760   48.1340 N   0  0  0  0  0  0  0  0  0  0  0  0
   60.3210   29.3060   48.6310 S   0  0  0  0  0  0  0  0  0  0  0  0
   60.5230   28.0430   47.5900 N   0  0  0  0  0  0  0  0  0  0  0  0
   59.4530   28.2130   46.7670 C   0  0  0  0  0  0  0  0  0  0  0  0
   59.1900   27.3930   45.7880 N   0  0  0  0  0  0  0  0  0  0  0  0
   58.1030   26.4560   45.7180 C   0  0  0  0  0  0  0  0  0  0  0  0
   58.3980   25.0930   45.5810 C   0  0  0  0  0  0  0  0  0  0  0  0
   59.4455   24.7660   45.5052 H   0  0  0  0  0  0  0  0  0  0  0  0
   57.3710   24.1460   45.5400 C   0  0  0  0  0  0  0  0  0  0  0  0
   57.6117   23.0800   45.4146 H   0  0  0  0  0  0  0  0  0  0  0  0
   56.0390   24.5510   45.6580 C   0  0  0  0  0  0  0  0  0  0  0  0
   55.2311   23.8057   45.6157 H   0  0  0  0  0  0  0  0  0  0  0  0
   55.7340   25.9050   45.8300 C   0  0  0  0  0  0  0  0  0  0  0  0
   54.4110   26.3050   45.9690 O   0  0  0  0  0  0  0  0  0  0  0  0
   56.7600   26.8550   45.8680 C   0  0  0  0  0  0  0  0  0  0  0  0
   56.5174   27.9177   46.0156 H   0  0  0  0  0  0  0  0  0  0  0  0
   56.6760   29.6450   44.0250 C   0  0  0  0  0  0  0  0  0  0  0  0
   56.1250   28.7042   44.1708 H   0  0  0  0  0  0  0  0  0  0  0  0
   56.6060   30.3110   42.7980 C   0  0  0  0  0  0  0  0  0  0  0  0
   56.0136   29.8843   41.9752 H   0  0  0  0  0  0  0  0  0  0  0  0
  1  2  1  0
  2  3  2  0
  3  4  1  0
  3  5  1  0
  5  6  1  0
  5  7  2  0
  7  8  1  0
  8  9  2  0
  9 10  1  0
 10 11  1  0
 11 12  1  0
 12 13  1  0
 13 14  2  0
 14 15  1  0
 15 16  2  0
 16 17  1  0
 16 18  1  0
 18 19  1  0
 18 20  2  0
 20 21  1  0
 20 22  1  0
 22 23  1  0
 22 24  2  0
 24 25  1  0
  7 26  1  0
 26 27  1  0
 26 28  2  0
 28 29  1  0
 28  2  1  0
 13  9  1  0
 24 15  1  0
M  CHG  3  10  -1  12  -1  23  -1
M  END
>  <UniqueID>  (17) 
16

>  <SMILES>  (17) 
[O-]c1cccc(/N=c2\[n-]s[n-]\c2=N/c2ccccc2)c1

>  <Energy>  (17) 
80.19008827401122

>  <Genealogy>  (17) 
[O-]c1cccc(N=c2[n-]s[n-]c2=Nc2ccccc2)c1 (protonated)
[O-]c1cccc(/N=c2\[n-]s[n-]\c2=N/c2ccccc2)c1 (cis-trans isomerization)
[O-]c1cccc(/N=c2\[n-]s[n-]\c2=N/c2ccccc2)c1 (3D coordinates assigned)
[O-]c1cccc(/N=c2\[n-]s[n-]\c2=N/c2ccccc2)c1 (optimized conformer: 80.19008827401122 kcal/mol)

>  <smiles>  (17) 
Oc1cccc(N=c2[nH]s[nH]c2=Nc2ccccc2)c1

>  <score_type>  (17) 
oracle

>  <origin>  (17) 
adg

>  <m_score__min__energy>  (17) 
-12.15

>  <m_primary>  (17) 
energy

$$$$
17:0
     RDKit          3D

 54 57  0  0  0  0  0  0  0  0999 V2000
   53.0080   31.0130   50.8780 C   0  0  0  0  0  0  0  0  0  0  0  0
   54.1340   30.4850   51.7100 C   0  0  0  0  0  0  0  0  0  0  0  0
   54.0010   29.2720   52.3910 C   0  0  0  0  0  0  0  0  0  0  0  0
   55.0730   28.7740   53.1450 C   0  0  0  0  0  0  0  0  0  0  0  0
   54.9310   27.4560   53.8600 C   0  0  0  0  0  0  0  0  0  0  0  0
   56.2750   29.5110   53.2030 C   0  0  0  0  0  0  0  0  0  0  0  0
   57.4280   28.9810   53.8980 C   0  0  0  0  0  0  0  0  0  0  0  0
   58.3500   28.5570   54.4530 N   0  0  0  0  0  0  0  0  0  0  0  0
   56.3600   30.7440   52.5180 C   0  0  0  0  0  0  0  0  0  0  0  0
   57.5200   31.5260   52.5400 O   0  0  0  0  0  0  0  0  0  0  0  0
   58.2820   31.8160   51.4040 C   0  0  0  0  0  0  0  0  0  0  0  0
   59.6170   31.6210   51.3480 N   0  0  0  0  0  0  0  0  0  0  0  0
   59.9040   32.0240   50.0900 C   0  0  0  0  0  0  0  0  0  0  0  0
   61.2460   32.0870   49.5780 N   0  0  0  0  0  0  0  0  0  0  0  0
   62.1520   33.1390   50.0580 C   0  0  0  0  0  0  0  0  0  0  0  0
   62.2670   34.2530   49.0090 C   0  0  0  0  0  0  0  0  0  0  0  0
   62.5790   33.7590   47.5830 C   0  0  0  0  0  0  0  0  0  0  0  0
   61.6800   32.6410   47.0250 C   0  0  0  0  0  0  0  0  0  0  0  0
   62.1100   31.2180   47.4230 C   0  0  0  0  0  0  0  0  0  0  0  0
   61.7990   30.9160   48.8960 C   0  0  0  0  0  0  0  0  0  0  0  0
   58.8020   32.4310   49.4200 N   0  0  0  0  0  0  0  0  0  0  0  0
   58.6800   32.8410   48.0460 C   0  0  0  0  0  0  0  0  0  0  0  0
   58.9590   34.1680   47.6820 C   0  0  0  0  0  0  0  0  0  0  0  0
   58.8370   34.5760   46.3500 C   0  0  0  0  0  0  0  0  0  0  0  0
   58.4280   33.6630   45.3740 C   0  0  0  0  0  0  0  0  0  0  0  0
   58.1380   32.3440   45.7280 C   0  0  0  0  0  0  0  0  0  0  0  0
   58.2590   31.9330   47.0590 C   0  0  0  0  0  0  0  0  0  0  0  0
   57.7830   32.3000   50.2500 N   0  0  0  0  0  0  0  0  0  0  0  0
   55.3010   31.1780   51.7850 N   0  0  0  0  0  0  0  0  0  0  0  0
   52.2100   31.3872   51.5361 H   0  0  0  0  0  0  0  0  0  0  0  0
   53.3744   31.8332   50.2431 H   0  0  0  0  0  0  0  0  0  0  0  0
   52.6118   30.2068   50.2431 H   0  0  0  0  0  0  0  0  0  0  0  0
   53.0575   28.7092   52.3356 H   0  0  0  0  0  0  0  0  0  0  0  0
   54.9492   27.6246   54.9468 H   0  0  0  0  0  0  0  0  0  0  0  0
   53.9771   26.9866   53.5777 H   0  0  0  0  0  0  0  0  0  0  0  0
   55.7630   26.7942   53.5777 H   0  0  0  0  0  0  0  0  0  0  0  0
   61.7573   33.5601   50.9944 H   0  0  0  0  0  0  0  0  0  0  0  0
   63.1474   32.7051   50.2338 H   0  0  0  0  0  0  0  0  0  0  0  0
   61.3126   34.7993   48.9821 H   0  0  0  0  0  0  0  0  0  0  0  0
   63.1153   34.8833   49.3141 H   0  0  0  0  0  0  0  0  0  0  0  0
   62.4962   34.6220   46.9060 H   0  0  0  0  0  0  0  0  0  0  0  0
   63.5844   33.3170   47.6444 H   0  0  0  0  0  0  0  0  0  0  0  0
   60.6570   32.8066   47.3937 H   0  0  0  0  0  0  0  0  0  0  0  0
   61.7563   32.6959   45.9290 H   0  0  0  0  0  0  0  0  0  0  0  0
   61.5738   30.4948   46.7910 H   0  0  0  0  0  0  0  0  0  0  0  0
   63.1980   31.1389   47.2815 H   0  0  0  0  0  0  0  0  0  0  0  0
   61.0686   30.0950   48.9462 H   0  0  0  0  0  0  0  0  0  0  0  0
   62.7375   30.6360   49.3967 H   0  0  0  0  0  0  0  0  0  0  0  0
   59.2753   34.8906   48.4487 H   0  0  0  0  0  0  0  0  0  0  0  0
   59.0630   35.6156   46.0704 H   0  0  0  0  0  0  0  0  0  0  0  0
   58.3345   33.9839   44.3260 H   0  0  0  0  0  0  0  0  0  0  0  0
   57.8140   31.6273   44.9590 H   0  0  0  0  0  0  0  0  0  0  0  0
   58.0237   30.8945   47.3349 H   0  0  0  0  0  0  0  0  0  0  0  0
   56.7820   32.4910   50.0210 H   0  0  0  0  0  0  0  0  0  0  0  0
  1  2  1  0
  2  3  2  0
  3  4  1  0
  4  5  1  0
  4  6  2  0
  6  7  1  0
  7  8  3  0
  6  9  1  0
  9 10  1  0
 10 11  1  0
 11 12  1  0
 12 13  2  0
 13 14  1  0
 14 15  1  0
 15 16  1  0
 16 17  1  0
 17 18  1  0
 18 19  1  0
 19 20  1  0
 13 21  1  0
 21 22  1  0
 22 23  2  0
 23 24  1  0
 24 25  2  0
 25 26  1  0
 26 27  2  0
 21 28  1  0
  9 29  2  0
 29  2  1  0
 28 11  2  0
 20 14  1  0
 27 22  1  0
  1 30  1  0
  1 31  1  0
  1 32  1  0
  3 33  1  0
  5 34  1  0
  5 35  1  0
  5 36  1  0
 15 37  1  0
 15 38  1  0
 16 39  1  0
 16 40  1  0
 17 41  1  0
 17 42  1  0
 18 43  1  0
 18 44  1  0
 19 45  1  0
 19 46  1  0
 20 47  1  0
 20 48  1  0
 23 49  1  0
 24 50  1  0
 25 51  1  0
 26 52  1  0
 27 53  1  0
 28 54  1  0
M  CHG  1  28   1
M  END
>  <UniqueID>  (18) 
17

>  <SMILES>  (18) 
Cc1cc(C)c(C#N)c(Oc2nc(N3CCCCCC3)n(-c3ccccc3)[nH+]2)n1

>  <Energy>  (18) 
106.62599156380519

>  <Genealogy>  (18) 
Cc1cc(C)c(C#N)c(Oc2nc(N3CCCCCC3)n(-c3ccccc3)[nH+]2)n1 (protonated)
Cc1cc(C)c(C#N)c(Oc2nc(N3CCCCCC3)n(-c3ccccc3)[nH+]2)n1 (3D coordinates assigned)
Cc1cc(C)c(C#N)c(Oc2nc(N3CCCCCC3)n(-c3ccccc3)[nH+]2)n1 (nonaromatic ring conformer: 106.62599156380519 kcal/mol)

>  <smiles>  (18) 
Cc1cc(C)c(C#N)c(Oc2nc(N3CCCCCC3)n(-c3ccccc3)n2)n1

>  <score_type>  (18) 
oracle

>  <origin>  (18) 
adg

>  <m_score__min__energy>  (18) 
-4.7699999999999996

>  <m_primary>  (18) 
energy

$$$$
18:0
     RDKit          3D

 40 41  0  0  0  0  0  0  0  0999 V2000
   54.7840   23.5590   43.6830 C   0  0  0  0  0  0  0  0  0  0  0  0
   53.5500   23.7600   44.5610 C   0  0  0  0  0  0  0  0  0  0  0  0
   53.9180   24.1020   46.0150 C   0  0  0  0  0  0  0  0  0  0  0  0
   55.3740   23.8030   46.3250 C   0  0  0  0  0  0  0  0  0  0  0  0
   55.7130   22.4550   46.5210 C   0  0  0  0  0  0  0  0  0  0  0  0
   57.0350   22.1000   46.7680 C   0  0  0  0  0  0  0  0  0  0  0  0
   57.3390   20.8910   46.9470 O   0  0  0  0  0  0  0  0  0  0  0  0
   57.9780   23.0250   46.8110 O   0  0  0  0  0  0  0  0  0  0  0  0
   57.7310   24.3180   46.6290 C   0  0  0  0  0  0  0  0  0  0  0  0
   58.8010   25.2080   46.6910 C   0  0  0  0  0  0  0  0  0  0  0  0
   58.6130   26.5730   46.5010 C   0  0  0  0  0  0  0  0  0  0  0  0
   59.7340   27.4000   46.6050 O   0  0  0  0  0  0  0  0  0  0  0  0
   57.3210   27.0750   46.2220 C   0  0  0  0  0  0  0  0  0  0  0  0
   57.1080   28.5550   45.9530 C   0  0  0  0  0  0  0  0  0  0  0  0
   57.3770   28.9170   44.5100 C   0  0  0  0  0  0  0  0  0  0  0  0
   57.0110   30.0770   43.9220 C   0  0  0  0  0  0  0  0  0  0  0  0
   56.2610   30.0140   42.6170 C   0  0  0  0  0  0  0  0  0  0  0  0
   57.3370   31.4230   44.5250 C   0  0  0  0  0  0  0  0  0  0  0  0
   56.2200   26.1830   46.1980 C   0  0  0  0  0  0  0  0  0  0  0  0
   54.9500   26.7110   45.9980 O   0  0  0  0  0  0  0  0  0  0  0  0
   56.4140   24.7840   46.3800 C   0  0  0  0  0  0  0  0  0  0  0  0
   55.6684   23.4149   44.3210 H   0  0  0  0  0  0  0  0  0  0  0  0
   54.6416   22.6722   43.0479 H   0  0  0  0  0  0  0  0  0  0  0  0
   54.9304   24.4451   43.0479 H   0  0  0  0  0  0  0  0  0  0  0  0
   52.9500   24.5827   44.1450 H   0  0  0  0  0  0  0  0  0  0  0  0
   52.9855   22.8159   44.5697 H   0  0  0  0  0  0  0  0  0  0  0  0
   53.7327   25.1729   46.1846 H   0  0  0  0  0  0  0  0  0  0  0  0
   53.2977   23.4782   46.6754 H   0  0  0  0  0  0  0  0  0  0  0  0
   54.9336   21.6799   46.4793 H   0  0  0  0  0  0  0  0  0  0  0  0
   59.8119   24.8246   46.8937 H   0  0  0  0  0  0  0  0  0  0  0  0
   60.1180   27.9250   45.8340 H   0  0  0  0  0  0  0  0  0  0  0  0
   56.0663   28.8128   46.1948 H   0  0  0  0  0  0  0  0  0  0  0  0
   57.8152   29.1177   46.5801 H   0  0  0  0  0  0  0  0  0  0  0  0
   57.9111   28.1802   43.8921 H   0  0  0  0  0  0  0  0  0  0  0  0
   55.1832   29.9235   42.8175 H   0  0  0  0  0  0  0  0  0  0  0  0
   56.4509   30.9313   42.0403 H   0  0  0  0  0  0  0  0  0  0  0  0
   56.6013   29.1413   42.0403 H   0  0  0  0  0  0  0  0  0  0  0  0
   57.3187   31.3474   45.6222 H   0  0  0  0  0  0  0  0  0  0  0  0
   58.3378   31.7395   44.1959 H   0  0  0  0  0  0  0  0  0  0  0  0
   56.5920   32.1623   44.1959 H   0  0  0  0  0  0  0  0  0  0  0  0
  1  2  1  0
  2  3  1  0
  3  4  1  0
  4  5  2  0
  5  6  1  0
  6  7  2  0
  6  8  1  0
  8  9  1  0
  9 10  2  0
 10 11  1  0
 11 12  1  0
 11 13  2  0
 13 14  1  0
 14 15  1  0
 15 16  2  3
 16 17  1  0
 16 18  1  0
 13 19  1  0
 19 20  1  0
 19 21  2  0
 21  4  1  0
 21  9  1  0
  1 22  1  0
  1 23  1  0
  1 24  1  0
  2 25  1  0
  2 26  1  0
  3 27  1  0
  3 28  1  0
  5 29  1  0
 10 30  1  0
 12 31  1  0
 14 32  1  0
 14 33  1  0
 15 34  1  0
 17 35  1  0
 17 36  1  0
 17 37  1  0
 18 38  1  0
 18 39  1  0
 18 40  1  0
M  CHG  1  20  -1
M  END
>  <UniqueID>  (19) 
18

>  <SMILES>  (19) 
CCCc1cc(=O)oc2cc(O)c(CC=C(C)C)c([O-])c12

>  <Energy>  (19) 
44.390692985863446

>  <Genealogy>  (19) 
CCCc1cc(=O)oc2cc(O)c(CC=C(C)C)c([O-])c12 (protonated)
CCCc1cc(=O)oc2cc(O)c(CC=C(C)C)c([O-])c12 (3D coordinates assigned)
CCCc1cc(=O)oc2cc(O)c(CC=C(C)C)c([O-])c12 (optimized conformer: 44.390692985863446 kcal/mol)

>  <smiles>  (19) 
CCCc1cc(=O)oc2cc(O)c(CC=C(C)C)c(O)c12

>  <score_type>  (19) 
oracle

>  <origin>  (19) 
adg

>  <m_score__min__energy>  (19) 
-9.5399999999999991

>  <m_primary>  (19) 
energy

$$$$
19:0
     RDKit          3D

 36 37  0  0  0  0  0  0  0  0999 V2000
   64.6950   32.7020   50.8800 C   0  0  0  0  0  0  0  0  0  0  0  0
   63.3440   32.8700   50.4640 O   0  0  0  0  0  0  0  0  0  0  0  0
   62.9400   33.1690   49.1510 C   0  0  0  0  0  0  0  0  0  0  0  0
   63.8120   32.9910   48.0610 C   0  0  0  0  0  0  0  0  0  0  0  0
   63.4000   33.3020   46.7680 C   0  0  0  0  0  0  0  0  0  0  0  0
   62.1230   33.8090   46.5410 C   0  0  0  0  0  0  0  0  0  0  0  0
   61.2350   34.0140   47.6080 C   0  0  0  0  0  0  0  0  0  0  0  0
   59.8620   34.5580   47.3010 C   0  0  0  0  0  0  0  0  0  0  0  0
   58.6000   33.3180   47.7420 S   0  0  0  0  0  0  0  0  0  0  0  0
   58.2440   32.9000   46.0350 C   0  0  0  0  0  0  0  0  0  0  0  0
   58.5480   33.7980   45.0110 C   0  0  0  0  0  0  0  0  0  0  0  0
   58.2750   33.4750   43.7200 N   0  0  0  0  0  0  0  0  0  0  0  0
   57.7040   32.2890   43.3780 C   0  0  0  0  0  0  0  0  0  0  0  0
   57.3950   31.9760   41.6760 Cl  0  0  0  0  0  0  0  0  0  0  0  0
   57.3790   31.3520   44.3790 C   0  0  0  0  0  0  0  0  0  0  0  0
   56.6350   29.7990   43.9840 S   0  0  0  0  0  0  0  0  0  0  0  0
   55.5470   29.3390   45.2460 N   0  0  0  0  0  0  0  0  0  0  0  0
   55.8830   29.9190   42.6880 O   0  0  0  0  0  0  0  0  0  0  0  0
   57.6880   28.7360   43.8380 O   0  0  0  0  0  0  0  0  0  0  0  0
   57.6550   31.6760   45.7150 C   0  0  0  0  0  0  0  0  0  0  0  0
   61.6320   33.6600   48.9260 C   0  0  0  0  0  0  0  0  0  0  0  0
   60.6920   33.8550   50.0930 C   0  0  0  0  0  0  0  0  0  0  0  0
   64.7422   32.6961   51.9790 H   0  0  0  0  0  0  0  0  0  0  0  0
   65.0825   31.7487   50.4912 H   0  0  0  0  0  0  0  0  0  0  0  0
   65.3042   33.5313   50.4912 H   0  0  0  0  0  0  0  0  0  0  0  0
   64.8271   32.6031   48.2319 H   0  0  0  0  0  0  0  0  0  0  0  0
   64.0860   33.1466   45.9223 H   0  0  0  0  0  0  0  0  0  0  0  0
   61.8074   34.0511   45.5154 H   0  0  0  0  0  0  0  0  0  0  0  0
   59.6930   35.4755   47.8838 H   0  0  0  0  0  0  0  0  0  0  0  0
   59.7910   34.7855   46.2271 H   0  0  0  0  0  0  0  0  0  0  0  0
   59.0089   34.7679   45.2493 H   0  0  0  0  0  0  0  0  0  0  0  0
   54.5800   29.4430   44.8680 H   0  0  0  0  0  0  0  0  0  0  0  0
   57.4062   30.9624   46.5143 H   0  0  0  0  0  0  0  0  0  0  0  0
   61.2481   33.7396   51.0350 H   0  0  0  0  0  0  0  0  0  0  0  0
   60.2542   34.8631   50.0467 H   0  0  0  0  0  0  0  0  0  0  0  0
   59.8894   33.1042   50.0467 H   0  0  0  0  0  0  0  0  0  0  0  0
  1  2  1  0
  2  3  1  0
  3  4  2  0
  4  5  1  0
  5  6  2  0
  6  7  1  0
  7  8  1  0
  8  9  1  0
  9 10  1  0
 10 11  2  0
 11 12  1  0
 12 13  2  0
 13 14  1  0
 13 15  1  0
 15 16  1  0
 16 17  1  0
 16 18  2  0
 16 19  2  0
 15 20  2  0
  7 21  2  0
 21 22  1  0
 21  3  1  0
 20 10  1  0
  1 23  1  0
  1 24  1  0
  1 25  1  0
  4 26  1  0
  5 27  1  0
  6 28  1  0
  8 29  1  0
  8 30  1  0
 11 31  1  0
 17 32  1  0
 20 33  1  0
 22 34  1  0
 22 35  1  0
 22 36  1  0
M  CHG  1  17  -1
M  END
>  <UniqueID>  (20) 
19

>  <SMILES>  (20) 
COc1cccc(CSc2cnc(Cl)c(S([NH-])(=O)=O)c2)c1C

>  <Energy>  (20) 
35.212871657510135

>  <Genealogy>  (20) 
COc1cccc(CSc2cnc(Cl)c(S([NH-])(=O)=O)c2)c1C (protonated)
COc1cccc(CSc2cnc(Cl)c(S([NH-])(=O)=O)c2)c1C (3D coordinates assigned)
COc1cccc(CSc2cnc(Cl)c(S([NH-])(=O)=O)c2)c1C (optimized conformer: 35.212871657510135 kcal/mol)

>  <smiles>  (20) 
COc1cccc(CSc2cnc(Cl)c(S(N)(=O)=O)c2)c1C

>  <score_type>  (20) 
oracle

>  <origin>  (20) 
adg

>  <m_score__min__energy>  (20) 
-10.77

>  <m_primary>  (20) 
energy

$$$$
20:0
     RDKit          3D

 63 65  0  0  0  0  0  0  0  0999 V2000
   57.7650   33.1490   46.5620 C   0  0  0  0  0  0  0  0  0  0  0  0
   58.6600   31.9470   46.2800 C   0  0  0  0  0  0  0  0  0  0  0  0
   58.8520   31.1200   47.5270 C   0  0  0  0  0  0  0  0  0  0  0  0
   58.4980   31.6580   48.7740 C   0  0  0  0  0  0  0  0  0  0  0  0
   58.6800   30.9190   49.9520 C   0  0  0  0  0  0  0  0  0  0  0  0
   58.4240   31.5530   51.2970 C   0  0  0  0  0  0  0  0  0  0  0  0
   57.3300   30.8650   52.0040 N   0  0  0  0  0  0  0  0  0  0  0  0
   57.3090   29.4280   52.1120 C   0  0  0  0  0  0  0  0  0  0  0  0
   58.1970   28.8110   52.7600 O   0  0  0  0  0  0  0  0  0  0  0  0
   56.2350   31.6440   52.6070 C   0  0  0  0  0  0  0  0  0  0  0  0
   54.9210   30.9010   52.5140 C   0  0  0  0  0  0  0  0  0  0  0  0
   53.9390   31.3350   51.6100 C   0  0  0  0  0  0  0  0  0  0  0  0
   52.6660   30.7380   51.5750 C   0  0  0  0  0  0  0  0  0  0  0  0
   51.6520   31.2640   50.6230 C   0  0  0  0  0  0  0  0  0  0  0  0
   51.0410   32.3410   50.8520 O   0  0  0  0  0  0  0  0  0  0  0  0
   51.3620   30.5720   49.4540 O   0  0  0  0  0  0  0  0  0  0  0  0
   52.3760   29.6790   52.4660 C   0  0  0  0  0  0  0  0  0  0  0  0
   51.0920   29.1100   52.4670 O   0  0  0  0  0  0  0  0  0  0  0  0
   50.8210   27.7130   52.4990 C   0  0  0  0  0  0  0  0  0  0  0  0
   53.3780   29.2200   53.3430 C   0  0  0  0  0  0  0  0  0  0  0  0
   54.6470   29.8220   53.3740 C   0  0  0  0  0  0  0  0  0  0  0  0
   55.6490   29.3880   54.2570 O   0  0  0  0  0  0  0  0  0  0  0  0
   55.6720   28.1160   54.8980 C   0  0  0  0  0  0  0  0  0  0  0  0
   59.1560   29.6040   49.8670 C   0  0  0  0  0  0  0  0  0  0  0  0
   59.4970   29.0540   48.6310 C   0  0  0  0  0  0  0  0  0  0  0  0
   59.3570   29.8080   47.4490 C   0  0  0  0  0  0  0  0  0  0  0  0
   59.7190   29.2990   46.1880 O   0  0  0  0  0  0  0  0  0  0  0  0
   59.0850   28.2130   45.5140 C   0  0  0  0  0  0  0  0  0  0  0  0
   57.6280   28.0780   45.9620 C   0  0  0  0  0  0  0  0  0  0  0  0
   57.3440   26.6940   46.3410 N   0  0  0  0  0  0  0  0  0  0  0  0
   56.1370   26.0960   46.3780 C   0  0  0  0  0  0  0  0  0  0  0  0
   54.9510   26.7100   45.9960 O   0  0  0  0  0  0  0  0  0  0  0  0
   56.2410   24.8030   46.8530 C   0  0  0  0  0  0  0  0  0  0  0  0
   57.5800   24.6040   47.1340 C   0  0  0  0  0  0  0  0  0  0  0  0
   58.2190   25.7860   46.8160 C   0  0  0  0  0  0  0  0  0  0  0  0
   59.5800   26.0240   46.9680 O   0  0  0  0  0  0  0  0  0  0  0  0
   57.6643   33.2842   47.6490 H   0  0  0  0  0  0  0  0  0  0  0  0
   58.2129   34.0513   46.1202 H   0  0  0  0  0  0  0  0  0  0  0  0
   56.7721   32.9785   46.1202 H   0  0  0  0  0  0  0  0  0  0  0  0
   58.1937   31.3244   45.5022 H   0  0  0  0  0  0  0  0  0  0  0  0
   59.6420   32.3093   45.9416 H   0  0  0  0  0  0  0  0  0  0  0  0
   58.0729   32.6711   48.8280 H   0  0  0  0  0  0  0  0  0  0  0  0
   59.3394   31.4917   51.9039 H   0  0  0  0  0  0  0  0  0  0  0  0
   58.1354   32.6029   51.1409 H   0  0  0  0  0  0  0  0  0  0  0  0
   56.5049   28.8603   51.6209 H   0  0  0  0  0  0  0  0  0  0  0  0
   56.4678   31.8305   53.6658 H   0  0  0  0  0  0  0  0  0  0  0  0
   56.1388   32.5927   52.0587 H   0  0  0  0  0  0  0  0  0  0  0  0
   54.1692   32.1570   50.9162 H   0  0  0  0  0  0  0  0  0  0  0  0
   50.7556   27.3760   53.5441 H   0  0  0  0  0  0  0  0  0  0  0  0
   49.8673   27.5127   51.9888 H   0  0  0  0  0  0  0  0  0  0  0  0
   51.6307   27.1706   51.9888 H   0  0  0  0  0  0  0  0  0  0  0  0
   53.1633   28.3760   54.0150 H   0  0  0  0  0  0  0  0  0  0  0  0
   55.6695   28.2552   55.9892 H   0  0  0  0  0  0  0  0  0  0  0  0
   54.7841   27.5391   54.5999 H   0  0  0  0  0  0  0  0  0  0  0  0
   56.5801   27.5716   54.5999 H   0  0  0  0  0  0  0  0  0  0  0  0
   59.2616   29.0011   50.7810 H   0  0  0  0  0  0  0  0  0  0  0  0
   59.8782   28.0235   48.5789 H   0  0  0  0  0  0  0  0  0  0  0  0
   59.1144   28.3940   44.4294 H   0  0  0  0  0  0  0  0  0  0  0  0
   59.6190   27.2831   45.7592 H   0  0  0  0  0  0  0  0  0  0  0  0
   57.4508   28.7353   46.8260 H   0  0  0  0  0  0  0  0  0  0  0  0
   56.9679   28.3659   45.1305 H   0  0  0  0  0  0  0  0  0  0  0  0
   55.4236   24.0782   46.9817 H   0  0  0  0  0  0  0  0  0  0  0  0
   58.0430   23.6885   47.5309 H   0  0  0  0  0  0  0  0  0  0  0  0
  1  2  1  0
  2  3  1  0
  3  4  2  0
  4  5  1  0
  5  6  1  0
  6  7  1  0
  7  8  1  0
  8  9  2  0
  7 10  1  0
 10 11  1  0
 11 12  2  0
 12 13  1  0
 13 14  1  0
 14 15  2  0
 14 16  1  0
 13 17  2  0
 17 18  1  0
 18 19  1  0
 17 20  1  0
 20 21  2  0
 21 22  1  0
 22 23  1  0
  5 24  2  0
 24 25  1  0
 25 26  2  0
 26 27  1  0
 27 28  1  0
 28 29  1  0
 29 30  1  0
 30 31  1  0
 31 32  1  0
 31 33  2  0
 33 34  1  0
 34 35  2  0
 35 36  1  0
 26  3  1  0
 35 30  1  0
 21 11  1  0
  1 37  1  0
  1 38  1  0
  1 39  1  0
  2 40  1  0
  2 41  1  0
  4 42  1  0
  6 43  1  0
  6 44  1  0
  8 45  1  0
 10 46  1  0
 10 47  1  0
 12 48  1  0
 19 49  1  0
 19 50  1  0
 19 51  1  0
 20 52  1  0
 23 53  1  0
 23 54  1  0
 23 55  1  0
 24 56  1  0
 25 57  1  0
 28 58  1  0
 28 59  1  0
 29 60  1  0
 29 61  1  0
 33 62  1  0
 34 63  1  0
M  CHG  3  16  -1  32  -1  36  -1
M  END
>  <UniqueID>  (21) 
20

>  <SMILES>  (21) 
CCc1cc(CN(C=O)Cc2cc(C(=O)[O-])c(OC)cc2OC)ccc1OCCn1c([O-])ccc1[O-]

>  <Energy>  (21) 
80.44340020660451

>  <Genealogy>  (21) 
CCc1cc(CN(C=O)Cc2cc(C(=O)[O-])c(OC)cc2OC)ccc1OCCn1c([O-])ccc1[O-] (protonated)
CCc1cc(CN(C=O)Cc2cc(C(=O)[O-])c(OC)cc2OC)ccc1OCCn1c([O-])ccc1[O-] (3D coordinates assigned)
CCc1cc(CN(C=O)Cc2cc(C(=O)[O-])c(OC)cc2OC)ccc1OCCn1c([O-])ccc1[O-] (optimized conformer: 80.44340020660451 kcal/mol)

>  <smiles>  (21) 
CCc1cc(CN(C=O)Cc2cc(C(=O)O)c(OC)cc2OC)ccc1OCCn1c(O)ccc1O

>  <score_type>  (21) 
oracle

>  <origin>  (21) 
adg

>  <m_score__min__energy>  (21) 
-15.17

>  <m_primary>  (21) 
energy

$$$$
21:0
     RDKit          3D

 34 36  0  0  0  0  0  0  0  0999 V2000
   57.9198   20.4250   43.1041 H   0  0  0  0  0  0  0  0  0  0  0  0
   57.6540   21.4020   43.5340 C   0  0  0  0  0  0  0  0  0  0  0  0
   56.6010   22.1410   42.9900 C   0  0  0  0  0  0  0  0  0  0  0  0
   56.0398   21.7467   42.1300 H   0  0  0  0  0  0  0  0  0  0  0  0
   56.2590   23.3830   43.5380 C   0  0  0  0  0  0  0  0  0  0  0  0
   55.4279   23.9611   43.1077 H   0  0  0  0  0  0  0  0  0  0  0  0
   56.9730   23.8950   44.6360 C   0  0  0  0  0  0  0  0  0  0  0  0
   56.6130   25.2070   45.2160 C   0  0  0  0  0  0  0  0  0  0  0  0
   55.5240   25.4180   45.9820 N   0  0  0  0  0  0  0  0  0  0  0  0
   55.5290   26.6970   46.3160 N   0  0  0  0  0  0  0  0  0  0  0  0
   56.6210   27.2280   45.7430 C   0  0  0  0  0  0  0  0  0  0  0  0
   56.9390   28.4790   45.8630 N   0  0  0  0  0  0  0  0  0  0  0  0
   56.6610   29.6490   44.6140 S   0  0  0  0  0  0  0  0  0  0  0  0
   57.1590   29.1010   43.3050 O   0  0  0  0  0  0  0  0  0  0  0  0
   55.1920   29.9490   44.5080 O   0  0  0  0  0  0  0  0  0  0  0  0
   57.5220   31.1310   45.0170 C   0  0  0  0  0  0  0  0  0  0  0  0
   58.2950   31.1880   46.1840 C   0  0  0  0  0  0  0  0  0  0  0  0
   58.3636   30.3072   46.8394 H   0  0  0  0  0  0  0  0  0  0  0  0
   58.9800   32.3610   46.5190 C   0  0  0  0  0  0  0  0  0  0  0  0
   59.5950   32.3954   47.4303 H   0  0  0  0  0  0  0  0  0  0  0  0
   58.8850   33.4940   45.6960 C   0  0  0  0  0  0  0  0  0  0  0  0
   59.6480   34.7400   46.0360 C   0  0  0  0  0  0  0  0  0  0  0  0
   59.7117   34.8441   47.1292 H   0  0  0  0  0  0  0  0  0  0  0  0
   60.6618   34.6758   45.6141 H   0  0  0  0  0  0  0  0  0  0  0  0
   59.1299   35.6138   45.6141 H   0  0  0  0  0  0  0  0  0  0  0  0
   58.1230   33.4290   44.5190 C   0  0  0  0  0  0  0  0  0  0  0  0
   58.0646   34.3045   43.8556 H   0  0  0  0  0  0  0  0  0  0  0  0
   57.4380   32.2570   44.1860 C   0  0  0  0  0  0  0  0  0  0  0  0
   56.8313   32.2180   43.2693 H   0  0  0  0  0  0  0  0  0  0  0  0
   57.3390   26.3310   45.0370 N   0  0  0  0  0  0  0  0  0  0  0  0
   58.0340   23.1450   45.1720 C   0  0  0  0  0  0  0  0  0  0  0  0
   58.6037   23.5368   46.0275 H   0  0  0  0  0  0  0  0  0  0  0  0
   58.3690   21.9030   44.6230 C   0  0  0  0  0  0  0  0  0  0  0  0
   59.1979   21.3197   45.0505 H   0  0  0  0  0  0  0  0  0  0  0  0
  1  2  1  0
  2  3  2  0
  3  4  1  0
  3  5  1  0
  5  6  1  0
  5  7  2  0
  7  8  1  0
  8  9  2  0
  9 10  1  0
 10 11  1  0
 11 12  2  0
 12 13  1  0
 13 14  2  0
 13 15  2  0
 13 16  1  0
 16 17  2  0
 17 18  1  0
 17 19  1  0
 19 20  1  0
 19 21  2  0
 21 22  1  0
 22 23  1  0
 22 24  1  0
 22 25  1  0
 21 26  1  0
 26 27  1  0
 26 28  2  0
 28 29  1  0
 11 30  1  0
  7 31  1  0
 31 32  1  0
 31 33  2  0
 33 34  1  0
 33  2  1  0
 30  8  1  0
 28 16  1  0
M  CHG  2  10  -1  30  -1
M  END
>  <UniqueID>  (22) 
21

>  <SMILES>  (22) 
Cc1ccc(S(=O)(=O)/N=c2/[n-]nc(-c3ccccc3)[n-]2)cc1

>  <Energy>  (22) 
72.0913202585379

>  <Genealogy>  (22) 
Cc1ccc(S(=O)(=O)N=c2[n-]nc(-c3ccccc3)[n-]2)cc1 (protonated)
Cc1ccc(S(=O)(=O)/N=c2/[n-]nc(-c3ccccc3)[n-]2)cc1 (cis-trans isomerization)
Cc1ccc(S(=O)(=O)/N=c2/[n-]nc(-c3ccccc3)[n-]2)cc1 (3D coordinates assigned)
Cc1ccc(S(=O)(=O)/N=c2/[n-]nc(-c3ccccc3)[n-]2)cc1 (optimized conformer: 72.0913202585379 kcal/mol)

>  <smiles>  (22) 
Cc1ccc(S(=O)(=O)N=c2[nH]nc(-c3ccccc3)[nH]2)cc1

>  <score_type>  (22) 
oracle

>  <origin>  (22) 
adg

>  <m_score__min__energy>  (22) 
-12.15

>  <m_primary>  (22) 
energy

$$$$
22:0
     RDKit          3D

 34 36  0  0  0  0  0  0  0  0999 V2000
   59.6220   34.1820   48.5900 C   0  0  0  0  0  0  0  0  0  0  0  0
   59.0780   34.0050   47.2030 C   0  0  0  0  0  0  0  0  0  0  0  0
   59.4390   34.8970   46.1830 C   0  0  0  0  0  0  0  0  0  0  0  0
   58.9620   34.7110   44.8830 C   0  0  0  0  0  0  0  0  0  0  0  0
   58.1330   33.6250   44.5910 C   0  0  0  0  0  0  0  0  0  0  0  0
   57.7770   32.7120   45.5920 C   0  0  0  0  0  0  0  0  0  0  0  0
   56.9460   31.6360   45.2450 O   0  0  0  0  0  0  0  0  0  0  0  0
   57.3940   30.4470   44.6010 C   0  0  0  0  0  0  0  0  0  0  0  0
   56.2150   29.5910   44.2820 C   0  0  0  0  0  0  0  0  0  0  0  0
   55.6220   29.7310   43.1790 O   0  0  0  0  0  0  0  0  0  0  0  0
   55.7750   28.6150   45.2350 N   0  0  0  0  0  0  0  0  0  0  0  0
   56.4720   27.4220   45.6210 C   0  0  0  0  0  0  0  0  0  0  0  0
   57.8510   27.2300   45.3310 C   0  0  0  0  0  0  0  0  0  0  0  0
   58.5010   26.0370   45.7000 C   0  0  0  0  0  0  0  0  0  0  0  0
   57.7450   25.0590   46.3390 C   0  0  0  0  0  0  0  0  0  0  0  0
   58.1560   23.8550   46.7670 N   0  0  0  0  0  0  0  0  0  0  0  0
   57.0140   23.3360   47.2850 C   0  0  0  0  0  0  0  0  0  0  0  0
   56.9700   22.1900   47.8040 O   0  0  0  0  0  0  0  0  0  0  0  0
   55.9230   24.1390   47.2060 N   0  0  0  0  0  0  0  0  0  0  0  0
   56.4210   25.2270   46.6000 C   0  0  0  0  0  0  0  0  0  0  0  0
   55.7430   26.3930   46.2490 C   0  0  0  0  0  0  0  0  0  0  0  0
   58.2610   32.9040   46.9010 C   0  0  0  0  0  0  0  0  0  0  0  0
   58.8432   33.9286   49.3244 H   0  0  0  0  0  0  0  0  0  0  0  0
   60.4887   33.5195   48.7313 H   0  0  0  0  0  0  0  0  0  0  0  0
   59.9329   35.2276   48.7313 H   0  0  0  0  0  0  0  0  0  0  0  0
   60.1005   35.7468   46.4073 H   0  0  0  0  0  0  0  0  0  0  0  0
   59.2393   35.4200   44.0890 H   0  0  0  0  0  0  0  0  0  0  0  0
   57.7568   33.4858   43.5668 H   0  0  0  0  0  0  0  0  0  0  0  0
   57.9220   30.7078   43.6719 H   0  0  0  0  0  0  0  0  0  0  0  0
   58.0794   29.9010   45.2660 H   0  0  0  0  0  0  0  0  0  0  0  0
   58.4146   28.0205   44.8139 H   0  0  0  0  0  0  0  0  0  0  0  0
   59.5698   25.8832   45.4904 H   0  0  0  0  0  0  0  0  0  0  0  0
   54.6687   26.5066   46.4565 H   0  0  0  0  0  0  0  0  0  0  0  0
   57.9970   32.1864   47.6918 H   0  0  0  0  0  0  0  0  0  0  0  0
  1  2  1  0
  2  3  2  0
  3  4  1  0
  4  5  2  0
  5  6  1  0
  6  7  1  0
  7  8  1  0
  8  9  1  0
  9 10  2  0
  9 11  1  0
 11 12  1  0
 12 13  2  0
 13 14  1  0
 14 15  2  0
 15 16  1  0
 16 17  1  0
 17 18  2  0
 17 19  1  0
 19 20  1  0
 20 21  2  0
  6 22  2  0
 22  2  1  0
 21 12  1  0
 20 15  1  0
  1 23  1  0
  1 24  1  0
  1 25  1  0
  3 26  1  0
  4 27  1  0
  5 28  1  0
  8 29  1  0
  8 30  1  0
 13 31  1  0
 14 32  1  0
 21 33  1  0
 22 34  1  0
M  CHG  3  11  -1  16  -1  19  -1
M  END
>  <UniqueID>  (23) 
22

>  <SMILES>  (23) 
Cc1cccc(OCC(=O)[N-]c2ccc3[n-]c(=O)[n-]c3c2)c1

>  <Energy>  (23) 
72.8562555070077

>  <Genealogy>  (23) 
Cc1cccc(OCC(=O)[N-]c2ccc3[n-]c(=O)[n-]c3c2)c1 (protonated)
Cc1cccc(OCC(=O)[N-]c2ccc3[n-]c(=O)[n-]c3c2)c1 (3D coordinates assigned)
Cc1cccc(OCC(=O)[N-]c2ccc3[n-]c(=O)[n-]c3c2)c1 (optimized conformer: 72.8562555070077 kcal/mol)

>  <smiles>  (23) 
Cc1cccc(OCC(=O)Nc2ccc3[nH]c(=O)[nH]c3c2)c1

>  <score_type>  (23) 
oracle

>  <origin>  (23) 
adg

>  <m_score__min__energy>  (23) 
-12.630000000000001

>  <m_primary>  (23) 
energy

$$$$
23:0
     RDKit          3D

 43 45  0  0  0  0  0  0  0  0999 V2000
   58.2730   27.6090   47.2500 C   0  0  0  0  0  0  0  0  0  0  0  0
   57.9780   26.3860   46.4240 C   0  0  0  0  0  0  0  0  0  0  0  0
   58.8740   25.3040   46.4310 C   0  0  0  0  0  0  0  0  0  0  0  0
   58.6160   24.1680   45.6610 C   0  0  0  0  0  0  0  0  0  0  0  0
   57.4670   24.1050   44.8720 C   0  0  0  0  0  0  0  0  0  0  0  0
   56.5650   25.1730   44.8570 C   0  0  0  0  0  0  0  0  0  0  0  0
   56.8010   26.3130   45.6500 C   0  0  0  0  0  0  0  0  0  0  0  0
   55.9020   27.4340   45.6400 N   0  0  0  0  0  0  0  0  0  0  0  0
   56.1070   28.7170   45.0330 C   0  0  0  0  0  0  0  0  0  0  0  0
   55.1480   29.5180   44.8820 O   0  0  0  0  0  0  0  0  0  0  0  0
   57.4290   29.1470   44.6940 N   0  0  0  0  0  0  0  0  0  0  0  0
   57.9780   30.4340   45.0090 C   0  0  0  0  0  0  0  0  0  0  0  0
   57.6960   31.5170   44.1680 C   0  0  0  0  0  0  0  0  0  0  0  0
   58.1850   32.7910   44.4710 C   0  0  0  0  0  0  0  0  0  0  0  0
   58.9830   32.9890   45.6050 C   0  0  0  0  0  0  0  0  0  0  0  0
   59.5200   34.6130   46.0190 S   0  0  0  0  0  0  0  0  0  0  0  0
   58.7770   35.0760   47.2380 O   0  0  0  0  0  0  0  0  0  0  0  0
   59.2530   35.5740   44.8940 O   0  0  0  0  0  0  0  0  0  0  0  0
   61.2200   34.5880   46.3600 N   0  0  0  0  0  0  0  0  0  0  0  0
   61.8410   33.8350   47.4120 C   0  0  0  0  0  0  0  0  0  0  0  0
   61.2070   33.6170   48.6500 C   0  0  0  0  0  0  0  0  0  0  0  0
   61.8540   32.8930   49.6560 C   0  0  0  0  0  0  0  0  0  0  0  0
   63.1320   32.3740   49.4340 C   0  0  0  0  0  0  0  0  0  0  0  0
   63.7640   32.5770   48.2040 C   0  0  0  0  0  0  0  0  0  0  0  0
   63.1220   33.3040   47.1960 C   0  0  0  0  0  0  0  0  0  0  0  0
   63.7480   33.4960   46.0090 F   0  0  0  0  0  0  0  0  0  0  0  0
   59.3090   31.8970   46.4200 C   0  0  0  0  0  0  0  0  0  0  0  0
   58.8120   30.6260   46.1230 C   0  0  0  0  0  0  0  0  0  0  0  0
   58.2114   27.3536   48.3182 H   0  0  0  0  0  0  0  0  0  0  0  0
   59.2847   27.9730   47.0178 H   0  0  0  0  0  0  0  0  0  0  0  0
   57.5385   28.3942   47.0178 H   0  0  0  0  0  0  0  0  0  0  0  0
   59.7843   25.3519   47.0467 H   0  0  0  0  0  0  0  0  0  0  0  0
   59.3191   23.3222   45.6765 H   0  0  0  0  0  0  0  0  0  0  0  0
   57.2703   23.2124   44.2600 H   0  0  0  0  0  0  0  0  0  0  0  0
   55.6673   25.1229   44.2233 H   0  0  0  0  0  0  0  0  0  0  0  0
   57.0869   31.3648   43.2647 H   0  0  0  0  0  0  0  0  0  0  0  0
   57.9422   33.6411   43.8165 H   0  0  0  0  0  0  0  0  0  0  0  0
   60.1981   34.0181   48.8266 H   0  0  0  0  0  0  0  0  0  0  0  0
   61.3562   32.7318   50.6236 H   0  0  0  0  0  0  0  0  0  0  0  0
   63.6406   31.8059   50.2268 H   0  0  0  0  0  0  0  0  0  0  0  0
   64.7683   32.1642   48.0283 H   0  0  0  0  0  0  0  0  0  0  0  0
   59.9582   32.0411   47.2962 H   0  0  0  0  0  0  0  0  0  0  0  0
   59.0747   29.7717   46.7641 H   0  0  0  0  0  0  0  0  0  0  0  0
  1  2  1  0
  2  3  2  0
  3  4  1  0
  4  5  2  0
  5  6  1  0
  6  7  2  0
  7  8  1  0
  8  9  1  0
  9 10  2  0
  9 11  1  0
 11 12  1  0
 12 13  2  0
 13 14  1  0
 14 15  2  0
 15 16  1  0
 16 17  2  0
 16 18  2  0
 16 19  1  0
 19 20  1  0
 20 21  2  0
 21 22  1  0
 22 23  2  0
 23 24  1  0
 24 25  2  0
 25 26  1  0
 15 27  1  0
 27 28  2  0
  7  2  1  0
 28 12  1  0
 25 20  1  0
  1 29  1  0
  1 30  1  0
  1 31  1  0
  3 32  1  0
  4 33  1  0
  5 34  1  0
  6 35  1  0
 13 36  1  0
 14 37  1  0
 21 38  1  0
 22 39  1  0
 23 40  1  0
 24 41  1  0
 27 42  1  0
 28 43  1  0
M  CHG  3   8  -1  11  -1  19  -1
M  END
>  <UniqueID>  (24) 
23

>  <SMILES>  (24) 
Cc1ccccc1[N-]C(=O)[N-]c1ccc(S(=O)(=O)[N-]c2ccccc2F)cc1

>  <Energy>  (24) 
55.26122713331569

>  <Genealogy>  (24) 
Cc1ccccc1[N-]C(=O)[N-]c1ccc(S(=O)(=O)[N-]c2ccccc2F)cc1 (protonated)
Cc1ccccc1[N-]C(=O)[N-]c1ccc(S(=O)(=O)[N-]c2ccccc2F)cc1 (3D coordinates assigned)
Cc1ccccc1[N-]C(=O)[N-]c1ccc(S(=O)(=O)[N-]c2ccccc2F)cc1 (optimized conformer: 55.26122713331569 kcal/mol)

>  <smiles>  (24) 
Cc1ccccc1NC(=O)Nc1ccc(S(=O)(=O)Nc2ccccc2F)cc1

>  <score_type>  (24) 
oracle

>  <origin>  (24) 
adg

>  <m_score__min__energy>  (24) 
-12.58

>  <m_primary>  (24) 
energy

$$$$
24:0
     RDKit          3D

 60 63  0  0  0  0  0  0  0  0999 V2000
   54.7760   26.2890   45.9780 N   0  0  0  0  0  0  0  0  0  0  0  0
   56.4390   25.8280   45.8910 S   0  0  0  0  0  0  0  0  0  0  0  0
   56.8850   25.3180   47.2320 O   0  0  0  0  0  0  0  0  0  0  0  0
   56.6020   24.7290   44.8790 O   0  0  0  0  0  0  0  0  0  0  0  0
   57.4140   27.2190   45.4290 C   0  0  0  0  0  0  0  0  0  0  0  0
   58.7830   27.0660   45.1770 C   0  0  0  0  0  0  0  0  0  0  0  0
   59.5570   28.1690   44.8090 C   0  0  0  0  0  0  0  0  0  0  0  0
   58.9710   29.4350   44.7050 C   0  0  0  0  0  0  0  0  0  0  0  0
   57.6030   29.6060   44.9860 C   0  0  0  0  0  0  0  0  0  0  0  0
   56.9550   30.8810   44.8730 N   0  0  0  0  0  0  0  0  0  0  0  0
   57.5600   32.1230   44.4840 C   0  0  0  0  0  0  0  0  0  0  0  0
   57.4160   32.5560   43.3080 O   0  0  0  0  0  0  0  0  0  0  0  0
   58.4020   32.8700   45.4490 C   0  0  0  0  0  0  0  0  0  0  0  0
   58.3340   34.2720   45.5200 C   0  0  0  0  0  0  0  0  0  0  0  0
   59.1210   34.9740   46.4350 C   0  0  0  0  0  0  0  0  0  0  0  0
   59.9930   34.2880   47.2830 C   0  0  0  0  0  0  0  0  0  0  0  0
   60.0940   32.8890   47.2140 C   0  0  0  0  0  0  0  0  0  0  0  0
   60.9680   32.1590   48.0910 N   0  0  0  0  0  0  0  0  0  0  0  0
   62.4010   32.1910   48.0020 C   0  0  0  0  0  0  0  0  0  0  0  0
   62.9560   32.5550   46.9280 O   0  0  0  0  0  0  0  0  0  0  0  0
   63.2350   31.7160   49.1760 C   0  0  1  0  0  0  0  0  0  0  0  0
   64.3020   32.7380   49.6240 C   0  0  0  0  0  0  0  0  0  0  0  0
   63.7100   34.0030   50.2860 C   0  0  0  0  0  0  0  0  0  0  0  0
   62.2550   33.8410   50.7510 C   0  0  0  0  0  0  0  0  0  0  0  0
   61.9950   32.4730   51.2180 N   0  0  0  0  0  0  0  0  0  0  0  0
   61.1910   32.2500   52.3900 C   0  0  0  0  0  0  0  0  0  0  0  0
   61.7210   32.3450   53.5310 O   0  0  0  0  0  0  0  0  0  0  0  0
   59.7480   31.9310   52.2870 C   0  0  0  0  0  0  0  0  0  0  0  0
   59.3300   30.6050   52.0750 C   0  0  0  0  0  0  0  0  0  0  0  0
   57.9680   30.2990   51.9890 C   0  0  0  0  0  0  0  0  0  0  0  0
   57.0120   31.3090   52.1250 C   0  0  0  0  0  0  0  0  0  0  0  0
   55.3040   30.9210   52.0220 Cl  0  0  0  0  0  0  0  0  0  0  0  0
   57.4180   32.6280   52.3470 C   0  0  0  0  0  0  0  0  0  0  0  0
   58.7780   32.9370   52.4310 C   0  0  0  0  0  0  0  0  0  0  0  0
   62.3550   31.3190   50.3810 C   0  0  0  0  0  0  0  0  0  0  0  0
   59.2840   32.1870   46.3090 C   0  0  0  0  0  0  0  0  0  0  0  0
   56.8300   28.4900   45.3320 C   0  0  0  0  0  0  0  0  0  0  0  0
   54.7150   27.0910   46.6450 H   0  0  0  0  0  0  0  0  0  0  0  0
   59.2501   26.0744   45.2691 H   0  0  0  0  0  0  0  0  0  0  0  0
   60.6296   28.0419   44.6005 H   0  0  0  0  0  0  0  0  0  0  0  0
   59.5812   30.2989   44.4028 H   0  0  0  0  0  0  0  0  0  0  0  0
   57.6557   34.8203   44.8497 H   0  0  0  0  0  0  0  0  0  0  0  0
   59.0540   36.0707   46.4881 H   0  0  0  0  0  0  0  0  0  0  0  0
   60.6035   34.8459   48.0083 H   0  0  0  0  0  0  0  0  0  0  0  0
   60.5370   31.5250   48.8030 H   0  0  0  0  0  0  0  0  0  0  0  0
   63.7666   30.8258   48.8086 H   0  0  0  0  0  0  0  0  0  0  0  0
   64.9706   32.2479   50.3471 H   0  0  0  0  0  0  0  0  0  0  0  0
   64.8328   33.0670   48.7185 H   0  0  0  0  0  0  0  0  0  0  0  0
   64.3267   34.2566   51.1608 H   0  0  0  0  0  0  0  0  0  0  0  0
   63.7141   34.7942   49.5218 H   0  0  0  0  0  0  0  0  0  0  0  0
   62.0613   34.5440   51.5746 H   0  0  0  0  0  0  0  0  0  0  0  0
   61.5920   34.0495   49.8984 H   0  0  0  0  0  0  0  0  0  0  0  0
   60.0780   29.8045   51.9763 H   0  0  0  0  0  0  0  0  0  0  0  0
   57.6487   29.2610   51.8139 H   0  0  0  0  0  0  0  0  0  0  0  0
   56.6661   33.4235   52.4557 H   0  0  0  0  0  0  0  0  0  0  0  0
   59.0916   33.9758   52.6112 H   0  0  0  0  0  0  0  0  0  0  0  0
   62.9068   30.5942   50.9975 H   0  0  0  0  0  0  0  0  0  0  0  0
   61.4231   30.8872   49.9872 H   0  0  0  0  0  0  0  0  0  0  0  0
   59.3383   31.0890   46.2705 H   0  0  0  0  0  0  0  0  0  0  0  0
   55.7548   28.6120   45.5294 H   0  0  0  0  0  0  0  0  0  0  0  0
  1  2  1  0
  2  3  2  0
  2  4  2  0
  2  5  1  0
  5  6  2  0
  6  7  1  0
  7  8  2  0
  8  9  1  0
  9 10  1  0
 10 11  1  0
 11 12  2  0
 11 13  1  0
 13 14  2  0
 14 15  1  0
 15 16  2  0
 16 17  1  0
 17 18  1  0
 18 19  1  0
 19 20  2  0
 19 21  1  0
 21 22  1  0
 22 23  1  0
 23 24  1  0
 24 25  1  0
 25 26  1  0
 26 27  2  0
 26 28  1  0
 28 29  2  0
 29 30  1  0
 30 31  2  0
 31 32  1  0
 31 33  1  0
 33 34  2  0
 25 35  1  0
 17 36  2  0
  9 37  2  0
 37  5  1  0
 36 13  1  0
 35 21  1  0
 34 28  1  0
  1 38  1  0
  6 39  1  0
  7 40  1  0
  8 41  1  0
 14 42  1  0
 15 43  1  0
 16 44  1  0
 18 45  1  0
 21 46  1  6
 22 47  1  0
 22 48  1  0
 23 49  1  0
 23 50  1  0
 24 51  1  0
 24 52  1  0
 29 53  1  0
 30 54  1  0
 33 55  1  0
 34 56  1  0
 35 57  1  0
 35 58  1  0
 36 59  1  0
 37 60  1  0
M  CHG  2   1  -1  10  -1
M  END
>  <UniqueID>  (25) 
24

>  <SMILES>  (25) 
[NH-]S(=O)(=O)c1cccc([N-]C(=O)c2cccc(NC(=O)[C@H]3CCCN(C(=O)c4ccc(Cl)cc4)C3)c2)c1

>  <Energy>  (25) 
79.3767284991253

>  <Genealogy>  (25) 
[NH-]S(=O)(=O)c1cccc([N-]C(=O)c2cccc(NC(=O)C3CCCN(C(=O)c4ccc(Cl)cc4)C3)c2)c1 (protonated)
[NH-]S(=O)(=O)c1cccc([N-]C(=O)c2cccc(NC(=O)[C@H]3CCCN(C(=O)c4ccc(Cl)cc4)C3)c2)c1 (chirality)
[NH-]S(=O)(=O)c1cccc([N-]C(=O)c2cccc(NC(=O)[C@H]3CCCN(C(=O)c4ccc(Cl)cc4)C3)c2)c1 (3D coordinates assigned)
[NH-]S(=O)(=O)c1cccc([N-]C(=O)c2cccc(NC(=O)[C@H]3CCCN(C(=O)c4ccc(Cl)cc4)C3)c2)c1 (nonaromatic ring conformer: 79.3767284991253 kcal/mol)

>  <smiles>  (25) 
NS(=O)(=O)c1cccc(NC(=O)c2cccc(NC(=O)C3CCCN(C(=O)c4ccc(Cl)cc4)C3)c2)c1

>  <score_type>  (25) 
oracle

>  <origin>  (25) 
adg

>  <m_score__min__energy>  (25) 
-15.44

>  <m_primary>  (25) 
energy

$$$$
25:0
     RDKit          3D

 12 12  0  0  0  0  0  0  0  0999 V2000
   52.0150   30.1690   48.9830 H   0  0  0  0  0  0  0  0  0  0  0  0
   51.0650   30.6010   48.9980 N   0  0  0  0  0  0  0  0  0  0  0  0
   50.8840   31.9650   49.3710 C   0  0  0  0  0  0  0  0  0  0  0  0
   50.2160   32.7240   48.6190 O   0  0  0  0  0  0  0  0  0  0  0  0
   51.4430   32.5030   50.5790 N   0  0  0  0  0  0  0  0  0  0  0  0
   51.0330   32.3320   51.8030 C   0  0  0  0  0  0  0  0  0  0  0  0
   50.2360   33.2310   52.4190 N   0  0  0  0  0  0  0  0  0  0  0  0
   49.9300   32.8540   53.6890 C   0  0  0  0  0  0  0  0  0  0  0  0
   49.2895   33.4608   54.3459 H   0  0  0  0  0  0  0  0  0  0  0  0
   50.4850   31.6460   54.0980 C   0  0  0  0  0  0  0  0  0  0  0  0
   50.3556   31.1749   55.0836 H   0  0  0  0  0  0  0  0  0  0  0  0
   51.3890   31.0330   52.8190 S   0  0  0  0  0  0  0  0  0  0  0  0
  1  2  1  0
  2  3  1  0
  3  4  2  0
  3  5  1  0
  5  6  2  0
  6  7  1  0
  7  8  1  0
  8  9  1  0
  8 10  2  0
 10 11  1  0
 10 12  1  0
 12  6  1  0
M  CHG  2   2  -1   7  -1
M  END
>  <UniqueID>  (26) 
25

>  <SMILES>  (26) 
[NH-]C(=O)/N=c1/[n-]ccs1

>  <Energy>  (26) 
43.49852590517823

>  <Genealogy>  (26) 
[NH-]C(=O)N=c1[n-]ccs1 (protonated)
[NH-]C(=O)/N=c1/[n-]ccs1 (cis-trans isomerization)
[NH-]C(=O)/N=c1/[n-]ccs1 (3D coordinates assigned)
[NH-]C(=O)/N=c1/[n-]ccs1 (optimized conformer: 43.49852590517823 kcal/mol)

>  <smiles>  (26) 
NC(=O)N=c1[nH]ccs1

>  <score_type>  (26) 
oracle

>  <origin>  (26) 
adg

>  <m_score__min__energy>  (26) 
-8.6999999999999993

>  <m_primary>  (26) 
energy

$$$$
26:0
     RDKit          3D

 40 42  0  0  1  0  0  0  0  0999 V2000
   55.1540   29.3620   44.9820 O   0  0  0  0  0  0  0  0  0  0  0  0
   56.0810   29.4980   43.9350 C   0  0  0  0  0  0  0  0  0  0  0  0
   56.6730   30.8650   43.8830 C   0  0  0  0  0  0  0  0  0  0  0  0
   56.6430   31.6210   45.0390 O   0  0  0  0  0  0  0  0  0  0  0  0
   57.5440   32.4470   45.6200 C   0  0  0  0  0  0  0  0  0  0  0  0
   57.4920   33.8120   45.7220 C   0  0  0  0  0  0  0  0  0  0  0  0
   58.4750   34.5730   46.3410 C   0  0  0  0  0  0  0  0  0  0  0  0
   59.5710   33.9460   46.8900 C   0  0  0  0  0  0  0  0  0  0  0  0
   60.5960   34.6770   47.5300 N   0  0  0  0  0  0  0  0  0  0  0  0
   61.7310   34.1300   47.7680 C   0  0  0  0  0  0  0  0  0  0  0  0
   62.1690   33.8780   49.0580 C   0  0  0  0  0  0  0  0  0  0  0  0
   63.4060   33.2850   49.1900 C   0  0  0  0  0  0  0  0  0  0  0  0
   64.1440   32.9740   48.1010 N   0  0  0  0  0  0  0  0  0  0  0  0
   63.6950   33.2310   46.8540 C   0  0  0  0  0  0  0  0  0  0  0  0
   62.4900   33.8070   46.7030 N   0  0  0  0  0  0  0  0  0  0  0  0
   59.6610   32.5760   46.8080 C   0  0  0  0  0  0  0  0  0  0  0  0
   58.6770   31.8400   46.1910 C   0  0  0  0  0  0  0  0  0  0  0  0
   58.8460   30.3830   46.1450 C   0  0  0  0  0  0  0  0  0  0  0  0
   58.4940   29.6190   47.2480 C   0  0  0  0  0  0  0  0  0  0  0  0
   58.6350   28.2360   47.2550 C   0  0  0  0  0  0  0  0  0  0  0  0
   59.1380   27.6390   46.1250 C   0  0  0  0  0  0  0  0  0  0  0  0
   59.4930   28.3840   45.0230 C   0  0  0  0  0  0  0  0  0  0  0  0
   59.3550   29.7650   45.0070 C   0  0  0  0  0  0  0  0  0  0  0  0
   55.3330   30.0910   45.6240 H   0  0  0  0  0  0  0  0  0  0  0  0
   56.8898   28.7667   44.0804 H   0  0  0  0  0  0  0  0  0  0  0  0
   55.5496   29.3232   42.9878 H   0  0  0  0  0  0  0  0  0  0  0  0
   57.7273   30.7557   43.5889 H   0  0  0  0  0  0  0  0  0  0  0  0
   56.0390   31.4163   43.1730 H   0  0  0  0  0  0  0  0  0  0  0  0
   56.6249   34.3334   45.2904 H   0  0  0  0  0  0  0  0  0  0  0  0
   58.3788   35.6676   46.3923 H   0  0  0  0  0  0  0  0  0  0  0  0
   61.5585   34.1388   49.9351 H   0  0  0  0  0  0  0  0  0  0  0  0
   63.7975   33.0621   50.1935 H   0  0  0  0  0  0  0  0  0  0  0  0
   65.0890   32.5220   48.1650 H   0  0  0  0  0  0  0  0  0  0  0  0
   64.3053   32.9732   45.9759 H   0  0  0  0  0  0  0  0  0  0  0  0
   60.5317   32.0623   47.2417 H   0  0  0  0  0  0  0  0  0  0  0  0
   58.0926   30.1208   48.1408 H   0  0  0  0  0  0  0  0  0  0  0  0
   58.3533   27.6401   48.1356 H   0  0  0  0  0  0  0  0  0  0  0  0
   59.2594   26.5460   46.1000 H   0  0  0  0  0  0  0  0  0  0  0  0
   59.8949   27.8734   44.1355 H   0  0  0  0  0  0  0  0  0  0  0  0
   59.6393   30.3529   44.1218 H   0  0  0  0  0  0  0  0  0  0  0  0
  1  2  1  0
  2  3  1  0
  3  4  1  0
  4  5  1  0
  5  6  2  0
  6  7  1  0
  7  8  2  0
  8  9  1  0
  9 10  2  0
 10 11  1  0
 11 12  2  0
 12 13  1  0
 13 14  1  0
 14 15  2  0
  8 16  1  0
 16 17  2  0
 17 18  1  0
 18 19  2  0
 19 20  1  0
 20 21  2  0
 21 22  1  0
 22 23  2  0
 17  5  1  0
 23 18  1  0
 15 10  1  0
  1 24  1  0
  2 25  1  0
  2 26  1  0
  3 27  1  0
  3 28  1  0
  6 29  1  0
  7 30  1  0
 11 31  1  0
 12 32  1  0
 13 33  1  0
 14 34  1  0
 16 35  1  0
 19 36  1  0
 20 37  1  0
 21 38  1  0
 22 39  1  0
 23 40  1  0
M  END
>  <smiles>  (27) 
OCCOc1ccc(N=c2cc[nH]cn2)cc1-c1ccccc1

>  <score_type>  (27) 
oracle

>  <origin>  (27) 
adg

>  <m_score__min__energy>  (27) 
-8.5899999999999999

>  <m_primary>  (27) 
energy

$$$$
27:0
     RDKit          3D

 35 37  0  0  0  0  0  0  0  0999 V2000
   53.9290   21.7480   47.2150 C   0  0  0  0  0  0  0  0  0  0  0  0
   53.4390   22.4720   46.0030 C   0  0  0  0  0  0  0  0  0  0  0  0
   52.1450   22.5340   45.6430 N   0  0  0  0  0  0  0  0  0  0  0  0
   52.1480   23.3320   44.5540 C   0  0  0  0  0  0  0  0  0  0  0  0
   53.3740   23.7890   44.2170 N   0  0  0  0  0  0  0  0  0  0  0  0
   54.1890   23.2370   45.1320 C   0  0  0  0  0  0  0  0  0  0  0  0
   55.6600   23.5170   45.2090 C   0  0  0  0  0  0  0  0  0  0  0  0
   55.9120   24.9640   45.4930 C   0  0  0  0  0  0  0  0  0  0  0  0
   54.9760   25.7990   45.9800 N   0  0  0  0  0  0  0  0  0  0  0  0
   55.5180   27.0050   46.0020 N   0  0  0  0  0  0  0  0  0  0  0  0
   56.7700   26.8680   45.5280 C   0  0  0  0  0  0  0  0  0  0  0  0
   57.6930   28.0160   45.2810 C   0  0  0  0  0  0  0  0  0  0  0  0
   56.8230   29.3330   44.4500 S   0  0  0  0  0  0  0  0  0  0  0  0
   56.8720   29.1090   42.9640 O   0  0  0  0  0  0  0  0  0  0  0  0
   55.3850   29.3350   44.8850 O   0  0  0  0  0  0  0  0  0  0  0  0
   57.5620   30.8830   44.8440 C   0  0  0  0  0  0  0  0  0  0  0  0
   58.2330   31.0520   46.0640 C   0  0  0  0  0  0  0  0  0  0  0  0
   58.8490   32.2710   46.3640 C   0  0  0  0  0  0  0  0  0  0  0  0
   58.8040   33.3240   45.4450 C   0  0  0  0  0  0  0  0  0  0  0  0
   58.1460   33.1570   44.2240 C   0  0  0  0  0  0  0  0  0  0  0  0
   57.5260   31.9400   43.9220 C   0  0  0  0  0  0  0  0  0  0  0  0
   57.0560   25.6010   45.1750 N   0  0  0  0  0  0  0  0  0  0  0  0
   53.5778   22.2669   48.1191 H   0  0  0  0  0  0  0  0  0  0  0  0
   53.5411   20.7187   47.2090 H   0  0  0  0  0  0  0  0  0  0  0  0
   55.0288   21.7255   47.2090 H   0  0  0  0  0  0  0  0  0  0  0  0
   51.2367   23.5866   43.9930 H   0  0  0  0  0  0  0  0  0  0  0  0
   56.1009   22.9097   46.0132 H   0  0  0  0  0  0  0  0  0  0  0  0
   56.1180   23.2629   44.2417 H   0  0  0  0  0  0  0  0  0  0  0  0
   58.0800   28.3852   46.2422 H   0  0  0  0  0  0  0  0  0  0  0  0
   58.5263   27.6785   44.6472 H   0  0  0  0  0  0  0  0  0  0  0  0
   58.2748   30.2236   46.7866 H   0  0  0  0  0  0  0  0  0  0  0  0
   59.3696   32.4017   47.3241 H   0  0  0  0  0  0  0  0  0  0  0  0
   59.2865   34.2834   45.6834 H   0  0  0  0  0  0  0  0  0  0  0  0
   58.1154   33.9837   43.4990 H   0  0  0  0  0  0  0  0  0  0  0  0
   57.0091   31.8114   42.9596 H   0  0  0  0  0  0  0  0  0  0  0  0
  1  2  1  0
  2  3  1  0
  3  4  1  0
  4  5  2  0
  5  6  1  0
  6  7  1  0
  7  8  1  0
  8  9  2  0
  9 10  1  0
 10 11  1  0
 11 12  1  0
 12 13  1  0
 13 14  2  0
 13 15  2  0
 13 16  1  0
 16 17  2  0
 17 18  1  0
 18 19  2  0
 19 20  1  0
 20 21  2  0
 11 22  2  0
  6  2  2  0
 22  8  1  0
 21 16  1  0
  1 23  1  0
  1 24  1  0
  1 25  1  0
  4 26  1  0
  7 27  1  0
  7 28  1  0
 12 29  1  0
 12 30  1  0
 17 31  1  0
 18 32  1  0
 19 33  1  0
 20 34  1  0
 21 35  1  0
M  CHG  2   3  -1  10  -1
M  END
>  <UniqueID>  (28) 
26

>  <SMILES>  (28) 
Cc1[n-]cnc1Cc1n[n-]c(CS(=O)(=O)c2ccccc2)n1

>  <Energy>  (28) 
86.65510212332586

>  <Genealogy>  (28) 
Cc1[n-]cnc1Cc1n[n-]c(CS(=O)(=O)c2ccccc2)n1 (protonated)
Cc1[n-]cnc1Cc1n[n-]c(CS(=O)(=O)c2ccccc2)n1 (3D coordinates assigned)
Cc1[n-]cnc1Cc1n[n-]c(CS(=O)(=O)c2ccccc2)n1 (optimized conformer: 86.65510212332586 kcal/mol)

>  <smiles>  (28) 
Cc1[nH]cnc1Cc1n[nH]c(CS(=O)(=O)c2ccccc2)n1

>  <score_type>  (28) 
oracle

>  <origin>  (28) 
adg

>  <m_score__min__energy>  (28) 
-11.65

>  <m_primary>  (28) 
energy

$$$$
28:0
     RDKit          3D

 29 31  0  0  0  0  0  0  0  0999 V2000
   55.2650   29.3180   45.0550 O   0  0  0  0  0  0  0  0  0  0  0  0
   56.4150   29.7420   44.7640 C   0  0  0  0  0  0  0  0  0  0  0  0
   57.5910   28.8260   44.8820 C   0  0  0  0  0  0  0  0  0  0  0  0
   57.6980   28.1260   46.5650 S   0  0  0  0  0  0  0  0  0  0  0  0
   56.9390   26.5580   46.1320 C   0  0  0  0  0  0  0  0  0  0  0  0
   55.5810   26.4510   46.0260 N   0  0  0  0  0  0  0  0  0  0  0  0
   54.9820   25.2570   45.7130 C   0  0  0  0  0  0  0  0  0  0  0  0
   53.7280   25.1900   45.6300 O   0  0  0  0  0  0  0  0  0  0  0  0
   55.7390   24.1410   45.4930 N   0  0  0  0  0  0  0  0  0  0  0  0
   57.0860   24.2530   45.5920 C   0  0  0  0  0  0  0  0  0  0  0  0
   57.9850   23.2760   45.4170 N   0  0  0  0  0  0  0  0  0  0  0  0
   59.1580   23.9290   45.6390 C   0  0  0  0  0  0  0  0  0  0  0  0
   59.0240   25.2510   45.9400 N   0  0  0  0  0  0  0  0  0  0  0  0
   57.6940   25.4170   45.8980 C   0  0  0  0  0  0  0  0  0  0  0  0
   56.6290   31.1170   44.4190 N   0  0  0  0  0  0  0  0  0  0  0  0
   57.4420   32.0650   45.1240 C   0  0  0  0  0  0  0  0  0  0  0  0
   58.1310   31.7300   46.3050 C   0  0  0  0  0  0  0  0  0  0  0  0
   58.9000   32.6930   46.9670 C   0  0  0  0  0  0  0  0  0  0  0  0
   58.9770   33.9960   46.4650 C   0  0  0  0  0  0  0  0  0  0  0  0
   59.7220   34.9270   47.1100 F   0  0  0  0  0  0  0  0  0  0  0  0
   58.2770   34.3390   45.3060 C   0  0  0  0  0  0  0  0  0  0  0  0
   57.5070   33.3790   44.6430 C   0  0  0  0  0  0  0  0  0  0  0  0
   57.4845   28.0064   44.1562 H   0  0  0  0  0  0  0  0  0  0  0  0
   58.5075   29.3993   44.6787 H   0  0  0  0  0  0  0  0  0  0  0  0
   60.1363   23.4294   45.5801 H   0  0  0  0  0  0  0  0  0  0  0  0
   58.0646   30.7087   46.7082 H   0  0  0  0  0  0  0  0  0  0  0  0
   59.4451   32.4248   47.8840 H   0  0  0  0  0  0  0  0  0  0  0  0
   58.3317   35.3655   44.9146 H   0  0  0  0  0  0  0  0  0  0  0  0
   56.9482   33.6574   43.7373 H   0  0  0  0  0  0  0  0  0  0  0  0
  1  2  2  0
  2  3  1  0
  3  4  1  0
  4  5  1  0
  5  6  1  0
  6  7  1  0
  7  8  2  0
  7  9  1  0
  9 10  2  0
 10 11  1  0
 11 12  1  0
 12 13  2  0
 13 14  1  0
  2 15  1  0
 15 16  1  0
 16 17  2  0
 17 18  1  0
 18 19  2  0
 19 20  1  0
 19 21  1  0
 21 22  2  0
 14  5  2  0
 22 16  1  0
 14 10  1  0
  3 23  1  0
  3 24  1  0
 12 25  1  0
 17 26  1  0
 18 27  1  0
 21 28  1  0
 22 29  1  0
M  CHG  3   6  -1  11  -1  15  -1
M  END
>  <UniqueID>  (29) 
27

>  <SMILES>  (29) 
O=C(CSc1[n-]c(=O)nc2[n-]cnc12)[N-]c1ccc(F)cc1

>  <Energy>  (29) 
67.56616267726919

>  <Genealogy>  (29) 
O=C(CSc1[n-]c(=O)nc2[n-]cnc12)[N-]c1ccc(F)cc1 (protonated)
O=C(CSc1[n-]c(=O)nc2[n-]cnc12)[N-]c1ccc(F)cc1 (3D coordinates assigned)
O=C(CSc1[n-]c(=O)nc2[n-]cnc12)[N-]c1ccc(F)cc1 (optimized conformer: 67.56616267726919 kcal/mol)

>  <smiles>  (29) 
O=C(CSc1[nH]c(=O)nc2[nH]cnc12)Nc1ccc(F)cc1

>  <score_type>  (29) 
oracle

>  <origin>  (29) 
adg

>  <m_score__min__energy>  (29) 
-11.25

>  <m_primary>  (29) 
energy

$$$$
29:0
     RDKit          3D

 49 51  0  0  0  0  0  0  0  0999 V2000
   60.8270   27.9740   50.1610 O   0  0  0  0  0  0  0  0  0  0  0  0
   60.0730   28.2530   49.1910 C   0  0  0  0  0  0  0  0  0  0  0  0
   60.4070   27.7120   47.8280 C   0  0  0  0  0  0  0  0  0  0  0  0
   59.6830   28.4920   46.7770 C   0  0  0  0  0  0  0  0  0  0  0  0
   60.2710   29.3450   45.8480 C   0  0  0  0  0  0  0  0  0  0  0  0
   59.3400   29.9800   45.0190 C   0  0  0  0  0  0  0  0  0  0  0  0
   58.0300   29.6350   45.3140 C   0  0  0  0  0  0  0  0  0  0  0  0
   56.6080   30.2130   44.4680 S   0  0  0  0  0  0  0  0  0  0  0  0
   56.8040   30.0920   42.9830 O   0  0  0  0  0  0  0  0  0  0  0  0
   55.4380   29.3640   44.8720 O   0  0  0  0  0  0  0  0  0  0  0  0
   56.2700   31.8670   44.8690 N   0  0  0  0  0  0  0  0  0  0  0  0
   57.1600   32.7810   45.5240 C   0  0  0  0  0  0  0  0  0  0  0  0
   56.9300   33.0900   46.7220 O   0  0  0  0  0  0  0  0  0  0  0  0
   58.3720   33.3580   44.8500 C   0  0  0  0  0  0  0  0  0  0  0  0
   59.5760   33.0030   45.5950 N   0  0  0  0  0  0  0  0  0  0  0  0
   59.9680   34.2700   46.7170 S   0  0  0  0  0  0  0  0  0  0  0  0
   60.1150   35.5820   45.9950 O   0  0  0  0  0  0  0  0  0  0  0  0
   58.8550   34.4020   47.7180 O   0  0  0  0  0  0  0  0  0  0  0  0
   61.4580   33.8710   47.5620 C   0  0  0  0  0  0  0  0  0  0  0  0
   61.5990   34.1440   48.9320 C   0  0  0  0  0  0  0  0  0  0  0  0
   62.7930   33.8340   49.5920 C   0  0  0  0  0  0  0  0  0  0  0  0
   63.8520   33.2500   48.8860 C   0  0  0  0  0  0  0  0  0  0  0  0
   65.3480   32.8600   49.7150 Cl  0  0  0  0  0  0  0  0  0  0  0  0
   63.7160   32.9800   47.5210 C   0  0  0  0  0  0  0  0  0  0  0  0
   62.5240   33.2920   46.8590 C   0  0  0  0  0  0  0  0  0  0  0  0
   58.0100   28.5480   46.5960 S   0  0  0  0  0  0  0  0  0  0  0  0
   58.8760   29.0050   49.4410 N   0  0  0  0  0  0  0  0  0  0  0  0
   58.8110   30.2790   50.0940 C   0  0  0  0  0  0  0  0  0  0  0  0
   58.7460   30.3180   51.4910 C   0  0  0  0  0  0  0  0  0  0  0  0
   58.6960   31.5430   52.1640 C   0  0  0  0  0  0  0  0  0  0  0  0
   58.5840   31.5810   53.9140 Cl  0  0  0  0  0  0  0  0  0  0  0  0
   58.7390   32.7380   51.4400 C   0  0  0  0  0  0  0  0  0  0  0  0
   58.8400   32.7090   50.0490 C   0  0  0  0  0  0  0  0  0  0  0  0
   58.8880   31.4840   49.3690 C   0  0  0  0  0  0  0  0  0  0  0  0
   59.0350   31.4620   47.9820 O   0  0  0  0  0  0  0  0  0  0  0  0
   61.4910   27.7926   47.6596 H   0  0  0  0  0  0  0  0  0  0  0  0
   60.0984   26.6576   47.7722 H   0  0  0  0  0  0  0  0  0  0  0  0
   61.3569   29.5038   45.7731 H   0  0  0  0  0  0  0  0  0  0  0  0
   59.6182   30.6797   44.2171 H   0  0  0  0  0  0  0  0  0  0  0  0
   58.4452   32.9579   43.8280 H   0  0  0  0  0  0  0  0  0  0  0  0
   58.2786   34.4535   44.8169 H   0  0  0  0  0  0  0  0  0  0  0  0
   60.7682   34.6030   49.4880 H   0  0  0  0  0  0  0  0  0  0  0  0
   62.8999   34.0490   50.6655 H   0  0  0  0  0  0  0  0  0  0  0  0
   64.5480   32.5213   46.9666 H   0  0  0  0  0  0  0  0  0  0  0  0
   62.4226   33.0825   45.7839 H   0  0  0  0  0  0  0  0  0  0  0  0
   58.7341   29.3790   52.0638 H   0  0  0  0  0  0  0  0  0  0  0  0
   58.6931   33.7021   51.9676 H   0  0  0  0  0  0  0  0  0  0  0  0
   58.8822   33.6514   49.4832 H   0  0  0  0  0  0  0  0  0  0  0  0
   58.7930   32.2630   47.4100 H   0  0  0  0  0  0  0  0  0  0  0  0
  1  2  2  0
  2  3  1  0
  3  4  1  0
  4  5  2  0
  5  6  1  0
  6  7  2  0
  7  8  1  0
  8  9  2  0
  8 10  2  0
  8 11  1  0
 11 12  1  0
 12 13  2  0
 12 14  1  0
 14 15  1  0
 15 16  1  0
 16 17  2  0
 16 18  2  0
 16 19  1  0
 19 20  2  0
 20 21  1  0
 21 22  2  0
 22 23  1  0
 22 24  1  0
 24 25  2  0
  7 26  1  0
  2 27  1  0
 27 28  1  0
 28 29  2  0
 29 30  1  0
 30 31  1  0
 30 32  2  0
 32 33  1  0
 33 34  2  0
 34 35  1  0
 26  4  1  0
 34 28  1  0
 25 19  1  0
  3 36  1  0
  3 37  1  0
  5 38  1  0
  6 39  1  0
 14 40  1  0
 14 41  1  0
 20 42  1  0
 21 43  1  0
 24 44  1  0
 25 45  1  0
 29 46  1  0
 32 47  1  0
 33 48  1  0
 35 49  1  0
M  CHG  3  11  -1  15  -1  27  -1
M  END
>  <UniqueID>  (30) 
28

>  <SMILES>  (30) 
O=C(Cc1ccc(S(=O)(=O)[N-]C(=O)C[N-]S(=O)(=O)c2ccc(Cl)cc2)s1)[N-]c1cc(Cl)ccc1O

>  <Energy>  (30) 
80.39290277746235

>  <Genealogy>  (30) 
O=C(Cc1ccc(S(=O)(=O)[N-]C(=O)C[N-]S(=O)(=O)c2ccc(Cl)cc2)s1)[N-]c1cc(Cl)ccc1O (protonated)
O=C(Cc1ccc(S(=O)(=O)[N-]C(=O)C[N-]S(=O)(=O)c2ccc(Cl)cc2)s1)[N-]c1cc(Cl)ccc1O (3D coordinates assigned)
O=C(Cc1ccc(S(=O)(=O)[N-]C(=O)C[N-]S(=O)(=O)c2ccc(Cl)cc2)s1)[N-]c1cc(Cl)ccc1O (optimized conformer: 80.39290277746235 kcal/mol)

>  <smiles>  (30) 
O=C(Cc1ccc(S(=O)(=O)NC(=O)CNS(=O)(=O)c2ccc(Cl)cc2)s1)Nc1cc(Cl)ccc1O

>  <score_type>  (30) 
oracle

>  <origin>  (30) 
adg

>  <m_score__min__energy>  (30) 
-15.130000000000001

>  <m_primary>  (30) 
energy

$$$$
30:0
     RDKit          3D

 65 68  0  0  0  0  0  0  0  0999 V2000
   59.8762   30.6936   49.3149 H   0  0  0  0  0  0  0  0  0  0  0  0
   59.8380   29.8680   48.5890 C   0  0  0  0  0  0  0  0  0  0  0  0
   60.7490   29.8280   47.5270 C   0  0  0  0  0  0  0  0  0  0  0  0
   61.5067   30.6187   47.4231 H   0  0  0  0  0  0  0  0  0  0  0  0
   60.6970   28.7840   46.5980 C   0  0  0  0  0  0  0  0  0  0  0  0
   61.4158   28.7544   45.7659 H   0  0  0  0  0  0  0  0  0  0  0  0
   59.7290   27.7720   46.7240 C   0  0  0  0  0  0  0  0  0  0  0  0
   59.6780   26.6440   45.7250 C   0  0  0  0  0  0  0  0  0  0  0  0
   60.1128   25.7439   46.1841 H   0  0  0  0  0  0  0  0  0  0  0  0
   60.2468   26.9535   44.8358 H   0  0  0  0  0  0  0  0  0  0  0  0
   58.2380   26.3280   45.2800 C   0  0  0  0  0  0  0  0  0  0  0  0
   57.5909   26.3183   46.1695 H   0  0  0  0  0  0  0  0  0  0  0  0
   58.2578   25.3513   44.7744 H   0  0  0  0  0  0  0  0  0  0  0  0
   57.6760   27.3550   44.2750 C   0  0  1  0  0  0  0  0  0  0  0  0
   56.5779   27.3196   44.3285 H   0  0  0  0  0  0  0  0  0  0  0  0
   58.1390   28.7040   44.6130 N   0  0  0  0  0  0  0  0  0  0  0  0
   59.1710   28.8700   44.6470 H   0  0  0  0  0  0  0  0  0  0  0  0
   57.2470   29.8120   44.8120 C   0  0  0  0  0  0  0  0  0  0  0  0
   56.0040   29.6180   44.8760 O   0  0  0  0  0  0  0  0  0  0  0  0
   57.7720   31.1870   44.9670 C   0  0  0  0  0  0  0  0  0  0  0  0
   57.5200   32.1660   43.9880 C   0  0  0  0  0  0  0  0  0  0  0  0
   56.9342   31.9054   43.0942 H   0  0  0  0  0  0  0  0  0  0  0  0
   58.0080   33.4670   44.1420 C   0  0  0  0  0  0  0  0  0  0  0  0
   57.8036   34.2268   43.3732 H   0  0  0  0  0  0  0  0  0  0  0  0
   58.7570   33.8010   45.2760 C   0  0  0  0  0  0  0  0  0  0  0  0
   59.2660   35.0880   45.4720 C   0  0  0  0  0  0  0  0  0  0  0  0
   59.0800   35.8737   44.7249 H   0  0  0  0  0  0  0  0  0  0  0  0
   59.9910   35.3670   46.5870 N   0  0  0  0  0  0  0  0  0  0  0  0
   60.2330   34.4180   47.5300 C   0  0  0  0  0  0  0  0  0  0  0  0
   60.9610   34.7260   48.5650 N   0  0  0  0  0  0  0  0  0  0  0  0
   61.7890   33.8410   49.3430 C   0  0  0  0  0  0  0  0  0  0  0  0
   63.1110   33.5440   48.9660 C   0  0  0  0  0  0  0  0  0  0  0  0
   63.5334   33.9987   48.0578 H   0  0  0  0  0  0  0  0  0  0  0  0
   63.8980   32.6720   49.7380 C   0  0  0  0  0  0  0  0  0  0  0  0
   65.2290   32.3740   49.4010 O   0  0  0  0  0  0  0  0  0  0  0  0
   66.3610   32.7400   50.1840 C   0  0  0  0  0  0  0  0  0  0  0  0
   66.1099   32.6588   51.2519 H   0  0  0  0  0  0  0  0  0  0  0  0
   67.2000   32.0673   49.9524 H   0  0  0  0  0  0  0  0  0  0  0  0
   66.6474   33.7765   49.9524 H   0  0  0  0  0  0  0  0  0  0  0  0
   63.3510   32.0710   50.8810 C   0  0  0  0  0  0  0  0  0  0  0  0
   64.1680   31.2180   51.6400 O   0  0  0  0  0  0  0  0  0  0  0  0
   64.0650   29.7970   51.6500 C   0  0  0  0  0  0  0  0  0  0  0  0
   64.0390   29.4386   52.6896 H   0  0  0  0  0  0  0  0  0  0  0  0
   63.1424   29.4926   51.1340 H   0  0  0  0  0  0  0  0  0  0  0  0
   64.9340   29.3627   51.1340 H   0  0  0  0  0  0  0  0  0  0  0  0
   62.0130   32.3310   51.2300 C   0  0  0  0  0  0  0  0  0  0  0  0
   61.5782   31.8462   52.1165 H   0  0  0  0  0  0  0  0  0  0  0  0
   61.2250   33.2040   50.4580 C   0  0  0  0  0  0  0  0  0  0  0  0
   59.8800   33.4650   50.7690 O   0  0  0  0  0  0  0  0  0  0  0  0
   58.7980   32.5890   50.4700 C   0  0  0  0  0  0  0  0  0  0  0  0
   58.3501   32.2264   51.4070 H   0  0  0  0  0  0  0  0  0  0  0  0
   58.0389   33.1300   49.8860 H   0  0  0  0  0  0  0  0  0  0  0  0
   59.1692   31.7339   49.8860 H   0  0  0  0  0  0  0  0  0  0  0  0
   59.7530   33.1550   47.3530 N   0  0  0  0  0  0  0  0  0  0  0  0
   59.0170   32.8290   46.2600 C   0  0  0  0  0  0  0  0  0  0  0  0
   58.5150   31.5310   46.1100 C   0  0  0  0  0  0  0  0  0  0  0  0
   58.7025   30.7774   46.8891 H   0  0  0  0  0  0  0  0  0  0  0  0
   58.1260   27.0130   42.8520 C   0  0  0  0  0  0  0  0  0  0  0  0
   59.0011   26.3479   42.8941 H   0  0  0  0  0  0  0  0  0  0  0  0
   57.3066   26.5076   42.3198 H   0  0  0  0  0  0  0  0  0  0  0  0
   58.3935   27.9378   42.3198 H   0  0  0  0  0  0  0  0  0  0  0  0
   58.8230   27.8150   47.8010 C   0  0  0  0  0  0  0  0  0  0  0  0
   58.0675   27.0234   47.9134 H   0  0  0  0  0  0  0  0  0  0  0  0
   58.8800   28.8600   48.7280 C   0  0  0  0  0  0  0  0  0  0  0  0
   58.1700   28.8888   49.5677 H   0  0  0  0  0  0  0  0  0  0  0  0
  1  2  1  0
  2  3  2  0
  3  4  1  0
  3  5  1  0
  5  6  1  0
  5  7  2  0
  7  8  1  0
  8  9  1  0
  8 10  1  0
  8 11  1  0
 11 12  1  0
 11 13  1  0
 11 14  1  0
 14 15  1  6
 14 16  1  0
 16 17  1  0
 16 18  1  0
 18 19  2  0
 18 20  1  0
 20 21  1  0
 21 22  1  0
 21 23  2  0
 23 24  1  0
 23 25  1  0
 25 26  2  0
 26 27  1  0
 26 28  1  0
 28 29  1  0
 29 30  2  0
 30 31  1  0
 31 32  2  0
 32 33  1  0
 32 34  1  0
 34 35  1  0
 35 36  1  0
 36 37  1  0
 36 38  1  0
 36 39  1  0
 34 40  2  0
 40 41  1  0
 41 42  1  0
 42 43  1  0
 42 44  1  0
 42 45  1  0
 40 46  1  0
 46 47  1  0
 46 48  2  0
 48 49  1  0
 49 50  1  0
 50 51  1  0
 50 52  1  0
 50 53  1  0
 29 54  1  0
 54 55  2  0
 55 56  1  0
 56 57  1  0
 14 58  1  0
 58 59  1  0
 58 60  1  0
 58 61  1  0
  7 62  1  0
 62 63  1  0
 62 64  2  0
 64 65  1  0
 64  2  1  0
 56 20  2  0
 55 25  1  0
 48 31  1  0
M  CHG  1  28  -1
M  END
>  <UniqueID>  (31) 
29

>  <SMILES>  (31) 
COc1cc(OC)c(OC)cc1/N=c1\nc2cc(C(=O)N[C@@H](C)CCc3ccccc3)ccc2c[n-]1

>  <Energy>  (31) 
72.38684186459132

>  <Genealogy>  (31) 
COc1cc(OC)c(OC)cc1N=c1nc2cc(C(=O)NC(C)CCc3ccccc3)ccc2c[n-]1 (protonated)
COc1cc(OC)c(OC)cc1N=c1nc2cc(C(=O)N[C@@H](C)CCc3ccccc3)ccc2c[n-]1 (chirality)
COc1cc(OC)c(OC)cc1/N=c1\nc2cc(C(=O)N[C@@H](C)CCc3ccccc3)ccc2c[n-]1 (cis-trans isomerization)
COc1cc(OC)c(OC)cc1/N=c1\nc2cc(C(=O)N[C@@H](C)CCc3ccccc3)ccc2c[n-]1 (3D coordinates assigned)
COc1cc(OC)c(OC)cc1/N=c1\nc2cc(C(=O)N[C@@H](C)CCc3ccccc3)ccc2c[n-]1 (optimized conformer: 72.38684186459132 kcal/mol)

>  <smiles>  (31) 
COc1cc(OC)c(OC)cc1N=c1nc2cc(C(=O)NC(C)CCc3ccccc3)ccc2c[nH]1

>  <score_type>  (31) 
oracle

>  <origin>  (31) 
adg

>  <m_score__min__energy>  (31) 
-11.31

>  <m_primary>  (31) 
energy

$$$$
31:0
     RDKit          3D

 48 50  0  0  0  0  0  0  0  0999 V2000
   51.3200   24.4020   44.1920 C   0  0  0  0  0  0  0  0  0  0  0  0
   52.4610   23.9140   45.0350 C   0  0  0  0  0  0  0  0  0  0  0  0
   52.5720   22.6760   45.2340 O   0  0  0  0  0  0  0  0  0  0  0  0
   53.4380   24.7920   45.6260 N   0  0  0  0  0  0  0  0  0  0  0  0
   54.7340   24.7860   45.4910 C   0  0  0  0  0  0  0  0  0  0  0  0
   55.3170   23.9050   44.5710 C   0  0  0  0  0  0  0  0  0  0  0  0
   56.7060   23.8790   44.4280 C   0  0  0  0  0  0  0  0  0  0  0  0
   57.5020   24.7280   45.1980 C   0  0  0  0  0  0  0  0  0  0  0  0
   56.8890   25.6080   46.1000 C   0  0  0  0  0  0  0  0  0  0  0  0
   57.7130   26.4980   46.9850 C   0  0  0  0  0  0  0  0  0  0  0  0
   58.5170   27.4520   46.1440 C   0  0  0  0  0  0  0  0  0  0  0  0
   59.9040   27.2920   46.0180 C   0  0  0  0  0  0  0  0  0  0  0  0
   60.6490   28.1980   45.2610 C   0  0  0  0  0  0  0  0  0  0  0  0
   60.0210   29.2830   44.6430 C   0  0  0  0  0  0  0  0  0  0  0  0
   58.6370   29.4790   44.7880 C   0  0  0  0  0  0  0  0  0  0  0  0
   57.9850   30.6430   44.1420 C   0  0  0  0  0  0  0  0  0  0  0  0
   58.5630   31.2100   43.1760 O   0  0  0  0  0  0  0  0  0  0  0  0
   56.6930   31.1830   44.6090 C   0  0  0  0  0  0  0  0  0  0  0  0
   55.6340   30.5200   44.4420 O   0  0  0  0  0  0  0  0  0  0  0  0
   56.6560   32.4930   45.1970 N   0  0  0  0  0  0  0  0  0  0  0  0
   57.6490   33.2570   45.5660 C   0  0  0  0  0  0  0  0  0  0  0  0
   58.1020   33.1590   46.8880 C   0  0  0  0  0  0  0  0  0  0  0  0
   59.1720   33.9500   47.3240 C   0  0  0  0  0  0  0  0  0  0  0  0
   59.6450   33.8720   48.7450 C   0  0  0  0  0  0  0  0  0  0  0  0
   59.7500   34.8640   46.4360 C   0  0  0  0  0  0  0  0  0  0  0  0
   59.2620   34.9580   45.1330 C   0  0  0  0  0  0  0  0  0  0  0  0
   58.2320   34.1680   44.7230 N   0  0  0  0  0  0  0  0  0  0  0  0
   57.8880   28.5460   45.5290 C   0  0  0  0  0  0  0  0  0  0  0  0
   55.5350   25.6050   46.2290 N   0  0  0  0  0  0  0  0  0  0  0  0
   50.5053   24.7504   44.8438 H   0  0  0  0  0  0  0  0  0  0  0  0
   51.6622   25.2325   43.5570 H   0  0  0  0  0  0  0  0  0  0  0  0
   50.9558   23.5809   43.5570 H   0  0  0  0  0  0  0  0  0  0  0  0
   54.6853   23.2384   43.9655 H   0  0  0  0  0  0  0  0  0  0  0  0
   57.1723   23.1896   43.7088 H   0  0  0  0  0  0  0  0  0  0  0  0
   58.5973   24.7067   45.0982 H   0  0  0  0  0  0  0  0  0  0  0  0
   57.0477   27.0689   47.6494 H   0  0  0  0  0  0  0  0  0  0  0  0
   58.3963   25.8798   47.5857 H   0  0  0  0  0  0  0  0  0  0  0  0
   60.4066   26.4503   46.5169 H   0  0  0  0  0  0  0  0  0  0  0  0
   61.7344   28.0574   45.1505 H   0  0  0  0  0  0  0  0  0  0  0  0
   60.6131   29.9871   44.0400 H   0  0  0  0  0  0  0  0  0  0  0  0
   57.6164   32.4597   47.5845 H   0  0  0  0  0  0  0  0  0  0  0  0
   58.7911   34.0128   49.4239 H   0  0  0  0  0  0  0  0  0  0  0  0
   60.0993   32.8868   48.9267 H   0  0  0  0  0  0  0  0  0  0  0  0
   60.3916   34.6592   48.9267 H   0  0  0  0  0  0  0  0  0  0  0  0
   60.5830   35.5035   46.7632 H   0  0  0  0  0  0  0  0  0  0  0  0
   59.7126   35.6756   44.4315 H   0  0  0  0  0  0  0  0  0  0  0  0
   57.8800   34.3270   43.7560 H   0  0  0  0  0  0  0  0  0  0  0  0
   56.8000   28.6751   45.6272 H   0  0  0  0  0  0  0  0  0  0  0  0
  1  2  1  0
  2  3  2  0
  2  4  1  0
  4  5  2  3
  5  6  1  0
  6  7  2  0
  7  8  1  0
  8  9  2  0
  9 10  1  0
 10 11  1  0
 11 12  2  0
 12 13  1  0
 13 14  2  0
 14 15  1  0
 15 16  1  0
 16 17  2  0
 16 18  1  0
 18 19  2  0
 18 20  1  0
 20 21  2  3
 21 22  1  0
 22 23  2  0
 23 24  1  0
 23 25  1  0
 25 26  2  0
 26 27  1  0
 15 28  2  0
  9 29  1  0
 29  5  1  0
 28 11  1  0
 27 21  1  0
  1 30  1  0
  1 31  1  0
  1 32  1  0
  6 33  1  0
  7 34  1  0
  8 35  1  0
 10 36  1  0
 10 37  1  0
 12 38  1  0
 13 39  1  0
 14 40  1  0
 22 41  1  0
 24 42  1  0
 24 43  1  0
 24 44  1  0
 25 45  1  0
 26 46  1  0
 27 47  1  0
 28 48  1  0
M  CHG  1  29  -1
M  END
>  <UniqueID>  (32) 
30

>  <SMILES>  (32) 
CC(=O)N=c1cccc(Cc2cccc(C(=O)C(=O)N=c3cc(C)cc[nH]3)c2)[n-]1

>  <Energy>  (32) 
60.92484926370582

>  <Genealogy>  (32) 
CC(=O)N=c1cccc(Cc2cccc(C(=O)C(=O)N=c3cc(C)cc[nH]3)c2)[n-]1 (protonated)
CC(=O)N=c1cccc(Cc2cccc(C(=O)C(=O)N=c3cc(C)cc[nH]3)c2)[n-]1 (3D coordinates assigned)
CC(=O)N=c1cccc(Cc2cccc(C(=O)C(=O)N=c3cc(C)cc[nH]3)c2)[n-]1 (optimized conformer: 60.92484926370582 kcal/mol)

>  <smiles>  (32) 
CC(=O)N=c1cccc(Cc2cccc(C(=O)C(=O)N=c3cc(C)cc[nH]3)c2)[nH]1

>  <score_type>  (32) 
oracle

>  <origin>  (32) 
adg

>  <m_score__min__energy>  (32) 
-11.43

>  <m_primary>  (32) 
energy

$$$$
32:0
     RDKit          3D

 51 53  0  0  1  0  0  0  0  0999 V2000
   52.4780   22.2360   49.9230 C   0  0  0  0  0  0  0  0  0  0  0  0
   52.5090   22.4290   48.5230 O   0  0  0  0  0  0  0  0  0  0  0  0
   53.7530   22.5910   47.9120 C   0  0  0  0  0  0  0  0  0  0  0  0
   53.7960   22.9900   46.5860 C   0  0  0  0  0  0  0  0  0  0  0  0
   55.0340   23.1450   45.9990 C   0  0  0  0  0  0  0  0  0  0  0  0
   55.1910   23.5140   44.7700 N   0  0  0  0  0  0  0  0  0  0  0  0
   56.7580   23.5980   44.0970 S   0  0  0  0  0  0  0  0  0  0  0  0
   56.6420   23.2780   42.6290 O   0  0  0  0  0  0  0  0  0  0  0  0
   57.7340   22.6370   44.6930 O   0  0  0  0  0  0  0  0  0  0  0  0
   57.3090   25.2510   44.2180 C   0  0  0  0  0  0  0  0  0  0  0  0
   57.2670   25.8470   45.4580 C   0  0  0  0  0  0  0  0  0  0  0  0
   57.6820   27.1500   45.6530 C   0  0  0  0  0  0  0  0  0  0  0  0
   58.1480   27.8510   44.5490 C   0  0  0  0  0  0  0  0  0  0  0  0
   58.5670   29.1930   44.7890 N   0  0  0  0  0  0  0  0  0  0  0  0
   57.5400   30.1600   44.9600 C   0  0  0  0  0  0  0  0  0  0  0  0
   56.3470   29.7120   44.8800 O   0  0  0  0  0  0  0  0  0  0  0  0
   57.8010   31.5700   45.2130 C   0  0  0  0  0  0  0  0  0  0  0  0
   57.7520   32.5410   44.2340 C   0  0  0  0  0  0  0  0  0  0  0  0
   58.0010   33.8590   44.4970 C   0  0  0  0  0  0  0  0  0  0  0  0
   58.3150   34.2590   45.7790 C   0  0  0  0  0  0  0  0  0  0  0  0
   58.3690   33.3030   46.7720 C   0  0  0  0  0  0  0  0  0  0  0  0
   58.6840   33.6990   48.0640 O   0  0  0  0  0  0  0  0  0  0  0  0
   60.0570   33.9510   48.3410 C   0  0  0  0  0  0  0  0  0  0  0  0
   60.7820   32.7800   48.1310 F   0  0  0  0  0  0  0  0  0  0  0  0
   60.5250   34.9660   47.5070 F   0  0  0  0  0  0  0  0  0  0  0  0
   60.1350   34.3360   49.6630 F   0  0  0  0  0  0  0  0  0  0  0  0
   58.1110   31.9650   46.4830 C   0  0  0  0  0  0  0  0  0  0  0  0
   58.1960   27.2660   43.2970 C   0  0  0  0  0  0  0  0  0  0  0  0
   57.7730   25.9460   43.1140 C   0  0  0  0  0  0  0  0  0  0  0  0
   56.1730   22.9140   46.6950 N   0  0  0  0  0  0  0  0  0  0  0  0
   56.1110   22.5200   48.0000 C   0  0  0  0  0  0  0  0  0  0  0  0
   57.3180   22.3000   48.6500 O   0  0  0  0  0  0  0  0  0  0  0  0
   57.2650   21.9530   50.0230 C   0  0  0  0  0  0  0  0  0  0  0  0
   54.9130   22.3640   48.5920 N   0  0  0  0  0  0  0  0  0  0  0  0
   52.6328   23.2001   50.4296 H   0  0  0  0  0  0  0  0  0  0  0  0
   51.5017   21.8213   50.2144 H   0  0  0  0  0  0  0  0  0  0  0  0
   53.2753   21.5364   50.2144 H   0  0  0  0  0  0  0  0  0  0  0  0
   52.8719   23.1772   46.0195 H   0  0  0  0  0  0  0  0  0  0  0  0
   56.8929   25.2702   46.3167 H   0  0  0  0  0  0  0  0  0  0  0  0
   57.6445   27.6161   46.6487 H   0  0  0  0  0  0  0  0  0  0  0  0
   59.5670   29.4840   44.8420 H   0  0  0  0  0  0  0  0  0  0  0  0
   57.5035   32.2437   43.2045 H   0  0  0  0  0  0  0  0  0  0  0  0
   57.9509   34.6006   43.6862 H   0  0  0  0  0  0  0  0  0  0  0  0
   58.5178   35.3164   46.0045 H   0  0  0  0  0  0  0  0  0  0  0  0
   58.1576   31.2169   47.2881 H   0  0  0  0  0  0  0  0  0  0  0  0
   58.5698   27.8435   42.4386 H   0  0  0  0  0  0  0  0  0  0  0  0
   57.8078   25.4732   42.1214 H   0  0  0  0  0  0  0  0  0  0  0  0
   57.1170   23.0320   46.2460 H   0  0  0  0  0  0  0  0  0  0  0  0
   57.4030   22.8565   50.6351 H   0  0  0  0  0  0  0  0  0  0  0  0
   56.2876   21.5022   50.2498 H   0  0  0  0  0  0  0  0  0  0  0  0
   58.0633   21.2310   50.2498 H   0  0  0  0  0  0  0  0  0  0  0  0
  1  2  1  0
  2  3  1  0
  3  4  2  0
  4  5  1  0
  5  6  2  0
  6  7  1  0
  7  8  2  0
  7  9  2  0
  7 10  1  0
 10 11  2  0
 11 12  1  0
 12 13  2  0
 13 14  1  0
 14 15  1  0
 15 16  2  0
 15 17  1  0
 17 18  2  0
 18 19  1  0
 19 20  2  0
 20 21  1  0
 21 22  1  0
 22 23  1  0
 23 24  1  0
 23 25  1  0
 23 26  1  0
 21 27  2  0
 13 28  1  0
 28 29  2  0
  5 30  1  0
 30 31  1  0
 31 32  1  0
 32 33  1  0
 31 34  2  0
 34  3  1  0
 29 10  1  0
 27 17  1  0
  1 35  1  0
  1 36  1  0
  1 37  1  0
  4 38  1  0
 11 39  1  0
 12 40  1  0
 14 41  1  0
 18 42  1  0
 19 43  1  0
 20 44  1  0
 27 45  1  0
 28 46  1  0
 29 47  1  0
 30 48  1  0
 33 49  1  0
 33 50  1  0
 33 51  1  0
M  END
>  <smiles>  (33) 
COc1cc(=NS(=O)(=O)c2ccc(NC(=O)c3cccc(OC(F)(F)F)c3)cc2)[nH]c(OC)n1

>  <score_type>  (33) 
oracle

>  <origin>  (33) 
adg

>  <m_score__min__energy>  (33) 
-8.25

>  <m_primary>  (33) 
energy

$$$$
33:0
     RDKit          3D

 43 45  0  0  0  0  0  0  0  0999 V2000
   59.0270   31.5100   46.9100 C   0  0  0  0  0  0  0  0  0  0  0  0
   57.7820   31.2100   46.2880 O   0  0  0  0  0  0  0  0  0  0  0  0
   57.5710   31.1770   44.9010 C   0  0  0  0  0  0  0  0  0  0  0  0
   57.9630   32.2420   44.0640 C   0  0  0  0  0  0  0  0  0  0  0  0
   57.6910   32.2020   42.6940 C   0  0  0  0  0  0  0  0  0  0  0  0
   57.0210   31.1080   42.1450 C   0  0  0  0  0  0  0  0  0  0  0  0
   56.6350   30.0430   42.9610 C   0  0  0  0  0  0  0  0  0  0  0  0
   56.9270   30.0570   44.3310 C   0  0  0  0  0  0  0  0  0  0  0  0
   56.5110   28.9490   45.1410 N   0  0  0  0  0  0  0  0  0  0  0  0
   57.4140   28.2130   45.9840 C   0  0  0  0  0  0  0  0  0  0  0  0
   58.6060   28.5940   46.1230 O   0  0  0  0  0  0  0  0  0  0  0  0
   56.9700   27.0600   46.7070 N   0  0  0  0  0  0  0  0  0  0  0  0
   57.0780   25.7000   46.2660 C   0  0  0  0  0  0  0  0  0  0  0  0
   58.0870   24.8510   46.7470 C   0  0  0  0  0  0  0  0  0  0  0  0
   58.1550   23.5230   46.3210 C   0  0  0  0  0  0  0  0  0  0  0  0
   57.2060   23.0140   45.4190 C   0  0  0  0  0  0  0  0  0  0  0  0
   56.1610   23.8540   44.9680 C   0  0  0  0  0  0  0  0  0  0  0  0
   56.1100   25.1910   45.3950 C   0  0  0  0  0  0  0  0  0  0  0  0
   55.1460   23.3370   43.9780 C   0  0  0  0  0  0  0  0  0  0  0  0
   55.8100   22.9130   42.6550 C   0  0  0  0  0  0  0  0  0  0  0  0
   56.2880   21.5200   42.6730 N   0  0  0  0  0  0  0  0  0  0  0  0
   57.5130   21.3540   43.4720 C   0  0  0  0  0  0  0  0  0  0  0  0
   57.2830   21.5630   44.9810 C   0  0  0  0  0  0  0  0  0  0  0  0
   58.9072   31.4811   48.0031 H   0  0  0  0  0  0  0  0  0  0  0  0
   59.7783   30.7672   46.6038 H   0  0  0  0  0  0  0  0  0  0  0  0
   59.3575   32.5135   46.6038 H   0  0  0  0  0  0  0  0  0  0  0  0
   58.4862   33.1097   44.4923 H   0  0  0  0  0  0  0  0  0  0  0  0
   58.0056   33.0343   42.0472 H   0  0  0  0  0  0  0  0  0  0  0  0
   56.7968   31.0847   41.0683 H   0  0  0  0  0  0  0  0  0  0  0  0
   56.0981   29.1874   42.5254 H   0  0  0  0  0  0  0  0  0  0  0  0
   55.5340   28.6020   45.0180 H   0  0  0  0  0  0  0  0  0  0  0  0
   58.8284   25.2340   47.4637 H   0  0  0  0  0  0  0  0  0  0  0  0
   58.9578   22.8704   46.6946 H   0  0  0  0  0  0  0  0  0  0  0  0
   55.2996   25.8448   45.0403 H   0  0  0  0  0  0  0  0  0  0  0  0
   54.6324   22.4677   44.4144 H   0  0  0  0  0  0  0  0  0  0  0  0
   54.4332   24.1464   43.7615 H   0  0  0  0  0  0  0  0  0  0  0  0
   55.0755   23.0213   41.8434 H   0  0  0  0  0  0  0  0  0  0  0  0
   56.6865   23.5603   42.5038 H   0  0  0  0  0  0  0  0  0  0  0  0
   55.5360   20.9400   43.1160 H   0  0  0  0  0  0  0  0  0  0  0  0
   57.8986   20.3359   43.3143 H   0  0  0  0  0  0  0  0  0  0  0  0
   58.2279   22.1211   43.1397 H   0  0  0  0  0  0  0  0  0  0  0  0
   56.3369   21.0727   45.2539 H   0  0  0  0  0  0  0  0  0  0  0  0
   58.1581   21.1324   45.4897 H   0  0  0  0  0  0  0  0  0  0  0  0
  1  2  1  0
  2  3  1  0
  3  4  2  0
  4  5  1  0
  5  6  2  0
  6  7  1  0
  7  8  2  0
  8  9  1  0
  9 10  1  0
 10 11  2  0
 10 12  1  0
 12 13  1  0
 13 14  2  0
 14 15  1  0
 15 16  2  0
 16 17  1  0
 17 18  2  0
 17 19  1  0
 19 20  1  0
 20 21  1  0
 21 22  1  0
 22 23  1  0
  8  3  1  0
 18 13  1  0
 23 16  1  0
  1 24  1  0
  1 25  1  0
  1 26  1  0
  4 27  1  0
  5 28  1  0
  6 29  1  0
  7 30  1  0
  9 31  1  0
 14 32  1  0
 15 33  1  0
 18 34  1  0
 19 35  1  0
 19 36  1  0
 20 37  1  0
 20 38  1  0
 21 39  1  0
 22 40  1  0
 22 41  1  0
 23 42  1  0
 23 43  1  0
M  CHG  1  12  -1
M  END
>  <UniqueID>  (34) 
31

>  <SMILES>  (34) 
COc1ccccc1NC(=O)[N-]c1ccc2c(c1)CCNCC2

>  <Energy>  (34) 
62.33507665998919

>  <Genealogy>  (34) 
COc1ccccc1NC(=O)[N-]c1ccc2c(c1)CCNCC2 (protonated)
COc1ccccc1NC(=O)[N-]c1ccc2c(c1)CCNCC2 (3D coordinates assigned)
COc1ccccc1NC(=O)[N-]c1ccc2c(c1)CCNCC2 (nonaromatic ring conformer: 62.33507665998919 kcal/mol)

>  <smiles>  (34) 
COc1ccccc1NC(=O)Nc1ccc2c(c1)CCNCC2

>  <score_type>  (34) 
oracle

>  <origin>  (34) 
adg

>  <m_score__min__energy>  (34) 
-7

>  <m_primary>  (34) 
energy

$$$$
34:0
     RDKit          3D

114119  0  0  0  0  0  0  0  0999 V2000
   67.8810   27.2050   49.6590 C   0  0  0  0  0  0  0  0  0  0  0  0
   67.6220   26.1920   50.7710 C   0  0  0  0  0  0  0  0  0  0  0  0
   68.9480   25.7010   51.3590 C   0  0  0  0  0  0  0  0  0  0  0  0
   66.8350   26.8220   51.7850 O   0  0  0  0  0  0  0  0  0  0  0  0
   66.6930   28.2060   51.9820 C   0  0  0  0  0  0  0  0  0  0  0  0
   67.7870   29.0490   52.2570 C   0  0  0  0  0  0  0  0  0  0  0  0
   67.5970   30.4220   52.4330 C   0  0  0  0  0  0  0  0  0  0  0  0
   66.3140   30.9780   52.3420 C   0  0  0  0  0  0  0  0  0  0  0  0
   66.1180   32.4760   52.4850 C   0  0  0  0  0  0  0  0  0  0  0  0
   65.8360   33.1630   51.2000 N   0  0  0  0  0  0  0  0  0  0  0  0
   66.7770   32.7420   50.1460 C   0  0  0  0  0  0  0  0  0  0  0  0
   64.4220   33.0160   50.7840 C   0  0  0  0  0  0  0  0  0  0  0  0
   64.2990   32.4780   49.3480 C   0  0  0  0  0  0  0  0  0  0  0  0
   63.1670   33.0970   48.5670 C   0  0  0  0  0  0  0  0  0  0  0  0
   62.0400   33.6110   49.2330 C   0  0  0  0  0  0  0  0  0  0  0  0
   60.9850   34.1730   48.5060 C   0  0  0  0  0  0  0  0  0  0  0  0
   61.0380   34.2160   47.1110 C   0  0  0  0  0  0  0  0  0  0  0  0
   62.1470   33.6920   46.4380 C   0  0  0  0  0  0  0  0  0  0  0  0
   63.2060   33.1310   47.1610 C   0  0  0  0  0  0  0  0  0  0  0  0
   65.2170   30.1370   52.0950 C   0  0  0  0  0  0  0  0  0  0  0  0
   65.4030   28.7520   51.9090 C   0  0  0  0  0  0  0  0  0  0  0  0
   64.3370   27.8810   51.6320 O   0  0  0  0  0  0  0  0  0  0  0  0
   63.9570   26.7480   52.4120 C   0  0  0  0  0  0  0  0  0  0  0  0
   63.1680   27.1650   53.6620 C   0  0  0  0  0  0  0  0  0  0  0  0
   62.2600   26.0490   54.2060 C   0  0  0  0  0  0  0  0  0  0  0  0
   61.0510   25.8920   53.4010 N   0  0  0  0  0  0  0  0  0  0  0  0
   59.8460   26.6760   53.3680 C   0  0  0  0  0  0  0  0  0  0  0  0
   58.7540   26.0630   53.4880 O   0  0  0  0  0  0  0  0  0  0  0  0
   59.7960   28.1940   53.3020 C   0  0  2  0  0  0  0  0  0  0  0  0
   58.4530   28.8010   53.6720 C   0  0  0  0  0  0  0  0  0  0  0  0
   57.6290   29.4530   52.7300 C   0  0  0  0  0  0  0  0  0  0  0  0
   56.4200   30.0300   53.1280 C   0  0  0  0  0  0  0  0  0  0  0  0
   56.0200   29.9700   54.4640 C   0  0  0  0  0  0  0  0  0  0  0  0
   56.8310   29.3420   55.4090 C   0  0  0  0  0  0  0  0  0  0  0  0
   58.0420   28.7640   55.0180 C   0  0  0  0  0  0  0  0  0  0  0  0
   60.4110   28.7650   52.0310 C   0  0  0  0  0  0  0  0  0  0  0  0
   61.0690   30.0100   52.0030 C   0  0  0  0  0  0  0  0  0  0  0  0
   61.6360   30.4880   50.8180 C   0  0  0  0  0  0  0  0  0  0  0  0
   61.5640   29.7280   49.6490 C   0  0  0  0  0  0  0  0  0  0  0  0
   60.9310   28.4780   49.6590 C   0  0  0  0  0  0  0  0  0  0  0  0
   60.7980   27.6840   48.3880 C   0  0  0  0  0  0  0  0  0  0  0  0
   59.4610   27.0890   48.3180 N   0  0  0  0  0  0  0  0  0  0  0  0
   58.6040   27.6860   46.9240 S   0  0  0  0  0  0  0  0  0  0  0  0
   59.2930   27.2000   45.6790 O   0  0  0  0  0  0  0  0  0  0  0  0
   57.2030   27.1430   46.9570 O   0  0  0  0  0  0  0  0  0  0  0  0
   58.5250   29.4610   46.9180 C   0  0  0  0  0  0  0  0  0  0  0  0
   58.8440   30.1470   48.1000 C   0  0  0  0  0  0  0  0  0  0  0  0
   58.8420   31.5370   48.1400 C   0  0  0  0  0  0  0  0  0  0  0  0
   58.5150   32.2740   47.0050 C   0  0  0  0  0  0  0  0  0  0  0  0
   58.1670   31.6260   45.8070 C   0  0  0  0  0  0  0  0  0  0  0  0
   57.8160   32.3720   44.6540 C   0  0  0  0  0  0  0  0  0  0  0  0
   57.8750   33.8070   44.6510 N   0  0  0  0  0  0  0  0  0  0  0  0
   56.6790   34.5910   44.9630 C   0  0  0  0  0  0  0  0  0  0  0  0
   59.1680   34.4730   44.5050 C   0  0  0  0  0  0  0  0  0  0  0  0
   57.4220   31.7050   43.4890 C   0  0  0  0  0  0  0  0  0  0  0  0
   57.3770   30.3150   43.4510 C   0  0  0  0  0  0  0  0  0  0  0  0
   57.7320   29.5680   44.5730 C   0  0  0  0  0  0  0  0  0  0  0  0
   58.1460   30.2020   45.7640 C   0  0  0  0  0  0  0  0  0  0  0  0
   60.3600   28.0030   50.8490 C   0  0  0  0  0  0  0  0  0  0  0  0
   68.1304   28.1803   50.1023 H   0  0  0  0  0  0  0  0  0  0  0  0
   68.7198   26.8599   49.0367 H   0  0  0  0  0  0  0  0  0  0  0  0
   66.9795   27.3048   49.0367 H   0  0  0  0  0  0  0  0  0  0  0  0
   67.0836   25.3223   50.3664 H   0  0  0  0  0  0  0  0  0  0  0  0
   68.8921   25.7217   52.4574 H   0  0  0  0  0  0  0  0  0  0  0  0
   69.1403   24.6720   51.0210 H   0  0  0  0  0  0  0  0  0  0  0  0
   69.7641   26.3566   51.0210 H   0  0  0  0  0  0  0  0  0  0  0  0
   68.7985   28.6235   52.3338 H   0  0  0  0  0  0  0  0  0  0  0  0
   68.4600   31.0705   52.6443 H   0  0  0  0  0  0  0  0  0  0  0  0
   65.2730   32.6528   53.1667 H   0  0  0  0  0  0  0  0  0  0  0  0
   67.0610   32.8895   52.8721 H   0  0  0  0  0  0  0  0  0  0  0  0
   67.6878   32.3345   50.6090 H   0  0  0  0  0  0  0  0  0  0  0  0
   66.3059   31.9689   49.5213 H   0  0  0  0  0  0  0  0  0  0  0  0
   67.0394   33.6085   49.5213 H   0  0  0  0  0  0  0  0  0  0  0  0
   63.9205   32.3172   51.4697 H   0  0  0  0  0  0  0  0  0  0  0  0
   63.9521   34.0100   50.8168 H   0  0  0  0  0  0  0  0  0  0  0  0
   65.2406   32.6833   48.8177 H   0  0  0  0  0  0  0  0  0  0  0  0
   64.0881   31.4011   49.4236 H   0  0  0  0  0  0  0  0  0  0  0  0
   61.9877   33.5710   50.3310 H   0  0  0  0  0  0  0  0  0  0  0  0
   60.1114   34.5821   49.0346 H   0  0  0  0  0  0  0  0  0  0  0  0
   60.2086   34.6614   46.5420 H   0  0  0  0  0  0  0  0  0  0  0  0
   62.1867   33.7210   45.3391 H   0  0  0  0  0  0  0  0  0  0  0  0
   64.0731   32.7146   46.6273 H   0  0  0  0  0  0  0  0  0  0  0  0
   64.2038   30.5625   52.0462 H   0  0  0  0  0  0  0  0  0  0  0  0
   63.3297   26.0852   51.7978 H   0  0  0  0  0  0  0  0  0  0  0  0
   64.8714   26.2303   52.7375 H   0  0  0  0  0  0  0  0  0  0  0  0
   63.8831   27.4483   54.4484 H   0  0  0  0  0  0  0  0  0  0  0  0
   62.5176   28.0038   53.3731 H   0  0  0  0  0  0  0  0  0  0  0  0
   62.8179   25.1010   54.1990 H   0  0  0  0  0  0  0  0  0  0  0  0
   61.9573   26.3223   55.2276 H   0  0  0  0  0  0  0  0  0  0  0  0
   60.4592   28.5265   54.1142 H   0  0  0  0  0  0  0  0  0  0  0  0
   57.9401   29.5074   51.6763 H   0  0  0  0  0  0  0  0  0  0  0  0
   55.7818   30.5328   52.3864 H   0  0  0  0  0  0  0  0  0  0  0  0
   55.0640   30.4186   54.7719 H   0  0  0  0  0  0  0  0  0  0  0  0
   56.5174   29.3016   56.4626 H   0  0  0  0  0  0  0  0  0  0  0  0
   58.6801   28.2755   55.7692 H   0  0  0  0  0  0  0  0  0  0  0  0
   61.1373   30.6114   52.9215 H   0  0  0  0  0  0  0  0  0  0  0  0
   62.1403   31.4655   50.8065 H   0  0  0  0  0  0  0  0  0  0  0  0
   62.0055   30.1117   48.7174 H   0  0  0  0  0  0  0  0  0  0  0  0
   60.9489   28.3479   47.5241 H   0  0  0  0  0  0  0  0  0  0  0  0
   61.5544   26.8855   48.3752 H   0  0  0  0  0  0  0  0  0  0  0  0
   59.5720   26.0570   48.1810 H   0  0  0  0  0  0  0  0  0  0  0  0
   59.0988   29.5780   49.0062 H   0  0  0  0  0  0  0  0  0  0  0  0
   59.1003   32.0574   49.0741 H   0  0  0  0  0  0  0  0  0  0  0  0
   58.5291   33.3731   47.0460 H   0  0  0  0  0  0  0  0  0  0  0  0
   56.5643   34.6662   46.0544 H   0  0  0  0  0  0  0  0  0  0  0  0
   56.7793   35.5991   44.5345 H   0  0  0  0  0  0  0  0  0  0  0  0
   55.7946   34.0969   44.5345 H   0  0  0  0  0  0  0  0  0  0  0  0
   59.5844   34.6875   45.5003 H   0  0  0  0  0  0  0  0  0  0  0  0
   59.8576   33.8179   43.9524 H   0  0  0  0  0  0  0  0  0  0  0  0
   59.0350   35.4148   43.9524 H   0  0  0  0  0  0  0  0  0  0  0  0
   57.1455   32.2843   42.5957 H   0  0  0  0  0  0  0  0  0  0  0  0
   57.0596   29.8028   42.5307 H   0  0  0  0  0  0  0  0  0  0  0  0
   57.6889   28.4697   44.5296 H   0  0  0  0  0  0  0  0  0  0  0  0
   59.8652   27.0206   50.8584 H   0  0  0  0  0  0  0  0  0  0  0  0
  1  2  1  0
  2  3  1  0
  2  4  1  0
  4  5  1  0
  5  6  2  0
  6  7  1  0
  7  8  2  0
  8  9  1  0
  9 10  1  0
 10 11  1  0
 10 12  1  0
 12 13  1  0
 13 14  1  0
 14 15  2  0
 15 16  1  0
 16 17  2  0
 17 18  1  0
 18 19  2  0
  8 20  1  0
 20 21  2  0
 21 22  1  0
 22 23  1  0
 23 24  1  0
 24 25  1  0
 25 26  1  0
 26 27  1  0
 27 28  2  0
 27 29  1  0
 29 30  1  0
 30 31  2  0
 31 32  1  0
 32 33  2  0
 33 34  1  0
 34 35  2  0
 29 36  1  0
 36 37  2  0
 37 38  1  0
 38 39  2  0
 39 40  1  0
 40 41  1  0
 41 42  1  0
 42 43  1  0
 43 44  2  0
 43 45  2  0
 43 46  1  0
 46 47  2  0
 47 48  1  0
 48 49  2  0
 49 50  1  0
 50 51  2  0
 51 52  1  0
 52 53  1  0
 52 54  1  0
 51 55  1  0
 55 56  2  0
 56 57  1  0
 57 58  2  0
 40 59  2  0
 21  5  1  0
 35 30  1  0
 59 36  1  0
 19 14  1  0
 58 46  1  0
 58 50  1  0
  1 60  1  0
  1 61  1  0
  1 62  1  0
  2 63  1  0
  3 64  1  0
  3 65  1  0
  3 66  1  0
  6 67  1  0
  7 68  1  0
  9 69  1  0
  9 70  1  0
 11 71  1  0
 11 72  1  0
 11 73  1  0
 12 74  1  0
 12 75  1  0
 13 76  1  0
 13 77  1  0
 15 78  1  0
 16 79  1  0
 17 80  1  0
 18 81  1  0
 19 82  1  0
 20 83  1  0
 23 84  1  0
 23 85  1  0
 24 86  1  0
 24 87  1  0
 25 88  1  0
 25 89  1  0
 29 90  1  1
 31 91  1  0
 32 92  1  0
 33 93  1  0
 34 94  1  0
 35 95  1  0
 37 96  1  0
 38 97  1  0
 39 98  1  0
 41 99  1  0
 41100  1  0
 42101  1  0
 47102  1  0
 48103  1  0
 49104  1  0
 53105  1  0
 53106  1  0
 53107  1  0
 54108  1  0
 54109  1  0
 54110  1  0
 55111  1  0
 56112  1  0
 57113  1  0
 59114  1  0
M  CHG  1  26  -1
M  END
>  <UniqueID>  (35) 
32

>  <SMILES>  (35) 
CC(C)Oc1ccc(CN(C)CCc2ccccc2)cc1OCCC[N-]C(=O)[C@H](c1ccccc1)c1cccc(CNS(=O)(=O)c2cccc3c(N(C)C)cccc23)c1

>  <Energy>  (35) 
134.5738387887828

>  <Genealogy>  (35) 
CC(C)Oc1ccc(CN(C)CCc2ccccc2)cc1OCCC[N-]C(=O)C(c1ccccc1)c1cccc(CNS(=O)(=O)c2cccc3c(N(C)C)cccc23)c1 (protonated)
CC(C)Oc1ccc(CN(C)CCc2ccccc2)cc1OCCC[N-]C(=O)[C@H](c1ccccc1)c1cccc(CNS(=O)(=O)c2cccc3c(N(C)C)cccc23)c1 (chirality)
CC(C)Oc1ccc(CN(C)CCc2ccccc2)cc1OCCC[N-]C(=O)[C@H](c1ccccc1)c1cccc(CNS(=O)(=O)c2cccc3c(N(C)C)cccc23)c1 (3D coordinates assigned)
CC(C)Oc1ccc(CN(C)CCc2ccccc2)cc1OCCC[N-]C(=O)[C@H](c1ccccc1)c1cccc(CNS(=O)(=O)c2cccc3c(N(C)C)cccc23)c1 (optimized conformer: 134.5738387887828 kcal/mol)

>  <smiles>  (35) 
CC(C)Oc1ccc(CN(C)CCc2ccccc2)cc1OCCCNC(=O)C(c1ccccc1)c1cccc(CNS(=O)(=O)c2cccc3c(N(C)C)cccc23)c1

>  <score_type>  (35) 
oracle

>  <origin>  (35) 
adg

>  <m_score__min__energy>  (35) 
-11.57

>  <m_primary>  (35) 
energy

$$$$
35:0
     RDKit          3D

 41 43  0  0  0  0  0  0  0  0999 V2000
   61.6955   27.7633   47.5196 H   0  0  0  0  0  0  0  0  0  0  0  0
   60.6170   27.9640   47.4380 C   0  0  0  0  0  0  0  0  0  0  0  0
   60.0110   27.6340   46.3350 N   0  0  0  0  0  0  0  0  0  0  0  0
   58.8790   28.3160   45.7810 C   0  0  0  0  0  0  0  0  0  0  0  0
   57.6000   27.8010   45.6430 C   0  0  0  0  0  0  0  0  0  0  0  0
   57.1770   26.4040   45.8740 C   0  0  0  0  0  0  0  0  0  0  0  0
   55.9080   25.9320   46.1520 C   0  0  0  0  0  0  0  0  0  0  0  0
   54.7730   26.7160   46.3130 O   0  0  0  0  0  0  0  0  0  0  0  0
   55.8910   24.5920   46.2850 N   0  0  0  0  0  0  0  0  0  0  0  0
   57.1710   24.2090   46.1020 C   0  0  0  0  0  0  0  0  0  0  0  0
   57.6080   22.7780   46.1070 C   0  0  0  0  0  0  0  0  0  0  0  0
   57.8919   22.4878   47.1293 H   0  0  0  0  0  0  0  0  0  0  0  0
   56.7784   22.1469   45.7557 H   0  0  0  0  0  0  0  0  0  0  0  0
   58.7800   22.5960   45.1980 C   0  0  0  0  0  0  0  0  0  0  0  0
   58.6160   22.1290   44.0400 O   0  0  0  0  0  0  0  0  0  0  0  0
   60.0490   22.9810   45.6120 O   0  0  0  0  0  0  0  0  0  0  0  0
   57.9920   25.2910   45.8440 C   0  0  0  0  0  0  0  0  0  0  0  0
   59.0752   25.2691   45.6535 H   0  0  0  0  0  0  0  0  0  0  0  0
   56.8270   28.8620   45.1880 C   0  0  0  0  0  0  0  0  0  0  0  0
   55.4760   28.7970   44.8640 O   0  0  0  0  0  0  0  0  0  0  0  0
   57.5670   29.9830   45.0710 N   0  0  0  0  0  0  0  0  0  0  0  0
   57.0860   31.3140   44.7140 C   0  0  0  0  0  0  0  0  0  0  0  0
   56.8790   31.8869   45.6299 H   0  0  0  0  0  0  0  0  0  0  0  0
   57.8529   31.8343   44.1215 H   0  0  0  0  0  0  0  0  0  0  0  0
   56.1636   31.2238   44.1215 H   0  0  0  0  0  0  0  0  0  0  0  0
   58.8140   29.6580   45.4640 C   0  0  0  0  0  0  0  0  0  0  0  0
   59.8610   30.5660   45.5680 O   0  0  0  0  0  0  0  0  0  0  0  0
   59.9210   28.6060   48.6090 C   0  0  0  0  0  0  0  0  0  0  0  0
   58.8611   28.3118   48.6047 H   0  0  0  0  0  0  0  0  0  0  0  0
   60.4065   28.2697   49.5370 H   0  0  0  0  0  0  0  0  0  0  0  0
   60.0180   30.1070   48.5280 C   0  0  0  0  0  0  0  0  0  0  0  0
   58.8890   30.9020   48.7900 C   0  0  0  0  0  0  0  0  0  0  0  0
   57.9236   30.4248   49.0142 H   0  0  0  0  0  0  0  0  0  0  0  0
   58.9870   32.2950   48.7670 C   0  0  0  0  0  0  0  0  0  0  0  0
   58.0987   32.9114   48.9696 H   0  0  0  0  0  0  0  0  0  0  0  0
   60.2120   32.9070   48.4870 C   0  0  0  0  0  0  0  0  0  0  0  0
   60.2894   34.0042   48.4777 H   0  0  0  0  0  0  0  0  0  0  0  0
   61.3380   32.1250   48.2190 C   0  0  0  0  0  0  0  0  0  0  0  0
   62.3011   32.6074   47.9958 H   0  0  0  0  0  0  0  0  0  0  0  0
   61.2430   30.7310   48.2340 C   0  0  0  0  0  0  0  0  0  0  0  0
   62.1305   30.1192   48.0148 H   0  0  0  0  0  0  0  0  0  0  0  0
  1  2  1  0
  2  3  2  0
  3  4  1  0
  4  5  1  0
  5  6  1  0
  6  7  2  0
  7  8  1  0
  7  9  1  0
  9 10  1  0
 10 11  1  0
 11 12  1  0
 11 13  1  0
 11 14  1  0
 14 15  2  0
 14 16  1  0
 10 17  2  0
 17 18  1  0
  5 19  2  0
 19 20  1  0
 19 21  1  0
 21 22  1  0
 22 23  1  0
 22 24  1  0
 22 25  1  0
 21 26  1  0
 26 27  1  0
  2 28  1  0
 28 29  1  0
 28 30  1  0
 28 31  1  0
 31 32  2  0
 32 33  1  0
 32 34  1  0
 34 35  1  0
 34 36  2  0
 36 37  1  0
 36 38  1  0
 38 39  1  0
 38 40  2  0
 40 41  1  0
 26  4  2  0
 40 31  1  0
 17  6  1  0
M  CHG  5   8  -1   9  -1  16  -1  20  -1  27  -1
M  END
>  <UniqueID>  (36) 
33

>  <SMILES>  (36) 
Cn1c([O-])c(/N=C\Cc2ccccc2)c(-c2cc(CC(=O)[O-])[n-]c2[O-])c1[O-]

>  <Energy>  (36) 
101.409729474227

>  <Genealogy>  (36) 
Cn1c([O-])c(N=CCc2ccccc2)c(-c2cc(CC(=O)[O-])[n-]c2[O-])c1[O-] (protonated)
Cn1c([O-])c(/N=C\Cc2ccccc2)c(-c2cc(CC(=O)[O-])[n-]c2[O-])c1[O-] (cis-trans isomerization)
Cn1c([O-])c(/N=C\Cc2ccccc2)c(-c2cc(CC(=O)[O-])[n-]c2[O-])c1[O-] (3D coordinates assigned)
Cn1c([O-])c(/N=C\Cc2ccccc2)c(-c2cc(CC(=O)[O-])[n-]c2[O-])c1[O-] (optimized conformer: 101.409729474227 kcal/mol)

>  <smiles>  (36) 
Cn1c(O)c(N=CCc2ccccc2)c(-c2cc(CC(=O)O)[nH]c2O)c1O

>  <score_type>  (36) 
oracle

>  <origin>  (36) 
adg

>  <m_score__min__energy>  (36) 
-18.239999999999998

>  <m_primary>  (36) 
energy

$$$$
36:0
     RDKit          3D

 62 66  0  0  0  0  0  0  0  0999 V2000
   58.4530   31.1080   49.9090 C   0  0  0  0  0  0  0  0  0  0  0  0
   58.9560   30.2310   48.8000 C   0  0  0  0  0  0  0  0  0  0  0  0
   59.2740   28.8950   49.0570 C   0  0  0  0  0  0  0  0  0  0  0  0
   59.7170   28.0670   48.0270 C   0  0  0  0  0  0  0  0  0  0  0  0
   59.8270   28.5500   46.7130 C   0  0  0  0  0  0  0  0  0  0  0  0
   60.3400   27.6240   45.6420 C   0  0  0  0  0  0  0  0  0  0  0  0
   59.4340   29.8830   46.4270 C   0  0  0  0  0  0  0  0  0  0  0  0
   59.4360   30.4340   45.0100 C   0  0  0  0  0  0  0  0  0  0  0  0
   58.0860   30.8410   44.5730 N   0  0  0  0  0  0  0  0  0  0  0  0
   57.8680   32.1520   44.0100 C   0  0  0  0  0  0  0  0  0  0  0  0
   58.0560   32.3380   42.7770 O   0  0  0  0  0  0  0  0  0  0  0  0
   57.3950   33.3090   44.8470 C   0  0  0  0  0  0  0  0  0  0  0  0
   58.2810   33.5110   45.9910 N   0  0  0  0  0  0  0  0  0  0  0  0
   59.6100   33.3030   46.0260 C   0  0  0  0  0  0  0  0  0  0  0  0
   60.0230   33.6380   47.3050 C   0  0  0  0  0  0  0  0  0  0  0  0
   61.3990   33.5950   47.8540 C   0  0  0  0  0  0  0  0  0  0  0  0
   62.4600   33.1330   47.0490 C   0  0  0  0  0  0  0  0  0  0  0  0
   63.7630   33.0830   47.5550 C   0  0  0  0  0  0  0  0  0  0  0  0
   64.0220   33.4940   48.8670 C   0  0  0  0  0  0  0  0  0  0  0  0
   65.2870   33.4480   49.3550 F   0  0  0  0  0  0  0  0  0  0  0  0
   62.9780   33.9520   49.6730 C   0  0  0  0  0  0  0  0  0  0  0  0
   61.6730   34.0030   49.1720 C   0  0  0  0  0  0  0  0  0  0  0  0
   58.9370   34.0380   48.0040 N   0  0  0  0  0  0  0  0  0  0  0  0
   57.9050   33.9490   47.1800 N   0  0  0  0  0  0  0  0  0  0  0  0
   56.9750   29.9150   44.6520 C   0  0  0  0  0  0  0  0  0  0  0  0
   55.8050   30.3470   44.8450 O   0  0  0  0  0  0  0  0  0  0  0  0
   57.1800   28.4590   44.5910 C   0  0  0  0  0  0  0  0  0  0  0  0
   57.7760   27.8680   43.4510 C   0  0  0  0  0  0  0  0  0  0  0  0
   58.0250   26.4860   43.4240 C   0  0  0  0  0  0  0  0  0  0  0  0
   57.6850   25.7300   44.5460 C   0  0  0  0  0  0  0  0  0  0  0  0
   57.1060   26.2940   45.6440 C   0  0  0  0  0  0  0  0  0  0  0  0
   56.8240   27.6580   45.6950 C   0  0  0  0  0  0  0  0  0  0  0  0
   56.8870   25.2620   46.6900 C   0  0  0  0  0  0  0  0  0  0  0  0
   57.4180   23.9750   46.0100 C   0  0  0  0  0  0  0  0  0  0  0  0
   57.8790   24.3780   44.7190 O   0  0  0  0  0  0  0  0  0  0  0  0
   59.0370   30.7190   47.4890 C   0  0  0  0  0  0  0  0  0  0  0  0
   58.7114   30.6575   50.8787 H   0  0  0  0  0  0  0  0  0  0  0  0
   58.9185   32.1015   49.8306 H   0  0  0  0  0  0  0  0  0  0  0  0
   57.3603   31.2078   49.8306 H   0  0  0  0  0  0  0  0  0  0  0  0
   59.1743   28.4948   50.0768 H   0  0  0  0  0  0  0  0  0  0  0  0
   59.9837   27.0225   48.2461 H   0  0  0  0  0  0  0  0  0  0  0  0
   60.8223   26.7533   46.1103 H   0  0  0  0  0  0  0  0  0  0  0  0
   59.5006   27.2859   45.0167 H   0  0  0  0  0  0  0  0  0  0  0  0
   61.0718   28.1564   45.0167 H   0  0  0  0  0  0  0  0  0  0  0  0
   60.1011   31.3093   44.9703 H   0  0  0  0  0  0  0  0  0  0  0  0
   59.7855   29.6378   44.3363 H   0  0  0  0  0  0  0  0  0  0  0  0
   57.3855   34.2206   44.2315 H   0  0  0  0  0  0  0  0  0  0  0  0
   56.3825   33.0893   45.2165 H   0  0  0  0  0  0  0  0  0  0  0  0
   60.2425   32.9393   45.2028 H   0  0  0  0  0  0  0  0  0  0  0  0
   62.2619   32.8098   46.0164 H   0  0  0  0  0  0  0  0  0  0  0  0
   64.5851   32.7201   46.9206 H   0  0  0  0  0  0  0  0  0  0  0  0
   63.1823   34.2736   50.7049 H   0  0  0  0  0  0  0  0  0  0  0  0
   60.8555   34.3646   49.8130 H   0  0  0  0  0  0  0  0  0  0  0  0
   56.9250   34.2040   47.4420 H   0  0  0  0  0  0  0  0  0  0  0  0
   58.0443   28.4917   42.5856 H   0  0  0  0  0  0  0  0  0  0  0  0
   58.4768   26.0117   42.5403 H   0  0  0  0  0  0  0  0  0  0  0  0
   56.3351   28.0991   46.5761 H   0  0  0  0  0  0  0  0  0  0  0  0
   57.4569   25.4935   47.6020 H   0  0  0  0  0  0  0  0  0  0  0  0
   55.8393   25.1846   47.0162 H   0  0  0  0  0  0  0  0  0  0  0  0
   58.2448   23.5459   46.5951 H   0  0  0  0  0  0  0  0  0  0  0  0
   56.6371   23.2036   45.9382 H   0  0  0  0  0  0  0  0  0  0  0  0
   58.7868   31.7708   47.2861 H   0  0  0  0  0  0  0  0  0  0  0  0
  1  2  1  0
  2  3  2  0
  3  4  1  0
  4  5  2  0
  5  6  1  0
  5  7  1  0
  7  8  1  0
  8  9  1  0
  9 10  1  0
 10 11  2  0
 10 12  1  0
 12 13  1  0
 13 14  1  0
 14 15  2  0
 15 16  1  0
 16 17  2  0
 17 18  1  0
 18 19  2  0
 19 20  1  0
 19 21  1  0
 21 22  2  0
 15 23  1  0
 23 24  2  0
  9 25  1  0
 25 26  2  0
 25 27  1  0
 27 28  2  0
 28 29  1  0
 29 30  2  0
 30 31  1  0
 31 32  2  0
 31 33  1  0
 33 34  1  0
 34 35  1  0
  7 36  2  0
 36  2  1  0
 24 13  1  0
 32 27  1  0
 22 16  1  0
 35 30  1  0
  1 37  1  0
  1 38  1  0
  1 39  1  0
  3 40  1  0
  4 41  1  0
  6 42  1  0
  6 43  1  0
  6 44  1  0
  8 45  1  0
  8 46  1  0
 12 47  1  0
 12 48  1  0
 14 49  1  0
 17 50  1  0
 18 51  1  0
 21 52  1  0
 22 53  1  0
 24 54  1  0
 28 55  1  0
 29 56  1  0
 32 57  1  0
 33 58  1  0
 33 59  1  0
 34 60  1  0
 34 61  1  0
 36 62  1  0
M  CHG  1  24   1
M  END
>  <UniqueID>  (37) 
34

>  <SMILES>  (37) 
Cc1ccc(C)c(CN(C(=O)Cn2cc(-c3ccc(F)cc3)n[nH+]2)C(=O)c2ccc3c(c2)CCO3)c1

>  <Energy>  (37) 
126.17571802451214

>  <Genealogy>  (37) 
Cc1ccc(C)c(CN(C(=O)Cn2cc(-c3ccc(F)cc3)n[nH+]2)C(=O)c2ccc3c(c2)CCO3)c1 (protonated)
Cc1ccc(C)c(CN(C(=O)Cn2cc(-c3ccc(F)cc3)n[nH+]2)C(=O)c2ccc3c(c2)CCO3)c1 (3D coordinates assigned)
Cc1ccc(C)c(CN(C(=O)Cn2cc(-c3ccc(F)cc3)n[nH+]2)C(=O)c2ccc3c(c2)CCO3)c1 (nonaromatic ring conformer: 126.17571802451214 kcal/mol)

>  <smiles>  (37) 
Cc1ccc(C)c(CN(C(=O)Cn2cc(-c3ccc(F)cc3)nn2)C(=O)c2ccc3c(c2)CCO3)c1

>  <score_type>  (37) 
oracle

>  <origin>  (37) 
adg

>  <m_score__min__energy>  (37) 
-8.5999999999999996

>  <m_primary>  (37) 
energy

$$$$
37:0
     RDKit          3D

 43 46  0  0  0  0  0  0  0  0999 V2000
   58.7720   34.7720   47.7530 O   0  0  0  0  0  0  0  0  0  0  0  0
   59.7400   33.9860   46.9140 S   0  0  0  0  0  0  0  0  0  0  0  0
   60.7450   34.9420   46.3350 O   0  0  0  0  0  0  0  0  0  0  0  0
   60.5670   32.8290   47.9060 N   0  0  0  0  0  0  0  0  0  0  0  0
   60.3200   31.4170   47.9200 C   0  0  0  0  0  0  0  0  0  0  0  0
   60.8710   30.5490   46.9630 C   0  0  0  0  0  0  0  0  0  0  0  0
   60.5930   29.1800   47.0050 C   0  0  0  0  0  0  0  0  0  0  0  0
   59.7440   28.6580   47.9970 C   0  0  0  0  0  0  0  0  0  0  0  0
   59.4530   27.2870   48.0740 O   0  0  0  0  0  0  0  0  0  0  0  0
   58.6320   26.5790   47.1860 C   0  0  0  0  0  0  0  0  0  0  0  0
   59.1200   25.4980   46.4280 C   0  0  0  0  0  0  0  0  0  0  0  0
   58.2740   24.8210   45.5450 C   0  0  0  0  0  0  0  0  0  0  0  0
   56.9420   25.2250   45.4030 C   0  0  0  0  0  0  0  0  0  0  0  0
   56.4570   26.3110   46.1380 C   0  0  0  0  0  0  0  0  0  0  0  0
   55.1370   26.7170   45.9890 O   0  0  0  0  0  0  0  0  0  0  0  0
   57.3030   26.9900   47.0220 C   0  0  0  0  0  0  0  0  0  0  0  0
   59.2160   29.5210   48.9670 C   0  0  0  0  0  0  0  0  0  0  0  0
   58.3990   29.0200   49.9720 O   0  0  0  0  0  0  0  0  0  0  0  0
   59.5040   30.8890   48.9260 C   0  0  0  0  0  0  0  0  0  0  0  0
   58.9120   33.1630   45.5950 C   0  0  0  0  0  0  0  0  0  0  0  0
   58.8610   33.7300   44.3150 C   0  0  0  0  0  0  0  0  0  0  0  0
   58.1940   33.0730   43.2770 C   0  0  0  0  0  0  0  0  0  0  0  0
   57.5710   31.8370   43.5100 C   0  0  0  0  0  0  0  0  0  0  0  0
   56.8990   31.1680   42.4760 C   0  0  0  0  0  0  0  0  0  0  0  0
   56.2830   29.9350   42.7200 C   0  0  0  0  0  0  0  0  0  0  0  0
   56.3340   29.3650   43.9950 C   0  0  0  0  0  0  0  0  0  0  0  0
   57.0000   30.0230   45.0360 C   0  0  0  0  0  0  0  0  0  0  0  0
   57.6210   31.2600   44.8040 C   0  0  0  0  0  0  0  0  0  0  0  0
   58.2910   31.9300   45.8380 C   0  0  0  0  0  0  0  0  0  0  0  0
   61.5258   30.9495   46.1751 H   0  0  0  0  0  0  0  0  0  0  0  0
   61.0405   28.5075   46.2584 H   0  0  0  0  0  0  0  0  0  0  0  0
   60.1696   25.1853   46.5308 H   0  0  0  0  0  0  0  0  0  0  0  0
   58.6556   23.9702   44.9615 H   0  0  0  0  0  0  0  0  0  0  0  0
   56.2756   24.6876   44.7123 H   0  0  0  0  0  0  0  0  0  0  0  0
   56.9224   27.8510   47.5911 H   0  0  0  0  0  0  0  0  0  0  0  0
   59.0844   31.5567   49.6929 H   0  0  0  0  0  0  0  0  0  0  0  0
   59.3486   34.6977   44.1257 H   0  0  0  0  0  0  0  0  0  0  0  0
   58.1573   33.5257   42.2752 H   0  0  0  0  0  0  0  0  0  0  0  0
   56.8561   31.6135   41.4712 H   0  0  0  0  0  0  0  0  0  0  0  0
   55.7576   29.4135   41.9064 H   0  0  0  0  0  0  0  0  0  0  0  0
   55.8489   28.3955   44.1814 H   0  0  0  0  0  0  0  0  0  0  0  0
   57.0366   29.5696   46.0375 H   0  0  0  0  0  0  0  0  0  0  0  0
   58.3293   31.4861   46.8437 H   0  0  0  0  0  0  0  0  0  0  0  0
  1  2  2  0
  2  3  2  0
  2  4  1  0
  4  5  1  0
  5  6  2  0
  6  7  1  0
  7  8  2  0
  8  9  1  0
  9 10  1  0
 10 11  2  0
 11 12  1  0
 12 13  2  0
 13 14  1  0
 14 15  1  0
 14 16  2  0
  8 17  1  0
 17 18  1  0
 17 19  2  0
  2 20  1  0
 20 21  2  0
 21 22  1  0
 22 23  2  0
 23 24  1  0
 24 25  2  0
 25 26  1  0
 26 27  2  0
 27 28  1  0
 28 29  2  0
 19  5  1  0
 29 20  1  0
 16 10  1  0
 28 23  1  0
  6 30  1  0
  7 31  1  0
 11 32  1  0
 12 33  1  0
 13 34  1  0
 16 35  1  0
 19 36  1  0
 21 37  1  0
 22 38  1  0
 24 39  1  0
 25 40  1  0
 26 41  1  0
 27 42  1  0
 29 43  1  0
M  CHG  3   4  -1  15  -1  18  -1
M  END
>  <UniqueID>  (38) 
35

>  <SMILES>  (38) 
O=S(=O)([N-]c1ccc(Oc2cccc([O-])c2)c([O-])c1)c1ccc2ccccc2c1

>  <Energy>  (38) 
61.44916319217714

>  <Genealogy>  (38) 
O=S(=O)([N-]c1ccc(Oc2cccc([O-])c2)c([O-])c1)c1ccc2ccccc2c1 (protonated)
O=S(=O)([N-]c1ccc(Oc2cccc([O-])c2)c([O-])c1)c1ccc2ccccc2c1 (3D coordinates assigned)
O=S(=O)([N-]c1ccc(Oc2cccc([O-])c2)c([O-])c1)c1ccc2ccccc2c1 (optimized conformer: 61.44916319217714 kcal/mol)

>  <smiles>  (38) 
O=S(=O)(Nc1ccc(Oc2cccc(O)c2)c(O)c1)c1ccc2ccccc2c1

>  <score_type>  (38) 
oracle

>  <origin>  (38) 
adg

>  <m_score__min__energy>  (38) 
-16.210000000000001

>  <m_primary>  (38) 
energy

$$$$
38:0
     RDKit          3D

 35 36  0  0  0  0  0  0  0  0999 V2000
   59.5070   27.3710   46.0630 C   0  0  0  0  0  0  0  0  0  0  0  0
   58.4000   28.1300   46.7880 C   0  0  0  0  0  0  0  0  0  0  0  0
   57.9880   29.3680   46.0120 C   0  0  0  0  0  0  0  0  0  0  0  0
   58.7380   30.5770   46.0840 C   0  0  0  0  0  0  0  0  0  0  0  0
   59.9750   30.7420   46.9540 C   0  0  0  0  0  0  0  0  0  0  0  0
   59.6660   31.4590   48.2460 C   0  0  0  0  0  0  0  0  0  0  0  0
   59.0290   30.7770   49.2940 C   0  0  0  0  0  0  0  0  0  0  0  0
   58.7270   31.4400   50.4880 C   0  0  0  0  0  0  0  0  0  0  0  0
   59.0690   32.7900   50.6520 C   0  0  0  0  0  0  0  0  0  0  0  0
   58.7080   33.5110   51.9170 C   0  0  0  0  0  0  0  0  0  0  0  0
   59.6870   33.4780   49.5990 C   0  0  0  0  0  0  0  0  0  0  0  0
   59.9890   32.8160   48.4050 C   0  0  0  0  0  0  0  0  0  0  0  0
   58.3550   31.6460   45.2590 C   0  0  0  0  0  0  0  0  0  0  0  0
   57.2220   31.5560   44.4630 C   0  0  0  0  0  0  0  0  0  0  0  0
   56.4670   30.3870   44.4730 C   0  0  0  0  0  0  0  0  0  0  0  0
   55.4270   30.3240   43.7630 O   0  0  0  0  0  0  0  0  0  0  0  0
   56.8520   29.3200   45.2390 N   0  0  0  0  0  0  0  0  0  0  0  0
   56.0870   28.1660   45.2380 O   0  0  0  0  0  0  0  0  0  0  0  0
   60.1796   26.9099   46.8012 H   0  0  0  0  0  0  0  0  0  0  0  0
   59.0619   26.5872   45.4325 H   0  0  0  0  0  0  0  0  0  0  0  0
   60.0777   28.0687   45.4325 H   0  0  0  0  0  0  0  0  0  0  0  0
   57.5272   27.4703   46.9019 H   0  0  0  0  0  0  0  0  0  0  0  0
   58.7781   28.4440   47.7721 H   0  0  0  0  0  0  0  0  0  0  0  0
   60.3798   29.7464   47.1884 H   0  0  0  0  0  0  0  0  0  0  0  0
   60.7048   31.3469   46.3958 H   0  0  0  0  0  0  0  0  0  0  0  0
   58.7658   29.7155   49.1759 H   0  0  0  0  0  0  0  0  0  0  0  0
   58.2194   30.9005   51.3012 H   0  0  0  0  0  0  0  0  0  0  0  0
   59.0113   32.9052   52.7836 H   0  0  0  0  0  0  0  0  0  0  0  0
   59.2271   34.4803   51.9475 H   0  0  0  0  0  0  0  0  0  0  0  0
   57.6209   33.6761   51.9475 H   0  0  0  0  0  0  0  0  0  0  0  0
   59.9356   34.5435   49.7123 H   0  0  0  0  0  0  0  0  0  0  0  0
   60.4819   33.3610   47.5864 H   0  0  0  0  0  0  0  0  0  0  0  0
   58.9595   32.5649   45.2433 H   0  0  0  0  0  0  0  0  0  0  0  0
   56.9226   32.4030   43.8283 H   0  0  0  0  0  0  0  0  0  0  0  0
   55.1390   28.1430   44.8800 H   0  0  0  0  0  0  0  0  0  0  0  0
  1  2  1  0
  2  3  1  0
  3  4  2  0
  4  5  1  0
  5  6  1  0
  6  7  2  0
  7  8  1  0
  8  9  2  0
  9 10  1  0
  9 11  1  0
 11 12  2  0
  4 13  1  0
 13 14  2  0
 14 15  1  0
 15 16  2  0
 15 17  1  0
 17 18  1  0
 17  3  1  0
 12  6  1  0
  1 19  1  0
  1 20  1  0
  1 21  1  0
  2 22  1  0
  2 23  1  0
  5 24  1  0
  5 25  1  0
  7 26  1  0
  8 27  1  0
 10 28  1  0
 10 29  1  0
 10 30  1  0
 11 31  1  0
 12 32  1  0
 13 33  1  0
 14 34  1  0
 18 35  1  0
M  END
>  <UniqueID>  (39) 
36

>  <SMILES>  (39) 
CCc1c(Cc2ccc(C)cc2)ccc(=O)n1O

>  <Energy>  (39) 
37.190603984540914

>  <Genealogy>  (39) 
CCc1c(Cc2ccc(C)cc2)ccc(=O)n1O (3D coordinates assigned)
CCc1c(Cc2ccc(C)cc2)ccc(=O)n1O (optimized conformer: 37.190603984540914 kcal/mol)

>  <smiles>  (39) 
CCc1c(Cc2ccc(C)cc2)ccc(=O)n1O

>  <score_type>  (39) 
oracle

>  <origin>  (39) 
adg

>  <m_score__min__energy>  (39) 
-7.4800000000000004

>  <m_primary>  (39) 
energy

$$$$
39:0
     RDKit          3D

 34 35  0  0  0  0  0  0  0  0999 V2000
   54.7090   26.3100   46.0050 O   0  0  0  0  0  0  0  0  0  0  0  0
   55.8710   26.0230   46.4040 C   0  0  0  0  0  0  0  0  0  0  0  0
   56.0810   24.8550   47.2130 N   0  0  0  0  0  0  0  0  0  0  0  0
   55.3360   23.5920   47.1430 C   0  0  1  0  0  0  0  0  0  0  0  0
   55.2430   23.0660   45.6890 C   0  0  0  0  0  0  0  0  0  0  0  0
   56.5610   22.6280   45.0980 C   0  0  0  0  0  0  0  0  0  0  0  0
   56.5880   21.7360   44.0120 C   0  0  0  0  0  0  0  0  0  0  0  0
   57.8050   21.3540   43.4400 C   0  0  0  0  0  0  0  0  0  0  0  0
   59.0100   21.8510   43.9540 C   0  0  0  0  0  0  0  0  0  0  0  0
   60.2280   21.4800   43.3900 O   0  0  0  0  0  0  0  0  0  0  0  0
   58.9900   22.7280   45.0430 C   0  0  0  0  0  0  0  0  0  0  0  0
   57.7740   23.1140   45.6140 C   0  0  0  0  0  0  0  0  0  0  0  0
   55.8470   22.5770   48.1380 C   0  0  0  0  0  0  0  0  0  0  0  0
   55.0530   21.9990   48.9270 O   0  0  0  0  0  0  0  0  0  0  0  0
   57.2130   22.3690   48.2850 O   0  0  0  0  0  0  0  0  0  0  0  0
   57.0070   26.9130   46.0510 C   0  0  0  0  0  0  0  0  0  0  0  0
   58.3270   26.4720   46.2780 C   0  0  0  0  0  0  0  0  0  0  0  0
   59.4180   27.2780   45.9440 C   0  0  0  0  0  0  0  0  0  0  0  0
   59.2100   28.5360   45.3770 C   0  0  0  0  0  0  0  0  0  0  0  0
   57.9120   28.9920   45.1470 C   0  0  0  0  0  0  0  0  0  0  0  0
   56.8110   28.1930   45.4790 C   0  0  0  0  0  0  0  0  0  0  0  0
   55.5340   28.6920   45.2450 O   0  0  0  0  0  0  0  0  0  0  0  0
   54.2986   23.7917   47.4496 H   0  0  0  0  0  0  0  0  0  0  0  0
   54.5581   22.2053   45.6778 H   0  0  0  0  0  0  0  0  0  0  0  0
   54.8872   23.9057   45.0739 H   0  0  0  0  0  0  0  0  0  0  0  0
   55.6456   21.3360   43.6097 H   0  0  0  0  0  0  0  0  0  0  0  0
   57.8166   20.6621   42.5849 H   0  0  0  0  0  0  0  0  0  0  0  0
   61.0800   21.4570   43.9370 H   0  0  0  0  0  0  0  0  0  0  0  0
   59.9348   23.1156   45.4518 H   0  0  0  0  0  0  0  0  0  0  0  0
   57.7667   23.8021   46.4722 H   0  0  0  0  0  0  0  0  0  0  0  0
   58.4997   25.4812   46.7235 H   0  0  0  0  0  0  0  0  0  0  0  0
   60.4419   26.9207   46.1281 H   0  0  0  0  0  0  0  0  0  0  0  0
   60.0700   29.1683   45.1113 H   0  0  0  0  0  0  0  0  0  0  0  0
   57.7523   29.9853   44.7021 H   0  0  0  0  0  0  0  0  0  0  0  0
  1  2  2  0
  2  3  1  0
  3  4  1  0
  4  5  1  0
  5  6  1  0
  6  7  2  0
  7  8  1  0
  8  9  2  0
  9 10  1  0
  9 11  1  0
 11 12  2  0
  4 13  1  0
 13 14  2  0
 13 15  1  0
  2 16  1  0
 16 17  2  0
 17 18  1  0
 18 19  2  0
 19 20  1  0
 20 21  2  0
 21 22  1  0
 12  6  1  0
 21 16  1  0
  4 23  1  1
  5 24  1  0
  5 25  1  0
  7 26  1  0
  8 27  1  0
 10 28  1  0
 11 29  1  0
 12 30  1  0
 17 31  1  0
 18 32  1  0
 19 33  1  0
 20 34  1  0
M  CHG  3   3  -1  15  -1  22  -1
M  END
>  <UniqueID>  (40) 
37

>  <SMILES>  (40) 
O=C([N-][C@@H](Cc1ccc(O)cc1)C(=O)[O-])c1ccccc1[O-]

>  <Energy>  (40) 
37.59248236265825

>  <Genealogy>  (40) 
O=C([N-]C(Cc1ccc(O)cc1)C(=O)[O-])c1ccccc1[O-] (protonated)
O=C([N-][C@@H](Cc1ccc(O)cc1)C(=O)[O-])c1ccccc1[O-] (chirality)
O=C([N-][C@@H](Cc1ccc(O)cc1)C(=O)[O-])c1ccccc1[O-] (3D coordinates assigned)
O=C([N-][C@@H](Cc1ccc(O)cc1)C(=O)[O-])c1ccccc1[O-] (optimized conformer: 37.59248236265825 kcal/mol)

>  <smiles>  (40) 
O=C(NC(Cc1ccc(O)cc1)C(=O)O)c1ccccc1O

>  <score_type>  (40) 
oracle

>  <origin>  (40) 
adg

>  <m_score__min__energy>  (40) 
-15.99

>  <m_primary>  (40) 
energy

$$$$
40:0
     RDKit          3D

 54 58  0  0  0  0  0  0  0  0999 V2000
   56.0640   30.8520   44.7510 O   0  0  0  0  0  0  0  0  0  0  0  0
   57.0140   30.2640   44.1630 C   0  0  0  0  0  0  0  0  0  0  0  0
   57.8480   31.0000   43.2550 N   0  0  0  0  0  0  0  0  0  0  0  0
   57.7950   32.4570   43.1540 C   0  0  0  0  0  0  0  0  0  0  0  0
   58.0450   33.0720   44.4940 C   0  0  0  0  0  0  0  0  0  0  0  0
   58.8770   32.5910   45.4800 C   0  0  0  0  0  0  0  0  0  0  0  0
   58.8360   33.4990   46.4700 N   0  0  0  0  0  0  0  0  0  0  0  0
   59.5000   33.4080   47.7650 C   0  0  0  0  0  0  0  0  0  0  0  0
   60.9750   33.1990   47.5680 C   0  0  0  0  0  0  0  0  0  0  0  0
   61.6200   32.0960   48.1530 C   0  0  0  0  0  0  0  0  0  0  0  0
   62.9840   31.8810   47.9350 C   0  0  0  0  0  0  0  0  0  0  0  0
   63.7110   32.7570   47.1250 C   0  0  0  0  0  0  0  0  0  0  0  0
   63.0740   33.8470   46.5250 C   0  0  0  0  0  0  0  0  0  0  0  0
   61.7100   34.0670   46.7410 C   0  0  0  0  0  0  0  0  0  0  0  0
   58.0180   34.4770   46.1140 N   0  0  0  0  0  0  0  0  0  0  0  0
   57.5290   34.2480   44.9040 N   0  0  0  0  0  0  0  0  0  0  0  0
   57.2400   28.8200   44.4130 C   0  0  0  0  0  0  0  0  0  0  0  0
   57.7890   28.0090   43.4050 C   0  0  0  0  0  0  0  0  0  0  0  0
   57.9980   26.6440   43.6250 C   0  0  0  0  0  0  0  0  0  0  0  0
   57.6630   26.0650   44.8580 C   0  0  0  0  0  0  0  0  0  0  0  0
   57.8480   24.5890   45.0810 C   0  0  0  0  0  0  0  0  0  0  0  0
   56.6410   24.0140   45.7700 C   0  0  0  0  0  0  0  0  0  0  0  0
   56.7170   23.6240   47.1320 C   0  0  0  0  0  0  0  0  0  0  0  0
   55.6030   23.0500   47.7730 C   0  0  0  0  0  0  0  0  0  0  0  0
   54.4440   22.8740   47.0260 C   0  0  0  0  0  0  0  0  0  0  0  0
   54.3680   23.2350   45.7200 C   0  0  0  0  0  0  0  0  0  0  0  0
   55.4450   23.8070   45.0480 C   0  0  0  0  0  0  0  0  0  0  0  0
   53.1090   22.9400   45.2330 O   0  0  0  0  0  0  0  0  0  0  0  0
   52.3460   22.3580   46.3000 C   0  0  0  0  0  0  0  0  0  0  0  0
   53.2360   22.3340   47.4250 O   0  0  0  0  0  0  0  0  0  0  0  0
   57.0920   26.8660   45.8590 C   0  0  0  0  0  0  0  0  0  0  0  0
   56.8830   28.2320   45.6400 C   0  0  0  0  0  0  0  0  0  0  0  0
   58.4770   30.4900   42.5960 H   0  0  0  0  0  0  0  0  0  0  0  0
   58.5634   32.8013   42.4461 H   0  0  0  0  0  0  0  0  0  0  0  0
   56.7985   32.7583   42.7987 H   0  0  0  0  0  0  0  0  0  0  0  0
   59.4561   31.6560   45.4613 H   0  0  0  0  0  0  0  0  0  0  0  0
   59.3350   34.3397   48.3261 H   0  0  0  0  0  0  0  0  0  0  0  0
   59.0849   32.5582   48.3267 H   0  0  0  0  0  0  0  0  0  0  0  0
   61.0495   31.3993   48.7847 H   0  0  0  0  0  0  0  0  0  0  0  0
   63.4858   31.0207   48.4020 H   0  0  0  0  0  0  0  0  0  0  0  0
   64.7854   32.5888   46.9593 H   0  0  0  0  0  0  0  0  0  0  0  0
   63.6462   34.5323   45.8824 H   0  0  0  0  0  0  0  0  0  0  0  0
   61.2102   34.9220   46.2623 H   0  0  0  0  0  0  0  0  0  0  0  0
   58.0567   28.4520   42.4344 H   0  0  0  0  0  0  0  0  0  0  0  0
   58.4275   26.0208   42.8268 H   0  0  0  0  0  0  0  0  0  0  0  0
   57.9855   24.0891   44.1109 H   0  0  0  0  0  0  0  0  0  0  0  0
   58.7334   24.4292   45.7138 H   0  0  0  0  0  0  0  0  0  0  0  0
   57.6529   23.7712   47.6909 H   0  0  0  0  0  0  0  0  0  0  0  0
   55.6481   22.7505   48.8305 H   0  0  0  0  0  0  0  0  0  0  0  0
   55.3667   24.0889   43.9876 H   0  0  0  0  0  0  0  0  0  0  0  0
   51.4604   22.9718   46.5211 H   0  0  0  0  0  0  0  0  0  0  0  0
   51.9780   21.3536   46.0437 H   0  0  0  0  0  0  0  0  0  0  0  0
   56.8070   26.4170   46.8219 H   0  0  0  0  0  0  0  0  0  0  0  0
   56.4365   28.8503   46.4327 H   0  0  0  0  0  0  0  0  0  0  0  0
  1  2  2  0
  2  3  1  0
  3  4  1  0
  4  5  1  0
  5  6  2  0
  6  7  1  0
  7  8  1  0
  8  9  1  0
  9 10  2  0
 10 11  1  0
 11 12  2  0
 12 13  1  0
 13 14  2  0
  7 15  1  0
 15 16  2  0
  2 17  1  0
 17 18  2  0
 18 19  1  0
 19 20  2  0
 20 21  1  0
 21 22  1  0
 22 23  2  0
 23 24  1  0
 24 25  2  0
 25 26  1  0
 26 27  2  0
 26 28  1  0
 28 29  1  0
 29 30  1  0
 20 31  1  0
 31 32  2  0
 16  5  1  0
 32 17  1  0
 14  9  1  0
 27 22  1  0
 30 25  1  0
  3 33  1  0
  4 34  1  0
  4 35  1  0
  6 36  1  0
  8 37  1  0
  8 38  1  0
 10 39  1  0
 11 40  1  0
 12 41  1  0
 13 42  1  0
 14 43  1  0
 18 44  1  0
 19 45  1  0
 21 46  1  0
 21 47  1  0
 23 48  1  0
 24 49  1  0
 27 50  1  0
 29 51  1  0
 29 52  1  0
 31 53  1  0
 32 54  1  0
M  END
>  <UniqueID>  (41) 
38

>  <SMILES>  (41) 
O=C(NCc1cn(Cc2ccccc2)nn1)c1ccc(Cc2ccc3c(c2)OCO3)cc1

>  <Energy>  (41) 
118.81104957367258

>  <Genealogy>  (41) 
O=C(NCc1cn(Cc2ccccc2)nn1)c1ccc(Cc2ccc3c(c2)OCO3)cc1 (3D coordinates assigned)
O=C(NCc1cn(Cc2ccccc2)nn1)c1ccc(Cc2ccc3c(c2)OCO3)cc1 (nonaromatic ring conformer: 118.81104957367258 kcal/mol)

>  <smiles>  (41) 
O=C(NCc1cn(Cc2ccccc2)nn1)c1ccc(Cc2ccc3c(c2)OCO3)cc1

>  <score_type>  (41) 
oracle

>  <origin>  (41) 
adg

>  <m_score__min__energy>  (41) 
-9.9900000000000002

>  <m_primary>  (41) 
energy

$$$$
41:0
     RDKit          3D

 64 67  0  0  0  0  0  0  0  0999 V2000
   63.7680   33.4760   46.8850 C   0  0  0  0  0  0  0  0  0  0  0  0
   62.3940   32.8130   46.9540 C   0  0  0  0  0  0  0  0  0  0  0  0
   62.4390   31.5940   47.7880 N   0  0  0  0  0  0  0  0  0  0  0  0
   61.4580   30.5660   47.3640 C   0  0  0  0  0  0  0  0  0  0  0  0
   60.8010   29.8030   48.5260 C   0  0  0  0  0  0  0  0  0  0  0  0
   62.3890   31.8730   49.2430 C   0  0  0  0  0  0  0  0  0  0  0  0
   61.8980   33.3040   49.5000 C   0  0  0  0  0  0  0  0  0  0  0  0
   60.4310   33.3660   49.5970 N   0  0  0  0  0  0  0  0  0  0  0  0
   59.8080   33.3760   50.8950 C   0  0  0  0  0  0  0  0  0  0  0  0
   60.1940   34.2060   51.7620 O   0  0  0  0  0  0  0  0  0  0  0  0
   58.7470   32.4100   51.2460 C   0  0  0  0  0  0  0  0  0  0  0  0
   58.8300   31.0730   50.8220 C   0  0  0  0  0  0  0  0  0  0  0  0
   57.8290   30.1610   51.1600 C   0  0  0  0  0  0  0  0  0  0  0  0
   56.7300   30.5640   51.9250 C   0  0  0  0  0  0  0  0  0  0  0  0
   55.7340   29.6200   52.2210 O   0  0  0  0  0  0  0  0  0  0  0  0
   54.3500   29.8360   52.1250 C   0  0  0  0  0  0  0  0  0  0  0  0
   53.4960   29.0750   52.9350 C   0  0  0  0  0  0  0  0  0  0  0  0
   52.1120   29.2700   52.8840 C   0  0  0  0  0  0  0  0  0  0  0  0
   51.5710   30.2340   52.0280 C   0  0  0  0  0  0  0  0  0  0  0  0
   52.4160   31.0100   51.2280 C   0  0  0  0  0  0  0  0  0  0  0  0
   53.8010   30.8230   51.2830 C   0  0  0  0  0  0  0  0  0  0  0  0
   56.6310   31.9080   52.3280 C   0  0  0  0  0  0  0  0  0  0  0  0
   57.6430   32.8170   52.0120 C   0  0  0  0  0  0  0  0  0  0  0  0
   59.6380   33.5090   48.3990 C   0  0  0  0  0  0  0  0  0  0  0  0
   59.2250   32.4590   47.6560 N   0  0  0  0  0  0  0  0  0  0  0  0
   58.6030   32.8410   46.5050 C   0  0  0  0  0  0  0  0  0  0  0  0
   58.1200   31.8340   45.5220 C   0  0  0  0  0  0  0  0  0  0  0  0
   57.6060   32.2620   44.2810 C   0  0  0  0  0  0  0  0  0  0  0  0
   57.1200   31.3380   43.3540 C   0  0  0  0  0  0  0  0  0  0  0  0
   57.1380   29.9700   43.6490 C   0  0  0  0  0  0  0  0  0  0  0  0
   56.6530   29.0370   42.7340 O   0  0  0  0  0  0  0  0  0  0  0  0
   57.6480   29.5320   44.8730 C   0  0  0  0  0  0  0  0  0  0  0  0
   58.1400   30.4530   45.8030 C   0  0  0  0  0  0  0  0  0  0  0  0
   58.5230   34.2290   46.3290 C   0  0  0  0  0  0  0  0  0  0  0  0
   59.2630   34.9670   47.6460 S   0  0  0  0  0  0  0  0  0  0  0  0
   64.1401   33.6555   47.9045 H   0  0  0  0  0  0  0  0  0  0  0  0
   64.4671   32.8161   46.3504 H   0  0  0  0  0  0  0  0  0  0  0  0
   63.6865   34.4339   46.3504 H   0  0  0  0  0  0  0  0  0  0  0  0
   61.6737   33.5211   47.3895 H   0  0  0  0  0  0  0  0  0  0  0  0
   62.0876   32.5315   45.9357 H   0  0  0  0  0  0  0  0  0  0  0  0
   60.6651   31.0636   46.7863 H   0  0  0  0  0  0  0  0  0  0  0  0
   62.0144   29.8234   46.7733 H   0  0  0  0  0  0  0  0  0  0  0  0
   61.1557   30.2150   49.4823 H   0  0  0  0  0  0  0  0  0  0  0  0
   59.7080   29.9101   48.4635 H   0  0  0  0  0  0  0  0  0  0  0  0
   61.0692   28.7380   48.4635 H   0  0  0  0  0  0  0  0  0  0  0  0
   61.7009   31.1624   49.7243 H   0  0  0  0  0  0  0  0  0  0  0  0
   63.4007   31.7639   49.6608 H   0  0  0  0  0  0  0  0  0  0  0  0
   62.3334   33.6665   50.4429 H   0  0  0  0  0  0  0  0  0  0  0  0
   62.2129   33.9322   48.6537 H   0  0  0  0  0  0  0  0  0  0  0  0
   59.6894   30.7430   50.2198 H   0  0  0  0  0  0  0  0  0  0  0  0
   57.9052   29.1170   50.8220 H   0  0  0  0  0  0  0  0  0  0  0  0
   53.9169   28.3197   53.6150 H   0  0  0  0  0  0  0  0  0  0  0  0
   51.4482   28.6641   53.5182 H   0  0  0  0  0  0  0  0  0  0  0  0
   50.4819   30.3820   51.9837 H   0  0  0  0  0  0  0  0  0  0  0  0
   51.9906   31.7686   50.5545 H   0  0  0  0  0  0  0  0  0  0  0  0
   54.4636   31.4486   50.6669 H   0  0  0  0  0  0  0  0  0  0  0  0
   55.7511   32.2451   52.8955 H   0  0  0  0  0  0  0  0  0  0  0  0
   57.5749   33.8566   52.3649 H   0  0  0  0  0  0  0  0  0  0  0  0
   57.5877   33.3352   44.0405 H   0  0  0  0  0  0  0  0  0  0  0  0
   56.7220   31.6861   42.3894 H   0  0  0  0  0  0  0  0  0  0  0  0
   56.6430   28.0430   42.9440 H   0  0  0  0  0  0  0  0  0  0  0  0
   57.6628   28.4572   45.1067 H   0  0  0  0  0  0  0  0  0  0  0  0
   58.5458   30.0969   46.7614 H   0  0  0  0  0  0  0  0  0  0  0  0
   58.0570   34.7459   45.4771 H   0  0  0  0  0  0  0  0  0  0  0  0
  1  2  1  0
  2  3  1  0
  3  4  1  0
  4  5  1  0
  3  6  1  0
  6  7  1  0
  7  8  1  0
  8  9  1  0
  9 10  2  0
  9 11  1  0
 11 12  2  0
 12 13  1  0
 13 14  2  0
 14 15  1  0
 15 16  1  0
 16 17  2  0
 17 18  1  0
 18 19  2  0
 19 20  1  0
 20 21  2  0
 14 22  1  0
 22 23  2  0
  8 24  1  0
 24 25  2  0
 25 26  1  0
 26 27  1  0
 27 28  2  0
 28 29  1  0
 29 30  2  0
 30 31  1  0
 30 32  1  0
 32 33  2  0
 26 34  2  0
 34 35  1  0
 23 11  1  0
 35 24  1  0
 21 16  1  0
 33 27  1  0
  1 36  1  0
  1 37  1  0
  1 38  1  0
  2 39  1  0
  2 40  1  0
  4 41  1  0
  4 42  1  0
  5 43  1  0
  5 44  1  0
  5 45  1  0
  6 46  1  0
  6 47  1  0
  7 48  1  0
  7 49  1  0
 12 50  1  0
 13 51  1  0
 17 52  1  0
 18 53  1  0
 19 54  1  0
 20 55  1  0
 21 56  1  0
 22 57  1  0
 23 58  1  0
 28 59  1  0
 29 60  1  0
 31 61  1  0
 32 62  1  0
 33 63  1  0
 34 64  1  0
M  END
>  <UniqueID>  (42) 
39

>  <SMILES>  (42) 
CCN(CC)CCN(C(=O)c1ccc(Oc2ccccc2)cc1)c1nc(-c2ccc(O)cc2)cs1

>  <Energy>  (42) 
110.46991514445351

>  <Genealogy>  (42) 
CCN(CC)CCN(C(=O)c1ccc(Oc2ccccc2)cc1)c1nc(-c2ccc(O)cc2)cs1 (3D coordinates assigned)
CCN(CC)CCN(C(=O)c1ccc(Oc2ccccc2)cc1)c1nc(-c2ccc(O)cc2)cs1 (optimized conformer: 110.46991514445351 kcal/mol)

>  <smiles>  (42) 
CCN(CC)CCN(C(=O)c1ccc(Oc2ccccc2)cc1)c1nc(-c2ccc(O)cc2)cs1

>  <score_type>  (42) 
oracle

>  <origin>  (42) 
adg

>  <m_score__min__energy>  (42) 
-8.3200000000000003

>  <m_primary>  (42) 
energy

$$$$
42:0
     RDKit          3D

 33 34  0  0  0  0  0  0  0  0999 V2000
   55.1830   26.6960   46.0180 N   0  0  0  0  0  0  0  0  0  0  0  0
   56.8810   26.9580   45.8360 S   0  0  0  0  0  0  0  0  0  0  0  0
   57.5870   26.5770   47.1060 O   0  0  0  0  0  0  0  0  0  0  0  0
   57.4020   26.0990   44.7180 O   0  0  0  0  0  0  0  0  0  0  0  0
   57.1800   28.6550   45.4720 C   0  0  0  0  0  0  0  0  0  0  0  0
   56.4350   29.3040   44.4780 C   0  0  0  0  0  0  0  0  0  0  0  0
   56.6760   30.6500   44.1850 C   0  0  0  0  0  0  0  0  0  0  0  0
   57.6560   31.3650   44.8860 C   0  0  0  0  0  0  0  0  0  0  0  0
   57.8880   32.7480   44.5660 N   0  0  0  0  0  0  0  0  0  0  0  0
   58.5390   33.6690   45.4550 C   0  0  0  0  0  0  0  0  0  0  0  0
   59.0610   35.1040   44.8520 S   0  0  0  0  0  0  0  0  0  0  0  0
   58.4830   33.4530   46.8750 N   0  0  0  0  0  0  0  0  0  0  0  0
   59.5290   33.8240   47.7920 C   0  0  0  0  0  0  0  0  0  0  0  0
   60.4370   34.6200   47.4280 O   0  0  0  0  0  0  0  0  0  0  0  0
   59.5590   33.2780   49.1690 C   0  0  0  0  0  0  0  0  0  0  0  0
   60.6600   33.5240   50.0070 C   0  0  0  0  0  0  0  0  0  0  0  0
   60.6930   33.0120   51.2670 N   0  0  0  0  0  0  0  0  0  0  0  0
   59.6820   32.2460   51.7540 C   0  0  0  0  0  0  0  0  0  0  0  0
   58.5740   31.9610   50.9560 C   0  0  0  0  0  0  0  0  0  0  0  0
   57.1590   30.8650   51.6240 Br  0  0  0  0  0  0  0  0  0  0  0  0
   58.5140   32.4760   49.6590 C   0  0  0  0  0  0  0  0  0  0  0  0
   58.4270   30.7000   45.8560 C   0  0  0  0  0  0  0  0  0  0  0  0
   58.1840   29.3550   46.1510 C   0  0  0  0  0  0  0  0  0  0  0  0
   54.7680   26.7150   45.0600 H   0  0  0  0  0  0  0  0  0  0  0  0
   55.6586   28.7531   43.9268 H   0  0  0  0  0  0  0  0  0  0  0  0
   56.0921   31.1509   43.3987 H   0  0  0  0  0  0  0  0  0  0  0  0
   57.5310   33.1090   43.6520 H   0  0  0  0  0  0  0  0  0  0  0  0
   57.6700   32.9080   47.2380 H   0  0  0  0  0  0  0  0  0  0  0  0
   61.4996   34.1338   49.6422 H   0  0  0  0  0  0  0  0  0  0  0  0
   59.7373   31.8501   52.7788 H   0  0  0  0  0  0  0  0  0  0  0  0
   57.6470   32.2534   49.0197 H   0  0  0  0  0  0  0  0  0  0  0  0
   59.2254   31.2407   46.3854 H   0  0  0  0  0  0  0  0  0  0  0  0
   58.7839   28.8453   46.9193 H   0  0  0  0  0  0  0  0  0  0  0  0
  1  2  1  0
  2  3  2  0
  2  4  2  0
  2  5  1  0
  5  6  2  0
  6  7  1  0
  7  8  2  0
  8  9  1  0
  9 10  1  0
 10 11  2  0
 10 12  1  0
 12 13  1  0
 13 14  2  0
 13 15  1  0
 15 16  2  0
 16 17  1  0
 17 18  2  0
 18 19  1  0
 19 20  1  0
 19 21  2  0
  8 22  1  0
 22 23  2  0
 23  5  1  0
 21 15  1  0
  1 24  1  0
  6 25  1  0
  7 26  1  0
  9 27  1  0
 12 28  1  0
 16 29  1  0
 18 30  1  0
 21 31  1  0
 22 32  1  0
 23 33  1  0
M  CHG  1   1  -1
M  END
>  <UniqueID>  (43) 
40

>  <SMILES>  (43) 
[NH-]S(=O)(=O)c1ccc(NC(=S)NC(=O)c2cncc(Br)c2)cc1

>  <Energy>  (43) 
42.18673974023996

>  <Genealogy>  (43) 
[NH-]S(=O)(=O)c1ccc(NC(=S)NC(=O)c2cncc(Br)c2)cc1 (protonated)
[NH-]S(=O)(=O)c1ccc(NC(=S)NC(=O)c2cncc(Br)c2)cc1 (3D coordinates assigned)
[NH-]S(=O)(=O)c1ccc(NC(=S)NC(=O)c2cncc(Br)c2)cc1 (optimized conformer: 42.18673974023996 kcal/mol)

>  <smiles>  (43) 
NS(=O)(=O)c1ccc(NC(=S)NC(=O)c2cncc(Br)c2)cc1

>  <score_type>  (43) 
oracle

>  <origin>  (43) 
adg

>  <m_score__min__energy>  (43) 
-10.640000000000001

>  <m_primary>  (43) 
energy

$$$$
43:0
     RDKit          3D

 40 42  0  0  0  0  0  0  0  0999 V2000
   54.6030   22.3090   44.9860 O   0  0  0  0  0  0  0  0  0  0  0  0
   55.3640   23.2740   45.2600 C   0  0  0  0  0  0  0  0  0  0  0  0
   56.8510   23.0800   45.2900 C   0  0  0  0  0  0  0  0  0  0  0  0
   57.5700   24.3660   44.8620 C   0  0  0  0  0  0  0  0  0  0  0  0
   57.0790   25.5300   45.6140 N   0  0  0  0  0  0  0  0  0  0  0  0
   57.9750   26.6240   45.8810 C   0  0  0  0  0  0  0  0  0  0  0  0
   58.1410   27.0920   47.1920 C   0  0  0  0  0  0  0  0  0  0  0  0
   59.0160   28.1480   47.4600 C   0  0  0  0  0  0  0  0  0  0  0  0
   59.7440   28.7500   46.4150 C   0  0  0  0  0  0  0  0  0  0  0  0
   60.6310   29.8150   46.6310 O   0  0  0  0  0  0  0  0  0  0  0  0
   60.2600   31.1900   46.6020 C   0  0  0  0  0  0  0  0  0  0  0  0
   58.9840   31.3690   47.3550 C   0  0  0  0  0  0  0  0  0  0  0  0
   58.9390   31.1000   48.5850 O   0  0  0  0  0  0  0  0  0  0  0  0
   57.8000   31.7640   46.6540 N   0  0  0  0  0  0  0  0  0  0  0  0
   57.6130   31.6080   45.2420 C   0  0  0  0  0  0  0  0  0  0  0  0
   57.0640   30.4090   44.7660 C   0  0  0  0  0  0  0  0  0  0  0  0
   56.8610   30.2180   43.3970 C   0  0  0  0  0  0  0  0  0  0  0  0
   57.2200   31.2190   42.4910 C   0  0  0  0  0  0  0  0  0  0  0  0
   57.7970   32.4040   42.9520 C   0  0  0  0  0  0  0  0  0  0  0  0
   58.0040   32.6050   44.3220 C   0  0  0  0  0  0  0  0  0  0  0  0
   58.9160   34.2010   44.8720 Br  0  0  0  0  0  0  0  0  0  0  0  0
   59.5820   28.2740   45.1090 C   0  0  0  0  0  0  0  0  0  0  0  0
   58.7080   27.2170   44.8410 C   0  0  0  0  0  0  0  0  0  0  0  0
   55.6650   25.6500   45.8680 C   0  0  0  0  0  0  0  0  0  0  0  0
   55.1790   26.7140   46.3350 O   0  0  0  0  0  0  0  0  0  0  0  0
   54.8060   24.5380   45.6150 N   0  0  0  0  0  0  0  0  0  0  0  0
   57.1608   22.8150   46.3117 H   0  0  0  0  0  0  0  0  0  0  0  0
   57.1185   22.2737   44.5912 H   0  0  0  0  0  0  0  0  0  0  0  0
   58.6486   24.2508   45.0446 H   0  0  0  0  0  0  0  0  0  0  0  0
   57.3712   24.5349   43.7934 H   0  0  0  0  0  0  0  0  0  0  0  0
   57.5792   26.6252   48.0145 H   0  0  0  0  0  0  0  0  0  0  0  0
   59.1369   28.5108   48.4914 H   0  0  0  0  0  0  0  0  0  0  0  0
   61.0512   31.7946   47.0694 H   0  0  0  0  0  0  0  0  0  0  0  0
   60.1232   31.5144   45.5599 H   0  0  0  0  0  0  0  0  0  0  0  0
   56.7913   29.6135   45.4750 H   0  0  0  0  0  0  0  0  0  0  0  0
   56.4184   29.2793   43.0324 H   0  0  0  0  0  0  0  0  0  0  0  0
   57.0481   31.0736   41.4143 H   0  0  0  0  0  0  0  0  0  0  0  0
   58.0907   33.1843   42.2345 H   0  0  0  0  0  0  0  0  0  0  0  0
   60.1475   28.7359   44.2863 H   0  0  0  0  0  0  0  0  0  0  0  0
   58.5940   26.8482   43.8110 H   0  0  0  0  0  0  0  0  0  0  0  0
  1  2  2  0
  2  3  1  0
  3  4  1  0
  4  5  1  0
  5  6  1  0
  6  7  2  0
  7  8  1  0
  8  9  2  0
  9 10  1  0
 10 11  1  0
 11 12  1  0
 12 13  2  0
 12 14  1  0
 14 15  1  0
 15 16  2  0
 16 17  1  0
 17 18  2  0
 18 19  1  0
 19 20  2  0
 20 21  1  0
  9 22  1  0
 22 23  2  0
  5 24  1  0
 24 25  2  0
 24 26  1  0
 26  2  1  0
 23  6  1  0
 20 15  1  0
  3 27  1  0
  3 28  1  0
  4 29  1  0
  4 30  1  0
  7 31  1  0
  8 32  1  0
 11 33  1  0
 11 34  1  0
 16 35  1  0
 17 36  1  0
 18 37  1  0
 19 38  1  0
 22 39  1  0
 23 40  1  0
M  CHG  2  14  -1  26  -1
M  END
>  <UniqueID>  (44) 
41

>  <SMILES>  (44) 
O=C1CCN(c2ccc(OCC(=O)[N-]c3ccccc3Br)cc2)C(=O)[N-]1

>  <Energy>  (44) 
52.07545158153481

>  <Genealogy>  (44) 
O=C1CCN(c2ccc(OCC(=O)[N-]c3ccccc3Br)cc2)C(=O)[N-]1 (protonated)
O=C1CCN(c2ccc(OCC(=O)[N-]c3ccccc3Br)cc2)C(=O)[N-]1 (3D coordinates assigned)
O=C1CCN(c2ccc(OCC(=O)[N-]c3ccccc3Br)cc2)C(=O)[N-]1 (nonaromatic ring conformer: 52.07545158153481 kcal/mol)

>  <smiles>  (44) 
O=C1CCN(c2ccc(OCC(=O)Nc3ccccc3Br)cc2)C(=O)N1

>  <score_type>  (44) 
oracle

>  <origin>  (44) 
adg

>  <m_score__min__energy>  (44) 
-10.73

>  <m_primary>  (44) 
energy

$$$$
44:0
     RDKit          3D

 75 79  0  0  0  0  0  0  0  0999 V2000
   68.6700   32.2540   51.9830 O   0  0  0  0  0  0  0  0  0  0  0  0
   67.5510   31.8390   51.5800 C   0  0  0  0  0  0  0  0  0  0  0  0
   66.8750   32.5380   50.4250 C   0  0  0  0  0  0  0  0  0  0  0  0
   65.8560   33.5940   50.8790 C   0  0  0  0  0  0  0  0  0  0  0  0
   64.5550   33.4870   50.1230 C   0  0  0  0  0  0  0  0  0  0  0  0
   63.4330   34.2230   50.5390 C   0  0  0  0  0  0  0  0  0  0  0  0
   62.2300   34.1390   49.8320 C   0  0  0  0  0  0  0  0  0  0  0  0
   62.1410   33.3450   48.6840 C   0  0  0  0  0  0  0  0  0  0  0  0
   60.9000   33.2760   47.9750 N   0  0  0  0  0  0  0  0  0  0  0  0
   59.8980   34.3010   47.9430 C   0  0  0  0  0  0  0  0  0  0  0  0
   59.6820   34.9660   48.9920 O   0  0  0  0  0  0  0  0  0  0  0  0
   59.2360   34.7170   46.6530 C   0  0  0  0  0  0  0  0  0  0  0  0
   58.6770   33.5330   45.9100 C   0  0  0  0  0  0  0  0  0  0  0  0
   58.4960   32.3040   46.5640 C   0  0  0  0  0  0  0  0  0  0  0  0
   57.9410   31.2170   45.8830 C   0  0  0  0  0  0  0  0  0  0  0  0
   57.5700   31.3350   44.5390 C   0  0  0  0  0  0  0  0  0  0  0  0
   56.9700   30.2060   43.8860 N   0  0  0  0  0  0  0  0  0  0  0  0
   55.9910   29.3270   44.4500 C   0  0  0  0  0  0  0  0  0  0  0  0
   54.7660   29.4860   44.1970 O   0  0  0  0  0  0  0  0  0  0  0  0
   56.4270   28.2640   45.3030 N   0  0  0  0  0  0  0  0  0  0  0  0
   57.7660   28.0430   45.7700 C   0  0  0  0  0  0  0  0  0  0  0  0
   57.9700   27.7600   47.1270 C   0  0  0  0  0  0  0  0  0  0  0  0
   59.2600   27.5370   47.6160 C   0  0  0  0  0  0  0  0  0  0  0  0
   60.3590   27.6220   46.7590 C   0  0  0  0  0  0  0  0  0  0  0  0
   60.1700   27.9330   45.4100 C   0  0  0  0  0  0  0  0  0  0  0  0
   58.8800   28.1440   44.9130 C   0  0  0  0  0  0  0  0  0  0  0  0
   57.7260   32.5720   43.8890 C   0  0  0  0  0  0  0  0  0  0  0  0
   58.2750   33.6610   44.5710 C   0  0  0  0  0  0  0  0  0  0  0  0
   63.2490   32.5840   48.2820 C   0  0  0  0  0  0  0  0  0  0  0  0
   64.4500   32.6570   48.9950 C   0  0  0  0  0  0  0  0  0  0  0  0
   66.9210   30.7670   52.2960 N   0  0  0  0  0  0  0  0  0  0  0  0
   65.8520   30.9030   53.2820 C   0  0  0  0  0  0  0  0  0  0  0  0
   64.4970   30.9180   52.6200 C   0  0  0  0  0  0  0  0  0  0  0  0
   64.2120   30.0530   51.5550 C   0  0  0  0  0  0  0  0  0  0  0  0
   62.9640   30.0960   50.9300 C   0  0  0  0  0  0  0  0  0  0  0  0
   61.9960   31.0100   51.3770 C   0  0  0  0  0  0  0  0  0  0  0  0
   60.7100   31.1150   50.7380 N   0  0  0  0  0  0  0  0  0  0  0  0
   60.2210   30.1310   49.7870 C   0  0  0  0  0  0  0  0  0  0  0  0
   58.8950   30.6750   49.2720 C   0  0  0  0  0  0  0  0  0  0  0  0
   58.4710   31.7490   50.2700 C   0  0  0  0  0  0  0  0  0  0  0  0
   59.7430   32.1710   50.9930 C   0  0  0  0  0  0  0  0  0  0  0  0
   62.2890   31.8210   52.4330 N   0  0  0  0  0  0  0  0  0  0  0  0
   63.4930   31.7910   53.0610 C   0  0  0  0  0  0  0  0  0  0  0  0
   67.6451   33.0328   49.8150 H   0  0  0  0  0  0  0  0  0  0  0  0
   66.3269   31.7751   49.8526 H   0  0  0  0  0  0  0  0  0  0  0  0
   65.6556   33.4558   51.9517 H   0  0  0  0  0  0  0  0  0  0  0  0
   66.2843   34.5871   50.6785 H   0  0  0  0  0  0  0  0  0  0  0  0
   63.5015   34.8693   51.4265 H   0  0  0  0  0  0  0  0  0  0  0  0
   61.3498   34.6996   50.1799 H   0  0  0  0  0  0  0  0  0  0  0  0
   58.4167   35.4146   46.8810 H   0  0  0  0  0  0  0  0  0  0  0  0
   59.9942   35.1961   46.0161 H   0  0  0  0  0  0  0  0  0  0  0  0
   58.7925   32.1960   47.6178 H   0  0  0  0  0  0  0  0  0  0  0  0
   57.7947   30.2613   46.4076 H   0  0  0  0  0  0  0  0  0  0  0  0
   57.1100   27.7131   47.8112 H   0  0  0  0  0  0  0  0  0  0  0  0
   59.4099   27.2940   48.6783 H   0  0  0  0  0  0  0  0  0  0  0  0
   61.3733   27.4442   47.1457 H   0  0  0  0  0  0  0  0  0  0  0  0
   61.0372   28.0120   44.7379 H   0  0  0  0  0  0  0  0  0  0  0  0
   58.7346   28.3894   43.8506 H   0  0  0  0  0  0  0  0  0  0  0  0
   57.4147   32.6828   42.8398 H   0  0  0  0  0  0  0  0  0  0  0  0
   58.3930   34.6253   44.0551 H   0  0  0  0  0  0  0  0  0  0  0  0
   63.1728   31.9274   47.4027 H   0  0  0  0  0  0  0  0  0  0  0  0
   65.3163   32.0616   48.6708 H   0  0  0  0  0  0  0  0  0  0  0  0
   65.8998   30.0558   53.9820 H   0  0  0  0  0  0  0  0  0  0  0  0
   65.9894   31.8553   53.8151 H   0  0  0  0  0  0  0  0  0  0  0  0
   64.9736   29.3380   51.2103 H   0  0  0  0  0  0  0  0  0  0  0  0
   62.7405   29.4183   50.0929 H   0  0  0  0  0  0  0  0  0  0  0  0
   60.9342   30.0121   48.9580 H   0  0  0  0  0  0  0  0  0  0  0  0
   60.0992   29.1424   50.2538 H   0  0  0  0  0  0  0  0  0  0  0  0
   59.0231   31.1117   48.2706 H   0  0  0  0  0  0  0  0  0  0  0  0
   58.1381   29.8816   49.1849 H   0  0  0  0  0  0  0  0  0  0  0  0
   58.0273   32.6069   49.7436 H   0  0  0  0  0  0  0  0  0  0  0  0
   57.7131   31.3717   50.9723 H   0  0  0  0  0  0  0  0  0  0  0  0
   60.1090   33.1298   50.5971 H   0  0  0  0  0  0  0  0  0  0  0  0
   59.5700   32.3113   52.0702 H   0  0  0  0  0  0  0  0  0  0  0  0
   63.6807   32.4540   53.9185 H   0  0  0  0  0  0  0  0  0  0  0  0
  1  2  2  0
  2  3  1  0
  3  4  1  0
  4  5  1  0
  5  6  2  0
  6  7  1  0
  7  8  2  0
  8  9  1  0
  9 10  1  0
 10 11  2  0
 10 12  1  0
 12 13  1  0
 13 14  2  0
 14 15  1  0
 15 16  2  0
 16 17  1  0
 17 18  1  0
 18 19  2  0
 18 20  1  0
 20 21  1  0
 21 22  2  0
 22 23  1  0
 23 24  2  0
 24 25  1  0
 25 26  2  0
 16 27  1  0
 27 28  2  0
  8 29  1  0
 29 30  2  0
  2 31  1  0
 31 32  1  0
 32 33  1  0
 33 34  2  0
 34 35  1  0
 35 36  2  0
 36 37  1  0
 37 38  1  0
 38 39  1  0
 39 40  1  0
 40 41  1  0
 36 42  1  0
 42 43  2  0
 30  5  1  0
 43 33  1  0
 28 13  1  0
 41 37  1  0
 26 21  1  0
  3 44  1  0
  3 45  1  0
  4 46  1  0
  4 47  1  0
  6 48  1  0
  7 49  1  0
 12 50  1  0
 12 51  1  0
 14 52  1  0
 15 53  1  0
 22 54  1  0
 23 55  1  0
 24 56  1  0
 25 57  1  0
 26 58  1  0
 27 59  1  0
 28 60  1  0
 29 61  1  0
 30 62  1  0
 32 63  1  0
 32 64  1  0
 34 65  1  0
 35 66  1  0
 38 67  1  0
 38 68  1  0
 39 69  1  0
 39 70  1  0
 40 71  1  0
 40 72  1  0
 41 73  1  0
 41 74  1  0
 43 75  1  0
M  CHG  4   9  -1  17  -1  20  -1  31  -1
M  END
>  <UniqueID>  (45) 
42

>  <SMILES>  (45) 
O=C(CCc1ccc([N-]C(=O)Cc2ccc([N-]C(=O)[N-]c3ccccc3)cc2)cc1)[N-]Cc1ccc(N2CCCC2)nc1

>  <Energy>  (45) 
89.08119518416937

>  <Genealogy>  (45) 
O=C(CCc1ccc([N-]C(=O)Cc2ccc([N-]C(=O)[N-]c3ccccc3)cc2)cc1)[N-]Cc1ccc(N2CCCC2)nc1 (protonated)
O=C(CCc1ccc([N-]C(=O)Cc2ccc([N-]C(=O)[N-]c3ccccc3)cc2)cc1)[N-]Cc1ccc(N2CCCC2)nc1 (3D coordinates assigned)
O=C(CCc1ccc([N-]C(=O)Cc2ccc([N-]C(=O)[N-]c3ccccc3)cc2)cc1)[N-]Cc1ccc(N2CCCC2)nc1 (nonaromatic ring conformer: 89.08119518416937 kcal/mol)

>  <smiles>  (45) 
O=C(CCc1ccc(NC(=O)Cc2ccc(NC(=O)Nc3ccccc3)cc2)cc1)NCc1ccc(N2CCCC2)nc1

>  <score_type>  (45) 
oracle

>  <origin>  (45) 
adg

>  <m_score__min__energy>  (45) 
-15.77

>  <m_primary>  (45) 
energy

$$$$
45:0
     RDKit          3D

 26 27  0  0  0  0  0  0  0  0999 V2000
   62.6000   33.6770   50.6570 C   0  0  0  0  0  0  0  0  0  0  0  0
   62.1220   34.5420   49.6320 O   0  0  0  0  0  0  0  0  0  0  0  0
   61.1720   34.1800   48.6660 C   0  0  0  0  0  0  0  0  0  0  0  0
   59.7870   34.3250   48.8850 C   0  0  0  0  0  0  0  0  0  0  0  0
   58.8720   33.9500   47.8970 C   0  0  0  0  0  0  0  0  0  0  0  0
   59.3230   33.4250   46.6810 C   0  0  0  0  0  0  0  0  0  0  0  0
   58.1740   32.9460   45.4340 S   0  0  0  0  0  0  0  0  0  0  0  0
   56.7870   33.4010   45.7940 O   0  0  0  0  0  0  0  0  0  0  0  0
   58.5750   33.5770   44.1320 O   0  0  0  0  0  0  0  0  0  0  0  0
   58.1740   31.2210   45.2560 N   0  0  0  0  0  0  0  0  0  0  0  0
   57.1300   30.5460   44.8880 C   0  0  0  0  0  0  0  0  0  0  0  0
   56.2820   30.9790   43.9310 N   0  0  0  0  0  0  0  0  0  0  0  0
   55.3840   29.9750   43.8890 C   0  0  0  0  0  0  0  0  0  0  0  0
   55.6820   29.0040   44.7680 N   0  0  0  0  0  0  0  0  0  0  0  0
   56.7830   29.3510   45.4070 N   0  0  0  0  0  0  0  0  0  0  0  0
   60.6970   33.2860   46.4540 C   0  0  0  0  0  0  0  0  0  0  0  0
   61.6180   33.6570   47.4410 C   0  0  0  0  0  0  0  0  0  0  0  0
   63.4880   33.4440   47.0960 Br  0  0  0  0  0  0  0  0  0  0  0  0
   62.3620   34.1077   51.6408 H   0  0  0  0  0  0  0  0  0  0  0  0
   62.1175   32.6931   50.5610 H   0  0  0  0  0  0  0  0  0  0  0  0
   63.6897   33.5619   50.5610 H   0  0  0  0  0  0  0  0  0  0  0  0
   59.4242   34.7356   49.8388 H   0  0  0  0  0  0  0  0  0  0  0  0
   57.7931   34.0681   48.0762 H   0  0  0  0  0  0  0  0  0  0  0  0
   54.5134   29.9533   43.2170 H   0  0  0  0  0  0  0  0  0  0  0  0
   55.1490   28.1220   44.9340 H   0  0  0  0  0  0  0  0  0  0  0  0
   61.0551   32.8832   45.4951 H   0  0  0  0  0  0  0  0  0  0  0  0
  1  2  1  0
  2  3  1  0
  3  4  2  0
  4  5  1  0
  5  6  2  0
  6  7  1  0
  7  8  2  0
  7  9  2  0
  7 10  1  0
 10 11  2  3
 11 12  1  0
 12 13  2  0
 13 14  1  0
 14 15  1  0
  6 16  1  0
 16 17  2  0
 17 18  1  0
 17  3  1  0
 15 11  1  0
  1 19  1  0
  1 20  1  0
  1 21  1  0
  4 22  1  0
  5 23  1  0
 13 24  1  0
 14 25  1  0
 16 26  1  0
M  CHG  1  15  -1
M  END
>  <UniqueID>  (46) 
43

>  <SMILES>  (46) 
COc1ccc(S(=O)(=O)N=c2nc[nH][n-]2)cc1Br

>  <Energy>  (46) 
61.45933310597752

>  <Genealogy>  (46) 
COc1ccc(S(=O)(=O)N=c2nc[nH][n-]2)cc1Br (protonated)
COc1ccc(S(=O)(=O)N=c2nc[nH][n-]2)cc1Br (3D coordinates assigned)
COc1ccc(S(=O)(=O)N=c2nc[nH][n-]2)cc1Br (optimized conformer: 61.45933310597752 kcal/mol)

>  <smiles>  (46) 
COc1ccc(S(=O)(=O)N=c2nc[nH][nH]2)cc1Br

>  <score_type>  (46) 
oracle

>  <origin>  (46) 
adg

>  <m_score__min__energy>  (46) 
-8.75

>  <m_primary>  (46) 
energy

$$$$
46:0
     RDKit          3D

 36 38  0  0  0  0  0  0  0  0999 V2000
   54.7230   26.1790   45.9810 N   0  0  0  0  0  0  0  0  0  0  0  0
   56.2460   25.4000   46.2250 S   0  0  0  0  0  0  0  0  0  0  0  0
   56.4430   24.3390   45.1770 O   0  0  0  0  0  0  0  0  0  0  0  0
   56.2670   24.7480   47.5800 O   0  0  0  0  0  0  0  0  0  0  0  0
   57.5350   26.5920   46.1170 C   0  0  0  0  0  0  0  0  0  0  0  0
   58.6360   26.5200   46.9790 C   0  0  0  0  0  0  0  0  0  0  0  0
   59.6640   27.4610   46.8840 C   0  0  0  0  0  0  0  0  0  0  0  0
   59.6000   28.4780   45.9290 C   0  0  0  0  0  0  0  0  0  0  0  0
   58.5000   28.5650   45.0550 C   0  0  0  0  0  0  0  0  0  0  0  0
   58.3980   29.6010   44.0630 N   0  0  0  0  0  0  0  0  0  0  0  0
   57.5350   31.0890   44.3030 S   0  0  0  0  0  0  0  0  0  0  0  0
   56.1690   30.7860   44.8520 O   0  0  0  0  0  0  0  0  0  0  0  0
   57.3870   31.7890   42.9810 O   0  0  0  0  0  0  0  0  0  0  0  0
   58.3940   32.1060   45.4540 C   0  0  0  0  0  0  0  0  0  0  0  0
   57.8900   33.3690   45.7960 C   0  0  0  0  0  0  0  0  0  0  0  0
   58.5810   34.1850   46.6980 C   0  0  0  0  0  0  0  0  0  0  0  0
   59.7810   33.7420   47.2660 C   0  0  0  0  0  0  0  0  0  0  0  0
   60.4570   34.5360   48.1400 N   0  0  0  0  0  0  0  0  0  0  0  0
   61.6250   34.1370   48.7110 C   0  0  0  0  0  0  0  0  0  0  0  0
   62.2210   34.9000   49.5150 O   0  0  0  0  0  0  0  0  0  0  0  0
   62.1650   32.8830   48.4030 C   0  0  0  0  0  0  0  0  0  0  0  0
   61.4930   32.0460   47.5090 C   0  0  0  0  0  0  0  0  0  0  0  0
   60.2910   32.4690   46.9290 C   0  0  0  0  0  0  0  0  0  0  0  0
   59.5920   31.6540   46.0270 C   0  0  0  0  0  0  0  0  0  0  0  0
   57.4760   27.6090   45.1530 C   0  0  0  0  0  0  0  0  0  0  0  0
   54.7640   27.0940   46.4830 H   0  0  0  0  0  0  0  0  0  0  0  0
   58.6916   25.7207   47.7327 H   0  0  0  0  0  0  0  0  0  0  0  0
   60.5268   27.4008   47.5637 H   0  0  0  0  0  0  0  0  0  0  0  0
   60.4136   29.2150   45.8594 H   0  0  0  0  0  0  0  0  0  0  0  0
   58.7810   29.4280   43.1060 H   0  0  0  0  0  0  0  0  0  0  0  0
   56.9464   33.7200   45.3528 H   0  0  0  0  0  0  0  0  0  0  0  0
   58.1810   35.1754   46.9610 H   0  0  0  0  0  0  0  0  0  0  0  0
   63.1111   32.5591   48.8613 H   0  0  0  0  0  0  0  0  0  0  0  0
   61.9070   31.0574   47.2614 H   0  0  0  0  0  0  0  0  0  0  0  0
   59.9836   30.6591   45.7685 H   0  0  0  0  0  0  0  0  0  0  0  0
   56.6182   27.6583   44.4662 H   0  0  0  0  0  0  0  0  0  0  0  0
  1  2  1  0
  2  3  2  0
  2  4  2  0
  2  5  1  0
  5  6  2  0
  6  7  1  0
  7  8  2  0
  8  9  1  0
  9 10  1  0
 10 11  1  0
 11 12  2  0
 11 13  2  0
 11 14  1  0
 14 15  2  0
 15 16  1  0
 16 17  2  0
 17 18  1  0
 18 19  1  0
 19 20  2  0
 19 21  1  0
 21 22  2  0
 22 23  1  0
 23 24  2  0
  9 25  2  0
 25  5  1  0
 24 14  1  0
 23 17  1  0
  1 26  1  0
  6 27  1  0
  7 28  1  0
  8 29  1  0
 10 30  1  0
 15 31  1  0
 16 32  1  0
 21 33  1  0
 22 34  1  0
 24 35  1  0
 25 36  1  0
M  CHG  2   1  -1  18  -1
M  END
>  <UniqueID>  (47) 
44

>  <SMILES>  (47) 
[NH-]S(=O)(=O)c1cccc(NS(=O)(=O)c2ccc3[n-]c(=O)ccc3c2)c1

>  <Energy>  (47) 
44.407161732954116

>  <Genealogy>  (47) 
[NH-]S(=O)(=O)c1cccc(NS(=O)(=O)c2ccc3[n-]c(=O)ccc3c2)c1 (protonated)
[NH-]S(=O)(=O)c1cccc(NS(=O)(=O)c2ccc3[n-]c(=O)ccc3c2)c1 (3D coordinates assigned)
[NH-]S(=O)(=O)c1cccc(NS(=O)(=O)c2ccc3[n-]c(=O)ccc3c2)c1 (optimized conformer: 44.407161732954116 kcal/mol)

>  <smiles>  (47) 
NS(=O)(=O)c1cccc(NS(=O)(=O)c2ccc3[nH]c(=O)ccc3c2)c1

>  <score_type>  (47) 
oracle

>  <origin>  (47) 
adg

>  <m_score__min__energy>  (47) 
-13.51

>  <m_primary>  (47) 
energy

$$$$
47:0
     RDKit          3D

 29 30  0  0  0  0  0  0  0  0999 V2000
   60.9170   28.5610   44.4490 O   0  0  0  0  0  0  0  0  0  0  0  0
   60.1020   29.0470   45.2780 C   0  0  0  0  0  0  0  0  0  0  0  0
   60.5600   30.2150   46.1130 C   0  0  0  0  0  0  0  0  0  0  0  0
   59.3470   30.6010   47.4240 S   0  0  0  0  0  0  0  0  0  0  0  0
   59.2990   32.3680   47.1040 C   0  0  0  0  0  0  0  0  0  0  0  0
   59.7560   33.2720   48.0710 C   0  0  0  0  0  0  0  0  0  0  0  0
   59.7440   34.6450   47.8060 C   0  0  0  0  0  0  0  0  0  0  0  0
   59.2670   35.1180   46.5800 C   0  0  0  0  0  0  0  0  0  0  0  0
   58.7930   34.2190   45.6200 C   0  0  0  0  0  0  0  0  0  0  0  0
   58.8030   32.8450   45.8830 C   0  0  0  0  0  0  0  0  0  0  0  0
   58.7740   28.3970   45.4510 C   0  0  0  0  0  0  0  0  0  0  0  0
   58.7010   27.1260   46.0520 C   0  0  0  0  0  0  0  0  0  0  0  0
   57.4660   26.5130   46.2770 C   0  0  0  0  0  0  0  0  0  0  0  0
   56.2820   27.1540   45.8990 C   0  0  0  0  0  0  0  0  0  0  0  0
   55.0460   26.5510   46.1290 O   0  0  0  0  0  0  0  0  0  0  0  0
   56.3390   28.4090   45.2840 C   0  0  0  0  0  0  0  0  0  0  0  0
   55.1680   29.0510   44.8990 O   0  0  0  0  0  0  0  0  0  0  0  0
   57.5750   29.0250   45.0550 C   0  0  0  0  0  0  0  0  0  0  0  0
   61.5255   29.9675   46.5783 H   0  0  0  0  0  0  0  0  0  0  0  0
   60.6603   31.0941   45.4595 H   0  0  0  0  0  0  0  0  0  0  0  0
   60.1245   32.9020   49.0392 H   0  0  0  0  0  0  0  0  0  0  0  0
   60.1104   35.3538   48.5632 H   0  0  0  0  0  0  0  0  0  0  0  0
   59.2646   36.1979   46.3706 H   0  0  0  0  0  0  0  0  0  0  0  0
   58.4122   34.5920   44.6578 H   0  0  0  0  0  0  0  0  0  0  0  0
   58.4214   32.1386   45.1311 H   0  0  0  0  0  0  0  0  0  0  0  0
   59.6264   26.6100   46.3476 H   0  0  0  0  0  0  0  0  0  0  0  0
   57.4247   25.5223   46.7533 H   0  0  0  0  0  0  0  0  0  0  0  0
   54.2300   27.0960   46.3820 H   0  0  0  0  0  0  0  0  0  0  0  0
   57.6113   30.0076   44.5618 H   0  0  0  0  0  0  0  0  0  0  0  0
  1  2  2  0
  2  3  1  0
  3  4  1  0
  4  5  1  0
  5  6  2  0
  6  7  1  0
  7  8  2  0
  8  9  1  0
  9 10  2  0
  2 11  1  0
 11 12  2  0
 12 13  1  0
 13 14  2  0
 14 15  1  0
 14 16  1  0
 16 17  1  0
 16 18  2  0
 10  5  1  0
 18 11  1  0
  3 19  1  0
  3 20  1  0
  6 21  1  0
  7 22  1  0
  8 23  1  0
  9 24  1  0
 10 25  1  0
 12 26  1  0
 13 27  1  0
 15 28  1  0
 18 29  1  0
M  CHG  1  17  -1
M  END
>  <UniqueID>  (48) 
45

>  <SMILES>  (48) 
O=C(CSc1ccccc1)c1ccc(O)c([O-])c1

>  <Energy>  (48) 
26.04780812655347

>  <Genealogy>  (48) 
O=C(CSc1ccccc1)c1ccc(O)c([O-])c1 (protonated)
O=C(CSc1ccccc1)c1ccc(O)c([O-])c1 (3D coordinates assigned)
O=C(CSc1ccccc1)c1ccc(O)c([O-])c1 (optimized conformer: 26.04780812655347 kcal/mol)

>  <smiles>  (48) 
O=C(CSc1ccccc1)c1ccc(O)c(O)c1

>  <score_type>  (48) 
oracle

>  <origin>  (48) 
adg

>  <m_score__min__energy>  (48) 
-11.35

>  <m_primary>  (48) 
energy

$$$$
48:0
     RDKit          3D

 58 62  0  0  1  0  0  0  0  0999 V2000
   54.5700   29.2200   54.8300 C   0  0  0  0  0  0  0  0  0  0  0  0
   55.0560   28.7140   53.5840 N   0  0  0  0  0  0  0  0  0  0  0  0
   56.4770   28.5630   53.5030 C   0  0  0  0  0  0  0  0  0  0  0  0
   57.2390   29.8690   53.5130 C   0  0  0  0  0  0  0  0  0  0  0  0
   56.7100   30.7260   52.4590 N   0  0  0  0  0  0  0  0  0  0  0  0
   57.6280   31.4610   51.6320 C   0  0  0  0  0  0  0  0  0  0  0  0
   58.0560   32.7300   51.9500 C   0  0  0  0  0  0  0  0  0  0  0  0
   58.9570   33.4380   51.1530 C   0  0  0  0  0  0  0  0  0  0  0  0
   59.4450   32.8590   50.0030 C   0  0  0  0  0  0  0  0  0  0  0  0
   60.4200   33.5730   49.1010 C   0  0  2  0  0  0  0  0  0  0  0  0
   61.4580   34.0400   49.9220 O   0  0  0  0  0  0  0  0  0  0  0  0
   59.6400   34.6730   48.5390 N   0  0  0  0  0  0  0  0  0  0  0  0
   59.3920   34.6760   47.2960 C   0  0  0  0  0  0  0  0  0  0  0  0
   59.6360   35.7230   46.4840 N   0  0  0  0  0  0  0  0  0  0  0  0
   59.2730   35.4320   45.2450 N   0  0  0  0  0  0  0  0  0  0  0  0
   58.7860   34.1770   45.2530 C   0  0  0  0  0  0  0  0  0  0  0  0
   58.2340   33.1620   44.4740 C   0  0  0  0  0  0  0  0  0  0  0  0
   57.9610   32.0810   45.2110 N   0  0  0  0  0  0  0  0  0  0  0  0
   57.3860   30.8350   44.8970 C   0  0  0  0  0  0  0  0  0  0  0  0
   56.1450   30.8310   44.5250 O   0  0  0  0  0  0  0  0  0  0  0  0
   57.9950   29.5350   44.9340 C   0  0  0  0  0  0  0  0  0  0  0  0
   58.7320   29.2190   46.0860 C   0  0  0  0  0  0  0  0  0  0  0  0
   59.3320   27.9830   46.2460 C   0  0  0  0  0  0  0  0  0  0  0  0
   59.2290   27.0080   45.2780 C   0  0  0  0  0  0  0  0  0  0  0  0
   58.5150   27.3000   44.1540 C   0  0  0  0  0  0  0  0  0  0  0  0
   57.9150   28.5430   44.0000 C   0  0  0  0  0  0  0  0  0  0  0  0
   58.3420   32.4010   46.4850 C   0  0  0  0  0  0  0  0  0  0  0  0
   58.8460   33.6740   46.5270 C   0  0  0  0  0  0  0  0  0  0  0  0
   59.0380   31.5910   49.6560 C   0  0  0  0  0  0  0  0  0  0  0  0
   58.1320   30.9050   50.4760 C   0  0  0  0  0  0  0  0  0  0  0  0
   55.2870   30.7990   52.3220 C   0  0  0  0  0  0  0  0  0  0  0  0
   54.5930   29.4600   52.4250 C   0  0  0  0  0  0  0  0  0  0  0  0
   55.0714   28.6980   55.6583 H   0  0  0  0  0  0  0  0  0  0  0  0
   54.7801   30.2978   54.8951 H   0  0  0  0  0  0  0  0  0  0  0  0
   53.4846   29.0535   54.8951 H   0  0  0  0  0  0  0  0  0  0  0  0
   56.8099   27.9624   54.3623 H   0  0  0  0  0  0  0  0  0  0  0  0
   56.6897   28.0794   52.5382 H   0  0  0  0  0  0  0  0  0  0  0  0
   57.1154   30.3624   54.4883 H   0  0  0  0  0  0  0  0  0  0  0  0
   58.3090   29.6803   53.3414 H   0  0  0  0  0  0  0  0  0  0  0  0
   57.6738   33.2037   52.8662 H   0  0  0  0  0  0  0  0  0  0  0  0
   59.2748   34.4508   51.4414 H   0  0  0  0  0  0  0  0  0  0  0  0
   60.8614   32.9599   48.3015 H   0  0  0  0  0  0  0  0  0  0  0  0
   61.9460   33.2360   50.2580 H   0  0  0  0  0  0  0  0  0  0  0  0
   60.0480   36.6460   46.7510 H   0  0  0  0  0  0  0  0  0  0  0  0
   59.3580   36.0840   44.4120 H   0  0  0  0  0  0  0  0  0  0  0  0
   58.0472   33.2403   43.3928 H   0  0  0  0  0  0  0  0  0  0  0  0
   58.8349   29.9725   46.8808 H   0  0  0  0  0  0  0  0  0  0  0  0
   59.9021   27.7746   47.1633 H   0  0  0  0  0  0  0  0  0  0  0  0
   59.7073   26.0260   45.4079 H   0  0  0  0  0  0  0  0  0  0  0  0
   58.4131   26.5439   43.3615 H   0  0  0  0  0  0  0  0  0  0  0  0
   57.3465   28.7379   43.0787 H   0  0  0  0  0  0  0  0  0  0  0  0
   58.2559   31.7309   47.3531 H   0  0  0  0  0  0  0  0  0  0  0  0
   59.4218   31.1184   48.7398 H   0  0  0  0  0  0  0  0  0  0  0  0
   57.8135   29.8922   50.1883 H   0  0  0  0  0  0  0  0  0  0  0  0
   54.8958   31.4539   53.1145 H   0  0  0  0  0  0  0  0  0  0  0  0
   55.0825   31.1883   51.3137 H   0  0  0  0  0  0  0  0  0  0  0  0
   53.5089   29.6239   52.5138 H   0  0  0  0  0  0  0  0  0  0  0  0
   54.8252   28.8776   51.5212 H   0  0  0  0  0  0  0  0  0  0  0  0
  1  2  1  0
  2  3  1  0
  3  4  1  0
  4  5  1  0
  5  6  1  0
  6  7  2  0
  7  8  1  0
  8  9  2  0
  9 10  1  0
 10 11  1  0
 10 12  1  0
 12 13  2  0
 13 14  1  0
 14 15  1  0
 15 16  1  0
 16 17  2  0
 17 18  1  0
 18 19  1  0
 19 20  2  0
 19 21  1  0
 21 22  2  0
 22 23  1  0
 23 24  2  0
 24 25  1  0
 25 26  2  0
 18 27  1  0
 27 28  2  0
  9 29  1  0
 29 30  2  0
  5 31  1  0
 31 32  1  0
 32  2  1  0
 30  6  1  0
 28 13  1  0
 28 16  1  0
 26 21  1  0
  1 33  1  0
  1 34  1  0
  1 35  1  0
  3 36  1  0
  3 37  1  0
  4 38  1  0
  4 39  1  0
  7 40  1  0
  8 41  1  0
 10 42  1  6
 11 43  1  0
 14 44  1  0
 15 45  1  0
 17 46  1  0
 22 47  1  0
 23 48  1  0
 24 49  1  0
 25 50  1  0
 26 51  1  0
 27 52  1  0
 29 53  1  0
 30 54  1  0
 31 55  1  0
 31 56  1  0
 32 57  1  0
 32 58  1  0
M  END
>  <smiles>  (49) 
CN1CCN(c2ccc(C(O)N=c3[nH][nH]c4cn(C(=O)c5ccccc5)cc34)cc2)CC1

>  <score_type>  (49) 
oracle

>  <origin>  (49) 
adg

>  <m_score__min__energy>  (49) 
-8.9499999999999993

>  <m_primary>  (49) 
energy

$$$$
49:0
     RDKit          3D

 36 38  0  0  0  0  0  0  0  0999 V2000
   60.8760   34.2000   49.1340 C   0  0  0  0  0  0  0  0  0  0  0  0
   59.6010   34.4230   48.5420 O   0  0  0  0  0  0  0  0  0  0  0  0
   59.2260   33.9650   47.2690 C   0  0  0  0  0  0  0  0  0  0  0  0
   58.9110   34.9110   46.2920 C   0  0  0  0  0  0  0  0  0  0  0  0
   58.5210   34.5080   45.0140 C   0  0  0  0  0  0  0  0  0  0  0  0
   58.4360   33.1500   44.6890 C   0  0  0  0  0  0  0  0  0  0  0  0
   57.9660   32.8190   43.4170 O   0  0  0  0  0  0  0  0  0  0  0  0
   58.7890   32.1750   45.6550 C   0  0  0  0  0  0  0  0  0  0  0  0
   58.8210   30.7260   45.3510 C   0  0  0  0  0  0  0  0  0  0  0  0
   59.1030   29.7740   46.2630 N   0  0  0  0  0  0  0  0  0  0  0  0
   59.0450   28.6570   45.5100 C   0  0  0  0  0  0  0  0  0  0  0  0
   59.2190   27.2800   46.0620 C   0  0  0  0  0  0  0  0  0  0  0  0
   57.9290   26.5970   46.1060 N   0  0  0  0  0  0  0  0  0  0  0  0
   56.7100   27.1700   46.0100 C   0  0  0  0  0  0  0  0  0  0  0  0
   55.7700   26.1600   46.0320 C   0  0  0  0  0  0  0  0  0  0  0  0
   54.3920   26.3350   45.9820 O   0  0  0  0  0  0  0  0  0  0  0  0
   56.3870   24.9650   46.1150 N   0  0  0  0  0  0  0  0  0  0  0  0
   55.7660   23.6510   46.2430 C   0  0  0  0  0  0  0  0  0  0  0  0
   57.7010   25.2670   46.1670 C   0  0  0  0  0  0  0  0  0  0  0  0
   58.6150   24.4030   46.2620 O   0  0  0  0  0  0  0  0  0  0  0  0
   58.7330   28.9130   44.2260 N   0  0  0  0  0  0  0  0  0  0  0  0
   58.6130   30.2040   44.1670 O   0  0  0  0  0  0  0  0  0  0  0  0
   59.1630   32.5970   46.9450 C   0  0  0  0  0  0  0  0  0  0  0  0
   60.7795   34.2169   50.2296 H   0  0  0  0  0  0  0  0  0  0  0  0
   61.2622   33.2207   48.8149 H   0  0  0  0  0  0  0  0  0  0  0  0
   61.5717   34.9901   48.8149 H   0  0  0  0  0  0  0  0  0  0  0  0
   58.9707   35.9830   46.5314 H   0  0  0  0  0  0  0  0  0  0  0  0
   58.2780   35.2658   44.2546 H   0  0  0  0  0  0  0  0  0  0  0  0
   58.0130   31.8870   43.0280 H   0  0  0  0  0  0  0  0  0  0  0  0
   59.9100   26.7140   45.4200 H   0  0  0  0  0  0  0  0  0  0  0  0
   59.6291   27.3466   47.0805 H   0  0  0  0  0  0  0  0  0  0  0  0
   56.5036   28.2474   45.9289 H   0  0  0  0  0  0  0  0  0  0  0  0
   55.6488   23.4030   47.3083 H   0  0  0  0  0  0  0  0  0  0  0  0
   54.7785   23.6634   45.7586 H   0  0  0  0  0  0  0  0  0  0  0  0
   56.4025   22.8959   45.7586 H   0  0  0  0  0  0  0  0  0  0  0  0
   59.4095   31.8466   47.7106 H   0  0  0  0  0  0  0  0  0  0  0  0
  1  2  1  0
  2  3  1  0
  3  4  2  0
  4  5  1  0
  5  6  2  0
  6  7  1  0
  6  8  1  0
  8  9  1  0
  9 10  2  0
 10 11  1  0
 11 12  1  0
 12 13  1  0
 13 14  1  0
 14 15  2  0
 15 16  1  0
 15 17  1  0
 17 18  1  0
 17 19  1  0
 19 20  2  0
 11 21  2  0
 21 22  1  0
  8 23  2  0
 23  3  1  0
 22  9  1  0
 19 13  1  0
  1 24  1  0
  1 25  1  0
  1 26  1  0
  4 27  1  0
  5 28  1  0
  7 29  1  0
 12 30  1  0
 12 31  1  0
 14 32  1  0
 18 33  1  0
 18 34  1  0
 18 35  1  0
 23 36  1  0
M  CHG  1  16  -1
M  END
>  <UniqueID>  (50) 
46

>  <SMILES>  (50) 
COc1ccc(O)c(-c2nc(Cn3cc([O-])n(C)c3=O)no2)c1

>  <Energy>  (50) 
106.95626808400436

>  <Genealogy>  (50) 
COc1ccc(O)c(-c2nc(Cn3cc([O-])n(C)c3=O)no2)c1 (protonated)
COc1ccc(O)c(-c2nc(Cn3cc([O-])n(C)c3=O)no2)c1 (3D coordinates assigned)
COc1ccc(O)c(-c2nc(Cn3cc([O-])n(C)c3=O)no2)c1 (optimized conformer: 106.95626808400436 kcal/mol)

>  <smiles>  (50) 
COc1ccc(O)c(-c2nc(Cn3cc(O)n(C)c3=O)no2)c1

>  <score_type>  (50) 
oracle

>  <origin>  (50) 
adg

>  <m_score__min__energy>  (50) 
-9.9800000000000004

>  <m_primary>  (50) 
energy

$$$$
50:0
     RDKit          3D

 64 68  0  0  0  0  0  0  0  0999 V2000
   54.9590   23.4710   45.3930 C   0  0  0  0  0  0  0  0  0  0  0  0
   55.9580   24.5590   45.1330 C   0  0  0  0  0  0  0  0  0  0  0  0
   56.8120   24.4860   44.0240 C   0  0  0  0  0  0  0  0  0  0  0  0
   57.7670   25.4820   43.8010 C   0  0  0  0  0  0  0  0  0  0  0  0
   57.8790   26.5740   44.6830 C   0  0  0  0  0  0  0  0  0  0  0  0
   58.9450   27.6310   44.5050 C   0  0  0  0  0  0  0  0  0  0  0  0
   58.8260   28.7760   45.4890 C   0  0  0  0  0  0  0  0  0  0  0  0
   58.2330   30.0040   45.2020 C   0  0  0  0  0  0  0  0  0  0  0  0
   57.6490   30.4670   43.8940 C   0  0  0  0  0  0  0  0  0  0  0  0
   57.3950   31.9730   43.9000 C   0  0  0  0  0  0  0  0  0  0  0  0
   58.5240   32.6690   44.5120 N   0  0  0  0  0  0  0  0  0  0  0  0
   57.9500   33.8900   45.6070 S   0  0  0  0  0  0  0  0  0  0  0  0
   57.3580   33.2530   46.8330 O   0  0  0  0  0  0  0  0  0  0  0  0
   56.8840   34.6960   44.9190 O   0  0  0  0  0  0  0  0  0  0  0  0
   59.2940   34.9660   46.0820 C   0  0  0  0  0  0  0  0  0  0  0  0
   60.3000   34.2280   46.9250 C   0  0  0  0  0  0  0  0  0  0  0  0
   60.5250   34.6020   48.2620 C   0  0  0  0  0  0  0  0  0  0  0  0
   61.4630   33.9110   49.0370 C   0  0  0  0  0  0  0  0  0  0  0  0
   62.1560   32.8240   48.4990 C   0  0  0  0  0  0  0  0  0  0  0  0
   61.9370   32.4440   47.1730 C   0  0  0  0  0  0  0  0  0  0  0  0
   61.0200   33.1470   46.3840 C   0  0  0  0  0  0  0  0  0  0  0  0
   58.2700   30.7810   46.2980 N   0  0  0  0  0  0  0  0  0  0  0  0
   58.8600   30.0280   47.2470 C   0  0  0  0  0  0  0  0  0  0  0  0
   59.1220   30.4330   48.5680 C   0  0  0  0  0  0  0  0  0  0  0  0
   58.7840   31.7060   49.0600 C   0  0  0  0  0  0  0  0  0  0  0  0
   59.0840   32.0510   50.3810 C   0  0  0  0  0  0  0  0  0  0  0  0
   59.7210   31.1350   51.2190 C   0  0  0  0  0  0  0  0  0  0  0  0
   60.0570   29.8660   50.7460 C   0  0  0  0  0  0  0  0  0  0  0  0
   59.7650   29.5050   49.4210 C   0  0  0  0  0  0  0  0  0  0  0  0
   60.1150   28.2340   48.9390 C   0  0  0  0  0  0  0  0  0  0  0  0
   59.8300   27.8730   47.6080 C   0  0  0  0  0  0  0  0  0  0  0  0
   60.2490   26.5070   47.1380 C   0  0  0  0  0  0  0  0  0  0  0  0
   59.2110   28.7970   46.7980 N   0  0  0  0  0  0  0  0  0  0  0  0
   57.0520   26.6160   45.8200 C   0  0  0  0  0  0  0  0  0  0  0  0
   56.0960   25.6220   46.0390 C   0  0  0  0  0  0  0  0  0  0  0  0
   54.8364   23.3374   46.4780 H   0  0  0  0  0  0  0  0  0  0  0  0
   53.9924   23.7462   44.9459 H   0  0  0  0  0  0  0  0  0  0  0  0
   55.3155   22.5313   44.9459 H   0  0  0  0  0  0  0  0  0  0  0  0
   56.7302   23.6403   43.3253 H   0  0  0  0  0  0  0  0  0  0  0  0
   58.4357   25.4123   42.9304 H   0  0  0  0  0  0  0  0  0  0  0  0
   59.9298   27.1589   44.6367 H   0  0  0  0  0  0  0  0  0  0  0  0
   58.8184   28.0539   43.4975 H   0  0  0  0  0  0  0  0  0  0  0  0
   58.3516   30.2256   43.0828 H   0  0  0  0  0  0  0  0  0  0  0  0
   56.6877   29.9541   43.7428 H   0  0  0  0  0  0  0  0  0  0  0  0
   57.2679   32.3248   42.8656 H   0  0  0  0  0  0  0  0  0  0  0  0
   56.4846   32.1827   44.4807 H   0  0  0  0  0  0  0  0  0  0  0  0
   59.7908   35.3434   45.1760 H   0  0  0  0  0  0  0  0  0  0  0  0
   58.8854   35.8000   46.6715 H   0  0  0  0  0  0  0  0  0  0  0  0
   59.9622   35.4398   48.6995 H   0  0  0  0  0  0  0  0  0  0  0  0
   61.6554   34.2249   50.0736 H   0  0  0  0  0  0  0  0  0  0  0  0
   62.8739   32.2675   49.1194 H   0  0  0  0  0  0  0  0  0  0  0  0
   62.4863   31.5908   46.7483 H   0  0  0  0  0  0  0  0  0  0  0  0
   60.8612   32.8532   45.3359 H   0  0  0  0  0  0  0  0  0  0  0  0
   57.9130   31.7590   46.3690 H   0  0  0  0  0  0  0  0  0  0  0  0
   58.2822   32.4323   48.4037 H   0  0  0  0  0  0  0  0  0  0  0  0
   58.8170   33.0481   50.7612 H   0  0  0  0  0  0  0  0  0  0  0  0
   59.9591   31.4142   52.2560 H   0  0  0  0  0  0  0  0  0  0  0  0
   60.5525   29.1458   51.4137 H   0  0  0  0  0  0  0  0  0  0  0  0
   60.6150   27.5155   49.6051 H   0  0  0  0  0  0  0  0  0  0  0  0
   60.4462   25.8642   48.0086 H   0  0  0  0  0  0  0  0  0  0  0  0
   59.4450   26.0655   46.5308 H   0  0  0  0  0  0  0  0  0  0  0  0
   61.1623   26.5923   46.5308 H   0  0  0  0  0  0  0  0  0  0  0  0
   57.1592   27.4385   46.5425 H   0  0  0  0  0  0  0  0  0  0  0  0
   55.4477   25.6724   46.9262 H   0  0  0  0  0  0  0  0  0  0  0  0
  1  2  1  0
  2  3  2  0
  3  4  1  0
  4  5  2  0
  5  6  1  0
  6  7  1  0
  7  8  2  0
  8  9  1  0
  9 10  1  0
 10 11  1  0
 11 12  1  0
 12 13  2  0
 12 14  2  0
 12 15  1  0
 15 16  1  0
 16 17  2  0
 17 18  1  0
 18 19  2  0
 19 20  1  0
 20 21  2  0
  8 22  1  0
 22 23  2  0
 23 24  1  0
 24 25  2  0
 25 26  1  0
 26 27  2  0
 27 28  1  0
 28 29  2  0
 29 30  1  0
 30 31  2  0
 31 32  1  0
 31 33  1  0
  5 34  1  0
 34 35  2  0
 35  2  1  0
 33  7  1  0
 21 16  1  0
 33 23  1  0
 29 24  1  0
  1 36  1  0
  1 37  1  0
  1 38  1  0
  3 39  1  0
  4 40  1  0
  6 41  1  0
  6 42  1  0
  9 43  1  0
  9 44  1  0
 10 45  1  0
 10 46  1  0
 15 47  1  0
 15 48  1  0
 17 49  1  0
 18 50  1  0
 19 51  1  0
 20 52  1  0
 21 53  1  0
 22 54  1  0
 25 55  1  0
 26 56  1  0
 27 57  1  0
 28 58  1  0
 30 59  1  0
 32 60  1  0
 32 61  1  0
 32 62  1  0
 34 63  1  0
 35 64  1  0
M  CHG  2  11  -1  22   1
M  END
>  <UniqueID>  (51) 
47

>  <SMILES>  (51) 
Cc1ccc(Cc2c(CC[N-]S(=O)(=O)Cc3ccccc3)[nH+]c3c4ccccc4cc(C)n23)cc1

>  <Energy>  (51) 
97.55420623638133

>  <Genealogy>  (51) 
Cc1ccc(Cc2c(CC[N-]S(=O)(=O)Cc3ccccc3)[nH+]c3c4ccccc4cc(C)n23)cc1 (protonated)
Cc1ccc(Cc2c(CC[N-]S(=O)(=O)Cc3ccccc3)[nH+]c3c4ccccc4cc(C)n23)cc1 (3D coordinates assigned)
Cc1ccc(Cc2c(CC[N-]S(=O)(=O)Cc3ccccc3)[nH+]c3c4ccccc4cc(C)n23)cc1 (optimized conformer: 97.55420623638133 kcal/mol)

>  <smiles>  (51) 
Cc1ccc(Cc2c(CCNS(=O)(=O)Cc3ccccc3)nc3c4ccccc4cc(C)n23)cc1

>  <score_type>  (51) 
oracle

>  <origin>  (51) 
adg

>  <m_score__min__energy>  (51) 
-9.6500000000000004

>  <m_primary>  (51) 
energy

$$$$
51:0
     RDKit          3D

 23 24  0  0  0  0  0  0  0  0999 V2000
   57.9530   32.2350   45.1700 C   0  0  0  0  0  0  0  0  0  0  0  0
   58.1550   31.1120   44.1560 C   0  0  0  0  0  0  0  0  0  0  0  0
   57.6730   29.8230   44.7000 N   0  0  0  0  0  0  0  0  0  0  0  0
   56.3190   29.6010   44.7860 C   0  0  0  0  0  0  0  0  0  0  0  0
   55.4950   30.4880   44.4310 O   0  0  0  0  0  0  0  0  0  0  0  0
   55.8430   28.4520   45.2460 O   0  0  0  0  0  0  0  0  0  0  0  0
   56.6240   27.4680   45.6570 C   0  0  0  0  0  0  0  0  0  0  0  0
   56.0960   26.4010   46.0740 O   0  0  0  0  0  0  0  0  0  0  0  0
   58.0140   27.6220   45.6360 C   0  0  0  0  0  0  0  0  0  0  0  0
   58.8750   26.6040   46.0870 C   0  0  0  0  0  0  0  0  0  0  0  0
   60.2550   26.7950   46.0730 C   0  0  0  0  0  0  0  0  0  0  0  0
   60.7870   27.9990   45.6190 C   0  0  0  0  0  0  0  0  0  0  0  0
   59.9460   29.0170   45.1660 C   0  0  0  0  0  0  0  0  0  0  0  0
   58.5400   28.8450   45.1530 C   0  0  0  0  0  0  0  0  0  0  0  0
   58.0264   31.8267   46.1888 H   0  0  0  0  0  0  0  0  0  0  0  0
   58.7275   33.0028   45.0260 H   0  0  0  0  0  0  0  0  0  0  0  0
   56.9595   32.6848   45.0260 H   0  0  0  0  0  0  0  0  0  0  0  0
   57.5956   31.3487   43.2389 H   0  0  0  0  0  0  0  0  0  0  0  0
   59.2291   31.0234   43.9358 H   0  0  0  0  0  0  0  0  0  0  0  0
   58.4569   25.6542   46.4518 H   0  0  0  0  0  0  0  0  0  0  0  0
   60.9245   25.9944   46.4207 H   0  0  0  0  0  0  0  0  0  0  0  0
   61.8767   28.1490   45.6173 H   0  0  0  0  0  0  0  0  0  0  0  0
   60.3805   29.9645   44.8148 H   0  0  0  0  0  0  0  0  0  0  0  0
  1  2  1  0
  2  3  1  0
  3  4  1  0
  4  5  2  0
  4  6  1  0
  6  7  1  0
  7  8  2  0
  7  9  1  0
  9 10  2  0
 10 11  1  0
 11 12  2  0
 12 13  1  0
 13 14  2  0
 14  3  1  0
 14  9  1  0
  1 15  1  0
  1 16  1  0
  1 17  1  0
  2 18  1  0
  2 19  1  0
 10 20  1  0
 11 21  1  0
 12 22  1  0
 13 23  1  0
M  END
>  <UniqueID>  (52) 
48

>  <SMILES>  (52) 
CCn1c(=O)oc(=O)c2ccccc21

>  <Energy>  (52) 
32.95792416821232

>  <Genealogy>  (52) 
CCn1c(=O)oc(=O)c2ccccc21 (3D coordinates assigned)
CCn1c(=O)oc(=O)c2ccccc21 (optimized conformer: 32.95792416821232 kcal/mol)

>  <smiles>  (52) 
CCn1c(=O)oc(=O)c2ccccc21

>  <score_type>  (52) 
oracle

>  <origin>  (52) 
adg

>  <m_score__min__energy>  (52) 
-5.5800000000000001

>  <m_primary>  (52) 
energy

$$$$
52:0
     RDKit          3D

 46 48  0  0  0  0  0  0  0  0999 V2000
   54.7650   23.6560   45.9850 C   0  0  0  0  0  0  0  0  0  0  0  0
   55.4510   24.3090   47.0920 N   0  0  0  0  0  0  0  0  0  0  0  0
   56.8610   24.5550   47.1240 C   0  0  0  0  0  0  0  0  0  0  0  0
   57.6020   23.7920   47.7970 O   0  0  0  0  0  0  0  0  0  0  0  0
   57.4630   25.6990   46.4150 C   0  0  0  0  0  0  0  0  0  0  0  0
   58.8520   25.7210   46.2270 C   0  0  0  0  0  0  0  0  0  0  0  0
   59.4590   26.7930   45.5710 C   0  0  0  0  0  0  0  0  0  0  0  0
   58.6850   27.8460   45.0870 C   0  0  0  0  0  0  0  0  0  0  0  0
   57.2870   27.8270   45.2340 C   0  0  0  0  0  0  0  0  0  0  0  0
   56.4830   28.8870   44.6890 N   0  0  0  0  0  0  0  0  0  0  0  0
   57.0100   30.1640   44.2820 C   0  0  0  0  0  0  0  0  0  0  0  0
   56.9120   30.5370   42.9330 C   0  0  0  0  0  0  0  0  0  0  0  0
   57.4280   31.7620   42.4930 C   0  0  0  0  0  0  0  0  0  0  0  0
   57.3150   32.1370   41.1160 N   0  0  0  0  0  0  0  0  0  0  0  0
   58.0680   32.6110   43.4030 C   0  0  0  0  0  0  0  0  0  0  0  0
   58.1930   32.2400   44.7440 C   0  0  0  0  0  0  0  0  0  0  0  0
   57.6620   31.0210   45.1980 C   0  0  0  0  0  0  0  0  0  0  0  0
   57.8540   30.5860   46.5520 N   0  0  0  0  0  0  0  0  0  0  0  0
   58.8130   31.0750   47.4990 C   0  0  0  0  0  0  0  0  0  0  0  0
   59.0150   32.3140   47.6170 O   0  0  0  0  0  0  0  0  0  0  0  0
   59.5180   30.1210   48.3850 C   0  0  0  0  0  0  0  0  0  0  0  0
   60.3500   30.5860   49.4210 C   0  0  0  0  0  0  0  0  0  0  0  0
   61.0250   29.6850   50.2480 C   0  0  0  0  0  0  0  0  0  0  0  0
   60.8780   28.3100   50.0530 C   0  0  0  0  0  0  0  0  0  0  0  0
   61.5310   27.4380   50.8600 F   0  0  0  0  0  0  0  0  0  0  0  0
   60.0550   27.8350   49.0310 C   0  0  0  0  0  0  0  0  0  0  0  0
   59.3790   28.7330   48.1980 C   0  0  0  0  0  0  0  0  0  0  0  0
   56.6720   26.7510   45.8990 C   0  0  0  0  0  0  0  0  0  0  0  0
   55.2770   26.7270   45.9930 O   0  0  0  0  0  0  0  0  0  0  0  0
   54.0216   22.9483   46.3806 H   0  0  0  0  0  0  0  0  0  0  0  0
   54.2585   24.4139   45.3693 H   0  0  0  0  0  0  0  0  0  0  0  0
   55.4970   23.1128   45.3693 H   0  0  0  0  0  0  0  0  0  0  0  0
   59.4672   24.8884   46.5987 H   0  0  0  0  0  0  0  0  0  0  0  0
   60.5506   26.8068   45.4357 H   0  0  0  0  0  0  0  0  0  0  0  0
   59.1707   28.6969   44.5871 H   0  0  0  0  0  0  0  0  0  0  0  0
   55.4520   28.7330   44.6090 H   0  0  0  0  0  0  0  0  0  0  0  0
   56.4254   29.8609   42.2146 H   0  0  0  0  0  0  0  0  0  0  0  0
   57.9220   31.6950   40.3890 H   0  0  0  0  0  0  0  0  0  0  0  0
   56.6310   32.8660   40.8150 H   0  0  0  0  0  0  0  0  0  0  0  0
   58.4743   33.5743   43.0610 H   0  0  0  0  0  0  0  0  0  0  0  0
   58.7107   32.9068   45.4493 H   0  0  0  0  0  0  0  0  0  0  0  0
   60.4696   31.6678   49.5806 H   0  0  0  0  0  0  0  0  0  0  0  0
   61.6733   30.0591   51.0541 H   0  0  0  0  0  0  0  0  0  0  0  0
   59.9375   26.7518   48.8800 H   0  0  0  0  0  0  0  0  0  0  0  0
   58.7349   28.3519   47.3919 H   0  0  0  0  0  0  0  0  0  0  0  0
   54.7840   26.2720   46.7500 H   0  0  0  0  0  0  0  0  0  0  0  0
  1  2  1  0
  2  3  1  0
  3  4  2  0
  3  5  1  0
  5  6  2  0
  6  7  1  0
  7  8  2  0
  8  9  1  0
  9 10  1  0
 10 11  1  0
 11 12  2  0
 12 13  1  0
 13 14  1  0
 13 15  2  0
 15 16  1  0
 16 17  2  0
 17 18  1  0
 18 19  1  0
 19 20  2  0
 19 21  1  0
 21 22  2  0
 22 23  1  0
 23 24  2  0
 24 25  1  0
 24 26  1  0
 26 27  2  0
  9 28  2  0
 28 29  1  0
 28  5  1  0
 17 11  1  0
 27 21  1  0
  1 30  1  0
  1 31  1  0
  1 32  1  0
  6 33  1  0
  7 34  1  0
  8 35  1  0
 10 36  1  0
 12 37  1  0
 14 38  1  0
 14 39  1  0
 15 40  1  0
 16 41  1  0
 22 42  1  0
 23 43  1  0
 26 44  1  0
 27 45  1  0
 29 46  1  0
M  CHG  2   2  -1  18  -1
M  END
>  <UniqueID>  (53) 
49

>  <SMILES>  (53) 
C[N-]C(=O)c1cccc(Nc2cc(N)ccc2[N-]C(=O)c2ccc(F)cc2)c1O

>  <Energy>  (53) 
62.17881261330292

>  <Genealogy>  (53) 
C[N-]C(=O)c1cccc(Nc2cc(N)ccc2[N-]C(=O)c2ccc(F)cc2)c1O (protonated)
C[N-]C(=O)c1cccc(Nc2cc(N)ccc2[N-]C(=O)c2ccc(F)cc2)c1O (3D coordinates assigned)
C[N-]C(=O)c1cccc(Nc2cc(N)ccc2[N-]C(=O)c2ccc(F)cc2)c1O (optimized conformer: 62.17881261330292 kcal/mol)

>  <smiles>  (53) 
CNC(=O)c1cccc(Nc2cc(N)ccc2NC(=O)c2ccc(F)cc2)c1O

>  <score_type>  (53) 
oracle

>  <origin>  (53) 
adg

>  <m_score__min__energy>  (53) 
-12.470000000000001

>  <m_primary>  (53) 
energy

$$$$
53:0
     RDKit          3D

 54 57  0  0  0  0  0  0  0  0999 V2000
   59.7990   28.7010   48.6210 C   0  0  0  0  0  0  0  0  0  0  0  0
   60.3300   30.0740   48.6200 N   0  0  0  0  0  0  0  0  0  0  0  0
   61.2660   30.2350   49.7430 C   0  0  0  0  0  0  0  0  0  0  0  0
   59.2350   31.0620   48.7290 C   0  0  0  0  0  0  0  0  0  0  0  0
   58.8930   31.6510   47.3750 C   0  0  0  0  0  0  0  0  0  0  0  0
   58.4950   30.7880   46.3370 C   0  0  0  0  0  0  0  0  0  0  0  0
   58.0500   31.2980   45.1070 C   0  0  0  0  0  0  0  0  0  0  0  0
   57.5540   30.3690   44.0330 C   0  0  0  0  0  0  0  0  0  0  0  0
   57.2280   29.0340   44.6210 C   0  0  0  0  0  0  0  0  0  0  0  0
   58.3670   27.8580   45.0360 S   0  0  0  0  0  0  0  0  0  0  0  0
   57.1920   26.8410   45.6910 C   0  0  0  0  0  0  0  0  0  0  0  0
   57.4330   25.7180   46.1980 O   0  0  0  0  0  0  0  0  0  0  0  0
   55.9500   27.3720   45.6200 N   0  0  0  0  0  0  0  0  0  0  0  0
   55.9740   28.5930   45.0310 C   0  0  0  0  0  0  0  0  0  0  0  0
   54.8160   29.3440   44.8640 O   0  0  0  0  0  0  0  0  0  0  0  0
   57.9860   32.6840   44.9250 C   0  0  0  0  0  0  0  0  0  0  0  0
   58.4150   33.5500   45.9330 C   0  0  0  0  0  0  0  0  0  0  0  0
   58.9200   33.0480   47.1350 C   0  0  0  0  0  0  0  0  0  0  0  0
   59.4160   33.9660   48.0700 O   0  0  0  0  0  0  0  0  0  0  0  0
   60.6100   33.8050   48.7870 C   0  0  0  0  0  0  0  0  0  0  0  0
   61.8610   33.6590   48.1430 C   0  0  0  0  0  0  0  0  0  0  0  0
   62.0310   33.7820   46.3940 Cl  0  0  0  0  0  0  0  0  0  0  0  0
   63.0270   33.5350   48.9080 C   0  0  0  0  0  0  0  0  0  0  0  0
   62.9590   33.5530   50.3020 C   0  0  0  0  0  0  0  0  0  0  0  0
   61.7260   33.7100   50.9420 C   0  0  0  0  0  0  0  0  0  0  0  0
   60.5510   33.8420   50.1860 C   0  0  0  0  0  0  0  0  0  0  0  0
   59.3140   34.0710   50.8010 O   0  0  0  0  0  0  0  0  0  0  0  0
   58.6790   33.2010   51.6940 C   0  0  0  0  0  0  0  0  0  0  0  0
   57.7440   32.2940   51.1780 C   0  0  0  0  0  0  0  0  0  0  0  0
   57.1130   31.3670   52.0110 C   0  0  0  0  0  0  0  0  0  0  0  0
   57.4220   31.3320   53.3740 C   0  0  0  0  0  0  0  0  0  0  0  0
   58.3610   32.2220   53.9010 C   0  0  0  0  0  0  0  0  0  0  0  0
   58.9870   33.1560   53.0680 C   0  0  0  0  0  0  0  0  0  0  0  0
   59.6670   28.3597   49.6583 H   0  0  0  0  0  0  0  0  0  0  0  0
   58.8289   28.6827   48.1027 H   0  0  0  0  0  0  0  0  0  0  0  0
   60.5043   28.0347   48.1027 H   0  0  0  0  0  0  0  0  0  0  0  0
   60.7189   30.1409   50.6927 H   0  0  0  0  0  0  0  0  0  0  0  0
   62.0418   29.4571   49.6881 H   0  0  0  0  0  0  0  0  0  0  0  0
   61.7373   31.2274   49.6881 H   0  0  0  0  0  0  0  0  0  0  0  0
   58.3435   30.5660   49.1403 H   0  0  0  0  0  0  0  0  0  0  0  0
   59.5648   31.8766   49.3905 H   0  0  0  0  0  0  0  0  0  0  0  0
   58.5331   29.6996   46.4914 H   0  0  0  0  0  0  0  0  0  0  0  0
   56.6502   30.7945   43.5724 H   0  0  0  0  0  0  0  0  0  0  0  0
   58.3386   30.2460   43.2719 H   0  0  0  0  0  0  0  0  0  0  0  0
   57.5953   33.0939   43.9820 H   0  0  0  0  0  0  0  0  0  0  0  0
   58.3548   34.6375   45.7792 H   0  0  0  0  0  0  0  0  0  0  0  0
   64.0006   33.4229   48.4084 H   0  0  0  0  0  0  0  0  0  0  0  0
   63.8770   33.4435   50.8980 H   0  0  0  0  0  0  0  0  0  0  0  0
   61.6767   33.7301   52.0407 H   0  0  0  0  0  0  0  0  0  0  0  0
   57.5041   32.3121   50.1046 H   0  0  0  0  0  0  0  0  0  0  0  0
   56.3744   30.6659   51.5953 H   0  0  0  0  0  0  0  0  0  0  0  0
   56.9255   30.6034   54.0317 H   0  0  0  0  0  0  0  0  0  0  0  0
   58.6086   32.1885   54.9722 H   0  0  0  0  0  0  0  0  0  0  0  0
   59.7226   33.8579   53.4877 H   0  0  0  0  0  0  0  0  0  0  0  0
  1  2  1  0
  2  3  1  0
  2  4  1  0
  4  5  1  0
  5  6  2  0
  6  7  1  0
  7  8  1  0
  8  9  1  0
  9 10  1  0
 10 11  1  0
 11 12  2  0
 11 13  1  0
 13 14  1  0
 14 15  1  0
  7 16  2  0
 16 17  1  0
 17 18  2  0
 18 19  1  0
 19 20  1  0
 20 21  2  0
 21 22  1  0
 21 23  1  0
 23 24  2  0
 24 25  1  0
 25 26  2  0
 26 27  1  0
 27 28  1  0
 28 29  2  0
 29 30  1  0
 30 31  2  0
 31 32  1  0
 32 33  2  0
 18  5  1  0
 26 20  1  0
 33 28  1  0
 14  9  2  0
  1 34  1  0
  1 35  1  0
  1 36  1  0
  3 37  1  0
  3 38  1  0
  3 39  1  0
  4 40  1  0
  4 41  1  0
  6 42  1  0
  8 43  1  0
  8 44  1  0
 16 45  1  0
 17 46  1  0
 23 47  1  0
 24 48  1  0
 25 49  1  0
 29 50  1  0
 30 51  1  0
 31 52  1  0
 32 53  1  0
 33 54  1  0
M  CHG  2  13  -1  15  -1
M  END
>  <UniqueID>  (54) 
50

>  <SMILES>  (54) 
CN(C)Cc1cc(Cc2sc(=O)[n-]c2[O-])ccc1Oc1c(Cl)cccc1Oc1ccccc1

>  <Energy>  (54) 
105.3991628938085

>  <Genealogy>  (54) 
CN(C)Cc1cc(Cc2sc(=O)[n-]c2[O-])ccc1Oc1c(Cl)cccc1Oc1ccccc1 (protonated)
CN(C)Cc1cc(Cc2sc(=O)[n-]c2[O-])ccc1Oc1c(Cl)cccc1Oc1ccccc1 (3D coordinates assigned)
CN(C)Cc1cc(Cc2sc(=O)[n-]c2[O-])ccc1Oc1c(Cl)cccc1Oc1ccccc1 (optimized conformer: 105.3991628938085 kcal/mol)

>  <smiles>  (54) 
CN(C)Cc1cc(Cc2sc(=O)[nH]c2O)ccc1Oc1c(Cl)cccc1Oc1ccccc1

>  <score_type>  (54) 
oracle

>  <origin>  (54) 
adg

>  <m_score__min__energy>  (54) 
-15.17

>  <m_primary>  (54) 
energy

$$$$
54:0
     RDKit          3D

 59 63  0  0  0  0  0  0  0  0999 V2000
   61.4710   34.2930   50.1830 O   0  0  0  0  0  0  0  0  0  0  0  0
   60.4070   33.7110   49.8410 C   0  0  0  0  0  0  0  0  0  0  0  0
   59.7190   33.9490   48.5820 C   0  0  0  0  0  0  0  0  0  0  0  0
   59.9960   34.8330   47.5390 C   0  0  0  0  0  0  0  0  0  0  0  0
   59.1430   34.8220   46.4210 C   0  0  0  0  0  0  0  0  0  0  0  0
   58.0470   33.9330   46.3700 C   0  0  0  0  0  0  0  0  0  0  0  0
   57.7980   33.0500   47.4360 C   0  0  0  0  0  0  0  0  0  0  0  0
   58.6600   33.0890   48.5310 C   0  0  0  0  0  0  0  0  0  0  0  0
   58.6820   32.3100   49.7600 C   0  0  0  0  0  0  0  0  0  0  0  0
   57.8800   31.3710   50.0150 O   0  0  0  0  0  0  0  0  0  0  0  0
   59.7630   32.6900   50.6390 N   0  0  0  0  0  0  0  0  0  0  0  0
   59.2320   33.2420   51.9050 C   0  0  0  0  0  0  0  0  0  0  0  0
   57.7080   33.0130   52.0500 C   0  0  0  0  0  0  0  0  0  0  0  0
   57.3400   31.9580   53.1130 C   0  0  0  0  0  0  0  0  0  0  0  0
   57.7580   30.5190   52.7620 C   0  0  0  0  0  0  0  0  0  0  0  0
   59.2340   30.2000   53.0540 C   0  0  0  0  0  0  0  0  0  0  0  0
   59.7610   28.5900   52.3620 S   0  0  0  0  0  0  0  0  0  0  0  0
   60.2090   29.2470   50.7580 C   0  0  0  0  0  0  0  0  0  0  0  0
   59.6750   28.7940   49.6060 N   0  0  0  0  0  0  0  0  0  0  0  0
   60.2670   29.5430   48.6580 C   0  0  0  0  0  0  0  0  0  0  0  0
   59.9140   29.4420   47.2260 C   0  0  0  0  0  0  0  0  0  0  0  0
   60.4600   28.4100   46.4450 C   0  0  0  0  0  0  0  0  0  0  0  0
   60.1210   28.2920   45.0940 C   0  0  0  0  0  0  0  0  0  0  0  0
   59.2240   29.1930   44.5150 C   0  0  0  0  0  0  0  0  0  0  0  0
   58.6590   30.2100   45.2890 C   0  0  0  0  0  0  0  0  0  0  0  0
   58.9940   30.3310   46.6410 C   0  0  0  0  0  0  0  0  0  0  0  0
   61.1510   30.4250   49.2650 C   0  0  0  0  0  0  0  0  0  0  0  0
   62.0900   31.3680   48.6240 C   0  0  0  0  0  0  0  0  0  0  0  0
   61.7920   31.8930   47.3550 C   0  0  0  0  0  0  0  0  0  0  0  0
   62.6630   32.8020   46.7460 C   0  0  0  0  0  0  0  0  0  0  0  0
   63.8270   33.2060   47.4030 C   0  0  0  0  0  0  0  0  0  0  0  0
   64.1210   32.7070   48.6750 C   0  0  0  0  0  0  0  0  0  0  0  0
   63.2530   31.7960   49.2880 C   0  0  0  0  0  0  0  0  0  0  0  0
   61.1040   30.2410   50.5970 N   0  0  0  0  0  0  0  0  0  0  0  0
   60.8554   35.5178   47.5895 H   0  0  0  0  0  0  0  0  0  0  0  0
   59.3304   35.5089   45.5825 H   0  0  0  0  0  0  0  0  0  0  0  0
   57.3845   33.9311   45.4919 H   0  0  0  0  0  0  0  0  0  0  0  0
   56.9496   32.3505   47.4067 H   0  0  0  0  0  0  0  0  0  0  0  0
   60.4040   31.8770   50.7790 H   0  0  0  0  0  0  0  0  0  0  0  0
   59.7451   32.7540   52.7468 H   0  0  0  0  0  0  0  0  0  0  0  0
   59.4112   34.3273   51.9012 H   0  0  0  0  0  0  0  0  0  0  0  0
   57.2381   33.9673   52.3301 H   0  0  0  0  0  0  0  0  0  0  0  0
   57.3452   32.6358   51.0825 H   0  0  0  0  0  0  0  0  0  0  0  0
   57.8310   32.2369   54.0570 H   0  0  0  0  0  0  0  0  0  0  0  0
   56.2421   31.9550   53.1809 H   0  0  0  0  0  0  0  0  0  0  0  0
   57.1338   29.8267   53.3460 H   0  0  0  0  0  0  0  0  0  0  0  0
   57.6200   30.4066   51.6765 H   0  0  0  0  0  0  0  0  0  0  0  0
   59.8584   30.9924   52.6156 H   0  0  0  0  0  0  0  0  0  0  0  0
   59.3516   30.1458   54.1464 H   0  0  0  0  0  0  0  0  0  0  0  0
   61.1579   27.6910   46.8988 H   0  0  0  0  0  0  0  0  0  0  0  0
   60.5613   27.4882   44.4857 H   0  0  0  0  0  0  0  0  0  0  0  0
   58.9626   29.1019   43.4504 H   0  0  0  0  0  0  0  0  0  0  0  0
   57.9494   30.9166   44.8338 H   0  0  0  0  0  0  0  0  0  0  0  0
   58.5363   31.1246   47.2498 H   0  0  0  0  0  0  0  0  0  0  0  0
   60.8700   31.5877   46.8386 H   0  0  0  0  0  0  0  0  0  0  0  0
   62.4306   33.1996   45.7471 H   0  0  0  0  0  0  0  0  0  0  0  0
   64.5128   33.9172   46.9193 H   0  0  0  0  0  0  0  0  0  0  0  0
   65.0350   33.0304   49.1946 H   0  0  0  0  0  0  0  0  0  0  0  0
   63.4818   31.4133   50.2936 H   0  0  0  0  0  0  0  0  0  0  0  0
  1  2  2  0
  2  3  1  0
  3  4  2  0
  4  5  1  0
  5  6  2  0
  6  7  1  0
  7  8  2  0
  8  9  1  0
  9 10  2  0
  9 11  1  0
 11 12  1  0
 12 13  1  0
 13 14  1  0
 14 15  1  0
 15 16  1  0
 16 17  1  0
 17 18  1  0
 18 19  2  0
 19 20  1  0
 20 21  1  0
 21 22  2  0
 22 23  1  0
 23 24  2  0
 24 25  1  0
 25 26  2  0
 20 27  2  0
 27 28  1  0
 28 29  2  0
 29 30  1  0
 30 31  2  0
 31 32  1  0
 32 33  2  0
 27 34  1  0
 11  2  1  0
 34 18  1  0
  8  3  1  0
 26 21  1  0
 33 28  1  0
  4 35  1  0
  5 36  1  0
  6 37  1  0
  7 38  1  0
 11 39  1  0
 12 40  1  0
 12 41  1  0
 13 42  1  0
 13 43  1  0
 14 44  1  0
 14 45  1  0
 15 46  1  0
 15 47  1  0
 16 48  1  0
 16 49  1  0
 22 50  1  0
 23 51  1  0
 24 52  1  0
 25 53  1  0
 26 54  1  0
 29 55  1  0
 30 56  1  0
 31 57  1  0
 32 58  1  0
 33 59  1  0
M  CHG  2  11   1  34  -1
M  END
>  <UniqueID>  (55) 
51

>  <SMILES>  (55) 
O=C1c2ccccc2C(=O)[NH+]1CCCCCSc1nc(-c2ccccc2)c(-c2ccccc2)[n-]1

>  <Energy>  (55) 
120.96216417817095

>  <Genealogy>  (55) 
O=C1c2ccccc2C(=O)[NH+]1CCCCCSc1nc(-c2ccccc2)c(-c2ccccc2)[n-]1 (protonated)
O=C1c2ccccc2C(=O)[NH+]1CCCCCSc1nc(-c2ccccc2)c(-c2ccccc2)[n-]1 (3D coordinates assigned)
O=C1c2ccccc2C(=O)[NH+]1CCCCCSc1nc(-c2ccccc2)c(-c2ccccc2)[n-]1 (nonaromatic ring conformer: 120.96216417817095 kcal/mol)

>  <smiles>  (55) 
O=C1c2ccccc2C(=O)N1CCCCCSc1nc(-c2ccccc2)c(-c2ccccc2)[nH]1

>  <score_type>  (55) 
oracle

>  <origin>  (55) 
adg

>  <m_score__min__energy>  (55) 
-9.0500000000000007

>  <m_primary>  (55) 
energy

$$$$
55:0
     RDKit          3D

 52 55  0  0  0  0  0  0  0  0999 V2000
   52.4990   21.0820   45.6380 N   0  0  0  0  0  0  0  0  0  0  0  0
   52.4920   22.8100   45.6470 S   0  0  0  0  0  0  0  0  0  0  0  0
   51.4710   23.3040   46.6330 O   0  0  0  0  0  0  0  0  0  0  0  0
   52.1250   23.3150   44.2800 O   0  0  0  0  0  0  0  0  0  0  0  0
   54.0880   23.4040   46.0950 C   0  0  0  0  0  0  0  0  0  0  0  0
   54.7570   22.8580   47.1980 C   0  0  0  0  0  0  0  0  0  0  0  0
   56.0300   23.3180   47.5490 C   0  0  0  0  0  0  0  0  0  0  0  0
   56.6440   24.3400   46.8030 C   0  0  0  0  0  0  0  0  0  0  0  0
   57.9570   24.8280   47.1150 N   0  0  0  0  0  0  0  0  0  0  0  0
   58.9020   25.3860   46.1950 C   0  0  0  0  0  0  0  0  0  0  0  0
   60.1390   25.2120   46.3600 O   0  0  0  0  0  0  0  0  0  0  0  0
   58.4160   26.1470   45.0830 N   0  0  0  0  0  0  0  0  0  0  0  0
   58.0700   27.5400   45.0850 C   0  0  0  0  0  0  0  0  0  0  0  0
   58.1650   28.2540   46.2860 C   0  0  0  0  0  0  0  0  0  0  0  0
   57.8550   29.6160   46.3280 C   0  0  0  0  0  0  0  0  0  0  0  0
   57.4500   30.2870   45.1680 C   0  0  0  0  0  0  0  0  0  0  0  0
   57.1600   31.6570   45.2480 O   0  0  0  0  0  0  0  0  0  0  0  0
   58.1090   32.6850   45.3480 C   0  0  0  0  0  0  0  0  0  0  0  0
   57.8780   33.9640   44.8180 C   0  0  0  0  0  0  0  0  0  0  0  0
   58.8530   34.9520   44.9620 C   0  0  0  0  0  0  0  0  0  0  0  0
   60.0080   34.6770   45.6210 N   0  0  0  0  0  0  0  0  0  0  0  0
   60.2620   33.4540   46.1640 C   0  0  0  0  0  0  0  0  0  0  0  0
   61.5430   33.2360   46.8720 C   0  0  0  0  0  0  0  0  0  0  0  0
   61.7380   32.4970   48.0290 C   0  0  0  0  0  0  0  0  0  0  0  0
   63.0910   32.5790   48.3150 C   0  0  0  0  0  0  0  0  0  0  0  0
   63.8080   31.9600   49.4470 C   0  0  0  0  0  0  0  0  0  0  0  0
   63.1910   30.9600   50.2600 N   0  0  0  0  0  0  0  0  0  0  0  0
   64.9870   32.3200   49.7050 O   0  0  0  0  0  0  0  0  0  0  0  0
   63.6610   33.3590   47.3270 C   0  0  0  0  0  0  0  0  0  0  0  0
   62.7160   33.7560   46.4560 N   0  0  0  0  0  0  0  0  0  0  0  0
   59.3000   32.4360   46.0370 C   0  0  0  0  0  0  0  0  0  0  0  0
   57.3980   29.5840   43.9510 C   0  0  0  0  0  0  0  0  0  0  0  0
   57.7060   28.2210   43.9090 C   0  0  0  0  0  0  0  0  0  0  0  0
   55.9840   24.8590   45.6820 C   0  0  0  0  0  0  0  0  0  0  0  0
   54.7110   24.3990   45.3320 C   0  0  0  0  0  0  0  0  0  0  0  0
   51.8510   20.7800   44.8770 H   0  0  0  0  0  0  0  0  0  0  0  0
   54.2789   22.0640   47.7905 H   0  0  0  0  0  0  0  0  0  0  0  0
   56.5529   22.8791   48.4115 H   0  0  0  0  0  0  0  0  0  0  0  0
   58.4861   27.7388   47.2033 H   0  0  0  0  0  0  0  0  0  0  0  0
   57.9297   30.1644   47.2786 H   0  0  0  0  0  0  0  0  0  0  0  0
   56.9367   34.1856   44.2937 H   0  0  0  0  0  0  0  0  0  0  0  0
   58.6857   35.9545   44.5413 H   0  0  0  0  0  0  0  0  0  0  0  0
   60.9727   31.9549   48.6038 H   0  0  0  0  0  0  0  0  0  0  0  0
   63.7200   30.5340   51.0540 H   0  0  0  0  0  0  0  0  0  0  0  0
   62.2120   30.6430   50.0930 H   0  0  0  0  0  0  0  0  0  0  0  0
   64.7284   33.6168   47.2624 H   0  0  0  0  0  0  0  0  0  0  0  0
   62.8750   34.3550   45.6160 H   0  0  0  0  0  0  0  0  0  0  0  0
   59.4842   31.4456   46.4789 H   0  0  0  0  0  0  0  0  0  0  0  0
   57.1135   30.1094   43.0274 H   0  0  0  0  0  0  0  0  0  0  0  0
   57.6636   27.6789   42.9528 H   0  0  0  0  0  0  0  0  0  0  0  0
   56.4709   25.6344   45.0723 H   0  0  0  0  0  0  0  0  0  0  0  0
   54.1976   24.8199   44.4549 H   0  0  0  0  0  0  0  0  0  0  0  0
  1  2  1  0
  2  3  2  0
  2  4  2  0
  2  5  1  0
  5  6  2  0
  6  7  1  0
  7  8  2  0
  8  9  1  0
  9 10  1  0
 10 11  2  0
 10 12  1  0
 12 13  1  0
 13 14  2  0
 14 15  1  0
 15 16  2  0
 16 17  1  0
 17 18  1  0
 18 19  2  0
 19 20  1  0
 20 21  2  0
 21 22  1  0
 22 23  1  0
 23 24  2  0
 24 25  1  0
 25 26  1  0
 26 27  1  0
 26 28  2  0
 25 29  2  0
 29 30  1  0
 22 31  2  0
 16 32  1  0
 32 33  2  0
  8 34  1  0
 34 35  2  0
 35  5  1  0
 33 13  1  0
 31 18  1  0
 30 23  1  0
  1 36  1  0
  6 37  1  0
  7 38  1  0
 14 39  1  0
 15 40  1  0
 19 41  1  0
 20 42  1  0
 24 43  1  0
 27 44  1  0
 27 45  1  0
 29 46  1  0
 30 47  1  0
 31 48  1  0
 32 49  1  0
 33 50  1  0
 34 51  1  0
 35 52  1  0
M  CHG  3   1  -1   9  -1  12  -1
M  END
>  <UniqueID>  (56) 
52

>  <SMILES>  (56) 
[NH-]S(=O)(=O)c1ccc([N-]C(=O)[N-]c2ccc(Oc3ccnc(-c4cc(C(N)=O)c[nH]4)c3)cc2)cc1

>  <Energy>  (56) 
95.63531709322928

>  <Genealogy>  (56) 
[NH-]S(=O)(=O)c1ccc([N-]C(=O)[N-]c2ccc(Oc3ccnc(-c4cc(C(N)=O)c[nH]4)c3)cc2)cc1 (protonated)
[NH-]S(=O)(=O)c1ccc([N-]C(=O)[N-]c2ccc(Oc3ccnc(-c4cc(C(N)=O)c[nH]4)c3)cc2)cc1 (3D coordinates assigned)
[NH-]S(=O)(=O)c1ccc([N-]C(=O)[N-]c2ccc(Oc3ccnc(-c4cc(C(N)=O)c[nH]4)c3)cc2)cc1 (optimized conformer: 95.63531709322928 kcal/mol)

>  <smiles>  (56) 
NC(=O)c1c[nH]c(-c2cc(Oc3ccc(NC(=O)Nc4ccc(S(N)(=O)=O)cc4)cc3)ccn2)c1

>  <score_type>  (56) 
oracle

>  <origin>  (56) 
adg

>  <m_score__min__energy>  (56) 
-13.08

>  <m_primary>  (56) 
energy

$$$$
56:0
     RDKit          3D

 67 70  0  0  0  0  0  0  0  0999 V2000
   57.0430   34.0620   44.9970 C   0  0  0  0  0  0  0  0  0  0  0  0
   58.5880   33.2320   44.6880 S   0  0  0  0  0  0  0  0  0  0  0  0
   58.3500   32.1470   43.6750 O   0  0  0  0  0  0  0  0  0  0  0  0
   59.5790   34.2190   44.1310 O   0  0  0  0  0  0  0  0  0  0  0  0
   59.1980   32.5340   46.1670 N   0  0  0  0  0  0  0  0  0  0  0  0
   60.5940   32.9700   46.3940 C   0  0  0  0  0  0  0  0  0  0  0  0
   61.0350   32.8690   47.8700 C   0  0  0  0  0  0  0  0  0  0  0  0
   60.1760   31.9560   48.6350 N   0  0  0  0  0  0  0  0  0  0  0  0
   60.7390   31.1350   49.6750 C   0  0  0  0  0  0  0  0  0  0  0  0
   60.8750   29.7370   49.4810 C   0  0  0  0  0  0  0  0  0  0  0  0
   60.3860   29.0760   48.2540 C   0  0  0  0  0  0  0  0  0  0  0  0
   60.2990   27.8200   48.2180 O   0  0  0  0  0  0  0  0  0  0  0  0
   60.0480   29.8560   47.0950 N   0  0  0  0  0  0  0  0  0  0  0  0
   59.2810   29.3490   45.9910 C   0  0  0  0  0  0  0  0  0  0  0  0
   59.8070   28.3120   45.2090 C   0  0  0  0  0  0  0  0  0  0  0  0
   59.0970   27.8260   44.1090 C   0  0  0  0  0  0  0  0  0  0  0  0
   57.8580   28.3780   43.7740 C   0  0  0  0  0  0  0  0  0  0  0  0
   57.3120   29.4180   44.5440 C   0  0  0  0  0  0  0  0  0  0  0  0
   56.0080   30.0550   44.1310 C   0  0  0  0  0  0  0  0  0  0  0  0
   55.8490   30.0190   42.7560 F   0  0  0  0  0  0  0  0  0  0  0  0
   55.9710   31.3780   44.5370 F   0  0  0  0  0  0  0  0  0  0  0  0
   54.9610   29.3720   44.7220 F   0  0  0  0  0  0  0  0  0  0  0  0
   58.0420   29.9160   45.6370 C   0  0  0  0  0  0  0  0  0  0  0  0
   61.4870   28.9540   50.4700 C   0  0  0  0  0  0  0  0  0  0  0  0
   61.9610   29.5380   51.6410 C   0  0  0  0  0  0  0  0  0  0  0  0
   61.8380   30.9110   51.8380 C   0  0  0  0  0  0  0  0  0  0  0  0
   61.2330   31.7230   50.8690 C   0  0  0  0  0  0  0  0  0  0  0  0
   61.1350   33.4670   51.2020 S   0  0  0  0  0  0  0  0  0  0  0  0
   60.0380   34.0220   50.3360 O   0  0  0  0  0  0  0  0  0  0  0  0
   60.7190   33.6930   52.6260 O   0  0  0  0  0  0  0  0  0  0  0  0
   62.6350   34.3460   50.9290 N   0  0  0  0  0  0  0  0  0  0  0  0
   63.1210   34.2260   49.5400 C   0  0  0  0  0  0  0  0  0  0  0  0
   63.8600   32.8980   49.2880 C   0  0  0  0  0  0  0  0  0  0  0  0
   64.7650   32.4770   50.4600 C   0  0  0  0  0  0  0  0  0  0  0  0
   65.0140   33.6280   51.4320 C   0  0  0  0  0  0  0  0  0  0  0  0
   63.6810   34.1730   51.9710 C   0  0  0  0  0  0  0  0  0  0  0  0
   58.7160   32.0330   48.5030 C   0  0  0  0  0  0  0  0  0  0  0  0
   58.3260   32.8870   47.2960 C   0  0  0  0  0  0  0  0  0  0  0  0
   56.8834   34.1477   46.0820 H   0  0  0  0  0  0  0  0  0  0  0  0
   57.0707   35.0667   44.5499 H   0  0  0  0  0  0  0  0  0  0  0  0
   56.2206   33.4843   44.5499 H   0  0  0  0  0  0  0  0  0  0  0  0
   61.2596   32.3386   45.7871 H   0  0  0  0  0  0  0  0  0  0  0  0
   60.6536   34.0307   46.1089 H   0  0  0  0  0  0  0  0  0  0  0  0
   62.0703   32.4991   47.9077 H   0  0  0  0  0  0  0  0  0  0  0  0
   60.9559   33.8698   48.3196 H   0  0  0  0  0  0  0  0  0  0  0  0
   60.3920   30.8410   47.0390 H   0  0  0  0  0  0  0  0  0  0  0  0
   60.7853   27.8780   45.4632 H   0  0  0  0  0  0  0  0  0  0  0  0
   59.5142   27.0068   43.5050 H   0  0  0  0  0  0  0  0  0  0  0  0
   57.3069   27.9958   42.9021 H   0  0  0  0  0  0  0  0  0  0  0  0
   57.6412   30.7572   46.2216 H   0  0  0  0  0  0  0  0  0  0  0  0
   61.5934   27.8696   50.3192 H   0  0  0  0  0  0  0  0  0  0  0  0
   62.4341   28.9133   52.4130 H   0  0  0  0  0  0  0  0  0  0  0  0
   62.2201   31.3636   52.7649 H   0  0  0  0  0  0  0  0  0  0  0  0
   62.2598   34.2857   48.8582 H   0  0  0  0  0  0  0  0  0  0  0  0
   63.8337   35.0449   49.3626 H   0  0  0  0  0  0  0  0  0  0  0  0
   63.1129   32.1080   49.1217 H   0  0  0  0  0  0  0  0  0  0  0  0
   64.5074   33.0449   48.4109 H   0  0  0  0  0  0  0  0  0  0  0  0
   64.2817   31.6516   51.0032 H   0  0  0  0  0  0  0  0  0  0  0  0
   65.7353   32.1661   50.0455 H   0  0  0  0  0  0  0  0  0  0  0  0
   65.6242   33.2666   52.2728 H   0  0  0  0  0  0  0  0  0  0  0  0
   65.5408   34.4350   50.9017 H   0  0  0  0  0  0  0  0  0  0  0  0
   63.3017   33.4722   52.7293 H   0  0  0  0  0  0  0  0  0  0  0  0
   63.8881   35.1713   52.3840 H   0  0  0  0  0  0  0  0  0  0  0  0
   58.3113   31.0184   48.3732 H   0  0  0  0  0  0  0  0  0  0  0  0
   58.3030   32.4957   49.4115 H   0  0  0  0  0  0  0  0  0  0  0  0
   57.2770   32.6923   47.0284 H   0  0  0  0  0  0  0  0  0  0  0  0
   58.4410   33.9536   47.5390 H   0  0  0  0  0  0  0  0  0  0  0  0
  1  2  1  0
  2  3  2  0
  2  4  2  0
  2  5  1  0
  5  6  1  0
  6  7  1  0
  7  8  1  0
  8  9  1  0
  9 10  1  0
 10 11  1  0
 11 12  2  0
 11 13  1  0
 13 14  1  0
 14 15  2  0
 15 16  1  0
 16 17  2  0
 17 18  1  0
 18 19  1  0
 19 20  1  0
 19 21  1  0
 19 22  1  0
 18 23  2  0
 10 24  2  0
 24 25  1  0
 25 26  2  0
 26 27  1  0
 27 28  1  0
 28 29  2  0
 28 30  2  0
 28 31  1  0
 31 32  1  0
 32 33  1  0
 33 34  1  0
 34 35  1  0
 35 36  1  0
  8 37  1  0
 37 38  1  0
 38  5  1  0
 27  9  2  0
 36 31  1  0
 23 14  1  0
  1 39  1  0
  1 40  1  0
  1 41  1  0
  6 42  1  0
  6 43  1  0
  7 44  1  0
  7 45  1  0
 13 46  1  0
 15 47  1  0
 16 48  1  0
 17 49  1  0
 23 50  1  0
 24 51  1  0
 25 52  1  0
 26 53  1  0
 32 54  1  0
 32 55  1  0
 33 56  1  0
 33 57  1  0
 34 58  1  0
 34 59  1  0
 35 60  1  0
 35 61  1  0
 36 62  1  0
 36 63  1  0
 37 64  1  0
 37 65  1  0
 38 66  1  0
 38 67  1  0
M  END
>  <UniqueID>  (57) 
53

>  <SMILES>  (57) 
CS(=O)(=O)N1CCN(c2c(C(=O)Nc3cccc(C(F)(F)F)c3)cccc2S(=O)(=O)N2CCCCC2)CC1

>  <Energy>  (57) 
93.94237421041667

>  <Genealogy>  (57) 
CS(=O)(=O)N1CCN(c2c(C(=O)Nc3cccc(C(F)(F)F)c3)cccc2S(=O)(=O)N2CCCCC2)CC1 (3D coordinates assigned)
CS(=O)(=O)N1CCN(c2c(C(=O)Nc3cccc(C(F)(F)F)c3)cccc2S(=O)(=O)N2CCCCC2)CC1 (nonaromatic ring conformer: 93.94237421041667 kcal/mol)

>  <smiles>  (57) 
CS(=O)(=O)N1CCN(c2c(C(=O)Nc3cccc(C(F)(F)F)c3)cccc2S(=O)(=O)N2CCCCC2)CC1

>  <score_type>  (57) 
oracle

>  <origin>  (57) 
adg

>  <m_score__min__energy>  (57) 
-9.0999999999999996

>  <m_primary>  (57) 
energy

$$$$
57:0
     RDKit          3D

 58 61  0  0  0  0  0  0  0  0999 V2000
   58.8900   29.6940   49.2470 O   0  0  0  0  0  0  0  0  0  0  0  0
   59.8520   30.1330   48.5580 C   0  0  0  0  0  0  0  0  0  0  0  0
   61.1230   30.5360   49.2450 C   0  0  0  0  0  0  0  0  0  0  0  0
   61.7470   31.7210   48.5490 C   0  0  0  0  0  0  0  0  0  0  0  0
   62.8010   31.5040   47.6420 C   0  0  0  0  0  0  0  0  0  0  0  0
   63.4200   32.5800   47.0020 C   0  0  0  0  0  0  0  0  0  0  0  0
   63.0030   33.8850   47.2670 C   0  0  0  0  0  0  0  0  0  0  0  0
   61.9680   34.1170   48.1750 C   0  0  0  0  0  0  0  0  0  0  0  0
   61.3390   33.0460   48.8220 C   0  0  0  0  0  0  0  0  0  0  0  0
   59.9390   33.4530   50.0690 Br  0  0  0  0  0  0  0  0  0  0  0  0
   59.7240   30.2610   47.1350 N   0  0  0  0  0  0  0  0  0  0  0  0
   58.5720   29.8040   46.4130 C   0  0  0  0  0  0  0  0  0  0  0  0
   58.1690   28.4700   46.5610 C   0  0  0  0  0  0  0  0  0  0  0  0
   57.0710   27.9740   45.8510 C   0  0  0  0  0  0  0  0  0  0  0  0
   56.6200   26.2780   46.0180 S   0  0  0  0  0  0  0  0  0  0  0  0
   57.1170   25.7760   47.3440 O   0  0  0  0  0  0  0  0  0  0  0  0
   55.1230   26.1360   45.9780 O   0  0  0  0  0  0  0  0  0  0  0  0
   57.3410   25.3450   44.7280 N   0  0  0  0  0  0  0  0  0  0  0  0
   56.3260   24.4670   44.1140 C   0  0  0  0  0  0  0  0  0  0  0  0
   56.9970   23.3000   43.3730 C   0  0  0  0  0  0  0  0  0  0  0  0
   57.8010   22.4680   44.2010 O   0  0  0  0  0  0  0  0  0  0  0  0
   58.2450   23.1040   45.3910 C   0  0  0  0  0  0  0  0  0  0  0  0
   58.5300   24.6050   45.2070 C   0  0  0  0  0  0  0  0  0  0  0  0
   56.3640   28.8190   44.9890 C   0  0  0  0  0  0  0  0  0  0  0  0
   56.7380   30.1570   44.8550 C   0  0  0  0  0  0  0  0  0  0  0  0
   57.8330   30.6680   45.5710 C   0  0  0  0  0  0  0  0  0  0  0  0
   58.1570   32.0680   45.4760 N   0  0  0  0  0  0  0  0  0  0  0  0
   57.9310   32.9540   46.6220 C   0  0  0  0  0  0  0  0  0  0  0  0
   58.9870   34.0840   46.6690 C   0  0  0  0  0  0  0  0  0  0  0  0
   59.8350   34.1140   45.5320 O   0  0  0  0  0  0  0  0  0  0  0  0
   59.0610   34.0610   44.3520 C   0  0  0  0  0  0  0  0  0  0  0  0
   58.4930   32.6510   44.1710 C   0  0  0  0  0  0  0  0  0  0  0  0
   60.9011   30.8045   50.2884 H   0  0  0  0  0  0  0  0  0  0  0  0
   61.8281   29.6923   49.2124 H   0  0  0  0  0  0  0  0  0  0  0  0
   63.1402   30.4782   47.4354 H   0  0  0  0  0  0  0  0  0  0  0  0
   64.2371   32.3986   46.2883 H   0  0  0  0  0  0  0  0  0  0  0  0
   63.4899   34.7313   46.7603 H   0  0  0  0  0  0  0  0  0  0  0  0
   61.6446   35.1475   48.3835 H   0  0  0  0  0  0  0  0  0  0  0  0
   60.4240   30.8420   46.6200 H   0  0  0  0  0  0  0  0  0  0  0  0
   58.7218   27.8065   47.2423 H   0  0  0  0  0  0  0  0  0  0  0  0
   55.6708   24.0662   44.9014 H   0  0  0  0  0  0  0  0  0  0  0  0
   55.7389   25.0543   43.3926 H   0  0  0  0  0  0  0  0  0  0  0  0
   56.2089   22.6792   42.9219 H   0  0  0  0  0  0  0  0  0  0  0  0
   57.6694   23.7456   42.6251 H   0  0  0  0  0  0  0  0  0  0  0  0
   57.4675   22.9877   46.1604 H   0  0  0  0  0  0  0  0  0  0  0  0
   59.1913   22.6254   45.6835 H   0  0  0  0  0  0  0  0  0  0  0  0
   58.8445   25.0269   46.1730 H   0  0  0  0  0  0  0  0  0  0  0  0
   59.3203   24.7083   44.4488 H   0  0  0  0  0  0  0  0  0  0  0  0
   55.5109   28.4279   44.4152 H   0  0  0  0  0  0  0  0  0  0  0  0
   56.1702   30.8171   44.1828 H   0  0  0  0  0  0  0  0  0  0  0  0
   56.9296   33.4013   46.5383 H   0  0  0  0  0  0  0  0  0  0  0  0
   58.0132   32.3602   47.5443 H   0  0  0  0  0  0  0  0  0  0  0  0
   58.4622   35.0483   46.7374 H   0  0  0  0  0  0  0  0  0  0  0  0
   59.6258   33.8936   47.5440 H   0  0  0  0  0  0  0  0  0  0  0  0
   58.2335   34.7821   44.4247 H   0  0  0  0  0  0  0  0  0  0  0  0
   59.6948   34.3122   43.4888 H   0  0  0  0  0  0  0  0  0  0  0  0
   57.5856   32.7017   43.5513 H   0  0  0  0  0  0  0  0  0  0  0  0
   59.2486   32.0201   43.6800 H   0  0  0  0  0  0  0  0  0  0  0  0
  1  2  2  0
  2  3  1  0
  3  4  1  0
  4  5  2  0
  5  6  1  0
  6  7  2  0
  7  8  1  0
  8  9  2  0
  9 10  1  0
  2 11  1  0
 11 12  1  0
 12 13  2  0
 13 14  1  0
 14 15  1  0
 15 16  2  0
 15 17  2  0
 15 18  1  0
 18 19  1  0
 19 20  1  0
 20 21  1  0
 21 22  1  0
 22 23  1  0
 14 24  2  0
 24 25  1  0
 25 26  2  0
 26 27  1  0
 27 28  1  0
 28 29  1  0
 29 30  1  0
 30 31  1  0
 31 32  1  0
  9  4  1  0
 26 12  1  0
 32 27  1  0
 23 18  1  0
  3 33  1  0
  3 34  1  0
  5 35  1  0
  6 36  1  0
  7 37  1  0
  8 38  1  0
 11 39  1  0
 13 40  1  0
 19 41  1  0
 19 42  1  0
 20 43  1  0
 20 44  1  0
 22 45  1  0
 22 46  1  0
 23 47  1  0
 23 48  1  0
 24 49  1  0
 25 50  1  0
 28 51  1  0
 28 52  1  0
 29 53  1  0
 29 54  1  0
 31 55  1  0
 31 56  1  0
 32 57  1  0
 32 58  1  0
M  END
>  <UniqueID>  (58) 
54

>  <SMILES>  (58) 
O=C(Cc1ccccc1Br)Nc1cc(S(=O)(=O)N2CCOCC2)ccc1N1CCOCC1

>  <Energy>  (58) 
86.1960233037151

>  <Genealogy>  (58) 
O=C(Cc1ccccc1Br)Nc1cc(S(=O)(=O)N2CCOCC2)ccc1N1CCOCC1 (3D coordinates assigned)
O=C(Cc1ccccc1Br)Nc1cc(S(=O)(=O)N2CCOCC2)ccc1N1CCOCC1 (nonaromatic ring conformer: 86.1960233037151 kcal/mol)

>  <smiles>  (58) 
O=C(Cc1ccccc1Br)Nc1cc(S(=O)(=O)N2CCOCC2)ccc1N1CCOCC1

>  <score_type>  (58) 
oracle

>  <origin>  (58) 
adg

>  <m_score__min__energy>  (58) 
-10.27

>  <m_primary>  (58) 
energy

$$$$
58:0
     RDKit          3D

 52 55  0  0  1  0  0  0  0  0999 V2000
   58.2260   31.6070   47.1020 O   0  0  0  0  0  0  0  0  0  0  0  0
   58.2940   31.1640   45.9100 C   0  0  0  0  0  0  0  0  0  0  0  0
   58.5530   32.1310   44.9050 N   0  0  0  0  0  0  0  0  0  0  0  0
   58.7500   33.7940   45.3780 S   0  0  0  0  0  0  0  0  0  0  0  0
   57.3770   34.2960   45.7600 O   0  0  0  0  0  0  0  0  0  0  0  0
   59.3200   34.5470   44.2210 O   0  0  0  0  0  0  0  0  0  0  0  0
   59.8270   33.8520   46.7520 C   0  0  0  0  0  0  0  0  0  0  0  0
   59.4500   34.2030   48.0120 C   0  0  0  0  0  0  0  0  0  0  0  0
   60.3760   34.2180   49.0260 C   0  0  0  0  0  0  0  0  0  0  0  0
   61.6850   33.8790   48.7810 C   0  0  0  0  0  0  0  0  0  0  0  0
   62.0950   33.5190   47.5160 C   0  0  0  0  0  0  0  0  0  0  0  0
   63.7520   33.0820   47.1740 Cl  0  0  0  0  0  0  0  0  0  0  0  0
   61.1530   33.5120   46.5210 C   0  0  0  0  0  0  0  0  0  0  0  0
   58.1130   29.7480   45.6130 C   0  0  0  0  0  0  0  0  0  0  0  0
   57.9230   29.2460   44.3530 C   0  0  0  0  0  0  0  0  0  0  0  0
   57.7530   27.9030   44.0980 C   0  0  0  0  0  0  0  0  0  0  0  0
   57.7710   26.9930   45.1480 C   0  0  0  0  0  0  0  0  0  0  0  0
   57.5910   25.5800   44.8700 C   0  0  0  0  0  0  0  0  0  0  0  0
   57.3850   25.1220   43.5710 C   0  0  0  0  0  0  0  0  0  0  0  0
   57.2160   23.7540   43.3600 C   0  0  0  0  0  0  0  0  0  0  0  0
   57.2520   22.8550   44.4310 C   0  0  0  0  0  0  0  0  0  0  0  0
   57.4550   23.3070   45.7090 C   0  0  0  0  0  0  0  0  0  0  0  0
   57.4820   22.3700   46.7600 N   0  0  0  0  0  0  0  0  0  0  0  0
   56.6170   22.2840   47.7150 C   0  0  0  0  0  0  0  0  0  0  0  0
   57.0170   21.8850   48.9380 N   0  0  0  0  0  0  0  0  0  0  0  0
   56.1590   21.7770   49.9730 C   0  0  0  0  0  0  0  0  0  0  0  0
   56.6050   21.3370   51.3210 C   0  0  0  0  0  0  0  0  0  0  0  0
   57.9790   21.3430   51.4090 F   0  0  0  0  0  0  0  0  0  0  0  0
   56.0680   20.0900   51.5740 F   0  0  0  0  0  0  0  0  0  0  0  0
   56.1160   22.1870   52.2980 F   0  0  0  0  0  0  0  0  0  0  0  0
   54.8410   22.0970   49.7180 C   0  0  0  0  0  0  0  0  0  0  0  0
   54.4550   22.5060   48.4470 C   0  0  0  0  0  0  0  0  0  0  0  0
   55.3410   22.6030   47.4330 N   0  0  0  0  0  0  0  0  0  0  0  0
   57.6220   24.6570   45.9210 C   0  0  0  0  0  0  0  0  0  0  0  0
   57.9640   27.5120   46.4090 C   0  0  0  0  0  0  0  0  0  0  0  0
   58.1330   28.8540   46.6610 C   0  0  0  0  0  0  0  0  0  0  0  0
   58.6240   31.8510   43.9070 H   0  0  0  0  0  0  0  0  0  0  0  0
   58.4041   34.4745   48.2179 H   0  0  0  0  0  0  0  0  0  0  0  0
   60.0674   34.5037   50.0425 H   0  0  0  0  0  0  0  0  0  0  0  0
   62.4140   33.8953   49.6046 H   0  0  0  0  0  0  0  0  0  0  0  0
   61.4582   33.2269   45.5034 H   0  0  0  0  0  0  0  0  0  0  0  0
   57.9053   29.9474   43.5058 H   0  0  0  0  0  0  0  0  0  0  0  0
   57.6034   27.5520   43.0663 H   0  0  0  0  0  0  0  0  0  0  0  0
   57.3561   25.8266   42.7268 H   0  0  0  0  0  0  0  0  0  0  0  0
   57.0525   23.3775   42.3395 H   0  0  0  0  0  0  0  0  0  0  0  0
   57.1166   21.7791   44.2466 H   0  0  0  0  0  0  0  0  0  0  0  0
   54.0941   22.0282   50.5226 H   0  0  0  0  0  0  0  0  0  0  0  0
   53.4001   22.7572   48.2625 H   0  0  0  0  0  0  0  0  0  0  0  0
   55.0580   22.9100   46.4760 H   0  0  0  0  0  0  0  0  0  0  0  0
   57.7845   25.0205   46.9464 H   0  0  0  0  0  0  0  0  0  0  0  0
   57.9841   26.8161   47.2606 H   0  0  0  0  0  0  0  0  0  0  0  0
   58.2829   29.2102   47.6909 H   0  0  0  0  0  0  0  0  0  0  0  0
  1  2  2  0
  2  3  1  0
  3  4  1  0
  4  5  2  0
  4  6  2  0
  4  7  1  0
  7  8  2  0
  8  9  1  0
  9 10  2  0
 10 11  1  0
 11 12  1  0
 11 13  2  0
  2 14  1  0
 14 15  2  0
 15 16  1  0
 16 17  2  0
 17 18  1  0
 18 19  2  0
 19 20  1  0
 20 21  2  0
 21 22  1  0
 22 23  1  0
 23 24  2  0
 24 25  1  0
 25 26  2  0
 26 27  1  0
 27 28  1  0
 27 29  1  0
 27 30  1  0
 26 31  1  0
 31 32  2  0
 32 33  1  0
 22 34  2  0
 17 35  1  0
 35 36  2  0
 13  7  1  0
 36 14  1  0
 34 18  1  0
 33 24  1  0
  3 37  1  0
  8 38  1  0
  9 39  1  0
 10 40  1  0
 13 41  1  0
 15 42  1  0
 16 43  1  0
 19 44  1  0
 20 45  1  0
 21 46  1  0
 31 47  1  0
 32 48  1  0
 33 49  1  0
 34 50  1  0
 35 51  1  0
 36 52  1  0
M  END
>  <smiles>  (59) 
O=C(NS(=O)(=O)c1cccc(Cl)c1)c1ccc(-c2cccc(N=c3nc(C(F)(F)F)cc[nH]3)c2)cc1

>  <score_type>  (59) 
oracle

>  <origin>  (59) 
adg

>  <m_score__min__energy>  (59) 
-10.130000000000001

>  <m_primary>  (59) 
energy

$$$$
59:0
     RDKit          3D

 32 34  0  0  0  0  0  0  0  0999 V2000
   54.3260   24.2190   46.4290 O   0  0  0  0  0  0  0  0  0  0  0  0
   55.5180   24.6190   46.4370 C   0  0  0  0  0  0  0  0  0  0  0  0
   55.8890   25.8370   45.9980 N   0  0  0  0  0  0  0  0  0  0  0  0
   57.2340   26.0280   46.1120 C   0  0  0  0  0  0  0  0  0  0  0  0
   57.8740   27.3000   45.6860 C   0  0  0  0  0  0  0  0  0  0  0  0
   59.2520   27.4960   45.8980 C   0  0  0  0  0  0  0  0  0  0  0  0
   59.8720   28.6820   45.4980 C   0  0  0  0  0  0  0  0  0  0  0  0
   59.1320   29.6850   44.8740 C   0  0  0  0  0  0  0  0  0  0  0  0
   57.7630   29.5070   44.6430 C   0  0  0  0  0  0  0  0  0  0  0  0
   56.8330   30.7640   43.8320 S   0  0  0  0  0  0  0  0  0  0  0  0
   55.4970   30.9420   44.4960 O   0  0  0  0  0  0  0  0  0  0  0  0
   56.6210   30.3620   42.4000 O   0  0  0  0  0  0  0  0  0  0  0  0
   57.6910   32.2700   43.8730 N   0  0  0  0  0  0  0  0  0  0  0  0
   58.1220   32.9420   45.0660 C   0  0  0  0  0  0  0  0  0  0  0  0
   58.8970   34.1030   44.9370 C   0  0  0  0  0  0  0  0  0  0  0  0
   59.3480   34.7830   46.0720 C   0  0  0  0  0  0  0  0  0  0  0  0
   59.0260   34.3080   47.3470 C   0  0  0  0  0  0  0  0  0  0  0  0
   59.4640   34.9660   48.4480 F   0  0  0  0  0  0  0  0  0  0  0  0
   58.2510   33.1520   47.4850 C   0  0  0  0  0  0  0  0  0  0  0  0
   57.7980   32.4700   46.3510 C   0  0  0  0  0  0  0  0  0  0  0  0
   57.1370   28.3210   45.0530 C   0  0  0  0  0  0  0  0  0  0  0  0
   57.9260   24.9340   46.6490 C   0  0  0  0  0  0  0  0  0  0  0  0
   56.8160   23.7120   46.9830 S   0  0  0  0  0  0  0  0  0  0  0  0
   59.8460   26.7076   46.3833 H   0  0  0  0  0  0  0  0  0  0  0  0
   60.9480   28.8250   45.6760 H   0  0  0  0  0  0  0  0  0  0  0  0
   59.6247   30.6179   44.5626 H   0  0  0  0  0  0  0  0  0  0  0  0
   59.1519   34.4814   43.9361 H   0  0  0  0  0  0  0  0  0  0  0  0
   59.9567   35.6926   45.9620 H   0  0  0  0  0  0  0  0  0  0  0  0
   57.9971   32.7782   48.4879 H   0  0  0  0  0  0  0  0  0  0  0  0
   57.1869   31.5624   46.4642 H   0  0  0  0  0  0  0  0  0  0  0  0
   56.0593   28.1862   44.8787 H   0  0  0  0  0  0  0  0  0  0  0  0
   59.0109   24.8821   46.8230 H   0  0  0  0  0  0  0  0  0  0  0  0
  1  2  2  0
  2  3  1  0
  3  4  1  0
  4  5  1  0
  5  6  2  0
  6  7  1  0
  7  8  2  0
  8  9  1  0
  9 10  1  0
 10 11  2  0
 10 12  2  0
 10 13  1  0
 13 14  1  0
 14 15  2  0
 15 16  1  0
 16 17  2  0
 17 18  1  0
 17 19  1  0
 19 20  2  0
  9 21  2  0
  4 22  2  0
 22 23  1  0
 23  2  1  0
 21  5  1  0
 20 14  1  0
  6 24  1  0
  7 25  1  0
  8 26  1  0
 15 27  1  0
 16 28  1  0
 19 29  1  0
 20 30  1  0
 21 31  1  0
 22 32  1  0
M  CHG  2   3  -1  13  -1
M  END
>  <UniqueID>  (60) 
55

>  <SMILES>  (60) 
O=c1[n-]c(-c2cccc(S(=O)(=O)[N-]c3ccc(F)cc3)c2)cs1

>  <Energy>  (60) 
70.46143249736981

>  <Genealogy>  (60) 
O=c1[n-]c(-c2cccc(S(=O)(=O)[N-]c3ccc(F)cc3)c2)cs1 (protonated)
O=c1[n-]c(-c2cccc(S(=O)(=O)[N-]c3ccc(F)cc3)c2)cs1 (3D coordinates assigned)
O=c1[n-]c(-c2cccc(S(=O)(=O)[N-]c3ccc(F)cc3)c2)cs1 (optimized conformer: 70.46143249736981 kcal/mol)

>  <smiles>  (60) 
O=c1[nH]c(-c2cccc(S(=O)(=O)Nc3ccc(F)cc3)c2)cs1

>  <score_type>  (60) 
oracle

>  <origin>  (60) 
adg

>  <m_score__min__energy>  (60) 
-11.220000000000001

>  <m_primary>  (60) 
energy

$$$$
60:0
     RDKit          3D

 52 55  0  0  0  0  0  0  0  0999 V2000
   56.3810   30.3260   43.3740 C   0  0  0  0  0  0  0  0  0  0  0  0
   56.2920   31.2090   44.4880 O   0  0  0  0  0  0  0  0  0  0  0  0
   57.3920   31.6680   45.2300 C   0  0  0  0  0  0  0  0  0  0  0  0
   57.7980   33.0140   45.2080 C   0  0  0  0  0  0  0  0  0  0  0  0
   58.8960   33.4350   45.9600 C   0  0  0  0  0  0  0  0  0  0  0  0
   59.6050   32.5250   46.7600 C   0  0  0  0  0  0  0  0  0  0  0  0
   60.7910   32.9260   47.5600 C   0  0  0  0  0  0  0  0  0  0  0  0
   62.0470   32.5510   47.2140 N   0  0  0  0  0  0  0  0  0  0  0  0
   62.8130   32.9710   48.2390 C   0  0  0  0  0  0  0  0  0  0  0  0
   64.1890   32.7820   48.3480 C   0  0  0  0  0  0  0  0  0  0  0  0
   64.8180   33.2260   49.5210 C   0  0  0  0  0  0  0  0  0  0  0  0
   64.0640   33.8210   50.5490 C   0  0  0  0  0  0  0  0  0  0  0  0
   62.6800   33.9810   50.3870 C   0  0  0  0  0  0  0  0  0  0  0  0
   62.1140   33.5690   49.2210 N   0  0  0  0  0  0  0  0  0  0  0  0
   60.8330   33.5730   48.8030 C   0  0  0  0  0  0  0  0  0  0  0  0
   59.7160   34.0670   49.5740 N   0  0  0  0  0  0  0  0  0  0  0  0
   59.2750   33.1430   50.6530 C   0  0  0  0  0  0  0  0  0  0  0  0
   58.1820   32.1930   50.1240 C   0  0  0  0  0  0  0  0  0  0  0  0
   57.8270   31.0960   51.1490 C   0  0  0  0  0  0  0  0  0  0  0  0
   57.9900   31.5480   52.6130 C   0  0  0  0  0  0  0  0  0  0  0  0
   57.7700   33.0560   52.7670 C   0  0  0  0  0  0  0  0  0  0  0  0
   58.7980   33.8650   51.9520 C   0  0  0  0  0  0  0  0  0  0  0  0
   59.2090   31.1770   46.7670 C   0  0  0  0  0  0  0  0  0  0  0  0
   58.1010   30.7440   46.0110 C   0  0  0  0  0  0  0  0  0  0  0  0
   57.6770   29.4060   46.0090 O   0  0  0  0  0  0  0  0  0  0  0  0
   58.3820   28.3340   45.3910 C   0  0  0  0  0  0  0  0  0  0  0  0
   56.4853   29.2916   43.7334 H   0  0  0  0  0  0  0  0  0  0  0  0
   55.4696   30.4121   42.7641 H   0  0  0  0  0  0  0  0  0  0  0  0
   57.2569   30.5923   42.7641 H   0  0  0  0  0  0  0  0  0  0  0  0
   57.2462   33.7407   44.5936 H   0  0  0  0  0  0  0  0  0  0  0  0
   59.2085   34.4891   45.9255 H   0  0  0  0  0  0  0  0  0  0  0  0
   64.7627   32.3011   47.5420 H   0  0  0  0  0  0  0  0  0  0  0  0
   65.9055   33.1084   49.6374 H   0  0  0  0  0  0  0  0  0  0  0  0
   64.5563   34.1583   51.4731 H   0  0  0  0  0  0  0  0  0  0  0  0
   62.0674   34.4287   51.1834 H   0  0  0  0  0  0  0  0  0  0  0  0
   59.9420   35.0060   49.9670 H   0  0  0  0  0  0  0  0  0  0  0  0
   58.9170   34.2140   48.9140 H   0  0  0  0  0  0  0  0  0  0  0  0
   60.1636   32.5643   50.9454 H   0  0  0  0  0  0  0  0  0  0  0  0
   57.2778   32.7793   49.9032 H   0  0  0  0  0  0  0  0  0  0  0  0
   58.5671   31.7013   49.2185 H   0  0  0  0  0  0  0  0  0  0  0  0
   56.7801   30.7974   50.9911 H   0  0  0  0  0  0  0  0  0  0  0  0
   58.5269   30.2629   50.9874 H   0  0  0  0  0  0  0  0  0  0  0  0
   57.2555   31.0151   53.2347 H   0  0  0  0  0  0  0  0  0  0  0  0
   59.0171   31.3165   52.9315 H   0  0  0  0  0  0  0  0  0  0  0  0
   56.7584   33.3070   52.4154 H   0  0  0  0  0  0  0  0  0  0  0  0
   57.8920   33.3150   53.8291 H   0  0  0  0  0  0  0  0  0  0  0  0
   58.3396   34.8238   51.6683 H   0  0  0  0  0  0  0  0  0  0  0  0
   59.6837   33.9968   52.5909 H   0  0  0  0  0  0  0  0  0  0  0  0
   59.7714   30.4495   47.3708 H   0  0  0  0  0  0  0  0  0  0  0  0
   58.8108   27.6820   46.1662 H   0  0  0  0  0  0  0  0  0  0  0  0
   57.6895   27.7525   44.7647 H   0  0  0  0  0  0  0  0  0  0  0  0
   59.1903   28.7395   44.7647 H   0  0  0  0  0  0  0  0  0  0  0  0
  1  2  1  0
  2  3  1  0
  3  4  2  0
  4  5  1  0
  5  6  2  0
  6  7  1  0
  7  8  1  0
  8  9  2  0
  9 10  1  0
 10 11  2  0
 11 12  1  0
 12 13  2  0
 13 14  1  0
 14 15  1  0
 15 16  1  0
 16 17  1  0
 17 18  1  0
 18 19  1  0
 19 20  1  0
 20 21  1  0
 21 22  1  0
  6 23  1  0
 23 24  2  0
 24 25  1  0
 25 26  1  0
 24  3  1  0
 15  7  2  0
 22 17  1  0
 14  9  1  0
  1 27  1  0
  1 28  1  0
  1 29  1  0
  4 30  1  0
  5 31  1  0
 10 32  1  0
 11 33  1  0
 12 34  1  0
 13 35  1  0
 16 36  1  0
 16 37  1  0
 17 38  1  0
 18 39  1  0
 18 40  1  0
 19 41  1  0
 19 42  1  0
 20 43  1  0
 20 44  1  0
 21 45  1  0
 21 46  1  0
 22 47  1  0
 22 48  1  0
 23 49  1  0
 26 50  1  0
 26 51  1  0
 26 52  1  0
M  CHG  1  16   1
M  END
>  <UniqueID>  (61) 
56

>  <SMILES>  (61) 
COc1ccc(-c2nc3ccccn3c2[NH2+]C2CCCCC2)cc1OC

>  <Energy>  (61) 
102.2367589379758

>  <Genealogy>  (61) 
COc1ccc(-c2nc3ccccn3c2[NH2+]C2CCCCC2)cc1OC (protonated)
COc1ccc(-c2nc3ccccn3c2[NH2+]C2CCCCC2)cc1OC (3D coordinates assigned)
COc1ccc(-c2nc3ccccn3c2[NH2+]C2CCCCC2)cc1OC (nonaromatic ring conformer: 102.2367589379758 kcal/mol)

>  <smiles>  (61) 
COc1ccc(-c2nc3ccccn3c2NC2CCCCC2)cc1OC

>  <score_type>  (61) 
oracle

>  <origin>  (61) 
adg

>  <m_score__min__energy>  (61) 
-6.3300000000000001

>  <m_primary>  (61) 
energy

$$$$
61:0
     RDKit          3D

 46 48  0  0  0  0  0  0  0  0999 V2000
   60.0490   28.8900   44.5730 C   0  0  0  0  0  0  0  0  0  0  0  0
   60.0700   27.6970   45.9470 S   0  0  0  0  0  0  0  0  0  0  0  0
   60.2140   28.9680   47.2050 C   0  0  0  0  0  0  0  0  0  0  0  0
   61.0640   30.0610   47.0040 C   0  0  0  0  0  0  0  0  0  0  0  0
   61.1770   31.0520   47.9840 C   0  0  0  0  0  0  0  0  0  0  0  0
   60.4420   30.9540   49.1770 C   0  0  0  0  0  0  0  0  0  0  0  0
   60.5530   32.0380   50.2250 C   0  0  0  0  0  0  0  0  0  0  0  0
   59.3690   32.9330   50.2240 N   0  0  1  0  0  0  0  0  0  0  0  0
   58.9970   33.3040   51.6050 C   0  0  0  0  0  0  0  0  0  0  0  0
   59.6340   34.1640   49.4400 C   0  0  0  0  0  0  0  0  0  0  0  0
   59.3290   33.9760   47.9760 C   0  0  0  0  0  0  0  0  0  0  0  0
   59.5990   34.9950   47.0530 C   0  0  0  0  0  0  0  0  0  0  0  0
   59.2850   34.8100   45.7030 C   0  0  0  0  0  0  0  0  0  0  0  0
   59.5310   35.7330   44.8800 O   0  0  0  0  0  0  0  0  0  0  0  0
   58.7000   33.6010   45.2820 C   0  0  0  0  0  0  0  0  0  0  0  0
   58.3620   33.3640   43.9370 C   0  0  0  0  0  0  0  0  0  0  0  0
   57.7870   32.1420   43.5550 C   0  0  0  0  0  0  0  0  0  0  0  0
   57.3930   31.9090   42.1250 C   0  0  0  0  0  0  0  0  0  0  0  0
   57.5220   31.1650   44.5260 C   0  0  0  0  0  0  0  0  0  0  0  0
   57.8540   31.3920   45.8640 C   0  0  0  0  0  0  0  0  0  0  0  0
   58.4430   32.6010   46.2480 C   0  0  0  0  0  0  0  0  0  0  0  0
   58.7600   32.8150   47.5510 N   0  0  0  0  0  0  0  0  0  0  0  0
   59.5930   29.8530   49.3740 C   0  0  0  0  0  0  0  0  0  0  0  0
   59.4810   28.8640   48.3930 C   0  0  0  0  0  0  0  0  0  0  0  0
   60.0310   29.9133   44.9762 H   0  0  0  0  0  0  0  0  0  0  0  0
   60.9497   28.7547   43.9562 H   0  0  0  0  0  0  0  0  0  0  0  0
   59.1537   28.7231   43.9562 H   0  0  0  0  0  0  0  0  0  0  0  0
   61.6446   30.1409   46.0731 H   0  0  0  0  0  0  0  0  0  0  0  0
   61.8438   31.9114   47.8201 H   0  0  0  0  0  0  0  0  0  0  0  0
   60.6420   31.5673   51.2152 H   0  0  0  0  0  0  0  0  0  0  0  0
   61.4399   32.6461   49.9934 H   0  0  0  0  0  0  0  0  0  0  0  0
   58.5500   32.4340   49.8010 H   0  0  0  0  0  0  0  0  0  0  0  0
   59.5910   32.7116   52.3165 H   0  0  0  0  0  0  0  0  0  0  0  0
   59.1958   34.3742   51.7633 H   0  0  0  0  0  0  0  0  0  0  0  0
   57.9273   33.1024   51.7633 H   0  0  0  0  0  0  0  0  0  0  0  0
   59.0058   34.9773   49.8323 H   0  0  0  0  0  0  0  0  0  0  0  0
   60.7028   34.4056   49.5367 H   0  0  0  0  0  0  0  0  0  0  0  0
   60.0564   35.9372   47.3892 H   0  0  0  0  0  0  0  0  0  0  0  0
   58.5494   34.1406   43.1808 H   0  0  0  0  0  0  0  0  0  0  0  0
   56.4466   31.3493   42.0920 H   0  0  0  0  0  0  0  0  0  0  0  0
   57.2647   32.8766   41.6177 H   0  0  0  0  0  0  0  0  0  0  0  0
   58.1791   31.3304   41.6177 H   0  0  0  0  0  0  0  0  0  0  0  0
   57.0505   30.2155   44.2326 H   0  0  0  0  0  0  0  0  0  0  0  0
   57.6514   30.6171   46.6180 H   0  0  0  0  0  0  0  0  0  0  0  0
   59.0133   29.7686   50.3050 H   0  0  0  0  0  0  0  0  0  0  0  0
   58.8160   28.0028   48.5546 H   0  0  0  0  0  0  0  0  0  0  0  0
  1  2  1  0
  2  3  1  0
  3  4  2  0
  4  5  1  0
  5  6  2  0
  6  7  1  0
  7  8  1  0
  8  9  1  0
  8 10  1  0
 10 11  1  0
 11 12  2  0
 12 13  1  0
 13 14  2  0
 13 15  1  0
 15 16  2  0
 16 17  1  0
 17 18  1  0
 17 19  2  0
 19 20  1  0
 20 21  2  0
 21 22  1  0
  6 23  1  0
 23 24  2  0
 24  3  1  0
 22 11  1  0
 21 15  1  0
  1 25  1  0
  1 26  1  0
  1 27  1  0
  4 28  1  0
  5 29  1  0
  7 30  1  0
  7 31  1  0
  8 32  1  6
  9 33  1  0
  9 34  1  0
  9 35  1  0
 10 36  1  0
 10 37  1  0
 12 38  1  0
 16 39  1  0
 18 40  1  0
 18 41  1  0
 18 42  1  0
 19 43  1  0
 20 44  1  0
 23 45  1  0
 24 46  1  0
M  CHG  2   8   1  22  -1
M  END
>  <UniqueID>  (62) 
57

>  <SMILES>  (62) 
CSc1ccc(C[N@@H+](C)Cc2cc(=O)c3cc(C)ccc3[n-]2)cc1

>  <Energy>  (62) 
48.646960228407494

>  <Genealogy>  (62) 
CSc1ccc(C[NH+](C)Cc2cc(=O)c3cc(C)ccc3[n-]2)cc1 (protonated)
CSc1ccc(C[N@@H+](C)Cc2cc(=O)c3cc(C)ccc3[n-]2)cc1 (chirality)
CSc1ccc(C[N@@H+](C)Cc2cc(=O)c3cc(C)ccc3[n-]2)cc1 (3D coordinates assigned)
CSc1ccc(C[N@@H+](C)Cc2cc(=O)c3cc(C)ccc3[n-]2)cc1 (optimized conformer: 48.646960228407494 kcal/mol)

>  <smiles>  (62) 
CSc1ccc(CN(C)Cc2cc(=O)c3cc(C)ccc3[nH]2)cc1

>  <score_type>  (62) 
oracle

>  <origin>  (62) 
adg

>  <m_score__min__energy>  (62) 
-7.5700000000000003

>  <m_primary>  (62) 
energy

$$$$
62:0
     RDKit          3D

 34 35  0  0  0  0  0  0  0  0999 V2000
   59.6060   33.9960   48.5550 C   0  0  0  0  0  0  0  0  0  0  0  0
   59.0950   33.9380   47.1450 C   0  0  0  0  0  0  0  0  0  0  0  0
   59.4390   34.9400   46.2270 C   0  0  0  0  0  0  0  0  0  0  0  0
   59.0000   34.8630   44.9040 C   0  0  0  0  0  0  0  0  0  0  0  0
   58.2210   33.7810   44.4850 C   0  0  0  0  0  0  0  0  0  0  0  0
   57.8660   32.7690   45.3890 C   0  0  0  0  0  0  0  0  0  0  0  0
   57.0770   31.6600   44.9310 N   0  0  0  0  0  0  0  0  0  0  0  0
   57.5340   30.6990   43.9690 C   0  0  0  0  0  0  0  0  0  0  0  0
   56.5370   30.2650   42.7470 S   0  0  0  0  0  0  0  0  0  0  0  0
   58.7750   29.9950   44.1440 N   0  0  0  0  0  0  0  0  0  0  0  0
   59.4650   29.8760   45.4300 C   0  0  0  0  0  0  0  0  0  0  0  0
   59.1260   28.5720   46.1020 C   0  0  0  0  0  0  0  0  0  0  0  0
   57.9950   27.8490   45.6960 C   0  0  0  0  0  0  0  0  0  0  0  0
   57.6790   26.6510   46.3400 C   0  0  0  0  0  0  0  0  0  0  0  0
   58.4900   26.1850   47.3750 C   0  0  0  0  0  0  0  0  0  0  0  0
   59.6110   26.9260   47.7520 C   0  0  0  0  0  0  0  0  0  0  0  0
   60.4060   26.4830   48.7570 F   0  0  0  0  0  0  0  0  0  0  0  0
   59.9080   28.0920   47.1140 N   0  0  0  0  0  0  0  0  0  0  0  0
   58.3280   32.8420   46.7180 C   0  0  0  0  0  0  0  0  0  0  0  0
   58.7627   33.9003   49.2548 H   0  0  0  0  0  0  0  0  0  0  0  0
   60.3162   33.1727   48.7218 H   0  0  0  0  0  0  0  0  0  0  0  0
   60.1136   34.9575   48.7218 H   0  0  0  0  0  0  0  0  0  0  0  0
   60.0573   35.7904   46.5504 H   0  0  0  0  0  0  0  0  0  0  0  0
   59.2678   35.6556   44.1899 H   0  0  0  0  0  0  0  0  0  0  0  0
   57.8841   33.7226   43.4395 H   0  0  0  0  0  0  0  0  0  0  0  0
   56.0810   31.5960   45.2460 H   0  0  0  0  0  0  0  0  0  0  0  0
   59.1360   29.4210   43.3480 H   0  0  0  0  0  0  0  0  0  0  0  0
   60.5511   29.9230   45.2619 H   0  0  0  0  0  0  0  0  0  0  0  0
   59.1413   30.7017   46.0807 H   0  0  0  0  0  0  0  0  0  0  0  0
   57.3623   28.2224   44.8773 H   0  0  0  0  0  0  0  0  0  0  0  0
   56.7931   26.0763   46.0321 H   0  0  0  0  0  0  0  0  0  0  0  0
   58.2484   25.2429   47.8889 H   0  0  0  0  0  0  0  0  0  0  0  0
   60.7560   28.6230   47.4160 H   0  0  0  0  0  0  0  0  0  0  0  0
   58.0863   32.0353   47.4257 H   0  0  0  0  0  0  0  0  0  0  0  0
  1  2  1  0
  2  3  2  0
  3  4  1  0
  4  5  2  0
  5  6  1  0
  6  7  1  0
  7  8  1  0
  8  9  2  0
  8 10  1  0
 10 11  1  0
 11 12  1  0
 12 13  2  0
 13 14  1  0
 14 15  2  0
 15 16  1  0
 16 17  1  0
 16 18  2  0
  6 19  2  0
 19  2  1  0
 18 12  1  0
  1 20  1  0
  1 21  1  0
  1 22  1  0
  3 23  1  0
  4 24  1  0
  5 25  1  0
  7 26  1  0
 10 27  1  0
 11 28  1  0
 11 29  1  0
 13 30  1  0
 14 31  1  0
 15 32  1  0
 18 33  1  0
 19 34  1  0
M  CHG  1  18   1
M  END
>  <UniqueID>  (63) 
58

>  <SMILES>  (63) 
Cc1cccc(NC(=S)NCc2cccc(F)[nH+]2)c1

>  <Energy>  (63) 
35.45318565498069

>  <Genealogy>  (63) 
Cc1cccc(NC(=S)NCc2cccc(F)[nH+]2)c1 (protonated)
Cc1cccc(NC(=S)NCc2cccc(F)[nH+]2)c1 (3D coordinates assigned)
Cc1cccc(NC(=S)NCc2cccc(F)[nH+]2)c1 (optimized conformer: 35.45318565498069 kcal/mol)

>  <smiles>  (63) 
Cc1cccc(NC(=S)NCc2cccc(F)n2)c1

>  <score_type>  (63) 
oracle

>  <origin>  (63) 
adg

>  <m_score__min__energy>  (63) 
-5.7699999999999996

>  <m_primary>  (63) 
energy

$$$$
63:0
     RDKit          3D

 41 43  0  0  0  0  0  0  0  0999 V2000
   58.5350   32.4420   49.3310 C   0  0  0  0  0  0  0  0  0  0  0  0
   58.8230   31.7570   47.9980 C   0  0  0  0  0  0  0  0  0  0  0  0
   58.9030   32.7690   46.8800 C   0  0  0  0  0  0  0  0  0  0  0  0
   59.8490   33.8050   46.9550 C   0  0  0  0  0  0  0  0  0  0  0  0
   59.9240   34.7710   45.9490 C   0  0  0  0  0  0  0  0  0  0  0  0
   59.0500   34.7180   44.8630 C   0  0  0  0  0  0  0  0  0  0  0  0
   58.0940   33.7030   44.7810 C   0  0  0  0  0  0  0  0  0  0  0  0
   57.9970   32.7330   45.7960 C   0  0  0  0  0  0  0  0  0  0  0  0
   57.0290   31.6760   45.7150 N   0  0  0  0  0  0  0  0  0  0  0  0
   57.0370   30.5930   44.7770 C   0  0  0  0  0  0  0  0  0  0  0  0
   55.9590   30.1190   44.3320 O   0  0  0  0  0  0  0  0  0  0  0  0
   58.3350   29.9580   44.4050 C   0  0  0  0  0  0  0  0  0  0  0  0
   59.2200   29.4640   45.9180 S   0  0  0  0  0  0  0  0  0  0  0  0
   58.4610   27.8350   45.9670 C   0  0  0  0  0  0  0  0  0  0  0  0
   57.0950   27.7720   45.9610 N   0  0  0  0  0  0  0  0  0  0  0  0
   56.4980   26.5620   46.0020 C   0  0  0  0  0  0  0  0  0  0  0  0
   55.1770   26.3200   45.9990 N   0  0  0  0  0  0  0  0  0  0  0  0
   55.0290   24.9980   46.0490 N   0  0  0  0  0  0  0  0  0  0  0  0
   56.2550   24.4190   46.0900 C   0  0  0  0  0  0  0  0  0  0  0  0
   56.4860   22.9440   46.1170 C   0  0  0  0  0  0  0  0  0  0  0  0
   57.2070   25.4120   46.0500 C   0  0  0  0  0  0  0  0  0  0  0  0
   58.5960   25.4470   46.0530 C   0  0  0  0  0  0  0  0  0  0  0  0
   59.2600   24.3760   46.0920 O   0  0  0  0  0  0  0  0  0  0  0  0
   59.2200   26.6740   46.0130 N   0  0  0  0  0  0  0  0  0  0  0  0
   60.6300   26.7340   46.0150 N   0  0  0  0  0  0  0  0  0  0  0  0
   58.8169   31.7715   50.1562 H   0  0  0  0  0  0  0  0  0  0  0  0
   59.1182   33.3722   49.3988 H   0  0  0  0  0  0  0  0  0  0  0  0
   57.4623   32.6760   49.3988 H   0  0  0  0  0  0  0  0  0  0  0  0
   59.7809   31.2207   48.0679 H   0  0  0  0  0  0  0  0  0  0  0  0
   58.0053   31.0545   47.7792 H   0  0  0  0  0  0  0  0  0  0  0  0
   60.5359   33.8558   47.8126 H   0  0  0  0  0  0  0  0  0  0  0  0
   60.6728   35.5742   46.0131 H   0  0  0  0  0  0  0  0  0  0  0  0
   59.1139   35.4772   44.0696 H   0  0  0  0  0  0  0  0  0  0  0  0
   57.4130   33.6616   43.9181 H   0  0  0  0  0  0  0  0  0  0  0  0
   58.1449   29.0701   43.7842 H   0  0  0  0  0  0  0  0  0  0  0  0
   58.9467   30.6754   43.8383 H   0  0  0  0  0  0  0  0  0  0  0  0
   56.5398   22.6003   47.1606 H   0  0  0  0  0  0  0  0  0  0  0  0
   55.6568   22.4336   45.6052 H   0  0  0  0  0  0  0  0  0  0  0  0
   57.4315   22.7115   45.6052 H   0  0  0  0  0  0  0  0  0  0  0  0
   61.2110   25.8660   46.0590 H   0  0  0  0  0  0  0  0  0  0  0  0
   61.1480   27.6370   45.9650 H   0  0  0  0  0  0  0  0  0  0  0  0
  1  2  1  0
  2  3  1  0
  3  4  2  0
  4  5  1  0
  5  6  2  0
  6  7  1  0
  7  8  2  0
  8  9  1  0
  9 10  1  0
 10 11  2  0
 10 12  1  0
 12 13  1  0
 13 14  1  0
 14 15  2  0
 15 16  1  0
 16 17  1  0
 17 18  1  0
 18 19  2  0
 19 20  1  0
 19 21  1  0
 21 22  1  0
 22 23  2  0
 22 24  1  0
 24 25  1  0
  8  3  1  0
 24 14  1  0
 21 16  2  0
  1 26  1  0
  1 27  1  0
  1 28  1  0
  2 29  1  0
  2 30  1  0
  4 31  1  0
  5 32  1  0
  6 33  1  0
  7 34  1  0
 12 35  1  0
 12 36  1  0
 20 37  1  0
 20 38  1  0
 20 39  1  0
 25 40  1  0
 25 41  1  0
M  CHG  2   9  -1  17  -1
M  END
>  <UniqueID>  (64) 
59

>  <SMILES>  (64) 
CCc1ccccc1[N-]C(=O)CSc1nc2[n-]nc(C)c2c(=O)n1N

>  <Energy>  (64) 
81.76416928424626

>  <Genealogy>  (64) 
CCc1ccccc1[N-]C(=O)CSc1nc2[n-]nc(C)c2c(=O)n1N (protonated)
CCc1ccccc1[N-]C(=O)CSc1nc2[n-]nc(C)c2c(=O)n1N (3D coordinates assigned)
CCc1ccccc1[N-]C(=O)CSc1nc2[n-]nc(C)c2c(=O)n1N (optimized conformer: 81.76416928424626 kcal/mol)

>  <smiles>  (64) 
CCc1ccccc1NC(=O)CSc1nc2[nH]nc(C)c2c(=O)n1N

>  <score_type>  (64) 
oracle

>  <origin>  (64) 
adg

>  <m_score__min__energy>  (64) 
-11.109999999999999

>  <m_primary>  (64) 
energy

$$$$
64:0
     RDKit          3D

 27 27  0  0  0  0  0  0  0  0999 V2000
   59.6000   34.9380   46.4580 C   0  0  0  0  0  0  0  0  0  0  0  0
   59.1750   34.6380   45.0210 C   0  0  0  0  0  0  0  0  0  0  0  0
   57.7610   34.0400   44.9290 C   0  0  0  0  0  0  0  0  0  0  0  0
   57.4280   33.0860   46.0790 C   0  0  0  0  0  0  0  0  0  0  0  0
   57.0640   31.8070   45.5650 O   0  0  0  0  0  0  0  0  0  0  0  0
   57.9550   30.7390   45.3640 C   0  0  0  0  0  0  0  0  0  0  0  0
   59.2700   30.7750   45.8710 C   0  0  0  0  0  0  0  0  0  0  0  0
   60.1410   29.7050   45.6600 C   0  0  0  0  0  0  0  0  0  0  0  0
   59.7160   28.5870   44.9430 C   0  0  0  0  0  0  0  0  0  0  0  0
   58.4170   28.5350   44.4350 C   0  0  0  0  0  0  0  0  0  0  0  0
   57.5250   29.6020   44.6360 C   0  0  0  0  0  0  0  0  0  0  0  0
   56.1620   29.4890   44.0720 C   0  0  0  0  0  0  0  0  0  0  0  0
   55.1500   29.3380   44.8060 O   0  0  0  0  0  0  0  0  0  0  0  0
   58.9053   34.4476   47.1558 H   0  0  0  0  0  0  0  0  0  0  0  0
   60.6182   34.5574   46.6263 H   0  0  0  0  0  0  0  0  0  0  0  0
   59.5824   36.0249   46.6263 H   0  0  0  0  0  0  0  0  0  0  0  0
   59.1983   35.5748   44.4450 H   0  0  0  0  0  0  0  0  0  0  0  0
   59.8762   33.8926   44.6175 H   0  0  0  0  0  0  0  0  0  0  0  0
   57.0326   34.8643   44.9378 H   0  0  0  0  0  0  0  0  0  0  0  0
   57.7159   33.4550   43.9986 H   0  0  0  0  0  0  0  0  0  0  0  0
   58.3084   32.9794   46.7298 H   0  0  0  0  0  0  0  0  0  0  0  0
   56.5848   33.4961   46.6541 H   0  0  0  0  0  0  0  0  0  0  0  0
   59.6124   31.6536   46.4375 H   0  0  0  0  0  0  0  0  0  0  0  0
   61.1649   29.7437   46.0601 H   0  0  0  0  0  0  0  0  0  0  0  0
   60.4049   27.7456   44.7777 H   0  0  0  0  0  0  0  0  0  0  0  0
   58.0881   27.6495   43.8714 H   0  0  0  0  0  0  0  0  0  0  0  0
   56.0289   29.5383   42.9812 H   0  0  0  0  0  0  0  0  0  0  0  0
  1  2  1  0
  2  3  1  0
  3  4  1  0
  4  5  1  0
  5  6  1  0
  6  7  2  0
  7  8  1  0
  8  9  2  0
  9 10  1  0
 10 11  2  0
 11 12  1  0
 12 13  2  0
 11  6  1  0
  1 14  1  0
  1 15  1  0
  1 16  1  0
  2 17  1  0
  2 18  1  0
  3 19  1  0
  3 20  1  0
  4 21  1  0
  4 22  1  0
  7 23  1  0
  8 24  1  0
  9 25  1  0
 10 26  1  0
 12 27  1  0
M  END
>  <UniqueID>  (65) 
60

>  <SMILES>  (65) 
CCCCOc1ccccc1C=O

>  <Energy>  (65) 
19.921285317088074

>  <Genealogy>  (65) 
CCCCOc1ccccc1C=O (3D coordinates assigned)
CCCCOc1ccccc1C=O (optimized conformer: 19.921285317088074 kcal/mol)

>  <smiles>  (65) 
CCCCOc1ccccc1C=O

>  <score_type>  (65) 
oracle

>  <origin>  (65) 
adg

>  <m_score__min__energy>  (65) 
-5.6500000000000004

>  <m_primary>  (65) 
energy

$$$$
65:0
     RDKit          3D

 43 47  0  0  1  0  0  0  0  0999 V2000
   55.4230   26.6970   45.9840 O   0  0  0  0  0  0  0  0  0  0  0  0
   56.7730   26.9850   45.8490 C   0  0  0  0  0  0  0  0  0  0  0  0
   57.4350   27.0190   44.6520 C   0  0  0  0  0  0  0  0  0  0  0  0
   58.7800   27.3140   44.5970 C   0  0  0  0  0  0  0  0  0  0  0  0
   59.4720   27.5770   45.7560 C   0  0  0  0  0  0  0  0  0  0  0  0
   58.8240   27.5500   46.9950 C   0  0  0  0  0  0  0  0  0  0  0  0
   59.5180   27.8200   48.2090 N   0  0  0  0  0  0  0  0  0  0  0  0
   59.5990   29.0160   48.7030 C   0  0  0  0  0  0  0  0  0  0  0  0
   58.8210   30.0070   48.1540 C   0  0  0  0  0  0  0  0  0  0  0  0
   58.9060   31.2960   48.6850 C   0  0  0  0  0  0  0  0  0  0  0  0
   58.1180   32.3490   48.1460 N   0  0  0  0  0  0  0  0  0  0  0  0
   58.3740   32.9460   46.8810 C   0  0  0  0  0  0  0  0  0  0  0  0
   59.0130   34.1800   46.9030 C   0  0  0  0  0  0  0  0  0  0  0  0
   59.3110   34.8510   45.7370 C   0  0  0  0  0  0  0  0  0  0  0  0
   58.9650   34.2810   44.5330 C   0  0  0  0  0  0  0  0  0  0  0  0
   58.3240   33.0410   44.5100 C   0  0  0  0  0  0  0  0  0  0  0  0
   57.9640   32.4440   43.3010 C   0  0  0  0  0  0  0  0  0  0  0  0
   57.3310   31.2180   43.3060 C   0  0  0  0  0  0  0  0  0  0  0  0
   57.0500   30.5800   44.5130 C   0  0  0  0  0  0  0  0  0  0  0  0
   57.4020   31.1640   45.6850 N   0  0  0  0  0  0  0  0  0  0  0  0
   58.0240   32.3650   45.6810 C   0  0  0  0  0  0  0  0  0  0  0  0
   59.7450   31.4730   49.6960 N   0  0  0  0  0  0  0  0  0  0  0  0
   60.5180   30.4960   50.2430 C   0  0  0  0  0  0  0  0  0  0  0  0
   61.4200   30.4910   51.2650 N   0  0  0  0  0  0  0  0  0  0  0  0
   61.8690   29.2140   51.3430 C   0  0  0  0  0  0  0  0  0  0  0  0
   61.2650   28.4550   50.4040 N   0  0  0  0  0  0  0  0  0  0  0  0
   60.4370   29.2380   49.7290 N   0  0  0  0  0  0  0  0  0  0  0  0
   57.4590   27.2500   47.0360 C   0  0  0  0  0  0  0  0  0  0  0  0
   55.1240   26.3470   46.8980 H   0  0  0  0  0  0  0  0  0  0  0  0
   56.8867   26.8082   43.7220 H   0  0  0  0  0  0  0  0  0  0  0  0
   59.2993   27.3391   43.6276 H   0  0  0  0  0  0  0  0  0  0  0  0
   60.5458   27.8109   45.7080 H   0  0  0  0  0  0  0  0  0  0  0  0
   58.1453   29.7895   47.3137 H   0  0  0  0  0  0  0  0  0  0  0  0
   57.3080   32.7140   48.6880 H   0  0  0  0  0  0  0  0  0  0  0  0
   59.2859   34.6294   47.8692 H   0  0  0  0  0  0  0  0  0  0  0  0
   59.8175   35.8270   45.7680 H   0  0  0  0  0  0  0  0  0  0  0  0
   59.1930   34.8013   43.5910 H   0  0  0  0  0  0  0  0  0  0  0  0
   58.1839   32.9485   42.3486 H   0  0  0  0  0  0  0  0  0  0  0  0
   57.0475   30.7430   42.3552 H   0  0  0  0  0  0  0  0  0  0  0  0
   56.5432   29.6037   44.5147 H   0  0  0  0  0  0  0  0  0  0  0  0
   62.6152   28.8502   52.0647 H   0  0  0  0  0  0  0  0  0  0  0  0
   61.3970   27.4310   50.2070 H   0  0  0  0  0  0  0  0  0  0  0  0
   56.9279   27.2229   47.9989 H   0  0  0  0  0  0  0  0  0  0  0  0
  1  2  1  0
  2  3  2  0
  3  4  1  0
  4  5  2  0
  5  6  1  0
  6  7  1  0
  7  8  2  0
  8  9  1  0
  9 10  2  0
 10 11  1  0
 11 12  1  0
 12 13  2  0
 13 14  1  0
 14 15  2  0
 15 16  1  0
 16 17  2  0
 17 18  1  0
 18 19  2  0
 19 20  1  0
 20 21  2  0
 10 22  1  0
 22 23  2  0
 23 24  1  0
 24 25  2  0
 25 26  1  0
 26 27  1  0
  6 28  2  0
 28  2  1  0
 27  8  1  0
 21 12  1  0
 27 23  1  0
 21 16  1  0
  1 29  1  0
  3 30  1  0
  4 31  1  0
  5 32  1  0
  9 33  1  0
 11 34  1  0
 13 35  1  0
 14 36  1  0
 15 37  1  0
 17 38  1  0
 18 39  1  0
 19 40  1  0
 25 41  1  0
 26 42  1  0
 28 43  1  0
M  END
>  <smiles>  (66) 
Oc1cccc(N=c2cc(Nc3cccc4cccnc34)nc3nc[nH]n23)c1

>  <score_type>  (66) 
oracle

>  <origin>  (66) 
adg

>  <m_score__min__energy>  (66) 
-9.8499999999999996

>  <m_primary>  (66) 
energy

$$$$
66:0
     RDKit          3D

 45 48  0  0  0  0  0  0  0  0999 V2000
   58.0690   31.7400   50.8170 C   0  0  0  0  0  0  0  0  0  0  0  0
   59.0870   32.6790   50.2210 C   0  0  0  0  0  0  0  0  0  0  0  0
   60.2600   32.9330   50.9460 C   0  0  0  0  0  0  0  0  0  0  0  0
   61.2330   33.7890   50.4410 C   0  0  0  0  0  0  0  0  0  0  0  0
   61.0170   34.4590   49.2400 C   0  0  0  0  0  0  0  0  0  0  0  0
   59.8230   34.2860   48.5220 C   0  0  0  0  0  0  0  0  0  0  0  0
   59.5710   35.2000   47.3290 C   0  0  0  0  0  0  0  0  0  0  0  0
   60.1970   34.7400   46.0630 N   0  0  0  0  0  0  0  0  0  0  0  0
   59.3950   34.8730   44.8330 C   0  0  0  0  0  0  0  0  0  0  0  0
   58.5010   33.6490   44.5230 C   0  0  0  0  0  0  0  0  0  0  0  0
   58.8510   32.3710   45.2650 C   0  0  0  0  0  0  0  0  0  0  0  0
   60.0390   32.2850   46.0130 C   0  0  0  0  0  0  0  0  0  0  0  0
   60.3730   31.0640   46.6260 C   0  0  0  0  0  0  0  0  0  0  0  0
   61.4640   30.9320   47.2420 O   0  0  0  0  0  0  0  0  0  0  0  0
   59.5430   30.0320   46.5670 O   0  0  0  0  0  0  0  0  0  0  0  0
   58.3880   30.0730   45.9160 C   0  0  0  0  0  0  0  0  0  0  0  0
   57.5620   28.9450   45.9230 C   0  0  0  0  0  0  0  0  0  0  0  0
   56.3500   28.9560   45.2310 C   0  0  0  0  0  0  0  0  0  0  0  0
   55.5310   27.8330   45.2440 O   0  0  0  0  0  0  0  0  0  0  0  0
   55.9610   30.0950   44.5220 C   0  0  0  0  0  0  0  0  0  0  0  0
   56.7770   31.2290   44.5070 C   0  0  0  0  0  0  0  0  0  0  0  0
   57.9970   31.2400   45.2160 C   0  0  0  0  0  0  0  0  0  0  0  0
   60.9510   33.4800   46.1240 C   0  0  0  0  0  0  0  0  0  0  0  0
   58.8990   33.2870   48.9500 C   0  0  0  0  0  0  0  0  0  0  0  0
   57.7570   32.8560   48.0540 C   0  0  0  0  0  0  0  0  0  0  0  0
   58.1228   31.7896   51.9146 H   0  0  0  0  0  0  0  0  0  0  0  0
   57.0618   32.0328   50.4856 H   0  0  0  0  0  0  0  0  0  0  0  0
   58.2797   30.7125   50.4856 H   0  0  0  0  0  0  0  0  0  0  0  0
   60.4121   32.4509   51.9230 H   0  0  0  0  0  0  0  0  0  0  0  0
   62.1741   33.9367   50.9911 H   0  0  0  0  0  0  0  0  0  0  0  0
   61.7926   35.1334   48.8481 H   0  0  0  0  0  0  0  0  0  0  0  0
   58.4846   35.2684   47.1710 H   0  0  0  0  0  0  0  0  0  0  0  0
   60.0297   36.1696   47.5728 H   0  0  0  0  0  0  0  0  0  0  0  0
   58.7470   35.7557   44.9375 H   0  0  0  0  0  0  0  0  0  0  0  0
   60.1073   34.9632   43.9996 H   0  0  0  0  0  0  0  0  0  0  0  0
   57.4645   33.9146   44.7783 H   0  0  0  0  0  0  0  0  0  0  0  0
   58.6560   33.4278   43.4567 H   0  0  0  0  0  0  0  0  0  0  0  0
   57.8686   28.0451   46.4762 H   0  0  0  0  0  0  0  0  0  0  0  0
   55.0078   30.0991   43.9730 H   0  0  0  0  0  0  0  0  0  0  0  0
   56.4666   32.1185   43.9392 H   0  0  0  0  0  0  0  0  0  0  0  0
   61.4890   33.4314   47.0822 H   0  0  0  0  0  0  0  0  0  0  0  0
   61.6544   33.4573   45.2786 H   0  0  0  0  0  0  0  0  0  0  0  0
   56.9063   32.5349   48.6731 H   0  0  0  0  0  0  0  0  0  0  0  0
   57.4504   33.7003   47.4190 H   0  0  0  0  0  0  0  0  0  0  0  0
   58.0847   32.0197   47.4190 H   0  0  0  0  0  0  0  0  0  0  0  0
  1  2  1  0
  2  3  2  0
  3  4  1  0
  4  5  2  0
  5  6  1  0
  6  7  1  0
  7  8  1  0
  8  9  1  0
  9 10  1  0
 10 11  1  0
 11 12  2  0
 12 13  1  0
 13 14  2  0
 13 15  1  0
 15 16  1  0
 16 17  2  0
 17 18  1  0
 18 19  1  0
 18 20  2  0
 20 21  1  0
 21 22  2  0
 12 23  1  0
  6 24  2  0
 24 25  1  0
 24  2  1  0
 23  8  1  0
 22 11  1  0
 22 16  1  0
  1 26  1  0
  1 27  1  0
  1 28  1  0
  3 29  1  0
  4 30  1  0
  5 31  1  0
  7 32  1  0
  7 33  1  0
  9 34  1  0
  9 35  1  0
 10 36  1  0
 10 37  1  0
 17 38  1  0
 20 39  1  0
 21 40  1  0
 23 41  1  0
 23 42  1  0
 25 43  1  0
 25 44  1  0
 25 45  1  0
M  CHG  1  19  -1
M  END
>  <UniqueID>  (67) 
61

>  <SMILES>  (67) 
Cc1cccc(CN2CCc3c(c(=O)oc4cc([O-])ccc34)C2)c1C

>  <Energy>  (67) 
71.06260357438886

>  <Genealogy>  (67) 
Cc1cccc(CN2CCc3c(c(=O)oc4cc([O-])ccc34)C2)c1C (protonated)
Cc1cccc(CN2CCc3c(c(=O)oc4cc([O-])ccc34)C2)c1C (3D coordinates assigned)
Cc1cccc(CN2CCc3c(c(=O)oc4cc([O-])ccc34)C2)c1C (nonaromatic ring conformer: 71.06260357438886 kcal/mol)

>  <smiles>  (67) 
Cc1cccc(CN2CCc3c(c(=O)oc4cc(O)ccc34)C2)c1C

>  <score_type>  (67) 
oracle

>  <origin>  (67) 
adg

>  <m_score__min__energy>  (67) 
-10.25

>  <m_primary>  (67) 
energy

$$$$
67:0
     RDKit          3D

 53 55  0  0  0  0  0  0  0  0999 V2000
   58.1830   27.0450   42.9180 C   0  0  0  0  0  0  0  0  0  0  0  0
   57.6600   27.5460   44.1450 O   0  0  0  0  0  0  0  0  0  0  0  0
   58.4460   27.9720   45.2260 C   0  0  0  0  0  0  0  0  0  0  0  0
   59.6680   28.6440   45.0390 C   0  0  0  0  0  0  0  0  0  0  0  0
   60.4060   29.0870   46.1370 C   0  0  0  0  0  0  0  0  0  0  0  0
   59.9360   28.8730   47.4390 C   0  0  0  0  0  0  0  0  0  0  0  0
   60.7280   29.3700   48.6220 C   0  0  0  0  0  0  0  0  0  0  0  0
   60.4320   30.8370   48.9290 C   0  0  0  0  0  0  0  0  0  0  0  0
   61.6160   31.6520   48.6920 N   0  0  0  0  0  0  0  0  0  0  0  0
   61.5820   32.8780   47.9580 C   0  0  0  0  0  0  0  0  0  0  0  0
   61.8980   32.9010   46.7370 O   0  0  0  0  0  0  0  0  0  0  0  0
   61.1200   34.1300   48.6340 C   0  0  0  0  0  0  0  0  0  0  0  0
   59.6410   34.4080   48.3390 C   0  0  0  0  0  0  0  0  0  0  0  0
   59.2660   33.9690   46.9770 N   0  0  0  0  0  0  0  0  0  0  0  0
   59.6380   34.7130   45.8820 C   0  0  0  0  0  0  0  0  0  0  0  0
   60.3160   35.7670   46.0140 O   0  0  0  0  0  0  0  0  0  0  0  0
   59.2740   34.3270   44.6330 N   0  0  0  0  0  0  0  0  0  0  0  0
   58.5400   33.2100   44.4220 C   0  0  0  0  0  0  0  0  0  0  0  0
   58.1540   32.8640   43.1240 C   0  0  0  0  0  0  0  0  0  0  0  0
   57.3740   31.7270   42.9030 C   0  0  0  0  0  0  0  0  0  0  0  0
   56.9660   30.9190   43.9790 C   0  0  0  0  0  0  0  0  0  0  0  0
   56.1140   29.7300   43.7460 C   0  0  0  0  0  0  0  0  0  0  0  0
   55.5190   29.0370   44.8430 N   0  0  0  0  0  0  0  0  0  0  0  0
   55.9030   29.3170   42.5740 O   0  0  0  0  0  0  0  0  0  0  0  0
   57.3730   31.2620   45.2830 C   0  0  0  0  0  0  0  0  0  0  0  0
   58.1530   32.4110   45.5110 C   0  0  0  0  0  0  0  0  0  0  0  0
   58.5460   32.8120   46.8000 C   0  0  0  0  0  0  0  0  0  0  0  0
   58.2260   32.1080   47.7990 O   0  0  0  0  0  0  0  0  0  0  0  0
   58.7380   28.1690   47.6320 C   0  0  0  0  0  0  0  0  0  0  0  0
   57.9850   27.7220   46.5280 C   0  0  0  0  0  0  0  0  0  0  0  0
   56.7720   27.0330   46.6840 O   0  0  0  0  0  0  0  0  0  0  0  0
   56.5150   25.7260   46.1810 C   0  0  0  0  0  0  0  0  0  0  0  0
   58.9625   26.2983   43.1294 H   0  0  0  0  0  0  0  0  0  0  0  0
   57.3738   26.5764   42.3387 H   0  0  0  0  0  0  0  0  0  0  0  0
   58.6164   27.8736   42.3387 H   0  0  0  0  0  0  0  0  0  0  0  0
   60.0439   28.8212   44.0205 H   0  0  0  0  0  0  0  0  0  0  0  0
   61.3623   29.6072   45.9793 H   0  0  0  0  0  0  0  0  0  0  0  0
   60.4706   28.7633   49.5027 H   0  0  0  0  0  0  0  0  0  0  0  0
   61.7970   29.2813   48.3785 H   0  0  0  0  0  0  0  0  0  0  0  0
   59.6154   31.1860   48.2799 H   0  0  0  0  0  0  0  0  0  0  0  0
   60.1395   30.9295   49.9853 H   0  0  0  0  0  0  0  0  0  0  0  0
   61.2547   34.0215   49.7203 H   0  0  0  0  0  0  0  0  0  0  0  0
   61.7152   34.9720   48.2507 H   0  0  0  0  0  0  0  0  0  0  0  0
   59.0231   33.8675   49.0712 H   0  0  0  0  0  0  0  0  0  0  0  0
   59.4740   35.4930   48.4092 H   0  0  0  0  0  0  0  0  0  0  0  0
   58.4655   33.4891   42.2742 H   0  0  0  0  0  0  0  0  0  0  0  0
   57.0761   31.4611   41.8780 H   0  0  0  0  0  0  0  0  0  0  0  0
   55.7500   28.0370   45.0340 H   0  0  0  0  0  0  0  0  0  0  0  0
   57.0786   30.6261   46.1309 H   0  0  0  0  0  0  0  0  0  0  0  0
   58.3837   27.9643   48.6531 H   0  0  0  0  0  0  0  0  0  0  0  0
   56.3781   25.0299   47.0217 H   0  0  0  0  0  0  0  0  0  0  0  0
   55.6029   25.7425   45.5664 H   0  0  0  0  0  0  0  0  0  0  0  0
   57.3654   25.3959   45.5664 H   0  0  0  0  0  0  0  0  0  0  0  0
  1  2  1  0
  2  3  1  0
  3  4  2  0
  4  5  1  0
  5  6  2  0
  6  7  1  0
  7  8  1  0
  8  9  1  0
  9 10  1  0
 10 11  2  0
 10 12  1  0
 12 13  1  0
 13 14  1  0
 14 15  1  0
 15 16  2  0
 15 17  1  0
 17 18  1  0
 18 19  2  0
 19 20  1  0
 20 21  2  0
 21 22  1  0
 22 23  1  0
 22 24  2  0
 21 25  1  0
 25 26  2  0
 26 27  1  0
 27 28  2  0
  6 29  1  0
 29 30  2  0
 30 31  1  0
 31 32  1  0
 30  3  1  0
 27 14  1  0
 26 18  1  0
  1 33  1  0
  1 34  1  0
  1 35  1  0
  4 36  1  0
  5 37  1  0
  7 38  1  0
  7 39  1  0
  8 40  1  0
  8 41  1  0
 12 42  1  0
 12 43  1  0
 13 44  1  0
 13 45  1  0
 19 46  1  0
 20 47  1  0
 23 48  1  0
 25 49  1  0
 29 50  1  0
 32 51  1  0
 32 52  1  0
 32 53  1  0
M  CHG  3   9  -1  17  -1  23  -1
M  END
>  <UniqueID>  (68) 
62

>  <SMILES>  (68) 
COc1ccc(CC[N-]C(=O)CCn2c(=O)[n-]c3ccc(C([NH-])=O)cc3c2=O)cc1OC

>  <Energy>  (68) 
46.9854385960687

>  <Genealogy>  (68) 
COc1ccc(CC[N-]C(=O)CCn2c(=O)[n-]c3ccc(C([NH-])=O)cc3c2=O)cc1OC (protonated)
COc1ccc(CC[N-]C(=O)CCn2c(=O)[n-]c3ccc(C([NH-])=O)cc3c2=O)cc1OC (3D coordinates assigned)
COc1ccc(CC[N-]C(=O)CCn2c(=O)[n-]c3ccc(C([NH-])=O)cc3c2=O)cc1OC (optimized conformer: 46.9854385960687 kcal/mol)

>  <smiles>  (68) 
COc1ccc(CCNC(=O)CCn2c(=O)[nH]c3ccc(C(N)=O)cc3c2=O)cc1OC

>  <score_type>  (68) 
oracle

>  <origin>  (68) 
adg

>  <m_score__min__energy>  (68) 
-13.99

>  <m_primary>  (68) 
energy

$$$$
68:0
     RDKit          3D

 38 40  0  0  0  0  0  0  0  0999 V2000
   59.8050   28.1660   48.6020 C   0  0  0  0  0  0  0  0  0  0  0  0
   59.3760   29.4640   48.1040 N   0  0  0  0  0  0  0  0  0  0  0  0
   59.3100   30.5890   48.9860 C   0  0  0  0  0  0  0  0  0  0  0  0
   58.4720   30.5450   50.1130 C   0  0  0  0  0  0  0  0  0  0  0  0
   58.3580   31.6540   50.9550 C   0  0  0  0  0  0  0  0  0  0  0  0
   57.3040   31.5840   52.3580 Cl  0  0  0  0  0  0  0  0  0  0  0  0
   59.0790   32.8180   50.6740 C   0  0  0  0  0  0  0  0  0  0  0  0
   59.9230   32.8690   49.5610 C   0  0  0  0  0  0  0  0  0  0  0  0
   60.0630   31.7540   48.7250 C   0  0  0  0  0  0  0  0  0  0  0  0
   61.1730   31.8610   47.3120 S   0  0  0  0  0  0  0  0  0  0  0  0
   60.0640   32.9230   46.3740 C   0  0  0  0  0  0  0  0  0  0  0  0
   60.1510   34.3150   46.5260 C   0  0  0  0  0  0  0  0  0  0  0  0
   59.3300   35.1590   45.7730 C   0  0  0  0  0  0  0  0  0  0  0  0
   58.4120   34.6200   44.8700 C   0  0  0  0  0  0  0  0  0  0  0  0
   58.2970   33.2330   44.7330 C   0  0  0  0  0  0  0  0  0  0  0  0
   59.0960   32.3760   45.5110 C   0  0  0  0  0  0  0  0  0  0  0  0
   58.9630   30.9510   45.4040 N   0  0  0  0  0  0  0  0  0  0  0  0
   57.8720   30.2710   45.1880 C   0  0  0  0  0  0  0  0  0  0  0  0
   56.7510   30.8130   44.5270 C   0  0  0  0  0  0  0  0  0  0  0  0
   55.5950   30.0390   44.3830 C   0  0  0  0  0  0  0  0  0  0  0  0
   55.5570   28.7710   44.8700 N   0  0  0  0  0  0  0  0  0  0  0  0
   56.6210   28.2240   45.5150 C   0  0  0  0  0  0  0  0  0  0  0  0
   57.7920   28.9640   45.6880 C   0  0  0  0  0  0  0  0  0  0  0  0
   59.8017   28.1759   49.7020 H   0  0  0  0  0  0  0  0  0  0  0  0
   59.1160   27.3885   48.2403 H   0  0  0  0  0  0  0  0  0  0  0  0
   60.8216   27.9522   48.2403 H   0  0  0  0  0  0  0  0  0  0  0  0
   59.4530   29.6440   47.0810 H   0  0  0  0  0  0  0  0  0  0  0  0
   57.9016   29.6308   50.3339 H   0  0  0  0  0  0  0  0  0  0  0  0
   58.9820   33.6956   51.3300 H   0  0  0  0  0  0  0  0  0  0  0  0
   60.4810   33.7909   49.3402 H   0  0  0  0  0  0  0  0  0  0  0  0
   60.8685   34.7440   47.2409 H   0  0  0  0  0  0  0  0  0  0  0  0
   59.4074   36.2498   45.8921 H   0  0  0  0  0  0  0  0  0  0  0  0
   57.7788   35.2865   44.2660 H   0  0  0  0  0  0  0  0  0  0  0  0
   57.5792   32.8109   44.0143 H   0  0  0  0  0  0  0  0  0  0  0  0
   56.7852   31.8373   44.1274 H   0  0  0  0  0  0  0  0  0  0  0  0
   54.7143   30.4578   43.8742 H   0  0  0  0  0  0  0  0  0  0  0  0
   56.5593   27.1960   45.9015 H   0  0  0  0  0  0  0  0  0  0  0  0
   58.6502   28.5223   46.2156 H   0  0  0  0  0  0  0  0  0  0  0  0
  1  2  1  0
  2  3  1  0
  3  4  2  0
  4  5  1  0
  5  6  1  0
  5  7  2  0
  7  8  1  0
  8  9  2  0
  9 10  1  0
 10 11  1  0
 11 12  2  0
 12 13  1  0
 13 14  2  0
 14 15  1  0
 15 16  2  0
 16 17  1  0
 17 18  2  3
 18 19  1  0
 19 20  2  0
 20 21  1  0
 21 22  1  0
 22 23  2  0
  9  3  1  0
 16 11  1  0
 23 18  1  0
  1 24  1  0
  1 25  1  0
  1 26  1  0
  2 27  1  0
  4 28  1  0
  7 29  1  0
  8 30  1  0
 12 31  1  0
 13 32  1  0
 14 33  1  0
 15 34  1  0
 19 35  1  0
 20 36  1  0
 22 37  1  0
 23 38  1  0
M  CHG  1  21  -1
M  END
>  <UniqueID>  (69) 
63

>  <SMILES>  (69) 
CNc1cc(Cl)ccc1Sc1ccccc1N=c1cc[n-]cc1

>  <Energy>  (69) 
53.047771818769554

>  <Genealogy>  (69) 
CNc1cc(Cl)ccc1Sc1ccccc1N=c1cc[n-]cc1 (protonated)
CNc1cc(Cl)ccc1Sc1ccccc1N=c1cc[n-]cc1 (3D coordinates assigned)
CNc1cc(Cl)ccc1Sc1ccccc1N=c1cc[n-]cc1 (optimized conformer: 53.047771818769554 kcal/mol)

>  <smiles>  (69) 
CNc1cc(Cl)ccc1Sc1ccccc1N=c1cc[nH]cc1

>  <score_type>  (69) 
oracle

>  <origin>  (69) 
adg

>  <m_score__min__energy>  (69) 
-9.7400000000000002

>  <m_primary>  (69) 
energy

$$$$
69:0
     RDKit          3D

 36 37  0  0  0  0  0  0  0  0999 V2000
   62.3517   34.7967   46.1483 H   0  0  0  0  0  0  0  0  0  0  0  0
   61.5930   34.0600   46.4510 C   0  0  0  0  0  0  0  0  0  0  0  0
   60.3160   34.1070   45.8930 C   0  0  0  0  0  0  0  0  0  0  0  0
   60.0771   34.8795   45.1472 H   0  0  0  0  0  0  0  0  0  0  0  0
   59.3300   33.1790   46.2720 C   0  0  0  0  0  0  0  0  0  0  0  0
   57.7440   33.2630   45.4820 S   0  0  0  0  0  0  0  0  0  0  0  0
   56.6740   33.2610   46.5340 O   0  0  0  0  0  0  0  0  0  0  0  0
   57.6530   34.5290   44.6750 O   0  0  0  0  0  0  0  0  0  0  0  0
   57.5910   31.8930   44.4270 N   0  0  0  0  0  0  0  0  0  0  0  0
   57.3060   30.6540   44.7140 C   0  0  0  0  0  0  0  0  0  0  0  0
   56.0620   30.2490   44.8270 O   0  0  0  0  0  0  0  0  0  0  0  0
   56.0150   28.9810   45.1050 N   0  0  0  0  0  0  0  0  0  0  0  0
   55.1370   28.4330   45.2360 H   0  0  0  0  0  0  0  0  0  0  0  0
   57.2760   28.5180   45.1790 C   0  0  0  0  0  0  0  0  0  0  0  0
   57.6280   27.0920   45.4610 C   0  0  0  0  0  0  0  0  0  0  0  0
   57.6674   26.9322   46.5486 H   0  0  0  0  0  0  0  0  0  0  0  0
   56.8658   26.4322   45.0209 H   0  0  0  0  0  0  0  0  0  0  0  0
   58.6097   26.8627   45.0209 H   0  0  0  0  0  0  0  0  0  0  0  0
   58.1580   29.5660   44.9430 C   0  0  0  0  0  0  0  0  0  0  0  0
   59.6520   29.4520   44.8770 C   0  0  0  0  0  0  0  0  0  0  0  0
   60.0628   29.4207   45.8969 H   0  0  0  0  0  0  0  0  0  0  0  0
   59.9262   28.5303   44.3428 H   0  0  0  0  0  0  0  0  0  0  0  0
   60.0628   30.3214   44.3428 H   0  0  0  0  0  0  0  0  0  0  0  0
   59.6490   32.1840   47.2360 C   0  0  0  0  0  0  0  0  0  0  0  0
   58.6440   31.1680   47.7280 C   0  0  0  0  0  0  0  0  0  0  0  0
   58.3878   30.4885   46.9017 H   0  0  0  0  0  0  0  0  0  0  0  0
   57.7518   31.7058   48.0812 H   0  0  0  0  0  0  0  0  0  0  0  0
   59.3150   30.1870   49.1200 S   0  0  0  0  0  0  0  0  0  0  0  0
   59.5210   28.6260   48.2020 C   0  0  0  0  0  0  0  0  0  0  0  0
   59.6308   27.7941   48.9133 H   0  0  0  0  0  0  0  0  0  0  0  0
   58.6378   28.4534   47.5693 H   0  0  0  0  0  0  0  0  0  0  0  0
   60.4187   28.6884   47.5693 H   0  0  0  0  0  0  0  0  0  0  0  0
   60.9470   32.1500   47.7790 C   0  0  0  0  0  0  0  0  0  0  0  0
   61.2057   31.3784   48.5191 H   0  0  0  0  0  0  0  0  0  0  0  0
   61.9100   33.0820   47.3910 C   0  0  0  0  0  0  0  0  0  0  0  0
   63.6620   33.0180   48.1490 Br  0  0  0  0  0  0  0  0  0  0  0  0
  1  2  1  0
  2  3  2  0
  3  4  1  0
  3  5  1  0
  5  6  1  0
  6  7  2  0
  6  8  2  0
  6  9  1  0
  9 10  2  0
 10 11  1  0
 11 12  1  0
 12 13  1  0
 12 14  1  0
 14 15  1  0
 15 16  1  0
 15 17  1  0
 15 18  1  0
 14 19  2  0
 19 20  1  0
 20 21  1  0
 20 22  1  0
 20 23  1  0
  5 24  2  0
 24 25  1  0
 25 26  1  0
 25 27  1  0
 25 28  1  0
 28 29  1  0
 29 30  1  0
 29 31  1  0
 29 32  1  0
 24 33  1  0
 33 34  1  0
 33 35  2  0
 35 36  1  0
 35  2  1  0
 19 10  1  0
M  END
>  <UniqueID>  (70) 
64

>  <SMILES>  (70) 
CSCc1cc(Br)ccc1S(=O)(=O)/N=c1/o[nH]c(C)c1C

>  <Energy>  (70) 
75.33884310405183

>  <Genealogy>  (70) 
CSCc1cc(Br)ccc1S(=O)(=O)/N=c1/o[nH]c(C)c1C (cis-trans isomerization)
CSCc1cc(Br)ccc1S(=O)(=O)/N=c1/o[nH]c(C)c1C (3D coordinates assigned)
CSCc1cc(Br)ccc1S(=O)(=O)/N=c1/o[nH]c(C)c1C (optimized conformer: 75.33884310405183 kcal/mol)

>  <smiles>  (70) 
CSCc1cc(Br)ccc1S(=O)(=O)N=c1o[nH]c(C)c1C

>  <score_type>  (70) 
oracle

>  <origin>  (70) 
adg

>  <m_score__min__energy>  (70) 
-8.5

>  <m_primary>  (70) 
energy

$$$$
70:0
     RDKit          3D

 41 44  0  0  0  0  0  0  0  0999 V2000
   61.0920   33.7600   49.6940 C   0  0  0  0  0  0  0  0  0  0  0  0
   60.2730   33.2980   48.5250 C   0  0  0  0  0  0  0  0  0  0  0  0
   58.9110   33.0070   48.6890 C   0  0  0  0  0  0  0  0  0  0  0  0
   58.1290   32.6510   47.5880 C   0  0  0  0  0  0  0  0  0  0  0  0
   58.6960   32.5940   46.3070 C   0  0  0  0  0  0  0  0  0  0  0  0
   57.6850   32.3140   44.8880 S   0  0  0  0  0  0  0  0  0  0  0  0
   58.5070   32.4040   43.6340 O   0  0  0  0  0  0  0  0  0  0  0  0
   56.6160   33.3700   44.8460 O   0  0  0  0  0  0  0  0  0  0  0  0
   56.9340   30.7450   44.9590 N   0  0  0  0  0  0  0  0  0  0  0  0
   57.4420   29.7130   45.5620 C   0  0  0  0  0  0  0  0  0  0  0  0
   58.4750   29.8860   46.4350 N   0  0  0  0  0  0  0  0  0  0  0  0
   59.0310   28.8060   47.0380 C   0  0  0  0  0  0  0  0  0  0  0  0
   60.0770   28.8520   47.9610 C   0  0  0  0  0  0  0  0  0  0  0  0
   60.4350   27.5880   48.4260 C   0  0  0  0  0  0  0  0  0  0  0  0
   59.4480   26.4280   47.6860 S   0  0  0  0  0  0  0  0  0  0  0  0
   58.5730   27.5320   46.7680 C   0  0  0  0  0  0  0  0  0  0  0  0
   57.5150   27.3430   45.8770 C   0  0  0  0  0  0  0  0  0  0  0  0
   57.0050   26.0100   45.4920 C   0  0  0  0  0  0  0  0  0  0  0  0
   57.8560   25.0790   44.8720 C   0  0  0  0  0  0  0  0  0  0  0  0
   57.3570   23.8520   44.4270 C   0  0  0  0  0  0  0  0  0  0  0  0
   56.0010   23.5430   44.5860 C   0  0  0  0  0  0  0  0  0  0  0  0
   55.4910   22.3270   44.1370 O   0  0  0  0  0  0  0  0  0  0  0  0
   55.1470   24.4660   45.1980 C   0  0  0  0  0  0  0  0  0  0  0  0
   55.6400   25.6950   45.6480 C   0  0  0  0  0  0  0  0  0  0  0  0
   54.7700   26.5940   46.2560 O   0  0  0  0  0  0  0  0  0  0  0  0
   56.9700   28.4540   45.3080 N   0  0  0  0  0  0  0  0  0  0  0  0
   60.0580   32.8770   46.1420 C   0  0  0  0  0  0  0  0  0  0  0  0
   60.8410   33.2360   47.2440 C   0  0  0  0  0  0  0  0  0  0  0  0
   60.5883   33.4759   50.6297 H   0  0  0  0  0  0  0  0  0  0  0  0
   62.0854   33.2892   49.6547 H   0  0  0  0  0  0  0  0  0  0  0  0
   61.2028   34.8537   49.6547 H   0  0  0  0  0  0  0  0  0  0  0  0
   58.4565   33.0594   49.6894 H   0  0  0  0  0  0  0  0  0  0  0  0
   57.0637   32.4143   47.7264 H   0  0  0  0  0  0  0  0  0  0  0  0
   60.5648   29.7830   48.2855 H   0  0  0  0  0  0  0  0  0  0  0  0
   61.2305   27.3777   49.1560 H   0  0  0  0  0  0  0  0  0  0  0  0
   58.9212   25.3177   44.7363 H   0  0  0  0  0  0  0  0  0  0  0  0
   58.0322   23.1263   43.9500 H   0  0  0  0  0  0  0  0  0  0  0  0
   55.1340   22.2190   43.1960 H   0  0  0  0  0  0  0  0  0  0  0  0
   54.0816   24.2240   45.3262 H   0  0  0  0  0  0  0  0  0  0  0  0
   60.5132   32.8167   45.1424 H   0  0  0  0  0  0  0  0  0  0  0  0
   61.9067   33.4707   47.1055 H   0  0  0  0  0  0  0  0  0  0  0  0
  1  2  1  0
  2  3  2  0
  3  4  1  0
  4  5  2  0
  5  6  1  0
  6  7  2  0
  6  8  2  0
  6  9  1  0
  9 10  2  3
 10 11  1  0
 11 12  2  0
 12 13  1  0
 13 14  2  0
 14 15  1  0
 15 16  1  0
 16 17  2  0
 17 18  1  0
 18 19  2  0
 19 20  1  0
 20 21  2  0
 21 22  1  0
 21 23  1  0
 23 24  2  0
 24 25  1  0
 17 26  1  0
  5 27  1  0
 27 28  2  0
 28  2  1  0
 26 10  1  0
 16 12  1  0
 24 18  1  0
  1 29  1  0
  1 30  1  0
  1 31  1  0
  3 32  1  0
  4 33  1  0
 13 34  1  0
 14 35  1  0
 19 36  1  0
 20 37  1  0
 22 38  1  0
 23 39  1  0
 27 40  1  0
 28 41  1  0
M  CHG  2  25  -1  26  -1
M  END
>  <UniqueID>  (71) 
65

>  <SMILES>  (71) 
Cc1ccc(S(=O)(=O)N=c2nc3ccsc3c(-c3ccc(O)cc3[O-])[n-]2)cc1

>  <Energy>  (71) 
84.14122675257906

>  <Genealogy>  (71) 
Cc1ccc(S(=O)(=O)N=c2nc3ccsc3c(-c3ccc(O)cc3[O-])[n-]2)cc1 (protonated)
Cc1ccc(S(=O)(=O)N=c2nc3ccsc3c(-c3ccc(O)cc3[O-])[n-]2)cc1 (3D coordinates assigned)
Cc1ccc(S(=O)(=O)N=c2nc3ccsc3c(-c3ccc(O)cc3[O-])[n-]2)cc1 (optimized conformer: 84.14122675257906 kcal/mol)

>  <smiles>  (71) 
Cc1ccc(S(=O)(=O)N=c2nc3ccsc3c(-c3ccc(O)cc3O)[nH]2)cc1

>  <score_type>  (71) 
oracle

>  <origin>  (71) 
adg

>  <m_score__min__energy>  (71) 
-14.300000000000001

>  <m_primary>  (71) 
energy

$$$$
71:0
     RDKit          3D

 78 83  0  0  0  0  0  0  0  0999 V2000
   60.5166   35.4997   48.2620 H   0  0  0  0  0  0  0  0  0  0  0  0
   60.6220   34.4490   48.5700 C   0  0  0  0  0  0  0  0  0  0  0  0
   59.5100   33.7120   48.6770 C   0  0  0  0  0  0  0  0  0  0  0  0
   58.7916   33.9333   49.4801 H   0  0  0  0  0  0  0  0  0  0  0  0
   59.2360   32.6370   47.7630 N   0  0  0  0  0  0  0  0  0  0  0  0
   59.5300   31.3110   47.8820 C   0  0  0  0  0  0  0  0  0  0  0  0
   60.0830   30.6730   49.0970 C   0  0  0  0  0  0  0  0  0  0  0  0
   59.2440   29.9770   49.9790 C   0  0  0  0  0  0  0  0  0  0  0  0
   58.1626   29.9308   49.7829 H   0  0  0  0  0  0  0  0  0  0  0  0
   59.7730   29.3420   51.1050 C   0  0  0  0  0  0  0  0  0  0  0  0
   59.1038   28.8064   51.7944 H   0  0  0  0  0  0  0  0  0  0  0  0
   61.1490   29.3820   51.3630 C   0  0  0  0  0  0  0  0  0  0  0  0
   61.6370   28.6990   52.4870 O   0  0  0  0  0  0  0  0  0  0  0  0
   62.5490   29.2560   53.4300 C   0  0  0  0  0  0  0  0  0  0  0  0
   62.1980   29.0416   54.4502 H   0  0  0  0  0  0  0  0  0  0  0  0
   63.5446   28.8116   53.2838 H   0  0  0  0  0  0  0  0  0  0  0  0
   62.6083   30.3446   53.2838 H   0  0  0  0  0  0  0  0  0  0  0  0
   61.9910   30.0930   50.4870 C   0  0  0  0  0  0  0  0  0  0  0  0
   63.0721   30.1408   50.6845 H   0  0  0  0  0  0  0  0  0  0  0  0
   61.4590   30.7380   49.3680 C   0  0  0  0  0  0  0  0  0  0  0  0
   62.1225   31.3005   48.6947 H   0  0  0  0  0  0  0  0  0  0  0  0
   59.1180   30.6210   46.7370 C   0  0  0  0  0  0  0  0  0  0  0  0
   59.1580   29.1660   46.5330 C   0  0  0  0  0  0  0  0  0  0  0  0
   60.3670   28.5340   46.2100 C   0  0  0  0  0  0  0  0  0  0  0  0
   61.2858   29.1288   46.1004 H   0  0  0  0  0  0  0  0  0  0  0  0
   60.4060   27.1480   46.0270 C   0  0  0  0  0  0  0  0  0  0  0  0
   61.3560   26.6560   45.7710 H   0  0  0  0  0  0  0  0  0  0  0  0
   59.2340   26.3790   46.1690 C   0  0  0  0  0  0  0  0  0  0  0  0
   59.2210   24.9880   45.9980 O   0  0  0  0  0  0  0  0  0  0  0  0
   58.2260   24.2770   45.2690 C   0  0  0  0  0  0  0  0  0  0  0  0
   57.5377   23.7852   45.9721 H   0  0  0  0  0  0  0  0  0  0  0  0
   57.6636   24.9790   44.6358 H   0  0  0  0  0  0  0  0  0  0  0  0
   58.7080   23.5175   44.6358 H   0  0  0  0  0  0  0  0  0  0  0  0
   58.0320   27.0200   46.4980 C   0  0  0  0  0  0  0  0  0  0  0  0
   57.1117   26.4283   46.6124 H   0  0  0  0  0  0  0  0  0  0  0  0
   57.9930   28.4050   46.6820 C   0  0  0  0  0  0  0  0  0  0  0  0
   57.0451   28.8976   46.9443 H   0  0  0  0  0  0  0  0  0  0  0  0
   58.5290   31.5710   45.9170 C   0  0  0  0  0  0  0  0  0  0  0  0
   57.8920   31.5150   44.6740 C   0  0  0  0  0  0  0  0  0  0  0  0
   57.7050   29.9900   43.7500 S   0  0  0  0  0  0  0  0  0  0  0  0
   55.8880   30.0760   43.7500 C   0  0  0  0  0  0  0  0  0  0  0  0
   55.5217   30.0933   44.7871 H   0  0  0  0  0  0  0  0  0  0  0  0
   55.5642   30.9905   43.2315 H   0  0  0  0  0  0  0  0  0  0  0  0
   55.4793   29.1962   43.2315 H   0  0  0  0  0  0  0  0  0  0  0  0
   57.3960   32.6790   44.1620 N   0  0  0  0  0  0  0  0  0  0  0  0
   57.5130   33.8660   44.8320 C   0  0  0  0  0  0  0  0  0  0  0  0
   57.1084   34.7867   44.3864 H   0  0  0  0  0  0  0  0  0  0  0  0
   58.1280   33.9160   46.0490 N   0  0  0  0  0  0  0  0  0  0  0  0
   58.6210   32.7660   46.5730 C   0  0  0  0  0  0  0  0  0  0  0  0
   61.9890   33.9370   48.8410 C   0  0  0  0  0  0  0  0  0  0  0  0
   62.8460   33.5350   47.8000 C   0  0  0  0  0  0  0  0  0  0  0  0
   62.5113   33.6184   46.7555 H   0  0  0  0  0  0  0  0  0  0  0  0
   64.1180   33.0310   48.0810 C   0  0  0  0  0  0  0  0  0  0  0  0
   64.7784   32.7243   47.2565 H   0  0  0  0  0  0  0  0  0  0  0  0
   64.5600   32.9130   49.4100 C   0  0  0  0  0  0  0  0  0  0  0  0
   65.8360   32.4250   49.7350 O   0  0  0  0  0  0  0  0  0  0  0  0
   66.7790   33.1150   50.5480 C   0  0  0  0  0  0  0  0  0  0  0  0
   66.5439   32.9430   51.6087 H   0  0  0  0  0  0  0  0  0  0  0  0
   67.7913   32.7428   50.3318 H   0  0  0  0  0  0  0  0  0  0  0  0
   66.7305   34.1924   50.3318 H   0  0  0  0  0  0  0  0  0  0  0  0
   63.7070   33.2970   50.4510 C   0  0  0  0  0  0  0  0  0  0  0  0
   64.1480   33.2030   51.7680 O   0  0  0  0  0  0  0  0  0  0  0  0
   62.4200   33.7930   50.1760 C   0  0  0  0  0  0  0  0  0  0  0  0
   61.5760   34.1720   51.2300 O   0  0  0  0  0  0  0  0  0  0  0  0
   61.4500   33.4020   52.4250 C   0  0  0  0  0  0  0  0  0  0  0  0
   62.1741   32.5742   52.4042 H   0  0  0  0  0  0  0  0  0  0  0  0
   61.6482   34.0458   53.2946 H   0  0  0  0  0  0  0  0  0  0  0  0
   60.0560   32.8440   52.5270 C   0  0  0  0  0  0  0  0  0  0  0  0
   59.0030   33.4440   51.8170 C   0  0  0  0  0  0  0  0  0  0  0  0
   59.2100   34.2754   51.1271 H   0  0  0  0  0  0  0  0  0  0  0  0
   57.6920   32.9870   51.9850 C   0  0  0  0  0  0  0  0  0  0  0  0
   56.8709   33.4560   51.4230 H   0  0  0  0  0  0  0  0  0  0  0  0
   57.4230   31.9350   52.8660 C   0  0  0  0  0  0  0  0  0  0  0  0
   56.3906   31.5797   52.9995 H   0  0  0  0  0  0  0  0  0  0  0  0
   58.4660   31.3350   53.5770 C   0  0  0  0  0  0  0  0  0  0  0  0
   58.2542   30.5067   54.2692 H   0  0  0  0  0  0  0  0  0  0  0  0
   59.7790   31.7870   53.4090 C   0  0  0  0  0  0  0  0  0  0  0  0
   60.5977   31.3126   53.9699 H   0  0  0  0  0  0  0  0  0  0  0  0
  1  2  1  0
  2  3  2  0
  3  4  1  0
  3  5  1  0
  5  6  1  0
  6  7  1  0
  7  8  2  0
  8  9  1  0
  8 10  1  0
 10 11  1  0
 10 12  2  0
 12 13  1  0
 13 14  1  0
 14 15  1  0
 14 16  1  0
 14 17  1  0
 12 18  1  0
 18 19  1  0
 18 20  2  0
 20 21  1  0
  6 22  2  0
 22 23  1  0
 23 24  2  0
 24 25  1  0
 24 26  1  0
 26 27  1  0
 26 28  2  0
 28 29  1  0
 29 30  1  0
 30 31  1  0
 30 32  1  0
 30 33  1  0
 28 34  1  0
 34 35  1  0
 34 36  2  0
 36 37  1  0
 22 38  1  0
 38 39  2  0
 39 40  1  0
 40 41  1  0
 41 42  1  0
 41 43  1  0
 41 44  1  0
 39 45  1  0
 45 46  2  0
 46 47  1  0
 46 48  1  0
 48 49  2  0
  2 50  1  0
 50 51  2  0
 51 52  1  0
 51 53  1  0
 53 54  1  0
 53 55  2  0
 55 56  1  0
 56 57  1  0
 57 58  1  0
 57 59  1  0
 57 60  1  0
 55 61  1  0
 61 62  1  0
 61 63  2  0
 63 64  1  0
 64 65  1  0
 65 66  1  0
 65 67  1  0
 65 68  1  0
 68 69  2  0
 69 70  1  0
 69 71  1  0
 71 72  1  0
 71 73  2  0
 73 74  1  0
 73 75  1  0
 75 76  1  0
 75 77  2  0
 77 78  1  0
 49  5  1  0
 63 50  1  0
 77 68  1  0
 20  7  1  0
 36 23  1  0
 49 38  1  0
M  CHG  1  62  -1
M  END
>  <UniqueID>  (72) 
66

>  <SMILES>  (72) 
COc1ccc(-c2c(-c3ccc(OC)cc3)n(/C=C/c3ccc(OC)c([O-])c3OCc3ccccc3)c3ncnc(SC)c23)cc1

>  <Energy>  (72) 
136.1732101247283

>  <Genealogy>  (72) 
COc1ccc(-c2c(-c3ccc(OC)cc3)n(C=Cc3ccc(OC)c([O-])c3OCc3ccccc3)c3ncnc(SC)c23)cc1 (protonated)
COc1ccc(-c2c(-c3ccc(OC)cc3)n(/C=C/c3ccc(OC)c([O-])c3OCc3ccccc3)c3ncnc(SC)c23)cc1 (cis-trans isomerization)
COc1ccc(-c2c(-c3ccc(OC)cc3)n(/C=C/c3ccc(OC)c([O-])c3OCc3ccccc3)c3ncnc(SC)c23)cc1 (3D coordinates assigned)
COc1ccc(-c2c(-c3ccc(OC)cc3)n(/C=C/c3ccc(OC)c([O-])c3OCc3ccccc3)c3ncnc(SC)c23)cc1 (optimized conformer: 136.1732101247283 kcal/mol)

>  <smiles>  (72) 
COc1ccc(-c2c(-c3ccc(OC)cc3)n(C=Cc3ccc(OC)c(O)c3OCc3ccccc3)c3ncnc(SC)c23)cc1

>  <score_type>  (72) 
oracle

>  <origin>  (72) 
adg

>  <m_score__min__energy>  (72) 
-12.289999999999999

>  <m_primary>  (72) 
energy

$$$$
72:0
     RDKit          3D

 49 51  0  0  0  0  0  0  0  0999 V2000
   57.3710   21.2570   43.3040 C   0  0  0  0  0  0  0  0  0  0  0  0
   57.7000   22.5190   44.1130 C   0  0  0  0  0  0  0  0  0  0  0  0
   56.8870   23.7760   43.7080 C   0  0  1  0  0  0  0  0  0  0  0  0
   55.4530   23.4640   43.2040 C   0  0  0  0  0  0  0  0  0  0  0  0
   54.4050   23.3360   44.2850 C   0  0  0  0  0  0  0  0  0  0  0  0
   53.0820   23.7530   44.0560 C   0  0  0  0  0  0  0  0  0  0  0  0
   52.1210   23.6390   45.0650 C   0  0  0  0  0  0  0  0  0  0  0  0
   52.4680   23.1000   46.3060 C   0  0  0  0  0  0  0  0  0  0  0  0
   53.7750   22.6620   46.5370 C   0  0  0  0  0  0  0  0  0  0  0  0
   54.7380   22.7710   45.5300 C   0  0  0  0  0  0  0  0  0  0  0  0
   56.8820   24.7890   44.7710 N   0  0  0  0  0  0  0  0  0  0  0  0
   58.0040   24.9870   45.6450 C   0  0  0  0  0  0  0  0  0  0  0  0
   59.0410   24.2790   45.5240 O   0  0  0  0  0  0  0  0  0  0  0  0
   57.9730   26.0690   46.6800 C   0  0  0  0  0  0  0  0  0  0  0  0
   57.5260   27.3260   46.0750 N   0  0  0  0  0  0  0  0  0  0  0  0
   56.2860   27.6080   45.6320 C   0  0  0  0  0  0  0  0  0  0  0  0
   55.2230   26.7120   45.6360 O   0  0  0  0  0  0  0  0  0  0  0  0
   56.2340   28.9080   45.1870 C   0  0  0  0  0  0  0  0  0  0  0  0
   57.4510   29.4590   45.3740 N   0  0  0  0  0  0  0  0  0  0  0  0
   57.8100   30.8150   45.0590 C   0  0  0  0  0  0  0  0  0  0  0  0
   58.3340   31.6540   46.0560 C   0  0  0  0  0  0  0  0  0  0  0  0
   58.7130   32.9660   45.7480 C   0  0  0  0  0  0  0  0  0  0  0  0
   58.5840   33.4450   44.4400 C   0  0  0  0  0  0  0  0  0  0  0  0
   58.9610   34.7140   44.1420 F   0  0  0  0  0  0  0  0  0  0  0  0
   58.0770   32.6120   43.4390 C   0  0  0  0  0  0  0  0  0  0  0  0
   57.6930   31.3010   43.7450 C   0  0  0  0  0  0  0  0  0  0  0  0
   58.2190   28.4800   45.9170 C   0  0  0  0  0  0  0  0  0  0  0  0
   59.8220   28.6350   46.2460 S   0  0  0  0  0  0  0  0  0  0  0  0
   57.1545   20.4265   43.9920 H   0  0  0  0  0  0  0  0  0  0  0  0
   56.4923   21.4466   42.6701 H   0  0  0  0  0  0  0  0  0  0  0  0
   58.2304   20.9934   42.6701 H   0  0  0  0  0  0  0  0  0  0  0  0
   57.5000   22.3082   45.1739 H   0  0  0  0  0  0  0  0  0  0  0  0
   58.7558   22.7523   43.9109 H   0  0  0  0  0  0  0  0  0  0  0  0
   57.4165   24.1984   42.8412 H   0  0  0  0  0  0  0  0  0  0  0  0
   55.1463   24.2749   42.5269 H   0  0  0  0  0  0  0  0  0  0  0  0
   55.5086   22.4804   42.7146 H   0  0  0  0  0  0  0  0  0  0  0  0
   52.8016   24.1711   43.0780 H   0  0  0  0  0  0  0  0  0  0  0  0
   51.0896   23.9744   44.8812 H   0  0  0  0  0  0  0  0  0  0  0  0
   51.7126   23.0202   47.1016 H   0  0  0  0  0  0  0  0  0  0  0  0
   54.0459   22.2311   47.5122 H   0  0  0  0  0  0  0  0  0  0  0  0
   55.7621   22.4131   45.7117 H   0  0  0  0  0  0  0  0  0  0  0  0
   56.0720   25.4350   44.8670 H   0  0  0  0  0  0  0  0  0  0  0  0
   57.2787   25.7844   47.4843 H   0  0  0  0  0  0  0  0  0  0  0  0
   58.9839   26.2050   47.0917 H   0  0  0  0  0  0  0  0  0  0  0  0
   55.3556   29.4098   44.7550 H   0  0  0  0  0  0  0  0  0  0  0  0
   58.4471   31.2785   47.0837 H   0  0  0  0  0  0  0  0  0  0  0  0
   59.1129   33.6213   46.5358 H   0  0  0  0  0  0  0  0  0  0  0  0
   57.9795   32.9869   42.4094 H   0  0  0  0  0  0  0  0  0  0  0  0
   57.2977   30.6477   42.9532 H   0  0  0  0  0  0  0  0  0  0  0  0
  1  2  1  0
  2  3  1  0
  3  4  1  0
  4  5  1  0
  5  6  2  0
  6  7  1  0
  7  8  2  0
  8  9  1  0
  9 10  2  0
  3 11  1  0
 11 12  1  0
 12 13  2  0
 12 14  1  0
 14 15  1  0
 15 16  1  0
 16 17  1  0
 16 18  2  0
 18 19  1  0
 19 20  1  0
 20 21  2  0
 21 22  1  0
 22 23  2  0
 23 24  1  0
 23 25  1  0
 25 26  2  0
 19 27  1  0
 27 28  2  0
 10  5  1  0
 27 15  1  0
 26 20  1  0
  1 29  1  0
  1 30  1  0
  1 31  1  0
  2 32  1  0
  2 33  1  0
  3 34  1  6
  4 35  1  0
  4 36  1  0
  6 37  1  0
  7 38  1  0
  8 39  1  0
  9 40  1  0
 10 41  1  0
 11 42  1  0
 14 43  1  0
 14 44  1  0
 18 45  1  0
 21 46  1  0
 22 47  1  0
 25 48  1  0
 26 49  1  0
M  CHG  1  17  -1
M  END
>  <UniqueID>  (73) 
67

>  <SMILES>  (73) 
CC[C@@H](Cc1ccccc1)NC(=O)Cn1c([O-])cn(-c2ccc(F)cc2)c1=S

>  <Energy>  (73) 
86.46943801468957

>  <Genealogy>  (73) 
CCC(Cc1ccccc1)NC(=O)Cn1c([O-])cn(-c2ccc(F)cc2)c1=S (protonated)
CC[C@@H](Cc1ccccc1)NC(=O)Cn1c([O-])cn(-c2ccc(F)cc2)c1=S (chirality)
CC[C@@H](Cc1ccccc1)NC(=O)Cn1c([O-])cn(-c2ccc(F)cc2)c1=S (3D coordinates assigned)
CC[C@@H](Cc1ccccc1)NC(=O)Cn1c([O-])cn(-c2ccc(F)cc2)c1=S (optimized conformer: 86.46943801468957 kcal/mol)

>  <smiles>  (73) 
CCC(Cc1ccccc1)NC(=O)Cn1c(O)cn(-c2ccc(F)cc2)c1=S

>  <score_type>  (73) 
oracle

>  <origin>  (73) 
adg

>  <m_score__min__energy>  (73) 
-9.6799999999999997

>  <m_primary>  (73) 
energy

$$$$
73:0
     RDKit          3D

 40 42  0  0  0  0  0  0  0  0999 V2000
   54.5900   25.9210   45.7920 N   0  0  0  0  0  0  0  0  0  0  0  0
   55.7930   26.6610   45.9910 C   0  0  0  0  0  0  0  0  0  0  0  0
   55.9130   27.8070   45.4850 O   0  0  0  0  0  0  0  0  0  0  0  0
   56.8640   26.1190   46.7690 N   0  0  0  0  0  0  0  0  0  0  0  0
   58.2680   26.2020   46.3830 C   0  0  0  0  0  0  0  0  0  0  0  0
   58.9730   27.3180   47.1650 C   0  0  0  0  0  0  0  0  0  0  0  0
   59.8410   28.2050   46.2610 C   0  0  0  0  0  0  0  0  0  0  0  0
   59.2140   29.5490   46.0090 C   0  0  0  0  0  0  0  0  0  0  0  0
   58.5630   30.0180   44.5200 S   0  0  0  0  0  0  0  0  0  0  0  0
   58.2590   31.6060   44.9710 C   0  0  0  0  0  0  0  0  0  0  0  0
   57.7030   32.6260   44.2040 C   0  0  0  0  0  0  0  0  0  0  0  0
   57.5540   33.8930   44.7920 C   0  0  0  0  0  0  0  0  0  0  0  0
   57.9610   34.1100   46.1230 C   0  0  0  0  0  0  0  0  0  0  0  0
   58.5210   33.0650   46.8760 C   0  0  0  0  0  0  0  0  0  0  0  0
   58.6690   31.8060   46.2820 C   0  0  0  0  0  0  0  0  0  0  0  0
   59.1970   30.6520   46.8780 C   0  0  0  0  0  0  0  0  0  0  0  0
   59.7360   30.6380   48.2080 N   0  0  0  0  0  0  0  0  0  0  0  0
   61.0270   31.1690   48.5450 C   0  0  0  0  0  0  0  0  0  0  0  0
   61.8010   31.8680   47.5980 C   0  0  0  0  0  0  0  0  0  0  0  0
   63.0610   32.3640   47.9470 C   0  0  0  0  0  0  0  0  0  0  0  0
   63.5650   32.1590   49.2350 C   0  0  0  0  0  0  0  0  0  0  0  0
   65.1450   32.7830   49.6700 Cl  0  0  0  0  0  0  0  0  0  0  0  0
   62.8090   31.4510   50.1740 C   0  0  0  0  0  0  0  0  0  0  0  0
   61.5480   30.9530   49.8300 C   0  0  0  0  0  0  0  0  0  0  0  0
   53.6600   26.3420   46.0120 H   0  0  0  0  0  0  0  0  0  0  0  0
   58.7603   25.2421   46.5981 H   0  0  0  0  0  0  0  0  0  0  0  0
   58.3297   26.4261   45.3078 H   0  0  0  0  0  0  0  0  0  0  0  0
   58.2109   27.9458   47.6499 H   0  0  0  0  0  0  0  0  0  0  0  0
   59.6339   26.8439   47.9055 H   0  0  0  0  0  0  0  0  0  0  0  0
   60.8174   28.3552   46.7449 H   0  0  0  0  0  0  0  0  0  0  0  0
   59.9474   27.6959   45.2917 H   0  0  0  0  0  0  0  0  0  0  0  0
   57.3888   32.4447   43.1655 H   0  0  0  0  0  0  0  0  0  0  0  0
   57.1178   34.7189   44.2109 H   0  0  0  0  0  0  0  0  0  0  0  0
   57.8394   35.1050   46.5759 H   0  0  0  0  0  0  0  0  0  0  0  0
   58.8382   33.2331   47.9158 H   0  0  0  0  0  0  0  0  0  0  0  0
   59.1760   30.1690   48.9550 H   0  0  0  0  0  0  0  0  0  0  0  0
   61.4129   32.0242   46.5806 H   0  0  0  0  0  0  0  0  0  0  0  0
   63.6573   32.9169   47.2062 H   0  0  0  0  0  0  0  0  0  0  0  0
   63.2069   31.2851   51.1860 H   0  0  0  0  0  0  0  0  0  0  0  0
   60.9617   30.3892   50.5705 H   0  0  0  0  0  0  0  0  0  0  0  0
  1  2  1  0
  2  3  2  0
  2  4  1  0
  4  5  1  0
  5  6  1  0
  6  7  1  0
  7  8  1  0
  8  9  1  0
  9 10  1  0
 10 11  2  0
 11 12  1  0
 12 13  2  0
 13 14  1  0
 14 15  2  0
 15 16  1  0
 16 17  1  0
 17 18  1  0
 18 19  2  0
 19 20  1  0
 20 21  2  0
 21 22  1  0
 21 23  1  0
 23 24  2  0
 16  8  2  0
 24 18  1  0
 15 10  1  0
  1 25  1  0
  5 26  1  0
  5 27  1  0
  6 28  1  0
  6 29  1  0
  7 30  1  0
  7 31  1  0
 11 32  1  0
 12 33  1  0
 13 34  1  0
 14 35  1  0
 17 36  1  0
 19 37  1  0
 20 38  1  0
 23 39  1  0
 24 40  1  0
M  CHG  2   1  -1   4  -1
M  END
>  <UniqueID>  (74) 
68

>  <SMILES>  (74) 
[NH-]C(=O)[N-]CCCc1sc2ccccc2c1Nc1ccc(Cl)cc1

>  <Energy>  (74) 
71.59780443705088

>  <Genealogy>  (74) 
[NH-]C(=O)[N-]CCCc1sc2ccccc2c1Nc1ccc(Cl)cc1 (protonated)
[NH-]C(=O)[N-]CCCc1sc2ccccc2c1Nc1ccc(Cl)cc1 (3D coordinates assigned)
[NH-]C(=O)[N-]CCCc1sc2ccccc2c1Nc1ccc(Cl)cc1 (optimized conformer: 71.59780443705088 kcal/mol)

>  <smiles>  (74) 
NC(=O)NCCCc1sc2ccccc2c1Nc1ccc(Cl)cc1

>  <score_type>  (74) 
oracle

>  <origin>  (74) 
adg

>  <m_score__min__energy>  (74) 
-12.91

>  <m_primary>  (74) 
energy

$$$$
74:0
     RDKit          3D

 52 55  0  0  0  0  0  0  0  0999 V2000
   55.4880   29.7630   44.6240 C   0  0  0  0  0  0  0  0  0  0  0  0
   55.9660   28.5390   45.2490 N   0  0  0  0  0  0  0  0  0  0  0  0
   57.0550   27.7750   44.7200 C   0  0  0  0  0  0  0  0  0  0  0  0
   57.5240   28.0470   43.5810 O   0  0  0  0  0  0  0  0  0  0  0  0
   57.6670   26.6660   45.5280 C   0  0  1  0  0  0  0  0  0  0  0  0
   58.4790   27.2210   46.6600 C   0  0  0  0  0  0  0  0  0  0  0  0
   59.0930   26.4510   47.5930 N   0  0  0  0  0  0  0  0  0  0  0  0
   59.7750   27.2150   48.4830 C   0  0  0  0  0  0  0  0  0  0  0  0
   60.5010   26.7090   49.5600 C   0  0  0  0  0  0  0  0  0  0  0  0
   61.1660   27.6090   50.4100 C   0  0  0  0  0  0  0  0  0  0  0  0
   61.1100   29.0060   50.1760 C   0  0  0  0  0  0  0  0  0  0  0  0
   61.7990   29.9560   51.0810 C   0  0  0  0  0  0  0  0  0  0  0  0
   61.8410   29.7000   52.3170 O   0  0  0  0  0  0  0  0  0  0  0  0
   62.4420   31.1960   50.5850 C   0  0  0  0  0  0  0  0  0  0  0  0
   63.7910   31.4690   50.8710 C   0  0  0  0  0  0  0  0  0  0  0  0
   64.3990   32.6220   50.3710 C   0  0  0  0  0  0  0  0  0  0  0  0
   63.6680   33.5160   49.5850 C   0  0  0  0  0  0  0  0  0  0  0  0
   62.3220   33.2690   49.2970 C   0  0  0  0  0  0  0  0  0  0  0  0
   61.6170   34.2010   48.4640 N   0  0  0  0  0  0  0  0  0  0  0  0
   60.1980   34.4020   48.4090 C   0  0  0  0  0  0  0  0  0  0  0  0
   59.6060   34.9620   49.3700 O   0  0  0  0  0  0  0  0  0  0  0  0
   59.4320   33.9950   47.2030 C   0  0  0  0  0  0  0  0  0  0  0  0
   59.3600   34.8480   46.0770 C   0  0  0  0  0  0  0  0  0  0  0  0
   59.9750   36.0590   46.0760 F   0  0  0  0  0  0  0  0  0  0  0  0
   58.6330   34.4680   44.9450 C   0  0  0  0  0  0  0  0  0  0  0  0
   57.9710   33.2410   44.9150 C   0  0  0  0  0  0  0  0  0  0  0  0
   58.0340   32.3860   46.0160 C   0  0  0  0  0  0  0  0  0  0  0  0
   58.7560   32.7550   47.1550 C   0  0  0  0  0  0  0  0  0  0  0  0
   58.8110   31.8830   48.1940 F   0  0  0  0  0  0  0  0  0  0  0  0
   61.7190   32.0920   49.7770 C   0  0  0  0  0  0  0  0  0  0  0  0
   60.3550   29.4960   49.0870 C   0  0  0  0  0  0  0  0  0  0  0  0
   59.7110   28.5800   48.2620 C   0  0  0  0  0  0  0  0  0  0  0  0
   58.7700   28.8730   46.9040 S   0  0  0  0  0  0  0  0  0  0  0  0
   56.4110   25.5500   46.1490 S   0  0  0  0  0  0  0  0  0  0  0  0
   54.8510   26.2510   45.9010 N   0  0  0  0  0  0  0  0  0  0  0  0
   56.4790   24.2340   45.4290 O   0  0  0  0  0  0  0  0  0  0  0  0
   56.6230   25.3240   47.6190 O   0  0  0  0  0  0  0  0  0  0  0  0
   55.2055   30.4864   45.4031 H   0  0  0  0  0  0  0  0  0  0  0  0
   56.2852   30.1907   43.9982 H   0  0  0  0  0  0  0  0  0  0  0  0
   54.6120   29.5373   43.9982 H   0  0  0  0  0  0  0  0  0  0  0  0
   58.3339   26.0953   44.8650 H   0  0  0  0  0  0  0  0  0  0  0  0
   60.5524   25.6252   49.7412 H   0  0  0  0  0  0  0  0  0  0  0  0
   61.7373   27.2246   51.2678 H   0  0  0  0  0  0  0  0  0  0  0  0
   64.3707   30.7703   51.4921 H   0  0  0  0  0  0  0  0  0  0  0  0
   65.4560   32.8269   50.5965 H   0  0  0  0  0  0  0  0  0  0  0  0
   64.1543   34.4202   49.1900 H   0  0  0  0  0  0  0  0  0  0  0  0
   58.5830   35.1392   44.0749 H   0  0  0  0  0  0  0  0  0  0  0  0
   57.3987   32.9469   44.0228 H   0  0  0  0  0  0  0  0  0  0  0  0
   57.5133   31.4174   45.9877 H   0  0  0  0  0  0  0  0  0  0  0  0
   60.6731   31.8705   49.5182 H   0  0  0  0  0  0  0  0  0  0  0  0
   60.2783   30.5766   48.8961 H   0  0  0  0  0  0  0  0  0  0  0  0
   54.8070   27.1150   46.4850 H   0  0  0  0  0  0  0  0  0  0  0  0
  1  2  1  0
  2  3  1  0
  3  4  2  0
  3  5  1  0
  5  6  1  0
  6  7  2  0
  7  8  1  0
  8  9  2  0
  9 10  1  0
 10 11  2  0
 11 12  1  0
 12 13  2  0
 12 14  1  0
 14 15  2  0
 15 16  1  0
 16 17  2  0
 17 18  1  0
 18 19  1  0
 19 20  1  0
 20 21  2  0
 20 22  1  0
 22 23  2  0
 23 24  1  0
 23 25  1  0
 25 26  2  0
 26 27  1  0
 27 28  2  0
 28 29  1  0
 18 30  2  0
 11 31  1  0
 31 32  2  0
 32 33  1  0
  5 34  1  0
 34 35  1  0
 34 36  2  0
 34 37  2  0
 33  6  1  0
 32  8  1  0
 30 14  1  0
 28 22  1  0
  1 38  1  0
  1 39  1  0
  1 40  1  0
  5 41  1  6
  9 42  1  0
 10 43  1  0
 15 44  1  0
 16 45  1  0
 17 46  1  0
 25 47  1  0
 26 48  1  0
 27 49  1  0
 30 50  1  0
 31 51  1  0
 35 52  1  0
M  CHG  3   2  -1  19  -1  35  -1
M  END
>  <UniqueID>  (75) 
69

>  <SMILES>  (75) 
C[N-]C(=O)[C@@H](c1nc2ccc(C(=O)c3cccc([N-]C(=O)c4c(F)cccc4F)c3)cc2s1)S([NH-])(=O)=O

>  <Energy>  (75) 
95.12420059742611

>  <Genealogy>  (75) 
C[N-]C(=O)C(c1nc2ccc(C(=O)c3cccc([N-]C(=O)c4c(F)cccc4F)c3)cc2s1)S([NH-])(=O)=O (protonated)
C[N-]C(=O)[C@@H](c1nc2ccc(C(=O)c3cccc([N-]C(=O)c4c(F)cccc4F)c3)cc2s1)S([NH-])(=O)=O (chirality)
C[N-]C(=O)[C@@H](c1nc2ccc(C(=O)c3cccc([N-]C(=O)c4c(F)cccc4F)c3)cc2s1)S([NH-])(=O)=O (3D coordinates assigned)
C[N-]C(=O)[C@@H](c1nc2ccc(C(=O)c3cccc([N-]C(=O)c4c(F)cccc4F)c3)cc2s1)S([NH-])(=O)=O (optimized conformer: 95.12420059742611 kcal/mol)

>  <smiles>  (75) 
CNC(=O)C(c1nc2ccc(C(=O)c3cccc(NC(=O)c4c(F)cccc4F)c3)cc2s1)S(N)(=O)=O

>  <score_type>  (75) 
oracle

>  <origin>  (75) 
adg

>  <m_score__min__energy>  (75) 
-14.44

>  <m_primary>  (75) 
energy

$$$$
75:0
     RDKit          3D

 40 42  0  0  0  0  0  0  0  0999 V2000
   56.0040   30.8580   51.9470 C   0  0  0  0  0  0  0  0  0  0  0  0
   56.9730   31.8810   52.5290 C   0  0  0  0  0  0  0  0  0  0  0  0
   58.0280   32.2490   51.5200 C   0  0  0  0  0  0  0  0  0  0  0  0
   58.6930   33.4830   51.6090 C   0  0  0  0  0  0  0  0  0  0  0  0
   59.6460   33.8410   50.6510 C   0  0  0  0  0  0  0  0  0  0  0  0
   59.9360   32.9790   49.5820 C   0  0  0  0  0  0  0  0  0  0  0  0
   60.9090   33.3560   48.5910 N   0  0  0  0  0  0  0  0  0  0  0  0
   60.9700   33.0060   47.2850 C   0  0  0  0  0  0  0  0  0  0  0  0
   59.9320   32.2760   46.5220 C   0  0  0  0  0  0  0  0  0  0  0  0
   60.0210   30.8830   46.3680 C   0  0  0  0  0  0  0  0  0  0  0  0
   59.0460   30.1870   45.6460 C   0  0  0  0  0  0  0  0  0  0  0  0
   57.9740   30.8770   45.0630 C   0  0  0  0  0  0  0  0  0  0  0  0
   56.7530   30.0040   44.1430 S   0  0  0  0  0  0  0  0  0  0  0  0
   57.4210   28.5170   43.5680 N   0  0  0  0  0  0  0  0  0  0  0  0
   55.5650   29.7150   45.0160 O   0  0  0  0  0  0  0  0  0  0  0  0
   56.3040   30.8410   42.9780 O   0  0  0  0  0  0  0  0  0  0  0  0
   57.8960   32.2690   45.1910 C   0  0  0  0  0  0  0  0  0  0  0  0
   58.8700   32.9650   45.9130 C   0  0  0  0  0  0  0  0  0  0  0  0
   62.1490   33.5050   46.7590 C   0  0  0  0  0  0  0  0  0  0  0  0
   62.7870   34.1410   47.7160 O   0  0  0  0  0  0  0  0  0  0  0  0
   62.0480   34.0480   48.7980 C   0  0  0  0  0  0  0  0  0  0  0  0
   62.3890   34.5280   49.9120 O   0  0  0  0  0  0  0  0  0  0  0  0
   59.2690   31.7470   49.4930 C   0  0  0  0  0  0  0  0  0  0  0  0
   58.3160   31.3880   50.4510 C   0  0  0  0  0  0  0  0  0  0  0  0
   55.4987   30.3245   52.7656 H   0  0  0  0  0  0  0  0  0  0  0  0
   55.2550   31.3733   51.3277 H   0  0  0  0  0  0  0  0  0  0  0  0
   56.5591   30.1380   51.3277 H   0  0  0  0  0  0  0  0  0  0  0  0
   56.4152   32.7851   52.8142 H   0  0  0  0  0  0  0  0  0  0  0  0
   57.4641   31.4417   53.4098 H   0  0  0  0  0  0  0  0  0  0  0  0
   58.4629   34.1707   52.4361 H   0  0  0  0  0  0  0  0  0  0  0  0
   60.1715   34.8036   50.7354 H   0  0  0  0  0  0  0  0  0  0  0  0
   60.8626   30.3359   46.8179 H   0  0  0  0  0  0  0  0  0  0  0  0
   59.1206   29.0951   45.5353 H   0  0  0  0  0  0  0  0  0  0  0  0
   58.1300   28.7610   42.8410 H   0  0  0  0  0  0  0  0  0  0  0  0
   56.6520   28.0060   43.0800 H   0  0  0  0  0  0  0  0  0  0  0  0
   57.0655   32.8169   44.7219 H   0  0  0  0  0  0  0  0  0  0  0  0
   58.8044   34.0592   46.0048 H   0  0  0  0  0  0  0  0  0  0  0  0
   62.4924   33.3894   45.7204 H   0  0  0  0  0  0  0  0  0  0  0  0
   59.4974   31.0601   48.6648 H   0  0  0  0  0  0  0  0  0  0  0  0
   57.7897   30.4258   50.3659 H   0  0  0  0  0  0  0  0  0  0  0  0
  1  2  1  0
  2  3  1  0
  3  4  2  0
  4  5  1  0
  5  6  2  0
  6  7  1  0
  7  8  1  0
  8  9  1  0
  9 10  2  0
 10 11  1  0
 11 12  2  0
 12 13  1  0
 13 14  1  0
 13 15  2  0
 13 16  2  0
 12 17  1  0
 17 18  2  0
  8 19  2  0
 19 20  1  0
 20 21  1  0
 21 22  2  0
  6 23  1  0
 23 24  2  0
 24  3  1  0
 21  7  1  0
 18  9  1  0
  1 25  1  0
  1 26  1  0
  1 27  1  0
  2 28  1  0
  2 29  1  0
  4 30  1  0
  5 31  1  0
 10 32  1  0
 11 33  1  0
 14 34  1  0
 14 35  1  0
 17 36  1  0
 18 37  1  0
 19 38  1  0
 23 39  1  0
 24 40  1  0
M  END
>  <UniqueID>  (76) 
70

>  <SMILES>  (76) 
CCc1ccc(-n2c(-c3ccc(S(N)(=O)=O)cc3)coc2=O)cc1

>  <Energy>  (76) 
80.19574255058554

>  <Genealogy>  (76) 
CCc1ccc(-n2c(-c3ccc(S(N)(=O)=O)cc3)coc2=O)cc1 (3D coordinates assigned)
CCc1ccc(-n2c(-c3ccc(S(N)(=O)=O)cc3)coc2=O)cc1 (optimized conformer: 80.19574255058554 kcal/mol)

>  <smiles>  (76) 
CCc1ccc(-n2c(-c3ccc(S(N)(=O)=O)cc3)coc2=O)cc1

>  <score_type>  (76) 
oracle

>  <origin>  (76) 
adg

>  <m_score__min__energy>  (76) 
-8.0600000000000005

>  <m_primary>  (76) 
energy

$$$$
76:0
     RDKit          3D

 43 44  0  0  0  0  0  0  0  0999 V2000
   58.5380   32.3160   49.2330 C   0  0  0  0  0  0  0  0  0  0  0  0
   57.8150   32.6400   48.0490 O   0  0  0  0  0  0  0  0  0  0  0  0
   58.3180   33.4310   47.0050 C   0  0  0  0  0  0  0  0  0  0  0  0
   59.3830   34.3340   47.1950 C   0  0  0  0  0  0  0  0  0  0  0  0
   59.8540   35.1030   46.1260 C   0  0  0  0  0  0  0  0  0  0  0  0
   59.2710   34.9820   44.8630 C   0  0  0  0  0  0  0  0  0  0  0  0
   58.2170   34.0870   44.6640 C   0  0  0  0  0  0  0  0  0  0  0  0
   57.7420   33.3090   45.7270 C   0  0  0  0  0  0  0  0  0  0  0  0
   56.6950   32.3680   45.4950 N   0  0  0  0  0  0  0  0  0  0  0  0
   57.0180   30.8650   44.7010 S   0  0  0  0  0  0  0  0  0  0  0  0
   57.6620   31.1260   43.3670 O   0  0  0  0  0  0  0  0  0  0  0  0
   55.7220   30.1400   44.4750 O   0  0  0  0  0  0  0  0  0  0  0  0
   58.0840   29.8810   45.7000 C   0  0  0  0  0  0  0  0  0  0  0  0
   57.7690   28.5480   45.9750 C   0  0  0  0  0  0  0  0  0  0  0  0
   58.5780   27.7980   46.8280 C   0  0  0  0  0  0  0  0  0  0  0  0
   59.7160   28.3660   47.4250 C   0  0  0  0  0  0  0  0  0  0  0  0
   60.5570   27.5010   48.2840 C   0  0  0  0  0  0  0  0  0  0  0  0
   60.7580   27.8040   49.6660 N   0  0  0  0  0  0  0  0  0  0  0  0
   61.1430   26.5050   47.7800 O   0  0  0  0  0  0  0  0  0  0  0  0
   60.0250   29.7300   47.1720 C   0  0  0  0  0  0  0  0  0  0  0  0
   61.1200   30.4440   47.8800 C   0  0  0  0  0  0  0  0  0  0  0  0
   61.1270   30.4660   49.1400 O   0  0  0  0  0  0  0  0  0  0  0  0
   62.0930   31.2340   47.1800 N   0  0  0  0  0  0  0  0  0  0  0  0
   62.8750   32.1520   47.6750 C   0  0  0  0  0  0  0  0  0  0  0  0
   64.1370   32.4800   47.0790 N   0  0  0  0  0  0  0  0  0  0  0  0
   62.4840   32.8120   48.8790 N   0  0  0  0  0  0  0  0  0  0  0  0
   59.2050   30.4650   46.2970 C   0  0  0  0  0  0  0  0  0  0  0  0
   57.9375   32.5851   50.1145 H   0  0  0  0  0  0  0  0  0  0  0  0
   58.7501   31.2368   49.2494 H   0  0  0  0  0  0  0  0  0  0  0  0
   59.4847   32.8760   49.2494 H   0  0  0  0  0  0  0  0  0  0  0  0
   59.8457   34.4344   48.1879 H   0  0  0  0  0  0  0  0  0  0  0  0
   60.6863   35.8054   46.2807 H   0  0  0  0  0  0  0  0  0  0  0  0
   59.6414   35.5910   44.0252 H   0  0  0  0  0  0  0  0  0  0  0  0
   57.7585   33.9931   43.6685 H   0  0  0  0  0  0  0  0  0  0  0  0
   56.8804   28.0888   45.5174 H   0  0  0  0  0  0  0  0  0  0  0  0
   58.3220   26.7486   47.0361 H   0  0  0  0  0  0  0  0  0  0  0  0
   61.3330   27.1690   50.2630 H   0  0  0  0  0  0  0  0  0  0  0  0
   60.3860   28.6840   50.0850 H   0  0  0  0  0  0  0  0  0  0  0  0
   64.6940   33.2800   47.4520 H   0  0  0  0  0  0  0  0  0  0  0  0
   64.5840   31.8790   46.3540 H   0  0  0  0  0  0  0  0  0  0  0  0
   63.0990   33.5360   49.3110 H   0  0  0  0  0  0  0  0  0  0  0  0
   61.5770   32.5800   49.3410 H   0  0  0  0  0  0  0  0  0  0  0  0
   59.4495   31.5151   46.0792 H   0  0  0  0  0  0  0  0  0  0  0  0
  1  2  1  0
  2  3  1  0
  3  4  2  0
  4  5  1  0
  5  6  2  0
  6  7  1  0
  7  8  2  0
  8  9  1  0
  9 10  1  0
 10 11  2  0
 10 12  2  0
 10 13  1  0
 13 14  2  0
 14 15  1  0
 15 16  2  0
 16 17  1  0
 17 18  1  0
 17 19  2  0
 16 20  1  0
 20 21  1  0
 21 22  2  0
 21 23  1  0
 23 24  2  3
 24 25  1  0
 24 26  1  0
 20 27  2  0
  8  3  1  0
 27 13  1  0
  1 28  1  0
  1 29  1  0
  1 30  1  0
  4 31  1  0
  5 32  1  0
  6 33  1  0
  7 34  1  0
 14 35  1  0
 15 36  1  0
 18 37  1  0
 18 38  1  0
 25 39  1  0
 25 40  1  0
 26 41  1  0
 26 42  1  0
 27 43  1  0
M  CHG  1   9  -1
M  END
>  <UniqueID>  (77) 
71

>  <SMILES>  (77) 
COc1ccccc1[N-]S(=O)(=O)c1ccc(C(N)=O)c(C(=O)N=C(N)N)c1

>  <Energy>  (77) 
61.77926654739553

>  <Genealogy>  (77) 
COc1ccccc1[N-]S(=O)(=O)c1ccc(C(N)=O)c(C(=O)N=C(N)N)c1 (protonated)
COc1ccccc1[N-]S(=O)(=O)c1ccc(C(N)=O)c(C(=O)N=C(N)N)c1 (3D coordinates assigned)
COc1ccccc1[N-]S(=O)(=O)c1ccc(C(N)=O)c(C(=O)N=C(N)N)c1 (optimized conformer: 61.77926654739553 kcal/mol)

>  <smiles>  (77) 
COc1ccccc1NS(=O)(=O)c1ccc(C(N)=O)c(C(=O)N=C(N)N)c1

>  <score_type>  (77) 
oracle

>  <origin>  (77) 
adg

>  <m_score__min__energy>  (77) 
-10.07

>  <m_primary>  (77) 
energy

$$$$
77:0
     RDKit          3D

 51 53  0  0  0  0  0  0  0  0999 V2000
   66.7530   31.3350   51.0700 C   0  0  0  0  0  0  0  0  0  0  0  0
   65.8450   31.7700   50.0650 O   0  0  0  0  0  0  0  0  0  0  0  0
   65.1810   32.9990   50.1280 C   0  0  0  0  0  0  0  0  0  0  0  0
   65.6020   33.9060   50.8980 O   0  0  0  0  0  0  0  0  0  0  0  0
   63.9910   33.2390   49.2820 C   0  0  0  0  0  0  0  0  0  0  0  0
   63.9740   32.8070   47.9440 C   0  0  0  0  0  0  0  0  0  0  0  0
   62.8760   33.0840   47.1250 C   0  0  0  0  0  0  0  0  0  0  0  0
   61.7760   33.7960   47.6310 C   0  0  0  0  0  0  0  0  0  0  0  0
   60.6440   34.1050   46.8070 N   0  0  0  0  0  0  0  0  0  0  0  0
   59.3270   33.5600   46.9610 C   0  0  0  0  0  0  0  0  0  0  0  0
   58.6960   33.8020   48.0250 O   0  0  0  0  0  0  0  0  0  0  0  0
   58.6690   32.7960   45.8750 C   0  0  0  0  0  0  0  0  0  0  0  0
   58.2150   33.4290   44.7100 C   0  0  0  0  0  0  0  0  0  0  0  0
   57.6290   32.6910   43.7320 N   0  0  0  0  0  0  0  0  0  0  0  0
   57.4840   31.3440   43.8420 C   0  0  0  0  0  0  0  0  0  0  0  0
   56.6400   30.4870   42.5610 Cl  0  0  0  0  0  0  0  0  0  0  0  0
   57.9550   30.6970   45.0010 C   0  0  0  0  0  0  0  0  0  0  0  0
   57.8240   29.2420   45.2140 C   0  0  0  0  0  0  0  0  0  0  0  0
   58.9520   28.4070   45.2310 C   0  0  0  0  0  0  0  0  0  0  0  0
   58.8110   27.0370   45.4730 C   0  0  0  0  0  0  0  0  0  0  0  0
   57.5440   26.4840   45.7170 C   0  0  0  0  0  0  0  0  0  0  0  0
   57.4080   25.0730   45.9530 N   0  0  0  0  0  0  0  0  0  0  0  0
   57.9500   24.1360   44.9630 C   0  0  0  0  0  0  0  0  0  0  0  0
   56.5080   24.6060   47.0170 C   0  0  0  0  0  0  0  0  0  0  0  0
   55.3880   23.7050   46.4800 C   0  0  0  0  0  0  0  0  0  0  0  0
   54.2250   24.4450   46.2270 O   0  0  0  0  0  0  0  0  0  0  0  0
   56.4160   27.3210   45.7120 C   0  0  0  0  0  0  0  0  0  0  0  0
   55.1500   26.8050   45.9610 O   0  0  0  0  0  0  0  0  0  0  0  0
   56.5600   28.6900   45.4670 C   0  0  0  0  0  0  0  0  0  0  0  0
   58.5280   31.4490   45.9800 N   0  0  0  0  0  0  0  0  0  0  0  0
   61.7680   34.1810   48.9760 C   0  0  0  0  0  0  0  0  0  0  0  0
   62.8700   33.9170   49.7930 C   0  0  0  0  0  0  0  0  0  0  0  0
   66.3263   31.5394   52.0630 H   0  0  0  0  0  0  0  0  0  0  0  0
   66.9294   30.2546   50.9620 H   0  0  0  0  0  0  0  0  0  0  0  0
   67.7055   31.8746   50.9620 H   0  0  0  0  0  0  0  0  0  0  0  0
   64.8303   32.2475   47.5394 H   0  0  0  0  0  0  0  0  0  0  0  0
   62.8732   32.7429   46.0792 H   0  0  0  0  0  0  0  0  0  0  0  0
   58.3325   34.5159   44.5886 H   0  0  0  0  0  0  0  0  0  0  0  0
   59.9509   28.8320   45.0533 H   0  0  0  0  0  0  0  0  0  0  0  0
   59.6992   26.3880   45.4722 H   0  0  0  0  0  0  0  0  0  0  0  0
   58.4359   23.2959   45.4808 H   0  0  0  0  0  0  0  0  0  0  0  0
   57.1328   23.7550   44.3329 H   0  0  0  0  0  0  0  0  0  0  0  0
   58.6877   24.6544   44.3329 H   0  0  0  0  0  0  0  0  0  0  0  0
   57.0958   24.0385   47.7535 H   0  0  0  0  0  0  0  0  0  0  0  0
   56.0386   25.4905   47.4724 H   0  0  0  0  0  0  0  0  0  0  0  0
   55.7238   23.2322   45.5453 H   0  0  0  0  0  0  0  0  0  0  0  0
   55.1592   22.9414   47.2380 H   0  0  0  0  0  0  0  0  0  0  0  0
   54.4570   25.3990   46.3760 H   0  0  0  0  0  0  0  0  0  0  0  0
   55.6730   29.3405   45.4728 H   0  0  0  0  0  0  0  0  0  0  0  0
   60.8889   34.6945   49.3926 H   0  0  0  0  0  0  0  0  0  0  0  0
   62.8608   34.2419   50.8439 H   0  0  0  0  0  0  0  0  0  0  0  0
  1  2  1  0
  2  3  1  0
  3  4  2  0
  3  5  1  0
  5  6  2  0
  6  7  1  0
  7  8  2  0
  8  9  1  0
  9 10  1  0
 10 11  2  0
 10 12  1  0
 12 13  2  0
 13 14  1  0
 14 15  2  0
 15 16  1  0
 15 17  1  0
 17 18  1  0
 18 19  2  0
 19 20  1  0
 20 21  2  0
 21 22  1  0
 22 23  1  0
 22 24  1  0
 24 25  1  0
 25 26  1  0
 21 27  1  0
 27 28  1  0
 27 29  2  0
 17 30  2  0
  8 31  1  0
 31 32  2  0
 32  5  1  0
 30 12  1  0
 29 18  1  0
  1 33  1  0
  1 34  1  0
  1 35  1  0
  6 36  1  0
  7 37  1  0
 13 38  1  0
 19 39  1  0
 20 40  1  0
 23 41  1  0
 23 42  1  0
 23 43  1  0
 24 44  1  0
 24 45  1  0
 25 46  1  0
 25 47  1  0
 26 48  1  0
 29 49  1  0
 31 50  1  0
 32 51  1  0
M  CHG  2   9  -1  28  -1
M  END
>  <UniqueID>  (78) 
72

>  <SMILES>  (78) 
COC(=O)c1ccc([N-]C(=O)c2cnc(Cl)c(-c3ccc(N(C)CCO)c([O-])c3)n2)cc1

>  <Energy>  (78) 
66.850067935495

>  <Genealogy>  (78) 
COC(=O)c1ccc([N-]C(=O)c2cnc(Cl)c(-c3ccc(N(C)CCO)c([O-])c3)n2)cc1 (protonated)
COC(=O)c1ccc([N-]C(=O)c2cnc(Cl)c(-c3ccc(N(C)CCO)c([O-])c3)n2)cc1 (3D coordinates assigned)
COC(=O)c1ccc([N-]C(=O)c2cnc(Cl)c(-c3ccc(N(C)CCO)c([O-])c3)n2)cc1 (optimized conformer: 66.850067935495 kcal/mol)

>  <smiles>  (78) 
COC(=O)c1ccc(NC(=O)c2cnc(Cl)c(-c3ccc(N(C)CCO)c(O)c3)n2)cc1

>  <score_type>  (78) 
oracle

>  <origin>  (78) 
adg

>  <m_score__min__energy>  (78) 
-12.699999999999999

>  <m_primary>  (78) 
energy

$$$$
78:0
     RDKit          3D

 41 44  0  0  0  0  0  0  0  0999 V2000
   58.0840   27.9080   43.8020 N   0  0  0  0  0  0  0  0  0  0  0  0
   57.2650   27.7510   45.0050 C   0  0  2  0  0  0  0  0  0  0  0  0
   57.8610   28.5270   46.1540 C   0  0  0  0  0  0  0  0  0  0  0  0
   57.7610   28.0690   47.3240 O   0  0  0  0  0  0  0  0  0  0  0  0
   58.5970   29.7410   45.9390 N   0  0  0  0  0  0  0  0  0  0  0  0
   57.9610   30.8860   45.2820 C   0  0  0  0  0  0  0  0  0  0  0  0
   58.5420   32.1800   45.7850 C   0  0  0  0  0  0  0  0  0  0  0  0
   57.8250   33.3730   45.6080 C   0  0  0  0  0  0  0  0  0  0  0  0
   58.3560   34.5900   46.0360 C   0  0  0  0  0  0  0  0  0  0  0  0
   59.6160   34.6370   46.6340 C   0  0  0  0  0  0  0  0  0  0  0  0
   60.3600   33.4610   46.8050 C   0  0  0  0  0  0  0  0  0  0  0  0
   61.6320   33.5050   47.3930 C   0  0  0  0  0  0  0  0  0  0  0  0
   62.3760   32.3340   47.5480 C   0  0  0  0  0  0  0  0  0  0  0  0
   61.8550   31.1090   47.1250 C   0  0  0  0  0  0  0  0  0  0  0  0
   60.5770   31.0380   46.5510 C   0  0  0  0  0  0  0  0  0  0  0  0
   59.8250   32.2200   46.3750 C   0  0  0  0  0  0  0  0  0  0  0  0
   60.0550   29.7100   46.0700 C   0  0  0  0  0  0  0  0  0  0  0  0
   57.1010   26.2920   45.3980 C   0  0  0  0  0  0  0  0  0  0  0  0
   58.1860   25.3910   45.3480 C   0  0  0  0  0  0  0  0  0  0  0  0
   58.0290   24.0680   45.7670 C   0  0  0  0  0  0  0  0  0  0  0  0
   56.7960   23.6260   46.2500 C   0  0  0  0  0  0  0  0  0  0  0  0
   55.7170   24.5080   46.3180 C   0  0  0  0  0  0  0  0  0  0  0  0
   55.8640   25.8360   45.9020 C   0  0  0  0  0  0  0  0  0  0  0  0
   54.7770   26.6970   45.9990 O   0  0  0  0  0  0  0  0  0  0  0  0
   57.5610   27.4950   42.9950 H   0  0  0  0  0  0  0  0  0  0  0  0
   58.1730   28.9300   43.5950 H   0  0  0  0  0  0  0  0  0  0  0  0
   56.2669   28.1501   44.7715 H   0  0  0  0  0  0  0  0  0  0  0  0
   58.1238   30.8153   44.1964 H   0  0  0  0  0  0  0  0  0  0  0  0
   56.8848   30.8703   45.5091 H   0  0  0  0  0  0  0  0  0  0  0  0
   56.8357   33.3485   45.1277 H   0  0  0  0  0  0  0  0  0  0  0  0
   57.7789   35.5167   45.9015 H   0  0  0  0  0  0  0  0  0  0  0  0
   60.0268   35.5997   46.9723 H   0  0  0  0  0  0  0  0  0  0  0  0
   62.0453   34.4659   47.7335 H   0  0  0  0  0  0  0  0  0  0  0  0
   63.3758   32.3761   48.0047 H   0  0  0  0  0  0  0  0  0  0  0  0
   62.4517   30.1925   47.2429 H   0  0  0  0  0  0  0  0  0  0  0  0
   60.5003   29.4808   45.0906 H   0  0  0  0  0  0  0  0  0  0  0  0
   60.3267   28.9374   46.8044 H   0  0  0  0  0  0  0  0  0  0  0  0
   59.1630   25.7334   44.9761 H   0  0  0  0  0  0  0  0  0  0  0  0
   58.8794   23.3722   45.7163 H   0  0  0  0  0  0  0  0  0  0  0  0
   56.6752   22.5827   46.5769 H   0  0  0  0  0  0  0  0  0  0  0  0
   54.7467   24.1580   46.7002 H   0  0  0  0  0  0  0  0  0  0  0  0
  1  2  1  0
  2  3  1  0
  3  4  2  0
  3  5  1  0
  5  6  1  0
  6  7  1  0
  7  8  2  0
  8  9  1  0
  9 10  2  0
 10 11  1  0
 11 12  2  0
 12 13  1  0
 13 14  2  0
 14 15  1  0
 15 16  2  0
 15 17  1  0
  2 18  1  0
 18 19  2  0
 19 20  1  0
 20 21  2  0
 21 22  1  0
 22 23  2  0
 23 24  1  0
 17  5  1  0
 23 18  1  0
 16  7  1  0
 16 11  1  0
  1 25  1  0
  1 26  1  0
  2 27  1  6
  6 28  1  0
  6 29  1  0
  8 30  1  0
  9 31  1  0
 10 32  1  0
 12 33  1  0
 13 34  1  0
 14 35  1  0
 17 36  1  0
 17 37  1  0
 19 38  1  0
 20 39  1  0
 21 40  1  0
 22 41  1  0
M  CHG  1  24  -1
M  END
>  <UniqueID>  (79) 
73

>  <SMILES>  (79) 
N[C@H](C(=O)N1Cc2cccc3cccc(c23)C1)c1ccccc1[O-]

>  <Energy>  (79) 
55.68672256964029

>  <Genealogy>  (79) 
NC(C(=O)N1Cc2cccc3cccc(c23)C1)c1ccccc1[O-] (protonated)
N[C@H](C(=O)N1Cc2cccc3cccc(c23)C1)c1ccccc1[O-] (chirality)
N[C@H](C(=O)N1Cc2cccc3cccc(c23)C1)c1ccccc1[O-] (3D coordinates assigned)
N[C@H](C(=O)N1Cc2cccc3cccc(c23)C1)c1ccccc1[O-] (nonaromatic ring conformer: 55.68672256964029 kcal/mol)

>  <smiles>  (79) 
NC(C(=O)N1Cc2cccc3cccc(c23)C1)c1ccccc1O

>  <score_type>  (79) 
oracle

>  <origin>  (79) 
adg

>  <m_score__min__energy>  (79) 
-12.18

>  <m_primary>  (79) 
energy

$$$$
79:0
     RDKit          3D

 22 23  0  0  0  0  0  0  0  0999 V2000
   59.3840   25.4800   46.5660 O   0  0  0  0  0  0  0  0  0  0  0  0
   58.1790   25.7800   46.3680 C   0  0  0  0  0  0  0  0  0  0  0  0
   57.8440   27.0250   45.8300 C   0  0  0  0  0  0  0  0  0  0  0  0
   56.4880   27.3280   45.6340 C   0  0  0  0  0  0  0  0  0  0  0  0
   56.0730   28.5750   45.0540 N   0  0  0  0  0  0  0  0  0  0  0  0
   56.8380   29.7920   45.0980 C   0  0  0  0  0  0  0  0  0  0  0  0
   56.6200   30.7790   44.1250 C   0  0  0  0  0  0  0  0  0  0  0  0
   57.3320   31.9820   44.1660 C   0  0  0  0  0  0  0  0  0  0  0  0
   58.2570   32.2150   45.1880 C   0  0  0  0  0  0  0  0  0  0  0  0
   59.2270   33.8590   45.2430 Br  0  0  0  0  0  0  0  0  0  0  0  0
   58.4630   31.2470   46.1760 C   0  0  0  0  0  0  0  0  0  0  0  0
   57.7520   30.0430   46.1380 C   0  0  0  0  0  0  0  0  0  0  0  0
   55.5470   26.3940   45.9390 N   0  0  0  0  0  0  0  0  0  0  0  0
   55.8930   25.1880   46.4600 C   0  0  0  0  0  0  0  0  0  0  0  0
   55.0010   24.3460   46.7430 O   0  0  0  0  0  0  0  0  0  0  0  0
   57.2010   24.8890   46.6750 N   0  0  0  0  0  0  0  0  0  0  0  0
   58.6262   27.7519   45.5658 H   0  0  0  0  0  0  0  0  0  0  0  0
   55.1470   28.5960   44.5710 H   0  0  0  0  0  0  0  0  0  0  0  0
   55.8848   30.6056   43.3253 H   0  0  0  0  0  0  0  0  0  0  0  0
   57.1639   32.7462   43.3928 H   0  0  0  0  0  0  0  0  0  0  0  0
   59.1854   31.4327   46.9845 H   0  0  0  0  0  0  0  0  0  0  0  0
   57.9080   29.2895   46.9241 H   0  0  0  0  0  0  0  0  0  0  0  0
  1  2  2  0
  2  3  1  0
  3  4  2  0
  4  5  1  0
  5  6  1  0
  6  7  2  0
  7  8  1  0
  8  9  2  0
  9 10  1  0
  9 11  1  0
 11 12  2  0
  4 13  1  0
 13 14  1  0
 14 15  2  0
 14 16  1  0
 16  2  1  0
 12  6  1  0
  3 17  1  0
  5 18  1  0
  7 19  1  0
  8 20  1  0
 11 21  1  0
 12 22  1  0
M  CHG  2  13  -1  16  -1
M  END
>  <UniqueID>  (80) 
74

>  <SMILES>  (80) 
O=c1cc(Nc2ccc(Br)cc2)[n-]c(=O)[n-]1

>  <Energy>  (80) 
29.182035879070153

>  <Genealogy>  (80) 
O=c1cc(Nc2ccc(Br)cc2)[n-]c(=O)[n-]1 (protonated)
O=c1cc(Nc2ccc(Br)cc2)[n-]c(=O)[n-]1 (3D coordinates assigned)
O=c1cc(Nc2ccc(Br)cc2)[n-]c(=O)[n-]1 (optimized conformer: 29.182035879070153 kcal/mol)

>  <smiles>  (80) 
O=c1cc(Nc2ccc(Br)cc2)[nH]c(=O)[nH]1

>  <score_type>  (80) 
oracle

>  <origin>  (80) 
adg

>  <m_score__min__energy>  (80) 
-10.390000000000001

>  <m_primary>  (80) 
energy

$$$$
80:0
     RDKit          3D

 49 53  0  0  0  0  0  0  0  0999 V2000
   56.6240   33.3920   45.2450 O   0  0  0  0  0  0  0  0  0  0  0  0
   57.7650   32.8550   45.2850 C   0  0  0  0  0  0  0  0  0  0  0  0
   58.5080   32.6810   43.9930 C   0  0  0  0  0  0  0  0  0  0  0  0
   57.3900   31.9930   42.7290 S   0  0  0  0  0  0  0  0  0  0  0  0
   56.8890   30.6190   43.7590 C   0  0  0  0  0  0  0  0  0  0  0  0
   55.6190   30.4010   44.1420 N   0  0  0  0  0  0  0  0  0  0  0  0
   55.6360   29.3080   44.8830 N   0  0  0  0  0  0  0  0  0  0  0  0
   56.9160   28.8890   44.9330 C   0  0  0  0  0  0  0  0  0  0  0  0
   57.3700   27.6850   45.6690 C   0  0  0  0  0  0  0  0  0  0  0  0
   58.7230   27.5590   46.0370 C   0  0  0  0  0  0  0  0  0  0  0  0
   59.1680   26.4300   46.7310 C   0  0  0  0  0  0  0  0  0  0  0  0
   58.2720   25.4150   47.0650 C   0  0  0  0  0  0  0  0  0  0  0  0
   56.9270   25.5260   46.7070 C   0  0  0  0  0  0  0  0  0  0  0  0
   56.4720   26.6510   46.0120 C   0  0  0  0  0  0  0  0  0  0  0  0
   55.1580   26.7230   45.6800 F   0  0  0  0  0  0  0  0  0  0  0  0
   57.7430   29.6940   44.2340 N   0  0  0  0  0  0  0  0  0  0  0  0
   58.3370   32.4460   46.5980 C   0  0  0  0  0  0  0  0  0  0  0  0
   58.6690   31.0970   46.8280 C   0  0  0  0  0  0  0  0  0  0  0  0
   59.2100   30.6920   48.0500 C   0  0  0  0  0  0  0  0  0  0  0  0
   59.4390   31.6280   49.0740 C   0  0  0  0  0  0  0  0  0  0  0  0
   60.0090   31.2460   50.3370 N   0  0  0  0  0  0  0  0  0  0  0  0
   61.4850   30.3460   50.4900 S   0  0  0  0  0  0  0  0  0  0  0  0
   61.4570   29.1920   49.5260 O   0  0  0  0  0  0  0  0  0  0  0  0
   61.5990   29.8100   51.8880 O   0  0  0  0  0  0  0  0  0  0  0  0
   62.8700   31.3940   50.1730 C   0  0  0  0  0  0  0  0  0  0  0  0
   63.8920   31.5270   51.1280 C   0  0  0  0  0  0  0  0  0  0  0  0
   65.0090   32.3390   50.8780 C   0  0  0  0  0  0  0  0  0  0  0  0
   65.1280   33.0330   49.6680 C   0  0  0  0  0  0  0  0  0  0  0  0
   64.1200   32.9160   48.7120 C   0  0  0  0  0  0  0  0  0  0  0  0
   64.1620   33.5570   47.5180 N   0  0  0  0  0  0  0  0  0  0  0  0
   62.7400   33.0360   46.8560 S   0  0  0  0  0  0  0  0  0  0  0  0
   62.0480   32.0400   47.9790 N   0  0  0  0  0  0  0  0  0  0  0  0
   62.9820   32.0960   48.9630 C   0  0  0  0  0  0  0  0  0  0  0  0
   59.0930   32.9690   48.8550 C   0  0  0  0  0  0  0  0  0  0  0  0
   58.5530   33.3760   47.6330 C   0  0  0  0  0  0  0  0  0  0  0  0
   58.8862   33.6569   43.6544 H   0  0  0  0  0  0  0  0  0  0  0  0
   59.3510   31.9915   44.1477 H   0  0  0  0  0  0  0  0  0  0  0  0
   59.4357   28.3553   45.7764 H   0  0  0  0  0  0  0  0  0  0  0  0
   60.2273   26.3421   47.0142 H   0  0  0  0  0  0  0  0  0  0  0  0
   58.6247   24.5272   47.6103 H   0  0  0  0  0  0  0  0  0  0  0  0
   56.2219   24.7247   46.9729 H   0  0  0  0  0  0  0  0  0  0  0  0
   58.5001   30.3532   46.0354 H   0  0  0  0  0  0  0  0  0  0  0  0
   59.4588   29.6329   48.2127 H   0  0  0  0  0  0  0  0  0  0  0  0
   59.6000   31.6340   51.2160 H   0  0  0  0  0  0  0  0  0  0  0  0
   63.8156   30.9878   52.0837 H   0  0  0  0  0  0  0  0  0  0  0  0
   65.7977   32.4309   51.6392 H   0  0  0  0  0  0  0  0  0  0  0  0
   66.0077   33.6641   49.4736 H   0  0  0  0  0  0  0  0  0  0  0  0
   59.2486   33.7085   49.6543 H   0  0  0  0  0  0  0  0  0  0  0  0
   58.2938   34.4337   47.4775 H   0  0  0  0  0  0  0  0  0  0  0  0
  1  2  2  0
  2  3  1  0
  3  4  1  0
  4  5  1  0
  5  6  2  0
  6  7  1  0
  7  8  1  0
  8  9  1  0
  9 10  2  0
 10 11  1  0
 11 12  2  0
 12 13  1  0
 13 14  2  0
 14 15  1  0
  8 16  2  0
  2 17  1  0
 17 18  2  0
 18 19  1  0
 19 20  2  0
 20 21  1  0
 21 22  1  0
 22 23  2  0
 22 24  2  0
 22 25  1  0
 25 26  2  0
 26 27  1  0
 27 28  2  0
 28 29  1  0
 29 30  2  0
 30 31  1  0
 31 32  1  0
 32 33  2  0
 20 34  1  0
 34 35  2  0
 16  5  1  0
 35 17  1  0
 14  9  1  0
 33 25  1  0
 33 29  1  0
  3 36  1  0
  3 37  1  0
 10 38  1  0
 11 39  1  0
 12 40  1  0
 13 41  1  0
 18 42  1  0
 19 43  1  0
 21 44  1  0
 26 45  1  0
 27 46  1  0
 28 47  1  0
 34 48  1  0
 35 49  1  0
M  CHG  1   7  -1
M  END
>  <UniqueID>  (81) 
75

>  <SMILES>  (81) 
O=C(CSc1n[n-]c(-c2ccccc2F)n1)c1ccc(NS(=O)(=O)c2cccc3nsnc23)cc1

>  <Energy>  (81) 
127.04715865843906

>  <Genealogy>  (81) 
O=C(CSc1n[n-]c(-c2ccccc2F)n1)c1ccc(NS(=O)(=O)c2cccc3nsnc23)cc1 (protonated)
O=C(CSc1n[n-]c(-c2ccccc2F)n1)c1ccc(NS(=O)(=O)c2cccc3nsnc23)cc1 (3D coordinates assigned)
O=C(CSc1n[n-]c(-c2ccccc2F)n1)c1ccc(NS(=O)(=O)c2cccc3nsnc23)cc1 (optimized conformer: 127.04715865843906 kcal/mol)

>  <smiles>  (81) 
O=C(CSc1n[nH]c(-c2ccccc2F)n1)c1ccc(NS(=O)(=O)c2cccc3nsnc23)cc1

>  <score_type>  (81) 
oracle

>  <origin>  (81) 
adg

>  <m_score__min__energy>  (81) 
-11.83

>  <m_primary>  (81) 
energy

$$$$
81:0
     RDKit          3D

 38 40  0  0  0  0  0  0  0  0999 V2000
   57.6509   20.2033   42.6281 H   0  0  0  0  0  0  0  0  0  0  0  0
   57.4070   21.1480   43.1360 C   0  0  0  0  0  0  0  0  0  0  0  0
   56.2140   21.7570   42.9130 N   0  0  0  0  0  0  0  0  0  0  0  0
   55.8920   22.9240   43.5280 C   0  0  0  0  0  0  0  0  0  0  0  0
   54.9204   23.4016   43.3334 H   0  0  0  0  0  0  0  0  0  0  0  0
   56.8070   23.5190   44.4150 C   0  0  0  0  0  0  0  0  0  0  0  0
   56.4990   24.7910   45.1060 C   0  0  0  0  0  0  0  0  0  0  0  0
   57.3830   25.7270   45.3490 O   0  0  0  0  0  0  0  0  0  0  0  0
   56.7490   26.6930   45.9700 C   0  0  0  0  0  0  0  0  0  0  0  0
   57.3450   27.7830   46.3570 N   0  0  0  0  0  0  0  0  0  0  0  0
   58.3670   28.4980   45.6390 C   0  0  0  0  0  0  0  0  0  0  0  0
   59.2360   27.8640   44.9800 O   0  0  0  0  0  0  0  0  0  0  0  0
   58.3940   29.9880   45.6810 C   0  0  0  0  0  0  0  0  0  0  0  0
   59.4820   30.6380   46.2940 C   0  0  0  0  0  0  0  0  0  0  0  0
   60.2942   30.0393   46.7320 H   0  0  0  0  0  0  0  0  0  0  0  0
   59.5450   32.0290   46.3540 C   0  0  0  0  0  0  0  0  0  0  0  0
   60.4048   32.5152   46.8381 H   0  0  0  0  0  0  0  0  0  0  0  0
   58.5280   32.8100   45.8060 C   0  0  0  0  0  0  0  0  0  0  0  0
   58.6420   34.2060   45.8940 O   0  0  0  0  0  0  0  0  0  0  0  0
   59.7480   34.8900   46.4770 C   0  0  0  0  0  0  0  0  0  0  0  0
   59.6717   34.8428   47.5733 H   0  0  0  0  0  0  0  0  0  0  0  0
   60.6854   34.4137   46.1538 H   0  0  0  0  0  0  0  0  0  0  0  0
   59.7406   35.9414   46.1538 H   0  0  0  0  0  0  0  0  0  0  0  0
   57.4330   32.1790   45.1920 C   0  0  0  0  0  0  0  0  0  0  0  0
   56.6269   32.7899   44.7595 H   0  0  0  0  0  0  0  0  0  0  0  0
   57.3540   30.7720   45.1230 C   0  0  0  0  0  0  0  0  0  0  0  0
   56.2580   30.1360   44.5130 O   0  0  0  0  0  0  0  0  0  0  0  0
   56.2060   29.7280   43.1490 C   0  0  0  0  0  0  0  0  0  0  0  0
   56.0671   28.6380   43.0974 H   0  0  0  0  0  0  0  0  0  0  0  0
   55.3644   30.2290   42.6482 H   0  0  0  0  0  0  0  0  0  0  0  0
   57.1463   30.0019   42.6482 H   0  0  0  0  0  0  0  0  0  0  0  0
   55.4370   26.4340   46.1590 N   0  0  0  0  0  0  0  0  0  0  0  0
   55.2820   25.2160   45.6050 C   0  0  0  0  0  0  0  0  0  0  0  0
   54.3394   24.6510   45.5574 H   0  0  0  0  0  0  0  0  0  0  0  0
   58.0040   22.8990   44.6350 N   0  0  0  0  0  0  0  0  0  0  0  0
   58.7030   23.3190   45.2890 H   0  0  0  0  0  0  0  0  0  0  0  0
   58.3200   21.7300   44.0140 C   0  0  0  0  0  0  0  0  0  0  0  0
   59.2900   21.2473   44.2038 H   0  0  0  0  0  0  0  0  0  0  0  0
  1  2  1  0
  2  3  2  0
  3  4  1  0
  4  5  1  0
  4  6  2  0
  6  7  1  0
  7  8  1  0
  8  9  1  0
  9 10  2  0
 10 11  1  0
 11 12  2  0
 11 13  1  0
 13 14  2  0
 14 15  1  0
 14 16  1  0
 16 17  1  0
 16 18  2  0
 18 19  1  0
 19 20  1  0
 20 21  1  0
 20 22  1  0
 20 23  1  0
 18 24  1  0
 24 25  1  0
 24 26  2  0
 26 27  1  0
 27 28  1  0
 28 29  1  0
 28 30  1  0
 28 31  1  0
  9 32  1  0
 32 33  1  0
 33 34  1  0
  6 35  1  0
 35 36  1  0
 35 37  2  0
 37 38  1  0
 37  2  1  0
 33  7  2  0
 26 13  1  0
M  CHG  2  32  -1  35   1
M  END
>  <UniqueID>  (82) 
76

>  <SMILES>  (82) 
COc1ccc(C(=O)/N=c2\[n-]cc(-c3cncc[nH+]3)o2)c(OC)c1

>  <Energy>  (82) 
76.61953471959671

>  <Genealogy>  (82) 
COc1ccc(C(=O)N=c2[n-]cc(-c3cncc[nH+]3)o2)c(OC)c1 (protonated)
COc1ccc(C(=O)/N=c2\[n-]cc(-c3cncc[nH+]3)o2)c(OC)c1 (cis-trans isomerization)
COc1ccc(C(=O)/N=c2\[n-]cc(-c3cncc[nH+]3)o2)c(OC)c1 (3D coordinates assigned)
COc1ccc(C(=O)/N=c2\[n-]cc(-c3cncc[nH+]3)o2)c(OC)c1 (optimized conformer: 76.61953471959671 kcal/mol)

>  <smiles>  (82) 
COc1ccc(C(=O)N=c2[nH]cc(-c3cnccn3)o2)c(OC)c1

>  <score_type>  (82) 
oracle

>  <origin>  (82) 
adg

>  <m_score__min__energy>  (82) 
-7.1699999999999999

>  <m_primary>  (82) 
energy

$$$$
82:0
     RDKit          3D

 39 42  0  0  0  0  0  0  0  0999 V2000
   60.9110   34.0860   48.1450 O   0  0  0  0  0  0  0  0  0  0  0  0
   61.2370   33.0910   47.0660 S   0  0  0  0  0  0  0  0  0  0  0  0
   62.0470   33.7730   45.9990 O   0  0  0  0  0  0  0  0  0  0  0  0
   62.1740   31.8000   47.7510 N   0  0  0  0  0  0  0  0  0  0  0  0
   63.1530   31.9740   48.7930 C   0  0  0  0  0  0  0  0  0  0  0  0
   63.0530   31.1950   49.9580 C   0  0  0  0  0  0  0  0  0  0  0  0
   63.9840   31.3380   50.9910 C   0  0  0  0  0  0  0  0  0  0  0  0
   65.0190   32.2670   50.8760 C   0  0  0  0  0  0  0  0  0  0  0  0
   65.1300   33.0490   49.7240 C   0  0  0  0  0  0  0  0  0  0  0  0
   64.2080   32.9020   48.6840 C   0  0  0  0  0  0  0  0  0  0  0  0
   59.7600   32.4640   46.3420 C   0  0  0  0  0  0  0  0  0  0  0  0
   58.8910   33.3340   45.6420 C   0  0  0  0  0  0  0  0  0  0  0  0
   57.6920   32.8520   45.0850 C   0  0  0  0  0  0  0  0  0  0  0  0
   57.3930   31.5020   45.2460 C   0  0  0  0  0  0  0  0  0  0  0  0
   56.2860   30.8670   44.8120 N   0  0  0  0  0  0  0  0  0  0  0  0
   56.4550   29.5900   45.2280 C   0  0  0  0  0  0  0  0  0  0  0  0
   55.5220   28.5890   44.9920 O   0  0  0  0  0  0  0  0  0  0  0  0
   57.6500   29.4120   45.9130 C   0  0  0  0  0  0  0  0  0  0  0  0
   58.1590   28.1550   46.5530 C   0  0  0  0  0  0  0  0  0  0  0  0
   58.9940   28.4770   47.7530 C   0  0  0  0  0  0  0  0  0  0  0  0
   58.5260   29.1800   48.8060 N   0  0  0  0  0  0  0  0  0  0  0  0
   59.5790   29.2490   49.6390 C   0  0  0  0  0  0  0  0  0  0  0  0
   60.6470   28.5930   49.0750 C   0  0  0  0  0  0  0  0  0  0  0  0
   60.2850   28.1030   47.8760 N   0  0  0  0  0  0  0  0  0  0  0  0
   58.2400   30.6550   45.9160 C   0  0  0  0  0  0  0  0  0  0  0  0
   59.4370   31.0990   46.4730 C   0  0  0  0  0  0  0  0  0  0  0  0
   61.9980   30.8410   47.3770 H   0  0  0  0  0  0  0  0  0  0  0  0
   62.2351   30.4663   50.0581 H   0  0  0  0  0  0  0  0  0  0  0  0
   63.9007   30.7176   51.8955 H   0  0  0  0  0  0  0  0  0  0  0  0
   65.7471   32.3834   51.6923 H   0  0  0  0  0  0  0  0  0  0  0  0
   65.9451   33.7823   49.6351 H   0  0  0  0  0  0  0  0  0  0  0  0
   64.3063   33.5141   47.7753 H   0  0  0  0  0  0  0  0  0  0  0  0
   59.1549   34.3962   45.5323 H   0  0  0  0  0  0  0  0  0  0  0  0
   57.0115   33.5218   44.5388 H   0  0  0  0  0  0  0  0  0  0  0  0
   57.3046   27.5351   46.8626 H   0  0  0  0  0  0  0  0  0  0  0  0
   58.7787   27.6114   45.8246 H   0  0  0  0  0  0  0  0  0  0  0  0
   59.5849   29.7513   50.6176 H   0  0  0  0  0  0  0  0  0  0  0  0
   61.6416   28.4856   49.5324 H   0  0  0  0  0  0  0  0  0  0  0  0
   60.1094   30.4052   46.9989 H   0  0  0  0  0  0  0  0  0  0  0  0
  1  2  2  0
  2  3  2  0
  2  4  1  0
  4  5  1  0
  5  6  2  0
  6  7  1  0
  7  8  2  0
  8  9  1  0
  9 10  2  0
  2 11  1  0
 11 12  2  0
 12 13  1  0
 13 14  2  0
 14 15  1  0
 15 16  1  0
 16 17  1  0
 16 18  2  0
 18 19  1  0
 19 20  1  0
 20 21  2  0
 21 22  1  0
 22 23  2  0
 23 24  1  0
 18 25  1  0
 25 26  2  0
 10  5  1  0
 26 11  1  0
 25 14  1  0
 24 20  1  0
  4 27  1  0
  6 28  1  0
  7 29  1  0
  8 30  1  0
  9 31  1  0
 10 32  1  0
 12 33  1  0
 13 34  1  0
 19 35  1  0
 19 36  1  0
 22 37  1  0
 23 38  1  0
 26 39  1  0
M  CHG  3  15  -1  17  -1  24  -1
M  END
>  <UniqueID>  (83) 
77

>  <SMILES>  (83) 
O=S(=O)(Nc1ccccc1)c1ccc2[n-]c([O-])c(Cc3ncc[n-]3)c2c1

>  <Energy>  (83) 
101.19167845972332

>  <Genealogy>  (83) 
O=S(=O)(Nc1ccccc1)c1ccc2[n-]c([O-])c(Cc3ncc[n-]3)c2c1 (protonated)
O=S(=O)(Nc1ccccc1)c1ccc2[n-]c([O-])c(Cc3ncc[n-]3)c2c1 (3D coordinates assigned)
O=S(=O)(Nc1ccccc1)c1ccc2[n-]c([O-])c(Cc3ncc[n-]3)c2c1 (optimized conformer: 101.19167845972332 kcal/mol)

>  <smiles>  (83) 
O=S(=O)(Nc1ccccc1)c1ccc2[nH]c(O)c(Cc3ncc[nH]3)c2c1

>  <score_type>  (83) 
oracle

>  <origin>  (83) 
adg

>  <m_score__min__energy>  (83) 
-12.75

>  <m_primary>  (83) 
energy

$$$$
83:0
     RDKit          3D

 64 68  0  0  0  0  0  0  0  0999 V2000
   56.2270   29.1570   44.5030 O   0  0  0  0  0  0  0  0  0  0  0  0
   57.0750   29.6890   45.2680 C   0  0  0  0  0  0  0  0  0  0  0  0
   57.6820   30.9390   44.9190 N   0  0  0  0  0  0  0  0  0  0  0  0
   57.0290   32.2300   45.0890 C   0  0  0  0  0  0  0  0  0  0  0  0
   57.9630   33.2000   45.7600 C   0  0  0  0  0  0  0  0  0  0  0  0
   58.6720   34.1370   44.9930 C   0  0  0  0  0  0  0  0  0  0  0  0
   59.5230   35.0560   45.6140 C   0  0  0  0  0  0  0  0  0  0  0  0
   59.6710   35.0450   47.0040 C   0  0  0  0  0  0  0  0  0  0  0  0
   58.9630   34.1210   47.7750 C   0  0  0  0  0  0  0  0  0  0  0  0
   58.1100   33.2000   47.1580 C   0  0  0  0  0  0  0  0  0  0  0  0
   57.4130   29.0390   46.4960 N   0  0  0  0  0  0  0  0  0  0  0  0
   58.7550   29.0530   47.0780 C   0  0  0  0  0  0  0  0  0  0  0  0
   59.7970   29.3380   45.9670 C   0  0  0  0  0  0  0  0  0  0  0  0
   60.3290   30.7740   46.0050 C   0  0  0  0  0  0  0  0  0  0  0  0
   60.8840   31.0710   47.3330 N   0  0  0  0  0  0  0  0  0  0  0  0
   61.8920   32.0910   47.4590 C   0  0  0  0  0  0  0  0  0  0  0  0
   61.8480   33.1030   46.7090 O   0  0  0  0  0  0  0  0  0  0  0  0
   62.9750   31.9870   48.4540 C   0  0  0  0  0  0  0  0  0  0  0  0
   62.9750   31.1560   49.5740 C   0  0  0  0  0  0  0  0  0  0  0  0
   64.1930   31.3720   50.1770 C   0  0  0  0  0  0  0  0  0  0  0  0
   64.7410   30.8150   51.3300 C   0  0  0  0  0  0  0  0  0  0  0  0
   66.0360   31.2340   51.7220 C   0  0  0  0  0  0  0  0  0  0  0  0
   66.6660   30.7470   52.8790 O   0  0  0  0  0  0  0  0  0  0  0  0
   67.7390   29.8030   52.8950 C   0  0  0  0  0  0  0  0  0  0  0  0
   67.4170   28.6040   52.0400 C   0  0  0  0  0  0  0  0  0  0  0  0
   66.3570   27.7460   52.3850 C   0  0  0  0  0  0  0  0  0  0  0  0
   66.0560   26.6410   51.5830 C   0  0  0  0  0  0  0  0  0  0  0  0
   66.7980   26.3920   50.4260 C   0  0  0  0  0  0  0  0  0  0  0  0
   67.8420   27.2500   50.0670 C   0  0  0  0  0  0  0  0  0  0  0  0
   68.1480   28.3550   50.8670 C   0  0  0  0  0  0  0  0  0  0  0  0
   66.7320   32.1770   50.9300 C   0  0  0  0  0  0  0  0  0  0  0  0
   66.1520   32.7140   49.7670 C   0  0  0  0  0  0  0  0  0  0  0  0
   64.8730   32.2880   49.4220 C   0  0  0  0  0  0  0  0  0  0  0  0
   64.1430   32.6680   48.3600 N   0  0  0  0  0  0  0  0  0  0  0  0
   60.2470   30.5140   48.5370 C   0  0  0  0  0  0  0  0  0  0  0  0
   58.8110   30.0730   48.2390 C   0  0  0  0  0  0  0  0  0  0  0  0
   56.7420   32.6247   44.1032 H   0  0  0  0  0  0  0  0  0  0  0  0
   56.1348   32.1002   45.7163 H   0  0  0  0  0  0  0  0  0  0  0  0
   58.5578   34.1485   43.8990 H   0  0  0  0  0  0  0  0  0  0  0  0
   60.0767   35.7885   45.0083 H   0  0  0  0  0  0  0  0  0  0  0  0
   60.3457   35.7647   47.4907 H   0  0  0  0  0  0  0  0  0  0  0  0
   59.0762   34.1173   48.8692 H   0  0  0  0  0  0  0  0  0  0  0  0
   57.5529   32.4739   47.7683 H   0  0  0  0  0  0  0  0  0  0  0  0
   59.0010   28.0704   47.5069 H   0  0  0  0  0  0  0  0  0  0  0  0
   60.6431   28.6465   46.0932 H   0  0  0  0  0  0  0  0  0  0  0  0
   59.2949   29.1968   44.9985 H   0  0  0  0  0  0  0  0  0  0  0  0
   61.1173   30.8903   45.2467 H   0  0  0  0  0  0  0  0  0  0  0  0
   59.5033   31.4699   45.7956 H   0  0  0  0  0  0  0  0  0  0  0  0
   62.1756   30.4761   49.9036 H   0  0  0  0  0  0  0  0  0  0  0  0
   64.1843   30.0713   51.9191 H   0  0  0  0  0  0  0  0  0  0  0  0
   68.6488   30.2861   52.5090 H   0  0  0  0  0  0  0  0  0  0  0  0
   67.8919   29.4641   53.9302 H   0  0  0  0  0  0  0  0  0  0  0  0
   65.7628   27.9451   53.2890 H   0  0  0  0  0  0  0  0  0  0  0  0
   65.2335   25.9666   51.8636 H   0  0  0  0  0  0  0  0  0  0  0  0
   66.5610   25.5210   49.7974 H   0  0  0  0  0  0  0  0  0  0  0  0
   68.4235   27.0553   49.1538 H   0  0  0  0  0  0  0  0  0  0  0  0
   68.9647   29.0322   50.5765 H   0  0  0  0  0  0  0  0  0  0  0  0
   67.7419   32.4949   51.2283 H   0  0  0  0  0  0  0  0  0  0  0  0
   66.6919   33.4472   49.1498 H   0  0  0  0  0  0  0  0  0  0  0  0
   64.4220   33.3480   47.6180 H   0  0  0  0  0  0  0  0  0  0  0  0
   60.8266   29.6452   48.8823 H   0  0  0  0  0  0  0  0  0  0  0  0
   60.2224   31.2919   49.3144 H   0  0  0  0  0  0  0  0  0  0  0  0
   58.3859   29.6095   49.1415 H   0  0  0  0  0  0  0  0  0  0  0  0
   58.2340   30.9615   47.9429 H   0  0  0  0  0  0  0  0  0  0  0  0
  1  2  2  0
  2  3  1  0
  3  4  1  0
  4  5  1  0
  5  6  2  0
  6  7  1  0
  7  8  2  0
  8  9  1  0
  9 10  2  0
  2 11  1  0
 11 12  1  0
 12 13  1  0
 13 14  1  0
 14 15  1  0
 15 16  1  0
 16 17  2  0
 16 18  1  0
 18 19  2  0
 19 20  1  0
 20 21  2  0
 21 22  1  0
 22 23  1  0
 23 24  1  0
 24 25  1  0
 25 26  2  0
 26 27  1  0
 27 28  2  0
 28 29  1  0
 29 30  2  0
 22 31  2  0
 31 32  1  0
 32 33  2  0
 33 34  1  0
 15 35  1  0
 35 36  1  0
 10  5  1  0
 36 12  1  0
 34 18  1  0
 33 20  1  0
 30 25  1  0
  4 37  1  0
  4 38  1  0
  6 39  1  0
  7 40  1  0
  8 41  1  0
  9 42  1  0
 10 43  1  0
 12 44  1  0
 13 45  1  0
 13 46  1  0
 14 47  1  0
 14 48  1  0
 19 49  1  0
 21 50  1  0
 24 51  1  0
 24 52  1  0
 26 53  1  0
 27 54  1  0
 28 55  1  0
 29 56  1  0
 30 57  1  0
 31 58  1  0
 32 59  1  0
 34 60  1  0
 35 61  1  0
 35 62  1  0
 36 63  1  0
 36 64  1  0
M  CHG  2   3  -1  11  -1
M  END
>  <UniqueID>  (84) 
78

>  <SMILES>  (84) 
O=C([N-]Cc1ccccc1)[N-]C1CCN(C(=O)c2cc3cc(OCc4ccccc4)ccc3[nH]2)CC1

>  <Energy>  (84) 
101.56665572111186

>  <Genealogy>  (84) 
O=C([N-]Cc1ccccc1)[N-]C1CCN(C(=O)c2cc3cc(OCc4ccccc4)ccc3[nH]2)CC1 (protonated)
O=C([N-]Cc1ccccc1)[N-]C1CCN(C(=O)c2cc3cc(OCc4ccccc4)ccc3[nH]2)CC1 (3D coordinates assigned)
O=C([N-]Cc1ccccc1)[N-]C1CCN(C(=O)c2cc3cc(OCc4ccccc4)ccc3[nH]2)CC1 (nonaromatic ring conformer: 101.56665572111186 kcal/mol)

>  <smiles>  (84) 
O=C(NCc1ccccc1)NC1CCN(C(=O)c2cc3cc(OCc4ccccc4)ccc3[nH]2)CC1

>  <score_type>  (84) 
oracle

>  <origin>  (84) 
adg

>  <m_score__min__energy>  (84) 
-12.74

>  <m_primary>  (84) 
energy

$$$$
84:0
     RDKit          3D

 66 70  0  0  0  0  0  0  0  0999 V2000
   67.4720   32.9000   50.3500 N   0  0  0  0  0  0  0  0  0  0  0  0
   66.3560   32.7570   50.0840 C   0  0  0  0  0  0  0  0  0  0  0  0
   64.9650   32.5820   49.7540 C   0  0  0  0  0  0  0  0  0  0  0  0
   64.1260   31.8660   50.6150 C   0  0  0  0  0  0  0  0  0  0  0  0
   62.7730   31.7090   50.3050 C   0  0  0  0  0  0  0  0  0  0  0  0
   62.2410   32.2700   49.1280 C   0  0  0  0  0  0  0  0  0  0  0  0
   60.7640   32.1600   48.8170 C   0  0  1  0  0  0  0  0  0  0  0  0
   60.2640   30.7800   49.1640 C   0  0  0  0  0  0  0  0  0  0  0  0
   59.4900   30.5110   50.1960 C   0  0  0  0  0  0  0  0  0  0  0  0
   59.2960   29.0340   50.4050 C   0  0  0  0  0  0  0  0  0  0  0  0
   60.1100   28.3740   49.2780 C   0  0  0  0  0  0  0  0  0  0  0  0
   60.6860   29.5380   48.5540 C   0  0  0  0  0  0  0  0  0  0  0  0
   61.4500   29.4520   47.5580 O   0  0  0  0  0  0  0  0  0  0  0  0
   58.9690   31.5450   51.0400 N   0  0  0  0  0  0  0  0  0  0  0  0
   58.2640   31.2300   52.2500 C   0  0  0  0  0  0  0  0  0  0  0  0
   58.8520   31.5040   53.4920 C   0  0  0  0  0  0  0  0  0  0  0  0
   58.1760   31.1880   54.6730 C   0  0  0  0  0  0  0  0  0  0  0  0
   56.9040   30.6110   54.6210 C   0  0  0  0  0  0  0  0  0  0  0  0
   56.2840   30.3650   53.3830 C   0  0  0  0  0  0  0  0  0  0  0  0
   54.9310   29.7010   53.3250 C   0  0  0  0  0  0  0  0  0  0  0  0
   54.5920   29.3950   52.0190 F   0  0  0  0  0  0  0  0  0  0  0  0
   54.9300   28.5280   54.0590 F   0  0  0  0  0  0  0  0  0  0  0  0
   53.9820   30.5600   53.8480 F   0  0  0  0  0  0  0  0  0  0  0  0
   56.9820   30.6620   52.1990 C   0  0  0  0  0  0  0  0  0  0  0  0
   59.1570   32.9140   50.6420 C   0  0  0  0  0  0  0  0  0  0  0  0
   58.5390   33.8290   51.2500 O   0  0  0  0  0  0  0  0  0  0  0  0
   60.0140   33.2290   49.5190 N   0  0  0  0  0  0  0  0  0  0  0  0
   60.0430   34.5950   48.9590 C   0  0  0  0  0  0  0  0  0  0  0  0
   60.0630   34.6340   47.4170 C   0  0  0  0  0  0  0  0  0  0  0  0
   58.6770   34.4430   46.7930 C   0  0  0  0  0  0  0  0  0  0  0  0
   58.3230   32.9910   46.6790 C   0  0  0  0  0  0  0  0  0  0  0  0
   57.8640   32.3820   47.6840 O   0  0  0  0  0  0  0  0  0  0  0  0
   58.4360   32.3210   45.4140 N   0  0  0  0  0  0  0  0  0  0  0  0
   58.2310   30.9090   45.2510 C   0  0  0  0  0  0  0  0  0  0  0  0
   59.2880   30.0280   45.5270 C   0  0  0  0  0  0  0  0  0  0  0  0
   59.1160   28.6470   45.3840 C   0  0  0  0  0  0  0  0  0  0  0  0
   60.4510   27.5580   45.7130 Cl  0  0  0  0  0  0  0  0  0  0  0  0
   57.8800   28.1360   44.9790 C   0  0  0  0  0  0  0  0  0  0  0  0
   56.8120   29.0040   44.7300 C   0  0  0  0  0  0  0  0  0  0  0  0
   56.9770   30.3850   44.8750 C   0  0  0  0  0  0  0  0  0  0  0  0
   55.8870   31.2240   44.6740 O   0  0  0  0  0  0  0  0  0  0  0  0
   63.0940   32.9800   48.2650 C   0  0  0  0  0  0  0  0  0  0  0  0
   64.4480   33.1340   48.5770 C   0  0  0  0  0  0  0  0  0  0  0  0
   64.5326   31.4260   51.5376 H   0  0  0  0  0  0  0  0  0  0  0  0
   62.1188   31.1434   50.9848 H   0  0  0  0  0  0  0  0  0  0  0  0
   60.5997   32.3038   47.7389 H   0  0  0  0  0  0  0  0  0  0  0  0
   59.6771   28.7276   51.3903 H   0  0  0  0  0  0  0  0  0  0  0  0
   58.2352   28.7441   50.3791 H   0  0  0  0  0  0  0  0  0  0  0  0
   60.9033   27.7315   49.6877 H   0  0  0  0  0  0  0  0  0  0  0  0
   59.5052   27.7192   48.6334 H   0  0  0  0  0  0  0  0  0  0  0  0
   59.8479   31.9689   53.5372 H   0  0  0  0  0  0  0  0  0  0  0  0
   58.6459   31.3938   55.6461 H   0  0  0  0  0  0  0  0  0  0  0  0
   56.3847   30.3477   55.5543 H   0  0  0  0  0  0  0  0  0  0  0  0
   56.5191   30.4472   51.2245 H   0  0  0  0  0  0  0  0  0  0  0  0
   59.1489   35.1323   49.3082 H   0  0  0  0  0  0  0  0  0  0  0  0
   60.9765   35.0636   49.3040 H   0  0  0  0  0  0  0  0  0  0  0  0
   60.4599   35.6086   47.0966 H   0  0  0  0  0  0  0  0  0  0  0  0
   60.6940   33.8000   47.0760 H   0  0  0  0  0  0  0  0  0  0  0  0
   57.9285   34.9453   47.4235 H   0  0  0  0  0  0  0  0  0  0  0  0
   58.6903   34.8761   45.7819 H   0  0  0  0  0  0  0  0  0  0  0  0
   58.5140   32.9060   44.5510 H   0  0  0  0  0  0  0  0  0  0  0  0
   60.2585   30.4261   45.8581 H   0  0  0  0  0  0  0  0  0  0  0  0
   57.7471   27.0510   44.8560 H   0  0  0  0  0  0  0  0  0  0  0  0
   55.8380   28.5986   44.4187 H   0  0  0  0  0  0  0  0  0  0  0  0
   62.6935   33.4171   47.3384 H   0  0  0  0  0  0  0  0  0  0  0  0
   65.1084   33.6904   47.8956 H   0  0  0  0  0  0  0  0  0  0  0  0
  1  2  3  0
  2  3  1  0
  3  4  2  0
  4  5  1  0
  5  6  2  0
  6  7  1  0
  7  8  1  0
  8  9  2  0
  9 10  1  0
 10 11  1  0
 11 12  1  0
 12 13  2  0
  9 14  1  0
 14 15  1  0
 15 16  2  0
 16 17  1  0
 17 18  2  0
 18 19  1  0
 19 20  1  0
 20 21  1  0
 20 22  1  0
 20 23  1  0
 19 24  2  0
 14 25  1  0
 25 26  2  0
 25 27  1  0
 27 28  1  0
 28 29  1  0
 29 30  1  0
 30 31  1  0
 31 32  2  0
 31 33  1  0
 33 34  1  0
 34 35  2  0
 35 36  1  0
 36 37  1  0
 36 38  2  0
 38 39  1  0
 39 40  2  0
 40 41  1  0
  6 42  1  0
 42 43  2  0
 43  3  1  0
 27  7  1  0
 40 34  1  0
 12  8  1  0
 24 15  1  0
  4 44  1  0
  5 45  1  0
  7 46  1  6
 10 47  1  0
 10 48  1  0
 11 49  1  0
 11 50  1  0
 16 51  1  0
 17 52  1  0
 18 53  1  0
 24 54  1  0
 28 55  1  0
 28 56  1  0
 29 57  1  0
 29 58  1  0
 30 59  1  0
 30 60  1  0
 33 61  1  0
 35 62  1  0
 38 63  1  0
 39 64  1  0
 42 65  1  0
 43 66  1  0
M  CHG  1  41  -1
M  END
>  <UniqueID>  (85) 
79

>  <SMILES>  (85) 
N#Cc1ccc([C@H]2C3=C(CCC3=O)N(c3cccc(C(F)(F)F)c3)C(=O)N2CCCC(=O)Nc2cc(Cl)ccc2[O-])cc1

>  <Energy>  (85) 
86.78313232436007

>  <Genealogy>  (85) 
N#Cc1ccc(C2C3=C(CCC3=O)N(c3cccc(C(F)(F)F)c3)C(=O)N2CCCC(=O)Nc2cc(Cl)ccc2[O-])cc1 (protonated)
N#Cc1ccc([C@H]2C3=C(CCC3=O)N(c3cccc(C(F)(F)F)c3)C(=O)N2CCCC(=O)Nc2cc(Cl)ccc2[O-])cc1 (chirality)
N#Cc1ccc([C@H]2C3=C(CCC3=O)N(c3cccc(C(F)(F)F)c3)C(=O)N2CCCC(=O)Nc2cc(Cl)ccc2[O-])cc1 (3D coordinates assigned)
N#Cc1ccc([C@H]2C3=C(CCC3=O)N(c3cccc(C(F)(F)F)c3)C(=O)N2CCCC(=O)Nc2cc(Cl)ccc2[O-])cc1 (nonaromatic ring conformer: 86.78313232436007 kcal/mol)

>  <smiles>  (85) 
N#Cc1ccc(C2C3=C(CCC3=O)N(c3cccc(C(F)(F)F)c3)C(=O)N2CCCC(=O)Nc2cc(Cl)ccc2O)cc1

>  <score_type>  (85) 
oracle

>  <origin>  (85) 
adg

>  <m_score__min__energy>  (85) 
-13.949999999999999

>  <m_primary>  (85) 
energy

$$$$
85:0
     RDKit          3D

 46 51  0  0  0  0  0  0  0  0999 V2000
   55.4750   26.3920   45.9680 O   0  0  0  0  0  0  0  0  0  0  0  0
   56.6280   26.8940   46.0490 C   0  0  0  0  0  0  0  0  0  0  0  0
   57.0370   28.1610   45.4960 C   0  0  0  0  0  0  0  0  0  0  0  0
   58.3900   28.3180   45.7830 C   0  0  0  0  0  0  0  0  0  0  0  0
   59.0940   29.4570   45.3550 C   0  0  0  0  0  0  0  0  0  0  0  0
   58.3580   30.4140   44.6460 C   0  0  0  0  0  0  0  0  0  0  0  0
   57.0260   30.2570   44.3700 C   0  0  0  0  0  0  0  0  0  0  0  0
   56.3120   29.1270   44.7810 C   0  0  0  0  0  0  0  0  0  0  0  0
   54.9600   28.9730   44.4930 O   0  0  0  0  0  0  0  0  0  0  0  0
   56.5740   31.3520   43.6620 O   0  0  0  0  0  0  0  0  0  0  0  0
   57.6780   32.2510   43.4790 C   0  0  0  0  0  0  0  0  0  0  0  0
   58.7920   31.6150   44.1200 O   0  0  0  0  0  0  0  0  0  0  0  0
   58.9190   27.1280   46.5390 C   0  0  1  0  0  0  0  0  0  0  0  0
   59.4870   27.5260   47.8800 C   0  0  0  0  0  0  0  0  0  0  0  0
   59.2630   28.8280   48.4050 C   0  0  0  0  0  0  0  0  0  0  0  0
   59.7920   29.1950   49.6550 C   0  0  0  0  0  0  0  0  0  0  0  0
   60.5330   28.2470   50.3510 C   0  0  0  0  0  0  0  0  0  0  0  0
   60.7520   27.0020   49.8570 C   0  0  0  0  0  0  0  0  0  0  0  0
   60.2480   26.5970   48.6240 C   0  0  0  0  0  0  0  0  0  0  0  0
   61.5140   26.2790   50.7540 O   0  0  0  0  0  0  0  0  0  0  0  0
   61.7900   27.1210   51.8810 C   0  0  0  0  0  0  0  0  0  0  0  0
   61.1470   28.3680   51.5820 O   0  0  0  0  0  0  0  0  0  0  0  0
   57.7330   26.2730   46.7060 N   0  0  0  0  0  0  0  0  0  0  0  0
   57.7610   24.8900   47.1770 C   0  0  0  0  0  0  0  0  0  0  0  0
   57.6130   23.9460   46.0180 C   0  0  0  0  0  0  0  0  0  0  0  0
   58.7040   23.1700   45.5900 C   0  0  0  0  0  0  0  0  0  0  0  0
   58.5760   22.3230   44.4850 C   0  0  0  0  0  0  0  0  0  0  0  0
   57.3620   22.2510   43.7950 C   0  0  0  0  0  0  0  0  0  0  0  0
   56.2760   23.0280   44.2070 C   0  0  0  0  0  0  0  0  0  0  0  0
   55.1020   22.9630   43.5310 F   0  0  0  0  0  0  0  0  0  0  0  0
   56.4010   23.8770   45.3120 C   0  0  0  0  0  0  0  0  0  0  0  0
   60.1655   29.5893   45.5658 H   0  0  0  0  0  0  0  0  0  0  0  0
   57.8819   32.3983   42.4081 H   0  0  0  0  0  0  0  0  0  0  0  0
   57.4729   33.2451   43.9028 H   0  0  0  0  0  0  0  0  0  0  0  0
   59.7444   26.6282   46.0109 H   0  0  0  0  0  0  0  0  0  0  0  0
   58.6710   29.5542   47.8286 H   0  0  0  0  0  0  0  0  0  0  0  0
   59.6248   30.2003   50.0690 H   0  0  0  0  0  0  0  0  0  0  0  0
   60.4368   25.5835   48.2404 H   0  0  0  0  0  0  0  0  0  0  0  0
   61.3750   26.6833   52.8009 H   0  0  0  0  0  0  0  0  0  0  0  0
   62.8701   27.2440   52.0489 H   0  0  0  0  0  0  0  0  0  0  0  0
   58.7186   24.6974   47.6829 H   0  0  0  0  0  0  0  0  0  0  0  0
   56.9283   24.7319   47.8782 H   0  0  0  0  0  0  0  0  0  0  0  0
   59.6624   23.2293   46.1266 H   0  0  0  0  0  0  0  0  0  0  0  0
   59.4309   21.7128   44.1582 H   0  0  0  0  0  0  0  0  0  0  0  0
   57.2617   21.5823   42.9273 H   0  0  0  0  0  0  0  0  0  0  0  0
   55.5465   24.4929   45.6290 H   0  0  0  0  0  0  0  0  0  0  0  0
  1  2  2  0
  2  3  1  0
  3  4  2  0
  4  5  1  0
  5  6  2  0
  6  7  1  0
  7  8  2  0
  8  9  1  0
  7 10  1  0
 10 11  1  0
 11 12  1  0
  4 13  1  0
 13 14  1  0
 14 15  2  0
 15 16  1  0
 16 17  2  0
 17 18  1  0
 18 19  2  0
 18 20  1  0
 20 21  1  0
 21 22  1  0
 13 23  1  0
 23 24  1  0
 24 25  1  0
 25 26  2  0
 26 27  1  0
 27 28  2  0
 28 29  1  0
 29 30  1  0
 29 31  2  0
 23  2  1  0
 31 25  1  0
  8  3  1  0
 19 14  1  0
 12  6  1  0
 22 17  1  0
  5 32  1  0
 11 33  1  0
 11 34  1  0
 13 35  1  6
 15 36  1  0
 16 37  1  0
 19 38  1  0
 21 39  1  0
 21 40  1  0
 24 41  1  0
 24 42  1  0
 26 43  1  0
 27 44  1  0
 28 45  1  0
 31 46  1  0
M  CHG  1   9  -1
M  END
>  <UniqueID>  (86) 
80

>  <SMILES>  (86) 
O=C1c2c(cc3c(c2[O-])OCO3)[C@@H](c2ccc3c(c2)OCO3)N1Cc1cccc(F)c1

>  <Energy>  (86) 
127.72805748926373

>  <Genealogy>  (86) 
O=C1c2c(cc3c(c2[O-])OCO3)C(c2ccc3c(c2)OCO3)N1Cc1cccc(F)c1 (protonated)
O=C1c2c(cc3c(c2[O-])OCO3)[C@@H](c2ccc3c(c2)OCO3)N1Cc1cccc(F)c1 (chirality)
O=C1c2c(cc3c(c2[O-])OCO3)[C@@H](c2ccc3c(c2)OCO3)N1Cc1cccc(F)c1 (3D coordinates assigned)
O=C1c2c(cc3c(c2[O-])OCO3)[C@@H](c2ccc3c(c2)OCO3)N1Cc1cccc(F)c1 (nonaromatic ring conformer: 127.72805748926373 kcal/mol)

>  <smiles>  (86) 
O=C1c2c(cc3c(c2O)OCO3)C(c2ccc3c(c2)OCO3)N1Cc1cccc(F)c1

>  <score_type>  (86) 
oracle

>  <origin>  (86) 
adg

>  <m_score__min__energy>  (86) 
-11.279999999999999

>  <m_primary>  (86) 
energy

$$$$
86:0
     RDKit          3D

 46 48  0  0  0  0  0  0  0  0999 V2000
   59.9610   25.3880   46.0810 C   0  0  0  0  0  0  0  0  0  0  0  0
   58.9970   26.4540   45.6530 C   0  0  0  0  0  0  0  0  0  0  0  0
   59.4450   27.5540   44.9080 C   0  0  0  0  0  0  0  0  0  0  0  0
   58.5550   28.5670   44.5410 C   0  0  0  0  0  0  0  0  0  0  0  0
   57.2080   28.5110   44.9390 C   0  0  0  0  0  0  0  0  0  0  0  0
   56.2600   29.5850   44.5630 C   0  0  0  0  0  0  0  0  0  0  0  0
   55.0240   29.3390   44.5380 O   0  0  0  0  0  0  0  0  0  0  0  0
   56.7070   30.8930   44.1760 N   0  0  0  0  0  0  0  0  0  0  0  0
   57.4740   31.7940   44.9870 C   0  0  0  0  0  0  0  0  0  0  0  0
   57.3870   33.1690   44.7440 C   0  0  0  0  0  0  0  0  0  0  0  0
   58.1350   34.0700   45.5060 C   0  0  0  0  0  0  0  0  0  0  0  0
   58.9690   33.6040   46.5330 C   0  0  0  0  0  0  0  0  0  0  0  0
   59.9470   34.7390   47.4660 S   0  0  0  0  0  0  0  0  0  0  0  0
   60.0010   36.0540   46.7370 O   0  0  0  0  0  0  0  0  0  0  0  0
   59.2960   34.9740   48.8010 O   0  0  0  0  0  0  0  0  0  0  0  0
   61.5710   34.1420   47.7060 N   0  0  0  0  0  0  0  0  0  0  0  0
   61.5650   32.9630   48.5990 C   0  0  0  0  0  0  0  0  0  0  0  0
   62.8570   32.1230   48.4780 C   0  0  0  0  0  0  0  0  0  0  0  0
   63.9720   32.9210   47.9550 N   0  0  0  0  0  0  0  0  0  0  0  0
   63.6830   33.4350   46.6030 C   0  0  0  0  0  0  0  0  0  0  0  0
   62.2010   33.8310   46.4130 C   0  0  0  0  0  0  0  0  0  0  0  0
   59.0280   32.2300   46.8040 C   0  0  0  0  0  0  0  0  0  0  0  0
   58.2810   31.3300   46.0400 C   0  0  0  0  0  0  0  0  0  0  0  0
   56.7620   27.4070   45.6850 C   0  0  0  0  0  0  0  0  0  0  0  0
   57.6530   26.3930   46.0490 C   0  0  0  0  0  0  0  0  0  0  0  0
   59.9982   25.3469   47.1796 H   0  0  0  0  0  0  0  0  0  0  0  0
   59.6298   24.4152   45.6887 H   0  0  0  0  0  0  0  0  0  0  0  0
   60.9621   25.6200   45.6887 H   0  0  0  0  0  0  0  0  0  0  0  0
   60.5021   27.6200   44.6110 H   0  0  0  0  0  0  0  0  0  0  0  0
   58.9110   29.4142   43.9364 H   0  0  0  0  0  0  0  0  0  0  0  0
   56.7258   33.5429   43.9484 H   0  0  0  0  0  0  0  0  0  0  0  0
   58.0697   35.1485   45.2998 H   0  0  0  0  0  0  0  0  0  0  0  0
   62.1100   34.9160   48.1650 H   0  0  0  0  0  0  0  0  0  0  0  0
   61.4646   33.3082   49.6386 H   0  0  0  0  0  0  0  0  0  0  0  0
   60.7209   32.3230   48.3024 H   0  0  0  0  0  0  0  0  0  0  0  0
   63.1280   31.7394   49.4727 H   0  0  0  0  0  0  0  0  0  0  0  0
   62.6663   31.2967   47.7774 H   0  0  0  0  0  0  0  0  0  0  0  0
   64.1400   33.7280   48.6010 H   0  0  0  0  0  0  0  0  0  0  0  0
   64.3088   34.3217   46.4236 H   0  0  0  0  0  0  0  0  0  0  0  0
   63.9025   32.6272   45.8893 H   0  0  0  0  0  0  0  0  0  0  0  0
   62.1453   34.7166   45.7629 H   0  0  0  0  0  0  0  0  0  0  0  0
   61.6668   32.9849   45.9561 H   0  0  0  0  0  0  0  0  0  0  0  0
   59.6645   31.8592   47.6209 H   0  0  0  0  0  0  0  0  0  0  0  0
   58.3246   30.2538   46.2635 H   0  0  0  0  0  0  0  0  0  0  0  0
   55.7056   27.3401   45.9844 H   0  0  0  0  0  0  0  0  0  0  0  0
   57.2979   25.5425   46.6494 H   0  0  0  0  0  0  0  0  0  0  0  0
  1  2  1  0
  2  3  2  0
  3  4  1  0
  4  5  2  0
  5  6  1  0
  6  7  2  0
  6  8  1  0
  8  9  1  0
  9 10  2  0
 10 11  1  0
 11 12  2  0
 12 13  1  0
 13 14  2  0
 13 15  2  0
 13 16  1  0
 16 17  1  0
 17 18  1  0
 18 19  1  0
 19 20  1  0
 20 21  1  0
 12 22  1  0
 22 23  2  0
  5 24  1  0
 24 25  2  0
 25  2  1  0
 23  9  1  0
 21 16  1  0
  1 26  1  0
  1 27  1  0
  1 28  1  0
  3 29  1  0
  4 30  1  0
 10 31  1  0
 11 32  1  0
 16 33  1  0
 17 34  1  0
 17 35  1  0
 18 36  1  0
 18 37  1  0
 19 38  1  0
 20 39  1  0
 20 40  1  0
 21 41  1  0
 21 42  1  0
 22 43  1  0
 23 44  1  0
 24 45  1  0
 25 46  1  0
M  CHG  2   8  -1  16   1
M  END
>  <UniqueID>  (87) 
81

>  <SMILES>  (87) 
Cc1ccc(C(=O)[N-]c2ccc(S(=O)(=O)[NH+]3CCNCC3)cc2)cc1

>  <Energy>  (87) 
58.45278910983037

>  <Genealogy>  (87) 
Cc1ccc(C(=O)[N-]c2ccc(S(=O)(=O)[NH+]3CCNCC3)cc2)cc1 (protonated)
Cc1ccc(C(=O)[N-]c2ccc(S(=O)(=O)[NH+]3CCNCC3)cc2)cc1 (3D coordinates assigned)
Cc1ccc(C(=O)[N-]c2ccc(S(=O)(=O)[NH+]3CCNCC3)cc2)cc1 (nonaromatic ring conformer: 58.45278910983037 kcal/mol)

>  <smiles>  (87) 
Cc1ccc(C(=O)Nc2ccc(S(=O)(=O)N3CCNCC3)cc2)cc1

>  <score_type>  (87) 
oracle

>  <origin>  (87) 
adg

>  <m_score__min__energy>  (87) 
-8.7300000000000004

>  <m_primary>  (87) 
energy

$$$$
87:0
     RDKit          3D

 66 71  0  0  0  0  0  0  0  0999 V2000
   51.6776   31.4696   49.8605 H   0  0  0  0  0  0  0  0  0  0  0  0
   51.5180   31.5130   50.9480 C   0  0  0  0  0  0  0  0  0  0  0  0
   51.0510   32.6470   51.5170 N   0  0  0  0  0  0  0  0  0  0  0  0
   50.7900   32.7310   52.8470 C   0  0  0  0  0  0  0  0  0  0  0  0
   50.2800   33.9300   53.3550 C   0  0  0  0  0  0  0  0  0  0  0  0
   50.1552   34.7970   52.6897 H   0  0  0  0  0  0  0  0  0  0  0  0
   49.9290   34.0320   54.7000 C   0  0  0  0  0  0  0  0  0  0  0  0
   49.5645   34.9880   55.1041 H   0  0  0  0  0  0  0  0  0  0  0  0
   50.0410   32.9210   55.5300 C   0  0  0  0  0  0  0  0  0  0  0  0
   49.7236   32.9904   56.5809 H   0  0  0  0  0  0  0  0  0  0  0  0
   50.5540   31.7170   55.0380 C   0  0  0  0  0  0  0  0  0  0  0  0
   50.6043   30.8391   55.6989 H   0  0  0  0  0  0  0  0  0  0  0  0
   51.0100   31.6110   53.7010 C   0  0  0  0  0  0  0  0  0  0  0  0
   51.6110   30.4410   53.1270 C   0  0  0  0  0  0  0  0  0  0  0  0
   52.1010   29.4230   53.7910 N   0  0  0  0  0  0  0  0  0  0  0  0
   52.6870   28.1620   53.3430 C   0  0  0  0  0  0  0  0  0  0  0  0
   53.3631   28.3508   52.4961 H   0  0  0  0  0  0  0  0  0  0  0  0
   51.8884   27.4759   53.0244 H   0  0  0  0  0  0  0  0  0  0  0  0
   53.4750   27.5340   54.4980 C   0  0  0  0  0  0  0  0  0  0  0  0
   52.7672   27.0499   55.1869 H   0  0  0  0  0  0  0  0  0  0  0  0
   54.0368   28.3370   54.9975 H   0  0  0  0  0  0  0  0  0  0  0  0
   54.4890   26.4830   54.0110 C   0  0  0  0  0  0  0  0  0  0  0  0
   54.3526   26.3451   52.9282 H   0  0  0  0  0  0  0  0  0  0  0  0
   54.2946   25.5621   54.5804 H   0  0  0  0  0  0  0  0  0  0  0  0
   55.9560   26.8690   54.2700 C   0  0  0  0  0  0  0  0  0  0  0  0
   56.5894   26.3908   53.5083 H   0  0  0  0  0  0  0  0  0  0  0  0
   56.2250   26.5278   55.2806 H   0  0  0  0  0  0  0  0  0  0  0  0
   56.1530   28.2840   54.2130 O   0  0  0  0  0  0  0  0  0  0  0  0
   57.0410   28.9780   53.3730 C   0  0  0  0  0  0  0  0  0  0  0  0
   56.7560   30.2410   52.8200 C   0  0  0  0  0  0  0  0  0  0  0  0
   55.7901   30.7246   53.0279 H   0  0  0  0  0  0  0  0  0  0  0  0
   57.6950   30.8830   52.0080 C   0  0  0  0  0  0  0  0  0  0  0  0
   57.4570   31.8640   51.5710 H   0  0  0  0  0  0  0  0  0  0  0  0
   58.9370   30.2890   51.7450 C   0  0  0  0  0  0  0  0  0  0  0  0
   59.8650   30.9590   50.8760 N   0  0  0  0  0  0  0  0  0  0  0  0
   59.4680   31.4120   50.0210 H   0  0  0  0  0  0  0  0  0  0  0  0
   61.2780   31.0700   51.1250 C   0  0  0  0  0  0  0  0  0  0  0  0
   61.7820   30.5520   52.1620 O   0  0  0  0  0  0  0  0  0  0  0  0
   62.1690   31.7660   50.1680 C   0  0  0  0  0  0  0  0  0  0  0  0
   63.5510   31.7740   50.4200 C   0  0  0  0  0  0  0  0  0  0  0  0
   63.9447   31.2742   51.3173 H   0  0  0  0  0  0  0  0  0  0  0  0
   64.4290   32.4110   49.5410 C   0  0  0  0  0  0  0  0  0  0  0  0
   65.5097   32.4020   49.7459 H   0  0  0  0  0  0  0  0  0  0  0  0
   63.9450   33.0580   48.4060 C   0  0  0  0  0  0  0  0  0  0  0  0
   64.6463   33.5479   47.7145 H   0  0  0  0  0  0  0  0  0  0  0  0
   62.5650   33.0880   48.1400 C   0  0  0  0  0  0  0  0  0  0  0  0
   62.0480   33.7580   47.0120 C   0  0  0  0  0  0  0  0  0  0  0  0
   62.8300   34.3350   46.2030 O   0  0  0  0  0  0  0  0  0  0  0  0
   60.6570   33.7930   46.7960 C   0  0  0  0  0  0  0  0  0  0  0  0
   60.0930   34.4520   45.6860 C   0  0  0  0  0  0  0  0  0  0  0  0
   60.7448   34.9599   44.9599 H   0  0  0  0  0  0  0  0  0  0  0  0
   58.7060   34.4620   45.5050 C   0  0  0  0  0  0  0  0  0  0  0  0
   58.2706   34.9760   44.6354 H   0  0  0  0  0  0  0  0  0  0  0  0
   57.8720   33.8220   46.4240 C   0  0  0  0  0  0  0  0  0  0  0  0
   56.7820   33.8333   46.2764 H   0  0  0  0  0  0  0  0  0  0  0  0
   58.4190   33.1670   47.5310 C   0  0  0  0  0  0  0  0  0  0  0  0
   57.7589   32.6642   48.2531 H   0  0  0  0  0  0  0  0  0  0  0  0
   59.8060   33.1500   47.7220 C   0  0  0  0  0  0  0  0  0  0  0  0
   60.3310   32.5080   48.7970 N   0  0  0  0  0  0  0  0  0  0  0  0
   61.6700   32.4430   49.0310 C   0  0  0  0  0  0  0  0  0  0  0  0
   59.2100   29.0160   52.2730 C   0  0  0  0  0  0  0  0  0  0  0  0
   60.1682   28.5242   52.0495 H   0  0  0  0  0  0  0  0  0  0  0  0
   58.2690   28.3720   53.0810 C   0  0  0  0  0  0  0  0  0  0  0  0
   58.4957   27.3773   53.4924 H   0  0  0  0  0  0  0  0  0  0  0  0
   51.7970   30.4010   51.7360 C   0  0  0  0  0  0  0  0  0  0  0  0
   52.1678   29.4794   51.2636 H   0  0  0  0  0  0  0  0  0  0  0  0
  1  2  1  0
  2  3  1  0
  3  4  1  0
  4  5  2  0
  5  6  1  0
  5  7  1  0
  7  8  1  0
  7  9  2  0
  9 10  1  0
  9 11  1  0
 11 12  1  0
 11 13  2  0
 13 14  1  0
 14 15  2  0
 15 16  1  0
 16 17  1  0
 16 18  1  0
 16 19  1  0
 19 20  1  0
 19 21  1  0
 19 22  1  0
 22 23  1  0
 22 24  1  0
 22 25  1  0
 25 26  1  0
 25 27  1  0
 25 28  1  0
 28 29  1  0
 29 30  2  0
 30 31  1  0
 30 32  1  0
 32 33  1  0
 32 34  2  0
 34 35  1  0
 35 36  1  0
 35 37  1  0
 37 38  2  0
 37 39  1  0
 39 40  2  0
 40 41  1  0
 40 42  1  0
 42 43  1  0
 42 44  2  0
 44 45  1  0
 44 46  1  0
 46 47  1  0
 47 48  2  0
 47 49  1  0
 49 50  2  0
 50 51  1  0
 50 52  1  0
 52 53  1  0
 52 54  2  0
 54 55  1  0
 54 56  1  0
 56 57  1  0
 56 58  2  0
 58 59  1  0
 59 60  1  0
 34 61  1  0
 61 62  1  0
 61 63  2  0
 63 64  1  0
 14 65  1  0
 65 66  1  0
 65  2  2  0
 13  4  1  0
 63 29  1  0
 60 39  1  0
 60 46  2  0
 58 49  1  0
M  CHG  2   3  -1  59  -1
M  END
>  <UniqueID>  (88) 
82

>  <SMILES>  (88) 
O=C(Nc1ccc(OCCCC/N=c2/cc[n-]c3ccccc23)cc1)c1cccc2c(=O)c3ccccc3[n-]c12

>  <Energy>  (88) 
104.7719274292818

>  <Genealogy>  (88) 
O=C(Nc1ccc(OCCCCN=c2cc[n-]c3ccccc23)cc1)c1cccc2c(=O)c3ccccc3[n-]c12 (protonated)
O=C(Nc1ccc(OCCCC/N=c2/cc[n-]c3ccccc23)cc1)c1cccc2c(=O)c3ccccc3[n-]c12 (cis-trans isomerization)
O=C(Nc1ccc(OCCCC/N=c2/cc[n-]c3ccccc23)cc1)c1cccc2c(=O)c3ccccc3[n-]c12 (3D coordinates assigned)
O=C(Nc1ccc(OCCCC/N=c2/cc[n-]c3ccccc23)cc1)c1cccc2c(=O)c3ccccc3[n-]c12 (optimized conformer: 104.7719274292818 kcal/mol)

>  <smiles>  (88) 
O=C(Nc1ccc(OCCCCN=c2cc[nH]c3ccccc23)cc1)c1cccc2c(=O)c3ccccc3[nH]c12

>  <score_type>  (88) 
oracle

>  <origin>  (88) 
adg

>  <m_score__min__energy>  (88) 
-12.390000000000001

>  <m_primary>  (88) 
energy

$$$$
88:0
     RDKit          3D

 52 54  0  0  0  0  0  0  0  0999 V2000
   54.6470   25.9310   45.9450 N   0  0  0  0  0  0  0  0  0  0  0  0
   56.2150   25.2810   46.2700 S   0  0  0  0  0  0  0  0  0  0  0  0
   56.5630   24.2590   45.2250 O   0  0  0  0  0  0  0  0  0  0  0  0
   56.2130   24.6130   47.6170 O   0  0  0  0  0  0  0  0  0  0  0  0
   57.4000   26.5810   46.2510 C   0  0  0  0  0  0  0  0  0  0  0  0
   58.7300   26.3260   46.6110 C   0  0  0  0  0  0  0  0  0  0  0  0
   59.6710   27.3600   46.6000 C   0  0  0  0  0  0  0  0  0  0  0  0
   59.2850   28.6550   46.2440 C   0  0  0  0  0  0  0  0  0  0  0  0
   57.9520   28.9210   45.8970 C   0  0  0  0  0  0  0  0  0  0  0  0
   57.5290   30.2470   45.5610 N   0  0  0  0  0  0  0  0  0  0  0  0
   56.6870   30.5800   44.4480 C   0  0  0  0  0  0  0  0  0  0  0  0
   55.5210   30.1060   44.4050 O   0  0  0  0  0  0  0  0  0  0  0  0
   57.1390   31.5130   43.3570 C   0  0  0  0  0  0  0  0  0  0  0  0
   58.1200   32.4630   43.8810 N   0  0  0  0  0  0  0  0  0  0  0  0
   57.7660   33.5670   44.7270 C   0  0  0  0  0  0  0  0  0  0  0  0
   56.6330   33.6130   45.2770 O   0  0  0  0  0  0  0  0  0  0  0  0
   58.7560   34.6600   44.9850 C   0  0  0  0  0  0  0  0  0  0  0  0
   59.5860   34.3260   46.1820 C   0  0  0  0  0  0  0  0  0  0  0  0
   60.9160   33.9210   46.1590 C   0  0  0  0  0  0  0  0  0  0  0  0
   61.4170   33.6070   47.4280 C   0  0  0  0  0  0  0  0  0  0  0  0
   60.4730   33.7520   48.4330 C   0  0  0  0  0  0  0  0  0  0  0  0
   60.7520   33.4630   50.1410 S   0  0  0  0  0  0  0  0  0  0  0  0
   59.6970   34.1940   50.9220 O   0  0  0  0  0  0  0  0  0  0  0  0
   62.0970   34.0160   50.5220 O   0  0  0  0  0  0  0  0  0  0  0  0
   60.6620   31.7510   50.5030 N   0  0  0  0  0  0  0  0  0  0  0  0
   59.6360   31.4540   51.5180 C   0  0  0  0  0  0  0  0  0  0  0  0
   58.2010   31.5660   50.9510 C   0  0  0  0  0  0  0  0  0  0  0  0
   58.1430   31.5150   49.5360 O   0  0  0  0  0  0  0  0  0  0  0  0
   59.0190   30.5240   49.0470 C   0  0  0  0  0  0  0  0  0  0  0  0
   60.4840   30.9410   49.2770 C   0  0  0  0  0  0  0  0  0  0  0  0
   59.0200   34.2710   47.7660 S   0  0  0  0  0  0  0  0  0  0  0  0
   57.0210   27.8760   45.8720 C   0  0  0  0  0  0  0  0  0  0  0  0
   54.7750   26.7060   45.2540 H   0  0  0  0  0  0  0  0  0  0  0  0
   59.0344   25.3101   46.9029 H   0  0  0  0  0  0  0  0  0  0  0  0
   60.7167   27.1538   46.8720 H   0  0  0  0  0  0  0  0  0  0  0  0
   60.0273   29.4668   46.2358 H   0  0  0  0  0  0  0  0  0  0  0  0
   57.5965   30.9286   42.5451 H   0  0  0  0  0  0  0  0  0  0  0  0
   56.2693   32.0680   42.9753 H   0  0  0  0  0  0  0  0  0  0  0  0
   59.1190   32.3520   43.5920 H   0  0  0  0  0  0  0  0  0  0  0  0
   59.4104   34.7732   44.1081 H   0  0  0  0  0  0  0  0  0  0  0  0
   58.2157   35.5999   45.1712 H   0  0  0  0  0  0  0  0  0  0  0  0
   61.5135   33.8542   45.2378 H   0  0  0  0  0  0  0  0  0  0  0  0
   62.4514   33.2795   47.6088 H   0  0  0  0  0  0  0  0  0  0  0  0
   59.7911   30.4301   51.8890 H   0  0  0  0  0  0  0  0  0  0  0  0
   59.7376   32.1932   52.3262 H   0  0  0  0  0  0  0  0  0  0  0  0
   57.6026   30.7354   51.3535 H   0  0  0  0  0  0  0  0  0  0  0  0
   57.8110   32.5489   51.2539 H   0  0  0  0  0  0  0  0  0  0  0  0
   58.8249   29.5774   49.5726 H   0  0  0  0  0  0  0  0  0  0  0  0
   58.8490   30.3989   47.9674 H   0  0  0  0  0  0  0  0  0  0  0  0
   61.0989   30.0330   49.3629 H   0  0  0  0  0  0  0  0  0  0  0  0
   60.7909   31.5611   48.4218 H   0  0  0  0  0  0  0  0  0  0  0  0
   55.9866   28.0722   45.5533 H   0  0  0  0  0  0  0  0  0  0  0  0
  1  2  1  0
  2  3  2  0
  2  4  2  0
  2  5  1  0
  5  6  2  0
  6  7  1  0
  7  8  2  0
  8  9  1  0
  9 10  1  0
 10 11  1  0
 11 12  2  0
 11 13  1  0
 13 14  1  0
 14 15  1  0
 15 16  2  0
 15 17  1  0
 17 18  1  0
 18 19  2  0
 19 20  1  0
 20 21  2  0
 21 22  1  0
 22 23  2  0
 22 24  2  0
 22 25  1  0
 25 26  1  0
 26 27  1  0
 27 28  1  0
 28 29  1  0
 29 30  1  0
 21 31  1  0
  9 32  2  0
 32  5  1  0
 31 18  1  0
 30 25  1  0
  1 33  1  0
  6 34  1  0
  7 35  1  0
  8 36  1  0
 13 37  1  0
 13 38  1  0
 14 39  1  0
 17 40  1  0
 17 41  1  0
 19 42  1  0
 20 43  1  0
 26 44  1  0
 26 45  1  0
 27 46  1  0
 27 47  1  0
 29 48  1  0
 29 49  1  0
 30 50  1  0
 30 51  1  0
 32 52  1  0
M  CHG  2   1  -1  10  -1
M  END
>  <UniqueID>  (89) 
83

>  <SMILES>  (89) 
[NH-]S(=O)(=O)c1cccc([N-]C(=O)CNC(=O)Cc2ccc(S(=O)(=O)N3CCOCC3)s2)c1

>  <Energy>  (89) 
88.16508866574615

>  <Genealogy>  (89) 
[NH-]S(=O)(=O)c1cccc([N-]C(=O)CNC(=O)Cc2ccc(S(=O)(=O)N3CCOCC3)s2)c1 (protonated)
[NH-]S(=O)(=O)c1cccc([N-]C(=O)CNC(=O)Cc2ccc(S(=O)(=O)N3CCOCC3)s2)c1 (3D coordinates assigned)
[NH-]S(=O)(=O)c1cccc([N-]C(=O)CNC(=O)Cc2ccc(S(=O)(=O)N3CCOCC3)s2)c1 (nonaromatic ring conformer: 88.16508866574615 kcal/mol)

>  <smiles>  (89) 
NS(=O)(=O)c1cccc(NC(=O)CNC(=O)Cc2ccc(S(=O)(=O)N3CCOCC3)s2)c1

>  <score_type>  (89) 
oracle

>  <origin>  (89) 
adg

>  <m_score__min__energy>  (89) 
-14.199999999999999

>  <m_primary>  (89) 
energy

$$$$
89:0
     RDKit          3D

 30 31  0  0  0  0  0  0  0  0999 V2000
   58.6920   27.5890   46.4040 O   0  0  0  0  0  0  0  0  0  0  0  0
   57.5970   27.3310   45.8360 C   0  0  0  0  0  0  0  0  0  0  0  0
   56.8530   28.3730   45.1800 N   0  0  0  0  0  0  0  0  0  0  0  0
   57.3020   29.7340   45.0670 C   0  0  0  0  0  0  0  0  0  0  0  0
   56.9650   30.4760   43.9260 C   0  0  0  0  0  0  0  0  0  0  0  0
   57.4070   31.7940   43.7800 C   0  0  0  0  0  0  0  0  0  0  0  0
   58.2020   32.3800   44.7710 C   0  0  0  0  0  0  0  0  0  0  0  0
   58.7760   34.0700   44.5800 S   0  0  0  0  0  0  0  0  0  0  0  0
   59.0210   34.3330   46.3660 C   0  0  0  0  0  0  0  0  0  0  0  0
   59.5370   35.5960   46.5900 F   0  0  0  0  0  0  0  0  0  0  0  0
   57.8050   34.2200   47.0100 F   0  0  0  0  0  0  0  0  0  0  0  0
   58.5690   31.6380   45.8990 C   0  0  0  0  0  0  0  0  0  0  0  0
   58.1270   30.3200   46.0460 C   0  0  0  0  0  0  0  0  0  0  0  0
   57.0880   25.9430   45.8600 C   0  0  0  0  0  0  0  0  0  0  0  0
   55.7050   25.6730   45.9210 C   0  0  0  0  0  0  0  0  0  0  0  0
   54.7780   26.7060   46.0010 O   0  0  0  0  0  0  0  0  0  0  0  0
   55.2470   24.3500   45.9330 C   0  0  0  0  0  0  0  0  0  0  0  0
   56.1560   23.2910   45.9030 C   0  0  0  0  0  0  0  0  0  0  0  0
   57.5280   23.5470   45.8650 C   0  0  0  0  0  0  0  0  0  0  0  0
   57.9960   24.8650   45.8470 C   0  0  0  0  0  0  0  0  0  0  0  0
   59.3350   25.0880   45.7930 F   0  0  0  0  0  0  0  0  0  0  0  0
   55.9050   28.1490   44.8040 H   0  0  0  0  0  0  0  0  0  0  0  0
   56.3478   30.0172   43.1395 H   0  0  0  0  0  0  0  0  0  0  0  0
   57.1296   32.3709   42.8854 H   0  0  0  0  0  0  0  0  0  0  0  0
   59.7243   33.5801   46.7515 H   0  0  0  0  0  0  0  0  0  0  0  0
   59.2065   32.0926   46.6716 H   0  0  0  0  0  0  0  0  0  0  0  0
   58.4251   29.7380   46.9306 H   0  0  0  0  0  0  0  0  0  0  0  0
   54.1669   24.1443   45.9662 H   0  0  0  0  0  0  0  0  0  0  0  0
   55.7908   22.2534   45.9093 H   0  0  0  0  0  0  0  0  0  0  0  0
   58.2423   22.7106   45.8492 H   0  0  0  0  0  0  0  0  0  0  0  0
  1  2  2  0
  2  3  1  0
  3  4  1  0
  4  5  2  0
  5  6  1  0
  6  7  2  0
  7  8  1  0
  8  9  1  0
  9 10  1  0
  9 11  1  0
  7 12  1  0
 12 13  2  0
  2 14  1  0
 14 15  2  0
 15 16  1  0
 15 17  1  0
 17 18  2  0
 18 19  1  0
 19 20  2  0
 20 21  1  0
 13  4  1  0
 20 14  1  0
  3 22  1  0
  5 23  1  0
  6 24  1  0
  9 25  1  0
 12 26  1  0
 13 27  1  0
 17 28  1  0
 18 29  1  0
 19 30  1  0
M  CHG  1  16  -1
M  END
>  <UniqueID>  (90) 
84

>  <SMILES>  (90) 
O=C(Nc1ccc(SC(F)F)cc1)c1c([O-])cccc1F

>  <Energy>  (90) 
36.26324501371895

>  <Genealogy>  (90) 
O=C(Nc1ccc(SC(F)F)cc1)c1c([O-])cccc1F (protonated)
O=C(Nc1ccc(SC(F)F)cc1)c1c([O-])cccc1F (3D coordinates assigned)
O=C(Nc1ccc(SC(F)F)cc1)c1c([O-])cccc1F (optimized conformer: 36.26324501371895 kcal/mol)

>  <smiles>  (90) 
O=C(Nc1ccc(SC(F)F)cc1)c1c(O)cccc1F

>  <score_type>  (90) 
oracle

>  <origin>  (90) 
adg

>  <m_score__min__energy>  (90) 
-10.41

>  <m_primary>  (90) 
energy

$$$$
90:0
     RDKit          3D

 58 61  0  0  0  0  0  0  0  0999 V2000
   57.5890   31.7620   41.8090 C   0  0  0  0  0  0  0  0  0  0  0  0
   57.6880   32.0300   43.2870 C   0  0  0  0  0  0  0  0  0  0  0  0
   58.1380   33.2900   43.7180 C   0  0  0  0  0  0  0  0  0  0  0  0
   58.2380   33.5820   45.0820 C   0  0  0  0  0  0  0  0  0  0  0  0
   57.8930   32.6210   46.0310 C   0  0  0  0  0  0  0  0  0  0  0  0
   57.4590   31.3590   45.6220 C   0  0  0  0  0  0  0  0  0  0  0  0
   57.3710   31.0400   44.2550 C   0  0  0  0  0  0  0  0  0  0  0  0
   56.8370   29.4150   43.7990 S   0  0  0  0  0  0  0  0  0  0  0  0
   58.0110   28.5380   43.4590 O   0  0  0  0  0  0  0  0  0  0  0  0
   55.9430   29.5120   42.5940 O   0  0  0  0  0  0  0  0  0  0  0  0
   55.9410   28.6850   45.0960 N   0  0  0  0  0  0  0  0  0  0  0  0
   56.2050   27.3990   45.6720 C   0  0  0  0  0  0  0  0  0  0  0  0
   55.2350   26.6280   45.8960 O   0  0  0  0  0  0  0  0  0  0  0  0
   57.5700   26.9390   45.9960 C   0  0  0  0  0  0  0  0  0  0  0  0
   57.9790   25.6310   45.6940 C   0  0  0  0  0  0  0  0  0  0  0  0
   59.2750   25.2100   45.9990 C   0  0  0  0  0  0  0  0  0  0  0  0
   60.1790   26.0970   46.5900 C   0  0  0  0  0  0  0  0  0  0  0  0
   59.7940   27.4160   46.8740 C   0  0  0  0  0  0  0  0  0  0  0  0
   60.7680   28.3650   47.5220 C   0  0  0  0  0  0  0  0  0  0  0  0
   60.0880   29.1860   48.5370 N   0  0  0  0  0  0  0  0  0  0  0  0
   59.8670   28.6560   49.7790 C   0  0  0  0  0  0  0  0  0  0  0  0
   59.2280   29.4000   50.7680 C   0  0  0  0  0  0  0  0  0  0  0  0
   58.8010   30.6940   50.4870 C   0  0  0  0  0  0  0  0  0  0  0  0
   59.0070   31.2380   49.2100 C   0  0  0  0  0  0  0  0  0  0  0  0
   58.5820   32.5680   48.8740 N   0  0  0  0  0  0  0  0  0  0  0  0
   59.6140   33.9620   48.8190 S   0  0  0  0  0  0  0  0  0  0  0  0
   59.0230   34.9710   47.8780 O   0  0  0  0  0  0  0  0  0  0  0  0
   59.6980   34.5600   50.1940 O   0  0  0  0  0  0  0  0  0  0  0  0
   61.2170   33.5080   48.2360 C   0  0  0  0  0  0  0  0  0  0  0  0
   62.0890   32.7980   49.0800 C   0  0  0  0  0  0  0  0  0  0  0  0
   63.3660   32.4450   48.6330 C   0  0  0  0  0  0  0  0  0  0  0  0
   63.7780   32.7920   47.3440 C   0  0  0  0  0  0  0  0  0  0  0  0
   62.9100   33.4810   46.4940 C   0  0  0  0  0  0  0  0  0  0  0  0
   61.6300   33.8390   46.9340 C   0  0  0  0  0  0  0  0  0  0  0  0
   60.8010   34.5080   46.0930 F   0  0  0  0  0  0  0  0  0  0  0  0
   59.6540   30.4570   48.2390 C   0  0  0  0  0  0  0  0  0  0  0  0
   59.8380   30.9380   47.0860 O   0  0  0  0  0  0  0  0  0  0  0  0
   58.4870   27.8320   46.5720 C   0  0  0  0  0  0  0  0  0  0  0  0
   57.2121   30.7416   41.6458 H   0  0  0  0  0  0  0  0  0  0  0  0
   56.8988   32.4855   41.3506 H   0  0  0  0  0  0  0  0  0  0  0  0
   58.5838   31.8631   41.3506 H   0  0  0  0  0  0  0  0  0  0  0  0
   58.4140   34.0533   42.9756 H   0  0  0  0  0  0  0  0  0  0  0  0
   58.5897   34.5724   45.4068 H   0  0  0  0  0  0  0  0  0  0  0  0
   57.9628   32.8574   47.1030 H   0  0  0  0  0  0  0  0  0  0  0  0
   57.1832   30.6069   46.3759 H   0  0  0  0  0  0  0  0  0  0  0  0
   57.2755   24.9342   45.2149 H   0  0  0  0  0  0  0  0  0  0  0  0
   59.5848   24.1788   45.7738 H   0  0  0  0  0  0  0  0  0  0  0  0
   61.1972   25.7594   46.8337 H   0  0  0  0  0  0  0  0  0  0  0  0
   61.5716   27.7874   48.0022 H   0  0  0  0  0  0  0  0  0  0  0  0
   61.1872   29.0274   46.7503 H   0  0  0  0  0  0  0  0  0  0  0  0
   60.1979   27.6303   49.9990 H   0  0  0  0  0  0  0  0  0  0  0  0
   59.0619   28.9670   51.7655 H   0  0  0  0  0  0  0  0  0  0  0  0
   58.3023   31.2902   51.2653 H   0  0  0  0  0  0  0  0  0  0  0  0
   61.7660   32.5197   50.0940 H   0  0  0  0  0  0  0  0  0  0  0  0
   64.0473   31.8932   49.2974 H   0  0  0  0  0  0  0  0  0  0  0  0
   64.7868   32.5224   46.9982 H   0  0  0  0  0  0  0  0  0  0  0  0
   63.2330   33.7432   45.4757 H   0  0  0  0  0  0  0  0  0  0  0  0
   58.1796   28.8657   46.7886 H   0  0  0  0  0  0  0  0  0  0  0  0
  1  2  1  0
  2  3  2  0
  3  4  1  0
  4  5  2  0
  5  6  1  0
  6  7  2  0
  7  8  1  0
  8  9  2  0
  8 10  2  0
  8 11  1  0
 11 12  1  0
 12 13  2  0
 12 14  1  0
 14 15  2  0
 15 16  1  0
 16 17  2  0
 17 18  1  0
 18 19  1  0
 19 20  1  0
 20 21  1  0
 21 22  2  0
 22 23  1  0
 23 24  2  0
 24 25  1  0
 25 26  1  0
 26 27  2  0
 26 28  2  0
 26 29  1  0
 29 30  2  0
 30 31  1  0
 31 32  2  0
 32 33  1  0
 33 34  2  0
 34 35  1  0
 24 36  1  0
 36 37  2  0
 18 38  2  0
  7  2  1  0
 38 14  1  0
 36 20  1  0
 34 29  1  0
  1 39  1  0
  1 40  1  0
  1 41  1  0
  3 42  1  0
  4 43  1  0
  5 44  1  0
  6 45  1  0
 15 46  1  0
 16 47  1  0
 17 48  1  0
 19 49  1  0
 19 50  1  0
 21 51  1  0
 22 52  1  0
 23 53  1  0
 30 54  1  0
 31 55  1  0
 32 56  1  0
 33 57  1  0
 38 58  1  0
M  CHG  2  11  -1  25  -1
M  END
>  <UniqueID>  (91) 
85

>  <SMILES>  (91) 
Cc1ccccc1S(=O)(=O)[N-]C(=O)c1cccc(Cn2cccc([N-]S(=O)(=O)c3ccccc3F)c2=O)c1

>  <Energy>  (91) 
77.60774667871429

>  <Genealogy>  (91) 
Cc1ccccc1S(=O)(=O)[N-]C(=O)c1cccc(Cn2cccc([N-]S(=O)(=O)c3ccccc3F)c2=O)c1 (protonated)
Cc1ccccc1S(=O)(=O)[N-]C(=O)c1cccc(Cn2cccc([N-]S(=O)(=O)c3ccccc3F)c2=O)c1 (3D coordinates assigned)
Cc1ccccc1S(=O)(=O)[N-]C(=O)c1cccc(Cn2cccc([N-]S(=O)(=O)c3ccccc3F)c2=O)c1 (optimized conformer: 77.60774667871429 kcal/mol)

>  <smiles>  (91) 
Cc1ccccc1S(=O)(=O)NC(=O)c1cccc(Cn2cccc(NS(=O)(=O)c3ccccc3F)c2=O)c1

>  <score_type>  (91) 
oracle

>  <origin>  (91) 
adg

>  <m_score__min__energy>  (91) 
-13.81

>  <m_primary>  (91) 
energy

$$$$
91:0
     RDKit          3D

 38 40  0  0  0  0  0  0  0  0999 V2000
   58.1770   28.9520   46.5510 C   0  0  0  0  0  0  0  0  0  0  0  0
   57.4980   30.1290   46.1590 O   0  0  0  0  0  0  0  0  0  0  0  0
   57.3200   30.4950   44.8430 C   0  0  0  0  0  0  0  0  0  0  0  0
   56.6460   29.6990   43.9320 C   0  0  0  0  0  0  0  0  0  0  0  0
   56.4920   30.1100   42.6180 C   0  0  0  0  0  0  0  0  0  0  0  0
   57.0060   31.3240   42.1820 C   0  0  0  0  0  0  0  0  0  0  0  0
   57.6780   32.1130   43.0970 C   0  0  0  0  0  0  0  0  0  0  0  0
   57.8360   31.7110   44.4100 C   0  0  0  0  0  0  0  0  0  0  0  0
   58.5320   32.5290   45.3520 N   0  0  0  0  0  0  0  0  0  0  0  0
   58.1430   33.8930   45.5760 C   0  0  0  0  0  0  0  0  0  0  0  0
   57.1780   34.3950   44.9430 O   0  0  0  0  0  0  0  0  0  0  0  0
   58.9410   34.6430   46.5790 C   0  0  0  0  0  0  0  0  0  0  0  0
   59.1530   33.7330   48.1090 S   0  0  0  0  0  0  0  0  0  0  0  0
   60.2950   32.3970   47.7740 C   0  0  0  0  0  0  0  0  0  0  0  0
   60.0590   31.0760   47.6960 N   0  0  0  0  0  0  0  0  0  0  0  0
   61.2020   30.4360   47.4260 N   0  0  0  0  0  0  0  0  0  0  0  0
   62.1710   31.3590   47.3320 C   0  0  0  0  0  0  0  0  0  0  0  0
   63.4060   31.2140   47.0930 O   0  0  0  0  0  0  0  0  0  0  0  0
   61.6090   32.5730   47.5480 N   0  0  0  0  0  0  0  0  0  0  0  0
   62.2970   33.8400   47.5380 C   0  0  0  0  0  0  0  0  0  0  0  0
   63.3300   33.9620   46.4240 C   0  0  0  0  0  0  0  0  0  0  0  0
   63.7450   33.9330   47.8550 C   0  0  0  0  0  0  0  0  0  0  0  0
   58.2094   28.8958   47.6491 H   0  0  0  0  0  0  0  0  0  0  0  0
   57.6469   28.0735   46.1544 H   0  0  0  0  0  0  0  0  0  0  0  0
   59.2028   28.9711   46.1544 H   0  0  0  0  0  0  0  0  0  0  0  0
   56.2298   28.7331   44.2542 H   0  0  0  0  0  0  0  0  0  0  0  0
   55.9538   29.4642   41.9086 H   0  0  0  0  0  0  0  0  0  0  0  0
   56.8820   31.6487   41.1383 H   0  0  0  0  0  0  0  0  0  0  0  0
   58.0946   33.0785   42.7742 H   0  0  0  0  0  0  0  0  0  0  0  0
   59.3280   32.0940   45.8650 H   0  0  0  0  0  0  0  0  0  0  0  0
   59.9333   34.8539   46.1538 H   0  0  0  0  0  0  0  0  0  0  0  0
   58.3961   35.5691   46.8142 H   0  0  0  0  0  0  0  0  0  0  0  0
   61.3250   29.4090   47.3080 H   0  0  0  0  0  0  0  0  0  0  0  0
   61.4221   34.3879   47.9180 H   0  0  0  0  0  0  0  0  0  0  0  0
   63.5413   33.1033   45.7697 H   0  0  0  0  0  0  0  0  0  0  0  0
   63.4904   34.6432   45.5754 H   0  0  0  0  0  0  0  0  0  0  0  0
   64.2740   33.0540   48.2518 H   0  0  0  0  0  0  0  0  0  0  0  0
   64.3509   34.5936   48.4926 H   0  0  0  0  0  0  0  0  0  0  0  0
  1  2  1  0
  2  3  1  0
  3  4  2  0
  4  5  1  0
  5  6  2  0
  6  7  1  0
  7  8  2  0
  8  9  1  0
  9 10  1  0
 10 11  2  0
 10 12  1  0
 12 13  1  0
 13 14  1  0
 14 15  2  0
 15 16  1  0
 16 17  1  0
 17 18  2  0
 17 19  1  0
 19 20  1  0
 20 21  1  0
 21 22  1  0
  8  3  1  0
 19 14  1  0
 22 20  1  0
  1 23  1  0
  1 24  1  0
  1 25  1  0
  4 26  1  0
  5 27  1  0
  6 28  1  0
  7 29  1  0
  9 30  1  0
 12 31  1  0
 12 32  1  0
 16 33  1  0
 20 34  1  0
 21 35  1  0
 21 36  1  0
 22 37  1  0
 22 38  1  0
M  END
>  <smiles>  (92) 
COc1ccccc1NC(=O)CSc1n[nH]c(=O)n1C1CC1

>  <score_type>  (92) 
oracle

>  <origin>  (92) 
adg

>  <m_score__min__energy>  (92) 
-7.0300000000000002

>  <m_primary>  (92) 
energy

$$$$
92:0
     RDKit          3D

 44 47  0  0  0  0  0  0  0  0999 V2000
   60.4390   27.5380   51.3000 C   0  0  0  0  0  0  0  0  0  0  0  0
   60.3660   27.7500   49.8180 C   0  0  0  0  0  0  0  0  0  0  0  0
   60.8090   26.7590   48.9260 C   0  0  0  0  0  0  0  0  0  0  0  0
   60.7310   26.9680   47.5450 C   0  0  0  0  0  0  0  0  0  0  0  0
   60.2190   28.1710   47.0430 C   0  0  0  0  0  0  0  0  0  0  0  0
   60.1120   28.4390   45.2720 S   0  0  0  0  0  0  0  0  0  0  0  0
   59.4330   30.1010   45.4350 C   0  0  0  0  0  0  0  0  0  0  0  0
   60.1870   31.0130   46.1160 N   0  0  0  0  0  0  0  0  0  0  0  0
   59.7460   32.2790   46.2760 C   0  0  0  0  0  0  0  0  0  0  0  0
   60.4190   33.2850   46.9730 C   0  0  0  0  0  0  0  0  0  0  0  0
   59.7080   34.4850   46.9840 C   0  0  0  0  0  0  0  0  0  0  0  0
   58.2560   34.2770   46.1340 S   0  0  0  0  0  0  0  0  0  0  0  0
   58.5400   32.6650   45.7540 C   0  0  0  0  0  0  0  0  0  0  0  0
   57.7590   31.7630   45.0470 C   0  0  0  0  0  0  0  0  0  0  0  0
   56.6420   32.1260   44.5860 O   0  0  0  0  0  0  0  0  0  0  0  0
   58.2200   30.4750   44.8720 N   0  0  0  0  0  0  0  0  0  0  0  0
   57.3840   29.5100   44.1300 C   0  0  0  0  0  0  0  0  0  0  0  0
   56.3130   28.9210   45.0030 C   0  0  0  0  0  0  0  0  0  0  0  0
   55.1350   29.3570   44.8970 O   0  0  0  0  0  0  0  0  0  0  0  0
   56.6460   27.9210   45.9810 N   0  0  0  0  0  0  0  0  0  0  0  0
   57.0470   26.5610   45.7610 C   0  0  0  0  0  0  0  0  0  0  0  0
   57.1270   25.7090   46.8690 C   0  0  0  0  0  0  0  0  0  0  0  0
   57.5500   24.3830   46.7210 C   0  0  0  0  0  0  0  0  0  0  0  0
   57.9020   23.8990   45.4580 C   0  0  0  0  0  0  0  0  0  0  0  0
   58.4300   22.2360   45.2690 Cl  0  0  0  0  0  0  0  0  0  0  0  0
   57.8400   24.7470   44.3450 C   0  0  0  0  0  0  0  0  0  0  0  0
   57.4220   26.0730   44.4920 C   0  0  0  0  0  0  0  0  0  0  0  0
   59.7460   29.1460   47.9280 C   0  0  0  0  0  0  0  0  0  0  0  0
   59.8130   28.9330   49.3090 C   0  0  0  0  0  0  0  0  0  0  0  0
   60.1230   28.4557   51.8177 H   0  0  0  0  0  0  0  0  0  0  0  0
   59.7746   26.7090   51.5850 H   0  0  0  0  0  0  0  0  0  0  0  0
   61.4730   27.2938   51.5850 H   0  0  0  0  0  0  0  0  0  0  0  0
   61.2187   25.8152   49.3150 H   0  0  0  0  0  0  0  0  0  0  0  0
   61.0727   26.1854   46.8516 H   0  0  0  0  0  0  0  0  0  0  0  0
   61.3969   33.1469   47.4574 H   0  0  0  0  0  0  0  0  0  0  0  0
   60.0368   35.4171   47.4669 H   0  0  0  0  0  0  0  0  0  0  0  0
   56.9098   30.0262   43.2823 H   0  0  0  0  0  0  0  0  0  0  0  0
   58.0309   28.6922   43.7797 H   0  0  0  0  0  0  0  0  0  0  0  0
   56.8547   26.0855   47.8660 H   0  0  0  0  0  0  0  0  0  0  0  0
   57.6054   23.7220   47.5985 H   0  0  0  0  0  0  0  0  0  0  0  0
   58.1213   24.3682   43.3513 H   0  0  0  0  0  0  0  0  0  0  0  0
   57.3855   26.7372   43.6159 H   0  0  0  0  0  0  0  0  0  0  0  0
   59.3205   30.0820   47.5371 H   0  0  0  0  0  0  0  0  0  0  0  0
   59.4294   29.6985   49.9995 H   0  0  0  0  0  0  0  0  0  0  0  0
  1  2  1  0
  2  3  2  0
  3  4  1  0
  4  5  2  0
  5  6  1  0
  6  7  1  0
  7  8  2  0
  8  9  1  0
  9 10  1  0
 10 11  2  0
 11 12  1  0
 12 13  1  0
 13 14  1  0
 14 15  2  0
 14 16  1  0
 16 17  1  0
 17 18  1  0
 18 19  2  0
 18 20  1  0
 20 21  1  0
 21 22  2  0
 22 23  1  0
 23 24  2  0
 24 25  1  0
 24 26  1  0
 26 27  2  0
  5 28  1  0
 28 29  2  0
 29  2  1  0
 16  7  1  0
 27 21  1  0
 13  9  2  0
  1 30  1  0
  1 31  1  0
  1 32  1  0
  3 33  1  0
  4 34  1  0
 10 35  1  0
 11 36  1  0
 17 37  1  0
 17 38  1  0
 22 39  1  0
 23 40  1  0
 26 41  1  0
 27 42  1  0
 28 43  1  0
 29 44  1  0
M  CHG  1  20  -1
M  END
>  <UniqueID>  (93) 
86

>  <SMILES>  (93) 
Cc1ccc(Sc2nc3ccsc3c(=O)n2CC(=O)[N-]c2ccc(Cl)cc2)cc1

>  <Energy>  (93) 
80.39596758548986

>  <Genealogy>  (93) 
Cc1ccc(Sc2nc3ccsc3c(=O)n2CC(=O)[N-]c2ccc(Cl)cc2)cc1 (protonated)
Cc1ccc(Sc2nc3ccsc3c(=O)n2CC(=O)[N-]c2ccc(Cl)cc2)cc1 (3D coordinates assigned)
Cc1ccc(Sc2nc3ccsc3c(=O)n2CC(=O)[N-]c2ccc(Cl)cc2)cc1 (optimized conformer: 80.39596758548986 kcal/mol)

>  <smiles>  (93) 
Cc1ccc(Sc2nc3ccsc3c(=O)n2CC(=O)Nc2ccc(Cl)cc2)cc1

>  <score_type>  (93) 
oracle

>  <origin>  (93) 
adg

>  <m_score__min__energy>  (93) 
-10.48

>  <m_primary>  (93) 
energy

$$$$
93:0
     RDKit          3D

 49 52  0  0  0  0  0  0  0  0999 V2000
   66.9960   31.5520   50.8470 C   0  0  0  0  0  0  0  0  0  0  0  0
   65.7870   31.5360   50.0950 O   0  0  0  0  0  0  0  0  0  0  0  0
   64.7220   32.4280   50.2910 C   0  0  0  0  0  0  0  0  0  0  0  0
   64.8860   33.4650   51.2170 C   0  0  0  0  0  0  0  0  0  0  0  0
   63.8520   34.3760   51.4500 C   0  0  0  0  0  0  0  0  0  0  0  0
   62.6480   34.2630   50.7520 C   0  0  0  0  0  0  0  0  0  0  0  0
   62.4710   33.2440   49.8050 C   0  0  0  0  0  0  0  0  0  0  0  0
   61.2200   33.1260   49.1080 N   0  0  0  0  0  0  0  0  0  0  0  0
   60.0700   32.8710   49.7140 N   0  0  0  0  0  0  0  0  0  0  0  0
   59.0980   32.7730   48.8210 N   0  0  0  0  0  0  0  0  0  0  0  0
   59.6280   32.9700   47.5980 C   0  0  0  0  0  0  0  0  0  0  0  0
   58.8820   32.8780   46.3260 C   0  0  0  0  0  0  0  0  0  0  0  0
   59.0610   33.7580   45.2570 C   0  0  0  0  0  0  0  0  0  0  0  0
   57.9820   33.3250   44.0350 S   0  0  0  0  0  0  0  0  0  0  0  0
   57.3460   32.0460   44.9150 C   0  0  0  0  0  0  0  0  0  0  0  0
   56.3810   31.2860   44.4920 N   0  0  0  0  0  0  0  0  0  0  0  0
   56.3030   29.8640   44.6730 C   0  0  0  0  0  0  0  0  0  0  0  0
   55.1780   29.3360   44.8820 O   0  0  0  0  0  0  0  0  0  0  0  0
   57.4770   29.0480   44.5960 N   0  0  0  0  0  0  0  0  0  0  0  0
   57.7290   27.6320   45.5580 S   0  0  0  0  0  0  0  0  0  0  0  0
   58.4220   26.5920   44.7230 O   0  0  0  0  0  0  0  0  0  0  0  0
   56.4120   27.0690   46.0140 O   0  0  0  0  0  0  0  0  0  0  0  0
   58.7250   28.0470   46.9480 C   0  0  0  0  0  0  0  0  0  0  0  0
   59.5560   27.0840   47.5410 C   0  0  0  0  0  0  0  0  0  0  0  0
   60.3640   27.4290   48.6290 C   0  0  0  0  0  0  0  0  0  0  0  0
   60.3500   28.7360   49.1270 C   0  0  0  0  0  0  0  0  0  0  0  0
   61.3670   29.1670   50.4900 Cl  0  0  0  0  0  0  0  0  0  0  0  0
   59.5270   29.7000   48.5350 C   0  0  0  0  0  0  0  0  0  0  0  0
   58.7180   29.3570   47.4460 C   0  0  0  0  0  0  0  0  0  0  0  0
   57.9250   31.9340   46.1290 N   0  0  0  0  0  0  0  0  0  0  0  0
   60.9820   33.2160   47.7770 C   0  0  0  0  0  0  0  0  0  0  0  0
   61.9880   33.5710   46.7190 C   0  0  0  0  0  0  0  0  0  0  0  0
   63.5040   32.3140   49.5940 C   0  0  0  0  0  0  0  0  0  0  0  0
   66.7597   31.5489   51.9213 H   0  0  0  0  0  0  0  0  0  0  0  0
   67.5931   30.6617   50.6003 H   0  0  0  0  0  0  0  0  0  0  0  0
   67.5693   32.4578   50.6003 H   0  0  0  0  0  0  0  0  0  0  0  0
   65.8348   33.5635   51.7648 H   0  0  0  0  0  0  0  0  0  0  0  0
   63.9870   35.1835   52.1846 H   0  0  0  0  0  0  0  0  0  0  0  0
   61.8340   34.9770   50.9460 H   0  0  0  0  0  0  0  0  0  0  0  0
   58.1050   32.5560   49.0560 H   0  0  0  0  0  0  0  0  0  0  0  0
   59.7805   34.5891   45.2184 H   0  0  0  0  0  0  0  0  0  0  0  0
   59.5718   26.0562   47.1494 H   0  0  0  0  0  0  0  0  0  0  0  0
   61.0117   26.6712   49.0940 H   0  0  0  0  0  0  0  0  0  0  0  0
   59.5158   30.7282   48.9258 H   0  0  0  0  0  0  0  0  0  0  0  0
   58.0748   30.1177   46.9795 H   0  0  0  0  0  0  0  0  0  0  0  0
   62.9222   33.9007   47.1972 H   0  0  0  0  0  0  0  0  0  0  0  0
   62.1880   32.6892   46.0926 H   0  0  0  0  0  0  0  0  0  0  0  0
   61.5903   34.3831   46.0926 H   0  0  0  0  0  0  0  0  0  0  0  0
   63.3595   31.4908   48.8788 H   0  0  0  0  0  0  0  0  0  0  0  0
  1  2  1  0
  2  3  1  0
  3  4  2  0
  4  5  1  0
  5  6  2  0
  6  7  1  0
  7  8  1  0
  8  9  1  0
  9 10  2  0
 10 11  1  0
 11 12  1  0
 12 13  2  0
 13 14  1  0
 14 15  1  0
 15 16  2  3
 16 17  1  0
 17 18  2  0
 17 19  1  0
 19 20  1  0
 20 21  2  0
 20 22  2  0
 20 23  1  0
 23 24  2  0
 24 25  1  0
 25 26  2  0
 26 27  1  0
 26 28  1  0
 28 29  2  0
 15 30  1  0
 11 31  2  0
 31 32  1  0
  7 33  2  0
 33  3  1  0
 31  8  1  0
 30 12  1  0
 29 23  1  0
  1 34  1  0
  1 35  1  0
  1 36  1  0
  4 37  1  0
  5 38  1  0
  6 39  1  0
 10 40  1  0
 13 41  1  0
 24 42  1  0
 25 43  1  0
 28 44  1  0
 29 45  1  0
 32 46  1  0
 32 47  1  0
 32 48  1  0
 33 49  1  0
M  CHG  3  10   1  19  -1  30  -1
M  END
>  <UniqueID>  (94) 
87

>  <SMILES>  (94) 
COc1cccc(-n2n[nH+]c(-c3csc(=NC(=O)[N-]S(=O)(=O)c4ccc(Cl)cc4)[n-]3)c2C)c1

>  <Energy>  (94) 
125.20263526039152

>  <Genealogy>  (94) 
COc1cccc(-n2n[nH+]c(-c3csc(=NC(=O)[N-]S(=O)(=O)c4ccc(Cl)cc4)[n-]3)c2C)c1 (protonated)
COc1cccc(-n2n[nH+]c(-c3csc(=NC(=O)[N-]S(=O)(=O)c4ccc(Cl)cc4)[n-]3)c2C)c1 (3D coordinates assigned)
COc1cccc(-n2n[nH+]c(-c3csc(=NC(=O)[N-]S(=O)(=O)c4ccc(Cl)cc4)[n-]3)c2C)c1 (optimized conformer: 125.20263526039152 kcal/mol)

>  <smiles>  (94) 
COc1cccc(-n2nnc(-c3csc(=NC(=O)NS(=O)(=O)c4ccc(Cl)cc4)[nH]3)c2C)c1

>  <score_type>  (94) 
oracle

>  <origin>  (94) 
adg

>  <m_score__min__energy>  (94) 
-10.140000000000001

>  <m_primary>  (94) 
energy

$$$$
94:0
     RDKit          3D

 62 65  0  0  0  0  0  0  0  0999 V2000
   55.3090   23.1610   42.8370 C   0  0  0  0  0  0  0  0  0  0  0  0
   56.3530   22.1380   43.1720 C   0  0  0  0  0  0  0  0  0  0  0  0
   56.2520   20.9830   42.6760 O   0  0  0  0  0  0  0  0  0  0  0  0
   57.5070   22.4660   44.0480 C   0  0  0  0  0  0  0  0  0  0  0  0
   58.7500   21.8420   43.8390 C   0  0  0  0  0  0  0  0  0  0  0  0
   59.8560   22.1900   44.6170 C   0  0  0  0  0  0  0  0  0  0  0  0
   59.7330   23.1510   45.6220 C   0  0  0  0  0  0  0  0  0  0  0  0
   58.4950   23.7500   45.8750 C   0  0  0  0  0  0  0  0  0  0  0  0
   58.3910   24.7320   46.9130 N   0  0  0  0  0  0  0  0  0  0  0  0
   57.7020   25.9820   46.7850 C   0  0  0  0  0  0  0  0  0  0  0  0
   56.4480   25.9730   46.6580 O   0  0  0  0  0  0  0  0  0  0  0  0
   58.4350   27.2700   46.7270 C   0  0  0  0  0  0  0  0  0  0  0  0
   59.1140   27.6560   45.5590 C   0  0  0  0  0  0  0  0  0  0  0  0
   59.7180   28.9120   45.4700 C   0  0  0  0  0  0  0  0  0  0  0  0
   59.6520   29.8110   46.5470 C   0  0  0  0  0  0  0  0  0  0  0  0
   60.2010   31.2060   46.3970 C   0  0  0  0  0  0  0  0  0  0  0  0
   59.0990   32.2030   46.3560 N   0  0  0  0  0  0  0  0  0  0  0  0
   59.3970   33.3730   47.2120 C   0  0  0  0  0  0  0  0  0  0  0  0
   60.8800   33.4700   47.4530 C   0  0  0  0  0  0  0  0  0  0  0  0
   61.7600   33.7850   46.4050 C   0  0  0  0  0  0  0  0  0  0  0  0
   63.1390   33.8270   46.6340 C   0  0  0  0  0  0  0  0  0  0  0  0
   63.6480   33.5550   47.9070 C   0  0  0  0  0  0  0  0  0  0  0  0
   62.7770   33.2440   48.9560 C   0  0  0  0  0  0  0  0  0  0  0  0
   61.3980   33.2020   48.7320 C   0  0  0  0  0  0  0  0  0  0  0  0
   58.8020   32.6320   44.9720 C   0  0  0  0  0  0  0  0  0  0  0  0
   57.8650   31.6620   44.3070 C   0  0  0  0  0  0  0  0  0  0  0  0
   57.6500   31.7410   42.9220 C   0  0  0  0  0  0  0  0  0  0  0  0
   56.7980   30.8330   42.2910 C   0  0  0  0  0  0  0  0  0  0  0  0
   56.1370   29.8550   43.0370 C   0  0  0  0  0  0  0  0  0  0  0  0
   56.3350   29.7750   44.4220 C   0  0  0  0  0  0  0  0  0  0  0  0
   55.6780   28.8080   45.1780 O   0  0  0  0  0  0  0  0  0  0  0  0
   57.2050   30.6720   45.0530 C   0  0  0  0  0  0  0  0  0  0  0  0
   58.9900   29.4210   47.7220 C   0  0  0  0  0  0  0  0  0  0  0  0
   58.3870   28.1630   47.8130 C   0  0  0  0  0  0  0  0  0  0  0  0
   57.3870   23.4140   45.0800 C   0  0  0  0  0  0  0  0  0  0  0  0
   54.8882   23.5733   43.7660 H   0  0  0  0  0  0  0  0  0  0  0  0
   55.7651   23.9716   42.2496 H   0  0  0  0  0  0  0  0  0  0  0  0
   54.5079   22.6886   42.2496 H   0  0  0  0  0  0  0  0  0  0  0  0
   58.8515   21.0747   43.0574 H   0  0  0  0  0  0  0  0  0  0  0  0
   60.8271   21.7055   44.4374 H   0  0  0  0  0  0  0  0  0  0  0  0
   60.6127   23.4380   46.2168 H   0  0  0  0  0  0  0  0  0  0  0  0
   59.1703   26.9626   44.7070 H   0  0  0  0  0  0  0  0  0  0  0  0
   60.2489   29.1991   44.5504 H   0  0  0  0  0  0  0  0  0  0  0  0
   60.8582   31.4291   47.2504 H   0  0  0  0  0  0  0  0  0  0  0  0
   60.7658   31.2643   45.4549 H   0  0  0  0  0  0  0  0  0  0  0  0
   59.0485   34.2886   46.7118 H   0  0  0  0  0  0  0  0  0  0  0  0
   58.8813   33.2556   48.1765 H   0  0  0  0  0  0  0  0  0  0  0  0
   61.3637   33.9992   45.4015 H   0  0  0  0  0  0  0  0  0  0  0  0
   63.8247   34.0747   45.8103 H   0  0  0  0  0  0  0  0  0  0  0  0
   64.7333   33.5855   48.0837 H   0  0  0  0  0  0  0  0  0  0  0  0
   63.1776   33.0322   49.9584 H   0  0  0  0  0  0  0  0  0  0  0  0
   60.7156   32.9583   49.5596 H   0  0  0  0  0  0  0  0  0  0  0  0
   58.3353   33.6279   44.9944 H   0  0  0  0  0  0  0  0  0  0  0  0
   59.7419   32.6651   44.4015 H   0  0  0  0  0  0  0  0  0  0  0  0
   58.1544   32.5207   42.3323 H   0  0  0  0  0  0  0  0  0  0  0  0
   56.6468   30.8881   41.2028 H   0  0  0  0  0  0  0  0  0  0  0  0
   55.4601   29.1466   42.5370 H   0  0  0  0  0  0  0  0  0  0  0  0
   54.7620   28.9790   45.5740 H   0  0  0  0  0  0  0  0  0  0  0  0
   57.3724   30.6011   46.1379 H   0  0  0  0  0  0  0  0  0  0  0  0
   58.9454   30.1107   48.5778 H   0  0  0  0  0  0  0  0  0  0  0  0
   57.8718   27.8696   48.7395 H   0  0  0  0  0  0  0  0  0  0  0  0
   56.4163   23.8968   45.2662 H   0  0  0  0  0  0  0  0  0  0  0  0
  1  2  1  0
  2  3  2  0
  2  4  1  0
  4  5  2  0
  5  6  1  0
  6  7  2  0
  7  8  1  0
  8  9  1  0
  9 10  1  0
 10 11  2  0
 10 12  1  0
 12 13  2  0
 13 14  1  0
 14 15  2  0
 15 16  1  0
 16 17  1  0
 17 18  1  0
 18 19  1  0
 19 20  2  0
 20 21  1  0
 21 22  2  0
 22 23  1  0
 23 24  2  0
 17 25  1  0
 25 26  1  0
 26 27  2  0
 27 28  1  0
 28 29  2  0
 29 30  1  0
 30 31  1  0
 30 32  2  0
 15 33  1  0
 33 34  2  0
  8 35  2  0
 35  4  1  0
 34 12  1  0
 24 19  1  0
 32 26  1  0
  1 36  1  0
  1 37  1  0
  1 38  1  0
  5 39  1  0
  6 40  1  0
  7 41  1  0
 13 42  1  0
 14 43  1  0
 16 44  1  0
 16 45  1  0
 18 46  1  0
 18 47  1  0
 20 48  1  0
 21 49  1  0
 22 50  1  0
 23 51  1  0
 24 52  1  0
 25 53  1  0
 25 54  1  0
 27 55  1  0
 28 56  1  0
 29 57  1  0
 31 58  1  0
 32 59  1  0
 33 60  1  0
 34 61  1  0
 35 62  1  0
M  CHG  1   9  -1
M  END
>  <UniqueID>  (95) 
88

>  <SMILES>  (95) 
CC(=O)c1cccc([N-]C(=O)c2ccc(CN(Cc3ccccc3)Cc3cccc(O)c3)cc2)c1

>  <Energy>  (95) 
72.90300958114314

>  <Genealogy>  (95) 
CC(=O)c1cccc([N-]C(=O)c2ccc(CN(Cc3ccccc3)Cc3cccc(O)c3)cc2)c1 (protonated)
CC(=O)c1cccc([N-]C(=O)c2ccc(CN(Cc3ccccc3)Cc3cccc(O)c3)cc2)c1 (3D coordinates assigned)
CC(=O)c1cccc([N-]C(=O)c2ccc(CN(Cc3ccccc3)Cc3cccc(O)c3)cc2)c1 (optimized conformer: 72.90300958114314 kcal/mol)

>  <smiles>  (95) 
CC(=O)c1cccc(NC(=O)c2ccc(CN(Cc3ccccc3)Cc3cccc(O)c3)cc2)c1

>  <score_type>  (95) 
oracle

>  <origin>  (95) 
adg

>  <m_score__min__energy>  (95) 
-12.52

>  <m_primary>  (95) 
energy

$$$$
