0:0
     RDKit          3D

 49 52  0  0  0  0  0  0  0  0999 V2000
   58.4080   24.4530   46.1260 O   0  0  0  0  0  0  0  0  0  0  0  0
   59.1810   25.4010   45.8220 C   0  0  0  0  0  0  0  0  0  0  0  0
   60.4490   25.5980   46.5910 C   0  0  0  0  0  0  0  0  0  0  0  0
   60.7230   27.0200   46.7980 N   0  0  0  0  0  0  0  0  0  0  0  0
   59.7610   27.6730   48.0950 S   0  0  0  0  0  0  0  0  0  0  0  0
   58.3090   27.3730   47.8520 O   0  0  0  0  0  0  0  0  0  0  0  0
   60.1680   27.0150   49.3820 O   0  0  0  0  0  0  0  0  0  0  0  0
   60.0050   29.4130   48.2450 C   0  0  0  0  0  0  0  0  0  0  0  0
   59.1210   30.1720   49.0220 C   0  0  0  0  0  0  0  0  0  0  0  0
   59.3110   31.5490   49.1670 C   0  0  0  0  0  0  0  0  0  0  0  0
   60.3930   32.1820   48.5380 C   0  0  0  0  0  0  0  0  0  0  0  0
   60.5940   33.5640   48.6770 C   0  0  0  0  0  0  0  0  0  0  0  0
   61.6780   34.1820   48.0480 C   0  0  0  0  0  0  0  0  0  0  0  0
   62.5680   33.4260   47.2780 C   0  0  0  0  0  0  0  0  0  0  0  0
   62.3790   32.0490   47.1320 C   0  0  0  0  0  0  0  0  0  0  0  0
   61.2930   31.4170   47.7570 C   0  0  0  0  0  0  0  0  0  0  0  0
   61.0930   30.0360   47.6170 C   0  0  0  0  0  0  0  0  0  0  0  0
   58.8940   26.2570   44.7080 N   0  0  0  0  0  0  0  0  0  0  0  0
   58.3640   27.5900   44.7670 C   0  0  0  0  0  0  0  0  0  0  0  0
   56.9920   27.8260   44.9630 C   0  0  0  0  0  0  0  0  0  0  0  0
   56.5000   29.1330   45.0390 C   0  0  0  0  0  0  0  0  0  0  0  0
   55.1320   29.3410   45.1860 O   0  0  0  0  0  0  0  0  0  0  0  0
   57.3820   30.2220   44.9580 C   0  0  0  0  0  0  0  0  0  0  0  0
   56.9020   31.5760   45.0030 N   0  0  0  0  0  0  0  0  0  0  0  0
   57.6030   32.6430   45.2630 C   0  0  0  0  0  0  0  0  0  0  0  0
   57.5300   33.3140   46.5020 C   0  0  0  0  0  0  0  0  0  0  0  0
   58.3200   34.4460   46.7170 C   0  0  0  0  0  0  0  0  0  0  0  0
   59.1760   34.8980   45.7140 C   0  0  0  0  0  0  0  0  0  0  0  0
   59.2350   34.2040   44.5050 C   0  0  0  0  0  0  0  0  0  0  0  0
   58.4580   33.1050   44.3110 N   0  0  0  0  0  0  0  0  0  0  0  0
   58.7460   29.9910   44.7550 C   0  0  0  0  0  0  0  0  0  0  0  0
   59.2440   28.6860   44.6760 C   0  0  0  0  0  0  0  0  0  0  0  0
   60.6160   28.5020   44.4970 O   0  0  0  0  0  0  0  0  0  0  0  0
   60.3565   25.1037   47.5693 H   0  0  0  0  0  0  0  0  0  0  0  0
   61.2786   25.1622   46.0150 H   0  0  0  0  0  0  0  0  0  0  0  0
   58.2722   29.6816   49.5210 H   0  0  0  0  0  0  0  0  0  0  0  0
   58.6098   32.1381   49.7763 H   0  0  0  0  0  0  0  0  0  0  0  0
   59.8968   34.1619   49.2823 H   0  0  0  0  0  0  0  0  0  0  0  0
   61.8318   35.2656   48.1587 H   0  0  0  0  0  0  0  0  0  0  0  0
   63.4201   33.9173   46.7854 H   0  0  0  0  0  0  0  0  0  0  0  0
   63.0828   31.4595   46.5261 H   0  0  0  0  0  0  0  0  0  0  0  0
   61.7920   29.4395   47.0125 H   0  0  0  0  0  0  0  0  0  0  0  0
   56.3001   26.9761   45.0573 H   0  0  0  0  0  0  0  0  0  0  0  0
   56.8569   32.9490   47.2918 H   0  0  0  0  0  0  0  0  0  0  0  0
   58.2666   34.9802   47.6771 H   0  0  0  0  0  0  0  0  0  0  0  0
   59.7977   35.7913   45.8738 H   0  0  0  0  0  0  0  0  0  0  0  0
   59.9110   34.5464   43.7076 H   0  0  0  0  0  0  0  0  0  0  0  0
   59.4341   30.8435   44.6565 H   0  0  0  0  0  0  0  0  0  0  0  0
   61.0880   27.6470   44.7660 H   0  0  0  0  0  0  0  0  0  0  0  0
  1  2  2  0
  2  3  1  0
  3  4  1  0
  4  5  1  0
  5  6  2  0
  5  7  2  0
  5  8  1  0
  8  9  2  0
  9 10  1  0
 10 11  2  0
 11 12  1  0
 12 13  2  0
 13 14  1  0
 14 15  2  0
 15 16  1  0
 16 17  2  0
  2 18  1  0
 18 19  1  0
 19 20  2  0
 20 21  1  0
 21 22  1  0
 21 23  2  0
 23 24  1  0
 24 25  2  3
 25 26  1  0
 26 27  2  0
 27 28  1  0
 28 29  2  0
 29 30  1  0
 23 31  1  0
 31 32  2  0
 32 33  1  0
 17  8  1  0
 32 19  1  0
 16 11  1  0
 30 25  1  0
  3 34  1  0
  3 35  1  0
  9 36  1  0
 10 37  1  0
 12 38  1  0
 13 39  1  0
 14 40  1  0
 15 41  1  0
 17 42  1  0
 20 43  1  0
 26 44  1  0
 27 45  1  0
 28 46  1  0
 29 47  1  0
 31 48  1  0
 33 49  1  0
M  CHG  4   4  -1  18  -1  22  -1  30  -1
M  END
>  <UniqueID>  (1) 
1

>  <SMILES>  (1) 
O=C(C[N-]S(=O)(=O)c1ccc2ccccc2c1)[N-]c1cc([O-])c(N=c2cccc[n-]2)cc1O

>  <Energy>  (1) 
70.22940042529126

>  <Genealogy>  (1) 
O=C(C[N-]S(=O)(=O)c1ccc2ccccc2c1)[N-]c1cc([O-])c(N=c2cccc[n-]2)cc1O (protonated)
O=C(C[N-]S(=O)(=O)c1ccc2ccccc2c1)[N-]c1cc([O-])c(N=c2cccc[n-]2)cc1O (3D coordinates assigned)
O=C(C[N-]S(=O)(=O)c1ccc2ccccc2c1)[N-]c1cc([O-])c(N=c2cccc[n-]2)cc1O (optimized conformer: 70.22940042529126 kcal/mol)

>  <smiles>  (1) 
O=C(CNS(=O)(=O)c1ccc2ccccc2c1)Nc1cc(O)c(N=c2cccc[nH]2)cc1O

>  <score_type>  (1) 
oracle

>  <origin>  (1) 
adg

>  <m_score__min__energy>  (1) 
-16.940000000000001

>  <m_primary>  (1) 
energy

$$$$
1:0
     RDKit          3D

 47 49  0  0  0  0  0  0  0  0999 V2000
   56.6540   31.4080   45.6260 H   0  0  0  0  0  0  0  0  0  0  0  0
   56.8280   30.4650   45.2100 N   0  0  0  0  0  0  0  0  0  0  0  0
   58.0120   29.9480   45.1090 C   0  0  0  0  0  0  0  0  0  0  0  0
   58.9280   29.9090   46.2780 C   0  0  0  0  0  0  0  0  0  0  0  0
   60.2520   30.3680   46.1700 C   0  0  0  0  0  0  0  0  0  0  0  0
   60.6179   30.7584   45.2089 H   0  0  0  0  0  0  0  0  0  0  0  0
   61.1070   30.3320   47.2750 C   0  0  0  0  0  0  0  0  0  0  0  0
   62.1463   30.6780   47.1741 H   0  0  0  0  0  0  0  0  0  0  0  0
   60.6470   29.8570   48.5120 C   0  0  0  0  0  0  0  0  0  0  0  0
   61.5390   29.8030   49.6880 C   0  0  0  0  0  0  0  0  0  0  0  0
   61.7328   28.8210   50.1441 H   0  0  0  0  0  0  0  0  0  0  0  0
   62.1100   30.8460   50.2180 N   0  0  0  0  0  0  0  0  0  0  0  0
   62.3430   32.1210   49.5990 C   0  0  0  0  0  0  0  0  0  0  0  0
   63.4880   32.3710   49.1380 O   0  0  0  0  0  0  0  0  0  0  0  0
   61.3040   33.2220   49.6350 C   0  0  1  0  0  0  0  0  0  0  0  0
   61.8190   34.1121   50.0256 H   0  0  0  0  0  0  0  0  0  0  0  0
   60.7460   33.4300   48.3070 N   0  0  0  0  0  0  0  0  0  0  0  0
   59.4340   33.1300   48.2640 C   0  0  0  0  0  0  0  0  0  0  0  0
   58.7030   33.2580   47.0730 C   0  0  0  0  0  0  0  0  0  0  0  0
   57.3440   32.9400   47.0200 O   0  0  0  0  0  0  0  0  0  0  0  0
   56.9230   32.4990   46.2110 H   0  0  0  0  0  0  0  0  0  0  0  0
   59.3730   33.7200   45.9220 C   0  0  0  0  0  0  0  0  0  0  0  0
   58.6480   33.9070   44.6110 C   0  0  0  0  0  0  0  0  0  0  0  0
   59.3834   33.9501   43.7941 H   0  0  0  0  0  0  0  0  0  0  0  0
   58.0724   34.8434   44.6542 H   0  0  0  0  0  0  0  0  0  0  0  0
   57.7560   32.8330   44.3780 O   0  0  0  0  0  0  0  0  0  0  0  0
   57.8270   32.4230   43.0300 C   0  0  0  0  0  0  0  0  0  0  0  0
   58.0145   31.3400   42.9855 H   0  0  0  0  0  0  0  0  0  0  0  0
   56.8759   32.6514   42.5267 H   0  0  0  0  0  0  0  0  0  0  0  0
   58.6459   32.9579   42.5267 H   0  0  0  0  0  0  0  0  0  0  0  0
   60.7370   34.0530   46.0040 C   0  0  0  0  0  0  0  0  0  0  0  0
   61.2669   34.4303   45.1170 H   0  0  0  0  0  0  0  0  0  0  0  0
   61.4180   33.9030   47.2170 C   0  0  0  0  0  0  0  0  0  0  0  0
   62.6390   34.2050   47.2950 O   0  0  0  0  0  0  0  0  0  0  0  0
   58.8990   32.6800   49.5710 C   0  0  0  0  0  0  0  0  0  0  0  0
   58.0552   33.3101   49.8889 H   0  0  0  0  0  0  0  0  0  0  0  0
   58.5092   31.6517   49.5443 H   0  0  0  0  0  0  0  0  0  0  0  0
   60.0940   32.8430   50.5200 C   0  0  0  0  0  0  0  0  0  0  0  0
   59.8932   33.6395   51.2517 H   0  0  0  0  0  0  0  0  0  0  0  0
   60.2856   31.9179   51.0834 H   0  0  0  0  0  0  0  0  0  0  0  0
   59.3410   29.3620   48.6130 C   0  0  0  0  0  0  0  0  0  0  0  0
   58.9865   28.9448   49.5671 H   0  0  0  0  0  0  0  0  0  0  0  0
   58.4850   29.3950   47.5080 C   0  0  0  0  0  0  0  0  0  0  0  0
   57.4568   29.0156   47.6025 H   0  0  0  0  0  0  0  0  0  0  0  0
   58.4220   29.4020   43.8540 N   0  0  0  0  0  0  0  0  0  0  0  0
   59.3970   29.0560   43.7060 H   0  0  0  0  0  0  0  0  0  0  0  0
   57.7650   29.3900   43.0440 H   0  0  0  0  0  0  0  0  0  0  0  0
  1  2  1  0
  2  3  2  3
  3  4  1  0
  4  5  2  0
  5  6  1  0
  5  7  1  0
  7  8  1  0
  7  9  2  0
  9 10  1  0
 10 11  1  0
 10 12  2  0
 12 13  1  0
 13 14  2  0
 13 15  1  0
 15 16  1  1
 15 17  1  0
 17 18  1  0
 18 19  2  0
 19 20  1  0
 20 21  1  0
 19 22  1  0
 22 23  1  0
 23 24  1  0
 23 25  1  0
 23 26  1  0
 26 27  1  0
 27 28  1  0
 27 29  1  0
 27 30  1  0
 22 31  2  0
 31 32  1  0
 31 33  1  0
 33 34  2  0
 18 35  1  0
 35 36  1  0
 35 37  1  0
 35 38  1  0
 38 39  1  0
 38 40  1  0
  9 41  1  0
 41 42  1  0
 41 43  2  0
 43 44  1  0
  3 45  1  0
 45 46  1  0
 45 47  1  0
 43  4  1  0
 38 15  1  0
 33 17  1  0
M  END
>  <UniqueID>  (2) 
2

>  <SMILES>  (2) 
COCc1cc(=O)n2c(c1O)CC[C@H]2C(=O)/N=C\c1ccc(C(=N)N)cc1

>  <Energy>  (2) 
72.02755681279581

>  <Genealogy>  (2) 
COCc1cc(=O)n2c(c1O)CC[C@H]2C(=O)N=Cc1ccc(C(=N)N)cc1 (chirality)
COCc1cc(=O)n2c(c1O)CC[C@H]2C(=O)/N=C\c1ccc(C(=N)N)cc1 (cis-trans isomerization)
COCc1cc(=O)n2c(c1O)CC[C@H]2C(=O)/N=C\c1ccc(C(=N)N)cc1 (3D coordinates assigned)
COCc1cc(=O)n2c(c1O)CC[C@H]2C(=O)/N=C\c1ccc(C(=N)N)cc1 (nonaromatic ring conformer: 72.02755681279581 kcal/mol)

>  <smiles>  (2) 
COCc1cc(=O)n2c(c1O)CCC2C(=O)N=Cc1ccc(C(=N)N)cc1

>  <score_type>  (2) 
oracle

>  <origin>  (2) 
adg

>  <m_score__min__energy>  (2) 
-8.6600000000000001

>  <m_primary>  (2) 
energy

$$$$
2:0
     RDKit          3D

 54 57  0  0  0  0  0  0  0  0999 V2000
   60.7480   26.3550   46.2390 C   0  0  0  0  0  0  0  0  0  0  0  0
   59.9560   27.4790   46.8530 C   0  0  0  0  0  0  0  0  0  0  0  0
   60.0080   27.6770   48.2400 C   0  0  0  0  0  0  0  0  0  0  0  0
   59.3660   28.7670   48.8230 C   0  0  0  0  0  0  0  0  0  0  0  0
   58.6660   29.6760   48.0300 C   0  0  0  0  0  0  0  0  0  0  0  0
   58.5900   29.4990   46.6420 C   0  0  0  0  0  0  0  0  0  0  0  0
   57.7910   30.4630   45.8470 C   0  0  0  0  0  0  0  0  0  0  0  0
   56.7130   30.0740   45.3220 O   0  0  0  0  0  0  0  0  0  0  0  0
   58.2260   31.8650   45.6580 C   0  0  0  0  0  0  0  0  0  0  0  0
   57.3830   32.7850   45.0140 C   0  0  0  0  0  0  0  0  0  0  0  0
   57.7600   34.1240   44.9010 C   0  0  0  0  0  0  0  0  0  0  0  0
   58.9900   34.5530   45.4030 C   0  0  0  0  0  0  0  0  0  0  0  0
   59.8700   33.6380   45.9940 C   0  0  0  0  0  0  0  0  0  0  0  0
   61.1440   34.1060   46.4510 N   0  0  0  0  0  0  0  0  0  0  0  0
   62.1160   33.3070   47.6440 S   0  0  0  0  0  0  0  0  0  0  0  0
   62.7140   32.0700   47.0330 O   0  0  0  0  0  0  0  0  0  0  0  0
   63.2300   34.2210   48.0640 O   0  0  0  0  0  0  0  0  0  0  0  0
   61.1480   32.8960   49.0550 C   0  0  0  0  0  0  0  0  0  0  0  0
   60.1670   33.7820   49.5240 C   0  0  0  0  0  0  0  0  0  0  0  0
   59.3700   33.4310   50.6180 C   0  0  0  0  0  0  0  0  0  0  0  0
   59.5440   32.1930   51.2410 C   0  0  0  0  0  0  0  0  0  0  0  0
   60.5310   31.3140   50.7870 C   0  0  0  0  0  0  0  0  0  0  0  0
   61.3330   31.6650   49.6970 C   0  0  0  0  0  0  0  0  0  0  0  0
   59.4780   32.2950   46.1270 C   0  0  0  0  0  0  0  0  0  0  0  0
   59.2640   28.4020   46.0430 C   0  0  0  0  0  0  0  0  0  0  0  0
   59.2450   28.2060   44.6210 N   0  0  0  0  0  0  0  0  0  0  0  0
   58.0970   27.7700   43.8860 C   0  0  0  0  0  0  0  0  0  0  0  0
   57.3540   28.6070   43.2980 O   0  0  0  0  0  0  0  0  0  0  0  0
   57.8230   26.3090   43.7560 C   0  0  0  0  0  0  0  0  0  0  0  0
   57.3960   25.7520   45.0760 C   0  0  0  0  0  0  0  0  0  0  0  0
   57.9900   24.3300   45.7590 S   0  0  0  0  0  0  0  0  0  0  0  0
   56.9620   24.4420   47.0840 C   0  0  0  0  0  0  0  0  0  0  0  0
   56.9340   23.6160   48.0310 O   0  0  0  0  0  0  0  0  0  0  0  0
   56.1610   25.5280   47.0320 N   0  0  0  0  0  0  0  0  0  0  0  0
   56.3990   26.2550   45.9090 C   0  0  0  0  0  0  0  0  0  0  0  0
   55.6900   27.4150   45.6200 O   0  0  0  0  0  0  0  0  0  0  0  0
   61.1844   25.7356   47.0365 H   0  0  0  0  0  0  0  0  0  0  0  0
   60.0849   25.7368   45.6160 H   0  0  0  0  0  0  0  0  0  0  0  0
   61.5533   26.7715   45.6160 H   0  0  0  0  0  0  0  0  0  0  0  0
   60.5599   26.9662   48.8726 H   0  0  0  0  0  0  0  0  0  0  0  0
   59.4113   28.9113   49.9126 H   0  0  0  0  0  0  0  0  0  0  0  0
   58.1695   30.5389   48.4979 H   0  0  0  0  0  0  0  0  0  0  0  0
   56.4221   32.4491   44.5971 H   0  0  0  0  0  0  0  0  0  0  0  0
   57.0855   34.8440   44.4146 H   0  0  0  0  0  0  0  0  0  0  0  0
   59.2692   35.6147   45.3340 H   0  0  0  0  0  0  0  0  0  0  0  0
   60.0244   34.7546   49.0304 H   0  0  0  0  0  0  0  0  0  0  0  0
   58.6057   34.1301   50.9882 H   0  0  0  0  0  0  0  0  0  0  0  0
   58.9038   31.9098   52.0895 H   0  0  0  0  0  0  0  0  0  0  0  0
   60.6769   30.3454   51.2875 H   0  0  0  0  0  0  0  0  0  0  0  0
   62.1111   30.9728   49.3428 H   0  0  0  0  0  0  0  0  0  0  0  0
   60.1584   31.5736   46.6031 H   0  0  0  0  0  0  0  0  0  0  0  0
   57.0226   26.1523   43.0179 H   0  0  0  0  0  0  0  0  0  0  0  0
   58.7388   25.7967   43.4259 H   0  0  0  0  0  0  0  0  0  0  0  0
   56.0100   28.0480   44.9000 H   0  0  0  0  0  0  0  0  0  0  0  0
  1  2  1  0
  2  3  2  0
  3  4  1  0
  4  5  2  0
  5  6  1  0
  6  7  1  0
  7  8  2  0
  7  9  1  0
  9 10  2  0
 10 11  1  0
 11 12  2  0
 12 13  1  0
 13 14  1  0
 14 15  1  0
 15 16  2  0
 15 17  2  0
 15 18  1  0
 18 19  2  0
 19 20  1  0
 20 21  2  0
 21 22  1  0
 22 23  2  0
 13 24  2  0
  6 25  2  0
 25 26  1  0
 26 27  1  0
 27 28  2  0
 27 29  1  0
 29 30  1  0
 30 31  1  0
 31 32  1  0
 32 33  2  0
 32 34  1  0
 34 35  1  0
 35 36  1  0
 25  2  1  0
 35 30  2  0
 24  9  1  0
 23 18  1  0
  1 37  1  0
  1 38  1  0
  1 39  1  0
  3 40  1  0
  4 41  1  0
  5 42  1  0
 10 43  1  0
 11 44  1  0
 12 45  1  0
 19 46  1  0
 20 47  1  0
 21 48  1  0
 22 49  1  0
 23 50  1  0
 24 51  1  0
 29 52  1  0
 29 53  1  0
 36 54  1  0
M  CHG  3  14  -1  26  -1  34  -1
M  END
>  <UniqueID>  (3) 
3

>  <SMILES>  (3) 
Cc1cccc(C(=O)c2cccc([N-]S(=O)(=O)c3ccccc3)c2)c1[N-]C(=O)Cc1sc(=O)[n-]c1O

>  <Energy>  (3) 
97.38303799983507

>  <Genealogy>  (3) 
Cc1cccc(C(=O)c2cccc([N-]S(=O)(=O)c3ccccc3)c2)c1[N-]C(=O)Cc1sc(=O)[n-]c1O (protonated)
Cc1cccc(C(=O)c2cccc([N-]S(=O)(=O)c3ccccc3)c2)c1[N-]C(=O)Cc1sc(=O)[n-]c1O (3D coordinates assigned)
Cc1cccc(C(=O)c2cccc([N-]S(=O)(=O)c3ccccc3)c2)c1[N-]C(=O)Cc1sc(=O)[n-]c1O (optimized conformer: 97.38303799983507 kcal/mol)

>  <smiles>  (3) 
Cc1cccc(C(=O)c2cccc(NS(=O)(=O)c3ccccc3)c2)c1NC(=O)Cc1sc(=O)[nH]c1O

>  <score_type>  (3) 
oracle

>  <origin>  (3) 
adg

>  <m_score__min__energy>  (3) 
-14.69

>  <m_primary>  (3) 
energy

$$$$
3:0
     RDKit          3D

 57 59  0  0  0  0  0  0  0  0999 V2000
   56.5480   27.2400   46.0660 O   0  0  0  0  0  0  0  0  0  0  0  0
   56.6550   28.4010   45.5850 C   0  0  0  0  0  0  0  0  0  0  0  0
   57.9100   29.2000   45.7760 C   0  0  0  0  0  0  0  0  0  0  0  0
   58.1540   29.4800   47.1890 N   0  0  0  0  0  0  0  0  0  0  0  0
   59.3580   30.0840   47.6830 C   0  0  0  0  0  0  0  0  0  0  0  0
   60.4660   29.8000   47.1510 O   0  0  0  0  0  0  0  0  0  0  0  0
   59.2770   31.1340   48.7690 C   0  0  2  0  0  0  0  0  0  0  0  0
   58.5460   30.6650   50.0530 C   0  0  0  0  0  0  0  0  0  0  0  0
   58.7310   31.6120   51.2130 C   0  0  0  0  0  0  0  0  0  0  0  0
   57.6570   32.4010   51.6600 C   0  0  0  0  0  0  0  0  0  0  0  0
   57.8230   33.2700   52.7440 C   0  0  0  0  0  0  0  0  0  0  0  0
   59.0580   33.3550   53.3910 C   0  0  0  0  0  0  0  0  0  0  0  0
   60.1300   32.5710   52.9550 C   0  0  0  0  0  0  0  0  0  0  0  0
   59.9690   31.7010   51.8730 C   0  0  0  0  0  0  0  0  0  0  0  0
   58.7160   32.3940   48.2510 N   0  0  0  0  0  0  0  0  0  0  0  0
   59.6760   33.8120   48.6050 S   0  0  0  0  0  0  0  0  0  0  0  0
   59.6450   34.1260   50.0750 O   0  0  0  0  0  0  0  0  0  0  0  0
   59.1130   34.9830   47.8510 O   0  0  0  0  0  0  0  0  0  0  0  0
   61.3330   33.5460   48.0730 C   0  0  0  0  0  0  0  0  0  0  0  0
   61.7320   33.8770   46.7690 C   0  0  0  0  0  0  0  0  0  0  0  0
   63.0540   33.6700   46.3660 C   0  0  0  0  0  0  0  0  0  0  0  0
   63.9840   33.1320   47.2600 C   0  0  0  0  0  0  0  0  0  0  0  0
   63.5900   32.7960   48.5590 C   0  0  0  0  0  0  0  0  0  0  0  0
   62.2670   33.0020   48.9640 C   0  0  0  0  0  0  0  0  0  0  0  0
   55.5760   28.9730   44.8420 N   0  0  0  0  0  0  0  0  0  0  0  0
   55.5170   30.3880   44.4970 C   0  0  0  0  0  0  0  0  0  0  0  0
   56.7610   30.7750   43.6960 C   0  0  0  0  0  0  0  0  0  0  0  0
   57.3380   32.0700   44.2050 C   0  0  0  0  0  0  0  0  0  0  0  0
   58.4490   32.6490   43.5680 C   0  0  0  0  0  0  0  0  0  0  0  0
   59.0040   33.8320   44.0620 C   0  0  0  0  0  0  0  0  0  0  0  0
   58.4570   34.4450   45.1950 C   0  0  0  0  0  0  0  0  0  0  0  0
   57.3520   33.8750   45.8330 C   0  0  0  0  0  0  0  0  0  0  0  0
   56.8010   32.6850   45.3480 C   0  0  0  0  0  0  0  0  0  0  0  0
   58.7608   28.6321   45.3716 H   0  0  0  0  0  0  0  0  0  0  0  0
   57.7940   30.1582   45.2483 H   0  0  0  0  0  0  0  0  0  0  0  0
   60.3152   31.3178   49.0825 H   0  0  0  0  0  0  0  0  0  0  0  0
   57.4710   30.5830   49.8348 H   0  0  0  0  0  0  0  0  0  0  0  0
   58.9794   29.6970   50.3447 H   0  0  0  0  0  0  0  0  0  0  0  0
   56.6818   32.3350   51.1554 H   0  0  0  0  0  0  0  0  0  0  0  0
   56.9796   33.8872   53.0872 H   0  0  0  0  0  0  0  0  0  0  0  0
   59.1869   34.0385   54.2432 H   0  0  0  0  0  0  0  0  0  0  0  0
   61.1025   32.6389   53.4646 H   0  0  0  0  0  0  0  0  0  0  0  0
   60.8147   31.0833   51.5364 H   0  0  0  0  0  0  0  0  0  0  0  0
   61.0027   34.3003   46.0626 H   0  0  0  0  0  0  0  0  0  0  0  0
   63.3633   33.9310   45.3432 H   0  0  0  0  0  0  0  0  0  0  0  0
   65.0250   32.9730   46.9420 H   0  0  0  0  0  0  0  0  0  0  0  0
   64.3205   32.3697   49.2624 H   0  0  0  0  0  0  0  0  0  0  0  0
   61.9590   32.7358   49.9859 H   0  0  0  0  0  0  0  0  0  0  0  0
   54.6183   30.5799   43.8924 H   0  0  0  0  0  0  0  0  0  0  0  0
   55.4763   30.9866   45.4190 H   0  0  0  0  0  0  0  0  0  0  0  0
   57.5153   29.9802   43.7933 H   0  0  0  0  0  0  0  0  0  0  0  0
   56.4775   30.9036   42.6410 H   0  0  0  0  0  0  0  0  0  0  0  0
   58.8827   32.1694   42.6781 H   0  0  0  0  0  0  0  0  0  0  0  0
   59.8726   34.2826   43.5595 H   0  0  0  0  0  0  0  0  0  0  0  0
   58.8968   35.3755   45.5833 H   0  0  0  0  0  0  0  0  0  0  0  0
   56.9155   34.3627   46.7171 H   0  0  0  0  0  0  0  0  0  0  0  0
   55.9433   32.2285   45.8637 H   0  0  0  0  0  0  0  0  0  0  0  0
  1  2  2  0
  2  3  1  0
  3  4  1  0
  4  5  1  0
  5  6  2  0
  5  7  1  0
  7  8  1  0
  8  9  1  0
  9 10  2  0
 10 11  1  0
 11 12  2  0
 12 13  1  0
 13 14  2  0
  7 15  1  0
 15 16  1  0
 16 17  2  0
 16 18  2  0
 16 19  1  0
 19 20  2  0
 20 21  1  0
 21 22  2  0
 22 23  1  0
 23 24  2  0
  2 25  1  0
 25 26  1  0
 26 27  1  0
 27 28  1  0
 28 29  2  0
 29 30  1  0
 30 31  2  0
 31 32  1  0
 32 33  2  0
 14  9  1  0
 24 19  1  0
 33 28  1  0
  3 34  1  0
  3 35  1  0
  7 36  1  1
  8 37  1  0
  8 38  1  0
 10 39  1  0
 11 40  1  0
 12 41  1  0
 13 42  1  0
 14 43  1  0
 20 44  1  0
 21 45  1  0
 22 46  1  0
 23 47  1  0
 24 48  1  0
 26 49  1  0
 26 50  1  0
 27 51  1  0
 27 52  1  0
 29 53  1  0
 30 54  1  0
 31 55  1  0
 32 56  1  0
 33 57  1  0
M  CHG  3   4  -1  15  -1  25  -1
M  END
>  <UniqueID>  (4) 
4

>  <SMILES>  (4) 
O=C(C[N-]C(=O)[C@H](Cc1ccccc1)[N-]S(=O)(=O)c1ccccc1)[N-]CCc1ccccc1

>  <Energy>  (4) 
54.99908343968641

>  <Genealogy>  (4) 
O=C(C[N-]C(=O)C(Cc1ccccc1)[N-]S(=O)(=O)c1ccccc1)[N-]CCc1ccccc1 (protonated)
O=C(C[N-]C(=O)[C@H](Cc1ccccc1)[N-]S(=O)(=O)c1ccccc1)[N-]CCc1ccccc1 (chirality)
O=C(C[N-]C(=O)[C@H](Cc1ccccc1)[N-]S(=O)(=O)c1ccccc1)[N-]CCc1ccccc1 (3D coordinates assigned)
O=C(C[N-]C(=O)[C@H](Cc1ccccc1)[N-]S(=O)(=O)c1ccccc1)[N-]CCc1ccccc1 (optimized conformer: 54.99908343968641 kcal/mol)

>  <smiles>  (4) 
O=C(CNC(=O)C(Cc1ccccc1)NS(=O)(=O)c1ccccc1)NCCc1ccccc1

>  <score_type>  (4) 
oracle

>  <origin>  (4) 
adg

>  <m_score__min__energy>  (4) 
-14.02

>  <m_primary>  (4) 
energy

$$$$
4:0
     RDKit          3D

 53 56  0  0  0  0  0  0  0  0999 V2000
   63.7090   32.3930   50.9530 C   0  0  0  0  0  0  0  0  0  0  0  0
   63.2130   33.0080   49.6670 C   0  0  0  0  0  0  0  0  0  0  0  0
   64.1540   33.2860   48.6660 C   0  0  0  0  0  0  0  0  0  0  0  0
   63.7450   33.8440   47.4590 C   0  0  0  0  0  0  0  0  0  0  0  0
   62.4340   34.1000   47.2410 N   0  0  0  0  0  0  0  0  0  0  0  0
   61.4770   33.8240   48.1660 C   0  0  0  0  0  0  0  0  0  0  0  0
   60.1470   34.1130   47.8470 O   0  0  0  0  0  0  0  0  0  0  0  0
   59.3380   33.2810   47.0570 C   0  0  0  0  0  0  0  0  0  0  0  0
   59.6530   31.9200   46.9780 C   0  0  0  0  0  0  0  0  0  0  0  0
   58.8900   31.0610   46.1810 C   0  0  0  0  0  0  0  0  0  0  0  0
   57.8050   31.5590   45.4410 C   0  0  0  0  0  0  0  0  0  0  0  0
   56.9920   30.6990   44.6330 N   0  0  0  0  0  0  0  0  0  0  0  0
   56.6810   29.3300   44.9220 C   0  0  0  0  0  0  0  0  0  0  0  0
   55.4770   28.9600   44.8730 O   0  0  0  0  0  0  0  0  0  0  0  0
   57.7220   28.3850   45.2280 N   0  0  0  0  0  0  0  0  0  0  0  0
   57.4940   26.9910   45.4960 C   0  0  0  0  0  0  0  0  0  0  0  0
   57.4570   26.5460   46.8260 C   0  0  0  0  0  0  0  0  0  0  0  0
   57.2670   25.1920   47.1160 C   0  0  0  0  0  0  0  0  0  0  0  0
   57.1280   24.2660   46.0780 C   0  0  0  0  0  0  0  0  0  0  0  0
   56.9480   22.9530   46.3700 F   0  0  0  0  0  0  0  0  0  0  0  0
   57.1860   24.6950   44.7450 C   0  0  0  0  0  0  0  0  0  0  0  0
   57.0390   23.5360   43.4350 Cl  0  0  0  0  0  0  0  0  0  0  0  0
   57.3750   26.0530   44.4550 C   0  0  0  0  0  0  0  0  0  0  0  0
   57.4640   32.9120   45.5490 C   0  0  0  0  0  0  0  0  0  0  0  0
   58.2280   33.7720   46.3430 C   0  0  0  0  0  0  0  0  0  0  0  0
   61.8340   33.2630   49.4190 C   0  0  0  0  0  0  0  0  0  0  0  0
   60.7600   33.0200   50.4750 C   0  0  2  0  0  0  0  0  0  0  0  0
   59.9390   31.7430   50.1580 C   0  0  0  0  0  0  0  0  0  0  0  0
   58.5030   31.9670   50.3790 N   0  0  0  0  0  0  0  0  0  0  0  0
   58.2860   32.6500   51.6570 C   0  0  0  0  0  0  0  0  0  0  0  0
   59.0280   34.0040   51.6780 C   0  0  0  0  0  0  0  0  0  0  0  0
   59.9170   34.1540   50.5840 O   0  0  0  0  0  0  0  0  0  0  0  0
   63.2748   32.9314   51.8083 H   0  0  0  0  0  0  0  0  0  0  0  0
   63.4078   31.3358   50.9940 H   0  0  0  0  0  0  0  0  0  0  0  0
   64.8060   32.4635   50.9940 H   0  0  0  0  0  0  0  0  0  0  0  0
   65.2177   33.0626   48.8351 H   0  0  0  0  0  0  0  0  0  0  0  0
   64.4874   34.0772   46.6815 H   0  0  0  0  0  0  0  0  0  0  0  0
   60.5068   31.5230   47.5468 H   0  0  0  0  0  0  0  0  0  0  0  0
   59.1405   29.9910   46.1334 H   0  0  0  0  0  0  0  0  0  0  0  0
   58.7030   28.7330   45.3200 H   0  0  0  0  0  0  0  0  0  0  0  0
   57.5784   27.2682   47.6468 H   0  0  0  0  0  0  0  0  0  0  0  0
   57.2268   24.8546   48.1622 H   0  0  0  0  0  0  0  0  0  0  0  0
   57.4305   26.3867   43.4083 H   0  0  0  0  0  0  0  0  0  0  0  0
   56.5899   33.3008   45.0060 H   0  0  0  0  0  0  0  0  0  0  0  0
   57.9610   34.8370   46.4104 H   0  0  0  0  0  0  0  0  0  0  0  0
   61.2565   32.8593   51.4433 H   0  0  0  0  0  0  0  0  0  0  0  0
   60.1011   31.4638   49.1065 H   0  0  0  0  0  0  0  0  0  0  0  0
   60.2737   30.9378   50.8286 H   0  0  0  0  0  0  0  0  0  0  0  0
   58.0310   31.0330   50.4250 H   0  0  0  0  0  0  0  0  0  0  0  0
   57.2089   32.8250   51.7959 H   0  0  0  0  0  0  0  0  0  0  0  0
   58.6747   32.0181   52.4692 H   0  0  0  0  0  0  0  0  0  0  0  0
   58.2846   34.8140   51.6419 H   0  0  0  0  0  0  0  0  0  0  0  0
   59.6250   34.0431   52.6010 H   0  0  0  0  0  0  0  0  0  0  0  0
  1  2  1  0
  2  3  2  0
  3  4  1  0
  4  5  2  0
  5  6  1  0
  6  7  1  0
  7  8  1  0
  8  9  2  0
  9 10  1  0
 10 11  2  0
 11 12  1  0
 12 13  1  0
 13 14  2  0
 13 15  1  0
 15 16  1  0
 16 17  2  0
 17 18  1  0
 18 19  2  0
 19 20  1  0
 19 21  1  0
 21 22  1  0
 21 23  2  0
 11 24  1  0
 24 25  2  0
  6 26  2  0
 26 27  1  0
 27 28  1  0
 28 29  1  0
 29 30  1  0
 30 31  1  0
 31 32  1  0
 26  2  1  0
 32 27  1  0
 25  8  1  0
 23 16  1  0
  1 33  1  0
  1 34  1  0
  1 35  1  0
  3 36  1  0
  4 37  1  0
  9 38  1  0
 10 39  1  0
 15 40  1  0
 17 41  1  0
 18 42  1  0
 23 43  1  0
 24 44  1  0
 25 45  1  0
 27 46  1  1
 28 47  1  0
 28 48  1  0
 29 49  1  0
 30 50  1  0
 30 51  1  0
 31 52  1  0
 31 53  1  0
M  CHG  1  12  -1
M  END
>  <UniqueID>  (5) 
5

>  <SMILES>  (5) 
Cc1ccnc(Oc2ccc([N-]C(=O)Nc3ccc(F)c(Cl)c3)cc2)c1[C@@H]1CNCCO1

>  <Energy>  (5) 
86.09654693030865

>  <Genealogy>  (5) 
Cc1ccnc(Oc2ccc([N-]C(=O)Nc3ccc(F)c(Cl)c3)cc2)c1C1CNCCO1 (protonated)
Cc1ccnc(Oc2ccc([N-]C(=O)Nc3ccc(F)c(Cl)c3)cc2)c1[C@@H]1CNCCO1 (chirality)
Cc1ccnc(Oc2ccc([N-]C(=O)Nc3ccc(F)c(Cl)c3)cc2)c1[C@@H]1CNCCO1 (3D coordinates assigned)
Cc1ccnc(Oc2ccc([N-]C(=O)Nc3ccc(F)c(Cl)c3)cc2)c1[C@@H]1CNCCO1 (nonaromatic ring conformer: 86.09654693030865 kcal/mol)

>  <smiles>  (5) 
Cc1ccnc(Oc2ccc(NC(=O)Nc3ccc(F)c(Cl)c3)cc2)c1C1CNCCO1

>  <score_type>  (5) 
oracle

>  <origin>  (5) 
adg

>  <m_score__min__energy>  (5) 
-10.35

>  <m_primary>  (5) 
energy

$$$$
5:0
     RDKit          3D

 39 41  0  0  0  0  0  0  0  0999 V2000
   58.5870   28.2180   48.0100 O   0  0  0  0  0  0  0  0  0  0  0  0
   59.1070   27.5740   47.0600 C   0  0  0  0  0  0  0  0  0  0  0  0
   59.1650   26.0720   47.1520 C   0  0  0  0  0  0  0  0  0  0  0  0
   57.9430   25.4600   46.5160 C   0  0  0  0  0  0  0  0  0  0  0  0
   56.7230   26.1600   46.5280 C   0  0  0  0  0  0  0  0  0  0  0  0
   55.5860   25.6180   45.9220 C   0  0  0  0  0  0  0  0  0  0  0  0
   54.3870   26.3200   45.9480 O   0  0  0  0  0  0  0  0  0  0  0  0
   55.6520   24.3760   45.2860 C   0  0  0  0  0  0  0  0  0  0  0  0
   56.8620   23.6700   45.2520 C   0  0  0  0  0  0  0  0  0  0  0  0
   56.9630   22.4300   44.6140 C   0  0  0  0  0  0  0  0  0  0  0  0
   58.1890   21.7670   44.5980 C   0  0  0  0  0  0  0  0  0  0  0  0
   59.2890   22.3610   45.2220 C   0  0  0  0  0  0  0  0  0  0  0  0
   60.4050   21.7790   45.2170 O   0  0  0  0  0  0  0  0  0  0  0  0
   59.1650   23.5410   45.8220 O   0  0  0  0  0  0  0  0  0  0  0  0
   58.0150   24.2120   45.8650 C   0  0  0  0  0  0  0  0  0  0  0  0
   59.6050   28.3050   45.9310 N   0  0  0  0  0  0  0  0  0  0  0  0
   58.8060   28.9730   44.9050 C   0  0  0  0  0  0  0  0  0  0  0  0
   57.6610   29.7790   45.5290 C   0  0  0  0  0  0  0  0  0  0  0  0
   57.8430   31.2580   45.3050 C   0  0  0  0  0  0  0  0  0  0  0  0
   57.8480   32.1470   46.3930 C   0  0  0  0  0  0  0  0  0  0  0  0
   57.9860   33.5220   46.1800 C   0  0  0  0  0  0  0  0  0  0  0  0
   58.1150   34.0190   44.8790 C   0  0  0  0  0  0  0  0  0  0  0  0
   58.1020   33.1420   43.7920 C   0  0  0  0  0  0  0  0  0  0  0  0
   57.9640   31.7660   44.0000 C   0  0  0  0  0  0  0  0  0  0  0  0
   60.0641   25.7112   46.6311 H   0  0  0  0  0  0  0  0  0  0  0  0
   59.2002   25.7801   48.2120 H   0  0  0  0  0  0  0  0  0  0  0  0
   56.6632   27.1427   47.0186 H   0  0  0  0  0  0  0  0  0  0  0  0
   54.7544   23.9523   44.8120 H   0  0  0  0  0  0  0  0  0  0  0  0
   56.0832   21.9818   44.1292 H   0  0  0  0  0  0  0  0  0  0  0  0
   58.2890   20.7906   44.1014 H   0  0  0  0  0  0  0  0  0  0  0  0
   59.4536   29.6539   44.3332 H   0  0  0  0  0  0  0  0  0  0  0  0
   58.3724   28.2051   44.2474 H   0  0  0  0  0  0  0  0  0  0  0  0
   56.7110   29.4624   45.0737 H   0  0  0  0  0  0  0  0  0  0  0  0
   57.6564   29.5913   46.6129 H   0  0  0  0  0  0  0  0  0  0  0  0
   57.7429   31.7595   47.4171 H   0  0  0  0  0  0  0  0  0  0  0  0
   57.9931   34.2130   47.0358 H   0  0  0  0  0  0  0  0  0  0  0  0
   58.2267   35.1005   44.7119 H   0  0  0  0  0  0  0  0  0  0  0  0
   58.2006   33.5348   42.7693 H   0  0  0  0  0  0  0  0  0  0  0  0
   57.9501   31.0797   43.1405 H   0  0  0  0  0  0  0  0  0  0  0  0
  1  2  2  0
  2  3  1  0
  3  4  1  0
  4  5  2  0
  5  6  1  0
  6  7  1  0
  6  8  2  0
  8  9  1  0
  9 10  1  0
 10 11  2  0
 11 12  1  0
 12 13  2  0
 12 14  1  0
 14 15  1  0
  2 16  1  0
 16 17  1  0
 17 18  1  0
 18 19  1  0
 19 20  2  0
 20 21  1  0
 21 22  2  0
 22 23  1  0
 23 24  2  0
 15  4  1  0
 24 19  1  0
 15  9  2  0
  3 25  1  0
  3 26  1  0
  5 27  1  0
  8 28  1  0
 10 29  1  0
 11 30  1  0
 17 31  1  0
 17 32  1  0
 18 33  1  0
 18 34  1  0
 20 35  1  0
 21 36  1  0
 22 37  1  0
 23 38  1  0
 24 39  1  0
M  CHG  2   7  -1  16  -1
M  END
>  <UniqueID>  (6) 
6

>  <SMILES>  (6) 
O=C(Cc1cc([O-])cc2ccc(=O)oc12)[N-]CCc1ccccc1

>  <Energy>  (6) 
41.31479626901495

>  <Genealogy>  (6) 
O=C(Cc1cc([O-])cc2ccc(=O)oc12)[N-]CCc1ccccc1 (protonated)
O=C(Cc1cc([O-])cc2ccc(=O)oc12)[N-]CCc1ccccc1 (3D coordinates assigned)
O=C(Cc1cc([O-])cc2ccc(=O)oc12)[N-]CCc1ccccc1 (optimized conformer: 41.31479626901495 kcal/mol)

>  <smiles>  (6) 
O=C(Cc1cc(O)cc2ccc(=O)oc12)NCCc1ccccc1

>  <score_type>  (6) 
oracle

>  <origin>  (6) 
adg

>  <m_score__min__energy>  (6) 
-12.16

>  <m_primary>  (6) 
energy

$$$$
6:0
     RDKit          3D

 28 28  0  0  0  0  0  0  0  0999 V2000
   58.6390   34.2210   45.5030 C   0  0  0  0  0  0  0  0  0  0  0  0
   58.7100   33.0970   44.6250 N   0  0  0  0  0  0  0  0  0  0  0  0
   57.5560   32.1400   44.5510 C   0  0  0  0  0  0  0  0  0  0  0  0
   56.6410   32.4050   45.2600 O   0  0  0  0  0  0  0  0  0  0  0  0
   57.9500   31.1680   43.6060 N   0  0  0  0  0  0  0  0  0  0  0  0
   56.5110   30.2680   43.6950 C   0  0  0  0  0  0  0  0  0  0  0  0
   55.6970   30.6280   44.4620 O   0  0  0  0  0  0  0  0  0  0  0  0
   56.5260   29.1360   42.7500 C   0  0  0  0  0  0  0  0  0  0  0  0
   57.7390   28.4220   43.0200 O   0  0  0  0  0  0  0  0  0  0  0  0
   58.0850   28.2450   44.3690 C   0  0  0  0  0  0  0  0  0  0  0  0
   58.8340   29.1180   44.8750 O   0  0  0  0  0  0  0  0  0  0  0  0
   57.5960   27.0960   45.1400 C   0  0  0  0  0  0  0  0  0  0  0  0
   58.3470   25.9670   45.3620 C   0  0  0  0  0  0  0  0  0  0  0  0
   57.8160   24.9290   46.1240 C   0  0  0  0  0  0  0  0  0  0  0  0
   56.5460   25.0930   46.6220 C   0  0  0  0  0  0  0  0  0  0  0  0
   55.9520   24.2220   47.3320 O   0  0  0  0  0  0  0  0  0  0  0  0
   55.8650   26.2220   46.3660 N   0  0  0  0  0  0  0  0  0  0  0  0
   56.3420   27.2240   45.6460 N   0  0  0  0  0  0  0  0  0  0  0  0
   58.6610   33.8732   46.5463 H   0  0  0  0  0  0  0  0  0  0  0  0
   59.4970   34.8844   45.3195 H   0  0  0  0  0  0  0  0  0  0  0  0
   57.7043   34.7712   45.3195 H   0  0  0  0  0  0  0  0  0  0  0  0
   59.5260   32.8640   44.0000 H   0  0  0  0  0  0  0  0  0  0  0  0
   58.1950   30.5650   43.0190 H   0  0  0  0  0  0  0  0  0  0  0  0
   55.6537   28.4866   42.9154 H   0  0  0  0  0  0  0  0  0  0  0  0
   56.4800   29.4782   41.7056 H   0  0  0  0  0  0  0  0  0  0  0  0
   59.3599   25.8835   44.9411 H   0  0  0  0  0  0  0  0  0  0  0  0
   58.3918   24.0124   46.3197 H   0  0  0  0  0  0  0  0  0  0  0  0
   54.9090   26.3440   46.7490 H   0  0  0  0  0  0  0  0  0  0  0  0
  1  2  1  0
  2  3  1  0
  3  4  2  0
  3  5  1  0
  5  6  1  0
  6  7  2  0
  6  8  1  0
  8  9  1  0
  9 10  1  0
 10 11  2  0
 10 12  1  0
 12 13  1  0
 13 14  2  0
 14 15  1  0
 15 16  2  0
 15 17  1  0
 17 18  1  0
 18 12  2  0
  1 19  1  0
  1 20  1  0
  1 21  1  0
  2 22  1  0
  5 23  1  0
  8 24  1  0
  8 25  1  0
 13 26  1  0
 14 27  1  0
 17 28  1  0
M  END
>  <smiles>  (7) 
CNC(=O)NC(=O)COC(=O)c1ccc(=O)[nH]n1

>  <score_type>  (7) 
oracle

>  <origin>  (7) 
adg

>  <m_score__min__energy>  (7) 
-6.0499999999999998

>  <m_primary>  (7) 
energy

$$$$
7:0
     RDKit          3D

 43 46  0  0  0  0  0  0  0  0999 V2000
   59.1044   35.5475   43.9675 H   0  0  0  0  0  0  0  0  0  0  0  0
   58.9400   34.9390   44.8690 C   0  0  0  0  0  0  0  0  0  0  0  0
   57.9130   33.9920   44.8950 C   0  0  0  0  0  0  0  0  0  0  0  0
   57.2631   33.8614   44.0171 H   0  0  0  0  0  0  0  0  0  0  0  0
   57.7110   33.2100   46.0370 C   0  0  0  0  0  0  0  0  0  0  0  0
   56.8919   32.4761   46.0585 H   0  0  0  0  0  0  0  0  0  0  0  0
   58.5450   33.3550   47.1540 C   0  0  0  0  0  0  0  0  0  0  0  0
   58.2850   32.5490   48.3160 N   0  0  0  0  0  0  0  0  0  0  0  0
   58.8780   31.4360   48.6340 C   0  0  0  0  0  0  0  0  0  0  0  0
   58.7580   30.2810   47.9260 N   0  0  0  0  0  0  0  0  0  0  0  0
   59.5140   29.4450   48.6610 C   0  0  0  0  0  0  0  0  0  0  0  0
   59.7520   28.0850   48.4140 C   0  0  0  0  0  0  0  0  0  0  0  0
   59.1960   27.3880   47.2270 C   0  0  0  0  0  0  0  0  0  0  0  0
   59.2690   25.9900   47.1200 C   0  0  0  0  0  0  0  0  0  0  0  0
   59.7397   25.4039   47.9231 H   0  0  0  0  0  0  0  0  0  0  0  0
   58.7480   25.3400   46.0010 C   0  0  0  0  0  0  0  0  0  0  0  0
   58.8146   24.2448   45.9230 H   0  0  0  0  0  0  0  0  0  0  0  0
   58.1420   26.0750   44.9790 C   0  0  0  0  0  0  0  0  0  0  0  0
   57.7381   25.5553   44.0976 H   0  0  0  0  0  0  0  0  0  0  0  0
   58.0450   27.4760   45.0700 C   0  0  0  0  0  0  0  0  0  0  0  0
   57.4300   28.2690   44.0380 N   0  0  0  0  0  0  0  0  0  0  0  0
   57.0000   27.7830   43.2190 H   0  0  0  0  0  0  0  0  0  0  0  0
   57.4390   30.0040   43.9930 S   0  0  0  0  0  0  0  0  0  0  0  0
   58.8480   30.5160   44.0810 O   0  0  0  0  0  0  0  0  0  0  0  0
   56.6640   30.5230   45.1710 O   0  0  0  0  0  0  0  0  0  0  0  0
   56.6550   30.5850   42.5020 C   0  0  0  0  0  0  0  0  0  0  0  0
   55.7965   31.2212   42.7631 H   0  0  0  0  0  0  0  0  0  0  0  0
   57.3770   31.1678   41.9112 H   0  0  0  0  0  0  0  0  0  0  0  0
   56.3075   29.7246   41.9112 H   0  0  0  0  0  0  0  0  0  0  0  0
   58.5780   28.1210   46.1980 C   0  0  0  0  0  0  0  0  0  0  0  0
   58.5111   29.2161   46.2779 H   0  0  0  0  0  0  0  0  0  0  0  0
   60.5500   27.3990   49.3570 C   0  0  0  0  0  0  0  0  0  0  0  0
   60.7631   26.3293   49.2145 H   0  0  0  0  0  0  0  0  0  0  0  0
   61.0750   28.0710   50.4770 C   0  0  0  0  0  0  0  0  0  0  0  0
   61.6983   27.5303   51.2044 H   0  0  0  0  0  0  0  0  0  0  0  0
   60.7990   29.4330   50.6600 C   0  0  0  0  0  0  0  0  0  0  0  0
   61.1973   29.9803   51.5271 H   0  0  0  0  0  0  0  0  0  0  0  0
   60.0270   30.0550   49.7370 N   0  0  0  0  0  0  0  0  0  0  0  0
   59.6380   31.3150   49.7460 N   0  0  0  0  0  0  0  0  0  0  0  0
   59.5580   34.3330   47.1310 C   0  0  0  0  0  0  0  0  0  0  0  0
   60.1943   34.4838   48.0156 H   0  0  0  0  0  0  0  0  0  0  0  0
   59.7580   35.1130   45.9880 C   0  0  0  0  0  0  0  0  0  0  0  0
   60.5607   35.8649   45.9698 H   0  0  0  0  0  0  0  0  0  0  0  0
  1  2  1  0
  2  3  2  0
  3  4  1  0
  3  5  1  0
  5  6  1  0
  5  7  2  0
  7  8  1  0
  8  9  2  0
  9 10  1  0
 10 11  2  0
 11 12  1  0
 12 13  1  0
 13 14  2  0
 14 15  1  0
 14 16  1  0
 16 17  1  0
 16 18  2  0
 18 19  1  0
 18 20  1  0
 20 21  1  0
 21 22  1  0
 21 23  1  0
 23 24  2  0
 23 25  2  0
 23 26  1  0
 26 27  1  0
 26 28  1  0
 26 29  1  0
 20 30  2  0
 30 31  1  0
 12 32  2  0
 32 33  1  0
 32 34  1  0
 34 35  1  0
 34 36  2  0
 36 37  1  0
 36 38  1  0
 38 39  1  0
  7 40  1  0
 40 41  1  0
 40 42  2  0
 42 43  1  0
 42  2  1  0
 39  9  1  0
 38 11  1  0
 30 13  1  0
M  CHG  1  39  -1
M  END
>  <UniqueID>  (8) 
7

>  <SMILES>  (8) 
CS(=O)(=O)Nc1cccc(-c2cccn3[n-]/c(=N/c4ccccc4)nc23)c1

>  <Energy>  (8) 
95.71000270018523

>  <Genealogy>  (8) 
CS(=O)(=O)Nc1cccc(-c2cccn3[n-]c(=Nc4ccccc4)nc23)c1 (protonated)
CS(=O)(=O)Nc1cccc(-c2cccn3[n-]/c(=N/c4ccccc4)nc23)c1 (cis-trans isomerization)
CS(=O)(=O)Nc1cccc(-c2cccn3[n-]/c(=N/c4ccccc4)nc23)c1 (3D coordinates assigned)
CS(=O)(=O)Nc1cccc(-c2cccn3[n-]/c(=N/c4ccccc4)nc23)c1 (optimized conformer: 95.71000270018523 kcal/mol)

>  <smiles>  (8) 
CS(=O)(=O)Nc1cccc(-c2cccn3[nH]c(=Nc4ccccc4)nc23)c1

>  <score_type>  (8) 
oracle

>  <origin>  (8) 
adg

>  <m_score__min__energy>  (8) 
-10.460000000000001

>  <m_primary>  (8) 
energy

$$$$
8:0
     RDKit          3D

 43 45  0  0  0  0  0  0  0  0999 V2000
   66.1630   32.3570   50.5550 C   0  0  0  0  0  0  0  0  0  0  0  0
   65.5750   32.9400   49.3960 O   0  0  0  0  0  0  0  0  0  0  0  0
   64.1980   33.1460   49.2270 C   0  0  0  0  0  0  0  0  0  0  0  0
   63.4620   33.6430   50.3070 C   0  0  0  0  0  0  0  0  0  0  0  0
   62.0880   33.8680   50.1890 C   0  0  0  0  0  0  0  0  0  0  0  0
   61.4260   33.6070   48.9780 C   0  0  0  0  0  0  0  0  0  0  0  0
   59.9680   33.8390   48.8440 C   0  0  0  0  0  0  0  0  0  0  0  0
   59.4850   34.9530   49.1780 O   0  0  0  0  0  0  0  0  0  0  0  0
   59.0870   32.8480   48.2940 N   0  0  0  0  0  0  0  0  0  0  0  0
   58.5130   32.8620   46.9790 C   0  0  0  0  0  0  0  0  0  0  0  0
   58.3190   34.0630   46.2730 C   0  0  0  0  0  0  0  0  0  0  0  0
   57.7920   34.0380   44.9790 C   0  0  0  0  0  0  0  0  0  0  0  0
   57.4600   32.8210   44.3810 C   0  0  0  0  0  0  0  0  0  0  0  0
   57.6440   31.6170   45.0720 C   0  0  0  0  0  0  0  0  0  0  0  0
   57.3170   30.3870   44.4100 N   0  0  0  0  0  0  0  0  0  0  0  0
   56.5810   29.2900   44.9670 C   0  0  0  0  0  0  0  0  0  0  0  0
   55.3300   29.2260   44.8220 O   0  0  0  0  0  0  0  0  0  0  0  0
   57.3080   28.1790   45.6190 C   0  0  0  0  0  0  0  0  0  0  0  0
   58.6850   28.3280   45.8680 C   0  0  0  0  0  0  0  0  0  0  0  0
   59.4270   27.2810   46.4200 C   0  0  0  0  0  0  0  0  0  0  0  0
   58.8050   26.0730   46.7330 C   0  0  0  0  0  0  0  0  0  0  0  0
   57.4360   25.9140   46.5110 C   0  0  0  0  0  0  0  0  0  0  0  0
   56.6740   26.9610   45.9760 C   0  0  0  0  0  0  0  0  0  0  0  0
   55.2980   26.7630   45.8470 O   0  0  0  0  0  0  0  0  0  0  0  0
   58.1990   31.6430   46.3650 C   0  0  0  0  0  0  0  0  0  0  0  0
   62.1600   33.0920   47.8980 C   0  0  0  0  0  0  0  0  0  0  0  0
   63.5350   32.8670   48.0170 C   0  0  0  0  0  0  0  0  0  0  0  0
   65.7151   32.8011   51.4562 H   0  0  0  0  0  0  0  0  0  0  0  0
   65.9816   31.2721   50.5519 H   0  0  0  0  0  0  0  0  0  0  0  0
   67.2464   32.5476   50.5519 H   0  0  0  0  0  0  0  0  0  0  0  0
   63.9696   33.8589   51.2587 H   0  0  0  0  0  0  0  0  0  0  0  0
   61.5212   34.2520   51.0500 H   0  0  0  0  0  0  0  0  0  0  0  0
   58.5825   35.0234   46.7402 H   0  0  0  0  0  0  0  0  0  0  0  0
   57.6385   34.9791   44.4305 H   0  0  0  0  0  0  0  0  0  0  0  0
   57.0510   32.8077   43.3599 H   0  0  0  0  0  0  0  0  0  0  0  0
   59.1822   29.2788   45.6255 H   0  0  0  0  0  0  0  0  0  0  0  0
   60.5032   27.4097   46.6079 H   0  0  0  0  0  0  0  0  0  0  0  0
   59.3933   25.2449   47.1551 H   0  0  0  0  0  0  0  0  0  0  0  0
   56.9511   24.9581   46.7583 H   0  0  0  0  0  0  0  0  0  0  0  0
   54.7580   27.0960   45.0610 H   0  0  0  0  0  0  0  0  0  0  0  0
   58.3876   30.6990   46.8973 H   0  0  0  0  0  0  0  0  0  0  0  0
   61.6496   32.8636   46.9507 H   0  0  0  0  0  0  0  0  0  0  0  0
   64.1010   32.4702   47.1613 H   0  0  0  0  0  0  0  0  0  0  0  0
  1  2  1  0
  2  3  1  0
  3  4  2  0
  4  5  1  0
  5  6  2  0
  6  7  1  0
  7  8  2  0
  7  9  1  0
  9 10  1  0
 10 11  2  0
 11 12  1  0
 12 13  2  0
 13 14  1  0
 14 15  1  0
 15 16  1  0
 16 17  2  0
 16 18  1  0
 18 19  2  0
 19 20  1  0
 20 21  2  0
 21 22  1  0
 22 23  2  0
 23 24  1  0
 14 25  2  0
  6 26  1  0
 26 27  2  0
 27  3  1  0
 25 10  1  0
 23 18  1  0
  1 28  1  0
  1 29  1  0
  1 30  1  0
  4 31  1  0
  5 32  1  0
 11 33  1  0
 12 34  1  0
 13 35  1  0
 19 36  1  0
 20 37  1  0
 21 38  1  0
 22 39  1  0
 24 40  1  0
 25 41  1  0
 26 42  1  0
 27 43  1  0
M  CHG  2   9  -1  15  -1
M  END
>  <UniqueID>  (9) 
8

>  <SMILES>  (9) 
COc1ccc(C(=O)[N-]c2cccc([N-]C(=O)c3ccccc3O)c2)cc1

>  <Energy>  (9) 
61.00618084918435

>  <Genealogy>  (9) 
COc1ccc(C(=O)[N-]c2cccc([N-]C(=O)c3ccccc3O)c2)cc1 (protonated)
COc1ccc(C(=O)[N-]c2cccc([N-]C(=O)c3ccccc3O)c2)cc1 (3D coordinates assigned)
COc1ccc(C(=O)[N-]c2cccc([N-]C(=O)c3ccccc3O)c2)cc1 (optimized conformer: 61.00618084918435 kcal/mol)

>  <smiles>  (9) 
COc1ccc(C(=O)Nc2cccc(NC(=O)c3ccccc3O)c2)cc1

>  <score_type>  (9) 
oracle

>  <origin>  (9) 
adg

>  <m_score__min__energy>  (9) 
-11.73

>  <m_primary>  (9) 
energy

$$$$
9:0
     RDKit          3D

 51 54  0  0  0  0  0  0  0  0999 V2000
   61.5620   28.9580   44.8730 O   0  0  0  0  0  0  0  0  0  0  0  0
   60.5650   29.0040   45.6460 C   0  0  0  0  0  0  0  0  0  0  0  0
   60.4470   30.0720   46.5910 N   0  0  0  0  0  0  0  0  0  0  0  0
   59.1860   30.7150   46.9350 C   0  0  0  0  0  0  0  0  0  0  0  0
   58.6560   31.5000   45.7620 C   0  0  0  0  0  0  0  0  0  0  0  0
   58.4880   30.8670   44.5190 C   0  0  0  0  0  0  0  0  0  0  0  0
   58.0270   31.5860   43.4150 C   0  0  0  0  0  0  0  0  0  0  0  0
   57.7320   32.9440   43.5380 C   0  0  0  0  0  0  0  0  0  0  0  0
   57.8940   33.5880   44.7660 C   0  0  0  0  0  0  0  0  0  0  0  0
   58.3580   32.8770   45.8880 C   0  0  0  0  0  0  0  0  0  0  0  0
   58.5200   33.5140   47.1650 N   0  0  0  0  0  0  0  0  0  0  0  0
   59.8540   34.5100   47.6520 S   0  0  0  0  0  0  0  0  0  0  0  0
   59.9710   35.7140   46.7630 O   0  0  0  0  0  0  0  0  0  0  0  0
   59.6020   34.9890   49.0500 O   0  0  0  0  0  0  0  0  0  0  0  0
   61.3320   33.5520   47.6340 C   0  0  0  0  0  0  0  0  0  0  0  0
   62.3650   33.8760   46.7400 C   0  0  0  0  0  0  0  0  0  0  0  0
   63.5630   33.1530   46.7560 C   0  0  0  0  0  0  0  0  0  0  0  0
   63.7380   32.1070   47.6660 C   0  0  0  0  0  0  0  0  0  0  0  0
   62.7140   31.7830   48.5620 C   0  0  0  0  0  0  0  0  0  0  0  0
   61.5140   32.5000   48.5460 C   0  0  0  0  0  0  0  0  0  0  0  0
   59.5210   27.9580   45.5720 C   0  0  0  0  0  0  0  0  0  0  0  0
   59.2030   27.1860   46.7020 C   0  0  0  0  0  0  0  0  0  0  0  0
   58.2200   26.1970   46.6340 C   0  0  0  0  0  0  0  0  0  0  0  0
   57.5340   25.9600   45.4330 C   0  0  0  0  0  0  0  0  0  0  0  0
   56.4980   24.9040   45.3580 C   0  0  0  0  0  0  0  0  0  0  0  0
   56.8610   23.5980   44.9950 C   0  0  0  0  0  0  0  0  0  0  0  0
   55.8850   22.6030   44.9040 C   0  0  0  0  0  0  0  0  0  0  0  0
   54.5550   22.9170   45.1950 C   0  0  0  0  0  0  0  0  0  0  0  0
   54.2180   24.1800   45.5670 N   0  0  0  0  0  0  0  0  0  0  0  0
   55.1440   25.1740   45.6530 C   0  0  0  0  0  0  0  0  0  0  0  0
   54.7750   26.3280   45.9980 O   0  0  0  0  0  0  0  0  0  0  0  0
   57.8330   26.7420   44.3100 C   0  0  0  0  0  0  0  0  0  0  0  0
   58.8200   27.7270   44.3760 C   0  0  0  0  0  0  0  0  0  0  0  0
   58.4523   29.9454   47.2167 H   0  0  0  0  0  0  0  0  0  0  0  0
   59.3556   31.4033   47.7761 H   0  0  0  0  0  0  0  0  0  0  0  0
   58.7214   29.7971   44.4151 H   0  0  0  0  0  0  0  0  0  0  0  0
   57.8961   31.0811   42.4465 H   0  0  0  0  0  0  0  0  0  0  0  0
   57.3710   33.5085   42.6656 H   0  0  0  0  0  0  0  0  0  0  0  0
   57.6573   34.6584   44.8570 H   0  0  0  0  0  0  0  0  0  0  0  0
   62.2321   34.7010   46.0246 H   0  0  0  0  0  0  0  0  0  0  0  0
   64.3681   33.4084   46.0513 H   0  0  0  0  0  0  0  0  0  0  0  0
   64.6800   31.5391   47.6776 H   0  0  0  0  0  0  0  0  0  0  0  0
   62.8532   30.9621   49.2809 H   0  0  0  0  0  0  0  0  0  0  0  0
   60.7100   32.2393   49.2500 H   0  0  0  0  0  0  0  0  0  0  0  0
   59.7336   27.3625   47.6493 H   0  0  0  0  0  0  0  0  0  0  0  0
   57.9819   25.6002   47.5268 H   0  0  0  0  0  0  0  0  0  0  0  0
   57.9132   23.3581   44.7823 H   0  0  0  0  0  0  0  0  0  0  0  0
   56.1611   21.5808   44.6058 H   0  0  0  0  0  0  0  0  0  0  0  0
   53.7792   22.1405   45.1229 H   0  0  0  0  0  0  0  0  0  0  0  0
   57.2863   26.5788   43.3696 H   0  0  0  0  0  0  0  0  0  0  0  0
   59.0511   28.3277   43.4840 H   0  0  0  0  0  0  0  0  0  0  0  0
  1  2  2  0
  2  3  1  0
  3  4  1  0
  4  5  1  0
  5  6  2  0
  6  7  1  0
  7  8  2  0
  8  9  1  0
  9 10  2  0
 10 11  1  0
 11 12  1  0
 12 13  2  0
 12 14  2  0
 12 15  1  0
 15 16  2  0
 16 17  1  0
 17 18  2  0
 18 19  1  0
 19 20  2  0
  2 21  1  0
 21 22  2  0
 22 23  1  0
 23 24  2  0
 24 25  1  0
 25 26  2  0
 26 27  1  0
 27 28  2  0
 28 29  1  0
 29 30  1  0
 30 31  2  0
 24 32  1  0
 32 33  2  0
 10  5  1  0
 20 15  1  0
 33 21  1  0
 30 25  1  0
  4 34  1  0
  4 35  1  0
  6 36  1  0
  7 37  1  0
  8 38  1  0
  9 39  1  0
 16 40  1  0
 17 41  1  0
 18 42  1  0
 19 43  1  0
 20 44  1  0
 22 45  1  0
 23 46  1  0
 26 47  1  0
 27 48  1  0
 28 49  1  0
 32 50  1  0
 33 51  1  0
M  CHG  3   3  -1  11  -1  29  -1
M  END
>  <UniqueID>  (10) 
9

>  <SMILES>  (10) 
O=C([N-]Cc1ccccc1[N-]S(=O)(=O)c1ccccc1)c1ccc(-c2ccc[n-]c2=O)cc1

>  <Energy>  (10) 
68.11279555091829

>  <Genealogy>  (10) 
O=C([N-]Cc1ccccc1[N-]S(=O)(=O)c1ccccc1)c1ccc(-c2ccc[n-]c2=O)cc1 (protonated)
O=C([N-]Cc1ccccc1[N-]S(=O)(=O)c1ccccc1)c1ccc(-c2ccc[n-]c2=O)cc1 (3D coordinates assigned)
O=C([N-]Cc1ccccc1[N-]S(=O)(=O)c1ccccc1)c1ccc(-c2ccc[n-]c2=O)cc1 (optimized conformer: 68.11279555091829 kcal/mol)

>  <smiles>  (10) 
O=C(NCc1ccccc1NS(=O)(=O)c1ccccc1)c1ccc(-c2ccc[nH]c2=O)cc1

>  <score_type>  (10) 
oracle

>  <origin>  (10) 
adg

>  <m_score__min__energy>  (10) 
-13.93

>  <m_primary>  (10) 
energy

$$$$
10:0
     RDKit          3D

 54 57  0  0  0  0  0  0  0  0999 V2000
   64.2626   34.5875   47.6243 H   0  0  0  0  0  0  0  0  0  0  0  0
   63.4900   33.8450   47.8730 C   0  0  0  0  0  0  0  0  0  0  0  0
   63.4090   32.6530   47.1470 C   0  0  0  0  0  0  0  0  0  0  0  0
   64.1077   32.4647   46.3185 H   0  0  0  0  0  0  0  0  0  0  0  0
   62.4380   31.6990   47.4750 C   0  0  0  0  0  0  0  0  0  0  0  0
   62.3690   30.7661   46.8963 H   0  0  0  0  0  0  0  0  0  0  0  0
   61.5510   31.9290   48.5410 C   0  0  0  0  0  0  0  0  0  0  0  0
   60.5070   30.9080   48.8920 C   0  0  0  0  0  0  0  0  0  0  0  0
   59.8425   31.3117   49.6701 H   0  0  0  0  0  0  0  0  0  0  0  0
   60.9904   29.9952   49.2702 H   0  0  0  0  0  0  0  0  0  0  0  0
   59.7540   30.6070   47.7340 O   0  0  0  0  0  0  0  0  0  0  0  0
   58.5480   31.3480   47.7270 C   0  0  0  0  0  0  0  0  0  0  0  0
   58.3853   31.7831   48.7241 H   0  0  0  0  0  0  0  0  0  0  0  0
   57.7191   30.6736   47.4661 H   0  0  0  0  0  0  0  0  0  0  0  0
   58.6120   32.4600   46.7040 C   0  0  0  0  0  0  0  0  0  0  0  0
   59.0740   33.7280   47.1010 C   0  0  0  0  0  0  0  0  0  0  0  0
   59.3314   33.9087   48.1551 H   0  0  0  0  0  0  0  0  0  0  0  0
   59.2090   34.7600   46.1690 C   0  0  0  0  0  0  0  0  0  0  0  0
   59.5723   35.7470   46.4914 H   0  0  0  0  0  0  0  0  0  0  0  0
   58.8840   34.5410   44.8310 C   0  0  0  0  0  0  0  0  0  0  0  0
   58.9925   35.3549   44.0990 H   0  0  0  0  0  0  0  0  0  0  0  0
   58.4210   33.2900   44.4190 C   0  0  0  0  0  0  0  0  0  0  0  0
   58.1647   33.1236   43.3623 H   0  0  0  0  0  0  0  0  0  0  0  0
   58.2800   32.2420   45.3440 C   0  0  0  0  0  0  0  0  0  0  0  0
   57.7770   30.9370   44.8620 C   0  0  0  0  0  0  0  0  0  0  0  0
   56.4870   30.6950   44.4420 C   0  0  0  0  0  0  0  0  0  0  0  0
   55.6565   31.4159   44.4666 H   0  0  0  0  0  0  0  0  0  0  0  0
   56.4160   29.4310   43.9980 N   0  0  0  0  0  0  0  0  0  0  0  0
   55.5770   28.9580   43.5950 H   0  0  0  0  0  0  0  0  0  0  0  0
   57.6520   28.9180   44.1420 C   0  0  0  0  0  0  0  0  0  0  0  0
   57.9230   27.7040   43.7410 N   0  0  0  0  0  0  0  0  0  0  0  0
   58.1340   26.4680   44.4930 C   0  0  0  0  0  0  0  0  0  0  0  0
   57.1605   25.9856   44.6651 H   0  0  0  0  0  0  0  0  0  0  0  0
   58.7988   25.8192   43.9038 H   0  0  0  0  0  0  0  0  0  0  0  0
   58.7930   26.7270   45.8260 C   0  0  0  0  0  0  0  0  0  0  0  0
   60.1400   26.3760   46.0400 C   0  0  0  0  0  0  0  0  0  0  0  0
   60.6952   25.8338   45.2604 H   0  0  0  0  0  0  0  0  0  0  0  0
   60.7750   26.7140   47.2400 C   0  0  0  0  0  0  0  0  0  0  0  0
   61.8216   26.4205   47.4088 H   0  0  0  0  0  0  0  0  0  0  0  0
   60.0820   27.4240   48.2250 C   0  0  0  0  0  0  0  0  0  0  0  0
   60.7070   27.7720   49.3790 F   0  0  0  0  0  0  0  0  0  0  0  0
   58.7470   27.7850   48.0160 C   0  0  0  0  0  0  0  0  0  0  0  0
   58.1993   28.3362   48.7946 H   0  0  0  0  0  0  0  0  0  0  0  0
   58.1070   27.4470   46.8200 C   0  0  0  0  0  0  0  0  0  0  0  0
   57.0612   27.7459   46.6557 H   0  0  0  0  0  0  0  0  0  0  0  0
   58.5230   29.8170   44.6860 N   0  0  0  0  0  0  0  0  0  0  0  0
   59.9400   29.6740   45.0280 C   0  0  0  0  0  0  0  0  0  0  0  0
   60.0538   29.6625   46.1220 H   0  0  0  0  0  0  0  0  0  0  0  0
   60.3250   28.7324   44.6094 H   0  0  0  0  0  0  0  0  0  0  0  0
   60.5054   30.5197   44.6094 H   0  0  0  0  0  0  0  0  0  0  0  0
   61.6200   33.1440   49.2490 C   0  0  0  0  0  0  0  0  0  0  0  0
   60.9104   33.3452   50.0651 H   0  0  0  0  0  0  0  0  0  0  0  0
   62.5900   34.0960   48.9160 C   0  0  0  0  0  0  0  0  0  0  0  0
   62.6456   35.0423   49.4740 H   0  0  0  0  0  0  0  0  0  0  0  0
  1  2  1  0
  2  3  2  0
  3  4  1  0
  3  5  1  0
  5  6  1  0
  5  7  2  0
  7  8  1  0
  8  9  1  0
  8 10  1  0
  8 11  1  0
 11 12  1  0
 12 13  1  0
 12 14  1  0
 12 15  1  0
 15 16  2  0
 16 17  1  0
 16 18  1  0
 18 19  1  0
 18 20  2  0
 20 21  1  0
 20 22  1  0
 22 23  1  0
 22 24  2  0
 24 25  1  0
 25 26  2  0
 26 27  1  0
 26 28  1  0
 28 29  1  0
 28 30  1  0
 30 31  2  0
 31 32  1  0
 32 33  1  0
 32 34  1  0
 32 35  1  0
 35 36  2  0
 36 37  1  0
 36 38  1  0
 38 39  1  0
 38 40  2  0
 40 41  1  0
 40 42  1  0
 42 43  1  0
 42 44  2  0
 44 45  1  0
 30 46  1  0
 46 47  1  0
 47 48  1  0
 47 49  1  0
 47 50  1  0
  7 51  1  0
 51 52  1  0
 51 53  2  0
 53 54  1  0
 53  2  1  0
 24 15  1  0
 46 25  1  0
 44 35  1  0
M  END
>  <UniqueID>  (11) 
10

>  <SMILES>  (11) 
Cn1c(-c2ccccc2COCc2ccccc2)c[nH]/c1=N/Cc1ccc(F)cc1

>  <Energy>  (11) 
100.82401245001677

>  <Genealogy>  (11) 
Cn1c(-c2ccccc2COCc2ccccc2)c[nH]/c1=N/Cc1ccc(F)cc1 (cis-trans isomerization)
Cn1c(-c2ccccc2COCc2ccccc2)c[nH]/c1=N/Cc1ccc(F)cc1 (3D coordinates assigned)
Cn1c(-c2ccccc2COCc2ccccc2)c[nH]/c1=N/Cc1ccc(F)cc1 (optimized conformer: 100.82401245001677 kcal/mol)

>  <smiles>  (11) 
Cn1c(-c2ccccc2COCc2ccccc2)c[nH]c1=NCc1ccc(F)cc1

>  <score_type>  (11) 
oracle

>  <origin>  (11) 
adg

>  <m_score__min__energy>  (11) 
-8.0700000000000003

>  <m_primary>  (11) 
energy

$$$$
11:0
     RDKit          3D

 31 32  0  0  0  0  0  0  0  0999 V2000
   56.3030   25.1640   46.4440 C   0  0  0  0  0  0  0  0  0  0  0  0
   56.8070   26.5040   46.0110 C   0  0  0  0  0  0  0  0  0  0  0  0
   58.1800   26.7670   45.9820 C   0  0  0  0  0  0  0  0  0  0  0  0
   58.6080   28.0280   45.5650 C   0  0  0  0  0  0  0  0  0  0  0  0
   60.3540   28.4360   45.5430 S   0  0  0  0  0  0  0  0  0  0  0  0
   60.4220   28.9600   47.2920 C   0  0  0  0  0  0  0  0  0  0  0  0
   60.1720   30.4320   47.4160 C   0  0  0  0  0  0  0  0  0  0  0  0
   60.7440   31.0810   48.3320 O   0  0  0  0  0  0  0  0  0  0  0  0
   59.2960   31.0940   46.4890 N   0  0  0  0  0  0  0  0  0  0  0  0
   59.2760   32.5170   46.2840 C   0  0  0  0  0  0  0  0  0  0  0  0
   59.9260   33.3810   47.1850 C   0  0  0  0  0  0  0  0  0  0  0  0
   59.9420   34.7610   46.9610 C   0  0  0  0  0  0  0  0  0  0  0  0
   59.3210   35.2920   45.8290 C   0  0  0  0  0  0  0  0  0  0  0  0
   58.6890   34.4450   44.9170 C   0  0  0  0  0  0  0  0  0  0  0  0
   58.6680   33.0620   45.1330 C   0  0  0  0  0  0  0  0  0  0  0  0
   57.7640   31.9560   43.8550 Br  0  0  0  0  0  0  0  0  0  0  0  0
   57.6950   28.9590   45.1840 N   0  0  0  0  0  0  0  0  0  0  0  0
   56.3650   28.6880   45.2140 C   0  0  0  0  0  0  0  0  0  0  0  0
   55.5370   29.5660   44.8620 O   0  0  0  0  0  0  0  0  0  0  0  0
   55.9290   27.4680   45.6230 N   0  0  0  0  0  0  0  0  0  0  0  0
   56.2851   25.1165   47.5428 H   0  0  0  0  0  0  0  0  0  0  0  0
   55.2859   25.0112   46.0538 H   0  0  0  0  0  0  0  0  0  0  0  0
   56.9672   24.3788   46.0538 H   0  0  0  0  0  0  0  0  0  0  0  0
   58.9065   25.9971   46.2812 H   0  0  0  0  0  0  0  0  0  0  0  0
   59.6554   28.4146   47.8620 H   0  0  0  0  0  0  0  0  0  0  0  0
   61.4238   28.7377   47.6882 H   0  0  0  0  0  0  0  0  0  0  0  0
   58.6530   30.5000   45.9200 H   0  0  0  0  0  0  0  0  0  0  0  0
   60.4258   32.9670   48.0732 H   0  0  0  0  0  0  0  0  0  0  0  0
   60.4440   35.4285   47.6769 H   0  0  0  0  0  0  0  0  0  0  0  0
   59.3297   36.3782   45.6557 H   0  0  0  0  0  0  0  0  0  0  0  0
   58.2048   34.8665   44.0238 H   0  0  0  0  0  0  0  0  0  0  0  0
  1  2  1  0
  2  3  2  0
  3  4  1  0
  4  5  1  0
  5  6  1  0
  6  7  1  0
  7  8  2  0
  7  9  1  0
  9 10  1  0
 10 11  2  0
 11 12  1  0
 12 13  2  0
 13 14  1  0
 14 15  2  0
 15 16  1  0
  4 17  2  0
 17 18  1  0
 18 19  2  0
 18 20  1  0
 20  2  1  0
 15 10  1  0
  1 21  1  0
  1 22  1  0
  1 23  1  0
  3 24  1  0
  6 25  1  0
  6 26  1  0
  9 27  1  0
 11 28  1  0
 12 29  1  0
 13 30  1  0
 14 31  1  0
M  CHG  1  20  -1
M  END
>  <UniqueID>  (12) 
11

>  <SMILES>  (12) 
Cc1cc(SCC(=O)Nc2ccccc2Br)nc(=O)[n-]1

>  <Energy>  (12) 
28.969494429715212

>  <Genealogy>  (12) 
Cc1cc(SCC(=O)Nc2ccccc2Br)nc(=O)[n-]1 (protonated)
Cc1cc(SCC(=O)Nc2ccccc2Br)nc(=O)[n-]1 (3D coordinates assigned)
Cc1cc(SCC(=O)Nc2ccccc2Br)nc(=O)[n-]1 (optimized conformer: 28.969494429715212 kcal/mol)

>  <smiles>  (12) 
Cc1cc(SCC(=O)Nc2ccccc2Br)nc(=O)[nH]1

>  <score_type>  (12) 
oracle

>  <origin>  (12) 
adg

>  <m_score__min__energy>  (12) 
-9.75

>  <m_primary>  (12) 
energy

$$$$
12:0
     RDKit          3D

 59 62  0  0  0  0  0  0  0  0999 V2000
   56.9450   28.6530   42.5070 N   0  0  0  0  0  0  0  0  0  0  0  0
   56.6380   30.0810   42.5180 C   0  0  0  0  0  0  0  0  0  0  0  0
   55.9880   30.4920   43.8430 C   0  0  0  0  0  0  0  0  0  0  0  0
   56.8860   30.2160   45.0170 C   0  0  0  0  0  0  0  0  0  0  0  0
   57.1350   29.0000   45.6380 C   0  0  0  0  0  0  0  0  0  0  0  0
   56.5430   27.7330   45.3340 N   0  0  0  0  0  0  0  0  0  0  0  0
   57.3690   26.5540   45.0810 C   0  0  2  0  0  0  0  0  0  0  0  0
   57.8990   26.6410   43.7850 O   0  0  0  0  0  0  0  0  0  0  0  0
   56.5250   25.3160   45.2110 C   0  0  0  0  0  0  0  0  0  0  0  0
   56.8990   24.0300   44.8800 C   0  0  0  0  0  0  0  0  0  0  0  0
   55.7770   23.2530   45.0980 C   0  0  0  0  0  0  0  0  0  0  0  0
   55.7110   21.8790   44.8950 O   0  0  0  0  0  0  0  0  0  0  0  0
   54.7290   23.9830   45.5300 N   0  0  0  0  0  0  0  0  0  0  0  0
   55.1970   25.2450   45.5870 C   0  0  0  0  0  0  0  0  0  0  0  0
   54.4180   26.3260   45.9790 O   0  0  0  0  0  0  0  0  0  0  0  0
   58.1910   29.1980   46.5030 C   0  0  0  0  0  0  0  0  0  0  0  0
   58.7800   28.2150   47.2900 O   0  0  0  0  0  0  0  0  0  0  0  0
   58.5870   30.4860   46.4760 N   0  0  0  0  0  0  0  0  0  0  0  0
   59.6880   31.0840   47.2300 C   0  0  0  0  0  0  0  0  0  0  0  0
   59.2030   32.2400   48.0740 C   0  0  0  0  0  0  0  0  0  0  0  0
   58.6030   31.9920   49.1100 O   0  0  0  0  0  0  0  0  0  0  0  0
   59.4920   33.6890   47.7300 C   0  0  1  0  0  0  0  0  0  0  0  0
   58.3860   34.2450   46.9460 N   0  0  0  0  0  0  0  0  0  0  0  0
   59.7910   34.5620   48.9690 C   0  0  0  0  0  0  0  0  0  0  0  0
   60.8600   33.9580   49.8350 C   0  0  0  0  0  0  0  0  0  0  0  0
   60.7430   33.6030   51.1750 C   0  0  0  0  0  0  0  0  0  0  0  0
   61.8950   33.0510   51.6180 N   0  0  0  0  0  0  0  0  0  0  0  0
   62.7360   33.0510   50.5710 C   0  0  0  0  0  0  0  0  0  0  0  0
   64.0450   32.5720   50.5350 C   0  0  0  0  0  0  0  0  0  0  0  0
   64.7470   32.6620   49.3200 C   0  0  0  0  0  0  0  0  0  0  0  0
   64.1320   33.2230   48.1790 C   0  0  0  0  0  0  0  0  0  0  0  0
   62.8100   33.6990   48.2430 C   0  0  0  0  0  0  0  0  0  0  0  0
   62.1390   33.5950   49.4620 C   0  0  0  0  0  0  0  0  0  0  0  0
   57.8080   31.0980   45.5580 C   0  0  0  0  0  0  0  0  0  0  0  0
   57.9520   32.4290   45.1870 O   0  0  0  0  0  0  0  0  0  0  0  0
   56.4750   28.2090   43.3290 H   0  0  0  0  0  0  0  0  0  0  0  0
   57.9740   28.5480   42.6670 H   0  0  0  0  0  0  0  0  0  0  0  0
   57.5694   30.6503   42.3822 H   0  0  0  0  0  0  0  0  0  0  0  0
   55.9335   30.2946   41.7006 H   0  0  0  0  0  0  0  0  0  0  0  0
   55.7652   31.5687   43.8110 H   0  0  0  0  0  0  0  0  0  0  0  0
   55.0692   29.9007   43.9700 H   0  0  0  0  0  0  0  0  0  0  0  0
   55.5920   27.7510   44.8990 H   0  0  0  0  0  0  0  0  0  0  0  0
   58.1909   26.5041   45.8104 H   0  0  0  0  0  0  0  0  0  0  0  0
   57.1260   26.7300   43.1680 H   0  0  0  0  0  0  0  0  0  0  0  0
   57.8823   23.6941   44.5189 H   0  0  0  0  0  0  0  0  0  0  0  0
   56.4850   21.2780   45.1470 H   0  0  0  0  0  0  0  0  0  0  0  0
   60.1306   30.3204   47.8865 H   0  0  0  0  0  0  0  0  0  0  0  0
   60.4362   31.4609   46.5172 H   0  0  0  0  0  0  0  0  0  0  0  0
   60.4114   33.7020   47.1262 H   0  0  0  0  0  0  0  0  0  0  0  0
   57.5840   33.5740   46.9840 H   0  0  0  0  0  0  0  0  0  0  0  0
   58.6650   34.3190   45.9410 H   0  0  0  0  0  0  0  0  0  0  0  0
   60.1246   35.5547   48.6325 H   0  0  0  0  0  0  0  0  0  0  0  0
   58.8696   34.6345   49.5654 H   0  0  0  0  0  0  0  0  0  0  0  0
   59.8411   33.7505   51.7873 H   0  0  0  0  0  0  0  0  0  0  0  0
   62.0860   32.6940   52.5800 H   0  0  0  0  0  0  0  0  0  0  0  0
   64.5142   32.1370   51.4298 H   0  0  0  0  0  0  0  0  0  0  0  0
   65.7815   32.2932   49.2578 H   0  0  0  0  0  0  0  0  0  0  0  0
   64.6908   33.2881   47.2337 H   0  0  0  0  0  0  0  0  0  0  0  0
   62.3212   34.1388   47.3611 H   0  0  0  0  0  0  0  0  0  0  0  0
  1  2  1  0
  2  3  1  0
  3  4  1  0
  4  5  1  0
  5  6  1  0
  6  7  1  0
  7  8  1  0
  7  9  1  0
  9 10  1  0
 10 11  2  0
 11 12  1  0
 11 13  1  0
 13 14  1  0
 14 15  1  0
  5 16  2  0
 16 17  1  0
 16 18  1  0
 18 19  1  0
 19 20  1  0
 20 21  2  0
 20 22  1  0
 22 23  1  0
 22 24  1  0
 24 25  1  0
 25 26  2  0
 26 27  1  0
 27 28  1  0
 28 29  2  0
 29 30  1  0
 30 31  2  0
 31 32  1  0
 32 33  2  0
 18 34  1  0
 34 35  1  0
 34  4  2  0
 14  9  2  0
 33 25  1  0
 33 28  1  0
  1 36  1  0
  1 37  1  0
  2 38  1  0
  2 39  1  0
  3 40  1  0
  3 41  1  0
  6 42  1  0
  7 43  1  1
  8 44  1  0
 10 45  1  0
 12 46  1  0
 19 47  1  0
 19 48  1  0
 22 49  1  6
 23 50  1  0
 23 51  1  0
 24 52  1  0
 24 53  1  0
 26 54  1  0
 27 55  1  0
 29 56  1  0
 30 57  1  0
 31 58  1  0
 32 59  1  0
M  CHG  4  13  -1  15  -1  17  -1  35  -1
M  END
>  <UniqueID>  (13) 
12

>  <SMILES>  (13) 
NCCc1c(N[C@H](O)c2cc(O)[n-]c2[O-])c([O-])n(CC(=O)[C@@H](N)Cc2c[nH]c3ccccc23)c1[O-]

>  <Energy>  (13) 
145.80361147411008

>  <Genealogy>  (13) 
NCCc1c(NC(O)c2cc(O)[n-]c2[O-])c([O-])n(CC(=O)C(N)Cc2c[nH]c3ccccc23)c1[O-] (protonated)
NCCc1c(N[C@H](O)c2cc(O)[n-]c2[O-])c([O-])n(CC(=O)[C@@H](N)Cc2c[nH]c3ccccc23)c1[O-] (chirality)
NCCc1c(N[C@H](O)c2cc(O)[n-]c2[O-])c([O-])n(CC(=O)[C@@H](N)Cc2c[nH]c3ccccc23)c1[O-] (3D coordinates assigned)
NCCc1c(N[C@H](O)c2cc(O)[n-]c2[O-])c([O-])n(CC(=O)[C@@H](N)Cc2c[nH]c3ccccc23)c1[O-] (optimized conformer: 145.80361147411008 kcal/mol)

>  <smiles>  (13) 
NCCc1c(NC(O)c2cc(O)[nH]c2O)c(O)n(CC(=O)C(N)Cc2c[nH]c3ccccc23)c1O

>  <score_type>  (13) 
oracle

>  <origin>  (13) 
adg

>  <m_score__min__energy>  (13) 
-16.84

>  <m_primary>  (13) 
energy

$$$$
13:0
     RDKit          3D

 46 48  0  0  0  0  0  0  0  0999 V2000
   63.2550   33.0290   48.0940 C   0  0  0  0  0  0  0  0  0  0  0  0
   62.6600   33.8020   46.9670 C   0  0  0  0  0  0  0  0  0  0  0  0
   63.3910   34.1780   46.0100 O   0  0  0  0  0  0  0  0  0  0  0  0
   61.2780   34.1730   47.0260 N   0  0  0  0  0  0  0  0  0  0  0  0
   60.1790   33.4780   46.4210 C   0  0  0  0  0  0  0  0  0  0  0  0
   60.0560   32.0780   46.4800 C   0  0  0  0  0  0  0  0  0  0  0  0
   58.9450   31.4430   45.9130 C   0  0  0  0  0  0  0  0  0  0  0  0
   57.9310   32.1960   45.3090 C   0  0  0  0  0  0  0  0  0  0  0  0
   56.7890   31.5170   44.7640 N   0  0  0  0  0  0  0  0  0  0  0  0
   56.8260   30.4090   43.8540 C   0  0  0  0  0  0  0  0  0  0  0  0
   56.5400   30.6080   42.6430 O   0  0  0  0  0  0  0  0  0  0  0  0
   57.2260   29.0520   44.2930 C   0  0  0  0  0  0  0  0  0  0  0  0
   57.7630   28.1390   43.3710 C   0  0  0  0  0  0  0  0  0  0  0  0
   58.0490   26.8290   43.7630 C   0  0  0  0  0  0  0  0  0  0  0  0
   57.8070   26.4120   45.0780 C   0  0  0  0  0  0  0  0  0  0  0  0
   58.0150   25.0340   45.4150 N   0  0  0  0  0  0  0  0  0  0  0  0
   57.0950   24.1650   46.6020 S   0  0  0  0  0  0  0  0  0  0  0  0
   57.0630   24.9790   47.8650 O   0  0  0  0  0  0  0  0  0  0  0  0
   57.7740   22.8560   46.8910 O   0  0  0  0  0  0  0  0  0  0  0  0
   55.4530   23.8370   45.9910 C   0  0  0  0  0  0  0  0  0  0  0  0
   55.0000   22.5170   45.7570 C   0  0  0  0  0  0  0  0  0  0  0  0
   55.8610   21.3120   46.0030 C   0  0  0  0  0  0  0  0  0  0  0  0
   53.7560   22.3170   45.2470 N   0  0  0  0  0  0  0  0  0  0  0  0
   52.9230   23.3520   44.9790 C   0  0  0  0  0  0  0  0  0  0  0  0
   51.7760   23.1310   44.5130 O   0  0  0  0  0  0  0  0  0  0  0  0
   53.3250   24.6230   45.2150 N   0  0  0  0  0  0  0  0  0  0  0  0
   54.5590   24.8910   45.7130 C   0  0  0  0  0  0  0  0  0  0  0  0
   54.8850   26.0890   45.9170 O   0  0  0  0  0  0  0  0  0  0  0  0
   57.3330   27.3440   46.0160 C   0  0  0  0  0  0  0  0  0  0  0  0
   57.0470   28.6530   45.6260 C   0  0  0  0  0  0  0  0  0  0  0  0
   58.0620   33.5940   45.2360 C   0  0  0  0  0  0  0  0  0  0  0  0
   59.1700   34.2280   45.8060 C   0  0  0  0  0  0  0  0  0  0  0  0
   62.9231   33.4602   49.0500 H   0  0  0  0  0  0  0  0  0  0  0  0
   62.9288   31.9803   48.0319 H   0  0  0  0  0  0  0  0  0  0  0  0
   64.3522   33.0760   48.0319 H   0  0  0  0  0  0  0  0  0  0  0  0
   60.8361   31.4799   46.9737 H   0  0  0  0  0  0  0  0  0  0  0  0
   58.8681   30.3461   45.9421 H   0  0  0  0  0  0  0  0  0  0  0  0
   57.9592   28.4565   42.3363 H   0  0  0  0  0  0  0  0  0  0  0  0
   58.4673   26.1198   43.0336 H   0  0  0  0  0  0  0  0  0  0  0  0
   55.9725   21.1560   47.0862 H   0  0  0  0  0  0  0  0  0  0  0  0
   55.3899   20.4264   45.5515 H   0  0  0  0  0  0  0  0  0  0  0  0
   56.8515   21.4707   45.5515 H   0  0  0  0  0  0  0  0  0  0  0  0
   57.1865   27.0405   47.0631 H   0  0  0  0  0  0  0  0  0  0  0  0
   56.6789   29.3765   46.3684 H   0  0  0  0  0  0  0  0  0  0  0  0
   57.2899   34.1910   44.7286 H   0  0  0  0  0  0  0  0  0  0  0  0
   59.2494   35.3246   45.7709 H   0  0  0  0  0  0  0  0  0  0  0  0
  1  2  1  0
  2  3  2  0
  2  4  1  0
  4  5  1  0
  5  6  2  0
  6  7  1  0
  7  8  2  0
  8  9  1  0
  9 10  1  0
 10 11  2  0
 10 12  1  0
 12 13  2  0
 13 14  1  0
 14 15  2  0
 15 16  1  0
 16 17  1  0
 17 18  2  0
 17 19  2  0
 17 20  1  0
 20 21  2  0
 21 22  1  0
 21 23  1  0
 23 24  1  0
 24 25  2  0
 24 26  1  0
 26 27  1  0
 27 28  2  0
 15 29  1  0
 29 30  2  0
  8 31  1  0
 31 32  2  0
 32  5  1  0
 30 12  1  0
 27 20  1  0
  1 33  1  0
  1 34  1  0
  1 35  1  0
  6 36  1  0
  7 37  1  0
 13 38  1  0
 14 39  1  0
 22 40  1  0
 22 41  1  0
 22 42  1  0
 29 43  1  0
 30 44  1  0
 31 45  1  0
 32 46  1  0
M  CHG  5   4  -1   9  -1  16  -1  23  -1  26  -1
M  END
>  <UniqueID>  (14) 
13

>  <SMILES>  (14) 
CC(=O)[N-]c1ccc([N-]C(=O)c2ccc([N-]S(=O)(=O)c3c(C)[n-]c(=O)[n-]c3=O)cc2)cc1

>  <Energy>  (14) 
62.031317958334725

>  <Genealogy>  (14) 
CC(=O)[N-]c1ccc([N-]C(=O)c2ccc([N-]S(=O)(=O)c3c(C)[n-]c(=O)[n-]c3=O)cc2)cc1 (protonated)
CC(=O)[N-]c1ccc([N-]C(=O)c2ccc([N-]S(=O)(=O)c3c(C)[n-]c(=O)[n-]c3=O)cc2)cc1 (3D coordinates assigned)
CC(=O)[N-]c1ccc([N-]C(=O)c2ccc([N-]S(=O)(=O)c3c(C)[n-]c(=O)[n-]c3=O)cc2)cc1 (optimized conformer: 62.031317958334725 kcal/mol)

>  <smiles>  (14) 
CC(=O)Nc1ccc(NC(=O)c2ccc(NS(=O)(=O)c3c(C)[nH]c(=O)[nH]c3=O)cc2)cc1

>  <score_type>  (14) 
oracle

>  <origin>  (14) 
adg

>  <m_score__min__energy>  (14) 
-16.02

>  <m_primary>  (14) 
energy

$$$$
14:0
     RDKit          3D

 38 40  0  0  0  0  0  0  0  0999 V2000
   60.6468   33.7226   49.2270 H   0  0  0  0  0  0  0  0  0  0  0  0
   60.0070   33.7800   48.3340 C   0  0  0  0  0  0  0  0  0  0  0  0
   58.8220   33.0410   48.2750 C   0  0  0  0  0  0  0  0  0  0  0  0
   58.5287   32.4054   49.1235 H   0  0  0  0  0  0  0  0  0  0  0  0
   58.0090   33.1080   47.1400 C   0  0  0  0  0  0  0  0  0  0  0  0
   57.0758   32.5272   47.0986 H   0  0  0  0  0  0  0  0  0  0  0  0
   58.3810   33.9160   46.0510 C   0  0  0  0  0  0  0  0  0  0  0  0
   57.4840   34.0280   44.8430 C   0  0  0  0  0  0  0  0  0  0  0  0
   57.6779   34.9884   44.3431 H   0  0  0  0  0  0  0  0  0  0  0  0
   56.4403   33.9643   45.1844 H   0  0  0  0  0  0  0  0  0  0  0  0
   57.7300   32.8900   43.8450 C   0  0  0  0  0  0  0  0  0  0  0  0
   58.8056   32.8383   43.6207 H   0  0  0  0  0  0  0  0  0  0  0  0
   57.1484   33.0988   42.9350 H   0  0  0  0  0  0  0  0  0  0  0  0
   57.2840   31.5700   44.3930 C   0  0  0  0  0  0  0  0  0  0  0  0
   55.9930   31.1680   44.4180 N   0  0  0  0  0  0  0  0  0  0  0  0
   55.8360   29.9320   44.8870 N   0  0  0  0  0  0  0  0  0  0  0  0
   57.0070   29.3420   45.2210 C   0  0  0  0  0  0  0  0  0  0  0  0
   57.1130   28.1520   45.7310 N   0  0  0  0  0  0  0  0  0  0  0  0
   58.2930   27.5750   46.3200 C   0  0  0  0  0  0  0  0  0  0  0  0
   58.8260   28.0620   47.5300 C   0  0  0  0  0  0  0  0  0  0  0  0
   58.3514   28.9180   48.0320 H   0  0  0  0  0  0  0  0  0  0  0  0
   59.9540   27.4630   48.0950 C   0  0  0  0  0  0  0  0  0  0  0  0
   60.6140   28.0790   49.5990 Cl  0  0  0  0  0  0  0  0  0  0  0  0
   60.5480   26.3640   47.4720 C   0  0  0  0  0  0  0  0  0  0  0  0
   61.4421   25.8996   47.9135 H   0  0  0  0  0  0  0  0  0  0  0  0
   60.0090   25.8530   46.2890 C   0  0  0  0  0  0  0  0  0  0  0  0
   60.4741   24.9797   45.8085 H   0  0  0  0  0  0  0  0  0  0  0  0
   58.8730   26.4500   45.7080 C   0  0  0  0  0  0  0  0  0  0  0  0
   58.2970   25.9600   44.5250 O   0  0  0  0  0  0  0  0  0  0  0  0
   58.1390   26.7200   43.3300 C   0  0  0  0  0  0  0  0  0  0  0  0
   57.9213   27.7671   43.5875 H   0  0  0  0  0  0  0  0  0  0  0  0
   59.0662   26.6726   42.7400 H   0  0  0  0  0  0  0  0  0  0  0  0
   57.3075   26.3070   42.7400 H   0  0  0  0  0  0  0  0  0  0  0  0
   58.3180   30.3610   44.9580 S   0  0  0  0  0  0  0  0  0  0  0  0
   59.5680   34.6630   46.1220 C   0  0  0  0  0  0  0  0  0  0  0  0
   59.8613   35.3071   45.2799 H   0  0  0  0  0  0  0  0  0  0  0  0
   60.3790   34.5910   47.2600 C   0  0  0  0  0  0  0  0  0  0  0  0
   61.3106   35.1739   47.3085 H   0  0  0  0  0  0  0  0  0  0  0  0
  1  2  1  0
  2  3  2  0
  3  4  1  0
  3  5  1  0
  5  6  1  0
  5  7  2  0
  7  8  1  0
  8  9  1  0
  8 10  1  0
  8 11  1  0
 11 12  1  0
 11 13  1  0
 11 14  1  0
 14 15  2  0
 15 16  1  0
 16 17  1  0
 17 18  2  0
 18 19  1  0
 19 20  2  0
 20 21  1  0
 20 22  1  0
 22 23  1  0
 22 24  2  0
 24 25  1  0
 24 26  1  0
 26 27  1  0
 26 28  2  0
 28 29  1  0
 29 30  1  0
 30 31  1  0
 30 32  1  0
 30 33  1  0
 17 34  1  0
  7 35  1  0
 35 36  1  0
 35 37  2  0
 37 38  1  0
 37  2  1  0
 34 14  1  0
 28 19  1  0
M  CHG  1  16  -1
M  END
>  <UniqueID>  (15) 
14

>  <SMILES>  (15) 
COc1ccc(Cl)cc1/N=c1\[n-]nc(CCc2ccccc2)s1

>  <Energy>  (15) 
75.51710237957266

>  <Genealogy>  (15) 
COc1ccc(Cl)cc1N=c1[n-]nc(CCc2ccccc2)s1 (protonated)
COc1ccc(Cl)cc1/N=c1\[n-]nc(CCc2ccccc2)s1 (cis-trans isomerization)
COc1ccc(Cl)cc1/N=c1\[n-]nc(CCc2ccccc2)s1 (3D coordinates assigned)
COc1ccc(Cl)cc1/N=c1\[n-]nc(CCc2ccccc2)s1 (optimized conformer: 75.51710237957266 kcal/mol)

>  <smiles>  (15) 
COc1ccc(Cl)cc1N=c1[nH]nc(CCc2ccccc2)s1

>  <score_type>  (15) 
oracle

>  <origin>  (15) 
adg

>  <m_score__min__energy>  (15) 
-10.92

>  <m_primary>  (15) 
energy

$$$$
15:0
     RDKit          3D

 42 44  0  0  0  0  0  0  0  0999 V2000
   59.5500   30.5050   49.3760 O   0  0  0  0  0  0  0  0  0  0  0  0
   59.9190   31.5390   48.7590 C   0  0  0  0  0  0  0  0  0  0  0  0
   59.8530   32.8420   49.4460 C   0  0  0  0  0  0  0  0  0  0  0  0
   59.5790   34.0130   48.8470 C   0  0  0  0  0  0  0  0  0  0  0  0
   59.0640   34.1620   47.4680 C   0  0  0  0  0  0  0  0  0  0  0  0
   59.7810   34.8780   46.4930 C   0  0  0  0  0  0  0  0  0  0  0  0
   59.2830   34.9940   45.1920 C   0  0  0  0  0  0  0  0  0  0  0  0
   58.0790   34.3740   44.8480 C   0  0  0  0  0  0  0  0  0  0  0  0
   57.3780   33.6310   45.8010 C   0  0  0  0  0  0  0  0  0  0  0  0
   57.8720   33.5170   47.1040 C   0  0  0  0  0  0  0  0  0  0  0  0
   60.4900   31.4280   47.4460 N   0  0  0  0  0  0  0  0  0  0  0  0
   60.1140   30.4250   46.4860 C   0  0  0  0  0  0  0  0  0  0  0  0
   61.0970   29.5680   45.9670 C   0  0  0  0  0  0  0  0  0  0  0  0
   60.7700   28.6280   44.9890 C   0  0  0  0  0  0  0  0  0  0  0  0
   59.4630   28.5440   44.5050 C   0  0  0  0  0  0  0  0  0  0  0  0
   58.4720   29.3990   45.0040 C   0  0  0  0  0  0  0  0  0  0  0  0
   56.8390   29.3370   44.3460 S   0  0  0  0  0  0  0  0  0  0  0  0
   56.2040   30.6960   44.4470 O   0  0  0  0  0  0  0  0  0  0  0  0
   56.8740   28.9410   42.8960 O   0  0  0  0  0  0  0  0  0  0  0  0
   55.8920   28.2030   45.2560 N   0  0  0  0  0  0  0  0  0  0  0  0
   56.3430   27.0750   45.7160 C   0  0  0  0  0  0  0  0  0  0  0  0
   57.6720   26.8950   45.9540 N   0  0  0  0  0  0  0  0  0  0  0  0
   58.1450   25.7150   46.4320 C   0  0  0  0  0  0  0  0  0  0  0  0
   57.2630   24.6680   46.6940 C   0  0  0  0  0  0  0  0  0  0  0  0
   55.9060   24.8670   46.4450 C   0  0  0  0  0  0  0  0  0  0  0  0
   55.4730   26.0600   45.9610 N   0  0  0  0  0  0  0  0  0  0  0  0
   58.8000   30.3400   45.9900 C   0  0  0  0  0  0  0  0  0  0  0  0
   60.0422   32.8564   50.5295 H   0  0  0  0  0  0  0  0  0  0  0  0
   59.7508   34.9320   49.4266 H   0  0  0  0  0  0  0  0  0  0  0  0
   60.7394   35.3496   46.7556 H   0  0  0  0  0  0  0  0  0  0  0  0
   59.8386   35.5730   44.4396 H   0  0  0  0  0  0  0  0  0  0  0  0
   57.6829   34.4710   43.8264 H   0  0  0  0  0  0  0  0  0  0  0  0
   56.4357   33.1348   45.5257 H   0  0  0  0  0  0  0  0  0  0  0  0
   57.3239   32.9191   47.8471 H   0  0  0  0  0  0  0  0  0  0  0  0
   61.2270   32.1190   47.1760 H   0  0  0  0  0  0  0  0  0  0  0  0
   62.1318   29.6378   46.3336 H   0  0  0  0  0  0  0  0  0  0  0  0
   61.5441   27.9512   44.5982 H   0  0  0  0  0  0  0  0  0  0  0  0
   59.2110   27.8049   43.7303 H   0  0  0  0  0  0  0  0  0  0  0  0
   59.2224   25.5858   46.6121 H   0  0  0  0  0  0  0  0  0  0  0  0
   57.6288   23.7082   47.0876 H   0  0  0  0  0  0  0  0  0  0  0  0
   55.1863   24.0584   46.6403 H   0  0  0  0  0  0  0  0  0  0  0  0
   58.0247   31.0167   46.3786 H   0  0  0  0  0  0  0  0  0  0  0  0
  1  2  2  0
  2  3  1  0
  3  4  2  3
  4  5  1  0
  5  6  2  0
  6  7  1  0
  7  8  2  0
  8  9  1  0
  9 10  2  0
  2 11  1  0
 11 12  1  0
 12 13  2  0
 13 14  1  0
 14 15  2  0
 15 16  1  0
 16 17  1  0
 17 18  2  0
 17 19  2  0
 17 20  1  0
 20 21  2  3
 21 22  1  0
 22 23  2  0
 23 24  1  0
 24 25  2  0
 25 26  1  0
 16 27  2  0
 10  5  1  0
 27 12  1  0
 26 21  1  0
  3 28  1  0
  4 29  1  0
  6 30  1  0
  7 31  1  0
  8 32  1  0
  9 33  1  0
 10 34  1  0
 11 35  1  0
 13 36  1  0
 14 37  1  0
 15 38  1  0
 23 39  1  0
 24 40  1  0
 25 41  1  0
 27 42  1  0
M  CHG  1  26  -1
M  END
>  <UniqueID>  (16) 
15

>  <SMILES>  (16) 
O=C(C=Cc1ccccc1)Nc1cccc(S(=O)(=O)N=c2nccc[n-]2)c1

>  <Energy>  (16) 
56.73942781337046

>  <Genealogy>  (16) 
O=C(C=Cc1ccccc1)Nc1cccc(S(=O)(=O)N=c2nccc[n-]2)c1 (protonated)
O=C(C=Cc1ccccc1)Nc1cccc(S(=O)(=O)N=c2nccc[n-]2)c1 (3D coordinates assigned)
O=C(C=Cc1ccccc1)Nc1cccc(S(=O)(=O)N=c2nccc[n-]2)c1 (optimized conformer: 56.73942781337046 kcal/mol)

>  <smiles>  (16) 
O=C(C=Cc1ccccc1)Nc1cccc(S(=O)(=O)N=c2nccc[nH]2)c1

>  <score_type>  (16) 
oracle

>  <origin>  (16) 
adg

>  <m_score__min__energy>  (16) 
-11.619999999999999

>  <m_primary>  (16) 
energy

$$$$
16:0
     RDKit          3D

 33 34  0  0  0  0  0  0  0  0999 V2000
   55.1390   27.8660   45.1290 H   0  0  0  0  0  0  0  0  0  0  0  0
   55.6630   27.1520   45.6220 O   0  0  0  0  0  0  0  0  0  0  0  0
   57.0190   27.3030   45.9060 C   0  0  0  0  0  0  0  0  0  0  0  0
   57.7690   26.1800   46.2820 C   0  0  0  0  0  0  0  0  0  0  0  0
   57.3016   25.1842   46.2826 H   0  0  0  0  0  0  0  0  0  0  0  0
   59.1040   26.3200   46.6550 C   0  0  0  0  0  0  0  0  0  0  0  0
   59.6955   25.4394   46.9462 H   0  0  0  0  0  0  0  0  0  0  0  0
   59.6810   27.5870   46.6550 C   0  0  0  0  0  0  0  0  0  0  0  0
   60.7281   27.7141   46.9671 H   0  0  0  0  0  0  0  0  0  0  0  0
   58.9520   28.6660   46.2700 N   0  0  0  0  0  0  0  0  0  0  0  0
   57.6540   28.5710   45.8710 C   0  0  0  0  0  0  0  0  0  0  0  0
   57.0550   29.6670   45.4920 N   0  0  0  0  0  0  0  0  0  0  0  0
   57.2430   30.4110   44.2790 C   0  0  0  0  0  0  0  0  0  0  0  0
   56.3120   30.0470   42.9860 S   0  0  0  0  0  0  0  0  0  0  0  0
   58.0720   31.5870   44.2390 N   0  0  0  0  0  0  0  0  0  0  0  0
   58.3430   31.9530   43.2990 H   0  0  0  0  0  0  0  0  0  0  0  0
   58.5460   32.2820   45.4080 C   0  0  0  0  0  0  0  0  0  0  0  0
   59.4610   31.6620   46.2780 C   0  0  0  0  0  0  0  0  0  0  0  0
   59.8171   30.6449   46.0575 H   0  0  0  0  0  0  0  0  0  0  0  0
   59.9220   32.3220   47.4170 C   0  0  0  0  0  0  0  0  0  0  0  0
   60.6431   31.8259   48.0832 H   0  0  0  0  0  0  0  0  0  0  0  0
   59.4710   33.6130   47.7160 C   0  0  0  0  0  0  0  0  0  0  0  0
   59.9340   34.3030   48.9650 C   0  0  0  0  0  0  0  0  0  0  0  0
   59.5660   33.7546   49.8447 H   0  0  0  0  0  0  0  0  0  0  0  0
   61.0335   34.3297   48.9831 H   0  0  0  0  0  0  0  0  0  0  0  0
   59.5419   35.3306   48.9831 H   0  0  0  0  0  0  0  0  0  0  0  0
   58.5190   34.2200   46.8860 C   0  0  0  0  0  0  0  0  0  0  0  0
   58.1292   35.2160   47.1429 H   0  0  0  0  0  0  0  0  0  0  0  0
   58.0570   33.5700   45.7290 C   0  0  0  0  0  0  0  0  0  0  0  0
   57.0180   34.2460   44.8730 C   0  0  0  0  0  0  0  0  0  0  0  0
   56.2711   34.7319   45.5180 H   0  0  0  0  0  0  0  0  0  0  0  0
   57.5019   35.0027   44.2380 H   0  0  0  0  0  0  0  0  0  0  0  0
   56.5223   33.4970   44.2380 H   0  0  0  0  0  0  0  0  0  0  0  0
  1  2  1  0
  2  3  1  0
  3  4  2  0
  4  5  1  0
  4  6  1  0
  6  7  1  0
  6  8  2  0
  8  9  1  0
  8 10  1  0
 10 11  1  0
 11 12  2  0
 12 13  1  0
 13 14  2  0
 13 15  1  0
 15 16  1  0
 15 17  1  0
 17 18  2  0
 18 19  1  0
 18 20  1  0
 20 21  1  0
 20 22  2  0
 22 23  1  0
 23 24  1  0
 23 25  1  0
 23 26  1  0
 22 27  1  0
 27 28  1  0
 27 29  2  0
 29 30  1  0
 30 31  1  0
 30 32  1  0
 30 33  1  0
 11  3  1  0
 29 17  1  0
M  CHG  1  10  -1
M  END
>  <UniqueID>  (17) 
16

>  <SMILES>  (17) 
Cc1ccc(NC(=S)/N=c2/[n-]cccc2O)c(C)c1

>  <Energy>  (17) 
47.192144969219335

>  <Genealogy>  (17) 
Cc1ccc(NC(=S)N=c2[n-]cccc2O)c(C)c1 (protonated)
Cc1ccc(NC(=S)/N=c2/[n-]cccc2O)c(C)c1 (cis-trans isomerization)
Cc1ccc(NC(=S)/N=c2/[n-]cccc2O)c(C)c1 (3D coordinates assigned)
Cc1ccc(NC(=S)/N=c2/[n-]cccc2O)c(C)c1 (optimized conformer: 47.192144969219335 kcal/mol)

>  <smiles>  (17) 
Cc1ccc(NC(=S)N=c2[nH]cccc2O)c(C)c1

>  <score_type>  (17) 
oracle

>  <origin>  (17) 
adg

>  <m_score__min__energy>  (17) 
-9.5999999999999996

>  <m_primary>  (17) 
energy

$$$$
17:0
     RDKit          3D

 50 53  0  0  0  0  0  0  0  0999 V2000
   58.5080   31.5230   49.7360 C   0  0  0  0  0  0  0  0  0  0  0  0
   59.6960   32.4430   49.6780 C   0  0  0  0  0  0  0  0  0  0  0  0
   60.2520   32.9150   50.8780 C   0  0  0  0  0  0  0  0  0  0  0  0
   61.3440   33.7850   50.8610 C   0  0  0  0  0  0  0  0  0  0  0  0
   61.8840   34.2070   49.6450 C   0  0  0  0  0  0  0  0  0  0  0  0
   62.9430   35.0540   49.6310 F   0  0  0  0  0  0  0  0  0  0  0  0
   61.3330   33.7600   48.4430 C   0  0  0  0  0  0  0  0  0  0  0  0
   60.2360   32.8850   48.4470 C   0  0  0  0  0  0  0  0  0  0  0  0
   59.6920   32.4400   47.1960 N   0  0  0  0  0  0  0  0  0  0  0  0
   60.3880   31.4130   46.4170 C   0  0  0  0  0  0  0  0  0  0  0  0
   59.9370   30.0460   46.8510 C   0  0  0  0  0  0  0  0  0  0  0  0
   60.7440   29.2730   47.7000 C   0  0  0  0  0  0  0  0  0  0  0  0
   60.3670   27.9740   48.0430 C   0  0  0  0  0  0  0  0  0  0  0  0
   59.1870   27.4250   47.5300 C   0  0  0  0  0  0  0  0  0  0  0  0
   58.8350   26.1570   47.8600 N   0  0  0  0  0  0  0  0  0  0  0  0
   57.7050   25.5750   47.3810 C   0  0  0  0  0  0  0  0  0  0  0  0
   56.8490   26.2760   46.5140 C   0  0  0  0  0  0  0  0  0  0  0  0
   55.6230   25.6060   46.0040 C   0  0  0  0  0  0  0  0  0  0  0  0
   55.6510   24.4100   45.6120 O   0  0  0  0  0  0  0  0  0  0  0  0
   54.4180   26.2970   45.9530 O   0  0  0  0  0  0  0  0  0  0  0  0
   57.1920   27.6010   46.1540 C   0  0  0  0  0  0  0  0  0  0  0  0
   56.4500   28.2620   45.3770 O   0  0  0  0  0  0  0  0  0  0  0  0
   58.3680   28.1840   46.6660 C   0  0  0  0  0  0  0  0  0  0  0  0
   58.7530   29.4970   46.3340 C   0  0  0  0  0  0  0  0  0  0  0  0
   58.3540   33.2950   46.4980 S   0  0  0  0  0  0  0  0  0  0  0  0
   58.7140   34.7420   46.3000 O   0  0  0  0  0  0  0  0  0  0  0  0
   57.1750   33.2290   47.4280 O   0  0  0  0  0  0  0  0  0  0  0  0
   57.9670   32.5800   44.9340 C   0  0  0  0  0  0  0  0  0  0  0  0
   57.0790   31.4940   44.8780 C   0  0  0  0  0  0  0  0  0  0  0  0
   56.7390   30.9240   43.6480 C   0  0  0  0  0  0  0  0  0  0  0  0
   57.2770   31.4380   42.4650 C   0  0  0  0  0  0  0  0  0  0  0  0
   58.1530   32.5270   42.5110 C   0  0  0  0  0  0  0  0  0  0  0  0
   58.4970   33.1030   43.7400 C   0  0  0  0  0  0  0  0  0  0  0  0
   59.3360   34.1680   43.7560 F   0  0  0  0  0  0  0  0  0  0  0  0
   58.2499   31.3232   50.7865 H   0  0  0  0  0  0  0  0  0  0  0  0
   57.6526   31.9965   49.2320 H   0  0  0  0  0  0  0  0  0  0  0  0
   58.7524   30.5763   49.2320 H   0  0  0  0  0  0  0  0  0  0  0  0
   59.8235   32.5966   51.8398 H   0  0  0  0  0  0  0  0  0  0  0  0
   61.7794   34.1384   51.8073 H   0  0  0  0  0  0  0  0  0  0  0  0
   61.7612   34.0956   47.4870 H   0  0  0  0  0  0  0  0  0  0  0  0
   60.1615   31.5496   45.3493 H   0  0  0  0  0  0  0  0  0  0  0  0
   61.4714   31.5058   46.5829 H   0  0  0  0  0  0  0  0  0  0  0  0
   61.6794   29.6937   48.0975 H   0  0  0  0  0  0  0  0  0  0  0  0
   60.9996   27.3799   48.7189 H   0  0  0  0  0  0  0  0  0  0  0  0
   57.4572   24.5443   47.6747 H   0  0  0  0  0  0  0  0  0  0  0  0
   58.1206   30.0977   45.6638 H   0  0  0  0  0  0  0  0  0  0  0  0
   56.6489   31.0899   45.8063 H   0  0  0  0  0  0  0  0  0  0  0  0
   56.0470   30.0697   43.6110 H   0  0  0  0  0  0  0  0  0  0  0  0
   57.0114   30.9860   41.4979 H   0  0  0  0  0  0  0  0  0  0  0  0
   58.5732   32.9324   41.5787 H   0  0  0  0  0  0  0  0  0  0  0  0
  1  2  1  0
  2  3  2  0
  3  4  1  0
  4  5  2  0
  5  6  1  0
  5  7  1  0
  7  8  2  0
  8  9  1  0
  9 10  1  0
 10 11  1  0
 11 12  2  0
 12 13  1  0
 13 14  2  0
 14 15  1  0
 15 16  1  0
 16 17  2  0
 17 18  1  0
 18 19  2  0
 18 20  1  0
 17 21  1  0
 21 22  2  0
 21 23  1  0
 23 24  2  0
  9 25  1  0
 25 26  2  0
 25 27  2  0
 25 28  1  0
 28 29  2  0
 29 30  1  0
 30 31  2  0
 31 32  1  0
 32 33  2  0
 33 34  1  0
  8  2  1  0
 24 11  1  0
 33 28  1  0
 23 14  1  0
  1 35  1  0
  1 36  1  0
  1 37  1  0
  3 38  1  0
  4 39  1  0
  7 40  1  0
 10 41  1  0
 10 42  1  0
 12 43  1  0
 13 44  1  0
 16 45  1  0
 24 46  1  0
 29 47  1  0
 30 48  1  0
 31 49  1  0
 32 50  1  0
M  CHG  2  15  -1  20  -1
M  END
>  <UniqueID>  (18) 
17

>  <SMILES>  (18) 
Cc1ccc(F)cc1N(Cc1ccc2[n-]cc(C(=O)[O-])c(=O)c2c1)S(=O)(=O)c1ccccc1F

>  <Energy>  (18) 
65.68621866419207

>  <Genealogy>  (18) 
Cc1ccc(F)cc1N(Cc1ccc2[n-]cc(C(=O)[O-])c(=O)c2c1)S(=O)(=O)c1ccccc1F (protonated)
Cc1ccc(F)cc1N(Cc1ccc2[n-]cc(C(=O)[O-])c(=O)c2c1)S(=O)(=O)c1ccccc1F (3D coordinates assigned)
Cc1ccc(F)cc1N(Cc1ccc2[n-]cc(C(=O)[O-])c(=O)c2c1)S(=O)(=O)c1ccccc1F (optimized conformer: 65.68621866419207 kcal/mol)

>  <smiles>  (18) 
Cc1ccc(F)cc1N(Cc1ccc2[nH]cc(C(=O)O)c(=O)c2c1)S(=O)(=O)c1ccccc1F

>  <score_type>  (18) 
oracle

>  <origin>  (18) 
adg

>  <m_score__min__energy>  (18) 
-13.32

>  <m_primary>  (18) 
energy

$$$$
18:0
     RDKit          3D

 55 58  0  0  0  0  0  0  0  0999 V2000
   62.6030   31.3050   47.5010 C   0  0  0  0  0  0  0  0  0  0  0  0
   63.3890   32.3680   47.3070 C   0  0  0  0  0  0  0  0  0  0  0  0
   63.7210   33.3110   48.4240 C   0  0  0  0  0  0  0  0  0  0  0  0
   62.5910   34.2050   48.6560 N   0  0  0  0  0  0  0  0  0  0  0  0
   61.3490   34.0990   48.2660 C   0  0  0  0  0  0  0  0  0  0  0  0
   61.1080   34.2020   46.9300 N   0  0  0  0  0  0  0  0  0  0  0  0
   59.8580   34.1070   46.4080 C   0  0  0  0  0  0  0  0  0  0  0  0
   59.6490   34.2150   45.0280 C   0  0  0  0  0  0  0  0  0  0  0  0
   58.3530   34.1120   44.5110 C   0  0  0  0  0  0  0  0  0  0  0  0
   57.2680   33.9000   45.3710 C   0  0  0  0  0  0  0  0  0  0  0  0
   57.4750   33.7920   46.7510 C   0  0  0  0  0  0  0  0  0  0  0  0
   58.7700   33.8960   47.2690 C   0  0  0  0  0  0  0  0  0  0  0  0
   58.9920   33.7930   48.6010 N   0  0  0  0  0  0  0  0  0  0  0  0
   60.2400   33.8890   49.1370 C   0  0  0  0  0  0  0  0  0  0  0  0
   60.3680   33.7510   50.5590 N   0  0  0  0  0  0  0  0  0  0  0  0
   61.2300   32.6880   51.0800 C   0  0  0  0  0  0  0  0  0  0  0  0
   60.3700   31.5020   51.5460 C   0  0  0  0  0  0  0  0  0  0  0  0
   59.1280   31.9000   52.2700 N   0  0  0  0  0  0  0  0  0  0  0  0
   57.8990   31.4900   51.5590 C   0  0  0  0  0  0  0  0  0  0  0  0
   58.2300   30.5750   50.4160 C   0  0  0  0  0  0  0  0  0  0  0  0
   58.2090   29.3280   50.6020 O   0  0  0  0  0  0  0  0  0  0  0  0
   58.6160   31.1190   49.1440 N   0  0  0  0  0  0  0  0  0  0  0  0
   58.7930   30.3350   47.9510 C   0  0  0  0  0  0  0  0  0  0  0  0
   59.4830   29.1080   47.9750 C   0  0  0  0  0  0  0  0  0  0  0  0
   59.6190   28.3540   46.8040 C   0  0  0  0  0  0  0  0  0  0  0  0
   59.0600   28.8090   45.6070 C   0  0  0  0  0  0  0  0  0  0  0  0
   59.2310   27.8600   44.1420 Cl  0  0  0  0  0  0  0  0  0  0  0  0
   58.3550   30.0160   45.5800 C   0  0  0  0  0  0  0  0  0  0  0  0
   58.2160   30.7710   46.7490 C   0  0  0  0  0  0  0  0  0  0  0  0
   59.0880   33.3340   52.6390 C   0  0  0  0  0  0  0  0  0  0  0  0
   59.2760   34.2410   51.4100 C   0  0  0  0  0  0  0  0  0  0  0  0
   62.3755   30.6291   46.6635 H   0  0  0  0  0  0  0  0  0  0  0  0
   62.1835   31.1058   48.4982 H   0  0  0  0  0  0  0  0  0  0  0  0
   63.8019   32.5554   46.3048 H   0  0  0  0  0  0  0  0  0  0  0  0
   63.9288   32.7371   49.3392 H   0  0  0  0  0  0  0  0  0  0  0  0
   64.6081   33.9027   48.1538 H   0  0  0  0  0  0  0  0  0  0  0  0
   60.5010   34.3803   44.3522 H   0  0  0  0  0  0  0  0  0  0  0  0
   58.1859   34.1977   43.4272 H   0  0  0  0  0  0  0  0  0  0  0  0
   56.2506   33.8182   44.9608 H   0  0  0  0  0  0  0  0  0  0  0  0
   56.6223   33.6259   47.4257 H   0  0  0  0  0  0  0  0  0  0  0  0
   61.9159   32.3529   50.2880 H   0  0  0  0  0  0  0  0  0  0  0  0
   61.8085   33.0743   51.9321 H   0  0  0  0  0  0  0  0  0  0  0  0
   60.0816   30.9153   50.6614 H   0  0  0  0  0  0  0  0  0  0  0  0
   60.9812   30.9256   52.2561 H   0  0  0  0  0  0  0  0  0  0  0  0
   57.2333   30.9659   52.2605 H   0  0  0  0  0  0  0  0  0  0  0  0
   57.4027   32.3879   51.1621 H   0  0  0  0  0  0  0  0  0  0  0  0
   58.8710   32.1320   49.1020 H   0  0  0  0  0  0  0  0  0  0  0  0
   59.9165   28.7410   48.9170 H   0  0  0  0  0  0  0  0  0  0  0  0
   60.1674   27.4007   46.8259 H   0  0  0  0  0  0  0  0  0  0  0  0
   57.9096   30.3718   44.6393 H   0  0  0  0  0  0  0  0  0  0  0  0
   57.6499   31.7139   46.7257 H   0  0  0  0  0  0  0  0  0  0  0  0
   58.1150   33.5566   53.1014 H   0  0  0  0  0  0  0  0  0  0  0  0
   59.9112   33.5315   53.3413 H   0  0  0  0  0  0  0  0  0  0  0  0
   58.3435   34.2550   50.8268 H   0  0  0  0  0  0  0  0  0  0  0  0
   59.5280   35.2542   51.7563 H   0  0  0  0  0  0  0  0  0  0  0  0
  1  2  2  0
  2  3  1  0
  3  4  1  0
  4  5  2  3
  5  6  1  0
  6  7  1  0
  7  8  2  0
  8  9  1  0
  9 10  2  0
 10 11  1  0
 11 12  2  0
 12 13  1  0
 13 14  2  0
 14 15  1  0
 15 16  1  0
 16 17  1  0
 17 18  1  0
 18 19  1  0
 19 20  1  0
 20 21  2  0
 20 22  1  0
 22 23  1  0
 23 24  2  0
 24 25  1  0
 25 26  2  0
 26 27  1  0
 26 28  1  0
 28 29  2  0
 18 30  1  0
 30 31  1  0
 14  5  1  0
 31 15  1  0
 12  7  1  0
 29 23  1  0
  1 32  1  0
  1 33  1  0
  2 34  1  0
  3 35  1  0
  3 36  1  0
  8 37  1  0
  9 38  1  0
 10 39  1  0
 11 40  1  0
 16 41  1  0
 16 42  1  0
 17 43  1  0
 17 44  1  0
 19 45  1  0
 19 46  1  0
 22 47  1  0
 24 48  1  0
 25 49  1  0
 28 50  1  0
 29 51  1  0
 30 52  1  0
 30 53  1  0
 31 54  1  0
 31 55  1  0
M  CHG  1   6  -1
M  END
>  <UniqueID>  (19) 
18

>  <SMILES>  (19) 
C=CCN=c1[n-]c2ccccc2nc1N1CCN(CC(=O)Nc2ccc(Cl)cc2)CC1

>  <Energy>  (19) 
81.22417790962056

>  <Genealogy>  (19) 
C=CCN=c1[n-]c2ccccc2nc1N1CCN(CC(=O)Nc2ccc(Cl)cc2)CC1 (protonated)
C=CCN=c1[n-]c2ccccc2nc1N1CCN(CC(=O)Nc2ccc(Cl)cc2)CC1 (3D coordinates assigned)
C=CCN=c1[n-]c2ccccc2nc1N1CCN(CC(=O)Nc2ccc(Cl)cc2)CC1 (nonaromatic ring conformer: 81.22417790962056 kcal/mol)

>  <smiles>  (19) 
C=CCN=c1[nH]c2ccccc2nc1N1CCN(CC(=O)Nc2ccc(Cl)cc2)CC1

>  <score_type>  (19) 
oracle

>  <origin>  (19) 
adg

>  <m_score__min__energy>  (19) 
-9.3100000000000005

>  <m_primary>  (19) 
energy

$$$$
19:0
     RDKit          3D

 50 53  0  0  0  0  0  0  0  0999 V2000
   55.2160   26.3450   45.9990 N   0  0  0  0  0  0  0  0  0  0  0  0
   56.9200   26.6320   45.9540 S   0  0  0  0  0  0  0  0  0  0  0  0
   57.5630   25.6730   44.9920 O   0  0  0  0  0  0  0  0  0  0  0  0
   57.5010   26.4060   47.3210 O   0  0  0  0  0  0  0  0  0  0  0  0
   57.2240   28.2870   45.4390 C   0  0  0  0  0  0  0  0  0  0  0  0
   57.5580   29.2700   46.3810 C   0  0  0  0  0  0  0  0  0  0  0  0
   57.7890   30.5860   45.9720 C   0  0  0  0  0  0  0  0  0  0  0  0
   57.6630   30.9450   44.6240 C   0  0  0  0  0  0  0  0  0  0  0  0
   57.9340   32.3040   44.2430 N   0  0  0  0  0  0  0  0  0  0  0  0
   58.6250   33.1800   44.9140 C   0  0  0  0  0  0  0  0  0  0  0  0
   59.4670   32.7980   45.9140 N   0  0  0  0  0  0  0  0  0  0  0  0
   60.2120   33.7000   46.6100 C   0  0  0  0  0  0  0  0  0  0  0  0
   61.1070   33.2180   47.6940 C   0  0  0  0  0  0  0  0  0  0  0  0
   62.2520   33.9590   48.0320 C   0  0  0  0  0  0  0  0  0  0  0  0
   63.1100   33.5190   49.0400 C   0  0  0  0  0  0  0  0  0  0  0  0
   62.8450   32.3290   49.7190 C   0  0  0  0  0  0  0  0  0  0  0  0
   61.7170   31.5580   49.3880 C   0  0  0  0  0  0  0  0  0  0  0  0
   61.4230   30.3140   50.0510 N   0  0  0  0  0  0  0  0  0  0  0  0
   60.1290   29.2500   49.5960 S   0  0  0  0  0  0  0  0  0  0  0  0
   58.8280   29.9980   49.6730 O   0  0  0  0  0  0  0  0  0  0  0  0
   60.0880   28.0950   50.5580 O   0  0  0  0  0  0  0  0  0  0  0  0
   60.3560   28.6790   47.9410 C   0  0  0  0  0  0  0  0  0  0  0  0
   60.6360   29.5980   46.9190 C   0  0  0  0  0  0  0  0  0  0  0  0
   60.8240   29.1570   45.6060 C   0  0  0  0  0  0  0  0  0  0  0  0
   60.7270   27.7960   45.3050 C   0  0  0  0  0  0  0  0  0  0  0  0
   60.4360   26.8760   46.3160 C   0  0  0  0  0  0  0  0  0  0  0  0
   60.2480   27.3120   47.6310 C   0  0  0  0  0  0  0  0  0  0  0  0
   59.9560   26.4030   48.5950 F   0  0  0  0  0  0  0  0  0  0  0  0
   60.8550   32.0110   48.3760 C   0  0  0  0  0  0  0  0  0  0  0  0
   60.1220   35.0580   46.2680 C   0  0  0  0  0  0  0  0  0  0  0  0
   59.2630   35.4330   45.2350 C   0  0  0  0  0  0  0  0  0  0  0  0
   58.5360   34.4920   44.5780 N   0  0  0  0  0  0  0  0  0  0  0  0
   57.3520   29.9500   43.6760 C   0  0  0  0  0  0  0  0  0  0  0  0
   57.1210   28.6340   44.0860 C   0  0  0  0  0  0  0  0  0  0  0  0
   54.7990   27.0820   46.6100 H   0  0  0  0  0  0  0  0  0  0  0  0
   57.6385   29.0045   47.4454 H   0  0  0  0  0  0  0  0  0  0  0  0
   58.0721   31.3463   46.7148 H   0  0  0  0  0  0  0  0  0  0  0  0
   62.4737   34.8942   47.4971 H   0  0  0  0  0  0  0  0  0  0  0  0
   63.9989   34.1123   49.3006 H   0  0  0  0  0  0  0  0  0  0  0  0
   63.5224   31.9924   50.5176 H   0  0  0  0  0  0  0  0  0  0  0  0
   61.9860   30.0390   50.8860 H   0  0  0  0  0  0  0  0  0  0  0  0
   60.7080   30.6707   47.1519 H   0  0  0  0  0  0  0  0  0  0  0  0
   61.0484   29.8816   44.8094 H   0  0  0  0  0  0  0  0  0  0  0  0
   60.8797   27.4487   44.2725 H   0  0  0  0  0  0  0  0  0  0  0  0
   60.3546   25.8055   46.0764 H   0  0  0  0  0  0  0  0  0  0  0  0
   59.9695   31.4144   48.1117 H   0  0  0  0  0  0  0  0  0  0  0  0
   60.7172   35.8119   46.8040 H   0  0  0  0  0  0  0  0  0  0  0  0
   59.1741   36.4922   44.9519 H   0  0  0  0  0  0  0  0  0  0  0  0
   57.2908   30.2101   42.6089 H   0  0  0  0  0  0  0  0  0  0  0  0
   56.8571   27.8673   43.3427 H   0  0  0  0  0  0  0  0  0  0  0  0
  1  2  1  0
  2  3  2  0
  2  4  2  0
  2  5  1  0
  5  6  2  0
  6  7  1  0
  7  8  2  0
  8  9  1  0
  9 10  2  3
 10 11  1  0
 11 12  2  0
 12 13  1  0
 13 14  2  0
 14 15  1  0
 15 16  2  0
 16 17  1  0
 17 18  1  0
 18 19  1  0
 19 20  2  0
 19 21  2  0
 19 22  1  0
 22 23  2  0
 23 24  1  0
 24 25  2  0
 25 26  1  0
 26 27  2  0
 27 28  1  0
 17 29  2  0
 12 30  1  0
 30 31  2  0
 31 32  1  0
  8 33  1  0
 33 34  2  0
 34  5  1  0
 32 10  1  0
 29 13  1  0
 27 22  1  0
  1 35  1  0
  6 36  1  0
  7 37  1  0
 14 38  1  0
 15 39  1  0
 16 40  1  0
 18 41  1  0
 23 42  1  0
 24 43  1  0
 25 44  1  0
 26 45  1  0
 29 46  1  0
 30 47  1  0
 31 48  1  0
 33 49  1  0
 34 50  1  0
M  CHG  2   1  -1  32  -1
M  END
>  <UniqueID>  (20) 
19

>  <SMILES>  (20) 
[NH-]S(=O)(=O)c1ccc(N=c2nc(-c3cccc(NS(=O)(=O)c4ccccc4F)c3)cc[n-]2)cc1

>  <Energy>  (20) 
68.73653936559191

>  <Genealogy>  (20) 
[NH-]S(=O)(=O)c1ccc(N=c2nc(-c3cccc(NS(=O)(=O)c4ccccc4F)c3)cc[n-]2)cc1 (protonated)
[NH-]S(=O)(=O)c1ccc(N=c2nc(-c3cccc(NS(=O)(=O)c4ccccc4F)c3)cc[n-]2)cc1 (3D coordinates assigned)
[NH-]S(=O)(=O)c1ccc(N=c2nc(-c3cccc(NS(=O)(=O)c4ccccc4F)c3)cc[n-]2)cc1 (optimized conformer: 68.73653936559191 kcal/mol)

>  <smiles>  (20) 
NS(=O)(=O)c1ccc(N=c2nc(-c3cccc(NS(=O)(=O)c4ccccc4F)c3)cc[nH]2)cc1

>  <score_type>  (20) 
oracle

>  <origin>  (20) 
adg

>  <m_score__min__energy>  (20) 
-13.75

>  <m_primary>  (20) 
energy

$$$$
20:0
     RDKit          3D

 49 51  0  0  0  0  0  0  0  0999 V2000
   56.0000   24.8600   46.9440 O   0  0  0  0  0  0  0  0  0  0  0  0
   55.8710   25.9730   46.3670 C   0  0  0  0  0  0  0  0  0  0  0  0
   54.6250   26.3300   45.8640 O   0  0  0  0  0  0  0  0  0  0  0  0
   57.0270   26.8850   46.2260 C   0  0  0  0  0  0  0  0  0  0  0  0
   58.1840   26.7040   47.0030 C   0  0  0  0  0  0  0  0  0  0  0  0
   59.2740   27.5690   46.8650 C   0  0  0  0  0  0  0  0  0  0  0  0
   59.2260   28.6320   45.9510 C   0  0  0  0  0  0  0  0  0  0  0  0
   60.3970   29.5750   45.8250 C   0  0  0  0  0  0  0  0  0  0  0  0
   60.6720   30.3000   47.1140 C   0  0  0  0  0  0  0  0  0  0  0  0
   61.0790   29.6570   48.1200 O   0  0  0  0  0  0  0  0  0  0  0  0
   60.6040   31.7360   47.1790 N   0  0  0  0  0  0  0  0  0  0  0  0
   61.1420   32.3640   48.3590 C   0  0  0  0  0  0  0  0  0  0  0  0
   62.3660   32.6650   48.4010 O   0  0  0  0  0  0  0  0  0  0  0  0
   60.2820   32.6730   49.5190 C   0  0  0  0  0  0  0  0  0  0  0  0
   60.4270   33.8850   50.2120 C   0  0  0  0  0  0  0  0  0  0  0  0
   59.6340   34.1600   51.2820 N   0  0  0  0  0  0  0  0  0  0  0  0
   58.6920   33.2850   51.7210 C   0  0  0  0  0  0  0  0  0  0  0  0
   57.9780   33.5850   52.7140 O   0  0  0  0  0  0  0  0  0  0  0  0
   58.5230   32.0550   51.0710 C   0  0  0  0  0  0  0  0  0  0  0  0
   57.3240   30.8920   51.6210 Cl  0  0  0  0  0  0  0  0  0  0  0  0
   59.3290   31.7510   49.9720 C   0  0  0  0  0  0  0  0  0  0  0  0
   59.6180   32.4740   46.3660 C   0  0  1  0  0  0  0  0  0  0  0  0
   58.1650   32.1220   46.7650 C   0  0  0  0  0  0  0  0  0  0  0  0
   57.1370   33.1960   46.3430 C   0  0  0  0  0  0  0  0  0  0  0  0
   57.6200   34.0230   45.1400 C   0  0  1  0  0  0  0  0  0  0  0  0
   56.6410   34.9610   44.7770 O   0  0  0  0  0  0  0  0  0  0  0  0
   58.9390   34.7610   45.4640 C   0  0  0  0  0  0  0  0  0  0  0  0
   59.8540   33.9940   46.4420 C   0  0  0  0  0  0  0  0  0  0  0  0
   58.0730   28.8140   45.1720 C   0  0  0  0  0  0  0  0  0  0  0  0
   56.9840   27.9490   45.3080 C   0  0  0  0  0  0  0  0  0  0  0  0
   58.2325   25.8757   47.7251 H   0  0  0  0  0  0  0  0  0  0  0  0
   60.1749   27.4149   47.4771 H   0  0  0  0  0  0  0  0  0  0  0  0
   61.2902   28.9979   45.5436 H   0  0  0  0  0  0  0  0  0  0  0  0
   60.1518   30.3237   45.0573 H   0  0  0  0  0  0  0  0  0  0  0  0
   61.1842   34.6144   49.8887 H   0  0  0  0  0  0  0  0  0  0  0  0
   59.2154   30.7841   49.4599 H   0  0  0  0  0  0  0  0  0  0  0  0
   59.7611   32.1584   45.3220 H   0  0  0  0  0  0  0  0  0  0  0  0
   58.1213   32.0075   47.8582 H   0  0  0  0  0  0  0  0  0  0  0  0
   57.8992   31.1929   46.2395 H   0  0  0  0  0  0  0  0  0  0  0  0
   56.9642   33.8737   47.1920 H   0  0  0  0  0  0  0  0  0  0  0  0
   56.2118   32.6796   46.0475 H   0  0  0  0  0  0  0  0  0  0  0  0
   57.8003   33.3305   44.3046 H   0  0  0  0  0  0  0  0  0  0  0  0
   56.0840   35.1220   45.5840 H   0  0  0  0  0  0  0  0  0  0  0  0
   58.6913   35.7350   45.9113 H   0  0  0  0  0  0  0  0  0  0  0  0
   59.4918   34.8623   44.5184 H   0  0  0  0  0  0  0  0  0  0  0  0
   59.6477   34.3364   47.4668 H   0  0  0  0  0  0  0  0  0  0  0  0
   60.8992   34.1941   46.1637 H   0  0  0  0  0  0  0  0  0  0  0  0
   58.0262   29.6426   44.4500 H   0  0  0  0  0  0  0  0  0  0  0  0
   56.0857   28.1018   44.6918 H   0  0  0  0  0  0  0  0  0  0  0  0
  1  2  2  0
  2  3  1  0
  2  4  1  0
  4  5  2  0
  5  6  1  0
  6  7  2  0
  7  8  1  0
  8  9  1  0
  9 10  2  0
  9 11  1  0
 11 12  1  0
 12 13  2  0
 12 14  1  0
 14 15  2  0
 15 16  1  0
 16 17  1  0
 17 18  2  0
 17 19  1  0
 19 20  1  0
 19 21  2  0
 11 22  1  0
 22 23  1  0
 23 24  1  0
 24 25  1  0
 25 26  1  0
 25 27  1  0
 27 28  1  0
  7 29  1  0
 29 30  2  0
 30  4  1  0
 21 14  1  0
 28 22  1  0
  5 31  1  0
  6 32  1  0
  8 33  1  0
  8 34  1  0
 15 35  1  0
 21 36  1  0
 22 37  1  6
 23 38  1  0
 23 39  1  0
 24 40  1  0
 24 41  1  0
 25 42  1  6
 26 43  1  0
 27 44  1  0
 27 45  1  0
 28 46  1  0
 28 47  1  0
 29 48  1  0
 30 49  1  0
M  CHG  2   3  -1  16  -1
M  END
>  <UniqueID>  (21) 
20

>  <SMILES>  (21) 
O=C([O-])c1ccc(CC(=O)N(C(=O)c2c[n-]c(=O)c(Cl)c2)C2CCC(O)CC2)cc1

>  <Energy>  (21) 
67.66754442715138

>  <Genealogy>  (21) 
O=C([O-])c1ccc(CC(=O)N(C(=O)c2c[n-]c(=O)c(Cl)c2)C2CCC(O)CC2)cc1 (protonated)
O=C([O-])c1ccc(CC(=O)N(C(=O)c2c[n-]c(=O)c(Cl)c2)C2CCC(O)CC2)cc1 (3D coordinates assigned)
O=C([O-])c1ccc(CC(=O)N(C(=O)c2c[n-]c(=O)c(Cl)c2)C2CCC(O)CC2)cc1 (nonaromatic ring conformer: 67.66754442715138 kcal/mol)

>  <smiles>  (21) 
O=C(O)c1ccc(CC(=O)N(C(=O)c2c[nH]c(=O)c(Cl)c2)C2CCC(O)CC2)cc1

>  <score_type>  (21) 
oracle

>  <origin>  (21) 
adg

>  <m_score__min__energy>  (21) 
-12.210000000000001

>  <m_primary>  (21) 
energy

$$$$
21:0
     RDKit          3D

 44 46  0  0  0  0  0  0  0  0999 V2000
   62.2830   34.2290   49.3810 C   0  0  0  0  0  0  0  0  0  0  0  0
   63.4300   33.7530   48.4950 C   0  0  0  0  0  0  0  0  0  0  0  0
   63.8180   32.3030   48.8230 C   0  0  0  0  0  0  0  0  0  0  0  0
   62.6620   31.5200   49.4590 C   0  0  0  0  0  0  0  0  0  0  0  0
   61.7840   30.8880   48.4210 C   0  0  0  0  0  0  0  0  0  0  0  0
   61.1490   29.7020   48.5900 N   0  0  0  0  0  0  0  0  0  0  0  0
   60.3480   29.3950   47.5720 N   0  0  0  0  0  0  0  0  0  0  0  0
   59.5640   28.2850   47.4910 C   0  0  0  0  0  0  0  0  0  0  0  0
   59.5740   27.4180   48.4060 O   0  0  0  0  0  0  0  0  0  0  0  0
   58.7320   28.1260   46.3750 C   0  0  0  0  0  0  0  0  0  0  0  0
   58.7320   29.1230   45.3780 C   0  0  0  0  0  0  0  0  0  0  0  0
   57.7790   29.0490   44.2190 C   0  0  0  0  0  0  0  0  0  0  0  0
   56.4570   29.6980   44.5450 C   0  0  0  0  0  0  0  0  0  0  0  0
   55.4970   28.9680   44.9070 O   0  0  0  0  0  0  0  0  0  0  0  0
   56.2620   31.1200   44.5030 N   0  0  0  0  0  0  0  0  0  0  0  0
   57.2300   32.1100   44.8720 C   0  0  0  0  0  0  0  0  0  0  0  0
   57.4680   32.3620   46.2270 C   0  0  0  0  0  0  0  0  0  0  0  0
   58.4320   33.2970   46.6130 C   0  0  0  0  0  0  0  0  0  0  0  0
   59.1600   34.0110   45.6450 C   0  0  0  0  0  0  0  0  0  0  0  0
   60.1600   34.9670   46.0440 N   0  0  0  0  0  0  0  0  0  0  0  0
   61.2460   34.5870   46.5310 O   0  0  0  0  0  0  0  0  0  0  0  0
   59.9370   36.3160   45.8950 O   0  0  0  0  0  0  0  0  0  0  0  0
   58.8910   33.7790   44.2840 C   0  0  0  0  0  0  0  0  0  0  0  0
   57.9270   32.8430   43.9010 C   0  0  0  0  0  0  0  0  0  0  0  0
   59.5490   30.2070   45.5030 N   0  0  0  0  0  0  0  0  0  0  0  0
   60.3440   30.3240   46.5930 C   0  0  0  0  0  0  0  0  0  0  0  0
   61.3510   31.6200   46.9510 S   0  0  0  0  0  0  0  0  0  0  0  0
   62.5636   34.1125   50.4382 H   0  0  0  0  0  0  0  0  0  0  0  0
   62.0734   35.2884   49.1718 H   0  0  0  0  0  0  0  0  0  0  0  0
   61.3849   33.6293   49.1718 H   0  0  0  0  0  0  0  0  0  0  0  0
   63.1185   33.8119   47.4417 H   0  0  0  0  0  0  0  0  0  0  0  0
   64.3025   34.3976   48.6771 H   0  0  0  0  0  0  0  0  0  0  0  0
   64.1176   31.7980   47.8928 H   0  0  0  0  0  0  0  0  0  0  0  0
   64.6441   32.3319   49.5488 H   0  0  0  0  0  0  0  0  0  0  0  0
   63.0775   30.7310   50.1031 H   0  0  0  0  0  0  0  0  0  0  0  0
   62.0509   32.2240   50.0430 H   0  0  0  0  0  0  0  0  0  0  0  0
   61.2560   29.1050   49.4420 H   0  0  0  0  0  0  0  0  0  0  0  0
   58.0896   27.2383   46.2783 H   0  0  0  0  0  0  0  0  0  0  0  0
   58.2261   29.5637   43.3558 H   0  0  0  0  0  0  0  0  0  0  0  0
   57.5950   27.9885   43.9920 H   0  0  0  0  0  0  0  0  0  0  0  0
   56.8931   31.8211   46.9931 H   0  0  0  0  0  0  0  0  0  0  0  0
   58.6226   33.4757   47.6815 H   0  0  0  0  0  0  0  0  0  0  0  0
   59.4439   34.3388   43.5153 H   0  0  0  0  0  0  0  0  0  0  0  0
   57.7141   32.6806   42.8341 H   0  0  0  0  0  0  0  0  0  0  0  0
  1  2  1  0
  2  3  1  0
  3  4  1  0
  4  5  1  0
  5  6  2  0
  6  7  1  0
  7  8  1  0
  8  9  2  0
  8 10  1  0
 10 11  2  0
 11 12  1  0
 12 13  1  0
 13 14  2  0
 13 15  1  0
 15 16  1  0
 16 17  2  0
 17 18  1  0
 18 19  2  0
 19 20  1  0
 20 21  2  0
 20 22  1  0
 19 23  1  0
 23 24  2  0
 11 25  1  0
 25 26  2  0
 26 27  1  0
 27  5  1  0
 26  7  1  0
 24 16  1  0
  1 28  1  0
  1 29  1  0
  1 30  1  0
  2 31  1  0
  2 32  1  0
  3 33  1  0
  3 34  1  0
  4 35  1  0
  4 36  1  0
  6 37  1  0
 10 38  1  0
 12 39  1  0
 12 40  1  0
 17 41  1  0
 18 42  1  0
 23 43  1  0
 24 44  1  0
M  CHG  4   6   1  15  -1  20   1  22  -1
M  END
>  <UniqueID>  (22) 
21

>  <SMILES>  (22) 
CCCCc1[nH+]n2c(=O)cc(CC(=O)[N-]c3ccc([N+](=O)[O-])cc3)nc2s1

>  <Energy>  (22) 
77.70474301340386

>  <Genealogy>  (22) 
CCCCc1[nH+]n2c(=O)cc(CC(=O)[N-]c3ccc([N+](=O)[O-])cc3)nc2s1 (protonated)
CCCCc1[nH+]n2c(=O)cc(CC(=O)[N-]c3ccc([N+](=O)[O-])cc3)nc2s1 (3D coordinates assigned)
CCCCc1[nH+]n2c(=O)cc(CC(=O)[N-]c3ccc([N+](=O)[O-])cc3)nc2s1 (optimized conformer: 77.70474301340386 kcal/mol)

>  <smiles>  (22) 
CCCCc1nn2c(=O)cc(CC(=O)Nc3ccc([N+](=O)[O-])cc3)nc2s1

>  <score_type>  (22) 
oracle

>  <origin>  (22) 
adg

>  <m_score__min__energy>  (22) 
-8.3800000000000008

>  <m_primary>  (22) 
energy

$$$$
22:0
     RDKit          3D

 44 48  0  0  0  0  0  0  0  0999 V2000
   57.2312   27.9214   44.8253 H   0  0  0  0  0  0  0  0  0  0  0  0
   57.7680   27.4470   45.6600 C   0  0  0  0  0  0  0  0  0  0  0  0
   57.2250   26.1730   46.1700 C   0  0  0  0  0  0  0  0  0  0  0  0
   57.9530   25.1470   46.6460 N   0  0  0  0  0  0  0  0  0  0  0  0
   57.0200   24.2650   47.0630 C   0  0  0  0  0  0  0  0  0  0  0  0
   57.3180   23.1500   47.5660 O   0  0  0  0  0  0  0  0  0  0  0  0
   55.7430   24.6730   46.9010 N   0  0  0  0  0  0  0  0  0  0  0  0
   55.8920   25.8850   46.3440 C   0  0  0  0  0  0  0  0  0  0  0  0
   54.8310   26.7120   45.9990 O   0  0  0  0  0  0  0  0  0  0  0  0
   58.8580   28.0790   46.1230 C   0  0  0  0  0  0  0  0  0  0  0  0
   59.8520   27.4980   46.9130 C   0  0  0  0  0  0  0  0  0  0  0  0
   59.8839   26.4380   47.2052 H   0  0  0  0  0  0  0  0  0  0  0  0
   60.7720   28.4280   47.2680 N   0  0  0  0  0  0  0  0  0  0  0  0
   60.3860   29.5700   46.7260 N   0  0  0  0  0  0  0  0  0  0  0  0
   60.9630   30.7900   46.8660 C   0  0  0  0  0  0  0  0  0  0  0  0
   62.0600   30.9150   47.5660 N   0  0  0  0  0  0  0  0  0  0  0  0
   63.2670   31.7440   47.3870 C   0  0  0  0  0  0  0  0  0  0  0  0
   63.8427   30.9247   46.9316 H   0  0  0  0  0  0  0  0  0  0  0  0
   63.5450   32.7930   48.4530 C   0  0  0  0  0  0  0  0  0  0  0  0
   62.8752   32.8877   49.3204 H   0  0  0  0  0  0  0  0  0  0  0  0
   64.4046   33.0476   49.0903 H   0  0  0  0  0  0  0  0  0  0  0  0
   63.0630   33.2150   47.0630 C   0  0  0  0  0  0  0  0  0  0  0  0
   62.0464   33.6136   46.9304 H   0  0  0  0  0  0  0  0  0  0  0  0
   63.4322   33.8997   46.2853 H   0  0  0  0  0  0  0  0  0  0  0  0
   60.3460   31.8530   46.2780 N   0  0  0  0  0  0  0  0  0  0  0  0
   59.1860   31.6850   45.5770 C   0  0  0  0  0  0  0  0  0  0  0  0
   58.3600   33.1020   44.8630 S   0  0  0  0  0  0  0  0  0  0  0  0
   57.4440   33.5240   46.3880 C   0  0  0  0  0  0  0  0  0  0  0  0
   56.6683   32.7640   46.5634 H   0  0  0  0  0  0  0  0  0  0  0  0
   56.9891   34.5173   46.2594 H   0  0  0  0  0  0  0  0  0  0  0  0
   58.3710   33.5700   47.5840 C   0  0  0  0  0  0  0  0  0  0  0  0
   58.1570   32.6600   48.6340 C   0  0  0  0  0  0  0  0  0  0  0  0
   57.3090   31.9610   48.5856 H   0  0  0  0  0  0  0  0  0  0  0  0
   59.0120   32.6360   49.7380 C   0  0  0  0  0  0  0  0  0  0  0  0
   58.8300   31.9252   50.5575 H   0  0  0  0  0  0  0  0  0  0  0  0
   60.0960   33.5110   49.8040 C   0  0  0  0  0  0  0  0  0  0  0  0
   60.7704   33.4860   50.6727 H   0  0  0  0  0  0  0  0  0  0  0  0
   60.3260   34.4190   48.7680 C   0  0  0  0  0  0  0  0  0  0  0  0
   61.1838   35.1054   48.8231 H   0  0  0  0  0  0  0  0  0  0  0  0
   59.4700   34.4610   47.6580 C   0  0  0  0  0  0  0  0  0  0  0  0
   59.7550   35.4110   46.6090 C   0  0  0  0  0  0  0  0  0  0  0  0
   59.9830   36.1710   45.7670 N   0  0  0  0  0  0  0  0  0  0  0  0
   58.6290   30.4490   45.4540 N   0  0  0  0  0  0  0  0  0  0  0  0
   59.2560   29.4020   46.0350 C   0  0  0  0  0  0  0  0  0  0  0  0
  1  2  1  0
  2  3  1  0
  3  4  1  0
  4  5  1  0
  5  6  2  0
  5  7  1  0
  7  8  1  0
  8  9  1  0
  2 10  2  0
 10 11  1  0
 11 12  1  0
 11 13  2  0
 13 14  1  0
 14 15  1  0
 15 16  2  3
 16 17  1  0
 17 18  1  0
 17 19  1  0
 19 20  1  0
 19 21  1  0
 19 22  1  0
 22 23  1  0
 22 24  1  0
 15 25  1  0
 25 26  2  0
 26 27  1  0
 27 28  1  0
 28 29  1  0
 28 30  1  0
 28 31  1  0
 31 32  2  0
 32 33  1  0
 32 34  1  0
 34 35  1  0
 34 36  2  0
 36 37  1  0
 36 38  1  0
 38 39  1  0
 38 40  2  0
 40 41  1  0
 41 42  3  0
 26 43  1  0
 43 44  2  0
  8  3  2  0
 44 10  1  0
 44 14  1  0
 22 17  1  0
 40 31  1  0
M  CHG  3   4  -1   7  -1   9  -1
M  END
>  <UniqueID>  (23) 
22

>  <SMILES>  (23) 
N#Cc1ccccc1CSc1nc(=NC2CC2)n2nc/c(=C/c3[n-]c(=O)[n-]c3[O-])c2n1

>  <Energy>  (23) 
388.1337697711718

>  <Genealogy>  (23) 
N#Cc1ccccc1CSc1nc(=NC2CC2)n2ncc(=Cc3[n-]c(=O)[n-]c3[O-])c2n1 (protonated)
N#Cc1ccccc1CSc1nc(=NC2CC2)n2nc/c(=C/c3[n-]c(=O)[n-]c3[O-])c2n1 (cis-trans isomerization)
N#Cc1ccccc1CSc1nc(=NC2CC2)n2nc/c(=C/c3[n-]c(=O)[n-]c3[O-])c2n1 (3D coordinates assigned)
N#Cc1ccccc1CSc1nc(=NC2CC2)n2nc/c(=C/c3[n-]c(=O)[n-]c3[O-])c2n1 (nonaromatic ring conformer: 388.1337697711718 kcal/mol)

>  <smiles>  (23) 
N#Cc1ccccc1CSc1nc(=NC2CC2)n2ncc(=Cc3[nH]c(=O)[nH]c3O)c2n1

>  <score_type>  (23) 
oracle

>  <origin>  (23) 
adg

>  <m_score__min__energy>  (23) 
-17.690000000000001

>  <m_primary>  (23) 
energy

$$$$
23:0
     RDKit          3D

 55 57  0  0  0  0  0  0  0  0999 V2000
   56.9600   20.4810   45.0040 C   0  0  0  0  0  0  0  0  0  0  0  0
   56.6960   20.6810   43.5140 C   0  0  0  0  0  0  0  0  0  0  0  0
   55.9340   21.8680   43.2840 O   0  0  0  0  0  0  0  0  0  0  0  0
   56.0970   23.0890   43.9580 C   0  0  0  0  0  0  0  0  0  0  0  0
   57.2790   23.8050   43.7500 C   0  0  0  0  0  0  0  0  0  0  0  0
   57.4960   25.0270   44.3910 C   0  0  0  0  0  0  0  0  0  0  0  0
   56.5300   25.5530   45.2660 C   0  0  0  0  0  0  0  0  0  0  0  0
   56.7430   26.8610   45.9250 C   0  0  0  0  0  0  0  0  0  0  0  0
   57.6810   27.0070   46.7530 O   0  0  0  0  0  0  0  0  0  0  0  0
   55.8930   27.9710   45.6150 N   0  0  0  0  0  0  0  0  0  0  0  0
   56.2090   28.9670   44.5990 C   0  0  0  0  0  0  0  0  0  0  0  0
   57.6860   29.2320   44.5550 C   0  0  0  0  0  0  0  0  0  0  0  0
   58.4410   28.3830   44.0090 O   0  0  0  0  0  0  0  0  0  0  0  0
   58.2460   30.4470   45.0940 N   0  0  0  0  0  0  0  0  0  0  0  0
   57.5650   31.7340   44.8790 C   0  0  0  0  0  0  0  0  0  0  0  0
   58.2360   32.8380   45.6500 C   0  0  0  0  0  0  0  0  0  0  0  0
   58.2200   32.8300   47.0530 C   0  0  0  0  0  0  0  0  0  0  0  0
   58.8620   33.8400   47.7720 C   0  0  0  0  0  0  0  0  0  0  0  0
   59.5260   34.8670   47.0940 C   0  0  0  0  0  0  0  0  0  0  0  0
   59.5500   34.8820   45.6970 C   0  0  0  0  0  0  0  0  0  0  0  0
   58.9060   33.8730   44.9760 C   0  0  0  0  0  0  0  0  0  0  0  0
   59.6210   30.4270   45.6190 C   0  0  0  0  0  0  0  0  0  0  0  0
   59.8110   29.2460   46.5380 C   0  0  0  0  0  0  0  0  0  0  0  0
   60.4030   28.0660   46.0600 C   0  0  0  0  0  0  0  0  0  0  0  0
   60.6210   26.9870   46.9230 C   0  0  0  0  0  0  0  0  0  0  0  0
   60.2470   27.0740   48.2660 C   0  0  0  0  0  0  0  0  0  0  0  0
   59.6500   28.2400   48.7500 C   0  0  0  0  0  0  0  0  0  0  0  0
   59.4330   29.3240   47.8910 C   0  0  0  0  0  0  0  0  0  0  0  0
   55.3440   24.8310   45.4820 C   0  0  0  0  0  0  0  0  0  0  0  0
   55.1310   23.6110   44.8370 C   0  0  0  0  0  0  0  0  0  0  0  0
   56.2165   21.0443   45.5870 H   0  0  0  0  0  0  0  0  0  0  0  0
   56.8845   19.4114   45.2494 H   0  0  0  0  0  0  0  0  0  0  0  0
   57.9692   20.8432   45.2494 H   0  0  0  0  0  0  0  0  0  0  0  0
   57.6575   20.7628   42.9860 H   0  0  0  0  0  0  0  0  0  0  0  0
   56.1236   19.8191   43.1406 H   0  0  0  0  0  0  0  0  0  0  0  0
   58.0472   23.4017   43.0738 H   0  0  0  0  0  0  0  0  0  0  0  0
   58.4288   25.5811   44.2098 H   0  0  0  0  0  0  0  0  0  0  0  0
   55.8793   28.5976   43.6167 H   0  0  0  0  0  0  0  0  0  0  0  0
   55.6895   29.9038   44.8493 H   0  0  0  0  0  0  0  0  0  0  0  0
   57.5894   31.9785   43.8068 H   0  0  0  0  0  0  0  0  0  0  0  0
   56.5270   31.6429   45.2316 H   0  0  0  0  0  0  0  0  0  0  0  0
   57.6987   32.0235   47.5894 H   0  0  0  0  0  0  0  0  0  0  0  0
   58.8455   33.8279   48.8718 H   0  0  0  0  0  0  0  0  0  0  0  0
   60.0299   35.6637   47.6609 H   0  0  0  0  0  0  0  0  0  0  0  0
   60.0759   35.6882   45.1647 H   0  0  0  0  0  0  0  0  0  0  0  0
   58.9236   33.8890   43.8763 H   0  0  0  0  0  0  0  0  0  0  0  0
   60.3290   30.3524   44.7804 H   0  0  0  0  0  0  0  0  0  0  0  0
   59.8031   31.3536   46.1832 H   0  0  0  0  0  0  0  0  0  0  0  0
   60.6965   27.9898   45.0026 H   0  0  0  0  0  0  0  0  0  0  0  0
   61.0886   26.0668   46.5427 H   0  0  0  0  0  0  0  0  0  0  0  0
   60.4227   26.2243   48.9422 H   0  0  0  0  0  0  0  0  0  0  0  0
   59.3502   28.3067   49.8063 H   0  0  0  0  0  0  0  0  0  0  0  0
   58.9644   30.2417   48.2760 H   0  0  0  0  0  0  0  0  0  0  0  0
   54.5783   25.2295   46.1638 H   0  0  0  0  0  0  0  0  0  0  0  0
   54.2001   23.0536   45.0178 H   0  0  0  0  0  0  0  0  0  0  0  0
  1  2  1  0
  2  3  1  0
  3  4  1  0
  4  5  2  0
  5  6  1  0
  6  7  2  0
  7  8  1  0
  8  9  2  0
  8 10  1  0
 10 11  1  0
 11 12  1  0
 12 13  2  0
 12 14  1  0
 14 15  1  0
 15 16  1  0
 16 17  2  0
 17 18  1  0
 18 19  2  0
 19 20  1  0
 20 21  2  0
 14 22  1  0
 22 23  1  0
 23 24  2  0
 24 25  1  0
 25 26  2  0
 26 27  1  0
 27 28  2  0
  7 29  1  0
 29 30  2  0
 30  4  1  0
 21 16  1  0
 28 23  1  0
  1 31  1  0
  1 32  1  0
  1 33  1  0
  2 34  1  0
  2 35  1  0
  5 36  1  0
  6 37  1  0
 11 38  1  0
 11 39  1  0
 15 40  1  0
 15 41  1  0
 17 42  1  0
 18 43  1  0
 19 44  1  0
 20 45  1  0
 21 46  1  0
 22 47  1  0
 22 48  1  0
 24 49  1  0
 25 50  1  0
 26 51  1  0
 27 52  1  0
 28 53  1  0
 29 54  1  0
 30 55  1  0
M  CHG  1  10  -1
M  END
>  <UniqueID>  (24) 
23

>  <SMILES>  (24) 
CCOc1ccc(C(=O)[N-]CC(=O)N(Cc2ccccc2)Cc2ccccc2)cc1

>  <Energy>  (24) 
51.57688290488117

>  <Genealogy>  (24) 
CCOc1ccc(C(=O)[N-]CC(=O)N(Cc2ccccc2)Cc2ccccc2)cc1 (protonated)
CCOc1ccc(C(=O)[N-]CC(=O)N(Cc2ccccc2)Cc2ccccc2)cc1 (3D coordinates assigned)
CCOc1ccc(C(=O)[N-]CC(=O)N(Cc2ccccc2)Cc2ccccc2)cc1 (optimized conformer: 51.57688290488117 kcal/mol)

>  <smiles>  (24) 
CCOc1ccc(C(=O)NCC(=O)N(Cc2ccccc2)Cc2ccccc2)cc1

>  <score_type>  (24) 
oracle

>  <origin>  (24) 
adg

>  <m_score__min__energy>  (24) 
-10.07

>  <m_primary>  (24) 
energy

$$$$
24:0
     RDKit          3D

 43 45  0  0  0  0  0  0  0  0999 V2000
   58.3330   25.2900   46.3630 O   0  0  0  0  0  0  0  0  0  0  0  0
   57.1700   25.6470   46.0310 C   0  0  0  0  0  0  0  0  0  0  0  0
   56.8760   27.0750   45.7430 C   0  0  0  0  0  0  0  0  0  0  0  0
   57.7870   28.0120   45.4350 C   0  0  0  0  0  0  0  0  0  0  0  0
   57.5040   29.4570   45.2870 C   0  0  0  0  0  0  0  0  0  0  0  0
   56.2440   29.9090   44.8790 C   0  0  0  0  0  0  0  0  0  0  0  0
   55.2120   29.0120   44.6320 O   0  0  0  0  0  0  0  0  0  0  0  0
   56.0290   31.2340   44.7070 N   0  0  0  0  0  0  0  0  0  0  0  0
   57.0100   32.1470   44.9130 C   0  0  0  0  0  0  0  0  0  0  0  0
   56.7530   33.3680   44.7280 O   0  0  0  0  0  0  0  0  0  0  0  0
   58.2620   31.7440   45.3050 N   0  0  0  0  0  0  0  0  0  0  0  0
   59.3370   32.7380   45.4920 C   0  0  0  0  0  0  0  0  0  0  0  0
   59.6150   32.9470   46.9830 C   0  0  0  0  0  0  0  0  0  0  0  0
   61.0940   32.9110   47.2590 C   0  0  0  0  0  0  0  0  0  0  0  0
   61.9500   33.8480   46.6560 C   0  0  0  0  0  0  0  0  0  0  0  0
   63.3200   33.8350   46.9390 C   0  0  0  0  0  0  0  0  0  0  0  0
   63.8410   32.8950   47.8340 C   0  0  0  0  0  0  0  0  0  0  0  0
   62.9930   31.9700   48.4490 C   0  0  0  0  0  0  0  0  0  0  0  0
   61.6230   31.9800   48.1670 C   0  0  0  0  0  0  0  0  0  0  0  0
   58.5240   30.4060   45.4690 C   0  0  0  0  0  0  0  0  0  0  0  0
   59.6820   30.0160   45.7880 O   0  0  0  0  0  0  0  0  0  0  0  0
   56.1130   24.6140   45.9120 C   0  0  0  0  0  0  0  0  0  0  0  0
   56.4490   23.2470   45.8720 C   0  0  0  0  0  0  0  0  0  0  0  0
   55.4520   22.2730   45.7720 C   0  0  0  0  0  0  0  0  0  0  0  0
   54.1080   22.6480   45.7180 C   0  0  0  0  0  0  0  0  0  0  0  0
   53.1190   21.6780   45.6200 O   0  0  0  0  0  0  0  0  0  0  0  0
   53.7600   24.0000   45.7640 C   0  0  0  0  0  0  0  0  0  0  0  0
   54.7510   24.9820   45.8620 C   0  0  0  0  0  0  0  0  0  0  0  0
   54.3740   26.3220   45.8910 O   0  0  0  0  0  0  0  0  0  0  0  0
   55.8232   27.3910   45.7858 H   0  0  0  0  0  0  0  0  0  0  0  0
   58.8242   27.6798   45.2807 H   0  0  0  0  0  0  0  0  0  0  0  0
   60.2526   32.3792   44.9991 H   0  0  0  0  0  0  0  0  0  0  0  0
   59.0206   33.6942   45.0499 H   0  0  0  0  0  0  0  0  0  0  0  0
   59.2138   33.9237   47.2916 H   0  0  0  0  0  0  0  0  0  0  0  0
   59.1299   32.1386   47.5497 H   0  0  0  0  0  0  0  0  0  0  0  0
   61.5415   34.5944   45.9589 H   0  0  0  0  0  0  0  0  0  0  0  0
   63.9878   34.5645   46.4574 H   0  0  0  0  0  0  0  0  0  0  0  0
   64.9187   32.8838   48.0539 H   0  0  0  0  0  0  0  0  0  0  0  0
   63.4033   31.2334   49.1555 H   0  0  0  0  0  0  0  0  0  0  0  0
   60.9573   31.2554   48.6587 H   0  0  0  0  0  0  0  0  0  0  0  0
   57.5052   22.9434   45.9199 H   0  0  0  0  0  0  0  0  0  0  0  0
   55.7265   21.2084   45.7357 H   0  0  0  0  0  0  0  0  0  0  0  0
   52.7008   24.2939   45.7229 H   0  0  0  0  0  0  0  0  0  0  0  0
  1  2  2  0
  2  3  1  0
  3  4  2  3
  4  5  1  0
  5  6  2  0
  6  7  1  0
  6  8  1  0
  8  9  1  0
  9 10  2  0
  9 11  1  0
 11 12  1  0
 12 13  1  0
 13 14  1  0
 14 15  2  0
 15 16  1  0
 16 17  2  0
 17 18  1  0
 18 19  2  0
 11 20  1  0
 20 21  2  0
  2 22  1  0
 22 23  2  0
 23 24  1  0
 24 25  2  0
 25 26  1  0
 25 27  1  0
 27 28  2  0
 28 29  1  0
 20  5  1  0
 28 22  1  0
 19 14  1  0
  3 30  1  0
  4 31  1  0
 12 32  1  0
 12 33  1  0
 13 34  1  0
 13 35  1  0
 15 36  1  0
 16 37  1  0
 17 38  1  0
 18 39  1  0
 19 40  1  0
 23 41  1  0
 24 42  1  0
 27 43  1  0
M  CHG  4   7  -1   8  -1  26  -1  29  -1
M  END
>  <UniqueID>  (25) 
24

>  <SMILES>  (25) 
O=C(C=Cc1c([O-])[n-]c(=O)n(CCc2ccccc2)c1=O)c1ccc([O-])cc1[O-]

>  <Energy>  (25) 
62.27999096372342

>  <Genealogy>  (25) 
O=C(C=Cc1c([O-])[n-]c(=O)n(CCc2ccccc2)c1=O)c1ccc([O-])cc1[O-] (protonated)
O=C(C=Cc1c([O-])[n-]c(=O)n(CCc2ccccc2)c1=O)c1ccc([O-])cc1[O-] (3D coordinates assigned)
O=C(C=Cc1c([O-])[n-]c(=O)n(CCc2ccccc2)c1=O)c1ccc([O-])cc1[O-] (optimized conformer: 62.27999096372342 kcal/mol)

>  <smiles>  (25) 
O=C(C=Cc1c(O)[nH]c(=O)n(CCc2ccccc2)c1=O)c1ccc(O)cc1O

>  <score_type>  (25) 
oracle

>  <origin>  (25) 
adg

>  <m_score__min__energy>  (25) 
-19.199999999999999

>  <m_primary>  (25) 
energy

$$$$
25:0
     RDKit          3D

 36 38  0  0  0  0  0  0  0  0999 V2000
   56.9452   33.9353   45.1871 H   0  0  0  0  0  0  0  0  0  0  0  0
   57.9650   33.5980   44.9500 C   0  0  0  0  0  0  0  0  0  0  0  0
   59.1100   34.3890   45.4460 C   0  0  0  0  0  0  0  0  0  0  0  0
   59.3480   35.5020   44.9060 O   0  0  0  0  0  0  0  0  0  0  0  0
   59.9510   33.9300   46.5220 N   0  0  0  0  0  0  0  0  0  0  0  0
   59.3590   33.3540   47.7370 C   0  0  0  0  0  0  0  0  0  0  0  0
   58.2634   33.4361   47.6826 H   0  0  0  0  0  0  0  0  0  0  0  0
   59.6504   32.2961   47.8142 H   0  0  0  0  0  0  0  0  0  0  0  0
   59.8620   34.1040   48.9690 C   0  0  0  0  0  0  0  0  0  0  0  0
   59.6127   35.1693   48.8554 H   0  0  0  0  0  0  0  0  0  0  0  0
   59.3727   33.6556   49.8462 H   0  0  0  0  0  0  0  0  0  0  0  0
   61.6740   33.9530   49.2200 S   0  0  0  0  0  0  0  0  0  0  0  0
   62.1700   33.4490   47.5300 C   0  0  0  0  0  0  0  0  0  0  0  0
   63.2432   33.6527   47.4004 H   0  0  0  0  0  0  0  0  0  0  0  0
   61.9493   32.3771   47.4192 H   0  0  0  0  0  0  0  0  0  0  0  0
   61.3920   34.2020   46.4500 C   0  0  0  0  0  0  0  0  0  0  0  0
   61.5569   35.2817   46.5807 H   0  0  0  0  0  0  0  0  0  0  0  0
   61.7543   33.8609   45.4690 H   0  0  0  0  0  0  0  0  0  0  0  0
   58.1240   32.4850   44.2220 C   0  0  0  0  0  0  0  0  0  0  0  0
   58.7267   32.5511   43.3042 H   0  0  0  0  0  0  0  0  0  0  0  0
   57.5380   31.1680   44.5760 C   0  0  0  0  0  0  0  0  0  0  0  0
   56.2680   30.8290   44.0310 C   0  0  0  0  0  0  0  0  0  0  0  0
   55.7588   31.5392   43.3628 H   0  0  0  0  0  0  0  0  0  0  0  0
   55.6530   29.6000   44.3330 C   0  0  0  0  0  0  0  0  0  0  0  0
   54.6740   29.3339   43.9077 H   0  0  0  0  0  0  0  0  0  0  0  0
   56.3250   28.7340   45.1870 C   0  0  0  0  0  0  0  0  0  0  0  0
   55.9220   27.5250   45.6200 N   0  0  0  0  0  0  0  0  0  0  0  0
   56.8670   27.0610   46.4320 N   0  0  0  0  0  0  0  0  0  0  0  0
   57.8660   27.9720   46.5090 C   0  0  0  0  0  0  0  0  0  0  0  0
   59.0900   27.8160   47.3510 C   0  0  0  0  0  0  0  0  0  0  0  0
   58.8106   27.8516   48.4143 H   0  0  0  0  0  0  0  0  0  0  0  0
   59.5668   26.8498   47.1294 H   0  0  0  0  0  0  0  0  0  0  0  0
   59.7939   28.6317   47.1294 H   0  0  0  0  0  0  0  0  0  0  0  0
   57.5370   29.0500   45.7230 C   0  0  0  0  0  0  0  0  0  0  0  0
   58.1810   30.2560   45.4540 C   0  0  0  0  0  0  0  0  0  0  0  0
   59.1550   30.4936   45.9067 H   0  0  0  0  0  0  0  0  0  0  0  0
  1  2  1  0
  2  3  1  0
  3  4  2  0
  3  5  1  0
  5  6  1  0
  6  7  1  0
  6  8  1  0
  6  9  1  0
  9 10  1  0
  9 11  1  0
  9 12  1  0
 12 13  1  0
 13 14  1  0
 13 15  1  0
 13 16  1  0
 16 17  1  0
 16 18  1  0
  2 19  2  0
 19 20  1  0
 19 21  1  0
 21 22  1  0
 22 23  1  0
 22 24  2  0
 24 25  1  0
 24 26  1  0
 26 27  2  0
 27 28  1  0
 28 29  1  0
 29 30  1  0
 30 31  1  0
 30 32  1  0
 30 33  1  0
 29 34  2  0
 34 35  1  0
 35 36  1  0
 16  5  1  0
 35 21  2  0
 34 26  1  0
M  CHG  1  28  -1
M  END
>  <UniqueID>  (26) 
25

>  <SMILES>  (26) 
Cc1[n-]nc2ccc(/C=C/C(=O)N3CCSCC3)cc12

>  <Energy>  (26) 
79.65418460833263

>  <Genealogy>  (26) 
Cc1[n-]nc2ccc(C=CC(=O)N3CCSCC3)cc12 (protonated)
Cc1[n-]nc2ccc(/C=C/C(=O)N3CCSCC3)cc12 (cis-trans isomerization)
Cc1[n-]nc2ccc(/C=C/C(=O)N3CCSCC3)cc12 (3D coordinates assigned)
Cc1[n-]nc2ccc(/C=C/C(=O)N3CCSCC3)cc12 (nonaromatic ring conformer: 79.65418460833263 kcal/mol)

>  <smiles>  (26) 
Cc1[nH]nc2ccc(C=CC(=O)N3CCSCC3)cc12

>  <score_type>  (26) 
oracle

>  <origin>  (26) 
adg

>  <m_score__min__energy>  (26) 
-9.2799999999999994

>  <m_primary>  (26) 
energy

$$$$
26:0
     RDKit          3D

 45 47  0  0  0  0  0  0  0  0999 V2000
   56.0940   31.9248   44.2435 H   0  0  0  0  0  0  0  0  0  0  0  0
   56.9730   32.1210   44.8750 C   0  0  0  0  0  0  0  0  0  0  0  0
   57.4570   31.1350   45.5580 N   0  0  0  0  0  0  0  0  0  0  0  0
   58.4560   30.1890   45.0960 C   0  0  0  0  0  0  0  0  0  0  0  0
   59.4285   30.4478   45.5400 H   0  0  0  0  0  0  0  0  0  0  0  0
   58.5062   30.2416   43.9984 H   0  0  0  0  0  0  0  0  0  0  0  0
   58.0930   28.7810   45.4920 C   0  0  0  0  0  0  0  0  0  0  0  0
   59.0930   27.8600   45.8420 C   0  0  0  0  0  0  0  0  0  0  0  0
   60.1500   28.1634   45.8140 H   0  0  0  0  0  0  0  0  0  0  0  0
   58.7530   26.5590   46.2260 C   0  0  0  0  0  0  0  0  0  0  0  0
   59.5444   25.8420   46.4896 H   0  0  0  0  0  0  0  0  0  0  0  0
   57.4030   26.1620   46.2770 C   0  0  0  0  0  0  0  0  0  0  0  0
   57.0170   24.8670   46.6540 O   0  0  0  0  0  0  0  0  0  0  0  0
   56.2500   23.9860   45.8390 C   0  0  0  0  0  0  0  0  0  0  0  0
   55.6629   23.3116   46.4797 H   0  0  0  0  0  0  0  0  0  0  0  0
   55.5700   24.5727   45.2039 H   0  0  0  0  0  0  0  0  0  0  0  0
   56.9248   23.3932   45.2039 H   0  0  0  0  0  0  0  0  0  0  0  0
   56.4060   27.0890   45.9440 C   0  0  0  0  0  0  0  0  0  0  0  0
   55.0670   26.7170   45.9940 O   0  0  0  0  0  0  0  0  0  0  0  0
   56.7460   28.3890   45.5590 C   0  0  0  0  0  0  0  0  0  0  0  0
   55.9538   29.1094   45.3070 H   0  0  0  0  0  0  0  0  0  0  0  0
   57.5330   33.5230   44.8860 C   0  0  0  0  0  0  0  0  0  0  0  0
   58.4195   33.5550   44.2355 H   0  0  0  0  0  0  0  0  0  0  0  0
   56.7463   34.2026   44.5264 H   0  0  0  0  0  0  0  0  0  0  0  0
   57.9380   33.9770   46.2950 C   0  0  0  0  0  0  0  0  0  0  0  0
   57.8512   35.0719   46.3552 H   0  0  0  0  0  0  0  0  0  0  0  0
   57.2689   33.4875   47.0179 H   0  0  0  0  0  0  0  0  0  0  0  0
   59.3540   33.5810   46.6240 C   0  0  0  0  0  0  0  0  0  0  0  0
   60.4820   34.1430   46.0390 C   0  0  0  0  0  0  0  0  0  0  0  0
   60.4938   34.8810   45.2234 H   0  0  0  0  0  0  0  0  0  0  0  0
   61.5550   33.6190   46.6530 N   0  0  0  0  0  0  0  0  0  0  0  0
   62.8740   33.8690   46.4530 C   0  0  0  0  0  0  0  0  0  0  0  0
   63.2041   34.5733   45.6752 H   0  0  0  0  0  0  0  0  0  0  0  0
   63.8040   33.2050   47.2650 C   0  0  0  0  0  0  0  0  0  0  0  0
   64.8817   33.3780   47.1283 H   0  0  0  0  0  0  0  0  0  0  0  0
   63.3490   32.3150   48.2570 C   0  0  0  0  0  0  0  0  0  0  0  0
   64.0746   31.7932   48.8983 H   0  0  0  0  0  0  0  0  0  0  0  0
   61.9730   32.0900   48.4320 C   0  0  0  0  0  0  0  0  0  0  0  0
   61.6025   31.4020   49.2062 H   0  0  0  0  0  0  0  0  0  0  0  0
   61.0920   32.7710   47.5880 C   0  0  0  0  0  0  0  0  0  0  0  0
   59.7410   32.7110   47.5970 N   0  0  0  0  0  0  0  0  0  0  0  0
   58.9060   31.9670   48.5420 C   0  0  0  0  0  0  0  0  0  0  0  0
   59.1966   32.2260   49.5708 H   0  0  0  0  0  0  0  0  0  0  0  0
   57.8495   32.2286   48.3826 H   0  0  0  0  0  0  0  0  0  0  0  0
   59.0445   30.8875   48.3826 H   0  0  0  0  0  0  0  0  0  0  0  0
  1  2  1  0
  2  3  2  0
  3  4  1  0
  4  5  1  0
  4  6  1  0
  4  7  1  0
  7  8  2  0
  8  9  1  0
  8 10  1  0
 10 11  1  0
 10 12  2  0
 12 13  1  0
 13 14  1  0
 14 15  1  0
 14 16  1  0
 14 17  1  0
 12 18  1  0
 18 19  1  0
 18 20  2  0
 20 21  1  0
  2 22  1  0
 22 23  1  0
 22 24  1  0
 22 25  1  0
 25 26  1  0
 25 27  1  0
 25 28  1  0
 28 29  2  0
 29 30  1  0
 29 31  1  0
 31 32  1  0
 32 33  1  0
 32 34  2  0
 34 35  1  0
 34 36  1  0
 36 37  1  0
 36 38  2  0
 38 39  1  0
 38 40  1  0
 40 41  2  0
 41 42  1  0
 42 43  1  0
 42 44  1  0
 42 45  1  0
 20  7  1  0
 41 28  1  0
 40 31  1  0
M  CHG  2  19  -1  41   1
M  END
>  <UniqueID>  (27) 
26

>  <SMILES>  (27) 
COc1ccc(C/N=C\CCc2cn3ccccc3[n+]2C)cc1[O-]

>  <Energy>  (27) 
80.91012883448963

>  <Genealogy>  (27) 
COc1ccc(CN=CCCc2cn3ccccc3[n+]2C)cc1[O-] (protonated)
COc1ccc(C/N=C\CCc2cn3ccccc3[n+]2C)cc1[O-] (cis-trans isomerization)
COc1ccc(C/N=C\CCc2cn3ccccc3[n+]2C)cc1[O-] (3D coordinates assigned)
COc1ccc(C/N=C\CCc2cn3ccccc3[n+]2C)cc1[O-] (optimized conformer: 80.91012883448963 kcal/mol)

>  <smiles>  (27) 
COc1ccc(CN=CCCc2cn3ccccc3[n+]2C)cc1O

>  <score_type>  (27) 
oracle

>  <origin>  (27) 
adg

>  <m_score__min__energy>  (27) 
-10.1

>  <m_primary>  (27) 
energy

$$$$
27:0
     RDKit          3D

 45 47  0  0  0  0  0  0  0  0999 V2000
   58.1050   29.2370   52.4670 H   0  0  0  0  0  0  0  0  0  0  0  0
   57.7510   29.4020   51.5320 O   0  0  0  0  0  0  0  0  0  0  0  0
   58.4440   30.1980   50.6210 C   0  0  0  0  0  0  0  0  0  0  0  0
   58.4340   31.5870   50.7730 C   0  0  0  0  0  0  0  0  0  0  0  0
   57.8890   32.0432   51.6125 H   0  0  0  0  0  0  0  0  0  0  0  0
   59.1140   32.3970   49.8620 C   0  0  0  0  0  0  0  0  0  0  0  0
   59.1084   33.4892   49.9929 H   0  0  0  0  0  0  0  0  0  0  0  0
   59.8050   31.8290   48.7800 C   0  0  0  0  0  0  0  0  0  0  0  0
   60.5240   32.6610   47.8590 N   0  0  0  0  0  0  0  0  0  0  0  0
   60.0970   33.9530   47.4070 C   0  0  0  0  0  0  0  0  0  0  0  0
   60.7500   34.9690   47.7630 O   0  0  0  0  0  0  0  0  0  0  0  0
   58.9520   34.1150   46.4500 C   0  0  0  0  0  0  0  0  0  0  0  0
   59.3247   34.0457   45.4174 H   0  0  0  0  0  0  0  0  0  0  0  0
   58.4810   35.0969   46.6049 H   0  0  0  0  0  0  0  0  0  0  0  0
   57.7220   32.7970   46.7430 S   0  0  0  0  0  0  0  0  0  0  0  0
   57.6120   32.3250   45.0210 C   0  0  0  0  0  0  0  0  0  0  0  0
   58.2890   33.0300   44.0760 N   0  0  0  0  0  0  0  0  0  0  0  0
   58.2040   32.6940   42.7630 C   0  0  0  0  0  0  0  0  0  0  0  0
   58.7548   33.2756   42.0091 H   0  0  0  0  0  0  0  0  0  0  0  0
   57.4170   31.6100   42.3710 C   0  0  0  0  0  0  0  0  0  0  0  0
   57.3336   31.3306   41.3104 H   0  0  0  0  0  0  0  0  0  0  0  0
   56.7360   30.8860   43.3570 C   0  0  0  0  0  0  0  0  0  0  0  0
   55.8630   29.7310   42.9850 C   0  0  0  0  0  0  0  0  0  0  0  0
   55.4932   29.2418   43.8982 H   0  0  0  0  0  0  0  0  0  0  0  0
   55.0102   30.0922   42.3915 H   0  0  0  0  0  0  0  0  0  0  0  0
   56.4432   29.0091   42.3915 H   0  0  0  0  0  0  0  0  0  0  0  0
   56.8420   31.2650   44.6590 N   0  0  0  0  0  0  0  0  0  0  0  0
   59.8600   30.4260   48.6490 C   0  0  0  0  0  0  0  0  0  0  0  0
   60.5780   29.8150   47.5080 C   0  0  0  0  0  0  0  0  0  0  0  0
   61.3895   30.3983   47.0485 H   0  0  0  0  0  0  0  0  0  0  0  0
   60.3160   28.6040   46.9900 C   0  0  0  0  0  0  0  0  0  0  0  0
   61.1701   27.9330   46.8161 H   0  0  0  0  0  0  0  0  0  0  0  0
   58.9700   28.0990   46.6340 C   0  0  0  0  0  0  0  0  0  0  0  0
   58.5220   26.8920   47.1930 C   0  0  0  0  0  0  0  0  0  0  0  0
   59.1797   26.3243   47.8677 H   0  0  0  0  0  0  0  0  0  0  0  0
   57.2440   26.4070   46.8970 C   0  0  0  0  0  0  0  0  0  0  0  0
   56.9065   25.4517   47.3253 H   0  0  0  0  0  0  0  0  0  0  0  0
   56.3950   27.1340   46.0580 C   0  0  0  0  0  0  0  0  0  0  0  0
   55.1260   26.6510   45.7650 O   0  0  0  0  0  0  0  0  0  0  0  0
   56.8210   28.3510   45.5190 C   0  0  0  0  0  0  0  0  0  0  0  0
   56.1509   28.9253   44.8624 H   0  0  0  0  0  0  0  0  0  0  0  0
   58.0980   28.8400   45.8130 C   0  0  0  0  0  0  0  0  0  0  0  0
   58.4225   29.8071   45.4014 H   0  0  0  0  0  0  0  0  0  0  0  0
   59.1480   29.6200   49.5580 C   0  0  0  0  0  0  0  0  0  0  0  0
   59.1450   28.5273   49.4318 H   0  0  0  0  0  0  0  0  0  0  0  0
  1  2  1  0
  2  3  1  0
  3  4  2  0
  4  5  1  0
  4  6  1  0
  6  7  1  0
  6  8  2  0
  8  9  1  0
  9 10  1  0
 10 11  2  0
 10 12  1  0
 12 13  1  0
 12 14  1  0
 12 15  1  0
 15 16  1  0
 16 17  2  0
 17 18  1  0
 18 19  1  0
 18 20  2  0
 20 21  1  0
 20 22  1  0
 22 23  1  0
 23 24  1  0
 23 25  1  0
 23 26  1  0
 22 27  2  0
  8 28  1  0
 28 29  1  0
 29 30  1  0
 29 31  2  0
 31 32  1  0
 31 33  1  0
 33 34  2  0
 34 35  1  0
 34 36  1  0
 36 37  1  0
 36 38  2  0
 38 39  1  0
 38 40  1  0
 40 41  1  0
 40 42  2  0
 42 43  1  0
 28 44  2  0
 44 45  1  0
 44  3  1  0
 27 16  1  0
 42 33  1  0
M  CHG  2   9  -1  39  -1
M  END
>  <UniqueID>  (28) 
27

>  <SMILES>  (28) 
Cc1ccnc(SCC(=O)[N-]c2ccc(O)cc2/C=C\c2ccc([O-])cc2)n1

>  <Energy>  (28) 
56.13951750855647

>  <Genealogy>  (28) 
Cc1ccnc(SCC(=O)[N-]c2ccc(O)cc2C=Cc2ccc([O-])cc2)n1 (protonated)
Cc1ccnc(SCC(=O)[N-]c2ccc(O)cc2/C=C\c2ccc([O-])cc2)n1 (cis-trans isomerization)
Cc1ccnc(SCC(=O)[N-]c2ccc(O)cc2/C=C\c2ccc([O-])cc2)n1 (3D coordinates assigned)
Cc1ccnc(SCC(=O)[N-]c2ccc(O)cc2/C=C\c2ccc([O-])cc2)n1 (optimized conformer: 56.13951750855647 kcal/mol)

>  <smiles>  (28) 
Cc1ccnc(SCC(=O)Nc2ccc(O)cc2C=Cc2ccc(O)cc2)n1

>  <score_type>  (28) 
oracle

>  <origin>  (28) 
adg

>  <m_score__min__energy>  (28) 
-12.5

>  <m_primary>  (28) 
energy

$$$$
28:0
     RDKit          3D

 56 60  0  0  0  0  0  0  0  0999 V2000
   50.2670   32.2890   51.1340 H   0  0  0  0  0  0  0  0  0  0  0  0
   50.6640   32.7300   51.9950 N   0  0  0  0  0  0  0  0  0  0  0  0
   51.1120   31.4460   53.0600 S   0  0  0  0  0  0  0  0  0  0  0  0
   50.8750   31.8670   54.4840 O   0  0  0  0  0  0  0  0  0  0  0  0
   50.2690   30.2350   52.7690 O   0  0  0  0  0  0  0  0  0  0  0  0
   52.8120   31.0540   52.8240 C   0  0  0  0  0  0  0  0  0  0  0  0
   53.3430   30.9630   51.5330 C   0  0  0  0  0  0  0  0  0  0  0  0
   52.6998   31.1546   50.6615 H   0  0  0  0  0  0  0  0  0  0  0  0
   54.6860   30.6300   51.3460 C   0  0  0  0  0  0  0  0  0  0  0  0
   55.0900   30.5503   50.3260 H   0  0  0  0  0  0  0  0  0  0  0  0
   55.5290   30.3950   52.4500 C   0  0  0  0  0  0  0  0  0  0  0  0
   54.9830   30.4600   53.7530 C   0  0  0  0  0  0  0  0  0  0  0  0
   53.6290   30.7840   53.9280 C   0  0  0  0  0  0  0  0  0  0  0  0
   53.2056   30.8262   54.9424 H   0  0  0  0  0  0  0  0  0  0  0  0
   55.8020   30.0720   54.9590 C   0  0  0  0  0  0  0  0  0  0  0  0
   55.5634   30.7600   55.7835 H   0  0  0  0  0  0  0  0  0  0  0  0
   55.5495   29.0321   55.2136 H   0  0  0  0  0  0  0  0  0  0  0  0
   57.3070   30.1320   54.6900 C   0  0  0  0  0  0  0  0  0  0  0  0
   57.6206   31.1841   54.6205 H   0  0  0  0  0  0  0  0  0  0  0  0
   57.8359   29.6321   55.5149 H   0  0  0  0  0  0  0  0  0  0  0  0
   57.6460   29.4190   53.3820 C   0  0  0  0  0  0  0  0  0  0  0  0
   58.7288   29.4843   53.1998 H   0  0  0  0  0  0  0  0  0  0  0  0
   57.3470   28.3629   53.4543 H   0  0  0  0  0  0  0  0  0  0  0  0
   56.9250   30.0540   52.2720 N   0  0  0  0  0  0  0  0  0  0  0  0
   57.6420   30.3510   51.0590 C   0  0  0  0  0  0  0  0  0  0  0  0
   57.8460   31.6410   50.6810 N   0  0  0  0  0  0  0  0  0  0  0  0
   58.5550   31.9250   49.5600 C   0  0  0  0  0  0  0  0  0  0  0  0
   58.7130   33.1690   49.2090 N   0  0  0  0  0  0  0  0  0  0  0  0
   58.8020   33.6810   47.8680 C   0  0  0  0  0  0  0  0  0  0  0  0
   57.7970   33.3440   46.9500 C   0  0  0  0  0  0  0  0  0  0  0  0
   56.9786   32.6760   47.2567 H   0  0  0  0  0  0  0  0  0  0  0  0
   57.8280   33.8510   45.6480 C   0  0  0  0  0  0  0  0  0  0  0  0
   57.0455   33.5671   44.9289 H   0  0  0  0  0  0  0  0  0  0  0  0
   58.8520   34.7180   45.2590 C   0  0  0  0  0  0  0  0  0  0  0  0
   58.8790   35.1112   44.2320 H   0  0  0  0  0  0  0  0  0  0  0  0
   59.8420   35.0860   46.1740 C   0  0  0  0  0  0  0  0  0  0  0  0
   60.6443   35.7737   45.8683 H   0  0  0  0  0  0  0  0  0  0  0  0
   59.8140   34.5810   47.4780 C   0  0  0  0  0  0  0  0  0  0  0  0
   60.5841   34.8872   48.2013 H   0  0  0  0  0  0  0  0  0  0  0  0
   59.0550   30.9080   48.8080 N   0  0  0  0  0  0  0  0  0  0  0  0
   58.8650   29.6180   49.1810 C   0  0  0  0  0  0  0  0  0  0  0  0
   59.3560   28.6640   48.4500 N   0  0  0  0  0  0  0  0  0  0  0  0
   58.8180   28.2330   47.1580 C   0  0  0  0  0  0  0  0  0  0  0  0
   59.4274   27.4004   46.7768 H   0  0  0  0  0  0  0  0  0  0  0  0
   57.7744   27.9185   47.3062 H   0  0  0  0  0  0  0  0  0  0  0  0
   58.8360   29.3740   46.1330 C   0  0  0  0  0  0  0  0  0  0  0  0
   59.0639   30.3173   46.6510 H   0  0  0  0  0  0  0  0  0  0  0  0
   59.6031   29.1494   45.3773 H   0  0  0  0  0  0  0  0  0  0  0  0
   57.5140   29.5050   45.4400 C   0  0  0  0  0  0  0  0  0  0  0  0
   57.0430   30.6570   44.9320 N   0  0  0  0  0  0  0  0  0  0  0  0
   55.8190   30.3220   44.4730 C   0  0  0  0  0  0  0  0  0  0  0  0
   55.1451   31.0385   43.9806 H   0  0  0  0  0  0  0  0  0  0  0  0
   55.4980   29.0260   44.6740 N   0  0  0  0  0  0  0  0  0  0  0  0
   56.5740   28.5140   45.2940 C   0  0  0  0  0  0  0  0  0  0  0  0
   56.6843   27.4723   45.6297 H   0  0  0  0  0  0  0  0  0  0  0  0
   58.1600   29.3450   50.3110 N   0  0  0  0  0  0  0  0  0  0  0  0
  1  2  1  0
  2  3  1  0
  3  4  2  0
  3  5  2  0
  3  6  1  0
  6  7  2  0
  7  8  1  0
  7  9  1  0
  9 10  1  0
  9 11  2  0
 11 12  1  0
 12 13  2  0
 13 14  1  0
 12 15  1  0
 15 16  1  0
 15 17  1  0
 15 18  1  0
 18 19  1  0
 18 20  1  0
 18 21  1  0
 21 22  1  0
 21 23  1  0
 21 24  1  0
 24 25  1  0
 25 26  2  0
 26 27  1  0
 27 28  2  3
 28 29  1  0
 29 30  2  0
 30 31  1  0
 30 32  1  0
 32 33  1  0
 32 34  2  0
 34 35  1  0
 34 36  1  0
 36 37  1  0
 36 38  2  0
 38 39  1  0
 27 40  1  0
 40 41  1  0
 41 42  2  0
 42 43  1  0
 43 44  1  0
 43 45  1  0
 43 46  1  0
 46 47  1  0
 46 48  1  0
 46 49  1  0
 49 50  1  0
 50 51  2  0
 51 52  1  0
 51 53  1  0
 53 54  1  0
 54 55  1  0
 41 56  1  0
 13  6  1  0
 56 25  1  0
 24 11  1  0
 38 29  1  0
 54 49  2  0
M  CHG  4   2  -1  40  -1  53  -1  56  -1
M  END
>  <UniqueID>  (29) 
28

>  <SMILES>  (29) 
[NH-]S(=O)(=O)c1ccc2c(c1)CCCN2c1nc(=Nc2ccccc2)[n-]/c(=N/CCc2c[n-]cn2)[n-]1

>  <Energy>  (29) 
97.5560752314018

>  <Genealogy>  (29) 
[NH-]S(=O)(=O)c1ccc2c(c1)CCCN2c1nc(=Nc2ccccc2)[n-]c(=NCCc2c[n-]cn2)[n-]1 (protonated)
[NH-]S(=O)(=O)c1ccc2c(c1)CCCN2c1nc(=Nc2ccccc2)[n-]/c(=N/CCc2c[n-]cn2)[n-]1 (cis-trans isomerization)
[NH-]S(=O)(=O)c1ccc2c(c1)CCCN2c1nc(=Nc2ccccc2)[n-]/c(=N/CCc2c[n-]cn2)[n-]1 (3D coordinates assigned)
[NH-]S(=O)(=O)c1ccc2c(c1)CCCN2c1nc(=Nc2ccccc2)[n-]/c(=N/CCc2c[n-]cn2)[n-]1 (nonaromatic ring conformer: 97.5560752314018 kcal/mol)

>  <smiles>  (29) 
NS(=O)(=O)c1ccc2c(c1)CCCN2c1nc(=Nc2ccccc2)[nH]c(=NCCc2c[nH]cn2)[nH]1

>  <score_type>  (29) 
oracle

>  <origin>  (29) 
adg

>  <m_score__min__energy>  (29) 
-15.9

>  <m_primary>  (29) 
energy

$$$$
29:0
     RDKit          3D

 41 43  0  0  0  0  0  0  0  0999 V2000
   55.5320   28.6540   44.9110 O   0  0  0  0  0  0  0  0  0  0  0  0
   56.7600   28.7700   45.1670 C   0  0  0  0  0  0  0  0  0  0  0  0
   57.4370   27.7240   46.0180 C   0  0  0  0  0  0  0  0  0  0  0  0
   57.5710   26.4610   45.2920 N   0  0  0  0  0  0  0  0  0  0  0  0
   56.5480   25.4530   45.3200 C   0  0  0  0  0  0  0  0  0  0  0  0
   55.4970   25.6470   45.9900 O   0  0  0  0  0  0  0  0  0  0  0  0
   56.6950   24.1860   44.5790 C   0  0  0  0  0  0  0  0  0  0  0  0
   55.9310   23.7450   43.4990 C   0  0  0  0  0  0  0  0  0  0  0  0
   56.3230   22.4890   43.0200 C   0  0  0  0  0  0  0  0  0  0  0  0
   57.3910   21.9330   43.7120 C   0  0  0  0  0  0  0  0  0  0  0  0
   57.8450   23.0060   44.9220 S   0  0  0  0  0  0  0  0  0  0  0  0
   57.4640   29.9060   44.6400 N   0  0  0  0  0  0  0  0  0  0  0  0
   57.5190   31.1000   45.1500 C   0  0  0  0  0  0  0  0  0  0  0  0
   56.6520   32.0970   44.8700 N   0  0  0  0  0  0  0  0  0  0  0  0
   56.9200   33.2220   45.5290 N   0  0  0  0  0  0  0  0  0  0  0  0
   58.0030   33.1240   46.3340 C   0  0  0  0  0  0  0  0  0  0  0  0
   58.5210   34.2590   47.1580 C   0  0  0  0  0  0  0  0  0  0  0  0
   59.8010   35.2050   46.2540 S   0  0  0  0  0  0  0  0  0  0  0  0
   61.0080   33.8400   46.0480 C   0  0  0  0  0  0  0  0  0  0  0  0
   61.9200   33.7170   47.2410 C   0  0  0  0  0  0  0  0  0  0  0  0
   61.4840   34.1210   48.5150 C   0  0  0  0  0  0  0  0  0  0  0  0
   62.3400   34.0230   49.6170 C   0  0  0  0  0  0  0  0  0  0  0  0
   63.6300   33.5110   49.4600 C   0  0  0  0  0  0  0  0  0  0  0  0
   64.0640   33.0890   48.2010 C   0  0  0  0  0  0  0  0  0  0  0  0
   63.2120   33.1830   47.0970 C   0  0  0  0  0  0  0  0  0  0  0  0
   58.6720   31.5750   46.2780 S   0  0  0  0  0  0  0  0  0  0  0  0
   58.4372   28.0835   46.3013 H   0  0  0  0  0  0  0  0  0  0  0  0
   56.8215   27.5493   46.9128 H   0  0  0  0  0  0  0  0  0  0  0  0
   58.4600   26.2920   44.7730 H   0  0  0  0  0  0  0  0  0  0  0  0
   55.1030   24.3259   43.0665 H   0  0  0  0  0  0  0  0  0  0  0  0
   55.8303   21.9886   42.1733 H   0  0  0  0  0  0  0  0  0  0  0  0
   57.8584   20.9592   43.5039 H   0  0  0  0  0  0  0  0  0  0  0  0
   57.6868   34.9315   47.4067 H   0  0  0  0  0  0  0  0  0  0  0  0
   58.9736   33.8470   48.0720 H   0  0  0  0  0  0  0  0  0  0  0  0
   60.4592   32.8953   45.9200 H   0  0  0  0  0  0  0  0  0  0  0  0
   61.6264   34.0597   45.1652 H   0  0  0  0  0  0  0  0  0  0  0  0
   60.4656   34.5158   48.6458 H   0  0  0  0  0  0  0  0  0  0  0  0
   61.9964   34.3499   50.6095 H   0  0  0  0  0  0  0  0  0  0  0  0
   64.3035   33.4401   50.3268 H   0  0  0  0  0  0  0  0  0  0  0  0
   65.0785   32.6818   48.0782 H   0  0  0  0  0  0  0  0  0  0  0  0
   63.5544   32.8373   46.1105 H   0  0  0  0  0  0  0  0  0  0  0  0
  1  2  2  0
  2  3  1  0
  3  4  1  0
  4  5  1  0
  5  6  2  0
  5  7  1  0
  7  8  2  0
  8  9  1  0
  9 10  2  0
 10 11  1  0
  2 12  1  0
 12 13  2  3
 13 14  1  0
 14 15  1  0
 15 16  2  0
 16 17  1  0
 17 18  1  0
 18 19  1  0
 19 20  1  0
 20 21  2  0
 21 22  1  0
 22 23  2  0
 23 24  1  0
 24 25  2  0
 16 26  1  0
 11  7  1  0
 26 13  1  0
 25 20  1  0
  3 27  1  0
  3 28  1  0
  4 29  1  0
  8 30  1  0
  9 31  1  0
 10 32  1  0
 17 33  1  0
 17 34  1  0
 19 35  1  0
 19 36  1  0
 21 37  1  0
 22 38  1  0
 23 39  1  0
 24 40  1  0
 25 41  1  0
M  CHG  1  14  -1
M  END
>  <UniqueID>  (30) 
29

>  <SMILES>  (30) 
O=C(CNC(=O)c1cccs1)N=c1[n-]nc(CSCc2ccccc2)s1

>  <Energy>  (30) 
97.75317497882565

>  <Genealogy>  (30) 
O=C(CNC(=O)c1cccs1)N=c1[n-]nc(CSCc2ccccc2)s1 (protonated)
O=C(CNC(=O)c1cccs1)N=c1[n-]nc(CSCc2ccccc2)s1 (3D coordinates assigned)
O=C(CNC(=O)c1cccs1)N=c1[n-]nc(CSCc2ccccc2)s1 (optimized conformer: 97.75317497882565 kcal/mol)

>  <smiles>  (30) 
O=C(CNC(=O)c1cccs1)N=c1[nH]nc(CSCc2ccccc2)s1

>  <score_type>  (30) 
oracle

>  <origin>  (30) 
adg

>  <m_score__min__energy>  (30) 
-10.050000000000001

>  <m_primary>  (30) 
energy

$$$$
30:0
     RDKit          3D

 65 67  0  0  0  0  0  0  0  0999 V2000
   57.6510   33.4870   46.2110 C   0  0  0  0  0  0  0  0  0  0  0  0
   59.0620   34.1000   46.1520 C   0  0  0  0  0  0  0  0  0  0  0  0
   59.3310   34.9580   47.4030 C   0  0  0  0  0  0  0  0  0  0  0  0
   59.1690   34.9890   44.9020 C   0  0  0  0  0  0  0  0  0  0  0  0
   60.0700   33.0370   46.0300 N   0  0  0  0  0  0  0  0  0  0  0  0
   61.2750   32.8940   46.7980 C   0  0  0  0  0  0  0  0  0  0  0  0
   62.3490   33.4080   46.3950 O   0  0  0  0  0  0  0  0  0  0  0  0
   61.2430   32.0180   48.0280 C   0  0  0  0  0  0  0  0  0  0  0  0
   59.9040   31.7570   48.6350 N   0  0  1  0  0  0  0  0  0  0  0  0
   59.3310   30.3970   48.4130 C   0  0  2  0  0  0  0  0  0  0  0  0
   60.3410   29.2170   48.4080 C   0  0  0  0  0  0  0  0  0  0  0  0
   59.7780   28.2950   47.3960 C   0  0  0  0  0  0  0  0  0  0  0  0
   60.2120   26.9980   47.1130 C   0  0  0  0  0  0  0  0  0  0  0  0
   59.5970   26.2930   46.0680 C   0  0  0  0  0  0  0  0  0  0  0  0
   58.5520   26.8860   45.3310 C   0  0  0  0  0  0  0  0  0  0  0  0
   57.7720   25.9820   43.9850 S   0  0  0  0  0  0  0  0  0  0  0  0
   56.7500   24.8260   44.9970 C   0  0  0  0  0  0  0  0  0  0  0  0
   57.6490   23.7760   45.6810 C   0  0  0  0  0  0  0  0  0  0  0  0
   55.7910   24.0990   44.0410 C   0  0  0  0  0  0  0  0  0  0  0  0
   55.9340   25.6000   46.0090 C   0  0  0  0  0  0  0  0  0  0  0  0
   56.2680   25.5920   47.2250 O   0  0  0  0  0  0  0  0  0  0  0  0
   54.8140   26.3310   45.6220 O   0  0  0  0  0  0  0  0  0  0  0  0
   58.1620   28.2080   45.6080 C   0  0  0  0  0  0  0  0  0  0  0  0
   58.7880   28.8890   46.6540 C   0  0  0  0  0  0  0  0  0  0  0  0
   58.5370   30.2850   47.0840 C   0  0  0  0  0  0  0  0  0  0  0  0
   59.6820   32.3430   50.2830 S   0  0  0  0  0  0  0  0  0  0  0  0
   60.9800   32.2460   51.0390 O   0  0  0  0  0  0  0  0  0  0  0  0
   59.3060   33.7970   50.2200 O   0  0  0  0  0  0  0  0  0  0  0  0
   58.4110   31.5150   51.1990 C   0  0  0  0  0  0  0  0  0  0  0  0
   58.5820   30.1820   51.6130 C   0  0  0  0  0  0  0  0  0  0  0  0
   57.5860   29.5380   52.3550 C   0  0  0  0  0  0  0  0  0  0  0  0
   56.4280   30.2300   52.7200 C   0  0  0  0  0  0  0  0  0  0  0  0
   56.2760   31.5730   52.3620 C   0  0  0  0  0  0  0  0  0  0  0  0
   57.2690   32.2170   51.6160 C   0  0  0  0  0  0  0  0  0  0  0  0
   57.3514   33.3568   47.2614 H   0  0  0  0  0  0  0  0  0  0  0  0
   56.9388   34.1568   45.7069 H   0  0  0  0  0  0  0  0  0  0  0  0
   57.6546   32.5093   45.7069 H   0  0  0  0  0  0  0  0  0  0  0  0
   59.1431   34.3586   48.3060 H   0  0  0  0  0  0  0  0  0  0  0  0
   60.3780   35.2953   47.3981 H   0  0  0  0  0  0  0  0  0  0  0  0
   58.6640   35.8327   47.3981 H   0  0  0  0  0  0  0  0  0  0  0  0
   59.2953   36.0380   45.2079 H   0  0  0  0  0  0  0  0  0  0  0  0
   60.0359   34.6751   44.3019 H   0  0  0  0  0  0  0  0  0  0  0  0
   58.2524   34.8898   44.3019 H   0  0  0  0  0  0  0  0  0  0  0  0
   61.6798   31.0459   47.7555 H   0  0  0  0  0  0  0  0  0  0  0  0
   61.8016   32.5767   48.7934 H   0  0  0  0  0  0  0  0  0  0  0  0
   59.2590   32.3920   48.1050 H   0  0  0  0  0  0  0  0  0  0  0  0
   58.6819   30.2984   49.2956 H   0  0  0  0  0  0  0  0  0  0  0  0
   61.3450   29.5583   48.1156 H   0  0  0  0  0  0  0  0  0  0  0  0
   60.4641   28.7500   49.3963 H   0  0  0  0  0  0  0  0  0  0  0  0
   61.0213   26.5378   47.6989 H   0  0  0  0  0  0  0  0  0  0  0  0
   59.9312   25.2741   45.8228 H   0  0  0  0  0  0  0  0  0  0  0  0
   57.5636   23.8758   46.7731 H   0  0  0  0  0  0  0  0  0  0  0  0
   57.3301   22.7675   45.3789 H   0  0  0  0  0  0  0  0  0  0  0  0
   58.6945   23.9358   45.3789 H   0  0  0  0  0  0  0  0  0  0  0  0
   55.0481   23.5359   44.6250 H   0  0  0  0  0  0  0  0  0  0  0  0
   55.2767   24.8361   43.4069 H   0  0  0  0  0  0  0  0  0  0  0  0
   56.3618   23.4047   43.4069 H   0  0  0  0  0  0  0  0  0  0  0  0
   57.3778   28.6971   45.0115 H   0  0  0  0  0  0  0  0  0  0  0  0
   58.9135   31.0008   46.3384 H   0  0  0  0  0  0  0  0  0  0  0  0
   57.4674   30.5139   47.2008 H   0  0  0  0  0  0  0  0  0  0  0  0
   59.5043   29.6424   51.3519 H   0  0  0  0  0  0  0  0  0  0  0  0
   57.7144   28.4865   52.6512 H   0  0  0  0  0  0  0  0  0  0  0  0
   55.6370   29.7187   53.2883 H   0  0  0  0  0  0  0  0  0  0  0  0
   55.3743   32.1241   52.6674 H   0  0  0  0  0  0  0  0  0  0  0  0
   57.1543   33.2793   51.3547 H   0  0  0  0  0  0  0  0  0  0  0  0
  1  2  1  0
  2  3  1  0
  2  4  1  0
  2  5  1  0
  5  6  1  0
  6  7  2  0
  6  8  1  0
  8  9  1  0
  9 10  1  0
 10 11  1  0
 11 12  1  0
 12 13  2  0
 13 14  1  0
 14 15  2  0
 15 16  1  0
 16 17  1  0
 17 18  1  0
 17 19  1  0
 17 20  1  0
 20 21  2  0
 20 22  1  0
 15 23  1  0
 23 24  2  0
 24 25  1  0
  9 26  1  0
 26 27  2  0
 26 28  2  0
 26 29  1  0
 29 30  2  0
 30 31  1  0
 31 32  2  0
 32 33  1  0
 33 34  2  0
 25 10  1  0
 34 29  1  0
 24 12  1  0
  1 35  1  0
  1 36  1  0
  1 37  1  0
  3 38  1  0
  3 39  1  0
  3 40  1  0
  4 41  1  0
  4 42  1  0
  4 43  1  0
  8 44  1  0
  8 45  1  0
  9 46  1  6
 10 47  1  1
 11 48  1  0
 11 49  1  0
 13 50  1  0
 14 51  1  0
 18 52  1  0
 18 53  1  0
 18 54  1  0
 19 55  1  0
 19 56  1  0
 19 57  1  0
 23 58  1  0
 25 59  1  0
 25 60  1  0
 30 61  1  0
 31 62  1  0
 32 63  1  0
 33 64  1  0
 34 65  1  0
M  CHG  3   5  -1   9   1  22  -1
M  END
>  <UniqueID>  (31) 
30

>  <SMILES>  (31) 
CC(C)(C)[N-]C(=O)C[N@@H+]([C@@H]1Cc2ccc(SC(C)(C)C(=O)[O-])cc2C1)S(=O)(=O)c1ccccc1

>  <Energy>  (31) 
82.19700295287764

>  <Genealogy>  (31) 
CC(C)(C)[N-]C(=O)C[NH+](C1Cc2ccc(SC(C)(C)C(=O)[O-])cc2C1)S(=O)(=O)c1ccccc1 (protonated)
CC(C)(C)[N-]C(=O)C[N@@H+]([C@@H]1Cc2ccc(SC(C)(C)C(=O)[O-])cc2C1)S(=O)(=O)c1ccccc1 (chirality)
CC(C)(C)[N-]C(=O)C[N@@H+]([C@@H]1Cc2ccc(SC(C)(C)C(=O)[O-])cc2C1)S(=O)(=O)c1ccccc1 (3D coordinates assigned)
CC(C)(C)[N-]C(=O)C[N@@H+]([C@@H]1Cc2ccc(SC(C)(C)C(=O)[O-])cc2C1)S(=O)(=O)c1ccccc1 (nonaromatic ring conformer: 82.19700295287764 kcal/mol)

>  <smiles>  (31) 
CC(C)(C)NC(=O)CN(C1Cc2ccc(SC(C)(C)C(=O)O)cc2C1)S(=O)(=O)c1ccccc1

>  <score_type>  (31) 
oracle

>  <origin>  (31) 
adg

>  <m_score__min__energy>  (31) 
-13.33

>  <m_primary>  (31) 
energy

$$$$
31:0
     RDKit          3D

 47 49  0  0  0  0  0  0  0  0999 V2000
   61.3725   33.9323   52.6167 H   0  0  0  0  0  0  0  0  0  0  0  0
   61.6590   33.8260   51.5600 C   0  0  0  0  0  0  0  0  0  0  0  0
   62.9690   34.0850   51.1640 C   0  0  0  0  0  0  0  0  0  0  0  0
   63.7156   34.3967   51.9093 H   0  0  0  0  0  0  0  0  0  0  0  0
   63.3380   33.9500   49.8220 C   0  0  0  0  0  0  0  0  0  0  0  0
   64.3749   34.1563   49.5184 H   0  0  0  0  0  0  0  0  0  0  0  0
   62.3980   33.5540   48.8600 C   0  0  0  0  0  0  0  0  0  0  0  0
   62.9140   33.3750   47.1740 S   0  0  0  0  0  0  0  0  0  0  0  0
   63.7660   34.5510   46.7820 O   0  0  0  0  0  0  0  0  0  0  0  0
   61.7120   33.3280   46.2660 O   0  0  0  0  0  0  0  0  0  0  0  0
   63.8070   31.9030   46.9790 N   0  0  0  0  0  0  0  0  0  0  0  0
   64.5460   32.0870   46.2630 H   0  0  0  0  0  0  0  0  0  0  0  0
   64.3080   31.7180   47.8750 H   0  0  0  0  0  0  0  0  0  0  0  0
   61.0660   33.2930   49.2670 C   0  0  0  0  0  0  0  0  0  0  0  0
   60.0290   32.8860   48.3060 C   0  0  0  0  0  0  0  0  0  0  0  0
   59.2710   33.8620   47.6360 C   0  0  0  0  0  0  0  0  0  0  0  0
   59.4320   34.9277   47.8558 H   0  0  0  0  0  0  0  0  0  0  0  0
   58.3130   33.4820   46.6910 C   0  0  0  0  0  0  0  0  0  0  0  0
   57.7412   34.2508   46.1507 H   0  0  0  0  0  0  0  0  0  0  0  0
   58.0780   32.1210   46.4290 C   0  0  0  0  0  0  0  0  0  0  0  0
   57.1150   31.7000   45.4580 N   0  0  0  0  0  0  0  0  0  0  0  0
   57.3910   30.4240   44.3140 S   0  0  0  0  0  0  0  0  0  0  0  0
   58.8060   30.5060   43.8150 O   0  0  0  0  0  0  0  0  0  0  0  0
   56.4670   30.6100   43.1400 O   0  0  0  0  0  0  0  0  0  0  0  0
   57.1220   28.8410   45.0270 C   0  0  0  0  0  0  0  0  0  0  0  0
   55.9000   28.3220   45.2330 N   0  0  0  0  0  0  0  0  0  0  0  0
   56.1560   27.1190   45.7930 C   0  0  0  0  0  0  0  0  0  0  0  0
   55.2300   26.2870   46.1740 N   0  0  0  0  0  0  0  0  0  0  0  0
   55.2630   24.8650   45.9890 C   0  0  0  0  0  0  0  0  0  0  0  0
   55.9600   24.1620   46.7670 O   0  0  0  0  0  0  0  0  0  0  0  0
   54.4870   24.2550   44.9970 O   0  0  0  0  0  0  0  0  0  0  0  0
   53.0720   24.1430   45.0830 C   0  0  0  0  0  0  0  0  0  0  0  0
   52.7697   24.1191   46.1404 H   0  0  0  0  0  0  0  0  0  0  0  0
   52.6050   25.0070   44.5876 H   0  0  0  0  0  0  0  0  0  0  0  0
   52.7467   23.2163   44.5876 H   0  0  0  0  0  0  0  0  0  0  0  0
   57.4710   26.8450   45.9410 N   0  0  0  0  0  0  0  0  0  0  0  0
   58.0770   27.9470   45.4620 C   0  0  0  0  0  0  0  0  0  0  0  0
   59.5600   28.1140   45.3810 C   0  0  0  0  0  0  0  0  0  0  0  0
   59.9797   28.1613   46.3967 H   0  0  0  0  0  0  0  0  0  0  0  0
   59.9964   27.2593   44.8433 H   0  0  0  0  0  0  0  0  0  0  0  0
   59.7954   29.0443   44.8433 H   0  0  0  0  0  0  0  0  0  0  0  0
   58.7960   31.1480   47.1420 C   0  0  0  0  0  0  0  0  0  0  0  0
   58.5877   30.0814   46.9717 H   0  0  0  0  0  0  0  0  0  0  0  0
   59.7760   31.5260   48.0690 C   0  0  0  0  0  0  0  0  0  0  0  0
   60.3468   30.7574   48.6107 H   0  0  0  0  0  0  0  0  0  0  0  0
   60.7110   33.4320   50.6170 C   0  0  0  0  0  0  0  0  0  0  0  0
   59.6774   33.2287   50.9337 H   0  0  0  0  0  0  0  0  0  0  0  0
  1  2  1  0
  2  3  2  0
  3  4  1  0
  3  5  1  0
  5  6  1  0
  5  7  2  0
  7  8  1  0
  8  9  2  0
  8 10  2  0
  8 11  1  0
 11 12  1  0
 11 13  1  0
  7 14  1  0
 14 15  1  0
 15 16  2  0
 16 17  1  0
 16 18  1  0
 18 19  1  0
 18 20  2  0
 20 21  1  0
 21 22  1  0
 22 23  2  0
 22 24  2  0
 22 25  1  0
 25 26  1  0
 26 27  1  0
 27 28  2  0
 28 29  1  0
 29 30  2  0
 29 31  1  0
 31 32  1  0
 32 33  1  0
 32 34  1  0
 32 35  1  0
 27 36  1  0
 36 37  1  0
 37 38  1  0
 38 39  1  0
 38 40  1  0
 38 41  1  0
 20 42  1  0
 42 43  1  0
 42 44  2  0
 44 45  1  0
 14 46  2  0
 46 47  1  0
 46  2  1  0
 44 15  1  0
 37 25  2  0
M  CHG  3  21  -1  26  -1  36  -1
M  END
>  <UniqueID>  (32) 
31

>  <SMILES>  (32) 
COC(=O)/N=c1/[n-]c(C)c(S(=O)(=O)[N-]c2ccc(-c3ccccc3S(N)(=O)=O)cc2)[n-]1

>  <Energy>  (32) 
88.93736688533956

>  <Genealogy>  (32) 
COC(=O)N=c1[n-]c(C)c(S(=O)(=O)[N-]c2ccc(-c3ccccc3S(N)(=O)=O)cc2)[n-]1 (protonated)
COC(=O)/N=c1/[n-]c(C)c(S(=O)(=O)[N-]c2ccc(-c3ccccc3S(N)(=O)=O)cc2)[n-]1 (cis-trans isomerization)
COC(=O)/N=c1/[n-]c(C)c(S(=O)(=O)[N-]c2ccc(-c3ccccc3S(N)(=O)=O)cc2)[n-]1 (3D coordinates assigned)
COC(=O)/N=c1/[n-]c(C)c(S(=O)(=O)[N-]c2ccc(-c3ccccc3S(N)(=O)=O)cc2)[n-]1 (optimized conformer: 88.93736688533956 kcal/mol)

>  <smiles>  (32) 
COC(=O)N=c1[nH]c(C)c(S(=O)(=O)Nc2ccc(-c3ccccc3S(N)(=O)=O)cc2)[nH]1

>  <score_type>  (32) 
oracle

>  <origin>  (32) 
adg

>  <m_score__min__energy>  (32) 
-13.82

>  <m_primary>  (32) 
energy

$$$$
32:0
     RDKit          3D

 59 63  0  0  0  0  0  0  0  0999 V2000
   61.4160   29.5660   45.2910 O   0  0  0  0  0  0  0  0  0  0  0  0
   60.7230   29.3390   46.3170 C   0  0  0  0  0  0  0  0  0  0  0  0
   61.0950   29.9670   47.5510 N   0  0  0  0  0  0  0  0  0  0  0  0
   61.6680   31.2760   47.6950 C   0  0  0  0  0  0  0  0  0  0  0  0
   62.9250   31.5860   47.1460 C   0  0  0  0  0  0  0  0  0  0  0  0
   63.4720   32.8610   47.3110 C   0  0  0  0  0  0  0  0  0  0  0  0
   62.7780   33.8300   48.0360 C   0  0  0  0  0  0  0  0  0  0  0  0
   61.5390   33.5260   48.6060 C   0  0  0  0  0  0  0  0  0  0  0  0
   60.9760   32.2440   48.4420 C   0  0  0  0  0  0  0  0  0  0  0  0
   59.7340   31.9000   48.9970 O   0  0  0  0  0  0  0  0  0  0  0  0
   58.4990   32.5320   48.6740 C   0  0  0  0  0  0  0  0  0  0  0  0
   58.3720   32.6220   47.1860 C   0  0  0  0  0  0  0  0  0  0  0  0
   58.9110   33.7050   46.4910 C   0  0  0  0  0  0  0  0  0  0  0  0
   58.8160   33.7290   45.0990 C   0  0  0  0  0  0  0  0  0  0  0  0
   59.3000   34.7140   44.4750 O   0  0  0  0  0  0  0  0  0  0  0  0
   58.2090   32.6960   44.4270 N   0  0  0  0  0  0  0  0  0  0  0  0
   58.1120   32.7080   43.0580 C   0  0  0  0  0  0  0  0  0  0  0  0
   57.5000   31.6550   42.3770 C   0  0  0  0  0  0  0  0  0  0  0  0
   56.9830   30.5790   43.0940 C   0  0  0  0  0  0  0  0  0  0  0  0
   57.0800   30.5650   44.4830 C   0  0  0  0  0  0  0  0  0  0  0  0
   57.6970   31.6330   45.1430 C   0  0  0  0  0  0  0  0  0  0  0  0
   57.7900   31.6080   46.4980 N   0  0  0  0  0  0  0  0  0  0  0  0
   59.5810   28.3980   46.2290 C   0  0  0  0  0  0  0  0  0  0  0  0
   59.0050   28.0760   44.9880 C   0  0  0  0  0  0  0  0  0  0  0  0
   57.9310   27.1850   44.9160 C   0  0  0  0  0  0  0  0  0  0  0  0
   57.4150   26.6070   46.0810 C   0  0  0  0  0  0  0  0  0  0  0  0
   56.0490   25.4980   45.9810 S   0  0  0  0  0  0  0  0  0  0  0  0
   56.0280   24.6340   47.2110 O   0  0  0  0  0  0  0  0  0  0  0  0
   54.7630   26.2740   45.9200 O   0  0  0  0  0  0  0  0  0  0  0  0
   56.2180   24.4910   44.5650 N   0  0  0  0  0  0  0  0  0  0  0  0
   55.4540   23.2480   44.7080 C   0  0  0  0  0  0  0  0  0  0  0  0
   56.2250   22.1800   43.9650 C   0  0  0  0  0  0  0  0  0  0  0  0
   57.6690   22.6000   44.1200 C   0  0  0  0  0  0  0  0  0  0  0  0
   57.6200   24.1080   44.3370 C   0  0  0  0  0  0  0  0  0  0  0  0
   57.9680   26.9410   47.3230 C   0  0  0  0  0  0  0  0  0  0  0  0
   59.0410   27.8340   47.3980 C   0  0  0  0  0  0  0  0  0  0  0  0
   63.4804   30.8208   46.5838 H   0  0  0  0  0  0  0  0  0  0  0  0
   64.4503   33.1009   46.8690 H   0  0  0  0  0  0  0  0  0  0  0  0
   63.2070   34.8354   48.1592 H   0  0  0  0  0  0  0  0  0  0  0  0
   61.0005   34.2905   49.1853 H   0  0  0  0  0  0  0  0  0  0  0  0
   57.6650   31.9409   49.0802 H   0  0  0  0  0  0  0  0  0  0  0  0
   58.4728   33.5412   49.1108 H   0  0  0  0  0  0  0  0  0  0  0  0
   59.4030   34.5269   47.0317 H   0  0  0  0  0  0  0  0  0  0  0  0
   58.5213   33.5573   42.4912 H   0  0  0  0  0  0  0  0  0  0  0  0
   57.4263   31.6748   41.2796 H   0  0  0  0  0  0  0  0  0  0  0  0
   56.5001   29.7438   42.5655 H   0  0  0  0  0  0  0  0  0  0  0  0
   56.6740   29.7195   45.0577 H   0  0  0  0  0  0  0  0  0  0  0  0
   59.4023   28.5284   44.0674 H   0  0  0  0  0  0  0  0  0  0  0  0
   57.4895   26.9370   43.9395 H   0  0  0  0  0  0  0  0  0  0  0  0
   55.3613   22.9794   45.7707 H   0  0  0  0  0  0  0  0  0  0  0  0
   54.4373   23.3581   44.3029 H   0  0  0  0  0  0  0  0  0  0  0  0
   56.0548   21.1904   44.4142 H   0  0  0  0  0  0  0  0  0  0  0  0
   55.9196   22.0913   42.9120 H   0  0  0  0  0  0  0  0  0  0  0  0
   58.1264   22.0994   44.9861 H   0  0  0  0  0  0  0  0  0  0  0  0
   58.2748   22.3282   43.2430 H   0  0  0  0  0  0  0  0  0  0  0  0
   58.2278   24.3787   45.2130 H   0  0  0  0  0  0  0  0  0  0  0  0
   58.0205   24.6331   43.4573 H   0  0  0  0  0  0  0  0  0  0  0  0
   57.5569   26.4994   48.2428 H   0  0  0  0  0  0  0  0  0  0  0  0
   59.4655   28.0970   48.3781 H   0  0  0  0  0  0  0  0  0  0  0  0
  1  2  2  0
  2  3  1  0
  3  4  1  0
  4  5  2  0
  5  6  1  0
  6  7  2  0
  7  8  1  0
  8  9  2  0
  9 10  1  0
 10 11  1  0
 11 12  1  0
 12 13  2  0
 13 14  1  0
 14 15  2  0
 14 16  1  0
 16 17  1  0
 17 18  2  0
 18 19  1  0
 19 20  2  0
 20 21  1  0
 21 22  2  0
  2 23  1  0
 23 24  2  0
 24 25  1  0
 25 26  2  0
 26 27  1  0
 27 28  2  0
 27 29  2  0
 27 30  1  0
 30 31  1  0
 31 32  1  0
 32 33  1  0
 33 34  1  0
 26 35  1  0
 35 36  2  0
  9  4  1  0
 22 12  1  0
 36 23  1  0
 21 16  1  0
 34 30  1  0
  5 37  1  0
  6 38  1  0
  7 39  1  0
  8 40  1  0
 11 41  1  0
 11 42  1  0
 13 43  1  0
 17 44  1  0
 18 45  1  0
 19 46  1  0
 20 47  1  0
 24 48  1  0
 25 49  1  0
 31 50  1  0
 31 51  1  0
 32 52  1  0
 32 53  1  0
 33 54  1  0
 33 55  1  0
 34 56  1  0
 34 57  1  0
 35 58  1  0
 36 59  1  0
M  CHG  1   3  -1
M  END
>  <UniqueID>  (33) 
32

>  <SMILES>  (33) 
O=C([N-]c1ccccc1OCc1cc(=O)n2ccccc2n1)c1ccc(S(=O)(=O)N2CCCC2)cc1

>  <Energy>  (33) 
76.57017110501438

>  <Genealogy>  (33) 
O=C([N-]c1ccccc1OCc1cc(=O)n2ccccc2n1)c1ccc(S(=O)(=O)N2CCCC2)cc1 (protonated)
O=C([N-]c1ccccc1OCc1cc(=O)n2ccccc2n1)c1ccc(S(=O)(=O)N2CCCC2)cc1 (3D coordinates assigned)
O=C([N-]c1ccccc1OCc1cc(=O)n2ccccc2n1)c1ccc(S(=O)(=O)N2CCCC2)cc1 (nonaromatic ring conformer: 76.57017110501438 kcal/mol)

>  <smiles>  (33) 
O=C(Nc1ccccc1OCc1cc(=O)n2ccccc2n1)c1ccc(S(=O)(=O)N2CCCC2)cc1

>  <score_type>  (33) 
oracle

>  <origin>  (33) 
adg

>  <m_score__min__energy>  (33) 
-11.24

>  <m_primary>  (33) 
energy

$$$$
33:0
     RDKit          3D

 45 47  0  0  0  0  0  0  0  0999 V2000
   63.7280   31.5680   50.2280 C   0  0  0  0  0  0  0  0  0  0  0  0
   63.2570   32.2200   48.9650 C   0  0  0  0  0  0  0  0  0  0  0  0
   64.1230   33.1380   48.3800 C   0  0  0  0  0  0  0  0  0  0  0  0
   63.7860   33.7970   47.2130 C   0  0  0  0  0  0  0  0  0  0  0  0
   62.5510   33.4890   46.6710 C   0  0  0  0  0  0  0  0  0  0  0  0
   61.6880   32.5790   47.2470 C   0  0  0  0  0  0  0  0  0  0  0  0
   62.0270   31.9220   48.4150 C   0  0  0  0  0  0  0  0  0  0  0  0
   61.1250   30.9560   49.0410 C   0  0  0  0  0  0  0  0  0  0  0  0
   60.1940   30.3170   48.0860 C   0  0  0  0  0  0  0  0  0  0  0  0
   58.9440   30.3570   48.2150 O   0  0  0  0  0  0  0  0  0  0  0  0
   60.7340   29.6200   46.9650 N   0  0  0  0  0  0  0  0  0  0  0  0
   59.7720   29.0260   46.0800 C   0  0  0  0  0  0  0  0  0  0  0  0
   59.8040   27.6790   45.7670 C   0  0  0  0  0  0  0  0  0  0  0  0
   58.8520   27.1690   44.9110 C   0  0  0  0  0  0  0  0  0  0  0  0
   57.8960   28.0300   44.3950 C   0  0  0  0  0  0  0  0  0  0  0  0
   57.8540   29.3730   44.7000 C   0  0  0  0  0  0  0  0  0  0  0  0
   56.6050   30.3370   43.9820 S   0  0  0  0  0  0  0  0  0  0  0  0
   56.8700   30.6610   42.5410 O   0  0  0  0  0  0  0  0  0  0  0  0
   55.3200   29.5220   43.9790 O   0  0  0  0  0  0  0  0  0  0  0  0
   56.3310   31.7640   44.8710 N   0  0  0  0  0  0  0  0  0  0  0  0
   57.2000   32.5700   45.3270 C   0  0  0  0  0  0  0  0  0  0  0  0
   57.5370   33.6250   44.5410 N   0  0  0  0  0  0  0  0  0  0  0  0
   58.4320   34.5400   44.9010 C   0  0  0  0  0  0  0  0  0  0  0  0
   59.0790   34.4610   46.1200 C   0  0  0  0  0  0  0  0  0  0  0  0
   58.7300   33.3760   46.9220 C   0  0  0  0  0  0  0  0  0  0  0  0
   57.8180   32.4800   46.5080 N   0  0  0  0  0  0  0  0  0  0  0  0
   58.8160   29.8600   45.5570 C   0  0  0  0  0  0  0  0  0  0  0  0
   63.3311   32.1174   51.0944 H   0  0  0  0  0  0  0  0  0  0  0  0
   63.3714   30.5279   50.2587 H   0  0  0  0  0  0  0  0  0  0  0  0
   64.8275   31.5797   50.2587 H   0  0  0  0  0  0  0  0  0  0  0  0
   65.0937   33.3431   48.8549 H   0  0  0  0  0  0  0  0  0  0  0  0
   64.4619   34.5256   46.7415 H   0  0  0  0  0  0  0  0  0  0  0  0
   62.2438   33.9907   45.7415 H   0  0  0  0  0  0  0  0  0  0  0  0
   60.7180   32.3739   46.7706 H   0  0  0  0  0  0  0  0  0  0  0  0
   61.7309   30.1703   49.5160 H   0  0  0  0  0  0  0  0  0  0  0  0
   60.5138   31.5079   49.7703 H   0  0  0  0  0  0  0  0  0  0  0  0
   61.7630   29.5400   46.7840 H   0  0  0  0  0  0  0  0  0  0  0  0
   60.5778   27.0247   46.1950 H   0  0  0  0  0  0  0  0  0  0  0  0
   58.8508   26.1021   44.6431 H   0  0  0  0  0  0  0  0  0  0  0  0
   57.1367   27.6227   43.7112 H   0  0  0  0  0  0  0  0  0  0  0  0
   58.6609   35.3720   44.2188 H   0  0  0  0  0  0  0  0  0  0  0  0
   59.8223   35.2073   46.4370 H   0  0  0  0  0  0  0  0  0  0  0  0
   59.2067   33.2516   47.9055 H   0  0  0  0  0  0  0  0  0  0  0  0
   57.5780   31.6800   47.1280 H   0  0  0  0  0  0  0  0  0  0  0  0
   58.8180   30.9270   45.8246 H   0  0  0  0  0  0  0  0  0  0  0  0
  1  2  1  0
  2  3  2  0
  3  4  1  0
  4  5  2  0
  5  6  1  0
  6  7  2  0
  7  8  1  0
  8  9  1  0
  9 10  2  0
  9 11  1  0
 11 12  1  0
 12 13  2  0
 13 14  1  0
 14 15  2  0
 15 16  1  0
 16 17  1  0
 17 18  2  0
 17 19  2  0
 17 20  1  0
 20 21  2  3
 21 22  1  0
 22 23  2  0
 23 24  1  0
 24 25  2  0
 25 26  1  0
 16 27  2  0
  7  2  1  0
 27 12  1  0
 26 21  1  0
  1 28  1  0
  1 29  1  0
  1 30  1  0
  3 31  1  0
  4 32  1  0
  5 33  1  0
  6 34  1  0
  8 35  1  0
  8 36  1  0
 11 37  1  0
 13 38  1  0
 14 39  1  0
 15 40  1  0
 23 41  1  0
 24 42  1  0
 25 43  1  0
 26 44  1  0
 27 45  1  0
M  END
>  <smiles>  (34) 
Cc1ccccc1CC(=O)Nc1cccc(S(=O)(=O)N=c2nccc[nH]2)c1

>  <score_type>  (34) 
oracle

>  <origin>  (34) 
adg

>  <m_score__min__energy>  (34) 
-8.9700000000000006

>  <m_primary>  (34) 
energy

$$$$
34:0
     RDKit          3D

 48 51  0  0  0  0  0  0  0  0999 V2000
   63.6820   34.4570   51.4490 O   0  0  0  0  0  0  0  0  0  0  0  0
   62.7750   33.9450   50.7400 C   0  0  0  0  0  0  0  0  0  0  0  0
   61.4330   33.9310   51.2490 N   0  0  0  0  0  0  0  0  0  0  0  0
   60.3250   33.2020   50.6980 C   0  0  0  0  0  0  0  0  0  0  0  0
   59.5630   32.3930   51.5450 C   0  0  0  0  0  0  0  0  0  0  0  0
   58.4790   31.6710   51.0420 C   0  0  0  0  0  0  0  0  0  0  0  0
   58.1590   31.7380   49.6840 C   0  0  0  0  0  0  0  0  0  0  0  0
   58.9360   32.5160   48.8080 C   0  0  0  0  0  0  0  0  0  0  0  0
   58.6170   32.5990   47.3620 C   0  0  0  0  0  0  0  0  0  0  0  0
   58.6440   33.7240   46.7920 O   0  0  0  0  0  0  0  0  0  0  0  0
   58.2720   31.4220   46.6100 N   0  0  0  0  0  0  0  0  0  0  0  0
   57.9290   31.4580   45.2140 C   0  0  0  0  0  0  0  0  0  0  0  0
   58.4710   32.4530   44.3820 C   0  0  0  0  0  0  0  0  0  0  0  0
   58.1170   32.5170   43.0310 C   0  0  0  0  0  0  0  0  0  0  0  0
   57.2170   31.5910   42.5000 C   0  0  0  0  0  0  0  0  0  0  0  0
   56.6820   30.5900   43.3130 C   0  0  0  0  0  0  0  0  0  0  0  0
   57.0530   30.4960   44.6610 C   0  0  0  0  0  0  0  0  0  0  0  0
   56.4620   29.4690   45.4650 N   0  0  0  0  0  0  0  0  0  0  0  0
   57.1480   28.3250   45.9930 C   0  0  0  0  0  0  0  0  0  0  0  0
   58.2780   28.4920   46.5220 O   0  0  0  0  0  0  0  0  0  0  0  0
   56.5580   26.9710   45.9670 C   0  0  0  0  0  0  0  0  0  0  0  0
   57.2630   25.7870   45.9290 C   0  0  0  0  0  0  0  0  0  0  0  0
   56.3960   24.7580   45.9230 N   0  0  0  0  0  0  0  0  0  0  0  0
   55.1920   25.3620   45.9620 C   0  0  0  0  0  0  0  0  0  0  0  0
   54.1100   24.7210   45.9710 O   0  0  0  0  0  0  0  0  0  0  0  0
   55.2390   26.7090   45.9930 N   0  0  0  0  0  0  0  0  0  0  0  0
   60.0220   33.2450   49.3260 C   0  0  0  0  0  0  0  0  0  0  0  0
   63.1120   33.4260   49.3930 C   0  0  0  0  0  0  0  0  0  0  0  0
   63.4160   32.0660   49.1980 C   0  0  0  0  0  0  0  0  0  0  0  0
   63.7360   31.5890   47.9230 C   0  0  0  0  0  0  0  0  0  0  0  0
   63.7460   32.4590   46.8310 C   0  0  0  0  0  0  0  0  0  0  0  0
   63.4290   33.8070   47.0100 C   0  0  0  0  0  0  0  0  0  0  0  0
   63.1080   34.2900   48.2830 C   0  0  0  0  0  0  0  0  0  0  0  0
   59.8183   32.3247   52.6128 H   0  0  0  0  0  0  0  0  0  0  0  0
   57.8750   31.0473   51.7174 H   0  0  0  0  0  0  0  0  0  0  0  0
   57.2941   31.1788   49.2978 H   0  0  0  0  0  0  0  0  0  0  0  0
   58.2700   30.4980   47.0900 H   0  0  0  0  0  0  0  0  0  0  0  0
   59.1784   33.1862   44.7967 H   0  0  0  0  0  0  0  0  0  0  0  0
   58.5477   33.2972   42.3861 H   0  0  0  0  0  0  0  0  0  0  0  0
   56.9292   31.6502   41.4400 H   0  0  0  0  0  0  0  0  0  0  0  0
   55.9643   29.8702   42.8925 H   0  0  0  0  0  0  0  0  0  0  0  0
   58.3592   25.6977   45.9071 H   0  0  0  0  0  0  0  0  0  0  0  0
   60.6402   33.8547   48.6507 H   0  0  0  0  0  0  0  0  0  0  0  0
   63.4019   31.3743   50.0532 H   0  0  0  0  0  0  0  0  0  0  0  0
   63.9804   30.5261   47.7801 H   0  0  0  0  0  0  0  0  0  0  0  0
   64.0035   32.0826   45.8300 H   0  0  0  0  0  0  0  0  0  0  0  0
   63.4317   34.4906   46.1482 H   0  0  0  0  0  0  0  0  0  0  0  0
   62.8511   35.3512   48.4167 H   0  0  0  0  0  0  0  0  0  0  0  0
  1  2  2  0
  2  3  1  0
  3  4  1  0
  4  5  2  0
  5  6  1  0
  6  7  2  0
  7  8  1  0
  8  9  1  0
  9 10  2  0
  9 11  1  0
 11 12  1  0
 12 13  2  0
 13 14  1  0
 14 15  2  0
 15 16  1  0
 16 17  2  0
 17 18  1  0
 18 19  1  0
 19 20  2  0
 19 21  1  0
 21 22  2  0
 22 23  1  0
 23 24  1  0
 24 25  2  0
 24 26  1  0
  8 27  2  0
  2 28  1  0
 28 29  2  0
 29 30  1  0
 30 31  2  0
 31 32  1  0
 32 33  2  0
 27  4  1  0
 33 28  1  0
 17 12  1  0
 26 21  1  0
  5 34  1  0
  6 35  1  0
  7 36  1  0
 11 37  1  0
 13 38  1  0
 14 39  1  0
 15 40  1  0
 16 41  1  0
 22 42  1  0
 27 43  1  0
 29 44  1  0
 30 45  1  0
 31 46  1  0
 32 47  1  0
 33 48  1  0
M  CHG  4   3  -1  18  -1  23  -1  26  -1
M  END
>  <UniqueID>  (35) 
33

>  <SMILES>  (35) 
O=C([N-]c1cccc(C(=O)Nc2ccccc2[N-]C(=O)c2c[n-]c(=O)[n-]2)c1)c1ccccc1

>  <Energy>  (35) 
102.5638064232402

>  <Genealogy>  (35) 
O=C([N-]c1cccc(C(=O)Nc2ccccc2[N-]C(=O)c2c[n-]c(=O)[n-]2)c1)c1ccccc1 (protonated)
O=C([N-]c1cccc(C(=O)Nc2ccccc2[N-]C(=O)c2c[n-]c(=O)[n-]2)c1)c1ccccc1 (3D coordinates assigned)
O=C([N-]c1cccc(C(=O)Nc2ccccc2[N-]C(=O)c2c[n-]c(=O)[n-]2)c1)c1ccccc1 (optimized conformer: 102.5638064232402 kcal/mol)

>  <smiles>  (35) 
O=C(Nc1cccc(C(=O)Nc2ccccc2NC(=O)c2c[nH]c(=O)[nH]2)c1)c1ccccc1

>  <score_type>  (35) 
oracle

>  <origin>  (35) 
adg

>  <m_score__min__energy>  (35) 
-16.940000000000001

>  <m_primary>  (35) 
energy

$$$$
35:0
     RDKit          3D

 43 45  0  0  0  0  0  0  0  0999 V2000
   60.4500   26.9700   46.8240 O   0  0  0  0  0  0  0  0  0  0  0  0
   59.3860   27.6390   46.7420 C   0  0  0  0  0  0  0  0  0  0  0  0
   58.4120   27.3370   45.6360 C   0  0  0  0  0  0  0  0  0  0  0  0
   57.6650   28.5930   45.2460 C   0  0  0  0  0  0  0  0  0  0  0  0
   56.2600   28.6260   45.2540 C   0  0  0  0  0  0  0  0  0  0  0  0
   55.5220   27.5130   45.6420 O   0  0  0  0  0  0  0  0  0  0  0  0
   55.6030   29.7530   44.8770 N   0  0  0  0  0  0  0  0  0  0  0  0
   56.2580   30.8710   44.4750 C   0  0  0  0  0  0  0  0  0  0  0  0
   57.6610   30.8910   44.4320 C   0  0  0  0  0  0  0  0  0  0  0  0
   58.3940   32.0490   44.0020 N   0  0  0  0  0  0  0  0  0  0  0  0
   58.3660   33.5990   44.7740 S   0  0  0  0  0  0  0  0  0  0  0  0
   56.9980   34.2040   44.6290 O   0  0  0  0  0  0  0  0  0  0  0  0
   59.3630   34.5000   44.1040 O   0  0  0  0  0  0  0  0  0  0  0  0
   58.8040   33.4270   46.4710 C   0  0  0  0  0  0  0  0  0  0  0  0
   59.8060   34.2280   47.0410 C   0  0  0  0  0  0  0  0  0  0  0  0
   60.1300   34.0880   48.3940 C   0  0  0  0  0  0  0  0  0  0  0  0
   59.4600   33.1470   49.1830 C   0  0  0  0  0  0  0  0  0  0  0  0
   58.4660   32.3430   48.6170 C   0  0  0  0  0  0  0  0  0  0  0  0
   58.1360   32.4830   47.2660 C   0  0  0  0  0  0  0  0  0  0  0  0
   58.3630   29.7410   44.8200 C   0  0  0  0  0  0  0  0  0  0  0  0
   59.6250   29.7400   44.7820 O   0  0  0  0  0  0  0  0  0  0  0  0
   59.1920   28.7430   47.6350 N   0  0  0  0  0  0  0  0  0  0  0  0
   60.2080   29.6590   48.0650 C   0  0  0  0  0  0  0  0  0  0  0  0
   60.5760   29.7600   49.4170 C   0  0  0  0  0  0  0  0  0  0  0  0
   61.6060   30.6220   49.8050 C   0  0  0  0  0  0  0  0  0  0  0  0
   62.2920   31.3900   48.8460 C   0  0  0  0  0  0  0  0  0  0  0  0
   63.3930   32.2920   49.2470 C   0  0  0  0  0  0  0  0  0  0  0  0
   63.3510   33.5190   48.9640 O   0  0  0  0  0  0  0  0  0  0  0  0
   64.4880   31.8000   49.9470 O   0  0  0  0  0  0  0  0  0  0  0  0
   61.9290   31.2740   47.4940 C   0  0  0  0  0  0  0  0  0  0  0  0
   60.9030   30.4060   47.1080 C   0  0  0  0  0  0  0  0  0  0  0  0
   58.9601   26.9534   44.7628 H   0  0  0  0  0  0  0  0  0  0  0  0
   57.6916   26.5828   45.9857 H   0  0  0  0  0  0  0  0  0  0  0  0
   55.6878   31.7648   44.1818 H   0  0  0  0  0  0  0  0  0  0  0  0
   60.3369   34.9667   46.4226 H   0  0  0  0  0  0  0  0  0  0  0  0
   60.9134   34.7191   48.8389 H   0  0  0  0  0  0  0  0  0  0  0  0
   59.7149   33.0397   50.2477 H   0  0  0  0  0  0  0  0  0  0  0  0
   57.9429   31.5991   49.2359 H   0  0  0  0  0  0  0  0  0  0  0  0
   57.3507   31.8516   46.8248 H   0  0  0  0  0  0  0  0  0  0  0  0
   60.0514   29.1582   50.1737 H   0  0  0  0  0  0  0  0  0  0  0  0
   61.8820   30.7004   50.8669 H   0  0  0  0  0  0  0  0  0  0  0  0
   62.4554   31.8700   46.7339 H   0  0  0  0  0  0  0  0  0  0  0  0
   60.6405   30.3098   46.0441 H   0  0  0  0  0  0  0  0  0  0  0  0
  1  2  2  0
  2  3  1  0
  3  4  1  0
  4  5  2  0
  5  6  1  0
  5  7  1  0
  7  8  1  0
  8  9  2  0
  9 10  1  0
 10 11  1  0
 11 12  2  0
 11 13  2  0
 11 14  1  0
 14 15  2  0
 15 16  1  0
 16 17  2  0
 17 18  1  0
 18 19  2  0
  9 20  1  0
 20 21  2  0
  2 22  1  0
 22 23  1  0
 23 24  2  0
 24 25  1  0
 25 26  2  0
 26 27  1  0
 27 28  2  0
 27 29  1  0
 26 30  1  0
 30 31  2  0
 20  4  1  0
 31 23  1  0
 19 14  1  0
  3 32  1  0
  3 33  1  0
  8 34  1  0
 15 35  1  0
 16 36  1  0
 17 37  1  0
 18 38  1  0
 19 39  1  0
 24 40  1  0
 25 41  1  0
 30 42  1  0
 31 43  1  0
M  CHG  5   6  -1   7  -1  10  -1  22  -1  29  -1
M  END
>  <UniqueID>  (36) 
34

>  <SMILES>  (36) 
O=C(Cc1c([O-])[n-]cc([N-]S(=O)(=O)c2ccccc2)c1=O)[N-]c1ccc(C(=O)[O-])cc1

>  <Energy>  (36) 
57.14462271335626

>  <Genealogy>  (36) 
O=C(Cc1c([O-])[n-]cc([N-]S(=O)(=O)c2ccccc2)c1=O)[N-]c1ccc(C(=O)[O-])cc1 (protonated)
O=C(Cc1c([O-])[n-]cc([N-]S(=O)(=O)c2ccccc2)c1=O)[N-]c1ccc(C(=O)[O-])cc1 (3D coordinates assigned)
O=C(Cc1c([O-])[n-]cc([N-]S(=O)(=O)c2ccccc2)c1=O)[N-]c1ccc(C(=O)[O-])cc1 (optimized conformer: 57.14462271335626 kcal/mol)

>  <smiles>  (36) 
O=C(Cc1c(O)[nH]cc(NS(=O)(=O)c2ccccc2)c1=O)Nc1ccc(C(=O)O)cc1

>  <score_type>  (36) 
oracle

>  <origin>  (36) 
adg

>  <m_score__min__energy>  (36) 
-17.77

>  <m_primary>  (36) 
energy

$$$$
36:0
     RDKit          3D

 27 28  0  0  0  0  0  0  0  0999 V2000
   60.2030   33.2730   46.3220 N   0  0  0  0  0  0  0  0  0  0  0  0
   58.7380   33.9150   45.6670 S   0  0  0  0  0  0  0  0  0  0  0  0
   57.7910   34.2460   46.7850 O   0  0  0  0  0  0  0  0  0  0  0  0
   59.0380   35.1710   44.8980 O   0  0  0  0  0  0  0  0  0  0  0  0
   58.0000   32.7330   44.5970 C   0  0  0  0  0  0  0  0  0  0  0  0
   58.2160   32.7140   43.2250 C   0  0  0  0  0  0  0  0  0  0  0  0
   57.3160   31.4500   42.5750 S   0  0  0  0  0  0  0  0  0  0  0  0
   56.6480   30.9270   44.0280 C   0  0  0  0  0  0  0  0  0  0  0  0
   55.7200   29.8010   44.1800 C   0  0  0  0  0  0  0  0  0  0  0  0
   54.7620   29.6660   43.3730 O   0  0  0  0  0  0  0  0  0  0  0  0
   55.9040   28.8610   45.2450 N   0  0  0  0  0  0  0  0  0  0  0  0
   56.9650   27.8600   45.2640 C   0  0  0  0  0  0  0  0  0  0  0  0
   58.2850   28.5100   45.5320 C   0  0  0  0  0  0  0  0  0  0  0  0
   59.3800   28.5070   44.6770 C   0  0  0  0  0  0  0  0  0  0  0  0
   60.4940   29.1650   45.2090 C   0  0  0  0  0  0  0  0  0  0  0  0
   60.2830   29.6810   46.4820 C   0  0  0  0  0  0  0  0  0  0  0  0
   58.7080   29.3160   46.9460 S   0  0  0  0  0  0  0  0  0  0  0  0
   57.1230   31.7400   45.0510 C   0  0  0  0  0  0  0  0  0  0  0  0
   60.0680   32.2410   46.4160 H   0  0  0  0  0  0  0  0  0  0  0  0
   60.9470   33.4150   45.6030 H   0  0  0  0  0  0  0  0  0  0  0  0
   58.8620   33.4041   42.6624 H   0  0  0  0  0  0  0  0  0  0  0  0
   56.7556   27.1238   46.0541 H   0  0  0  0  0  0  0  0  0  0  0  0
   57.0038   27.3601   44.2849 H   0  0  0  0  0  0  0  0  0  0  0  0
   59.3719   28.0354   43.6832 H   0  0  0  0  0  0  0  0  0  0  0  0
   61.4478   29.2647   44.6701 H   0  0  0  0  0  0  0  0  0  0  0  0
   61.0199   30.2336   47.0833 H   0  0  0  0  0  0  0  0  0  0  0  0
   56.8396   31.6162   46.1066 H   0  0  0  0  0  0  0  0  0  0  0  0
  1  2  1  0
  2  3  2  0
  2  4  2  0
  2  5  1  0
  5  6  2  0
  6  7  1  0
  7  8  1  0
  8  9  1  0
  9 10  2  0
  9 11  1  0
 11 12  1  0
 12 13  1  0
 13 14  2  0
 14 15  1  0
 15 16  2  0
 16 17  1  0
  8 18  2  0
 18  5  1  0
 17 13  1  0
  1 19  1  0
  1 20  1  0
  6 21  1  0
 12 22  1  0
 12 23  1  0
 14 24  1  0
 15 25  1  0
 16 26  1  0
 18 27  1  0
M  CHG  1  11  -1
M  END
>  <UniqueID>  (37) 
35

>  <SMILES>  (37) 
NS(=O)(=O)c1csc(C(=O)[N-]Cc2cccs2)c1

>  <Energy>  (37) 
73.1853100282588

>  <Genealogy>  (37) 
NS(=O)(=O)c1csc(C(=O)[N-]Cc2cccs2)c1 (protonated)
NS(=O)(=O)c1csc(C(=O)[N-]Cc2cccs2)c1 (3D coordinates assigned)
NS(=O)(=O)c1csc(C(=O)[N-]Cc2cccs2)c1 (optimized conformer: 73.1853100282588 kcal/mol)

>  <smiles>  (37) 
NS(=O)(=O)c1csc(C(=O)NCc2cccs2)c1

>  <score_type>  (37) 
oracle

>  <origin>  (37) 
adg

>  <m_score__min__energy>  (37) 
-8.9700000000000006

>  <m_primary>  (37) 
energy

$$$$
37:0
     RDKit          3D

 35 37  0  0  0  0  0  0  0  0999 V2000
   54.7180   27.0840   45.9810 H   0  0  0  0  0  0  0  0  0  0  0  0
   54.6040   26.1010   45.7700 O   0  0  0  0  0  0  0  0  0  0  0  0
   55.6830   25.2150   45.7340 C   0  0  0  0  0  0  0  0  0  0  0  0
   55.4720   23.9090   45.2850 C   0  0  0  0  0  0  0  0  0  0  0  0
   54.4682   23.5948   44.9631 H   0  0  0  0  0  0  0  0  0  0  0  0
   56.5310   23.0030   45.2440 C   0  0  0  0  0  0  0  0  0  0  0  0
   56.3683   21.9718   44.8972 H   0  0  0  0  0  0  0  0  0  0  0  0
   57.7990   23.4200   45.6480 C   0  0  0  0  0  0  0  0  0  0  0  0
   58.6454   22.7184   45.6120 H   0  0  0  0  0  0  0  0  0  0  0  0
   57.9900   24.6920   46.0860 N   0  0  0  0  0  0  0  0  0  0  0  0
   56.9730   25.5970   46.1520 C   0  0  0  0  0  0  0  0  0  0  0  0
   57.1760   26.8080   46.5880 N   0  0  0  0  0  0  0  0  0  0  0  0
   58.3810   27.5900   46.5060 C   0  0  0  0  0  0  0  0  0  0  0  0
   59.4120   27.5050   47.7730 S   0  0  0  0  0  0  0  0  0  0  0  0
   58.9130   28.1260   45.1930 C   0  0  0  0  0  0  0  0  0  0  0  0
   58.9820   27.2959   44.4745 H   0  0  0  0  0  0  0  0  0  0  0  0
   59.8989   28.5732   45.3880 H   0  0  0  0  0  0  0  0  0  0  0  0
   58.0120   29.2190   44.5990 C   0  0  0  0  0  0  0  0  0  0  0  0
   56.9606   28.9197   44.7211 H   0  0  0  0  0  0  0  0  0  0  0  0
   58.2679   29.3341   43.5354 H   0  0  0  0  0  0  0  0  0  0  0  0
   58.2230   30.5390   45.2760 C   0  0  0  0  0  0  0  0  0  0  0  0
   57.2920   31.5230   45.1500 N   0  0  0  0  0  0  0  0  0  0  0  0
   57.4920   32.7590   45.6730 C   0  0  0  0  0  0  0  0  0  0  0  0
   56.6040   33.6410   45.5310 O   0  0  0  0  0  0  0  0  0  0  0  0
   58.6900   33.0410   46.3520 C   0  0  0  0  0  0  0  0  0  0  0  0
   58.9740   34.3100   46.8880 C   0  0  0  0  0  0  0  0  0  0  0  0
   58.2388   35.1231   46.7959 H   0  0  0  0  0  0  0  0  0  0  0  0
   60.1910   34.5380   47.5380 C   0  0  0  0  0  0  0  0  0  0  0  0
   60.4128   35.5319   47.9538 H   0  0  0  0  0  0  0  0  0  0  0  0
   61.1270   33.5060   47.6610 C   0  0  0  0  0  0  0  0  0  0  0  0
   62.0816   33.6899   48.1757 H   0  0  0  0  0  0  0  0  0  0  0  0
   60.8530   32.2420   47.1320 C   0  0  0  0  0  0  0  0  0  0  0  0
   61.5920   31.4332   47.2304 H   0  0  0  0  0  0  0  0  0  0  0  0
   59.6390   32.0040   46.4770 C   0  0  0  0  0  0  0  0  0  0  0  0
   59.3850   30.7860   45.9370 N   0  0  0  0  0  0  0  0  0  0  0  0
  1  2  1  0
  2  3  1  0
  3  4  2  0
  4  5  1  0
  4  6  1  0
  6  7  1  0
  6  8  2  0
  8  9  1  0
  8 10  1  0
 10 11  1  0
 11 12  2  0
 12 13  1  0
 13 14  2  0
 13 15  1  0
 15 16  1  0
 15 17  1  0
 15 18  1  0
 18 19  1  0
 18 20  1  0
 18 21  1  0
 21 22  2  0
 22 23  1  0
 23 24  2  0
 23 25  1  0
 25 26  2  0
 26 27  1  0
 26 28  1  0
 28 29  1  0
 28 30  2  0
 30 31  1  0
 30 32  1  0
 32 33  1  0
 32 34  2  0
 34 35  1  0
 11  3  1  0
 35 21  1  0
 34 25  1  0
M  CHG  2  10  -1  35  -1
M  END
>  <UniqueID>  (38) 
36

>  <SMILES>  (38) 
O=c1nc(CCC(=S)/N=c2\[n-]cccc2O)[n-]c2ccccc12

>  <Energy>  (38) 
41.0500092622309

>  <Genealogy>  (38) 
O=c1nc(CCC(=S)N=c2[n-]cccc2O)[n-]c2ccccc12 (protonated)
O=c1nc(CCC(=S)/N=c2\[n-]cccc2O)[n-]c2ccccc12 (cis-trans isomerization)
O=c1nc(CCC(=S)/N=c2\[n-]cccc2O)[n-]c2ccccc12 (3D coordinates assigned)
O=c1nc(CCC(=S)/N=c2\[n-]cccc2O)[n-]c2ccccc12 (optimized conformer: 41.0500092622309 kcal/mol)

>  <smiles>  (38) 
O=c1nc(CCC(=S)N=c2[nH]cccc2O)[nH]c2ccccc12

>  <score_type>  (38) 
oracle

>  <origin>  (38) 
adg

>  <m_score__min__energy>  (38) 
-11.35

>  <m_primary>  (38) 
energy

$$$$
38:0
     RDKit          3D

 59 63  0  0  0  0  0  0  0  0999 V2000
   55.0430   23.5220   44.0210 C   0  0  0  0  0  0  0  0  0  0  0  0
   55.3910   24.4210   45.5190 S   0  0  0  0  0  0  0  0  0  0  0  0
   55.2400   23.5280   46.7190 O   0  0  0  0  0  0  0  0  0  0  0  0
   54.4140   25.5560   45.6350 O   0  0  0  0  0  0  0  0  0  0  0  0
   56.9980   25.0710   45.4620 N   0  0  0  0  0  0  0  0  0  0  0  0
   57.3960   26.3620   45.9420 C   0  0  0  0  0  0  0  0  0  0  0  0
   58.1430   26.5270   47.1210 C   0  0  0  0  0  0  0  0  0  0  0  0
   58.5230   27.8050   47.5420 C   0  0  0  0  0  0  0  0  0  0  0  0
   58.1700   28.9380   46.7930 C   0  0  0  0  0  0  0  0  0  0  0  0
   57.4170   28.7710   45.6230 C   0  0  0  0  0  0  0  0  0  0  0  0
   57.0290   27.4930   45.2040 C   0  0  0  0  0  0  0  0  0  0  0  0
   56.9630   30.1750   44.6950 S   0  0  0  0  0  0  0  0  0  0  0  0
   57.4210   30.0170   43.2720 O   0  0  0  0  0  0  0  0  0  0  0  0
   55.4720   30.3650   44.7470 O   0  0  0  0  0  0  0  0  0  0  0  0
   57.7460   31.5370   45.4030 N   0  0  0  0  0  0  0  0  0  0  0  0
   58.4330   31.4720   46.5040 C   0  0  0  0  0  0  0  0  0  0  0  0
   59.0550   32.7350   47.0390 C   0  0  2  0  0  0  0  0  0  0  0  0
   60.3740   32.8910   46.4670 N   0  0  0  0  0  0  0  0  0  0  0  0
   61.3370   33.5400   47.0290 C   0  0  0  0  0  0  0  0  0  0  0  0
   62.6980   33.5200   46.3950 C   0  0  0  0  0  0  0  0  0  0  0  0
   63.6810   32.7010   47.2580 C   0  0  0  0  0  0  0  0  0  0  0  0
   63.2860   32.6270   48.7500 C   0  0  0  0  0  0  0  0  0  0  0  0
   62.5490   33.8950   49.2170 C   0  0  0  0  0  0  0  0  0  0  0  0
   61.2230   34.1350   48.4340 C   0  0  2  0  0  0  0  0  0  0  0  0
   60.0580   33.6180   49.1800 N   0  0  0  0  0  0  0  0  0  0  0  0
   59.6740   34.2280   50.4650 C   0  0  0  0  0  0  0  0  0  0  0  0
   59.3340   33.1600   51.4770 C   0  0  0  0  0  0  0  0  0  0  0  0
   58.1060   33.1870   52.1620 C   0  0  0  0  0  0  0  0  0  0  0  0
   57.8190   32.2180   53.1300 C   0  0  0  0  0  0  0  0  0  0  0  0
   58.7530   31.2190   53.4220 C   0  0  0  0  0  0  0  0  0  0  0  0
   59.9750   31.1850   52.7440 C   0  0  0  0  0  0  0  0  0  0  0  0
   60.2660   32.1530   51.7780 C   0  0  0  0  0  0  0  0  0  0  0  0
   59.1390   32.7190   48.5370 C   0  0  0  0  0  0  0  0  0  0  0  0
   58.3500   32.0110   49.2240 O   0  0  0  0  0  0  0  0  0  0  0  0
   58.5890   30.2410   47.2410 N   0  0  0  0  0  0  0  0  0  0  0  0
   54.6565   22.5237   44.2739 H   0  0  0  0  0  0  0  0  0  0  0  0
   54.2912   24.0678   43.4320 H   0  0  0  0  0  0  0  0  0  0  0  0
   55.9664   23.4194   43.4320 H   0  0  0  0  0  0  0  0  0  0  0  0
   58.4300   25.6469   47.7151 H   0  0  0  0  0  0  0  0  0  0  0  0
   59.1038   27.9234   48.4686 H   0  0  0  0  0  0  0  0  0  0  0  0
   56.4312   27.3768   44.2879 H   0  0  0  0  0  0  0  0  0  0  0  0
   58.4181   33.5857   46.7549 H   0  0  0  0  0  0  0  0  0  0  0  0
   62.6261   33.0645   45.3963 H   0  0  0  0  0  0  0  0  0  0  0  0
   63.0691   34.5523   46.3135 H   0  0  0  0  0  0  0  0  0  0  0  0
   63.7231   31.6768   46.8589 H   0  0  0  0  0  0  0  0  0  0  0  0
   64.6541   33.2116   47.2084 H   0  0  0  0  0  0  0  0  0  0  0  0
   62.6278   31.7585   48.9001 H   0  0  0  0  0  0  0  0  0  0  0  0
   64.2093   32.5346   49.3408 H   0  0  0  0  0  0  0  0  0  0  0  0
   62.3139   33.7930   50.2867 H   0  0  0  0  0  0  0  0  0  0  0  0
   63.2092   34.7545   49.0291 H   0  0  0  0  0  0  0  0  0  0  0  0
   61.0576   35.2171   48.3258 H   0  0  0  0  0  0  0  0  0  0  0  0
   60.5118   34.8319   50.8437 H   0  0  0  0  0  0  0  0  0  0  0  0
   58.7897   34.8629   50.3072 H   0  0  0  0  0  0  0  0  0  0  0  0
   57.3691   33.9719   51.9363 H   0  0  0  0  0  0  0  0  0  0  0  0
   56.8567   32.2422   53.6623 H   0  0  0  0  0  0  0  0  0  0  0  0
   58.5261   30.4600   54.1852 H   0  0  0  0  0  0  0  0  0  0  0  0
   60.7078   30.3965   52.9705 H   0  0  0  0  0  0  0  0  0  0  0  0
   61.2308   32.1259   51.2504 H   0  0  0  0  0  0  0  0  0  0  0  0
   59.0910   30.2970   48.1570 H   0  0  0  0  0  0  0  0  0  0  0  0
  1  2  1  0
  2  3  2  0
  2  4  2  0
  2  5  1  0
  5  6  1  0
  6  7  2  0
  7  8  1  0
  8  9  2  0
  9 10  1  0
 10 11  2  0
 10 12  1  0
 12 13  2  0
 12 14  2  0
 12 15  1  0
 15 16  2  0
 16 17  1  0
 17 18  1  0
 18 19  2  0
 19 20  1  0
 20 21  1  0
 21 22  1  0
 22 23  1  0
 23 24  1  0
 24 25  1  0
 25 26  1  0
 26 27  1  0
 27 28  2  0
 28 29  1  0
 29 30  2  0
 30 31  1  0
 31 32  2  0
 25 33  1  0
 33 34  2  0
 16 35  1  0
 11  6  1  0
 33 17  1  0
 35  9  1  0
 24 19  1  0
 32 27  1  0
  1 36  1  0
  1 37  1  0
  1 38  1  0
  7 39  1  0
  8 40  1  0
 11 41  1  0
 17 42  1  1
 20 43  1  0
 20 44  1  0
 21 45  1  0
 21 46  1  0
 22 47  1  0
 22 48  1  0
 23 49  1  0
 23 50  1  0
 24 51  1  6
 26 52  1  0
 26 53  1  0
 28 54  1  0
 29 55  1  0
 30 56  1  0
 31 57  1  0
 32 58  1  0
 35 59  1  0
M  CHG  1   5  -1
M  END
>  <UniqueID>  (39) 
37

>  <SMILES>  (39) 
CS(=O)(=O)[N-]c1ccc2c(c1)S(=O)(=O)N=C([C@@H]1N=C3CCCC[C@@H]3N(Cc3ccccc3)C1=O)N2

>  <Energy>  (39) 
76.27578641420202

>  <Genealogy>  (39) 
CS(=O)(=O)[N-]c1ccc2c(c1)S(=O)(=O)N=C(C1N=C3CCCCC3N(Cc3ccccc3)C1=O)N2 (protonated)
CS(=O)(=O)[N-]c1ccc2c(c1)S(=O)(=O)N=C([C@@H]1N=C3CCCC[C@@H]3N(Cc3ccccc3)C1=O)N2 (chirality)
CS(=O)(=O)[N-]c1ccc2c(c1)S(=O)(=O)N=C([C@@H]1N=C3CCCC[C@@H]3N(Cc3ccccc3)C1=O)N2 (3D coordinates assigned)
CS(=O)(=O)[N-]c1ccc2c(c1)S(=O)(=O)N=C([C@@H]1N=C3CCCC[C@@H]3N(Cc3ccccc3)C1=O)N2 (nonaromatic ring conformer: 76.27578641420202 kcal/mol)

>  <smiles>  (39) 
CS(=O)(=O)Nc1ccc2c(c1)S(=O)(=O)N=C(C1N=C3CCCCC3N(Cc3ccccc3)C1=O)N2

>  <score_type>  (39) 
oracle

>  <origin>  (39) 
adg

>  <m_score__min__energy>  (39) 
-11.73

>  <m_primary>  (39) 
energy

$$$$
39:0
     RDKit          3D

 42 43  0  0  0  0  0  0  0  0999 V2000
   58.5280   31.8930   47.6970 C   0  0  0  0  0  0  0  0  0  0  0  0
   58.3910   32.2670   46.2440 C   0  0  0  0  0  0  0  0  0  0  0  0
   58.5190   33.6120   45.8590 C   0  0  0  0  0  0  0  0  0  0  0  0
   58.3890   33.9800   44.5190 C   0  0  0  0  0  0  0  0  0  0  0  0
   58.1160   33.0130   43.5520 C   0  0  0  0  0  0  0  0  0  0  0  0
   57.9750   31.6730   43.9210 C   0  0  0  0  0  0  0  0  0  0  0  0
   58.1190   31.2850   45.2640 C   0  0  0  0  0  0  0  0  0  0  0  0
   57.9330   29.9110   45.6460 N   0  0  0  0  0  0  0  0  0  0  0  0
   56.7400   29.1620   45.3580 C   0  0  0  0  0  0  0  0  0  0  0  0
   55.7250   29.7410   44.8850 O   0  0  0  0  0  0  0  0  0  0  0  0
   56.6690   27.7120   45.6140 C   0  0  0  0  0  0  0  0  0  0  0  0
   55.5180   27.0860   45.9360 N   0  0  0  0  0  0  0  0  0  0  0  0
   55.8420   25.7830   46.0500 C   0  0  0  0  0  0  0  0  0  0  0  0
   54.9180   24.7970   46.3660 O   0  0  0  0  0  0  0  0  0  0  0  0
   57.1760   25.5500   45.7980 C   0  0  0  0  0  0  0  0  0  0  0  0
   57.7070   26.7960   45.5230 C   0  0  0  0  0  0  0  0  0  0  0  0
   59.0280   27.0800   45.0460 N   0  0  0  0  0  0  0  0  0  0  0  0
   60.0150   27.8570   45.7280 C   0  0  0  0  0  0  0  0  0  0  0  0
   60.5480   28.8240   45.1230 O   0  0  0  0  0  0  0  0  0  0  0  0
   60.3520   27.5640   47.0580 O   0  0  0  0  0  0  0  0  0  0  0  0
   60.0870   28.3830   48.2060 C   0  0  0  0  0  0  0  0  0  0  0  0
   60.6580   27.7330   49.4810 C   0  0  0  0  0  0  0  0  0  0  0  0
   60.7950   29.7270   47.9750 C   0  0  0  0  0  0  0  0  0  0  0  0
   58.5750   28.6360   48.3540 C   0  0  0  0  0  0  0  0  0  0  0  0
   58.2173   32.7411   48.3248 H   0  0  0  0  0  0  0  0  0  0  0  0
   57.8900   31.0235   47.9135 H   0  0  0  0  0  0  0  0  0  0  0  0
   59.5767   31.6413   47.9135 H   0  0  0  0  0  0  0  0  0  0  0  0
   58.7231   34.3805   46.6191 H   0  0  0  0  0  0  0  0  0  0  0  0
   58.5020   35.0340   44.2253 H   0  0  0  0  0  0  0  0  0  0  0  0
   58.0115   33.3058   42.4969 H   0  0  0  0  0  0  0  0  0  0  0  0
   57.7497   30.9164   43.1550 H   0  0  0  0  0  0  0  0  0  0  0  0
   58.7310   29.4290   46.1140 H   0  0  0  0  0  0  0  0  0  0  0  0
   57.7029   24.5845   45.8125 H   0  0  0  0  0  0  0  0  0  0  0  0
   60.2275   28.2231   50.3667 H   0  0  0  0  0  0  0  0  0  0  0  0
   60.4023   26.6632   49.4932 H   0  0  0  0  0  0  0  0  0  0  0  0
   61.7518   27.8487   49.4932 H   0  0  0  0  0  0  0  0  0  0  0  0
   61.0366   30.1857   48.9452 H   0  0  0  0  0  0  0  0  0  0  0  0
   61.7222   29.5601   47.4072 H   0  0  0  0  0  0  0  0  0  0  0  0
   60.1330   30.3973   47.4072 H   0  0  0  0  0  0  0  0  0  0  0  0
   58.3133   28.6798   49.4215 H   0  0  0  0  0  0  0  0  0  0  0  0
   58.3141   29.5903   47.8731 H   0  0  0  0  0  0  0  0  0  0  0  0
   58.0177   27.8186   47.8731 H   0  0  0  0  0  0  0  0  0  0  0  0
  1  2  1  0
  2  3  2  0
  3  4  1  0
  4  5  2  0
  5  6  1  0
  6  7  2  0
  7  8  1  0
  8  9  1  0
  9 10  2  0
  9 11  1  0
 11 12  1  0
 12 13  1  0
 13 14  1  0
 13 15  2  0
 15 16  1  0
 16 17  1  0
 17 18  1  0
 18 19  2  0
 18 20  1  0
 20 21  1  0
 21 22  1  0
 21 23  1  0
 21 24  1  0
  7  2  1  0
 16 11  2  0
  1 25  1  0
  1 26  1  0
  1 27  1  0
  3 28  1  0
  4 29  1  0
  5 30  1  0
  6 31  1  0
  8 32  1  0
 15 33  1  0
 22 34  1  0
 22 35  1  0
 22 36  1  0
 23 37  1  0
 23 38  1  0
 23 39  1  0
 24 40  1  0
 24 41  1  0
 24 42  1  0
M  CHG  3  12  -1  14  -1  17  -1
M  END
>  <UniqueID>  (40) 
38

>  <SMILES>  (40) 
Cc1ccccc1NC(=O)c1[n-]c([O-])cc1[N-]C(=O)OC(C)(C)C

>  <Energy>  (40) 
70.79573653418461

>  <Genealogy>  (40) 
Cc1ccccc1NC(=O)c1[n-]c([O-])cc1[N-]C(=O)OC(C)(C)C (protonated)
Cc1ccccc1NC(=O)c1[n-]c([O-])cc1[N-]C(=O)OC(C)(C)C (3D coordinates assigned)
Cc1ccccc1NC(=O)c1[n-]c([O-])cc1[N-]C(=O)OC(C)(C)C (optimized conformer: 70.79573653418461 kcal/mol)

>  <smiles>  (40) 
Cc1ccccc1NC(=O)c1[nH]c(O)cc1NC(=O)OC(C)(C)C

>  <score_type>  (40) 
oracle

>  <origin>  (40) 
adg

>  <m_score__min__energy>  (40) 
-12.970000000000001

>  <m_primary>  (40) 
energy

$$$$
40:0
     RDKit          3D

 58 60  0  0  0  0  0  0  0  0999 V2000
   54.5060   23.9160   45.4060 C   0  0  0  0  0  0  0  0  0  0  0  0
   55.8690   24.3810   45.1300 N   0  0  0  0  0  0  0  0  0  0  0  0
   56.7960   23.5640   44.3440 C   0  0  0  0  0  0  0  0  0  0  0  0
   56.3200   25.6390   45.6570 C   0  0  0  0  0  0  0  0  0  0  0  0
   55.5440   26.3460   46.3580 O   0  0  0  0  0  0  0  0  0  0  0  0
   57.6080   26.0950   45.3460 O   0  0  0  0  0  0  0  0  0  0  0  0
   58.3930   26.9290   46.1550 C   0  0  0  0  0  0  0  0  0  0  0  0
   58.8380   26.5240   47.4290 C   0  0  0  0  0  0  0  0  0  0  0  0
   59.6480   27.3660   48.1940 C   0  0  0  0  0  0  0  0  0  0  0  0
   60.0290   28.6140   47.6980 C   0  0  0  0  0  0  0  0  0  0  0  0
   59.6080   29.0210   46.4310 C   0  0  0  0  0  0  0  0  0  0  0  0
   58.8020   28.1790   45.6520 C   0  0  0  0  0  0  0  0  0  0  0  0
   58.3750   28.6280   44.3130 C   0  0  0  0  0  0  0  0  0  0  0  0
   57.1370   29.0530   44.0230 C   0  0  0  0  0  0  0  0  0  0  0  0
   56.7530   30.4590   43.7850 C   0  0  0  0  0  0  0  0  0  0  0  0
   56.5960   30.8530   42.5980 O   0  0  0  0  0  0  0  0  0  0  0  0
   56.6560   31.3860   44.8710 N   0  0  0  0  0  0  0  0  0  0  0  0
   57.5650   32.4510   45.1760 C   0  0  0  0  0  0  0  0  0  0  0  0
   58.2030   33.1940   44.1700 C   0  0  0  0  0  0  0  0  0  0  0  0
   59.0460   34.2540   44.5110 C   0  0  0  0  0  0  0  0  0  0  0  0
   59.2620   34.5760   45.8540 C   0  0  0  0  0  0  0  0  0  0  0  0
   58.6400   33.8360   46.8700 C   0  0  0  0  0  0  0  0  0  0  0  0
   58.9080   34.1630   48.2420 N   0  0  0  0  0  0  0  0  0  0  0  0
   59.3290   32.9820   49.4470 S   0  0  0  0  0  0  0  0  0  0  0  0
   58.0940   32.3510   50.0270 O   0  0  0  0  0  0  0  0  0  0  0  0
   60.0650   33.6790   50.5560 O   0  0  0  0  0  0  0  0  0  0  0  0
   60.4110   31.7280   48.7680 C   0  0  0  0  0  0  0  0  0  0  0  0
   61.7210   32.3130   48.3180 C   0  0  0  0  0  0  0  0  0  0  0  0
   61.8070   33.0030   47.0970 C   0  0  0  0  0  0  0  0  0  0  0  0
   63.0180   33.5780   46.6970 C   0  0  0  0  0  0  0  0  0  0  0  0
   64.1490   33.4690   47.5110 C   0  0  0  0  0  0  0  0  0  0  0  0
   64.0720   32.7810   48.7250 C   0  0  0  0  0  0  0  0  0  0  0  0
   62.8650   32.2020   49.1280 C   0  0  0  0  0  0  0  0  0  0  0  0
   57.7670   32.7930   46.5180 C   0  0  0  0  0  0  0  0  0  0  0  0
   54.3499   23.8628   46.4936 H   0  0  0  0  0  0  0  0  0  0  0  0
   53.7828   24.6182   44.9657 H   0  0  0  0  0  0  0  0  0  0  0  0
   54.3628   22.9182   44.9657 H   0  0  0  0  0  0  0  0  0  0  0  0
   57.4457   22.9914   45.0223 H   0  0  0  0  0  0  0  0  0  0  0  0
   56.2255   22.8697   43.7097 H   0  0  0  0  0  0  0  0  0  0  0  0
   57.4132   24.2173   43.7097 H   0  0  0  0  0  0  0  0  0  0  0  0
   58.5459   25.5395   47.8231 H   0  0  0  0  0  0  0  0  0  0  0  0
   59.9867   27.0449   49.1901 H   0  0  0  0  0  0  0  0  0  0  0  0
   60.6616   29.2773   48.3062 H   0  0  0  0  0  0  0  0  0  0  0  0
   59.9094   30.0050   46.0427 H   0  0  0  0  0  0  0  0  0  0  0  0
   59.1185   28.6131   43.5024 H   0  0  0  0  0  0  0  0  0  0  0  0
   56.3438   28.2937   43.9571 H   0  0  0  0  0  0  0  0  0  0  0  0
   58.0387   32.9410   43.1122 H   0  0  0  0  0  0  0  0  0  0  0  0
   59.5413   34.8371   43.7206 H   0  0  0  0  0  0  0  0  0  0  0  0
   59.9238   35.4148   46.1155 H   0  0  0  0  0  0  0  0  0  0  0  0
   59.1030   35.1600   48.4840 H   0  0  0  0  0  0  0  0  0  0  0  0
   60.6053   30.9682   49.5394 H   0  0  0  0  0  0  0  0  0  0  0  0
   59.9147   31.2816   47.8937 H   0  0  0  0  0  0  0  0  0  0  0  0
   60.9192   33.0913   46.4535 H   0  0  0  0  0  0  0  0  0  0  0  0
   63.0802   34.1169   45.7401 H   0  0  0  0  0  0  0  0  0  0  0  0
   65.0994   33.9246   47.1962 H   0  0  0  0  0  0  0  0  0  0  0  0
   64.9627   32.6949   49.3647 H   0  0  0  0  0  0  0  0  0  0  0  0
   62.8101   31.6576   50.0823 H   0  0  0  0  0  0  0  0  0  0  0  0
   57.2362   32.2389   47.3062 H   0  0  0  0  0  0  0  0  0  0  0  0
  1  2  1  0
  2  3  1  0
  2  4  1  0
  4  5  2  0
  4  6  1  0
  6  7  1  0
  7  8  2  0
  8  9  1  0
  9 10  2  0
 10 11  1  0
 11 12  2  0
 12 13  1  0
 13 14  2  3
 14 15  1  0
 15 16  2  0
 15 17  1  0
 17 18  1  0
 18 19  2  0
 19 20  1  0
 20 21  2  0
 21 22  1  0
 22 23  1  0
 23 24  1  0
 24 25  2  0
 24 26  2  0
 24 27  1  0
 27 28  1  0
 28 29  2  0
 29 30  1  0
 30 31  2  0
 31 32  1  0
 32 33  2  0
 22 34  2  0
 12  7  1  0
 34 18  1  0
 33 28  1  0
  1 35  1  0
  1 36  1  0
  1 37  1  0
  3 38  1  0
  3 39  1  0
  3 40  1  0
  8 41  1  0
  9 42  1  0
 10 43  1  0
 11 44  1  0
 13 45  1  0
 14 46  1  0
 19 47  1  0
 20 48  1  0
 21 49  1  0
 23 50  1  0
 27 51  1  0
 27 52  1  0
 29 53  1  0
 30 54  1  0
 31 55  1  0
 32 56  1  0
 33 57  1  0
 34 58  1  0
M  CHG  1  17  -1
M  END
>  <UniqueID>  (41) 
39

>  <SMILES>  (41) 
CN(C)C(=O)Oc1ccccc1C=CC(=O)[N-]c1cccc(NS(=O)(=O)Cc2ccccc2)c1

>  <Energy>  (41) 
66.1119451612705

>  <Genealogy>  (41) 
CN(C)C(=O)Oc1ccccc1C=CC(=O)[N-]c1cccc(NS(=O)(=O)Cc2ccccc2)c1 (protonated)
CN(C)C(=O)Oc1ccccc1C=CC(=O)[N-]c1cccc(NS(=O)(=O)Cc2ccccc2)c1 (3D coordinates assigned)
CN(C)C(=O)Oc1ccccc1C=CC(=O)[N-]c1cccc(NS(=O)(=O)Cc2ccccc2)c1 (optimized conformer: 66.1119451612705 kcal/mol)

>  <smiles>  (41) 
CN(C)C(=O)Oc1ccccc1C=CC(=O)Nc1cccc(NS(=O)(=O)Cc2ccccc2)c1

>  <score_type>  (41) 
oracle

>  <origin>  (41) 
adg

>  <m_score__min__energy>  (41) 
-11.16

>  <m_primary>  (41) 
energy

$$$$
41:0
     RDKit          3D

 74 78  0  0  1  0  0  0  0  0999 V2000
   57.3690   19.2670   46.3650 C   0  0  0  0  0  0  0  0  0  0  0  0
   56.1730   19.9540   46.0550 O   0  0  0  0  0  0  0  0  0  0  0  0
   56.2240   20.9290   45.0700 C   0  0  0  0  0  0  0  0  0  0  0  0
   55.9100   22.2490   45.2960 C   0  0  0  0  0  0  0  0  0  0  0  0
   55.9670   23.2000   44.3030 C   0  0  0  0  0  0  0  0  0  0  0  0
   55.6860   24.4400   44.4640 N   0  0  0  0  0  0  0  0  0  0  0  0
   55.9490   25.1990   45.9620 S   0  0  0  0  0  0  0  0  0  0  0  0
   54.9070   26.3310   45.9890 O   0  0  0  0  0  0  0  0  0  0  0  0
   55.6210   24.4080   47.1690 O   0  0  0  0  0  0  0  0  0  0  0  0
   57.4960   26.0350   46.0600 C   0  0  0  0  0  0  0  0  0  0  0  0
   58.6770   25.3410   46.2200 C   0  0  0  0  0  0  0  0  0  0  0  0
   59.8680   26.0340   46.2860 C   0  0  0  0  0  0  0  0  0  0  0  0
   59.8800   27.4050   46.1930 C   0  0  0  0  0  0  0  0  0  0  0  0
   58.7010   28.1510   46.0290 C   0  0  0  0  0  0  0  0  0  0  0  0
   58.8220   29.5530   45.9410 N   0  0  0  0  0  0  0  0  0  0  0  0
   57.8170   30.4630   45.5610 C   0  0  0  0  0  0  0  0  0  0  0  0
   56.6820   30.0750   45.2580 O   0  0  0  0  0  0  0  0  0  0  0  0
   58.0430   31.9240   45.4960 C   0  0  0  0  0  0  0  0  0  0  0  0
   57.1450   32.7790   44.8950 C   0  0  0  0  0  0  0  0  0  0  0  0
   57.3850   34.1550   44.8420 C   0  0  0  0  0  0  0  0  0  0  0  0
   58.5400   34.6760   45.4000 C   0  0  0  0  0  0  0  0  0  0  0  0
   59.4470   33.8400   46.0040 C   0  0  0  0  0  0  0  0  0  0  0  0
   60.6500   34.2900   46.5920 N   0  0  0  0  0  0  0  0  0  0  0  0
   60.9030   34.1020   47.8400 C   0  0  0  0  0  0  0  0  0  0  0  0
   62.2120   33.9030   48.1500 N   0  0  0  0  0  0  0  0  0  0  0  0
   62.5370   33.6970   49.4610 C   0  0  0  0  0  0  0  0  0  0  0  0
   63.8570   33.4950   49.7810 O   0  0  0  0  0  0  0  0  0  0  0  0
   64.5900   32.3530   49.4440 C   0  0  0  0  0  0  0  0  0  0  0  0
   61.5780   33.6950   50.4020 N   0  0  0  0  0  0  0  0  0  0  0  0
   60.2930   33.8950   50.0600 C   0  0  0  0  0  0  0  0  0  0  0  0
   59.3520   33.8940   50.9440 N   0  0  0  0  0  0  0  0  0  0  0  0
   58.7380   32.6780   51.3800 C   0  0  0  0  0  0  0  0  0  0  0  0
   58.1540   31.9880   50.1410 C   0  0  0  0  0  0  0  0  0  0  0  0
   59.0950   30.8600   49.8210 C   0  0  0  0  0  0  0  0  0  0  0  0
   59.1260   29.7960   50.7030 C   0  0  0  0  0  0  0  0  0  0  0  0
   59.9930   28.7670   50.4010 C   0  0  0  0  0  0  0  0  0  0  0  0
   60.8020   28.7640   49.2860 C   0  0  0  0  0  0  0  0  0  0  0  0
   60.7620   29.8310   48.4130 C   0  0  0  0  0  0  0  0  0  0  0  0
   59.8920   30.8870   48.6950 C   0  0  0  0  0  0  0  0  0  0  0  0
   59.9330   34.1030   48.7690 N   0  0  0  0  0  0  0  0  0  0  0  0
   59.1760   32.4980   46.0350 C   0  0  0  0  0  0  0  0  0  0  0  0
   57.5510   27.4310   45.9680 C   0  0  0  0  0  0  0  0  0  0  0  0
   56.3470   22.8070   43.0710 N   0  0  0  0  0  0  0  0  0  0  0  0
   56.6640   21.5030   42.8230 C   0  0  0  0  0  0  0  0  0  0  0  0
   56.5970   20.5990   43.8180 N   0  0  0  0  0  0  0  0  0  0  0  0
   57.4820   19.2021   47.4573 H   0  0  0  0  0  0  0  0  0  0  0  0
   57.3305   18.2534   45.9395 H   0  0  0  0  0  0  0  0  0  0  0  0
   58.2252   19.8110   45.9395 H   0  0  0  0  0  0  0  0  0  0  0  0
   55.6023   22.5554   46.3067 H   0  0  0  0  0  0  0  0  0  0  0  0
   58.6694   24.2435   46.2944 H   0  0  0  0  0  0  0  0  0  0  0  0
   60.8133   25.4861   46.4138 H   0  0  0  0  0  0  0  0  0  0  0  0
   60.8425   27.9346   46.2487 H   0  0  0  0  0  0  0  0  0  0  0  0
   59.7570   29.9720   46.1830 H   0  0  0  0  0  0  0  0  0  0  0  0
   56.2249   32.3724   44.4500 H   0  0  0  0  0  0  0  0  0  0  0  0
   56.6574   34.8229   44.3577 H   0  0  0  0  0  0  0  0  0  0  0  0
   58.7311   35.7585   45.3596 H   0  0  0  0  0  0  0  0  0  0  0  0
   64.9172   31.8432   50.3621 H   0  0  0  0  0  0  0  0  0  0  0  0
   63.9589   31.6736   48.8524 H   0  0  0  0  0  0  0  0  0  0  0  0
   65.4706   32.6438   48.8524 H   0  0  0  0  0  0  0  0  0  0  0  0
   61.8530   33.5400   51.3780 H   0  0  0  0  0  0  0  0  0  0  0  0
   59.4876   32.0274   51.8541 H   0  0  0  0  0  0  0  0  0  0  0  0
   57.9483   32.8847   52.1173 H   0  0  0  0  0  0  0  0  0  0  0  0
   57.1482   31.5986   50.3574 H   0  0  0  0  0  0  0  0  0  0  0  0
   58.0555   32.6860   49.2966 H   0  0  0  0  0  0  0  0  0  0  0  0
   58.4909   29.7714   51.6008 H   0  0  0  0  0  0  0  0  0  0  0  0
   60.0409   27.9062   51.0841 H   0  0  0  0  0  0  0  0  0  0  0  0
   61.4756   27.9160   49.0932 H   0  0  0  0  0  0  0  0  0  0  0  0
   61.3995   29.8500   47.5167 H   0  0  0  0  0  0  0  0  0  0  0  0
   59.8418   31.7484   48.0127 H   0  0  0  0  0  0  0  0  0  0  0  0
   58.9450   34.2600   48.4740 H   0  0  0  0  0  0  0  0  0  0  0  0
   59.9080   31.8357   46.5204 H   0  0  0  0  0  0  0  0  0  0  0  0
   56.6054   27.9778   45.8384 H   0  0  0  0  0  0  0  0  0  0  0  0
   56.9730   21.1920   41.8141 H   0  0  0  0  0  0  0  0  0  0  0  0
   56.8420   19.5940   43.6230 H   0  0  0  0  0  0  0  0  0  0  0  0
  1  2  1  0
  2  3  1  0
  3  4  2  0
  4  5  1  0
  5  6  2  0
  6  7  1  0
  7  8  2  0
  7  9  2  0
  7 10  1  0
 10 11  2  0
 11 12  1  0
 12 13  2  0
 13 14  1  0
 14 15  1  0
 15 16  1  0
 16 17  2  0
 16 18  1  0
 18 19  2  0
 19 20  1  0
 20 21  2  0
 21 22  1  0
 22 23  1  0
 23 24  2  0
 24 25  1  0
 25 26  2  0
 26 27  1  0
 27 28  1  0
 26 29  1  0
 29 30  1  0
 30 31  2  0
 31 32  1  0
 32 33  1  0
 33 34  1  0
 34 35  2  0
 35 36  1  0
 36 37  2  0
 37 38  1  0
 38 39  2  0
 30 40  1  0
 22 41  2  0
 14 42  2  0
  5 43  1  0
 43 44  2  0
 44 45  1  0
 45  3  1  0
 42 10  1  0
 41 18  1  0
 40 24  1  0
 39 34  1  0
  1 46  1  0
  1 47  1  0
  1 48  1  0
  4 49  1  0
 11 50  1  0
 12 51  1  0
 13 52  1  0
 15 53  1  0
 19 54  1  0
 20 55  1  0
 21 56  1  0
 28 57  1  0
 28 58  1  0
 28 59  1  0
 29 60  1  0
 32 61  1  0
 32 62  1  0
 33 63  1  0
 33 64  1  0
 35 65  1  0
 36 66  1  0
 37 67  1  0
 38 68  1  0
 39 69  1  0
 40 70  1  0
 41 71  1  0
 42 72  1  0
 44 73  1  0
 45 74  1  0
M  END
>  <smiles>  (42) 
COc1cc(=NS(=O)(=O)c2cccc(NC(=O)c3cccc(N=c4nc(OC)[nH]c(=NCCc5ccccc5)[nH]4)c3)c2)nc[nH]1

>  <score_type>  (42) 
oracle

>  <origin>  (42) 
adg

>  <m_score__min__energy>  (42) 
-11.23

>  <m_primary>  (42) 
energy

$$$$
42:0
     RDKit          3D

 33 34  0  0  0  0  0  0  0  0999 V2000
   59.7810   30.0800   45.9620 C   0  0  0  0  0  0  0  0  0  0  0  0
   58.7870   30.6870   46.9460 C   0  0  0  0  0  0  0  0  0  0  0  0
   57.7490   31.3780   46.2510 O   0  0  0  0  0  0  0  0  0  0  0  0
   57.6290   31.4910   44.8540 C   0  0  0  0  0  0  0  0  0  0  0  0
   58.1920   32.5670   44.1380 C   0  0  0  0  0  0  0  0  0  0  0  0
   58.0510   32.6440   42.7510 C   0  0  0  0  0  0  0  0  0  0  0  0
   57.3480   31.6560   42.0620 C   0  0  0  0  0  0  0  0  0  0  0  0
   56.7840   30.5860   42.7570 C   0  0  0  0  0  0  0  0  0  0  0  0
   56.9180   30.4940   44.1530 C   0  0  0  0  0  0  0  0  0  0  0  0
   56.3250   29.3180   44.8890 C   0  0  0  0  0  0  0  0  0  0  0  0
   57.3410   28.2940   45.1090 N   0  0  0  0  0  0  0  0  0  0  0  0
   57.1890   27.2110   46.0340 C   0  0  0  0  0  0  0  0  0  0  0  0
   57.8670   27.1890   47.0970 O   0  0  0  0  0  0  0  0  0  0  0  0
   56.2360   26.1220   45.7540 C   0  0  0  0  0  0  0  0  0  0  0  0
   56.6610   24.8950   45.2260 C   0  0  0  0  0  0  0  0  0  0  0  0
   55.7190   23.9010   44.9670 C   0  0  0  0  0  0  0  0  0  0  0  0
   54.3750   24.1510   45.2390 C   0  0  0  0  0  0  0  0  0  0  0  0
   53.5040   23.2720   45.0150 O   0  0  0  0  0  0  0  0  0  0  0  0
   54.0080   25.3560   45.7490 N   0  0  0  0  0  0  0  0  0  0  0  0
   54.9090   26.3100   45.9970 N   0  0  0  0  0  0  0  0  0  0  0  0
   60.5913   29.5852   46.5176 H   0  0  0  0  0  0  0  0  0  0  0  0
   59.2663   29.3419   45.3293 H   0  0  0  0  0  0  0  0  0  0  0  0
   60.2025   30.8750   45.3293 H   0  0  0  0  0  0  0  0  0  0  0  0
   58.3431   29.8841   47.5528 H   0  0  0  0  0  0  0  0  0  0  0  0
   59.3187   31.4023   47.5908 H   0  0  0  0  0  0  0  0  0  0  0  0
   58.7459   33.3509   44.6754 H   0  0  0  0  0  0  0  0  0  0  0  0
   58.4955   33.4861   42.2003 H   0  0  0  0  0  0  0  0  0  0  0  0
   57.2381   31.7205   40.9694 H   0  0  0  0  0  0  0  0  0  0  0  0
   56.2308   29.8092   42.2088 H   0  0  0  0  0  0  0  0  0  0  0  0
   55.9350   29.6568   45.8601 H   0  0  0  0  0  0  0  0  0  0  0  0
   55.5113   28.8908   44.2846 H   0  0  0  0  0  0  0  0  0  0  0  0
   57.7267   24.7185   45.0183 H   0  0  0  0  0  0  0  0  0  0  0  0
   56.0323   22.9312   44.5531 H   0  0  0  0  0  0  0  0  0  0  0  0
  1  2  1  0
  2  3  1  0
  3  4  1  0
  4  5  2  0
  5  6  1  0
  6  7  2  0
  7  8  1  0
  8  9  2  0
  9 10  1  0
 10 11  1  0
 11 12  1  0
 12 13  2  0
 12 14  1  0
 14 15  1  0
 15 16  2  0
 16 17  1  0
 17 18  2  0
 17 19  1  0
 19 20  1  0
  9  4  1  0
 20 14  2  0
  1 21  1  0
  1 22  1  0
  1 23  1  0
  2 24  1  0
  2 25  1  0
  5 26  1  0
  6 27  1  0
  7 28  1  0
  8 29  1  0
 10 30  1  0
 10 31  1  0
 15 32  1  0
 16 33  1  0
M  CHG  2  11  -1  19  -1
M  END
>  <UniqueID>  (43) 
40

>  <SMILES>  (43) 
CCOc1ccccc1C[N-]C(=O)c1ccc(=O)[n-]n1

>  <Energy>  (43) 
30.074727002251272

>  <Genealogy>  (43) 
CCOc1ccccc1C[N-]C(=O)c1ccc(=O)[n-]n1 (protonated)
CCOc1ccccc1C[N-]C(=O)c1ccc(=O)[n-]n1 (3D coordinates assigned)
CCOc1ccccc1C[N-]C(=O)c1ccc(=O)[n-]n1 (optimized conformer: 30.074727002251272 kcal/mol)

>  <smiles>  (43) 
CCOc1ccccc1CNC(=O)c1ccc(=O)[nH]n1

>  <score_type>  (43) 
oracle

>  <origin>  (43) 
adg

>  <m_score__min__energy>  (43) 
-10.539999999999999

>  <m_primary>  (43) 
energy

$$$$
43:0
     RDKit          3D

 39 41  0  0  0  0  0  0  0  0999 V2000
   63.2760   33.5600   52.6800 C   0  0  0  0  0  0  0  0  0  0  0  0
   63.0720   33.1510   51.2800 N   0  0  0  0  0  0  0  0  0  0  0  0
   64.1770   33.6510   50.4200 C   0  0  0  0  0  0  0  0  0  0  0  0
   64.5420   32.6940   49.2640 C   0  0  0  0  0  0  0  0  0  0  0  0
   63.3730   31.9750   48.7230 N   0  0  0  0  0  0  0  0  0  0  0  0
   62.3830   32.9950   47.7020 S   0  0  0  0  0  0  0  0  0  0  0  0
   63.1890   33.5390   46.5550 O   0  0  0  0  0  0  0  0  0  0  0  0
   61.8660   34.1540   48.5080 O   0  0  0  0  0  0  0  0  0  0  0  0
   61.0030   32.0910   47.0830 C   0  0  0  0  0  0  0  0  0  0  0  0
   61.1280   30.7360   46.7500 C   0  0  0  0  0  0  0  0  0  0  0  0
   60.0230   30.0220   46.2800 C   0  0  0  0  0  0  0  0  0  0  0  0
   58.7720   30.6490   46.1370 C   0  0  0  0  0  0  0  0  0  0  0  0
   57.6090   29.8740   45.6370 C   0  0  0  0  0  0  0  0  0  0  0  0
   57.3250   28.5420   45.8760 C   0  0  0  0  0  0  0  0  0  0  0  0
   56.1840   28.2120   45.2480 N   0  0  0  0  0  0  0  0  0  0  0  0
   55.8110   29.3590   44.6470 C   0  0  0  0  0  0  0  0  0  0  0  0
   54.7690   29.4540   43.9490 O   0  0  0  0  0  0  0  0  0  0  0  0
   56.6450   30.3960   44.8540 N   0  0  0  0  0  0  0  0  0  0  0  0
   58.6540   32.0100   46.4790 C   0  0  0  0  0  0  0  0  0  0  0  0
   59.7610   32.7220   46.9490 C   0  0  0  0  0  0  0  0  0  0  0  0
   62.5750   31.2680   49.7530 C   0  0  0  0  0  0  0  0  0  0  0  0
   62.9190   31.6870   51.1940 C   0  0  0  0  0  0  0  0  0  0  0  0
   62.8868   32.7796   53.3504 H   0  0  0  0  0  0  0  0  0  0  0  0
   64.3505   33.7021   52.8676 H   0  0  0  0  0  0  0  0  0  0  0  0
   62.7431   34.5038   52.8676 H   0  0  0  0  0  0  0  0  0  0  0  0
   62.1740   33.5900   50.9660 H   0  0  0  0  0  0  0  0  0  0  0  0
   63.8730   34.6165   49.9894 H   0  0  0  0  0  0  0  0  0  0  0  0
   65.0681   33.7400   51.0588 H   0  0  0  0  0  0  0  0  0  0  0  0
   64.9990   33.2808   48.4536 H   0  0  0  0  0  0  0  0  0  0  0  0
   65.2359   31.9408   49.6656 H   0  0  0  0  0  0  0  0  0  0  0  0
   62.0998   30.2324   46.8590 H   0  0  0  0  0  0  0  0  0  0  0  0
   60.1323   28.9590   46.0192 H   0  0  0  0  0  0  0  0  0  0  0  0
   57.9369   27.8599   46.4845 H   0  0  0  0  0  0  0  0  0  0  0  0
   57.6831   32.5166   46.3754 H   0  0  0  0  0  0  0  0  0  0  0  0
   59.6555   33.7841   47.2150 H   0  0  0  0  0  0  0  0  0  0  0  0
   61.5105   31.4796   49.5740 H   0  0  0  0  0  0  0  0  0  0  0  0
   62.8094   30.1970   49.6638 H   0  0  0  0  0  0  0  0  0  0  0  0
   62.1105   31.3667   51.8676 H   0  0  0  0  0  0  0  0  0  0  0  0
   63.8661   31.2110   51.4880 H   0  0  0  0  0  0  0  0  0  0  0  0
  1  2  1  0
  2  3  1  0
  3  4  1  0
  4  5  1  0
  5  6  1  0
  6  7  2  0
  6  8  2  0
  6  9  1  0
  9 10  2  0
 10 11  1  0
 11 12  2  0
 12 13  1  0
 13 14  2  0
 14 15  1  0
 15 16  1  0
 16 17  2  0
 16 18  1  0
 12 19  1  0
 19 20  2  0
  5 21  1  0
 21 22  1  0
 22  2  1  0
 20  9  1  0
 18 13  1  0
  1 23  1  0
  1 24  1  0
  1 25  1  0
  2 26  1  0
  3 27  1  0
  3 28  1  0
  4 29  1  0
  4 30  1  0
 10 31  1  0
 11 32  1  0
 14 33  1  0
 19 34  1  0
 20 35  1  0
 21 36  1  0
 21 37  1  0
 22 38  1  0
 22 39  1  0
M  CHG  3   2   1  15  -1  18  -1
M  END
>  <UniqueID>  (44) 
41

>  <SMILES>  (44) 
C[NH+]1CCN(S(=O)(=O)c2ccc(-c3c[n-]c(=O)[n-]3)cc2)CC1

>  <Energy>  (44) 
81.18241264094445

>  <Genealogy>  (44) 
C[NH+]1CCN(S(=O)(=O)c2ccc(-c3c[n-]c(=O)[n-]3)cc2)CC1 (protonated)
C[NH+]1CCN(S(=O)(=O)c2ccc(-c3c[n-]c(=O)[n-]3)cc2)CC1 (3D coordinates assigned)
C[NH+]1CCN(S(=O)(=O)c2ccc(-c3c[n-]c(=O)[n-]3)cc2)CC1 (nonaromatic ring conformer: 81.18241264094445 kcal/mol)

>  <smiles>  (44) 
CN1CCN(S(=O)(=O)c2ccc(-c3c[nH]c(=O)[nH]3)cc2)CC1

>  <score_type>  (44) 
oracle

>  <origin>  (44) 
adg

>  <m_score__min__energy>  (44) 
-9.7699999999999996

>  <m_primary>  (44) 
energy

$$$$
44:0
     RDKit          3D

 51 53  0  0  0  0  0  0  0  0999 V2000
   58.2960   33.2850   47.7450 C   0  0  0  0  0  0  0  0  0  0  0  0
   58.1210   32.9150   46.3030 C   0  0  0  0  0  0  0  0  0  0  0  0
   57.3740   31.8220   45.9860 N   0  0  0  0  0  0  0  0  0  0  0  0
   57.1710   31.4250   44.6980 C   0  0  0  0  0  0  0  0  0  0  0  0
   56.4620   30.3690   44.4170 N   0  0  0  0  0  0  0  0  0  0  0  0
   56.8400   28.9980   44.6290 C   0  0  0  0  0  0  0  0  0  0  0  0
   56.3840   28.3350   45.6000 O   0  0  0  0  0  0  0  0  0  0  0  0
   57.7610   28.3310   43.6530 C   0  0  0  0  0  0  0  0  0  0  0  0
   59.1360   28.3330   44.1540 N   0  0  0  0  0  0  0  0  0  0  0  0
   59.4990   28.1620   45.5390 C   0  0  0  0  0  0  0  0  0  0  0  0
   59.7500   26.8700   46.0260 C   0  0  0  0  0  0  0  0  0  0  0  0
   60.1090   26.6710   47.3620 C   0  0  0  0  0  0  0  0  0  0  0  0
   60.2230   27.7610   48.2270 C   0  0  0  0  0  0  0  0  0  0  0  0
   59.9740   29.0590   47.7600 C   0  0  0  0  0  0  0  0  0  0  0  0
   60.1090   30.4400   48.8500 S   0  0  0  0  0  0  0  0  0  0  0  0
   60.8170   30.0060   50.1040 O   0  0  0  0  0  0  0  0  0  0  0  0
   58.7310   30.9090   49.2340 O   0  0  0  0  0  0  0  0  0  0  0  0
   60.9880   31.7590   48.1120 N   0  0  0  0  0  0  0  0  0  0  0  0
   62.2210   31.2540   47.4620 C   0  0  0  0  0  0  0  0  0  0  0  0
   63.2470   32.3690   47.1580 C   0  0  0  0  0  0  0  0  0  0  0  0
   62.5940   33.7530   47.1240 C   0  0  0  0  0  0  0  0  0  0  0  0
   61.8740   34.0610   48.4480 C   0  0  0  0  0  0  0  0  0  0  0  0
   61.2900   32.7990   49.1140 C   0  0  0  0  0  0  0  0  0  0  0  0
   59.6120   29.2560   46.4190 C   0  0  0  0  0  0  0  0  0  0  0  0
   57.7490   32.1560   43.6540 C   0  0  0  0  0  0  0  0  0  0  0  0
   58.5200   33.2810   43.9490 C   0  0  0  0  0  0  0  0  0  0  0  0
   58.7140   33.6720   45.2770 C   0  0  0  0  0  0  0  0  0  0  0  0
   59.6920   35.0940   45.6180 Cl  0  0  0  0  0  0  0  0  0  0  0  0
   57.9122   32.4736   48.3809 H   0  0  0  0  0  0  0  0  0  0  0  0
   59.3640   33.4424   47.9561 H   0  0  0  0  0  0  0  0  0  0  0  0
   57.7402   34.2105   47.9561 H   0  0  0  0  0  0  0  0  0  0  0  0
   57.4340   27.2919   43.5003 H   0  0  0  0  0  0  0  0  0  0  0  0
   57.7302   28.8847   42.7030 H   0  0  0  0  0  0  0  0  0  0  0  0
   59.8980   28.4730   43.4530 H   0  0  0  0  0  0  0  0  0  0  0  0
   59.6634   26.0063   45.3503 H   0  0  0  0  0  0  0  0  0  0  0  0
   60.3021   25.6535   47.7327 H   0  0  0  0  0  0  0  0  0  0  0  0
   60.5088   27.6009   49.2771 H   0  0  0  0  0  0  0  0  0  0  0  0
   60.3570   32.1650   47.3810 H   0  0  0  0  0  0  0  0  0  0  0  0
   62.6921   30.5175   48.1296 H   0  0  0  0  0  0  0  0  0  0  0  0
   61.9259   30.8091   46.5003 H   0  0  0  0  0  0  0  0  0  0  0  0
   64.0224   32.3609   47.9382 H   0  0  0  0  0  0  0  0  0  0  0  0
   63.6798   32.1722   46.1661 H   0  0  0  0  0  0  0  0  0  0  0  0
   63.3713   34.5124   46.9532 H   0  0  0  0  0  0  0  0  0  0  0  0
   61.8519   33.7682   46.3122 H   0  0  0  0  0  0  0  0  0  0  0  0
   62.5927   34.5239   49.1402 H   0  0  0  0  0  0  0  0  0  0  0  0
   61.0355   34.7360   48.2216 H   0  0  0  0  0  0  0  0  0  0  0  0
   62.0208   32.4023   49.8340 H   0  0  0  0  0  0  0  0  0  0  0  0
   60.3547   33.0746   49.6232 H   0  0  0  0  0  0  0  0  0  0  0  0
   59.4147   30.2738   46.0515 H   0  0  0  0  0  0  0  0  0  0  0  0
   57.5968   31.8463   42.6095 H   0  0  0  0  0  0  0  0  0  0  0  0
   58.9765   33.8619   43.1341 H   0  0  0  0  0  0  0  0  0  0  0  0
  1  2  1  0
  2  3  1  0
  3  4  1  0
  4  5  2  3
  5  6  1  0
  6  7  2  0
  6  8  1  0
  8  9  1  0
  9 10  1  0
 10 11  2  0
 11 12  1  0
 12 13  2  0
 13 14  1  0
 14 15  1  0
 15 16  2  0
 15 17  2  0
 15 18  1  0
 18 19  1  0
 19 20  1  0
 20 21  1  0
 21 22  1  0
 22 23  1  0
 14 24  2  0
  4 25  1  0
 25 26  2  0
 26 27  1  0
 27 28  1  0
 27  2  2  0
 24 10  1  0
 23 18  1  0
  1 29  1  0
  1 30  1  0
  1 31  1  0
  8 32  1  0
  8 33  1  0
  9 34  1  0
 11 35  1  0
 12 36  1  0
 13 37  1  0
 18 38  1  0
 19 39  1  0
 19 40  1  0
 20 41  1  0
 20 42  1  0
 21 43  1  0
 21 44  1  0
 22 45  1  0
 22 46  1  0
 23 47  1  0
 23 48  1  0
 24 49  1  0
 25 50  1  0
 26 51  1  0
M  CHG  2   3  -1  18   1
M  END
>  <UniqueID>  (45) 
42

>  <SMILES>  (45) 
Cc1[n-]c(=NC(=O)CNc2cccc(S(=O)(=O)[NH+]3CCCCC3)c2)ccc1Cl

>  <Energy>  (45) 
55.39434257974248

>  <Genealogy>  (45) 
Cc1[n-]c(=NC(=O)CNc2cccc(S(=O)(=O)[NH+]3CCCCC3)c2)ccc1Cl (protonated)
Cc1[n-]c(=NC(=O)CNc2cccc(S(=O)(=O)[NH+]3CCCCC3)c2)ccc1Cl (3D coordinates assigned)
Cc1[n-]c(=NC(=O)CNc2cccc(S(=O)(=O)[NH+]3CCCCC3)c2)ccc1Cl (nonaromatic ring conformer: 55.39434257974248 kcal/mol)

>  <smiles>  (45) 
Cc1[nH]c(=NC(=O)CNc2cccc(S(=O)(=O)N3CCCCC3)c2)ccc1Cl

>  <score_type>  (45) 
oracle

>  <origin>  (45) 
adg

>  <m_score__min__energy>  (45) 
-10.449999999999999

>  <m_primary>  (45) 
energy

$$$$
45:0
     RDKit          3D

 69 73  0  0  0  0  0  0  0  0999 V2000
   61.3244   24.1309   51.9453 H   0  0  0  0  0  0  0  0  0  0  0  0
   61.4310   25.2250   51.9050 C   0  0  0  0  0  0  0  0  0  0  0  0
   60.4040   26.0750   52.1200 N   0  0  0  0  0  0  0  0  0  0  0  0
   60.9630   27.2900   51.9850 C   0  0  0  0  0  0  0  0  0  0  0  0
   60.2140   28.5830   52.1180 C   0  0  0  0  0  0  0  0  0  0  0  0
   60.9050   29.3573   52.4827 H   0  0  0  0  0  0  0  0  0  0  0  0
   59.3852   28.4235   52.8235 H   0  0  0  0  0  0  0  0  0  0  0  0
   59.6120   29.0460   50.7740 C   0  0  2  0  0  0  0  0  0  0  0  0
   58.9096   28.2623   50.4539 H   0  0  0  0  0  0  0  0  0  0  0  0
   60.6840   29.2360   49.8000 N   0  0  0  0  0  0  0  0  0  0  0  0
   60.7880   28.5410   48.5520 C   0  0  0  0  0  0  0  0  0  0  0  0
   60.9620   27.2920   48.5370 O   0  0  0  0  0  0  0  0  0  0  0  0
   60.6810   29.2860   47.2790 C   0  0  0  0  0  0  0  0  0  0  0  0
   60.7680   30.5880   47.3270 N   0  0  0  0  0  0  0  0  0  0  0  0
   61.9440   31.4070   47.2450 C   0  0  0  0  0  0  0  0  0  0  0  0
   63.0220   30.9370   46.7910 O   0  0  0  0  0  0  0  0  0  0  0  0
   61.9280   32.7680   47.8800 C   0  0  0  0  0  0  0  0  0  0  0  0
   61.5483   33.4935   47.1455 H   0  0  0  0  0  0  0  0  0  0  0  0
   61.2830   32.7098   48.7692 H   0  0  0  0  0  0  0  0  0  0  0  0
   63.3210   33.2270   48.3490 C   0  0  0  0  0  0  0  0  0  0  0  0
   64.0131   33.1877   47.4949 H   0  0  0  0  0  0  0  0  0  0  0  0
   63.2254   34.2507   48.7400 H   0  0  0  0  0  0  0  0  0  0  0  0
   63.8650   32.3570   49.4560 C   0  0  0  0  0  0  0  0  0  0  0  0
   63.0080   31.5270   50.2010 C   0  0  0  0  0  0  0  0  0  0  0  0
   61.9334   31.4985   49.9677 H   0  0  0  0  0  0  0  0  0  0  0  0
   63.5170   30.7380   51.2370 C   0  0  0  0  0  0  0  0  0  0  0  0
   62.8417   30.0933   51.8187 H   0  0  0  0  0  0  0  0  0  0  0  0
   64.8830   30.7670   51.5350 C   0  0  0  0  0  0  0  0  0  0  0  0
   65.2810   30.1460   52.3511 H   0  0  0  0  0  0  0  0  0  0  0  0
   65.7430   31.5850   50.7960 C   0  0  0  0  0  0  0  0  0  0  0  0
   66.8178   31.6047   51.0290 H   0  0  0  0  0  0  0  0  0  0  0  0
   65.2380   32.3780   49.7610 C   0  0  0  0  0  0  0  0  0  0  0  0
   65.9175   33.0212   49.1826 H   0  0  0  0  0  0  0  0  0  0  0  0
   60.3550   28.5230   46.0080 C   0  0  0  0  0  0  0  0  0  0  0  0
   60.5124   29.1808   45.1405 H   0  0  0  0  0  0  0  0  0  0  0  0
   61.0133   27.6442   45.9421 H   0  0  0  0  0  0  0  0  0  0  0  0
   58.9220   28.0580   46.0240 C   0  0  0  0  0  0  0  0  0  0  0  0
   57.9350   28.7540   45.3030 C   0  0  0  0  0  0  0  0  0  0  0  0
   58.2018   29.6653   44.7477 H   0  0  0  0  0  0  0  0  0  0  0  0
   56.6160   28.2910   45.2900 C   0  0  0  0  0  0  0  0  0  0  0  0
   55.8478   28.8384   44.7242 H   0  0  0  0  0  0  0  0  0  0  0  0
   56.2710   27.1330   45.9950 C   0  0  0  0  0  0  0  0  0  0  0  0
   54.9610   26.6610   45.9610 O   0  0  0  0  0  0  0  0  0  0  0  0
   57.2430   26.4450   46.7260 C   0  0  0  0  0  0  0  0  0  0  0  0
   56.9689   25.5414   47.2903 H   0  0  0  0  0  0  0  0  0  0  0  0
   58.5640   26.9040   46.7410 C   0  0  0  0  0  0  0  0  0  0  0  0
   59.3264   26.3589   47.3169 H   0  0  0  0  0  0  0  0  0  0  0  0
   58.8480   30.3420   50.8910 C   0  0  0  0  0  0  0  0  0  0  0  0
   57.5930   30.3500   51.0050 O   0  0  0  0  0  0  0  0  0  0  0  0
   59.5660   31.5800   50.8340 N   0  0  0  0  0  0  0  0  0  0  0  0
   58.9200   32.8580   50.5760 C   0  0  0  0  0  0  0  0  0  0  0  0
   57.8968   32.8409   50.9793 H   0  0  0  0  0  0  0  0  0  0  0  0
   59.4891   33.6642   51.0620 H   0  0  0  0  0  0  0  0  0  0  0  0
   58.8720   33.0960   49.1040 C   0  0  0  0  0  0  0  0  0  0  0  0
   58.2820   32.2280   48.2390 N   0  0  0  0  0  0  0  0  0  0  0  0
   58.4260   32.8530   47.0610 C   0  0  0  0  0  0  0  0  0  0  0  0
   58.0130   32.4120   45.8060 C   0  0  0  0  0  0  0  0  0  0  0  0
   57.4974   31.4482   45.6822 H   0  0  0  0  0  0  0  0  0  0  0  0
   58.2790   33.2440   44.7010 C   0  0  0  0  0  0  0  0  0  0  0  0
   57.9724   32.9290   43.6927 H   0  0  0  0  0  0  0  0  0  0  0  0
   58.9380   34.4820   44.8810 C   0  0  0  0  0  0  0  0  0  0  0  0
   59.1394   35.1260   44.0123 H   0  0  0  0  0  0  0  0  0  0  0  0
   59.3380   34.8950   46.1670 C   0  0  0  0  0  0  0  0  0  0  0  0
   59.8495   35.8563   46.3228 H   0  0  0  0  0  0  0  0  0  0  0  0
   59.0630   34.0430   47.2350 C   0  0  0  0  0  0  0  0  0  0  0  0
   59.3550   34.2300   48.5300 N   0  0  0  0  0  0  0  0  0  0  0  0
   62.2980   27.1520   51.6860 C   0  0  0  0  0  0  0  0  0  0  0  0
   63.0036   27.9784   51.5154 H   0  0  0  0  0  0  0  0  0  0  0  0
   62.6010   25.8430   51.6360 N   0  0  0  0  0  0  0  0  0  0  0  0
  1  2  1  0
  2  3  2  0
  3  4  1  0
  4  5  1  0
  5  6  1  0
  5  7  1  0
  5  8  1  0
  8  9  1  6
  8 10  1  0
 10 11  1  0
 11 12  2  0
 11 13  1  0
 13 14  2  0
 14 15  1  0
 15 16  2  0
 15 17  1  0
 17 18  1  0
 17 19  1  0
 17 20  1  0
 20 21  1  0
 20 22  1  0
 20 23  1  0
 23 24  2  0
 24 25  1  0
 24 26  1  0
 26 27  1  0
 26 28  2  0
 28 29  1  0
 28 30  1  0
 30 31  1  0
 30 32  2  0
 32 33  1  0
 13 34  1  0
 34 35  1  0
 34 36  1  0
 34 37  1  0
 37 38  2  0
 38 39  1  0
 38 40  1  0
 40 41  1  0
 40 42  2  0
 42 43  1  0
 42 44  1  0
 44 45  1  0
 44 46  2  0
 46 47  1  0
  8 48  1  0
 48 49  2  0
 48 50  1  0
 50 51  1  0
 51 52  1  0
 51 53  1  0
 51 54  1  0
 54 55  2  0
 55 56  1  0
 56 57  2  0
 57 58  1  0
 57 59  1  0
 59 60  1  0
 59 61  2  0
 61 62  1  0
 61 63  1  0
 63 64  1  0
 63 65  2  0
 65 66  1  0
  4 67  2  0
 67 68  1  0
 67 69  1  0
 69  2  1  0
 32 23  1  0
 46 37  1  0
 66 54  1  0
 65 56  1  0
M  CHG  5  10  -1  43  -1  50  -1  66  -1  69  -1
M  END
>  <UniqueID>  (46) 
43

>  <SMILES>  (46) 
O=C(CCc1ccccc1)/N=C(\Cc1ccc([O-])cc1)C(=O)[N-][C@@H](Cc1c[n-]cn1)C(=O)[N-]Cc1nc2ccccc2[n-]1

>  <Energy>  (46) 
132.8007261239576

>  <Genealogy>  (46) 
O=C(CCc1ccccc1)N=C(Cc1ccc([O-])cc1)C(=O)[N-]C(Cc1c[n-]cn1)C(=O)[N-]Cc1nc2ccccc2[n-]1 (protonated)
O=C(CCc1ccccc1)N=C(Cc1ccc([O-])cc1)C(=O)[N-][C@@H](Cc1c[n-]cn1)C(=O)[N-]Cc1nc2ccccc2[n-]1 (chirality)
O=C(CCc1ccccc1)/N=C(\Cc1ccc([O-])cc1)C(=O)[N-][C@@H](Cc1c[n-]cn1)C(=O)[N-]Cc1nc2ccccc2[n-]1 (cis-trans isomerization)
O=C(CCc1ccccc1)/N=C(\Cc1ccc([O-])cc1)C(=O)[N-][C@@H](Cc1c[n-]cn1)C(=O)[N-]Cc1nc2ccccc2[n-]1 (3D coordinates assigned)
O=C(CCc1ccccc1)/N=C(\Cc1ccc([O-])cc1)C(=O)[N-][C@@H](Cc1c[n-]cn1)C(=O)[N-]Cc1nc2ccccc2[n-]1 (optimized conformer: 132.8007261239576 kcal/mol)

>  <smiles>  (46) 
O=C(CCc1ccccc1)N=C(Cc1ccc(O)cc1)C(=O)NC(Cc1c[nH]cn1)C(=O)NCc1nc2ccccc2[nH]1

>  <score_type>  (46) 
oracle

>  <origin>  (46) 
adg

>  <m_score__min__energy>  (46) 
-16.780000000000001

>  <m_primary>  (46) 
energy

$$$$
46:0
     RDKit          3D

 19 19  0  0  1  0  0  0  0  0999 V2000
   59.3770   34.8610   45.6540 C   0  0  0  0  0  0  0  0  0  0  0  0
   58.1450   34.0710   45.2460 C   0  0  0  0  0  0  0  0  0  0  0  0
   58.5280   32.6870   45.0130 N   0  0  0  0  0  0  0  0  0  0  0  0
   57.7930   31.8760   44.3290 C   0  0  0  0  0  0  0  0  0  0  0  0
   57.0150   30.9600   44.9470 N   0  0  0  0  0  0  0  0  0  0  0  0
   56.2400   30.1010   44.2890 C   0  0  0  0  0  0  0  0  0  0  0  0
   55.5200   29.2530   44.8860 O   0  0  0  0  0  0  0  0  0  0  0  0
   56.2390   30.1580   42.9470 N   0  0  0  0  0  0  0  0  0  0  0  0
   56.9680   31.0220   42.2570 C   0  0  0  0  0  0  0  0  0  0  0  0
   57.7660   31.9040   42.9520 C   0  0  0  0  0  0  0  0  0  0  0  0
   58.5330   32.8100   42.2730 F   0  0  0  0  0  0  0  0  0  0  0  0
   59.4399   34.9013   46.7515 H   0  0  0  0  0  0  0  0  0  0  0  0
   60.2764   34.3708   45.2530 H   0  0  0  0  0  0  0  0  0  0  0  0
   59.3067   35.8829   45.2530 H   0  0  0  0  0  0  0  0  0  0  0  0
   57.3947   34.1162   46.0492 H   0  0  0  0  0  0  0  0  0  0  0  0
   57.7157   34.4983   44.3278 H   0  0  0  0  0  0  0  0  0  0  0  0
   57.0080   30.9080   45.9910 H   0  0  0  0  0  0  0  0  0  0  0  0
   55.6360   29.4900   42.4270 H   0  0  0  0  0  0  0  0  0  0  0  0
   56.9371   31.0350   41.1575 H   0  0  0  0  0  0  0  0  0  0  0  0
  1  2  1  0
  2  3  1  0
  3  4  2  0
  4  5  1  0
  5  6  1  0
  6  7  2  0
  6  8  1  0
  8  9  1  0
  9 10  2  0
 10 11  1  0
 10  4  1  0
  1 12  1  0
  1 13  1  0
  1 14  1  0
  2 15  1  0
  2 16  1  0
  5 17  1  0
  8 18  1  0
  9 19  1  0
M  END
>  <smiles>  (47) 
CCN=c1[nH]c(=O)[nH]cc1F

>  <score_type>  (47) 
oracle

>  <origin>  (47) 
adg

>  <m_score__min__energy>  (47) 
-4.4699999999999998

>  <m_primary>  (47) 
energy

$$$$
47:0
     RDKit          3D

 17 17  0  0  0  0  0  0  0  0999 V2000
   57.4180   24.2690   44.8730 C   0  0  0  0  0  0  0  0  0  0  0  0
   57.2810   25.1800   46.0870 C   0  0  0  0  0  0  0  0  0  0  0  0
   57.1930   26.6280   45.6640 C   0  0  0  0  0  0  0  0  0  0  0  0
   55.9570   27.2950   45.6210 C   0  0  0  0  0  0  0  0  0  0  0  0
   54.7870   26.6390   45.9940 O   0  0  0  0  0  0  0  0  0  0  0  0
   55.8940   28.5910   45.2110 N   0  0  0  0  0  0  0  0  0  0  0  0
   57.0150   29.2570   44.8260 C   0  0  0  0  0  0  0  0  0  0  0  0
   56.9270   30.8140   44.3340 S   0  0  0  0  0  0  0  0  0  0  0  0
   58.2180   28.6290   44.8420 N   0  0  0  0  0  0  0  0  0  0  0  0
   58.3320   27.3370   45.2440 C   0  0  0  0  0  0  0  0  0  0  0  0
   59.4670   26.7870   45.2330 O   0  0  0  0  0  0  0  0  0  0  0  0
   57.5738   23.2329   45.2078 H   0  0  0  0  0  0  0  0  0  0  0  0
   56.5014   24.3247   44.2674 H   0  0  0  0  0  0  0  0  0  0  0  0
   58.2777   24.5919   44.2674 H   0  0  0  0  0  0  0  0  0  0  0  0
   56.3691   24.9097   46.6397 H   0  0  0  0  0  0  0  0  0  0  0  0
   58.1676   25.0524   46.7254 H   0  0  0  0  0  0  0  0  0  0  0  0
   54.9650   29.0720   45.1910 H   0  0  0  0  0  0  0  0  0  0  0  0
  1  2  1  0
  2  3  1  0
  3  4  2  0
  4  5  1  0
  4  6  1  0
  6  7  1  0
  7  8  2  0
  7  9  1  0
  9 10  1  0
 10 11  2  0
 10  3  1  0
  1 12  1  0
  1 13  1  0
  1 14  1  0
  2 15  1  0
  2 16  1  0
  6 17  1  0
M  CHG  2   5  -1   9  -1
M  END
>  <UniqueID>  (48) 
44

>  <SMILES>  (48) 
CCc1c([O-])[nH]c(=S)[n-]c1=O

>  <Energy>  (48) 
14.467221256096614

>  <Genealogy>  (48) 
CCc1c([O-])[nH]c(=S)[n-]c1=O (protonated)
CCc1c([O-])[nH]c(=S)[n-]c1=O (3D coordinates assigned)
CCc1c([O-])[nH]c(=S)[n-]c1=O (optimized conformer: 14.467221256096614 kcal/mol)

>  <smiles>  (48) 
CCc1c(O)[nH]c(=S)[nH]c1=O

>  <score_type>  (48) 
oracle

>  <origin>  (48) 
adg

>  <m_score__min__energy>  (48) 
-11.59

>  <m_primary>  (48) 
energy

$$$$
48:0
     RDKit          3D

 56 58  0  0  0  0  0  0  0  0999 V2000
   58.3050   32.0360   49.8810 C   0  0  0  0  0  0  0  0  0  0  0  0
   58.8500   31.2650   48.8150 O   0  0  0  0  0  0  0  0  0  0  0  0
   59.4710   30.0160   48.9680 C   0  0  0  0  0  0  0  0  0  0  0  0
   60.4100   29.7870   49.9950 C   0  0  0  0  0  0  0  0  0  0  0  0
   61.0330   28.5460   50.1240 C   0  0  0  0  0  0  0  0  0  0  0  0
   60.7330   27.5180   49.2310 C   0  0  0  0  0  0  0  0  0  0  0  0
   59.8140   27.7300   48.2030 C   0  0  0  0  0  0  0  0  0  0  0  0
   59.1670   28.9680   48.0670 C   0  0  0  0  0  0  0  0  0  0  0  0
   58.1910   29.1190   47.0160 N   0  0  0  0  0  0  0  0  0  0  0  0
   57.9400   28.1150   45.9760 C   0  0  0  0  0  0  0  0  0  0  0  0
   56.4930   28.1090   45.5930 C   0  0  0  0  0  0  0  0  0  0  0  0
   55.7790   27.1020   45.8480 O   0  0  0  0  0  0  0  0  0  0  0  0
   55.9330   29.2560   44.9480 N   0  0  0  0  0  0  0  0  0  0  0  0
   56.6540   30.3120   44.3000 C   0  0  0  0  0  0  0  0  0  0  0  0
   56.6990   30.4350   42.8990 C   0  0  0  0  0  0  0  0  0  0  0  0
   57.3590   31.5190   42.3090 C   0  0  0  0  0  0  0  0  0  0  0  0
   57.9540   32.4990   43.1080 C   0  0  0  0  0  0  0  0  0  0  0  0
   57.8990   32.3950   44.5050 C   0  0  0  0  0  0  0  0  0  0  0  0
   58.6170   33.6330   45.5310 S   0  0  0  0  0  0  0  0  0  0  0  0
   57.5150   34.4290   46.1720 O   0  0  0  0  0  0  0  0  0  0  0  0
   59.4360   34.5850   44.7050 O   0  0  0  0  0  0  0  0  0  0  0  0
   59.5690   32.8910   46.7910 N   0  0  0  0  0  0  0  0  0  0  0  0
   60.7590   33.2580   47.1990 C   0  0  0  0  0  0  0  0  0  0  0  0
   61.1360   33.1590   48.6740 C   0  0  0  0  0  0  0  0  0  0  0  0
   62.4020   33.9200   49.0860 C   0  0  0  0  0  0  0  0  0  0  0  0
   63.6890   33.1630   48.7180 C   0  0  0  0  0  0  0  0  0  0  0  0
   63.7510   32.7330   47.2460 C   0  0  0  0  0  0  0  0  0  0  0  0
   63.1640   33.7970   46.3110 C   0  0  0  0  0  0  0  0  0  0  0  0
   61.7040   33.6950   46.1900 N   0  0  0  0  0  0  0  0  0  0  0  0
   57.2520   31.2990   45.0940 C   0  0  0  0  0  0  0  0  0  0  0  0
   58.6128   31.6006   50.8431 H   0  0  0  0  0  0  0  0  0  0  0  0
   58.6740   33.0699   49.8117 H   0  0  0  0  0  0  0  0  0  0  0  0
   57.2072   32.0331   49.8117 H   0  0  0  0  0  0  0  0  0  0  0  0
   60.6533   30.5948   50.7009 H   0  0  0  0  0  0  0  0  0  0  0  0
   61.7616   28.3780   50.9308 H   0  0  0  0  0  0  0  0  0  0  0  0
   61.2217   26.5383   49.3372 H   0  0  0  0  0  0  0  0  0  0  0  0
   59.5945   26.9194   47.4925 H   0  0  0  0  0  0  0  0  0  0  0  0
   57.8060   30.0780   46.8410 H   0  0  0  0  0  0  0  0  0  0  0  0
   58.5481   28.3511   45.0903 H   0  0  0  0  0  0  0  0  0  0  0  0
   58.2092   27.1225   46.3666 H   0  0  0  0  0  0  0  0  0  0  0  0
   56.2142   29.6773   42.2659 H   0  0  0  0  0  0  0  0  0  0  0  0
   57.4095   31.5998   41.2131 H   0  0  0  0  0  0  0  0  0  0  0  0
   58.4660   33.3529   42.6403 H   0  0  0  0  0  0  0  0  0  0  0  0
   59.1010   32.0820   47.2630 H   0  0  0  0  0  0  0  0  0  0  0  0
   60.2964   33.5533   49.2653 H   0  0  0  0  0  0  0  0  0  0  0  0
   61.3496   32.0960   48.8597 H   0  0  0  0  0  0  0  0  0  0  0  0
   62.4086   34.8954   48.5776 H   0  0  0  0  0  0  0  0  0  0  0  0
   62.3824   34.0347   50.1798 H   0  0  0  0  0  0  0  0  0  0  0  0
   64.5485   33.8175   48.9253 H   0  0  0  0  0  0  0  0  0  0  0  0
   63.7063   32.2443   49.3228 H   0  0  0  0  0  0  0  0  0  0  0  0
   64.8018   32.5593   46.9708 H   0  0  0  0  0  0  0  0  0  0  0  0
   63.1534   31.8162   47.1346 H   0  0  0  0  0  0  0  0  0  0  0  0
   63.4167   34.7920   46.7061 H   0  0  0  0  0  0  0  0  0  0  0  0
   63.5944   33.6378   45.3113 H   0  0  0  0  0  0  0  0  0  0  0  0
   61.3300   33.8890   45.2330 H   0  0  0  0  0  0  0  0  0  0  0  0
   57.2137   31.2136   46.1900 H   0  0  0  0  0  0  0  0  0  0  0  0
  1  2  1  0
  2  3  1  0
  3  4  2  0
  4  5  1  0
  5  6  2  0
  6  7  1  0
  7  8  2  0
  8  9  1  0
  9 10  1  0
 10 11  1  0
 11 12  2  0
 11 13  1  0
 13 14  1  0
 14 15  2  0
 15 16  1  0
 16 17  2  0
 17 18  1  0
 18 19  1  0
 19 20  2  0
 19 21  2  0
 19 22  1  0
 22 23  2  3
 23 24  1  0
 24 25  1  0
 25 26  1  0
 26 27  1  0
 27 28  1  0
 28 29  1  0
 18 30  2  0
  8  3  1  0
 30 14  1  0
 29 23  1  0
  1 31  1  0
  1 32  1  0
  1 33  1  0
  4 34  1  0
  5 35  1  0
  6 36  1  0
  7 37  1  0
  9 38  1  0
 10 39  1  0
 10 40  1  0
 15 41  1  0
 16 42  1  0
 17 43  1  0
 22 44  1  0
 24 45  1  0
 24 46  1  0
 25 47  1  0
 25 48  1  0
 26 49  1  0
 26 50  1  0
 27 51  1  0
 27 52  1  0
 28 53  1  0
 28 54  1  0
 29 55  1  0
 30 56  1  0
M  CHG  2  13  -1  22   1
M  END
>  <UniqueID>  (49) 
45

>  <SMILES>  (49) 
COc1ccccc1NCC(=O)[N-]c1cccc(S(=O)(=O)[NH+]=C2CCCCCN2)c1

>  <Energy>  (49) 
70.8713820793593

>  <Genealogy>  (49) 
COc1ccccc1NCC(=O)[N-]c1cccc(S(=O)(=O)[NH+]=C2CCCCCN2)c1 (protonated)
COc1ccccc1NCC(=O)[N-]c1cccc(S(=O)(=O)[NH+]=C2CCCCCN2)c1 (3D coordinates assigned)
COc1ccccc1NCC(=O)[N-]c1cccc(S(=O)(=O)[NH+]=C2CCCCCN2)c1 (nonaromatic ring conformer: 70.8713820793593 kcal/mol)

>  <smiles>  (49) 
COc1ccccc1NCC(=O)Nc1cccc(S(=O)(=O)N=C2CCCCCN2)c1

>  <score_type>  (49) 
oracle

>  <origin>  (49) 
adg

>  <m_score__min__energy>  (49) 
-6.8499999999999996

>  <m_primary>  (49) 
energy

$$$$
49:0
     RDKit          3D

 46 48  0  0  0  0  0  0  0  0999 V2000
   56.3000   32.0290   45.2350 O   0  0  0  0  0  0  0  0  0  0  0  0
   57.2870   31.6830   44.5270 C   0  0  0  0  0  0  0  0  0  0  0  0
   57.1450   30.5250   43.5890 C   0  0  0  0  0  0  0  0  0  0  0  0
   57.4530   29.2420   44.3170 C   0  0  0  0  0  0  0  0  0  0  0  0
   58.7480   28.7000   44.2510 C   0  0  0  0  0  0  0  0  0  0  0  0
   59.0410   27.4890   44.8830 C   0  0  0  0  0  0  0  0  0  0  0  0
   58.0420   26.8020   45.5770 C   0  0  0  0  0  0  0  0  0  0  0  0
   56.7470   27.3210   45.6340 C   0  0  0  0  0  0  0  0  0  0  0  0
   56.4460   28.5350   45.0050 C   0  0  0  0  0  0  0  0  0  0  0  0
   55.1470   29.0280   45.0660 O   0  0  0  0  0  0  0  0  0  0  0  0
   58.5390   32.3790   44.6310 N   0  0  0  0  0  0  0  0  0  0  0  0
   58.9070   33.1900   45.7590 C   0  0  0  0  0  0  0  0  0  0  0  0
   59.5030   34.4430   45.5450 C   0  0  0  0  0  0  0  0  0  0  0  0
   59.8840   35.2360   46.6300 C   0  0  0  0  0  0  0  0  0  0  0  0
   59.6980   34.7780   47.9370 C   0  0  0  0  0  0  0  0  0  0  0  0
   59.1440   33.5130   48.1640 C   0  0  0  0  0  0  0  0  0  0  0  0
   58.9960   32.8730   49.7970 S   0  0  0  0  0  0  0  0  0  0  0  0
   57.6120   32.3200   49.9730 O   0  0  0  0  0  0  0  0  0  0  0  0
   59.2150   33.9620   50.8120 O   0  0  0  0  0  0  0  0  0  0  0  0
   60.1500   31.5910   50.0390 N   0  0  0  0  0  0  0  0  0  0  0  0
   61.4630   32.1120   50.4230 C   0  0  0  0  0  0  0  0  0  0  0  0
   62.2810   32.4780   49.2110 C   0  0  0  0  0  0  0  0  0  0  0  0
   62.6920   33.8060   49.0030 C   0  0  0  0  0  0  0  0  0  0  0  0
   63.4150   34.1470   47.8550 C   0  0  0  0  0  0  0  0  0  0  0  0
   63.7370   33.1680   46.9130 C   0  0  0  0  0  0  0  0  0  0  0  0
   63.3400   31.8450   47.1170 C   0  0  0  0  0  0  0  0  0  0  0  0
   62.6090   31.4980   48.2590 C   0  0  0  0  0  0  0  0  0  0  0  0
   58.7460   32.7240   47.0760 C   0  0  0  0  0  0  0  0  0  0  0  0
   56.1148   30.4895   43.2050 H   0  0  0  0  0  0  0  0  0  0  0  0
   57.8471   30.6463   42.7510 H   0  0  0  0  0  0  0  0  0  0  0  0
   59.5359   29.2326   43.6982 H   0  0  0  0  0  0  0  0  0  0  0  0
   60.0594   27.0760   44.8341 H   0  0  0  0  0  0  0  0  0  0  0  0
   58.2758   25.8515   46.0789 H   0  0  0  0  0  0  0  0  0  0  0  0
   55.9606   26.7742   46.1749 H   0  0  0  0  0  0  0  0  0  0  0  0
   59.2090   32.3120   43.8300 H   0  0  0  0  0  0  0  0  0  0  0  0
   59.6706   34.8017   44.5187 H   0  0  0  0  0  0  0  0  0  0  0  0
   60.3323   36.2251   46.4548 H   0  0  0  0  0  0  0  0  0  0  0  0
   59.9872   35.4121   48.7880 H   0  0  0  0  0  0  0  0  0  0  0  0
   61.3251   33.0077   51.0464 H   0  0  0  0  0  0  0  0  0  0  0  0
   61.9983   31.3294   50.9806 H   0  0  0  0  0  0  0  0  0  0  0  0
   62.4444   34.5793   49.7451 H   0  0  0  0  0  0  0  0  0  0  0  0
   63.7305   35.1884   47.6941 H   0  0  0  0  0  0  0  0  0  0  0  0
   64.3036   33.4391   46.0099 H   0  0  0  0  0  0  0  0  0  0  0  0
   63.6024   31.0734   46.3782 H   0  0  0  0  0  0  0  0  0  0  0  0
   62.2907   30.4562   48.4115 H   0  0  0  0  0  0  0  0  0  0  0  0
   58.3042   31.7324   47.2538 H   0  0  0  0  0  0  0  0  0  0  0  0
  1  2  2  0
  2  3  1  0
  3  4  1  0
  4  5  2  0
  5  6  1  0
  6  7  2  0
  7  8  1  0
  8  9  2  0
  9 10  1  0
  2 11  1  0
 11 12  1  0
 12 13  2  0
 13 14  1  0
 14 15  2  0
 15 16  1  0
 16 17  1  0
 17 18  2  0
 17 19  2  0
 17 20  1  0
 20 21  1  0
 21 22  1  0
 22 23  2  0
 23 24  1  0
 24 25  2  0
 25 26  1  0
 26 27  2  0
 16 28  2  0
  9  4  1  0
 28 12  1  0
 27 22  1  0
  3 29  1  0
  3 30  1  0
  5 31  1  0
  6 32  1  0
  7 33  1  0
  8 34  1  0
 11 35  1  0
 13 36  1  0
 14 37  1  0
 15 38  1  0
 21 39  1  0
 21 40  1  0
 23 41  1  0
 24 42  1  0
 25 43  1  0
 26 44  1  0
 27 45  1  0
 28 46  1  0
M  CHG  2  10  -1  20  -1
M  END
>  <UniqueID>  (50) 
46

>  <SMILES>  (50) 
O=C(Cc1ccccc1[O-])Nc1cccc(S(=O)(=O)[N-]Cc2ccccc2)c1

>  <Energy>  (50) 
44.06607109984393

>  <Genealogy>  (50) 
O=C(Cc1ccccc1[O-])Nc1cccc(S(=O)(=O)[N-]Cc2ccccc2)c1 (protonated)
O=C(Cc1ccccc1[O-])Nc1cccc(S(=O)(=O)[N-]Cc2ccccc2)c1 (3D coordinates assigned)
O=C(Cc1ccccc1[O-])Nc1cccc(S(=O)(=O)[N-]Cc2ccccc2)c1 (optimized conformer: 44.06607109984393 kcal/mol)

>  <smiles>  (50) 
O=C(Cc1ccccc1O)Nc1cccc(S(=O)(=O)NCc2ccccc2)c1

>  <score_type>  (50) 
oracle

>  <origin>  (50) 
adg

>  <m_score__min__energy>  (50) 
-13.52

>  <m_primary>  (50) 
energy

$$$$
50:0
     RDKit          3D

 56 60  0  0  0  0  0  0  0  0999 V2000
   58.7830   30.0790   47.9510 O   0  0  0  0  0  0  0  0  0  0  0  0
   59.4750   30.8240   48.6960 C   0  0  0  0  0  0  0  0  0  0  0  0
   59.6320   30.4930   50.1470 C   0  0  0  0  0  0  0  0  0  0  0  0
   59.1230   31.6310   50.9900 C   0  0  0  0  0  0  0  0  0  0  0  0
   59.9480   32.7400   51.2550 C   0  0  0  0  0  0  0  0  0  0  0  0
   59.4550   33.8240   51.9900 C   0  0  0  0  0  0  0  0  0  0  0  0
   58.1360   33.8130   52.4590 C   0  0  0  0  0  0  0  0  0  0  0  0
   57.3050   32.7210   52.1860 C   0  0  0  0  0  0  0  0  0  0  0  0
   57.7930   31.6340   51.4500 C   0  0  0  0  0  0  0  0  0  0  0  0
   60.1320   31.9780   48.1610 N   0  0  0  0  0  0  0  0  0  0  0  0
   59.4600   33.2530   47.9300 C   0  0  1  0  0  0  0  0  0  0  0  0
   60.5010   34.3840   47.9710 C   0  0  0  0  0  0  0  0  0  0  0  0
   61.9050   33.8480   47.9540 C   0  0  0  0  0  0  0  0  0  0  0  0
   62.5370   33.2210   46.8850 C   0  0  0  0  0  0  0  0  0  0  0  0
   63.7490   32.7520   47.2590 N   0  0  0  0  0  0  0  0  0  0  0  0
   63.8820   33.0640   48.5600 C   0  0  0  0  0  0  0  0  0  0  0  0
   64.9520   32.7500   49.3980 C   0  0  0  0  0  0  0  0  0  0  0  0
   64.8670   33.1420   50.7470 C   0  0  0  0  0  0  0  0  0  0  0  0
   63.7310   33.8320   51.2220 C   0  0  0  0  0  0  0  0  0  0  0  0
   62.6680   34.1380   50.3530 C   0  0  0  0  0  0  0  0  0  0  0  0
   62.7780   33.7340   49.0210 C   0  0  0  0  0  0  0  0  0  0  0  0
   58.7480   33.2260   46.6010 C   0  0  0  0  0  0  0  0  0  0  0  0
   58.1820   34.3170   45.9620 C   0  0  0  0  0  0  0  0  0  0  0  0
   57.5070   33.8180   44.8660 C   0  0  0  0  0  0  0  0  0  0  0  0
   57.6890   32.4450   44.8860 C   0  0  0  0  0  0  0  0  0  0  0  0
   57.0760   31.4750   43.9570 C   0  0  0  0  0  0  0  0  0  0  0  0
   57.2630   31.6040   42.7180 O   0  0  0  0  0  0  0  0  0  0  0  0
   56.3470   30.3380   44.4330 N   0  0  0  0  0  0  0  0  0  0  0  0
   56.8750   29.2470   44.9050 C   0  0  0  0  0  0  0  0  0  0  0  0
   56.1840   28.1320   45.2390 N   0  0  0  0  0  0  0  0  0  0  0  0
   57.0030   27.1320   45.6660 C   0  0  0  0  0  0  0  0  0  0  0  0
   58.3590   27.4490   45.6670 C   0  0  0  0  0  0  0  0  0  0  0  0
   58.5280   29.0310   45.1080 S   0  0  0  0  0  0  0  0  0  0  0  0
   58.4410   32.0910   45.9460 N   0  0  0  0  0  0  0  0  0  0  0  0
   59.0584   29.5832   50.3777 H   0  0  0  0  0  0  0  0  0  0  0  0
   60.6968   30.3271   50.3674 H   0  0  0  0  0  0  0  0  0  0  0  0
   60.9832   32.7548   50.8833 H   0  0  0  0  0  0  0  0  0  0  0  0
   60.1050   34.6863   52.1996 H   0  0  0  0  0  0  0  0  0  0  0  0
   57.7528   34.6632   53.0424 H   0  0  0  0  0  0  0  0  0  0  0  0
   56.2670   32.7162   52.5499 H   0  0  0  0  0  0  0  0  0  0  0  0
   57.1349   30.7802   51.2309 H   0  0  0  0  0  0  0  0  0  0  0  0
   58.7100   33.4288   48.7152 H   0  0  0  0  0  0  0  0  0  0  0  0
   60.3567   35.0333   47.0949 H   0  0  0  0  0  0  0  0  0  0  0  0
   60.3599   34.9463   48.9058 H   0  0  0  0  0  0  0  0  0  0  0  0
   62.1103   33.1207   45.8761 H   0  0  0  0  0  0  0  0  0  0  0  0
   64.4300   32.2310   46.6630 H   0  0  0  0  0  0  0  0  0  0  0  0
   65.8335   32.2135   49.0169 H   0  0  0  0  0  0  0  0  0  0  0  0
   65.6920   32.9089   51.4363 H   0  0  0  0  0  0  0  0  0  0  0  0
   63.6766   34.1325   52.2788 H   0  0  0  0  0  0  0  0  0  0  0  0
   61.7791   34.6780   50.7112 H   0  0  0  0  0  0  0  0  0  0  0  0
   58.2557   35.3712   46.2672 H   0  0  0  0  0  0  0  0  0  0  0  0
   56.9373   34.3963   44.1237 H   0  0  0  0  0  0  0  0  0  0  0  0
   55.1490   28.0190   45.1600 H   0  0  0  0  0  0  0  0  0  0  0  0
   56.6233   26.1502   45.9853 H   0  0  0  0  0  0  0  0  0  0  0  0
   59.1775   26.7833   45.9783 H   0  0  0  0  0  0  0  0  0  0  0  0
   58.7050   31.1190   46.2300 H   0  0  0  0  0  0  0  0  0  0  0  0
  1  2  2  0
  2  3  1  0
  3  4  1  0
  4  5  2  0
  5  6  1  0
  6  7  2  0
  7  8  1  0
  8  9  2  0
  2 10  1  0
 10 11  1  0
 11 12  1  0
 12 13  1  0
 13 14  2  0
 14 15  1  0
 15 16  1  0
 16 17  2  0
 17 18  1  0
 18 19  2  0
 19 20  1  0
 20 21  2  0
 11 22  1  0
 22 23  2  0
 23 24  1  0
 24 25  2  0
 25 26  1  0
 26 27  2  0
 26 28  1  0
 28 29  2  3
 29 30  1  0
 30 31  1  0
 31 32  2  0
 32 33  1  0
 25 34  1  0
  9  4  1  0
 21 13  1  0
 34 22  1  0
 21 16  1  0
 33 29  1  0
  3 35  1  0
  3 36  1  0
  5 37  1  0
  6 38  1  0
  7 39  1  0
  8 40  1  0
  9 41  1  0
 11 42  1  1
 12 43  1  0
 12 44  1  0
 14 45  1  0
 15 46  1  0
 17 47  1  0
 18 48  1  0
 19 49  1  0
 20 50  1  0
 23 51  1  0
 24 52  1  0
 30 53  1  0
 31 54  1  0
 32 55  1  0
 34 56  1  0
M  CHG  1  10  -1
M  END
>  <UniqueID>  (51) 
47

>  <SMILES>  (51) 
O=C(Cc1ccccc1)[N-][C@@H](Cc1c[nH]c2ccccc12)c1ccc(C(=O)N=c2[nH]ccs2)[nH]1

>  <Energy>  (51) 
145.9824517556407

>  <Genealogy>  (51) 
O=C(Cc1ccccc1)[N-]C(Cc1c[nH]c2ccccc12)c1ccc(C(=O)N=c2[nH]ccs2)[nH]1 (protonated)
O=C(Cc1ccccc1)[N-][C@@H](Cc1c[nH]c2ccccc12)c1ccc(C(=O)N=c2[nH]ccs2)[nH]1 (chirality)
O=C(Cc1ccccc1)[N-][C@@H](Cc1c[nH]c2ccccc12)c1ccc(C(=O)N=c2[nH]ccs2)[nH]1 (3D coordinates assigned)
O=C(Cc1ccccc1)[N-][C@@H](Cc1c[nH]c2ccccc12)c1ccc(C(=O)N=c2[nH]ccs2)[nH]1 (optimized conformer: 145.9824517556407 kcal/mol)

>  <smiles>  (51) 
O=C(Cc1ccccc1)NC(Cc1c[nH]c2ccccc12)c1ccc(C(=O)N=c2[nH]ccs2)[nH]1

>  <score_type>  (51) 
oracle

>  <origin>  (51) 
adg

>  <m_score__min__energy>  (51) 
-11.890000000000001

>  <m_primary>  (51) 
energy

$$$$
51:0
     RDKit          3D

 41 44  0  0  0  0  0  0  0  0999 V2000
   59.3769   24.0436   45.7098 H   0  0  0  0  0  0  0  0  0  0  0  0
   58.4370   24.6140   45.7450 C   0  0  0  0  0  0  0  0  0  0  0  0
   58.4170   25.8570   46.2930 N   0  0  0  0  0  0  0  0  0  0  0  0
   57.2860   26.6150   46.3620 C   0  0  0  0  0  0  0  0  0  0  0  0
   57.3930   27.8050   46.8900 N   0  0  0  0  0  0  0  0  0  0  0  0
   58.4690   28.7540   46.8300 C   0  0  0  0  0  0  0  0  0  0  0  0
   59.5490   28.4560   47.3990 O   0  0  0  0  0  0  0  0  0  0  0  0
   58.3900   29.9830   45.9960 C   0  0  0  0  0  0  0  0  0  0  0  0
   57.7660   30.0590   44.7520 C   0  0  0  0  0  0  0  0  0  0  0  0
   57.1690   29.0840   43.9440 C   0  0  0  0  0  0  0  0  0  0  0  0
   57.1166   28.0347   44.2698 H   0  0  0  0  0  0  0  0  0  0  0  0
   56.6380   29.4830   42.7040 C   0  0  0  0  0  0  0  0  0  0  0  0
   56.1487   28.7411   42.0559 H   0  0  0  0  0  0  0  0  0  0  0  0
   56.7280   30.8270   42.2850 C   0  0  0  0  0  0  0  0  0  0  0  0
   56.3041   31.1281   41.3156 H   0  0  0  0  0  0  0  0  0  0  0  0
   57.3570   31.7830   43.1010 C   0  0  0  0  0  0  0  0  0  0  0  0
   57.4447   32.8321   42.7821 H   0  0  0  0  0  0  0  0  0  0  0  0
   57.8660   31.3590   44.3270 C   0  0  0  0  0  0  0  0  0  0  0  0
   58.5530   32.0440   45.2950 C   0  0  0  0  0  0  0  0  0  0  0  0
   58.8880   33.3920   45.2270 O   0  0  0  0  0  0  0  0  0  0  0  0
   58.8780   31.2230   46.3250 N   0  0  0  0  0  0  0  0  0  0  0  0
   59.6880   31.6650   47.4820 C   0  0  0  0  0  0  0  0  0  0  0  0
   59.7811   30.7499   48.0853 H   0  0  0  0  0  0  0  0  0  0  0  0
   61.0970   32.1550   47.1260 C   0  0  0  0  0  0  0  0  0  0  0  0
   61.8454   31.4019   47.4138 H   0  0  0  0  0  0  0  0  0  0  0  0
   61.1976   32.3256   46.0440 H   0  0  0  0  0  0  0  0  0  0  0  0
   61.3180   33.4460   47.9120 C   0  0  0  0  0  0  0  0  0  0  0  0
   62.2585   33.3865   48.4794 H   0  0  0  0  0  0  0  0  0  0  0  0
   61.3860   34.3107   47.2354 H   0  0  0  0  0  0  0  0  0  0  0  0
   60.1390   33.5940   48.8670 C   0  0  0  0  0  0  0  0  0  0  0  0
   60.4060   33.2127   49.8637 H   0  0  0  0  0  0  0  0  0  0  0  0
   59.8495   34.6487   48.9843 H   0  0  0  0  0  0  0  0  0  0  0  0
   59.0060   32.7730   48.2760 C   0  0  0  0  0  0  0  0  0  0  0  0
   58.3810   32.3468   49.0746 H   0  0  0  0  0  0  0  0  0  0  0  0
   58.3421   33.3823   47.6451 H   0  0  0  0  0  0  0  0  0  0  0  0
   56.0700   26.0610   45.8830 C   0  0  0  0  0  0  0  0  0  0  0  0
   54.8510   26.7130   46.0070 O   0  0  0  0  0  0  0  0  0  0  0  0
   56.0820   24.7900   45.3010 C   0  0  0  0  0  0  0  0  0  0  0  0
   55.1514   24.3628   44.8990 H   0  0  0  0  0  0  0  0  0  0  0  0
   57.2680   24.0620   45.2280 C   0  0  0  0  0  0  0  0  0  0  0  0
   57.2805   23.0631   44.7674 H   0  0  0  0  0  0  0  0  0  0  0  0
  1  2  1  0
  2  3  1  0
  3  4  1  0
  4  5  2  0
  5  6  1  0
  6  7  2  0
  6  8  1  0
  8  9  2  0
  9 10  1  0
 10 11  1  0
 10 12  2  0
 12 13  1  0
 12 14  1  0
 14 15  1  0
 14 16  2  0
 16 17  1  0
 16 18  1  0
 18 19  2  0
 19 20  1  0
 19 21  1  0
 21 22  1  0
 22 23  1  0
 22 24  1  0
 24 25  1  0
 24 26  1  0
 24 27  1  0
 27 28  1  0
 27 29  1  0
 27 30  1  0
 30 31  1  0
 30 32  1  0
 30 33  1  0
 33 34  1  0
 33 35  1  0
  4 36  1  0
 36 37  1  0
 36 38  2  0
 38 39  1  0
 38 40  1  0
 40 41  1  0
 40  2  2  0
 21  8  1  0
 33 22  1  0
 18  9  1  0
M  CHG  3   3  -1  20  -1  37  -1
M  END
>  <UniqueID>  (52) 
48

>  <SMILES>  (52) 
O=C(/N=c1/[n-]cccc1[O-])c1c2ccccc2c([O-])n1C1CCCC1

>  <Energy>  (52) 
101.49015184203142

>  <Genealogy>  (52) 
O=C(N=c1[n-]cccc1[O-])c1c2ccccc2c([O-])n1C1CCCC1 (protonated)
O=C(/N=c1/[n-]cccc1[O-])c1c2ccccc2c([O-])n1C1CCCC1 (cis-trans isomerization)
O=C(/N=c1/[n-]cccc1[O-])c1c2ccccc2c([O-])n1C1CCCC1 (3D coordinates assigned)
O=C(/N=c1/[n-]cccc1[O-])c1c2ccccc2c([O-])n1C1CCCC1 (nonaromatic ring conformer: 101.49015184203142 kcal/mol)

>  <smiles>  (52) 
O=C(N=c1[nH]cccc1O)c1c2ccccc2c(O)n1C1CCCC1

>  <score_type>  (52) 
oracle

>  <origin>  (52) 
adg

>  <m_score__min__energy>  (52) 
-13.6

>  <m_primary>  (52) 
energy

$$$$
52:0
     RDKit          3D

 41 44  0  0  0  0  0  0  0  0999 V2000
   58.6650   31.3730   49.6470 C   0  0  0  0  0  0  0  0  0  0  0  0
   59.8040   31.1860   48.6820 C   0  0  0  0  0  0  0  0  0  0  0  0
   60.9810   31.9260   48.8330 C   0  0  0  0  0  0  0  0  0  0  0  0
   62.0340   31.7490   47.9420 C   0  0  0  0  0  0  0  0  0  0  0  0
   61.9090   30.8330   46.8980 C   0  0  0  0  0  0  0  0  0  0  0  0
   60.7590   30.1050   46.7370 N   0  0  0  0  0  0  0  0  0  0  0  0
   60.6410   29.2070   45.7040 C   0  0  0  0  0  0  0  0  0  0  0  0
   61.5830   29.0310   44.8830 O   0  0  0  0  0  0  0  0  0  0  0  0
   59.4680   28.4660   45.5440 C   0  0  0  0  0  0  0  0  0  0  0  0
   58.4300   28.6390   46.4580 C   0  0  0  0  0  0  0  0  0  0  0  0
   57.1570   27.8490   46.3300 C   0  0  0  0  0  0  0  0  0  0  0  0
   56.5030   28.0970   45.0460 N   0  0  0  0  0  0  0  0  0  0  0  0
   55.9640   29.3420   44.5720 C   0  0  0  0  0  0  0  0  0  0  0  0
   54.7640   29.3600   44.1880 O   0  0  0  0  0  0  0  0  0  0  0  0
   56.7620   30.5890   44.4950 C   0  0  0  0  0  0  0  0  0  0  0  0
   57.2500   31.0470   43.2610 C   0  0  0  0  0  0  0  0  0  0  0  0
   58.0170   32.2140   43.2040 C   0  0  0  0  0  0  0  0  0  0  0  0
   58.4580   32.6110   42.0910 O   0  0  0  0  0  0  0  0  0  0  0  0
   58.2900   32.9290   44.3850 C   0  0  0  0  0  0  0  0  0  0  0  0
   59.0630   34.1050   44.3870 C   0  0  0  0  0  0  0  0  0  0  0  0
   59.3110   34.7790   45.5860 C   0  0  0  0  0  0  0  0  0  0  0  0
   58.7940   34.2900   46.7890 C   0  0  0  0  0  0  0  0  0  0  0  0
   58.0230   33.1240   46.7990 C   0  0  0  0  0  0  0  0  0  0  0  0
   57.7680   32.4420   45.6050 C   0  0  0  0  0  0  0  0  0  0  0  0
   57.0250   31.3050   45.6210 N   0  0  0  0  0  0  0  0  0  0  0  0
   58.5670   29.5470   47.4560 N   0  0  0  0  0  0  0  0  0  0  0  0
   59.7060   30.2730   47.6140 C   0  0  0  0  0  0  0  0  0  0  0  0
   59.0438   31.3108   50.6778 H   0  0  0  0  0  0  0  0  0  0  0  0
   58.2047   32.3587   49.4844 H   0  0  0  0  0  0  0  0  0  0  0  0
   57.9137   30.5862   49.4844 H   0  0  0  0  0  0  0  0  0  0  0  0
   61.0740   32.6486   49.6571 H   0  0  0  0  0  0  0  0  0  0  0  0
   62.9612   32.3289   48.0602 H   0  0  0  0  0  0  0  0  0  0  0  0
   62.7435   30.6930   46.1952 H   0  0  0  0  0  0  0  0  0  0  0  0
   59.3649   27.7568   44.7095 H   0  0  0  0  0  0  0  0  0  0  0  0
   57.3910   26.7773   46.4116 H   0  0  0  0  0  0  0  0  0  0  0  0
   56.4732   28.1611   47.1332 H   0  0  0  0  0  0  0  0  0  0  0  0
   57.0289   30.4880   42.3398 H   0  0  0  0  0  0  0  0  0  0  0  0
   59.4727   34.4944   43.4433 H   0  0  0  0  0  0  0  0  0  0  0  0
   59.9155   35.6980   45.5829 H   0  0  0  0  0  0  0  0  0  0  0  0
   58.9942   34.8237   47.7298 H   0  0  0  0  0  0  0  0  0  0  0  0
   57.6164   32.7424   47.7472 H   0  0  0  0  0  0  0  0  0  0  0  0
  1  2  1  0
  2  3  2  0
  3  4  1  0
  4  5  2  0
  5  6  1  0
  6  7  1  0
  7  8  2  0
  7  9  1  0
  9 10  2  0
 10 11  1  0
 11 12  1  0
 12 13  1  0
 13 14  2  0
 13 15  1  0
 15 16  2  0
 16 17  1  0
 17 18  2  0
 17 19  1  0
 19 20  2  0
 20 21  1  0
 21 22  2  0
 22 23  1  0
 23 24  2  0
 24 25  1  0
 10 26  1  0
 26 27  2  0
 27  2  1  0
 27  6  1  0
 25 15  1  0
 24 19  1  0
  1 28  1  0
  1 29  1  0
  1 30  1  0
  3 31  1  0
  4 32  1  0
  5 33  1  0
  9 34  1  0
 11 35  1  0
 11 36  1  0
 16 37  1  0
 20 38  1  0
 21 39  1  0
 22 40  1  0
 23 41  1  0
M  CHG  2  12  -1  25  -1
M  END
>  <UniqueID>  (53) 
49

>  <SMILES>  (53) 
Cc1cccn2c(=O)cc(C[N-]C(=O)c3cc(=O)c4ccccc4[n-]3)nc12

>  <Energy>  (53) 
55.02983575574536

>  <Genealogy>  (53) 
Cc1cccn2c(=O)cc(C[N-]C(=O)c3cc(=O)c4ccccc4[n-]3)nc12 (protonated)
Cc1cccn2c(=O)cc(C[N-]C(=O)c3cc(=O)c4ccccc4[n-]3)nc12 (3D coordinates assigned)
Cc1cccn2c(=O)cc(C[N-]C(=O)c3cc(=O)c4ccccc4[n-]3)nc12 (optimized conformer: 55.02983575574536 kcal/mol)

>  <smiles>  (53) 
Cc1cccn2c(=O)cc(CNC(=O)c3cc(=O)c4ccccc4[nH]3)nc12

>  <score_type>  (53) 
oracle

>  <origin>  (53) 
adg

>  <m_score__min__energy>  (53) 
-12.02

>  <m_primary>  (53) 
energy

$$$$
53:0
     RDKit          3D

 51 54  0  0  0  0  0  0  0  0999 V2000
   60.5240   30.7160   47.9780 O   0  0  0  0  0  0  0  0  0  0  0  0
   59.6360   29.8460   48.1870 C   0  0  0  0  0  0  0  0  0  0  0  0
   58.9630   29.7360   49.4550 N   0  0  0  0  0  0  0  0  0  0  0  0
   58.6170   30.6380   50.3370 C   0  0  0  0  0  0  0  0  0  0  0  0
   57.8230   30.3540   51.4710 C   0  0  0  0  0  0  0  0  0  0  0  0
   57.5140   31.3760   52.3700 C   0  0  0  0  0  0  0  0  0  0  0  0
   57.9930   32.6640   52.1560 C   0  0  0  0  0  0  0  0  0  0  0  0
   58.7850   32.9160   51.0340 C   0  0  0  0  0  0  0  0  0  0  0  0
   59.0750   31.9140   50.1600 N   0  0  0  0  0  0  0  0  0  0  0  0
   59.3060   28.8800   47.1250 C   0  0  0  0  0  0  0  0  0  0  0  0
   60.0610   27.6950   47.0470 C   0  0  0  0  0  0  0  0  0  0  0  0
   59.8790   26.8050   45.9890 C   0  0  0  0  0  0  0  0  0  0  0  0
   58.9320   27.0770   45.0020 C   0  0  0  0  0  0  0  0  0  0  0  0
   58.1570   28.2370   45.0780 C   0  0  0  0  0  0  0  0  0  0  0  0
   58.3100   29.1320   46.1450 C   0  0  0  0  0  0  0  0  0  0  0  0
   57.4420   30.2780   46.1800 N   0  0  0  0  0  0  0  0  0  0  0  0
   57.3880   31.3760   45.2550 C   0  0  0  0  0  0  0  0  0  0  0  0
   56.6760   31.2510   44.2220 O   0  0  0  0  0  0  0  0  0  0  0  0
   58.1260   32.6450   45.4700 C   0  0  0  0  0  0  0  0  0  0  0  0
   58.4350   33.4470   44.3650 C   0  0  0  0  0  0  0  0  0  0  0  0
   59.1990   34.5980   44.5260 C   0  0  0  0  0  0  0  0  0  0  0  0
   59.6480   34.9510   45.7970 C   0  0  0  0  0  0  0  0  0  0  0  0
   59.3130   34.2010   46.8890 N   0  0  0  0  0  0  0  0  0  0  0  0
   59.8380   34.5890   48.2090 C   0  0  0  0  0  0  0  0  0  0  0  0
   61.1880   33.9630   48.4340 C   0  0  0  0  0  0  0  0  0  0  0  0
   61.7520   33.9520   49.7230 C   0  0  0  0  0  0  0  0  0  0  0  0
   63.0250   33.4140   49.9300 C   0  0  0  0  0  0  0  0  0  0  0  0
   63.7400   32.8740   48.8550 C   0  0  0  0  0  0  0  0  0  0  0  0
   64.9800   32.3590   49.0540 F   0  0  0  0  0  0  0  0  0  0  0  0
   63.1850   32.8760   47.5710 C   0  0  0  0  0  0  0  0  0  0  0  0
   61.9170   33.4280   47.3570 C   0  0  0  0  0  0  0  0  0  0  0  0
   58.5400   33.0730   46.7500 C   0  0  0  0  0  0  0  0  0  0  0  0
   58.1840   32.4230   47.7720 O   0  0  0  0  0  0  0  0  0  0  0  0
   57.4507   29.3335   51.6442 H   0  0  0  0  0  0  0  0  0  0  0  0
   56.8899   31.1621   53.2502 H   0  0  0  0  0  0  0  0  0  0  0  0
   57.7513   33.4731   52.8609 H   0  0  0  0  0  0  0  0  0  0  0  0
   59.1761   33.9286   50.8558 H   0  0  0  0  0  0  0  0  0  0  0  0
   59.6790   32.1380   49.3350 H   0  0  0  0  0  0  0  0  0  0  0  0
   60.8018   27.4686   47.8280 H   0  0  0  0  0  0  0  0  0  0  0  0
   60.4830   25.8874   45.9329 H   0  0  0  0  0  0  0  0  0  0  0  0
   58.7952   26.3782   44.1636 H   0  0  0  0  0  0  0  0  0  0  0  0
   57.4184   28.4500   44.2912 H   0  0  0  0  0  0  0  0  0  0  0  0
   58.0721   33.1657   43.3654 H   0  0  0  0  0  0  0  0  0  0  0  0
   59.4469   35.2248   43.6567 H   0  0  0  0  0  0  0  0  0  0  0  0
   60.2790   35.8432   45.9227 H   0  0  0  0  0  0  0  0  0  0  0  0
   59.9326   35.6839   48.2552 H   0  0  0  0  0  0  0  0  0  0  0  0
   59.1451   34.2395   48.9886 H   0  0  0  0  0  0  0  0  0  0  0  0
   61.1887   34.3685   50.5711 H   0  0  0  0  0  0  0  0  0  0  0  0
   63.4651   33.4150   50.9381 H   0  0  0  0  0  0  0  0  0  0  0  0
   63.7455   32.4435   46.7291 H   0  0  0  0  0  0  0  0  0  0  0  0
   61.4894   33.4435   46.3436 H   0  0  0  0  0  0  0  0  0  0  0  0
  1  2  2  0
  2  3  1  0
  3  4  2  3
  4  5  1  0
  5  6  2  0
  6  7  1  0
  7  8  2  0
  8  9  1  0
  2 10  1  0
 10 11  2  0
 11 12  1  0
 12 13  2  0
 13 14  1  0
 14 15  2  0
 15 16  1  0
 16 17  1  0
 17 18  2  0
 17 19  1  0
 19 20  2  0
 20 21  1  0
 21 22  2  0
 22 23  1  0
 23 24  1  0
 24 25  1  0
 25 26  2  0
 26 27  1  0
 27 28  2  0
 28 29  1  0
 28 30  1  0
 30 31  2  0
 23 32  1  0
 32 33  2  0
  9  4  1  0
 15 10  1  0
 32 19  1  0
 31 25  1  0
  5 34  1  0
  6 35  1  0
  7 36  1  0
  8 37  1  0
  9 38  1  0
 11 39  1  0
 12 40  1  0
 13 41  1  0
 14 42  1  0
 20 43  1  0
 21 44  1  0
 22 45  1  0
 24 46  1  0
 24 47  1  0
 26 48  1  0
 27 49  1  0
 30 50  1  0
 31 51  1  0
M  CHG  1  16  -1
M  END
>  <UniqueID>  (54) 
50

>  <SMILES>  (54) 
O=C(N=c1cccc[nH]1)c1ccccc1[N-]C(=O)c1cccn(Cc2ccc(F)cc2)c1=O

>  <Energy>  (54) 
74.16261086085628

>  <Genealogy>  (54) 
O=C(N=c1cccc[nH]1)c1ccccc1[N-]C(=O)c1cccn(Cc2ccc(F)cc2)c1=O (protonated)
O=C(N=c1cccc[nH]1)c1ccccc1[N-]C(=O)c1cccn(Cc2ccc(F)cc2)c1=O (3D coordinates assigned)
O=C(N=c1cccc[nH]1)c1ccccc1[N-]C(=O)c1cccn(Cc2ccc(F)cc2)c1=O (optimized conformer: 74.16261086085628 kcal/mol)

>  <smiles>  (54) 
O=C(N=c1cccc[nH]1)c1ccccc1NC(=O)c1cccn(Cc2ccc(F)cc2)c1=O

>  <score_type>  (54) 
oracle

>  <origin>  (54) 
adg

>  <m_score__min__energy>  (54) 
-11.26

>  <m_primary>  (54) 
energy

$$$$
54:0
     RDKit          3D

 39 41  0  0  0  0  0  0  0  0999 V2000
   58.6760   31.2670   50.4330 O   0  0  0  0  0  0  0  0  0  0  0  0
   59.0320   30.6410   49.3980 C   0  0  0  0  0  0  0  0  0  0  0  0
   58.9730   29.2870   49.4020 N   0  0  0  0  0  0  0  0  0  0  0  0
   59.3550   28.5500   48.3310 C   0  0  0  0  0  0  0  0  0  0  0  0
   59.2450   27.1610   48.4050 O   0  0  0  0  0  0  0  0  0  0  0  0
   59.8340   29.2010   47.1820 C   0  0  0  0  0  0  0  0  0  0  0  0
   60.3300   28.4480   46.0090 C   0  0  0  0  0  0  0  0  0  0  0  0
   59.5320   27.7730   45.1680 C   0  0  0  0  0  0  0  0  0  0  0  0
   58.4730   26.8310   45.5990 C   0  0  0  0  0  0  0  0  0  0  0  0
   58.8020   25.5110   45.9630 C   0  0  0  0  0  0  0  0  0  0  0  0
   57.8060   24.6160   46.3570 C   0  0  0  0  0  0  0  0  0  0  0  0
   56.4710   25.0180   46.3750 C   0  0  0  0  0  0  0  0  0  0  0  0
   56.1240   26.3170   45.9930 C   0  0  0  0  0  0  0  0  0  0  0  0
   54.7880   26.7010   46.0090 O   0  0  0  0  0  0  0  0  0  0  0  0
   57.1190   27.2260   45.5960 C   0  0  0  0  0  0  0  0  0  0  0  0
   56.6510   28.8620   45.1350 Cl  0  0  0  0  0  0  0  0  0  0  0  0
   59.8590   30.6050   47.1740 C   0  0  0  0  0  0  0  0  0  0  0  0
   60.2620   31.2070   46.1400 O   0  0  0  0  0  0  0  0  0  0  0  0
   59.4740   31.3130   48.2860 N   0  0  0  0  0  0  0  0  0  0  0  0
   59.6100   32.7840   48.3220 C   0  0  0  0  0  0  0  0  0  0  0  0
   58.9790   33.3940   47.0960 C   0  0  0  0  0  0  0  0  0  0  0  0
   59.6930   34.3230   46.3210 C   0  0  0  0  0  0  0  0  0  0  0  0
   59.0910   34.9270   45.2110 C   0  0  0  0  0  0  0  0  0  0  0  0
   57.7750   34.6080   44.8690 C   0  0  0  0  0  0  0  0  0  0  0  0
   57.0570   33.6870   45.6350 C   0  0  0  0  0  0  0  0  0  0  0  0
   57.6540   33.0830   46.7460 C   0  0  0  0  0  0  0  0  0  0  0  0
   58.3860   26.6650   48.2010 H   0  0  0  0  0  0  0  0  0  0  0  0
   61.4129   28.4413   45.8158 H   0  0  0  0  0  0  0  0  0  0  0  0
   59.6732   27.9291   44.0883 H   0  0  0  0  0  0  0  0  0  0  0  0
   59.8516   25.1829   45.9366 H   0  0  0  0  0  0  0  0  0  0  0  0
   58.0748   23.5915   46.6539 H   0  0  0  0  0  0  0  0  0  0  0  0
   55.6892   24.3114   46.6905 H   0  0  0  0  0  0  0  0  0  0  0  0
   59.1094   33.1736   49.2207 H   0  0  0  0  0  0  0  0  0  0  0  0
   60.6781   33.0459   48.3447 H   0  0  0  0  0  0  0  0  0  0  0  0
   60.7296   34.5769   46.5876 H   0  0  0  0  0  0  0  0  0  0  0  0
   59.6549   35.6535   44.6075 H   0  0  0  0  0  0  0  0  0  0  0  0
   57.3037   35.0825   43.9957 H   0  0  0  0  0  0  0  0  0  0  0  0
   56.0207   33.4364   45.3641 H   0  0  0  0  0  0  0  0  0  0  0  0
   57.0837   32.3610   47.3489 H   0  0  0  0  0  0  0  0  0  0  0  0
  1  2  2  0
  2  3  1  0
  3  4  1  0
  4  5  1  0
  4  6  2  0
  6  7  1  0
  7  8  2  3
  8  9  1  0
  9 10  2  0
 10 11  1  0
 11 12  2  0
 12 13  1  0
 13 14  1  0
 13 15  2  0
 15 16  1  0
  6 17  1  0
 17 18  2  0
 17 19  1  0
 19 20  1  0
 20 21  1  0
 21 22  2  0
 22 23  1  0
 23 24  2  0
 24 25  1  0
 25 26  2  0
 19  2  1  0
 26 21  1  0
 15  9  1  0
  5 27  1  0
  7 28  1  0
  8 29  1  0
 10 30  1  0
 11 31  1  0
 12 32  1  0
 20 33  1  0
 20 34  1  0
 22 35  1  0
 23 36  1  0
 24 37  1  0
 25 38  1  0
 26 39  1  0
M  CHG  2   3  -1  14  -1
M  END
>  <UniqueID>  (55) 
51

>  <SMILES>  (55) 
O=c1[n-]c(O)c(C=Cc2cccc([O-])c2Cl)c(=O)n1Cc1ccccc1

>  <Energy>  (55) 
59.38076459027881

>  <Genealogy>  (55) 
O=c1[n-]c(O)c(C=Cc2cccc([O-])c2Cl)c(=O)n1Cc1ccccc1 (protonated)
O=c1[n-]c(O)c(C=Cc2cccc([O-])c2Cl)c(=O)n1Cc1ccccc1 (3D coordinates assigned)
O=c1[n-]c(O)c(C=Cc2cccc([O-])c2Cl)c(=O)n1Cc1ccccc1 (optimized conformer: 59.38076459027881 kcal/mol)

>  <smiles>  (55) 
O=c1[nH]c(O)c(C=Cc2cccc(O)c2Cl)c(=O)n1Cc1ccccc1

>  <score_type>  (55) 
oracle

>  <origin>  (55) 
adg

>  <m_score__min__energy>  (55) 
-12.52

>  <m_primary>  (55) 
energy

$$$$
55:0
     RDKit          3D

 35 37  0  0  0  0  0  0  0  0999 V2000
   60.1000   35.9399   46.3839 H   0  0  0  0  0  0  0  0  0  0  0  0
   59.6290   34.9820   46.1180 C   0  0  0  0  0  0  0  0  0  0  0  0
   59.7560   33.9110   46.9430 N   0  0  0  0  0  0  0  0  0  0  0  0
   59.1990   32.6990   46.6580 C   0  0  0  0  0  0  0  0  0  0  0  0
   59.3390   31.6950   47.4770 N   0  0  0  0  0  0  0  0  0  0  0  0
   59.0560   31.6800   48.8870 C   0  0  0  0  0  0  0  0  0  0  0  0
   59.2310   32.8620   49.6190 C   0  0  0  0  0  0  0  0  0  0  0  0
   59.6050   33.7661   49.1163 H   0  0  0  0  0  0  0  0  0  0  0  0
   58.9330   32.8990   50.9850 C   0  0  0  0  0  0  0  0  0  0  0  0
   59.0876   33.8261   51.5565 H   0  0  0  0  0  0  0  0  0  0  0  0
   58.4390   31.7590   51.6240 C   0  0  0  0  0  0  0  0  0  0  0  0
   58.2151   31.7859   52.7006 H   0  0  0  0  0  0  0  0  0  0  0  0
   58.2290   30.5840   50.8960 C   0  0  0  0  0  0  0  0  0  0  0  0
   57.7150   29.4590   51.5290 O   0  0  0  0  0  0  0  0  0  0  0  0
   58.5270   30.5440   49.5290 C   0  0  0  0  0  0  0  0  0  0  0  0
   58.3475   29.6230   48.9549 H   0  0  0  0  0  0  0  0  0  0  0  0
   58.4450   32.5440   45.4710 C   0  0  0  0  0  0  0  0  0  0  0  0
   57.7930   31.2560   45.1180 C   0  0  0  0  0  0  0  0  0  0  0  0
   56.5700   31.2420   44.8180 O   0  0  0  0  0  0  0  0  0  0  0  0
   58.5340   30.0310   45.0390 N   0  0  0  0  0  0  0  0  0  0  0  0
   58.1140   28.7530   45.5400 C   0  0  0  0  0  0  0  0  0  0  0  0
   59.0830   27.8600   46.0130 C   0  0  0  0  0  0  0  0  0  0  0  0
   60.1442   28.1494   46.0047 H   0  0  0  0  0  0  0  0  0  0  0  0
   58.7090   26.6020   46.4960 C   0  0  0  0  0  0  0  0  0  0  0  0
   59.4741   25.9105   46.8786 H   0  0  0  0  0  0  0  0  0  0  0  0
   57.3650   26.2230   46.4930 C   0  0  0  0  0  0  0  0  0  0  0  0
   57.0718   25.2360   46.8800 H   0  0  0  0  0  0  0  0  0  0  0  0
   56.3920   27.0960   45.9990 C   0  0  0  0  0  0  0  0  0  0  0  0
   55.0560   26.7120   45.9830 O   0  0  0  0  0  0  0  0  0  0  0  0
   56.7640   28.3560   45.5150 C   0  0  0  0  0  0  0  0  0  0  0  0
   55.9991   29.0374   45.1142 H   0  0  0  0  0  0  0  0  0  0  0  0
   58.3080   33.6500   44.6150 C   0  0  0  0  0  0  0  0  0  0  0  0
   57.7273   33.5534   43.6857 H   0  0  0  0  0  0  0  0  0  0  0  0
   58.9030   34.8680   44.9360 C   0  0  0  0  0  0  0  0  0  0  0  0
   58.8001   35.7312   44.2620 H   0  0  0  0  0  0  0  0  0  0  0  0
  1  2  1  0
  2  3  1  0
  3  4  1  0
  4  5  2  0
  5  6  1  0
  6  7  2  0
  7  8  1  0
  7  9  1  0
  9 10  1  0
  9 11  2  0
 11 12  1  0
 11 13  1  0
 13 14  1  0
 13 15  2  0
 15 16  1  0
  4 17  1  0
 17 18  1  0
 18 19  2  0
 18 20  1  0
 20 21  1  0
 21 22  2  0
 22 23  1  0
 22 24  1  0
 24 25  1  0
 24 26  2  0
 26 27  1  0
 26 28  1  0
 28 29  1  0
 28 30  2  0
 30 31  1  0
 17 32  2  0
 32 33  1  0
 32 34  1  0
 34 35  1  0
 34  2  2  0
 15  6  1  0
 30 21  1  0
M  CHG  4   3  -1  14  -1  20  -1  29  -1
M  END
>  <UniqueID>  (56) 
52

>  <SMILES>  (56) 
O=C([N-]c1cccc([O-])c1)c1ccc[n-]/c1=N\c1cccc([O-])c1

>  <Energy>  (56) 
53.9552458201427

>  <Genealogy>  (56) 
O=C([N-]c1cccc([O-])c1)c1ccc[n-]c1=Nc1cccc([O-])c1 (protonated)
O=C([N-]c1cccc([O-])c1)c1ccc[n-]/c1=N\c1cccc([O-])c1 (cis-trans isomerization)
O=C([N-]c1cccc([O-])c1)c1ccc[n-]/c1=N\c1cccc([O-])c1 (3D coordinates assigned)
O=C([N-]c1cccc([O-])c1)c1ccc[n-]/c1=N\c1cccc([O-])c1 (optimized conformer: 53.9552458201427 kcal/mol)

>  <smiles>  (56) 
O=C(Nc1cccc(O)c1)c1ccc[nH]c1=Nc1cccc(O)c1

>  <score_type>  (56) 
oracle

>  <origin>  (56) 
adg

>  <m_score__min__energy>  (56) 
-16.359999999999999

>  <m_primary>  (56) 
energy

$$$$
56:0
     RDKit          3D

 47 49  0  0  0  0  0  0  0  0999 V2000
   54.8550   25.2570   45.6050 C   0  0  0  0  0  0  0  0  0  0  0  0
   55.5480   26.4460   45.9690 O   0  0  0  0  0  0  0  0  0  0  0  0
   56.9280   26.5180   46.2150 C   0  0  0  0  0  0  0  0  0  0  0  0
   57.5280   25.8620   47.3090 C   0  0  0  0  0  0  0  0  0  0  0  0
   58.9060   25.9630   47.5220 C   0  0  0  0  0  0  0  0  0  0  0  0
   59.6970   26.7160   46.6520 C   0  0  0  0  0  0  0  0  0  0  0  0
   59.1130   27.3650   45.5620 C   0  0  0  0  0  0  0  0  0  0  0  0
   57.7350   27.2650   45.3370 C   0  0  0  0  0  0  0  0  0  0  0  0
   57.1600   27.9080   44.2000 N   0  0  0  0  0  0  0  0  0  0  0  0
   56.4420   29.4760   44.3410 S   0  0  0  0  0  0  0  0  0  0  0  0
   55.1670   29.3790   45.1330 O   0  0  0  0  0  0  0  0  0  0  0  0
   56.1150   29.9940   42.9690 O   0  0  0  0  0  0  0  0  0  0  0  0
   57.5650   30.5730   45.1360 C   0  0  0  0  0  0  0  0  0  0  0  0
   58.3290   30.1370   46.2230 C   0  0  0  0  0  0  0  0  0  0  0  0
   59.1540   31.0330   46.9030 C   0  0  0  0  0  0  0  0  0  0  0  0
   59.2170   32.3790   46.5180 C   0  0  0  0  0  0  0  0  0  0  0  0
   60.1070   33.2580   47.2200 N   0  0  0  0  0  0  0  0  0  0  0  0
   61.5540   33.0150   47.1510 C   0  0  0  0  0  0  0  0  0  0  0  0
   62.3300   34.0700   47.9480 C   0  0  0  0  0  0  0  0  0  0  0  0
   61.7920   34.2010   49.3820 C   0  0  0  0  0  0  0  0  0  0  0  0
   60.2480   34.2170   49.4730 C   0  0  0  0  0  0  0  0  0  0  0  0
   59.5640   34.2940   48.1050 C   0  0  0  0  0  0  0  0  0  0  0  0
   58.4350   32.8360   45.4310 C   0  0  0  0  0  0  0  0  0  0  0  0
   58.4180   34.2230   45.0470 N   0  0  0  0  0  0  0  0  0  0  0  0
   57.3320   34.8130   44.8650 O   0  0  0  0  0  0  0  0  0  0  0  0
   59.5810   34.9570   45.0090 O   0  0  0  0  0  0  0  0  0  0  0  0
   57.6250   31.9150   44.7410 C   0  0  0  0  0  0  0  0  0  0  0  0
   54.5430   24.7216   46.5139 H   0  0  0  0  0  0  0  0  0  0  0  0
   53.9673   25.5176   45.0099 H   0  0  0  0  0  0  0  0  0  0  0  0
   55.5192   24.6130   45.0099 H   0  0  0  0  0  0  0  0  0  0  0  0
   56.9094   25.2682   47.9979 H   0  0  0  0  0  0  0  0  0  0  0  0
   59.3682   25.4480   48.3771 H   0  0  0  0  0  0  0  0  0  0  0  0
   60.7802   26.7980   46.8252 H   0  0  0  0  0  0  0  0  0  0  0  0
   59.7383   27.9571   44.8776 H   0  0  0  0  0  0  0  0  0  0  0  0
   58.2793   29.0856   46.5424 H   0  0  0  0  0  0  0  0  0  0  0  0
   59.7610   30.6796   47.7496 H   0  0  0  0  0  0  0  0  0  0  0  0
   61.7712   32.0197   47.5660 H   0  0  0  0  0  0  0  0  0  0  0  0
   61.8678   33.0721   46.0983 H   0  0  0  0  0  0  0  0  0  0  0  0
   63.3899   33.7787   47.9891 H   0  0  0  0  0  0  0  0  0  0  0  0
   62.2098   35.0405   47.4443 H   0  0  0  0  0  0  0  0  0  0  0  0
   62.1649   33.3500   49.9709 H   0  0  0  0  0  0  0  0  0  0  0  0
   62.1447   35.1687   49.7682 H   0  0  0  0  0  0  0  0  0  0  0  0
   59.9179   33.2970   49.9776 H   0  0  0  0  0  0  0  0  0  0  0  0
   59.9628   35.1201   50.0325 H   0  0  0  0  0  0  0  0  0  0  0  0
   58.4820   34.1388   48.2283 H   0  0  0  0  0  0  0  0  0  0  0  0
   59.7479   35.2838   47.6617 H   0  0  0  0  0  0  0  0  0  0  0  0
   57.0309   32.2540   43.8796 H   0  0  0  0  0  0  0  0  0  0  0  0
  1  2  1  0
  2  3  1  0
  3  4  2  0
  4  5  1  0
  5  6  2  0
  6  7  1  0
  7  8  2  0
  8  9  1  0
  9 10  1  0
 10 11  2  0
 10 12  2  0
 10 13  1  0
 13 14  2  0
 14 15  1  0
 15 16  2  0
 16 17  1  0
 17 18  1  0
 18 19  1  0
 19 20  1  0
 20 21  1  0
 21 22  1  0
 16 23  1  0
 23 24  1  0
 24 25  2  0
 24 26  1  0
 23 27  2  0
  8  3  1  0
 27 13  1  0
 22 17  1  0
  1 28  1  0
  1 29  1  0
  1 30  1  0
  4 31  1  0
  5 32  1  0
  6 33  1  0
  7 34  1  0
 14 35  1  0
 15 36  1  0
 18 37  1  0
 18 38  1  0
 19 39  1  0
 19 40  1  0
 20 41  1  0
 20 42  1  0
 21 43  1  0
 21 44  1  0
 22 45  1  0
 22 46  1  0
 27 47  1  0
M  CHG  3   9  -1  24   1  26  -1
M  END
>  <UniqueID>  (57) 
53

>  <SMILES>  (57) 
COc1ccccc1[N-]S(=O)(=O)c1ccc(N2CCCCC2)c([N+](=O)[O-])c1

>  <Energy>  (57) 
64.42827209951781

>  <Genealogy>  (57) 
COc1ccccc1[N-]S(=O)(=O)c1ccc(N2CCCCC2)c([N+](=O)[O-])c1 (protonated)
COc1ccccc1[N-]S(=O)(=O)c1ccc(N2CCCCC2)c([N+](=O)[O-])c1 (3D coordinates assigned)
COc1ccccc1[N-]S(=O)(=O)c1ccc(N2CCCCC2)c([N+](=O)[O-])c1 (nonaromatic ring conformer: 64.42827209951781 kcal/mol)

>  <smiles>  (57) 
COc1ccccc1NS(=O)(=O)c1ccc(N2CCCCC2)c([N+](=O)[O-])c1

>  <score_type>  (57) 
oracle

>  <origin>  (57) 
adg

>  <m_score__min__energy>  (57) 
-11.35

>  <m_primary>  (57) 
energy

$$$$
57:0
     RDKit          3D

 59 61  0  0  0  0  0  0  0  0999 V2000
   58.0200   29.5520   46.9950 C   0  0  0  0  0  0  0  0  0  0  0  0
   57.9110   30.7380   46.0670 C   0  0  0  0  0  0  0  0  0  0  0  0
   57.2250   30.6320   44.8270 C   0  0  0  0  0  0  0  0  0  0  0  0
   56.6090   29.3380   44.3620 C   0  0  0  0  0  0  0  0  0  0  0  0
   55.3630   29.1700   44.9780 O   0  0  0  0  0  0  0  0  0  0  0  0
   57.0700   31.7770   44.0270 C   0  0  0  0  0  0  0  0  0  0  0  0
   57.6180   32.9980   44.4170 C   0  0  0  0  0  0  0  0  0  0  0  0
   58.3440   33.0900   45.6030 C   0  0  0  0  0  0  0  0  0  0  0  0
   58.5150   31.9650   46.4160 C   0  0  0  0  0  0  0  0  0  0  0  0
   59.3000   32.0980   47.6040 N   0  0  0  0  0  0  0  0  0  0  0  0
   61.0320   32.0390   47.5660 S   0  0  0  0  0  0  0  0  0  0  0  0
   61.4760   30.6040   47.5440 O   0  0  0  0  0  0  0  0  0  0  0  0
   61.5270   32.7400   46.3330 O   0  0  0  0  0  0  0  0  0  0  0  0
   61.6980   32.8580   48.9850 C   0  0  0  0  0  0  0  0  0  0  0  0
   62.2280   34.1490   48.8550 C   0  0  0  0  0  0  0  0  0  0  0  0
   62.7780   34.7770   49.9270 N   0  0  0  0  0  0  0  0  0  0  0  0
   62.8230   34.1960   51.1510 C   0  0  0  0  0  0  0  0  0  0  0  0
   62.2930   32.9190   51.3390 C   0  0  0  0  0  0  0  0  0  0  0  0
   61.7260   32.2280   50.2450 C   0  0  0  0  0  0  0  0  0  0  0  0
   61.2270   31.0240   50.3680 N   0  0  0  0  0  0  0  0  0  0  0  0
   60.2010   30.5810   51.3120 C   0  0  0  0  0  0  0  0  0  0  0  0
   59.7640   29.1440   51.0010 C   0  0  0  0  0  0  0  0  0  0  0  0
   60.0360   28.8030   49.6050 N   0  0  0  0  0  0  0  0  0  0  0  0
   60.4450   27.4860   49.2030 C   0  0  0  0  0  0  0  0  0  0  0  0
   60.4530   26.2290   50.2610 S   0  0  0  0  0  0  0  0  0  0  0  0
   60.8530   27.2560   47.8510 N   0  0  0  0  0  0  0  0  0  0  0  0
   59.9220   27.0850   46.7670 C   0  0  0  0  0  0  0  0  0  0  0  0
   60.1570   27.6440   45.4980 C   0  0  0  0  0  0  0  0  0  0  0  0
   59.2220   27.4780   44.4710 C   0  0  0  0  0  0  0  0  0  0  0  0
   58.0450   26.7600   44.7000 C   0  0  0  0  0  0  0  0  0  0  0  0
   57.7960   26.2030   45.9600 C   0  0  0  0  0  0  0  0  0  0  0  0
   56.3090   25.3060   46.2530 S   0  0  0  0  0  0  0  0  0  0  0  0
   54.9500   26.3390   45.9910 N   0  0  0  0  0  0  0  0  0  0  0  0
   56.2940   24.8030   47.6690 O   0  0  0  0  0  0  0  0  0  0  0  0
   56.2330   24.1290   45.3210 O   0  0  0  0  0  0  0  0  0  0  0  0
   58.7380   26.3630   46.9870 C   0  0  0  0  0  0  0  0  0  0  0  0
   57.9881   29.8987   48.0384 H   0  0  0  0  0  0  0  0  0  0  0  0
   57.1813   28.8644   46.8113 H   0  0  0  0  0  0  0  0  0  0  0  0
   58.9700   29.0288   46.8113 H   0  0  0  0  0  0  0  0  0  0  0  0
   56.4783   29.3650   43.2701 H   0  0  0  0  0  0  0  0  0  0  0  0
   57.2682   28.4992   44.6301 H   0  0  0  0  0  0  0  0  0  0  0  0
   55.1470   28.2040   44.9110 H   0  0  0  0  0  0  0  0  0  0  0  0
   56.5101   31.7090   43.0826 H   0  0  0  0  0  0  0  0  0  0  0  0
   57.4773   33.8895   43.7882 H   0  0  0  0  0  0  0  0  0  0  0  0
   58.7849   34.0526   45.9013 H   0  0  0  0  0  0  0  0  0  0  0  0
   62.1985   34.6566   47.8796 H   0  0  0  0  0  0  0  0  0  0  0  0
   63.2779   34.7320   51.9971 H   0  0  0  0  0  0  0  0  0  0  0  0
   62.3166   32.4523   52.3348 H   0  0  0  0  0  0  0  0  0  0  0  0
   60.6078   30.6219   52.3332 H   0  0  0  0  0  0  0  0  0  0  0  0
   59.3277   31.2439   51.2228 H   0  0  0  0  0  0  0  0  0  0  0  0
   60.3149   28.4513   51.6542 H   0  0  0  0  0  0  0  0  0  0  0  0
   58.6813   29.0615   51.1769 H   0  0  0  0  0  0  0  0  0  0  0  0
   60.0510   29.5590   48.8860 H   0  0  0  0  0  0  0  0  0  0  0  0
   61.8770   27.1870   47.6630 H   0  0  0  0  0  0  0  0  0  0  0  0
   61.0794   28.2138   45.3125 H   0  0  0  0  0  0  0  0  0  0  0  0
   59.4138   27.9141   43.4795 H   0  0  0  0  0  0  0  0  0  0  0  0
   57.3131   26.6323   43.8889 H   0  0  0  0  0  0  0  0  0  0  0  0
   55.2240   27.0210   45.2500 H   0  0  0  0  0  0  0  0  0  0  0  0
   58.5472   25.9183   47.9748 H   0  0  0  0  0  0  0  0  0  0  0  0
  1  2  1  0
  2  3  2  0
  3  4  1  0
  4  5  1  0
  3  6  1  0
  6  7  2  0
  7  8  1  0
  8  9  2  0
  9 10  1  0
 10 11  1  0
 11 12  2  0
 11 13  2  0
 11 14  1  0
 14 15  2  0
 15 16  1  0
 16 17  1  0
 17 18  2  0
 18 19  1  0
 19 20  2  3
 20 21  1  0
 21 22  1  0
 22 23  1  0
 23 24  1  0
 24 25  2  0
 24 26  1  0
 26 27  1  0
 27 28  2  0
 28 29  1  0
 29 30  2  0
 30 31  1  0
 31 32  1  0
 32 33  1  0
 32 34  2  0
 32 35  2  0
 31 36  2  0
  9  2  1  0
 19 14  1  0
 36 27  1  0
  1 37  1  0
  1 38  1  0
  1 39  1  0
  4 40  1  0
  4 41  1  0
  5 42  1  0
  6 43  1  0
  7 44  1  0
  8 45  1  0
 15 46  1  0
 17 47  1  0
 18 48  1  0
 21 49  1  0
 21 50  1  0
 22 51  1  0
 22 52  1  0
 23 53  1  0
 26 54  1  0
 28 55  1  0
 29 56  1  0
 30 57  1  0
 33 58  1  0
 36 59  1  0
M  CHG  3  10  -1  16  -1  33  -1
M  END
>  <UniqueID>  (58) 
54

>  <SMILES>  (58) 
Cc1c(CO)cccc1[N-]S(=O)(=O)c1c[n-]ccc1=NCCNC(=S)Nc1cccc(S([NH-])(=O)=O)c1

>  <Energy>  (58) 
81.80458815844523

>  <Genealogy>  (58) 
Cc1c(CO)cccc1[N-]S(=O)(=O)c1c[n-]ccc1=NCCNC(=S)Nc1cccc(S([NH-])(=O)=O)c1 (protonated)
Cc1c(CO)cccc1[N-]S(=O)(=O)c1c[n-]ccc1=NCCNC(=S)Nc1cccc(S([NH-])(=O)=O)c1 (3D coordinates assigned)
Cc1c(CO)cccc1[N-]S(=O)(=O)c1c[n-]ccc1=NCCNC(=S)Nc1cccc(S([NH-])(=O)=O)c1 (optimized conformer: 81.80458815844523 kcal/mol)

>  <smiles>  (58) 
Cc1c(CO)cccc1NS(=O)(=O)c1c[nH]ccc1=NCCNC(=S)Nc1cccc(S(N)(=O)=O)c1

>  <score_type>  (58) 
oracle

>  <origin>  (58) 
adg

>  <m_score__min__energy>  (58) 
-14.44

>  <m_primary>  (58) 
energy

$$$$
58:0
     RDKit          3D

 39 41  0  0  0  0  0  0  0  0999 V2000
   58.5420   29.8110   48.7950 O   0  0  0  0  0  0  0  0  0  0  0  0
   59.2550   30.0260   47.7760 C   0  0  0  0  0  0  0  0  0  0  0  0
   58.8310   29.4520   46.4830 C   0  0  0  0  0  0  0  0  0  0  0  0
   59.7340   28.6850   45.7250 C   0  0  0  0  0  0  0  0  0  0  0  0
   59.3370   28.1330   44.5040 C   0  0  0  0  0  0  0  0  0  0  0  0
   58.0440   28.3510   44.0230 C   0  0  0  0  0  0  0  0  0  0  0  0
   57.1450   29.1270   44.7610 C   0  0  0  0  0  0  0  0  0  0  0  0
   55.8950   29.3510   44.2860 F   0  0  0  0  0  0  0  0  0  0  0  0
   57.5380   29.6800   45.9840 C   0  0  0  0  0  0  0  0  0  0  0  0
   60.4330   30.8570   47.8880 N   0  0  0  0  0  0  0  0  0  0  0  0
   61.0040   31.1630   49.1990 C   0  0  0  0  0  0  0  0  0  0  0  0
   60.7170   32.6280   49.5250 C   0  0  0  0  0  0  0  0  0  0  0  0
   61.1090   33.5650   48.4290 N   0  0  0  0  0  0  0  0  0  0  0  0
   60.0720   34.5950   48.1540 C   0  0  0  0  0  0  0  0  0  0  0  0
   59.1390   34.2500   47.0210 C   0  0  0  0  0  0  0  0  0  0  0  0
   59.2400   34.7290   45.7180 C   0  0  0  0  0  0  0  0  0  0  0  0
   58.2300   34.2510   44.8740 C   0  0  0  0  0  0  0  0  0  0  0  0
   57.3230   33.4110   45.5060 C   0  0  0  0  0  0  0  0  0  0  0  0
   57.7790   33.2640   47.1180 S   0  0  0  0  0  0  0  0  0  0  0  0
   61.6500   32.9250   47.1970 C   0  0  0  0  0  0  0  0  0  0  0  0
   60.8750   31.6670   46.7460 C   0  0  0  0  0  0  0  0  0  0  0  0
   60.7566   28.5190   46.0946 H   0  0  0  0  0  0  0  0  0  0  0  0
   60.0444   27.5255   43.9205 H   0  0  0  0  0  0  0  0  0  0  0  0
   57.7329   27.9122   43.0635 H   0  0  0  0  0  0  0  0  0  0  0  0
   56.8308   30.2967   46.5581 H   0  0  0  0  0  0  0  0  0  0  0  0
   60.5465   30.5168   49.9626 H   0  0  0  0  0  0  0  0  0  0  0  0
   62.0896   30.9861   49.1870 H   0  0  0  0  0  0  0  0  0  0  0  0
   59.6386   32.7396   49.7107 H   0  0  0  0  0  0  0  0  0  0  0  0
   61.3188   32.8893   50.4079 H   0  0  0  0  0  0  0  0  0  0  0  0
   61.9150   34.1150   48.8130 H   0  0  0  0  0  0  0  0  0  0  0  0
   59.4714   34.7309   49.0655 H   0  0  0  0  0  0  0  0  0  0  0  0
   60.6071   35.5081   47.8541 H   0  0  0  0  0  0  0  0  0  0  0  0
   60.0334   35.4141   45.3848 H   0  0  0  0  0  0  0  0  0  0  0  0
   58.1615   34.5165   43.8087 H   0  0  0  0  0  0  0  0  0  0  0  0
   56.4561   32.9256   45.0339 H   0  0  0  0  0  0  0  0  0  0  0  0
   61.6159   33.6624   46.3814 H   0  0  0  0  0  0  0  0  0  0  0  0
   62.6736   32.5987   47.4330 H   0  0  0  0  0  0  0  0  0  0  0  0
   59.9921   31.9809   46.1698 H   0  0  0  0  0  0  0  0  0  0  0  0
   61.5506   31.0521   46.1333 H   0  0  0  0  0  0  0  0  0  0  0  0
  1  2  2  0
  2  3  1  0
  3  4  2  0
  4  5  1  0
  5  6  2  0
  6  7  1  0
  7  8  1  0
  7  9  2  0
  2 10  1  0
 10 11  1  0
 11 12  1  0
 12 13  1  0
 13 14  1  0
 14 15  1  0
 15 16  2  0
 16 17  1  0
 17 18  2  0
 18 19  1  0
 13 20  1  0
 20 21  1  0
  9  3  1  0
 21 10  1  0
 19 15  1  0
  4 22  1  0
  5 23  1  0
  6 24  1  0
  9 25  1  0
 11 26  1  0
 11 27  1  0
 12 28  1  0
 12 29  1  0
 13 30  1  0
 14 31  1  0
 14 32  1  0
 16 33  1  0
 17 34  1  0
 18 35  1  0
 20 36  1  0
 20 37  1  0
 21 38  1  0
 21 39  1  0
M  CHG  1  13   1
M  END
>  <UniqueID>  (59) 
55

>  <SMILES>  (59) 
O=C(c1cccc(F)c1)N1CC[NH+](Cc2cccs2)CC1

>  <Energy>  (59) 
81.87626071252564

>  <Genealogy>  (59) 
O=C(c1cccc(F)c1)N1CC[NH+](Cc2cccs2)CC1 (protonated)
O=C(c1cccc(F)c1)N1CC[NH+](Cc2cccs2)CC1 (3D coordinates assigned)
O=C(c1cccc(F)c1)N1CC[NH+](Cc2cccs2)CC1 (nonaromatic ring conformer: 81.87626071252564 kcal/mol)

>  <smiles>  (59) 
O=C(c1cccc(F)c1)N1CCN(Cc2cccs2)CC1

>  <score_type>  (59) 
oracle

>  <origin>  (59) 
adg

>  <m_score__min__energy>  (59) 
-5.7800000000000002

>  <m_primary>  (59) 
energy

$$$$
59:0
     RDKit          3D

 47 49  0  0  0  0  0  0  0  0999 V2000
   59.9510   28.2160   48.9320 C   0  0  0  0  0  0  0  0  0  0  0  0
   59.4400   27.5280   47.7410 N   0  0  0  0  0  0  0  0  0  0  0  0
   58.1560   27.7640   47.3290 C   0  0  0  0  0  0  0  0  0  0  0  0
   57.6360   27.1140   46.2030 C   0  0  0  0  0  0  0  0  0  0  0  0
   56.2590   27.3930   45.7560 C   0  0  0  0  0  0  0  0  0  0  0  0
   55.3580   26.5420   45.9800 O   0  0  0  0  0  0  0  0  0  0  0  0
   55.9060   28.6220   45.1090 N   0  0  0  0  0  0  0  0  0  0  0  0
   56.7160   29.3100   44.1050 C   0  0  0  0  0  0  0  0  0  0  0  0
   57.4730   30.4530   44.7280 C   0  0  0  0  0  0  0  0  0  0  0  0
   58.6380   30.2200   45.4750 C   0  0  0  0  0  0  0  0  0  0  0  0
   59.3190   31.2840   46.0720 C   0  0  0  0  0  0  0  0  0  0  0  0
   58.8460   32.5960   45.9280 C   0  0  0  0  0  0  0  0  0  0  0  0
   59.7140   33.9430   46.6660 S   0  0  0  0  0  0  0  0  0  0  0  0
   59.9370   35.0090   45.6290 O   0  0  0  0  0  0  0  0  0  0  0  0
   58.8690   34.5330   47.7610 O   0  0  0  0  0  0  0  0  0  0  0  0
   61.2490   33.4490   47.3360 N   0  0  0  0  0  0  0  0  0  0  0  0
   62.3490   33.7760   46.4110 C   0  0  0  0  0  0  0  0  0  0  0  0
   63.7140   33.5250   47.0870 C   0  0  0  0  0  0  0  0  0  0  0  0
   63.5600   32.8130   48.3010 O   0  0  0  0  0  0  0  0  0  0  0  0
   62.8210   33.5930   49.2270 C   0  0  0  0  0  0  0  0  0  0  0  0
   61.4810   34.0870   48.6390 C   0  0  0  0  0  0  0  0  0  0  0  0
   57.6830   32.8310   45.1800 C   0  0  0  0  0  0  0  0  0  0  0  0
   57.0020   31.7680   44.5830 C   0  0  0  0  0  0  0  0  0  0  0  0
   58.4340   26.1870   45.5260 C   0  0  0  0  0  0  0  0  0  0  0  0
   59.7340   25.9430   45.9610 C   0  0  0  0  0  0  0  0  0  0  0  0
   60.2280   26.6220   47.0780 C   0  0  0  0  0  0  0  0  0  0  0  0
   61.4040   26.3860   47.4690 O   0  0  0  0  0  0  0  0  0  0  0  0
   59.5768   27.7121   49.8354 H   0  0  0  0  0  0  0  0  0  0  0  0
   61.0507   28.1903   48.9268 H   0  0  0  0  0  0  0  0  0  0  0  0
   59.6086   29.2614   48.9268 H   0  0  0  0  0  0  0  0  0  0  0  0
   57.5263   28.4716   47.8883 H   0  0  0  0  0  0  0  0  0  0  0  0
   57.4315   28.5980   43.6678 H   0  0  0  0  0  0  0  0  0  0  0  0
   56.0509   29.7083   43.3246 H   0  0  0  0  0  0  0  0  0  0  0  0
   59.0171   29.1940   45.5912 H   0  0  0  0  0  0  0  0  0  0  0  0
   60.2301   31.0915   46.6575 H   0  0  0  0  0  0  0  0  0  0  0  0
   62.2676   33.1450   45.5137 H   0  0  0  0  0  0  0  0  0  0  0  0
   62.2782   34.8382   46.1341 H   0  0  0  0  0  0  0  0  0  0  0  0
   64.3497   32.9401   46.4060 H   0  0  0  0  0  0  0  0  0  0  0  0
   64.1770   34.4977   47.3096 H   0  0  0  0  0  0  0  0  0  0  0  0
   62.6127   32.9818   50.1175 H   0  0  0  0  0  0  0  0  0  0  0  0
   63.4244   34.4775   49.4791 H   0  0  0  0  0  0  0  0  0  0  0  0
   60.6618   33.8262   49.3253 H   0  0  0  0  0  0  0  0  0  0  0  0
   61.5195   35.1787   48.5093 H   0  0  0  0  0  0  0  0  0  0  0  0
   57.3055   33.8576   45.0631 H   0  0  0  0  0  0  0  0  0  0  0  0
   56.0920   31.9617   43.9962 H   0  0  0  0  0  0  0  0  0  0  0  0
   58.0357   25.6515   44.6516 H   0  0  0  0  0  0  0  0  0  0  0  0
   60.3687   25.2196   45.4282 H   0  0  0  0  0  0  0  0  0  0  0  0
  1  2  1  0
  2  3  1  0
  3  4  2  0
  4  5  1  0
  5  6  2  0
  5  7  1  0
  7  8  1  0
  8  9  1  0
  9 10  2  0
 10 11  1  0
 11 12  2  0
 12 13  1  0
 13 14  2  0
 13 15  2  0
 13 16  1  0
 16 17  1  0
 17 18  1  0
 18 19  1  0
 19 20  1  0
 20 21  1  0
 12 22  1  0
 22 23  2  0
  4 24  1  0
 24 25  2  0
 25 26  1  0
 26 27  2  0
 26  2  1  0
 23  9  1  0
 21 16  1  0
  1 28  1  0
  1 29  1  0
  1 30  1  0
  3 31  1  0
  8 32  1  0
  8 33  1  0
 10 34  1  0
 11 35  1  0
 17 36  1  0
 17 37  1  0
 18 38  1  0
 18 39  1  0
 20 40  1  0
 20 41  1  0
 21 42  1  0
 21 43  1  0
 22 44  1  0
 23 45  1  0
 24 46  1  0
 25 47  1  0
M  CHG  1   7  -1
M  END
>  <UniqueID>  (60) 
56

>  <SMILES>  (60) 
Cn1cc(C(=O)[N-]Cc2ccc(S(=O)(=O)N3CCOCC3)cc2)ccc1=O

>  <Energy>  (60) 
57.124646825406046

>  <Genealogy>  (60) 
Cn1cc(C(=O)[N-]Cc2ccc(S(=O)(=O)N3CCOCC3)cc2)ccc1=O (protonated)
Cn1cc(C(=O)[N-]Cc2ccc(S(=O)(=O)N3CCOCC3)cc2)ccc1=O (3D coordinates assigned)
Cn1cc(C(=O)[N-]Cc2ccc(S(=O)(=O)N3CCOCC3)cc2)ccc1=O (nonaromatic ring conformer: 57.124646825406046 kcal/mol)

>  <smiles>  (60) 
Cn1cc(C(=O)NCc2ccc(S(=O)(=O)N3CCOCC3)cc2)ccc1=O

>  <score_type>  (60) 
oracle

>  <origin>  (60) 
adg

>  <m_score__min__energy>  (60) 
-10.630000000000001

>  <m_primary>  (60) 
energy

$$$$
60:0
     RDKit          3D

 61 64  0  0  0  0  0  0  0  0999 V2000
   54.9070   26.2970   46.0040 N   0  0  0  0  0  0  0  0  0  0  0  0
   56.1950   25.8440   46.4160 C   0  0  0  0  0  0  0  0  0  0  0  0
   56.2780   24.8360   47.1680 O   0  0  0  0  0  0  0  0  0  0  0  0
   57.4210   26.5510   45.9740 C   0  0  0  0  0  0  0  0  0  0  0  0
   58.6900   26.0960   46.3680 C   0  0  0  0  0  0  0  0  0  0  0  0
   59.8430   26.7610   45.9420 C   0  0  0  0  0  0  0  0  0  0  0  0
   59.7450   27.8810   45.1140 C   0  0  0  0  0  0  0  0  0  0  0  0
   58.4850   28.3500   44.7020 C   0  0  0  0  0  0  0  0  0  0  0  0
   58.3480   29.4850   43.8230 N   0  0  0  0  0  0  0  0  0  0  0  0
   57.3790   30.5690   44.0140 C   0  0  0  0  0  0  0  0  0  0  0  0
   58.0190   31.8030   44.6220 C   0  0  0  0  0  0  0  0  0  0  0  0
   57.9590   33.0390   43.9450 C   0  0  0  0  0  0  0  0  0  0  0  0
   58.5290   34.1850   44.5020 C   0  0  0  0  0  0  0  0  0  0  0  0
   59.1410   34.1330   45.7620 C   0  0  0  0  0  0  0  0  0  0  0  0
   59.7290   35.3490   46.3610 C   0  0  0  0  0  0  0  0  0  0  0  0
   59.8340   36.3990   45.6670 O   0  0  0  0  0  0  0  0  0  0  0  0
   60.1910   35.3150   47.7160 N   0  0  0  0  0  0  0  0  0  0  0  0
   61.1030   34.4030   48.3460 C   0  0  0  0  0  0  0  0  0  0  0  0
   60.9450   33.9450   49.6690 C   0  0  0  0  0  0  0  0  0  0  0  0
   61.8580   33.0360   50.2120 C   0  0  0  0  0  0  0  0  0  0  0  0
   62.9190   32.5550   49.4430 C   0  0  0  0  0  0  0  0  0  0  0  0
   63.0770   32.9850   48.1190 C   0  0  0  0  0  0  0  0  0  0  0  0
   64.1430   32.4710   47.3170 N   0  0  0  0  0  0  0  0  0  0  0  0
   62.1710   33.9110   47.5790 C   0  0  0  0  0  0  0  0  0  0  0  0
   59.1730   32.9150   46.4570 C   0  0  0  0  0  0  0  0  0  0  0  0
   58.5950   31.7540   45.9100 C   0  0  0  0  0  0  0  0  0  0  0  0
   58.6410   30.5080   46.6250 N   0  0  0  0  0  0  0  0  0  0  0  0
   59.5720   30.1710   47.6640 C   0  0  0  0  0  0  0  0  0  0  0  0
   60.6550   29.6010   47.3650 O   0  0  0  0  0  0  0  0  0  0  0  0
   59.2420   30.4800   49.0820 C   0  0  0  0  0  0  0  0  0  0  0  0
   58.5250   31.6680   49.3410 C   0  0  0  0  0  0  0  0  0  0  0  0
   58.1000   31.9850   50.6280 C   0  0  0  0  0  0  0  0  0  0  0  0
   58.3660   31.1170   51.6830 C   0  0  0  0  0  0  0  0  0  0  0  0
   59.0950   29.9490   51.4610 C   0  0  0  0  0  0  0  0  0  0  0  0
   59.5740   29.6240   50.1750 C   0  0  0  0  0  0  0  0  0  0  0  0
   60.4070   28.3640   50.0050 C   0  0  0  0  0  0  0  0  0  0  0  0
   60.3910   27.5820   51.1470 F   0  0  0  0  0  0  0  0  0  0  0  0
   61.7250   28.6960   49.7470 F   0  0  0  0  0  0  0  0  0  0  0  0
   59.9030   27.6100   48.9630 F   0  0  0  0  0  0  0  0  0  0  0  0
   57.3300   27.6850   45.1440 C   0  0  0  0  0  0  0  0  0  0  0  0
   54.7590   26.7270   45.0600 H   0  0  0  0  0  0  0  0  0  0  0  0
   58.7769   25.2111   47.0156 H   0  0  0  0  0  0  0  0  0  0  0  0
   60.8322   26.4004   46.2605 H   0  0  0  0  0  0  0  0  0  0  0  0
   60.6573   28.3986   44.7826 H   0  0  0  0  0  0  0  0  0  0  0  0
   59.0220   29.5850   43.0270 H   0  0  0  0  0  0  0  0  0  0  0  0
   56.9485   30.8366   43.0377 H   0  0  0  0  0  0  0  0  0  0  0  0
   56.6027   30.2125   44.7070 H   0  0  0  0  0  0  0  0  0  0  0  0
   57.4577   33.1004   42.9678 H   0  0  0  0  0  0  0  0  0  0  0  0
   58.4977   35.1351   43.9485 H   0  0  0  0  0  0  0  0  0  0  0  0
   60.1009   34.3036   50.2764 H   0  0  0  0  0  0  0  0  0  0  0  0
   61.7395   32.6977   51.2519 H   0  0  0  0  0  0  0  0  0  0  0  0
   63.6315   31.8379   49.8768 H   0  0  0  0  0  0  0  0  0  0  0  0
   64.1900   31.4590   47.0720 H   0  0  0  0  0  0  0  0  0  0  0  0
   64.8940   33.1040   46.9620 H   0  0  0  0  0  0  0  0  0  0  0  0
   62.2993   34.2554   46.5422 H   0  0  0  0  0  0  0  0  0  0  0  0
   59.6568   32.8665   47.4437 H   0  0  0  0  0  0  0  0  0  0  0  0
   58.2984   32.3546   48.5120 H   0  0  0  0  0  0  0  0  0  0  0  0
   57.5537   32.9220   50.8114 H   0  0  0  0  0  0  0  0  0  0  0  0
   58.0007   31.3526   52.6935 H   0  0  0  0  0  0  0  0  0  0  0  0
   59.2996   29.2705   52.3023 H   0  0  0  0  0  0  0  0  0  0  0  0
   56.3404   28.0549   44.8377 H   0  0  0  0  0  0  0  0  0  0  0  0
  1  2  1  0
  2  3  2  0
  2  4  1  0
  4  5  2  0
  5  6  1  0
  6  7  2  0
  7  8  1  0
  8  9  1  0
  9 10  1  0
 10 11  1  0
 11 12  2  0
 12 13  1  0
 13 14  2  0
 14 15  1  0
 15 16  2  0
 15 17  1  0
 17 18  1  0
 18 19  2  0
 19 20  1  0
 20 21  2  0
 21 22  1  0
 22 23  1  0
 22 24  2  0
 14 25  1  0
 25 26  2  0
 26 27  1  0
 27 28  1  0
 28 29  2  0
 28 30  1  0
 30 31  2  0
 31 32  1  0
 32 33  2  0
 33 34  1  0
 34 35  2  0
 35 36  1  0
 36 37  1  0
 36 38  1  0
 36 39  1  0
  8 40  2  0
 40  4  1  0
 26 11  1  0
 35 30  1  0
 24 18  1  0
  1 41  1  0
  5 42  1  0
  6 43  1  0
  7 44  1  0
  9 45  1  0
 10 46  1  0
 10 47  1  0
 12 48  1  0
 13 49  1  0
 19 50  1  0
 20 51  1  0
 21 52  1  0
 23 53  1  0
 23 54  1  0
 24 55  1  0
 25 56  1  0
 31 57  1  0
 32 58  1  0
 33 59  1  0
 34 60  1  0
 40 61  1  0
M  CHG  3   1  -1  17  -1  27  -1
M  END
>  <UniqueID>  (61) 
57

>  <SMILES>  (61) 
[NH-]C(=O)c1cccc(NCc2ccc(C(=O)[N-]c3cccc(N)c3)cc2[N-]C(=O)c2ccccc2C(F)(F)F)c1

>  <Energy>  (61) 
83.34962745265634

>  <Genealogy>  (61) 
[NH-]C(=O)c1cccc(NCc2ccc(C(=O)[N-]c3cccc(N)c3)cc2[N-]C(=O)c2ccccc2C(F)(F)F)c1 (protonated)
[NH-]C(=O)c1cccc(NCc2ccc(C(=O)[N-]c3cccc(N)c3)cc2[N-]C(=O)c2ccccc2C(F)(F)F)c1 (3D coordinates assigned)
[NH-]C(=O)c1cccc(NCc2ccc(C(=O)[N-]c3cccc(N)c3)cc2[N-]C(=O)c2ccccc2C(F)(F)F)c1 (optimized conformer: 83.34962745265634 kcal/mol)

>  <smiles>  (61) 
NC(=O)c1cccc(NCc2ccc(C(=O)Nc3cccc(N)c3)cc2NC(=O)c2ccccc2C(F)(F)F)c1

>  <score_type>  (61) 
oracle

>  <origin>  (61) 
adg

>  <m_score__min__energy>  (61) 
-15.18

>  <m_primary>  (61) 
energy

$$$$
61:0
     RDKit          3D

 45 47  0  0  0  0  0  0  0  0999 V2000
   55.2130   29.5470   44.9610 N   0  0  0  0  0  0  0  0  0  0  0  0
   56.8260   29.7280   44.3730 S   0  0  0  0  0  0  0  0  0  0  0  0
   57.6880   28.6240   44.9150 O   0  0  0  0  0  0  0  0  0  0  0  0
   56.8160   29.6400   42.8720 O   0  0  0  0  0  0  0  0  0  0  0  0
   57.4700   31.2880   44.8940 C   0  0  0  0  0  0  0  0  0  0  0  0
   57.3860   32.4010   44.0410 C   0  0  0  0  0  0  0  0  0  0  0  0
   57.9050   33.6350   44.4380 C   0  0  0  0  0  0  0  0  0  0  0  0
   58.5040   33.7710   45.6900 C   0  0  0  0  0  0  0  0  0  0  0  0
   58.5870   32.6730   46.5500 C   0  0  0  0  0  0  0  0  0  0  0  0
   58.0870   31.4240   46.1530 C   0  0  0  0  0  0  0  0  0  0  0  0
   58.1430   30.3070   47.0470 N   0  0  0  0  0  0  0  0  0  0  0  0
   58.9450   30.3570   48.5810 S   0  0  0  0  0  0  0  0  0  0  0  0
   58.9410   28.9830   49.1890 O   0  0  0  0  0  0  0  0  0  0  0  0
   58.1680   31.2630   49.4950 O   0  0  0  0  0  0  0  0  0  0  0  0
   60.5950   30.9810   48.4350 C   0  0  0  0  0  0  0  0  0  0  0  0
   61.1620   31.6480   49.5320 C   0  0  0  0  0  0  0  0  0  0  0  0
   62.4630   32.1490   49.4600 C   0  0  0  0  0  0  0  0  0  0  0  0
   63.2050   32.0000   48.2890 C   0  0  0  0  0  0  0  0  0  0  0  0
   62.6510   31.3470   47.1860 C   0  0  0  0  0  0  0  0  0  0  0  0
   61.3480   30.8180   47.2520 C   0  0  0  0  0  0  0  0  0  0  0  0
   60.7430   30.2060   46.1020 N   0  0  0  0  0  0  0  0  0  0  0  0
   60.6690   28.8040   45.8150 C   0  0  0  0  0  0  0  0  0  0  0  0
   60.8630   28.3750   44.6470 O   0  0  0  0  0  0  0  0  0  0  0  0
   60.3610   27.8340   46.9140 C   0  0  0  0  0  0  0  0  0  0  0  0
   59.3160   26.9010   46.5010 N   0  0  0  0  0  0  0  0  0  0  0  0
   59.4710   25.8600   45.6590 C   0  0  0  0  0  0  0  0  0  0  0  0
   58.2470   25.2510   45.4830 C   0  0  0  0  0  0  0  0  0  0  0  0
   57.3850   26.0030   46.2600 C   0  0  0  0  0  0  0  0  0  0  0  0
   55.9800   25.7810   46.4050 N   0  0  0  0  0  0  0  0  0  0  0  0
   55.1600   26.6340   46.0080 O   0  0  0  0  0  0  0  0  0  0  0  0
   55.5240   24.6210   46.9840 O   0  0  0  0  0  0  0  0  0  0  0  0
   58.0490   27.0040   46.8700 N   0  0  0  0  0  0  0  0  0  0  0  0
   55.2150   28.7280   45.6110 H   0  0  0  0  0  0  0  0  0  0  0  0
   56.9088   32.2999   43.0551 H   0  0  0  0  0  0  0  0  0  0  0  0
   57.8413   34.5008   43.7625 H   0  0  0  0  0  0  0  0  0  0  0  0
   58.9117   34.7442   46.0009 H   0  0  0  0  0  0  0  0  0  0  0  0
   59.0465   32.7885   47.5428 H   0  0  0  0  0  0  0  0  0  0  0  0
   60.5773   31.7769   50.4548 H   0  0  0  0  0  0  0  0  0  0  0  0
   62.9032   32.6618   50.3279 H   0  0  0  0  0  0  0  0  0  0  0  0
   64.2291   32.3977   48.2339 H   0  0  0  0  0  0  0  0  0  0  0  0
   63.2361   31.2453   46.2601 H   0  0  0  0  0  0  0  0  0  0  0  0
   61.2716   27.2693   47.1629 H   0  0  0  0  0  0  0  0  0  0  0  0
   60.0078   28.3947   47.7920 H   0  0  0  0  0  0  0  0  0  0  0  0
   60.4163   25.5485   45.1906 H   0  0  0  0  0  0  0  0  0  0  0  0
   58.0107   24.3707   44.8671 H   0  0  0  0  0  0  0  0  0  0  0  0
  1  2  1  0
  2  3  2  0
  2  4  2  0
  2  5  1  0
  5  6  2  0
  6  7  1  0
  7  8  2  0
  8  9  1  0
  9 10  2  0
 10 11  1  0
 11 12  1  0
 12 13  2  0
 12 14  2  0
 12 15  1  0
 15 16  2  0
 16 17  1  0
 17 18  2  0
 18 19  1  0
 19 20  2  0
 20 21  1  0
 21 22  1  0
 22 23  2  0
 22 24  1  0
 24 25  1  0
 25 26  1  0
 26 27  2  0
 27 28  1  0
 28 29  1  0
 29 30  2  0
 29 31  1  0
 28 32  2  0
 10  5  1  0
 20 15  1  0
 32 25  1  0
  1 33  1  0
  6 34  1  0
  7 35  1  0
  8 36  1  0
  9 37  1  0
 16 38  1  0
 17 39  1  0
 18 40  1  0
 19 41  1  0
 24 42  1  0
 24 43  1  0
 26 44  1  0
 27 45  1  0
M  CHG  5   1  -1  11  -1  21  -1  29   1  31  -1
M  END
>  <UniqueID>  (62) 
58

>  <SMILES>  (62) 
[NH-]S(=O)(=O)c1ccccc1[N-]S(=O)(=O)c1ccccc1[N-]C(=O)Cn1ccc([N+](=O)[O-])n1

>  <Energy>  (62) 
83.47313546900494

>  <Genealogy>  (62) 
[NH-]S(=O)(=O)c1ccccc1[N-]S(=O)(=O)c1ccccc1[N-]C(=O)Cn1ccc([N+](=O)[O-])n1 (protonated)
[NH-]S(=O)(=O)c1ccccc1[N-]S(=O)(=O)c1ccccc1[N-]C(=O)Cn1ccc([N+](=O)[O-])n1 (3D coordinates assigned)
[NH-]S(=O)(=O)c1ccccc1[N-]S(=O)(=O)c1ccccc1[N-]C(=O)Cn1ccc([N+](=O)[O-])n1 (optimized conformer: 83.47313546900494 kcal/mol)

>  <smiles>  (62) 
NS(=O)(=O)c1ccccc1NS(=O)(=O)c1ccccc1NC(=O)Cn1ccc([N+](=O)[O-])n1

>  <score_type>  (62) 
oracle

>  <origin>  (62) 
adg

>  <m_score__min__energy>  (62) 
-15.779999999999999

>  <m_primary>  (62) 
energy

$$$$
62:0
     RDKit          3D

 63 67  0  0  0  0  0  0  0  0999 V2000
   55.5420   21.8480   42.9270 H   0  0  0  0  0  0  0  0  0  0  0  0
   56.1480   21.3080   43.5910 N   0  0  0  0  0  0  0  0  0  0  0  0
   55.6980   21.6110   44.9460 C   0  0  0  0  0  0  0  0  0  0  0  0
   55.9306   20.7704   45.6163 H   0  0  0  0  0  0  0  0  0  0  0  0
   54.6104   21.7742   44.9668 H   0  0  0  0  0  0  0  0  0  0  0  0
   56.4340   22.8540   45.4000 C   0  0  0  0  0  0  0  0  0  0  0  0
   56.6116   22.8279   46.4853 H   0  0  0  0  0  0  0  0  0  0  0  0
   55.8655   23.7754   45.2052 H   0  0  0  0  0  0  0  0  0  0  0  0
   57.7450   22.8080   44.6390 C   0  0  2  0  0  0  0  0  0  0  0  0
   58.5766   22.4883   45.2842 H   0  0  0  0  0  0  0  0  0  0  0  0
   58.0910   24.0960   44.1440 O   0  0  0  0  0  0  0  0  0  0  0  0
   58.2780   25.1520   45.0100 N   0  0  0  0  0  0  0  0  0  0  0  0
   57.8120   26.3400   44.7740 C   0  0  0  0  0  0  0  0  0  0  0  0
   58.1050   27.0700   43.4890 C   0  0  0  0  0  0  0  0  0  0  0  0
   57.2182   27.0304   42.8393 H   0  0  0  0  0  0  0  0  0  0  0  0
   58.9596   26.5881   42.9916 H   0  0  0  0  0  0  0  0  0  0  0  0
   58.4570   28.5350   43.7750 C   0  0  0  0  0  0  0  0  0  0  0  0
   58.5227   29.0720   42.8172 H   0  0  0  0  0  0  0  0  0  0  0  0
   59.4131   28.5409   44.3189 H   0  0  0  0  0  0  0  0  0  0  0  0
   57.4050   29.2570   44.6780 C   0  0  1  0  0  0  0  0  0  0  0  0
   56.0640   29.3740   43.8930 C   0  0  0  0  0  0  0  0  0  0  0  0
   55.2280   29.4469   44.6042 H   0  0  0  0  0  0  0  0  0  0  0  0
   56.0868   30.2736   43.2603 H   0  0  0  0  0  0  0  0  0  0  0  0
   55.9306   28.4841   43.2603 H   0  0  0  0  0  0  0  0  0  0  0  0
   57.1440   28.4360   46.0050 C   0  0  1  0  0  0  0  0  0  0  0  0
   56.2529   28.9126   46.4396 H   0  0  0  0  0  0  0  0  0  0  0  0
   56.8310   26.9440   45.7350 C   0  0  0  0  0  0  0  0  0  0  0  0
   55.8193   26.8624   45.3111 H   0  0  0  0  0  0  0  0  0  0  0  0
   56.9023   26.3992   46.6879 H   0  0  0  0  0  0  0  0  0  0  0  0
   58.2910   28.5450   47.0490 C   0  0  0  0  0  0  0  0  0  0  0  0
   57.9608   28.0670   47.9831 H   0  0  0  0  0  0  0  0  0  0  0  0
   59.1729   28.0463   46.6206 H   0  0  0  0  0  0  0  0  0  0  0  0
   58.6900   29.9970   47.3570 C   0  0  0  0  0  0  0  0  0  0  0  0
   57.8375   30.5277   47.8060 H   0  0  0  0  0  0  0  0  0  0  0  0
   59.5330   30.0119   48.0635 H   0  0  0  0  0  0  0  0  0  0  0  0
   59.0930   30.6830   46.0510 C   0  0  2  0  0  0  0  0  0  0  0  0
   59.9115   30.0696   45.6464 H   0  0  0  0  0  0  0  0  0  0  0  0
   59.7430   32.0860   46.1710 C   0  0  2  0  0  0  0  0  0  0  0  0
   60.4435   31.8979   45.3440 H   0  0  0  0  0  0  0  0  0  0  0  0
   60.6230   32.4690   47.3590 C   0  0  0  0  0  0  0  0  0  0  0  0
   61.5656   31.9021   47.3518 H   0  0  0  0  0  0  0  0  0  0  0  0
   60.1574   32.2512   48.3315 H   0  0  0  0  0  0  0  0  0  0  0  0
   60.8780   33.9690   47.1310 C   0  0  0  0  0  0  0  0  0  0  0  0
   61.8562   34.1318   46.6550 H   0  0  0  0  0  0  0  0  0  0  0  0
   60.8981   34.5433   48.0690 H   0  0  0  0  0  0  0  0  0  0  0  0
   59.7630   34.3900   46.2180 C   0  0  0  0  0  0  0  0  0  0  0  0
   59.6310   35.5320   45.8030 O   0  0  0  0  0  0  0  0  0  0  0  0
   58.8070   33.2770   45.9150 C   0  0  2  0  0  0  0  0  0  0  0  0
   57.6310   33.4200   46.9240 C   0  0  0  0  0  0  0  0  0  0  0  0
   58.0214   33.3725   47.9513 H   0  0  0  0  0  0  0  0  0  0  0  0
   57.1285   34.3859   46.7670 H   0  0  0  0  0  0  0  0  0  0  0  0
   56.9117   32.6027   46.7670 H   0  0  0  0  0  0  0  0  0  0  0  0
   58.3050   33.1970   44.4430 C   0  0  0  0  0  0  0  0  0  0  0  0
   59.0445   33.6916   43.7960 H   0  0  0  0  0  0  0  0  0  0  0  0
   57.3229   33.6914   44.4097 H   0  0  0  0  0  0  0  0  0  0  0  0
   58.0990   31.7300   43.9290 C   0  0  0  0  0  0  0  0  0  0  0  0
   58.9931   31.4278   43.3639 H   0  0  0  0  0  0  0  0  0  0  0  0
   57.1954   31.7251   43.3017 H   0  0  0  0  0  0  0  0  0  0  0  0
   57.8710   30.7060   45.0830 C   0  0  1  0  0  0  0  0  0  0  0  0
   56.9859   31.0942   45.6082 H   0  0  0  0  0  0  0  0  0  0  0  0
   57.5110   21.8330   43.4860 C   0  0  0  0  0  0  0  0  0  0  0  0
   58.2331   21.0055   43.5474 H   0  0  0  0  0  0  0  0  0  0  0  0
   57.6432   22.3488   42.5235 H   0  0  0  0  0  0  0  0  0  0  0  0
  1  2  1  0
  2  3  1  0
  3  4  1  0
  3  5  1  0
  3  6  1  0
  6  7  1  0
  6  8  1  0
  6  9  1  0
  9 10  1  1
  9 11  1  0
 11 12  1  0
 12 13  2  0
 13 14  1  0
 14 15  1  0
 14 16  1  0
 14 17  1  0
 17 18  1  0
 17 19  1  0
 17 20  1  0
 20 21  1  6
 21 22  1  0
 21 23  1  0
 21 24  1  0
 20 25  1  0
 25 26  1  1
 25 27  1  0
 27 28  1  0
 27 29  1  0
 25 30  1  0
 30 31  1  0
 30 32  1  0
 30 33  1  0
 33 34  1  0
 33 35  1  0
 33 36  1  0
 36 37  1  6
 36 38  1  0
 38 39  1  6
 38 40  1  0
 40 41  1  0
 40 42  1  0
 40 43  1  0
 43 44  1  0
 43 45  1  0
 43 46  1  0
 46 47  2  0
 46 48  1  0
 48 49  1  1
 49 50  1  0
 49 51  1  0
 49 52  1  0
 48 53  1  0
 53 54  1  0
 53 55  1  0
 53 56  1  0
 56 57  1  0
 56 58  1  0
 56 59  1  0
 59 60  1  1
  9 61  1  0
 61 62  1  0
 61 63  1  0
 61  2  1  0
 27 13  1  0
 59 36  1  0
 59 20  1  0
 48 38  1  0
M  END
>  <UniqueID>  (63) 
59

>  <SMILES>  (63) 
CC12CC/C(=N\OC3CCNC3)CC1CCC1C3CCC(=O)[C@@]3(C)CC[C@H]12

>  <Energy>  (63) 
92.57469612315592

>  <Genealogy>  (63) 
CC12CCC(=NOC3CCNC3)CC1CCC1C3CCC(=O)[C@@]3(C)CC[C@H]12 (chirality)
CC12CC/C(=N\OC3CCNC3)CC1CCC1C3CCC(=O)[C@@]3(C)CC[C@H]12 (cis-trans isomerization)
CC12CC/C(=N\OC3CCNC3)CC1CCC1C3CCC(=O)[C@@]3(C)CC[C@H]12 (3D coordinates assigned)
CC12CC/C(=N\OC3CCNC3)CC1CCC1C3CCC(=O)[C@@]3(C)CC[C@H]12 (nonaromatic ring conformer: 92.57469612315592 kcal/mol)

>  <smiles>  (63) 
CC12CCC3C(CCC4CC(=NOC5CCNC5)CCC43C)C1CCC2=O

>  <score_type>  (63) 
oracle

>  <origin>  (63) 
adg

>  <m_score__min__energy>  (63) 
-10.539999999999999

>  <m_primary>  (63) 
energy

$$$$
63:0
     RDKit          3D

 40 42  0  0  0  0  0  0  0  0999 V2000
   55.1520   26.6750   45.6490 N   0  0  0  0  0  0  0  0  0  0  0  0
   56.3440   26.2620   46.3140 C   0  0  0  0  0  0  0  0  0  0  0  0
   56.2860   25.2870   47.1120 O   0  0  0  0  0  0  0  0  0  0  0  0
   57.6460   26.9390   46.0610 C   0  0  0  0  0  0  0  0  0  0  0  0
   58.8350   26.1930   46.1830 C   0  0  0  0  0  0  0  0  0  0  0  0
   60.0780   26.7860   45.9570 C   0  0  0  0  0  0  0  0  0  0  0  0
   60.1580   28.1350   45.6180 C   0  0  0  0  0  0  0  0  0  0  0  0
   58.9940   28.8910   45.4880 C   0  0  0  0  0  0  0  0  0  0  0  0
   57.7320   28.3050   45.6870 C   0  0  0  0  0  0  0  0  0  0  0  0
   56.5540   29.1210   45.6280 N   0  0  0  0  0  0  0  0  0  0  0  0
   56.0600   29.8080   44.4710 C   0  0  0  0  0  0  0  0  0  0  0  0
   55.0440   29.3540   43.8830 O   0  0  0  0  0  0  0  0  0  0  0  0
   56.7550   31.0160   43.9000 C   0  0  0  0  0  0  0  0  0  0  0  0
   56.7050   32.1160   44.8080 O   0  0  0  0  0  0  0  0  0  0  0  0
   57.7930   32.5220   45.5870 C   0  0  0  0  0  0  0  0  0  0  0  0
   58.7690   31.7460   45.7810 O   0  0  0  0  0  0  0  0  0  0  0  0
   57.8100   33.8950   46.1790 C   0  0  0  0  0  0  0  0  0  0  0  0
   59.0920   34.9180   45.3780 S   0  0  0  0  0  0  0  0  0  0  0  0
   60.4090   34.4080   46.4800 C   0  0  0  0  0  0  0  0  0  0  0  0
   60.3370   34.5580   47.8270 N   0  0  0  0  0  0  0  0  0  0  0  0
   61.5090   34.0550   48.2350 C   0  0  0  0  0  0  0  0  0  0  0  0
   61.9860   33.9560   49.5400 C   0  0  0  0  0  0  0  0  0  0  0  0
   63.2600   33.3850   49.7270 C   0  0  0  0  0  0  0  0  0  0  0  0
   64.0130   32.9370   48.6170 C   0  0  0  0  0  0  0  0  0  0  0  0
   63.4970   33.0570   47.3130 C   0  0  0  0  0  0  0  0  0  0  0  0
   62.2340   33.6260   47.1670 C   0  0  0  0  0  0  0  0  0  0  0  0
   61.5560   33.8380   46.0300 N   0  0  0  0  0  0  0  0  0  0  0  0
   55.1750   27.4180   44.9140 H   0  0  0  0  0  0  0  0  0  0  0  0
   58.7829   25.1297   46.4599 H   0  0  0  0  0  0  0  0  0  0  0  0
   60.9963   26.1871   46.0467 H   0  0  0  0  0  0  0  0  0  0  0  0
   61.1395   28.6035   45.4530 H   0  0  0  0  0  0  0  0  0  0  0  0
   59.0639   29.9573   45.2270 H   0  0  0  0  0  0  0  0  0  0  0  0
   57.8067   30.7637   43.6993 H   0  0  0  0  0  0  0  0  0  0  0  0
   56.2424   31.3068   42.9712 H   0  0  0  0  0  0  0  0  0  0  0  0
   56.8266   34.3654   46.0316 H   0  0  0  0  0  0  0  0  0  0  0  0
   58.0350   33.8176   47.2529 H   0  0  0  0  0  0  0  0  0  0  0  0
   61.3895   34.3108   50.3934 H   0  0  0  0  0  0  0  0  0  0  0  0
   63.6716   33.2870   50.7424 H   0  0  0  0  0  0  0  0  0  0  0  0
   65.0070   32.4925   48.7735 H   0  0  0  0  0  0  0  0  0  0  0  0
   64.0710   32.7135   46.4398 H   0  0  0  0  0  0  0  0  0  0  0  0
  1  2  1  0
  2  3  2  0
  2  4  1  0
  4  5  2  0
  5  6  1  0
  6  7  2  0
  7  8  1  0
  8  9  2  0
  9 10  1  0
 10 11  1  0
 11 12  2  0
 11 13  1  0
 13 14  1  0
 14 15  1  0
 15 16  2  0
 15 17  1  0
 17 18  1  0
 18 19  1  0
 19 20  2  0
 20 21  1  0
 21 22  2  0
 22 23  1  0
 23 24  2  0
 24 25  1  0
 25 26  2  0
 26 27  1  0
  9  4  1  0
 27 19  1  0
 26 21  1  0
  1 28  1  0
  5 29  1  0
  6 30  1  0
  7 31  1  0
  8 32  1  0
 13 33  1  0
 13 34  1  0
 17 35  1  0
 17 36  1  0
 22 37  1  0
 23 38  1  0
 24 39  1  0
 25 40  1  0
M  CHG  3   1  -1  10  -1  27  -1
M  END
>  <UniqueID>  (64) 
60

>  <SMILES>  (64) 
[NH-]C(=O)c1ccccc1[N-]C(=O)COC(=O)CSc1nc2ccccc2[n-]1

>  <Energy>  (64) 
74.39746488586735

>  <Genealogy>  (64) 
[NH-]C(=O)c1ccccc1[N-]C(=O)COC(=O)CSc1nc2ccccc2[n-]1 (protonated)
[NH-]C(=O)c1ccccc1[N-]C(=O)COC(=O)CSc1nc2ccccc2[n-]1 (3D coordinates assigned)
[NH-]C(=O)c1ccccc1[N-]C(=O)COC(=O)CSc1nc2ccccc2[n-]1 (optimized conformer: 74.39746488586735 kcal/mol)

>  <smiles>  (64) 
NC(=O)c1ccccc1NC(=O)COC(=O)CSc1nc2ccccc2[nH]1

>  <score_type>  (64) 
oracle

>  <origin>  (64) 
adg

>  <m_score__min__energy>  (64) 
-14.93

>  <m_primary>  (64) 
energy

$$$$
64:0
     RDKit          3D

 34 36  0  0  0  0  0  0  0  0999 V2000
   57.1343   26.0285   44.2311 H   0  0  0  0  0  0  0  0  0  0  0  0
   57.7690   26.7930   44.7030 C   0  0  0  0  0  0  0  0  0  0  0  0
   57.6240   27.0800   46.0630 C   0  0  0  0  0  0  0  0  0  0  0  0
   56.8735   26.5418   46.6605 H   0  0  0  0  0  0  0  0  0  0  0  0
   58.4310   28.0500   46.6660 C   0  0  0  0  0  0  0  0  0  0  0  0
   58.3142   28.2725   47.7369 H   0  0  0  0  0  0  0  0  0  0  0  0
   59.3920   28.7420   45.9060 C   0  0  0  0  0  0  0  0  0  0  0  0
   60.2400   29.7430   46.4800 N   0  0  0  0  0  0  0  0  0  0  0  0
   59.7120   31.0300   47.5160 S   0  0  0  0  0  0  0  0  0  0  0  0
   60.8330   31.4540   48.4240 O   0  0  0  0  0  0  0  0  0  0  0  0
   58.5480   30.5530   48.3380 O   0  0  0  0  0  0  0  0  0  0  0  0
   59.2350   32.4060   46.5190 C   0  0  0  0  0  0  0  0  0  0  0  0
   59.9840   33.5920   46.5630 C   0  0  0  0  0  0  0  0  0  0  0  0
   60.8657   33.6575   47.2174 H   0  0  0  0  0  0  0  0  0  0  0  0
   59.6170   34.6900   45.7810 C   0  0  0  0  0  0  0  0  0  0  0  0
   60.2048   35.6186   45.8267 H   0  0  0  0  0  0  0  0  0  0  0  0
   58.5050   34.6090   44.9420 C   0  0  0  0  0  0  0  0  0  0  0  0
   58.2201   35.4725   44.3230 H   0  0  0  0  0  0  0  0  0  0  0  0
   57.7530   33.4330   44.8870 C   0  0  0  0  0  0  0  0  0  0  0  0
   56.8855   33.3703   44.2135 H   0  0  0  0  0  0  0  0  0  0  0  0
   58.0980   32.3270   45.6880 C   0  0  0  0  0  0  0  0  0  0  0  0
   57.3610   31.0950   45.6150 N   0  0  0  0  0  0  0  0  0  0  0  0
   56.7380   30.6270   44.5750 C   0  0  0  0  0  0  0  0  0  0  0  0
   55.5190   30.0520   44.6000 N   0  0  0  0  0  0  0  0  0  0  0  0
   55.2550   29.6640   43.3630 N   0  0  0  0  0  0  0  0  0  0  0  0
   54.3730   29.1840   43.0750 H   0  0  0  0  0  0  0  0  0  0  0  0
   56.2870   29.9730   42.5560 C   0  0  0  0  0  0  0  0  0  0  0  0
   56.3397   29.7658   41.4770 H   0  0  0  0  0  0  0  0  0  0  0  0
   57.2680   30.5920   43.3030 C   0  0  0  0  0  0  0  0  0  0  0  0
   58.2439   30.9690   42.9633 H   0  0  0  0  0  0  0  0  0  0  0  0
   59.5270   28.4500   44.5420 C   0  0  0  0  0  0  0  0  0  0  0  0
   60.2722   28.9894   43.9389 H   0  0  0  0  0  0  0  0  0  0  0  0
   58.7210   27.4780   43.9430 C   0  0  0  0  0  0  0  0  0  0  0  0
   58.8360   27.2520   42.8726 H   0  0  0  0  0  0  0  0  0  0  0  0
  1  2  1  0
  2  3  2  0
  3  4  1  0
  3  5  1  0
  5  6  1  0
  5  7  2  0
  7  8  1  0
  8  9  1  0
  9 10  2  0
  9 11  2  0
  9 12  1  0
 12 13  2  0
 13 14  1  0
 13 15  1  0
 15 16  1  0
 15 17  2  0
 17 18  1  0
 17 19  1  0
 19 20  1  0
 19 21  2  0
 21 22  1  0
 22 23  2  0
 23 24  1  0
 24 25  1  0
 25 26  1  0
 25 27  1  0
 27 28  1  0
 27 29  2  0
 29 30  1  0
  7 31  1  0
 31 32  1  0
 31 33  2  0
 33 34  1  0
 33  2  1  0
 21 12  1  0
 29 23  1  0
M  CHG  2   8  -1  24  -1
M  END
>  <UniqueID>  (65) 
61

>  <SMILES>  (65) 
O=S(=O)([N-]c1ccccc1)c1ccccc1/N=c1/cc[nH][n-]1

>  <Energy>  (65) 
76.936940360619

>  <Genealogy>  (65) 
O=S(=O)([N-]c1ccccc1)c1ccccc1N=c1cc[nH][n-]1 (protonated)
O=S(=O)([N-]c1ccccc1)c1ccccc1/N=c1/cc[nH][n-]1 (cis-trans isomerization)
O=S(=O)([N-]c1ccccc1)c1ccccc1/N=c1/cc[nH][n-]1 (3D coordinates assigned)
O=S(=O)([N-]c1ccccc1)c1ccccc1/N=c1/cc[nH][n-]1 (optimized conformer: 76.936940360619 kcal/mol)

>  <smiles>  (65) 
O=S(=O)(Nc1ccccc1)c1ccccc1N=c1cc[nH][nH]1

>  <score_type>  (65) 
oracle

>  <origin>  (65) 
adg

>  <m_score__min__energy>  (65) 
-11.99

>  <m_primary>  (65) 
energy

$$$$
65:0
     RDKit          3D

 28 29  0  0  0  0  0  0  0  0999 V2000
   63.5520   32.7710   46.9810 N   0  0  0  0  0  0  0  0  0  0  0  0
   63.2490   33.0410   48.2190 C   0  0  0  0  0  0  0  0  0  0  0  0
   62.1110   33.8680   48.5230 N   0  0  0  0  0  0  0  0  0  0  0  0
   60.8970   33.8800   47.7510 C   0  0  0  0  0  0  0  0  0  0  0  0
   60.9230   34.2130   46.3850 C   0  0  0  0  0  0  0  0  0  0  0  0
   59.7490   34.1930   45.6280 C   0  0  0  0  0  0  0  0  0  0  0  0
   58.5380   33.8320   46.2220 C   0  0  0  0  0  0  0  0  0  0  0  0
   57.0650   33.8070   45.2690 Cl  0  0  0  0  0  0  0  0  0  0  0  0
   58.5020   33.4830   47.5750 C   0  0  0  0  0  0  0  0  0  0  0  0
   59.6740   33.4990   48.3410 C   0  0  0  0  0  0  0  0  0  0  0  0
   59.5730   33.0730   50.0450 Cl  0  0  0  0  0  0  0  0  0  0  0  0
   64.0930   32.5370   49.3340 C   0  0  0  0  0  0  0  0  0  0  0  0
   63.6480   31.4980   50.1730 C   0  0  0  0  0  0  0  0  0  0  0  0
   64.4590   31.0330   51.2120 C   0  0  0  0  0  0  0  0  0  0  0  0
   65.7200   31.5940   51.4230 C   0  0  0  0  0  0  0  0  0  0  0  0
   66.1760   32.6210   50.5910 C   0  0  0  0  0  0  0  0  0  0  0  0
   67.9020   33.3860   50.8790 Br  0  0  0  0  0  0  0  0  0  0  0  0
   65.3680   33.0880   49.5500 C   0  0  0  0  0  0  0  0  0  0  0  0
   64.5250   32.5090   46.7090 H   0  0  0  0  0  0  0  0  0  0  0  0
   62.8400   32.8130   46.2190 H   0  0  0  0  0  0  0  0  0  0  0  0
   62.1620   34.4650   49.3790 H   0  0  0  0  0  0  0  0  0  0  0  0
   61.8748   34.4913   45.9090 H   0  0  0  0  0  0  0  0  0  0  0  0
   59.7787   34.4622   44.5619 H   0  0  0  0  0  0  0  0  0  0  0  0
   57.5480   33.1943   48.0404 H   0  0  0  0  0  0  0  0  0  0  0  0
   62.6568   31.0497   50.0101 H   0  0  0  0  0  0  0  0  0  0  0  0
   64.1028   30.2228   51.8653 H   0  0  0  0  0  0  0  0  0  0  0  0
   66.3546   31.2281   52.2436 H   0  0  0  0  0  0  0  0  0  0  0  0
   65.7328   33.8928   48.8949 H   0  0  0  0  0  0  0  0  0  0  0  0
  1  2  2  0
  2  3  1  0
  3  4  1  0
  4  5  2  0
  5  6  1  0
  6  7  2  0
  7  8  1  0
  7  9  1  0
  9 10  2  0
 10 11  1  0
  2 12  1  0
 12 13  2  0
 13 14  1  0
 14 15  2  0
 15 16  1  0
 16 17  1  0
 16 18  2  0
 10  4  1  0
 18 12  1  0
  1 19  1  0
  1 20  1  0
  3 21  1  0
  5 22  1  0
  6 23  1  0
  9 24  1  0
 13 25  1  0
 14 26  1  0
 15 27  1  0
 18 28  1  0
M  CHG  1   1   1
M  END
>  <UniqueID>  (66) 
62

>  <SMILES>  (66) 
[NH2+]=C(Nc1ccc(Cl)cc1Cl)c1cccc(Br)c1

>  <Energy>  (66) 
37.23539851221122

>  <Genealogy>  (66) 
[NH2+]=C(Nc1ccc(Cl)cc1Cl)c1cccc(Br)c1 (protonated)
[NH2+]=C(Nc1ccc(Cl)cc1Cl)c1cccc(Br)c1 (3D coordinates assigned)
[NH2+]=C(Nc1ccc(Cl)cc1Cl)c1cccc(Br)c1 (optimized conformer: 37.23539851221122 kcal/mol)

>  <smiles>  (66) 
N=C(Nc1ccc(Cl)cc1Cl)c1cccc(Br)c1

>  <score_type>  (66) 
oracle

>  <origin>  (66) 
adg

>  <m_score__min__energy>  (66) 
-5.7599999999999998

>  <m_primary>  (66) 
energy

$$$$
66:0
     RDKit          3D

 48 50  0  0  0  0  0  0  0  0999 V2000
   55.6830   24.0460   44.8970 C   0  0  0  0  0  0  0  0  0  0  0  0
   55.9680   25.4020   46.0110 S   0  0  0  0  0  0  0  0  0  0  0  0
   54.7760   26.3170   45.9850 O   0  0  0  0  0  0  0  0  0  0  0  0
   56.1710   24.8630   47.4000 O   0  0  0  0  0  0  0  0  0  0  0  0
   57.3840   26.2610   45.4990 N   0  0  0  0  0  0  0  0  0  0  0  0
   57.8160   27.5260   46.0190 C   0  0  0  0  0  0  0  0  0  0  0  0
   57.8530   28.6260   45.1540 C   0  0  0  0  0  0  0  0  0  0  0  0
   58.2580   29.8790   45.6210 C   0  0  0  0  0  0  0  0  0  0  0  0
   58.6350   30.0420   46.9550 C   0  0  0  0  0  0  0  0  0  0  0  0
   58.6230   28.9470   47.8350 C   0  0  0  0  0  0  0  0  0  0  0  0
   59.0150   29.1110   49.2560 C   0  0  0  0  0  0  0  0  0  0  0  0
   59.9250   28.3840   49.7320 O   0  0  0  0  0  0  0  0  0  0  0  0
   58.3530   30.0390   50.1260 N   0  0  0  0  0  0  0  0  0  0  0  0
   58.9840   31.0290   50.9550 C   0  0  0  0  0  0  0  0  0  0  0  0
   60.2910   31.4690   50.6750 C   0  0  0  0  0  0  0  0  0  0  0  0
   60.9330   32.3690   51.5270 C   0  0  0  0  0  0  0  0  0  0  0  0
   60.2900   32.8210   52.6790 C   0  0  0  0  0  0  0  0  0  0  0  0
   59.0010   32.3790   52.9810 C   0  0  0  0  0  0  0  0  0  0  0  0
   58.3310   31.4920   52.1200 C   0  0  0  0  0  0  0  0  0  0  0  0
   56.9600   31.0580   52.4650 C   0  0  0  0  0  0  0  0  0  0  0  0
   56.7470   30.5580   53.6020 O   0  0  0  0  0  0  0  0  0  0  0  0
   55.8850   31.2090   51.5200 N   0  0  0  0  0  0  0  0  0  0  0  0
   54.5370   30.7660   51.7540 C   0  0  0  0  0  0  0  0  0  0  0  0
   54.2650   29.5620   52.4240 C   0  0  0  0  0  0  0  0  0  0  0  0
   52.9460   29.1690   52.6560 C   0  0  0  0  0  0  0  0  0  0  0  0
   51.8860   29.9770   52.2390 C   0  0  0  0  0  0  0  0  0  0  0  0
   52.1370   31.1990   51.5910 C   0  0  0  0  0  0  0  0  0  0  0  0
   51.0200   32.0660   51.1570 C   0  0  0  0  0  0  0  0  0  0  0  0
   50.2570   32.6010   52.0060 O   0  0  0  0  0  0  0  0  0  0  0  0
   50.7950   32.3040   49.8060 O   0  0  0  0  0  0  0  0  0  0  0  0
   53.4690   31.5890   51.3600 C   0  0  0  0  0  0  0  0  0  0  0  0
   58.2000   27.6920   47.3620 C   0  0  0  0  0  0  0  0  0  0  0  0
   55.4906   23.1304   45.4755 H   0  0  0  0  0  0  0  0  0  0  0  0
   54.8121   24.2690   44.2631 H   0  0  0  0  0  0  0  0  0  0  0  0
   56.5700   23.8996   44.2631 H   0  0  0  0  0  0  0  0  0  0  0  0
   57.5615   28.5032   44.1005 H   0  0  0  0  0  0  0  0  0  0  0  0
   58.2798   30.7392   44.9357 H   0  0  0  0  0  0  0  0  0  0  0  0
   58.9431   31.0332   47.3192 H   0  0  0  0  0  0  0  0  0  0  0  0
   60.8105   31.1009   49.7780 H   0  0  0  0  0  0  0  0  0  0  0  0
   61.9473   32.7222   51.2895 H   0  0  0  0  0  0  0  0  0  0  0  0
   60.7997   33.5272   53.3509 H   0  0  0  0  0  0  0  0  0  0  0  0
   58.5056   32.7272   53.8994 H   0  0  0  0  0  0  0  0  0  0  0  0
   56.1020   31.5980   50.5760 H   0  0  0  0  0  0  0  0  0  0  0  0
   55.0946   28.9264   52.7672 H   0  0  0  0  0  0  0  0  0  0  0  0
   52.7404   28.2183   53.1697 H   0  0  0  0  0  0  0  0  0  0  0  0
   50.8494   29.6556   52.4185 H   0  0  0  0  0  0  0  0  0  0  0  0
   53.6764   32.5493   50.8652 H   0  0  0  0  0  0  0  0  0  0  0  0
   58.1692   26.8328   48.0481 H   0  0  0  0  0  0  0  0  0  0  0  0
  1  2  1  0
  2  3  2  0
  2  4  2  0
  2  5  1  0
  5  6  1  0
  6  7  2  0
  7  8  1  0
  8  9  2  0
  9 10  1  0
 10 11  1  0
 11 12  2  0
 11 13  1  0
 13 14  1  0
 14 15  2  0
 15 16  1  0
 16 17  2  0
 17 18  1  0
 18 19  2  0
 19 20  1  0
 20 21  2  0
 20 22  1  0
 22 23  1  0
 23 24  2  0
 24 25  1  0
 25 26  2  0
 26 27  1  0
 27 28  1  0
 28 29  2  0
 28 30  1  0
 27 31  2  0
 10 32  2  0
 32  6  1  0
 19 14  1  0
 31 23  1  0
  1 33  1  0
  1 34  1  0
  1 35  1  0
  7 36  1  0
  8 37  1  0
  9 38  1  0
 15 39  1  0
 16 40  1  0
 17 41  1  0
 18 42  1  0
 22 43  1  0
 24 44  1  0
 25 45  1  0
 26 46  1  0
 31 47  1  0
 32 48  1  0
M  CHG  3   5  -1  13  -1  30  -1
M  END
>  <UniqueID>  (67) 
63

>  <SMILES>  (67) 
CS(=O)(=O)[N-]c1cccc(C(=O)[N-]c2ccccc2C(=O)Nc2cccc(C(=O)[O-])c2)c1

>  <Energy>  (67) 
65.83988003267925

>  <Genealogy>  (67) 
CS(=O)(=O)[N-]c1cccc(C(=O)[N-]c2ccccc2C(=O)Nc2cccc(C(=O)[O-])c2)c1 (protonated)
CS(=O)(=O)[N-]c1cccc(C(=O)[N-]c2ccccc2C(=O)Nc2cccc(C(=O)[O-])c2)c1 (3D coordinates assigned)
CS(=O)(=O)[N-]c1cccc(C(=O)[N-]c2ccccc2C(=O)Nc2cccc(C(=O)[O-])c2)c1 (optimized conformer: 65.83988003267925 kcal/mol)

>  <smiles>  (67) 
CS(=O)(=O)Nc1cccc(C(=O)Nc2ccccc2C(=O)Nc2cccc(C(=O)O)c2)c1

>  <score_type>  (67) 
oracle

>  <origin>  (67) 
adg

>  <m_score__min__energy>  (67) 
-16.100000000000001

>  <m_primary>  (67) 
energy

$$$$
67:0
     RDKit          3D

 36 39  0  0  0  0  0  0  0  0999 V2000
   54.8130   26.7130   45.9940 O   0  0  0  0  0  0  0  0  0  0  0  0
   56.1940   26.6520   46.1410 C   0  0  0  0  0  0  0  0  0  0  0  0
   57.0600   27.7050   45.9390 C   0  0  0  0  0  0  0  0  0  0  0  0
   58.3370   27.1870   46.0320 C   0  0  0  0  0  0  0  0  0  0  0  0
   58.1970   25.8390   46.2880 C   0  0  0  0  0  0  0  0  0  0  0  0
   59.2510   24.9280   46.3250 O   0  0  0  0  0  0  0  0  0  0  0  0
   56.8840   25.5180   46.4090 N   0  0  0  0  0  0  0  0  0  0  0  0
   56.3160   24.1750   46.5500 C   0  0  0  0  0  0  0  0  0  0  0  0
   56.5470   23.3660   45.2980 C   0  0  0  0  0  0  0  0  0  0  0  0
   57.4020   22.2510   45.3230 C   0  0  0  0  0  0  0  0  0  0  0  0
   57.6090   21.4950   44.1640 C   0  0  0  0  0  0  0  0  0  0  0  0
   56.9680   21.8480   42.9740 C   0  0  0  0  0  0  0  0  0  0  0  0
   56.1220   22.9590   42.9390 C   0  0  0  0  0  0  0  0  0  0  0  0
   55.9120   23.7180   44.0940 C   0  0  0  0  0  0  0  0  0  0  0  0
   59.3870   27.9320   45.2320 C   0  0  2  0  0  0  0  0  0  0  0  0
   59.2480   29.3970   45.6530 C   0  0  0  0  0  0  0  0  0  0  0  0
   57.9920   29.9060   45.5600 C   0  0  0  0  0  0  0  0  0  0  0  0
   56.9320   28.9280   45.0520 C   0  0  1  0  0  0  0  0  0  0  0  0
   57.4330   28.4750   43.6430 C   0  0  0  0  0  0  0  0  0  0  0  0
   58.8940   27.8830   43.7510 C   0  0  0  0  0  0  0  0  0  0  0  0
   59.7300   24.6350   45.4850 H   0  0  0  0  0  0  0  0  0  0  0  0
   56.7940   23.6680   47.4012 H   0  0  0  0  0  0  0  0  0  0  0  0
   55.2328   24.2644   46.7193 H   0  0  0  0  0  0  0  0  0  0  0  0
   57.9105   21.9715   46.2575 H   0  0  0  0  0  0  0  0  0  0  0  0
   58.2773   20.6216   44.1899 H   0  0  0  0  0  0  0  0  0  0  0  0
   57.1295   21.2509   42.0644 H   0  0  0  0  0  0  0  0  0  0  0  0
   55.6200   23.2372   42.0006 H   0  0  0  0  0  0  0  0  0  0  0  0
   55.2474   24.5939   44.0607 H   0  0  0  0  0  0  0  0  0  0  0  0
   60.4024   27.5309   45.3664 H   0  0  0  0  0  0  0  0  0  0  0  0
   60.1024   29.9938   46.0050 H   0  0  0  0  0  0  0  0  0  0  0  0
   57.7548   30.9456   45.8303 H   0  0  0  0  0  0  0  0  0  0  0  0
   55.9165   29.3505   45.0377 H   0  0  0  0  0  0  0  0  0  0  0  0
   56.7562   27.7036   43.2468 H   0  0  0  0  0  0  0  0  0  0  0  0
   57.4455   29.3440   42.9687 H   0  0  0  0  0  0  0  0  0  0  0  0
   58.8898   26.8393   43.4037 H   0  0  0  0  0  0  0  0  0  0  0  0
   59.5719   28.4836   43.1267 H   0  0  0  0  0  0  0  0  0  0  0  0
  1  2  1  0
  2  3  2  0
  3  4  1  0
  4  5  2  0
  5  6  1  0
  5  7  1  0
  7  8  1  0
  8  9  1  0
  9 10  2  0
 10 11  1  0
 11 12  2  0
 12 13  1  0
 13 14  2  0
  4 15  1  0
 15 16  1  0
 16 17  2  0
 17 18  1  0
 18 19  1  0
 19 20  1  0
  7  2  1  0
 14  9  1  0
 20 15  1  0
 18  3  1  0
  6 21  1  0
  8 22  1  0
  8 23  1  0
 10 24  1  0
 11 25  1  0
 12 26  1  0
 13 27  1  0
 14 28  1  0
 15 29  1  6
 16 30  1  0
 17 31  1  0
 18 32  1  6
 19 33  1  0
 19 34  1  0
 20 35  1  0
 20 36  1  0
M  CHG  1   1  -1
M  END
>  <UniqueID>  (68) 
64

>  <SMILES>  (68) 
[O-]c1c2c(c(O)n1Cc1ccccc1)[C@@H]1C=C[C@H]2CC1

>  <Energy>  (68) 
105.04302179294571

>  <Genealogy>  (68) 
[O-]c1c2c(c(O)n1Cc1ccccc1)C1C=CC2CC1 (protonated)
[O-]c1c2c(c(O)n1Cc1ccccc1)[C@@H]1C=C[C@H]2CC1 (chirality)
[O-]c1c2c(c(O)n1Cc1ccccc1)[C@@H]1C=C[C@H]2CC1 (3D coordinates assigned)
[O-]c1c2c(c(O)n1Cc1ccccc1)[C@@H]1C=C[C@H]2CC1 (nonaromatic ring conformer: 105.04302179294571 kcal/mol)

>  <smiles>  (68) 
Oc1c2c(c(O)n1Cc1ccccc1)C1C=CC2CC1

>  <score_type>  (68) 
oracle

>  <origin>  (68) 
adg

>  <m_score__min__energy>  (68) 
-10.529999999999999

>  <m_primary>  (68) 
energy

$$$$
68:0
     RDKit          3D

 43 45  0  0  0  0  0  0  0  0999 V2000
   55.1420   26.7080   45.9870 O   0  0  0  0  0  0  0  0  0  0  0  0
   56.1890   26.1330   46.3830 C   0  0  0  0  0  0  0  0  0  0  0  0
   56.0920   24.9740   47.1410 O   0  0  0  0  0  0  0  0  0  0  0  0
   57.5330   26.7220   46.0810 C   0  0  0  0  0  0  0  0  0  0  0  0
   57.6450   27.1550   44.6130 C   0  0  0  0  0  0  0  0  0  0  0  0
   57.6210   28.6570   44.4650 C   0  0  0  0  0  0  0  0  0  0  0  0
   56.4060   29.3210   44.2330 C   0  0  0  0  0  0  0  0  0  0  0  0
   56.3700   30.7150   44.1410 C   0  0  0  0  0  0  0  0  0  0  0  0
   57.5380   31.4690   44.2940 C   0  0  0  0  0  0  0  0  0  0  0  0
   57.4390   32.8690   44.2290 O   0  0  0  0  0  0  0  0  0  0  0  0
   57.1600   33.7250   45.3400 C   0  0  0  0  0  0  0  0  0  0  0  0
   58.2160   33.5970   46.4000 C   0  0  0  0  0  0  0  0  0  0  0  0
   58.9070   34.7250   46.8570 C   0  0  0  0  0  0  0  0  0  0  0  0
   59.8950   34.5730   47.8310 C   0  0  0  0  0  0  0  0  0  0  0  0
   60.1780   33.3070   48.3470 C   0  0  0  0  0  0  0  0  0  0  0  0
   59.4520   32.1920   47.8890 C   0  0  0  0  0  0  0  0  0  0  0  0
   59.7200   30.8170   48.3840 C   0  0  0  0  0  0  0  0  0  0  0  0
   59.0200   29.7000   47.8820 C   0  0  0  0  0  0  0  0  0  0  0  0
   59.2940   28.4170   48.3620 C   0  0  0  0  0  0  0  0  0  0  0  0
   60.2740   28.2270   49.3410 C   0  0  0  0  0  0  0  0  0  0  0  0
   60.5340   26.9790   49.8050 F   0  0  0  0  0  0  0  0  0  0  0  0
   60.9830   29.3220   49.8410 C   0  0  0  0  0  0  0  0  0  0  0  0
   61.9300   29.1410   50.7930 F   0  0  0  0  0  0  0  0  0  0  0  0
   60.7110   30.6090   49.3650 C   0  0  0  0  0  0  0  0  0  0  0  0
   58.4970   32.3770   46.9350 N   0  0  0  0  0  0  0  0  0  0  0  0
   58.7580   30.8050   44.5200 C   0  0  0  0  0  0  0  0  0  0  0  0
   58.7980   29.4110   44.6090 C   0  0  0  0  0  0  0  0  0  0  0  0
   59.9860   28.7960   44.8430 F   0  0  0  0  0  0  0  0  0  0  0  0
   57.6905   27.5999   46.7248 H   0  0  0  0  0  0  0  0  0  0  0  0
   58.2957   25.9524   46.2711 H   0  0  0  0  0  0  0  0  0  0  0  0
   58.5902   26.7722   44.2006 H   0  0  0  0  0  0  0  0  0  0  0  0
   56.7804   26.7454   44.0702 H   0  0  0  0  0  0  0  0  0  0  0  0
   55.4777   28.7411   44.1231 H   0  0  0  0  0  0  0  0  0  0  0  0
   55.4144   31.2239   43.9465 H   0  0  0  0  0  0  0  0  0  0  0  0
   57.1262   34.7675   44.9906 H   0  0  0  0  0  0  0  0  0  0  0  0
   56.1927   33.4308   45.7733 H   0  0  0  0  0  0  0  0  0  0  0  0
   58.6738   35.7211   46.4527 H   0  0  0  0  0  0  0  0  0  0  0  0
   60.4508   35.4509   48.1922 H   0  0  0  0  0  0  0  0  0  0  0  0
   60.9635   33.1819   49.1068 H   0  0  0  0  0  0  0  0  0  0  0  0
   58.2525   29.8403   47.1066 H   0  0  0  0  0  0  0  0  0  0  0  0
   58.7372   27.5538   47.9686 H   0  0  0  0  0  0  0  0  0  0  0  0
   61.2755   31.4666   49.7597 H   0  0  0  0  0  0  0  0  0  0  0  0
   59.6855   31.3866   44.6272 H   0  0  0  0  0  0  0  0  0  0  0  0
  1  2  2  0
  2  3  1  0
  2  4  1  0
  4  5  1  0
  5  6  1  0
  6  7  2  0
  7  8  1  0
  8  9  2  0
  9 10  1  0
 10 11  1  0
 11 12  1  0
 12 13  2  0
 13 14  1  0
 14 15  2  0
 15 16  1  0
 16 17  1  0
 17 18  2  0
 18 19  1  0
 19 20  2  0
 20 21  1  0
 20 22  1  0
 22 23  1  0
 22 24  2  0
 16 25  2  0
  9 26  1  0
 26 27  2  0
 27 28  1  0
 27  6  1  0
 25 12  1  0
 24 17  1  0
  4 29  1  0
  4 30  1  0
  5 31  1  0
  5 32  1  0
  7 33  1  0
  8 34  1  0
 11 35  1  0
 11 36  1  0
 13 37  1  0
 14 38  1  0
 15 39  1  0
 18 40  1  0
 19 41  1  0
 24 42  1  0
 26 43  1  0
M  CHG  1   3  -1
M  END
>  <UniqueID>  (69) 
65

>  <SMILES>  (69) 
O=C([O-])CCc1ccc(OCc2cccc(-c3ccc(F)c(F)c3)n2)cc1F

>  <Energy>  (69) 
45.41872624403793

>  <Genealogy>  (69) 
O=C([O-])CCc1ccc(OCc2cccc(-c3ccc(F)c(F)c3)n2)cc1F (protonated)
O=C([O-])CCc1ccc(OCc2cccc(-c3ccc(F)c(F)c3)n2)cc1F (3D coordinates assigned)
O=C([O-])CCc1ccc(OCc2cccc(-c3ccc(F)c(F)c3)n2)cc1F (optimized conformer: 45.41872624403793 kcal/mol)

>  <smiles>  (69) 
O=C(O)CCc1ccc(OCc2cccc(-c3ccc(F)c(F)c3)n2)cc1F

>  <score_type>  (69) 
oracle

>  <origin>  (69) 
adg

>  <m_score__min__energy>  (69) 
-11.17

>  <m_primary>  (69) 
energy

$$$$
69:0
     RDKit          3D

 76 79  0  0  1  0  0  0  0  0999 V2000
   54.6610   30.7770   51.9780 C   0  0  0  0  0  0  0  0  0  0  0  0
   55.9230   30.7260   52.4120 C   0  0  0  0  0  0  0  0  0  0  0  0
   57.0770   31.1920   51.6000 C   0  0  0  0  0  0  0  0  0  0  0  0
   62.1210   30.6100   51.2200 N   0  0  0  0  0  0  0  0  0  0  0  0
   61.1070   30.2400   50.5250 C   0  0  0  0  0  0  0  0  0  0  0  0
   58.9420   29.5120   49.1250 N   0  0  0  0  0  0  0  0  0  0  0  0
   60.1550   29.3980   48.5550 C   0  0  0  0  0  0  0  0  0  0  0  0
   60.1680   28.9180   47.2050 N   0  0  0  0  0  0  0  0  0  0  0  0
   60.4170   29.6740   45.9840 C   0  0  0  0  0  0  0  0  0  0  0  0
   60.6380   28.6160   44.9270 C   0  0  0  0  0  0  0  0  0  0  0  0
   60.8510   27.3280   45.7000 C   0  0  0  0  0  0  0  0  0  0  0  0
   59.9300   27.5230   46.9070 C   0  0  2  0  0  0  0  0  0  0  0  0
   58.5230   27.1590   46.5740 C   0  0  0  0  0  0  0  0  0  0  0  0
   57.5410   28.1750   46.7740 N   0  0  0  0  0  0  0  0  0  0  0  0
   57.0920   28.9300   45.2600 S   0  0  0  0  0  0  0  0  0  0  0  0
   55.5960   28.8340   45.0820 O   0  0  0  0  0  0  0  0  0  0  0  0
   57.7890   28.2480   44.1210 O   0  0  0  0  0  0  0  0  0  0  0  0
   57.5300   30.6150   45.2610 C   0  0  0  0  0  0  0  0  0  0  0  0
   57.8270   31.3530   46.3670 C   0  0  0  0  0  0  0  0  0  0  0  0
   58.1610   32.7000   46.2710 C   0  0  0  0  0  0  0  0  0  0  0  0
   58.2030   33.3280   45.0430 C   0  0  0  0  0  0  0  0  0  0  0  0
   58.5660   34.7550   44.8630 C   0  0  0  0  0  0  0  0  0  0  0  0
   59.7600   35.1210   45.7220 C   0  0  0  0  0  0  0  0  0  0  0  0
   59.2630   35.3520   47.1450 C   0  0  0  0  0  0  0  0  0  0  0  0
   57.9060   32.6010   43.9130 C   0  0  0  0  0  0  0  0  0  0  0  0
   57.5780   31.2700   44.0290 C   0  0  0  0  0  0  0  0  0  0  0  0
   61.2370   29.7570   49.2450 N   0  0  0  0  0  0  0  0  0  0  0  0
   58.8010   29.9870   50.3880 C   0  0  0  0  0  0  0  0  0  0  0  0
   57.6020   30.0570   50.8670 N   0  0  0  0  0  0  0  0  0  0  0  0
   63.1510   31.5140   50.8350 C   0  0  0  0  0  0  0  0  0  0  0  0
   62.9090   32.1830   49.5210 C   0  0  0  0  0  0  0  0  0  0  0  0
   63.6840   31.9340   48.3990 C   0  0  0  0  0  0  0  0  0  0  0  0
   63.4790   32.5300   47.1820 C   0  0  0  0  0  0  0  0  0  0  0  0
   62.4430   33.4320   47.0520 C   0  0  0  0  0  0  0  0  0  0  0  0
   61.6340   33.7220   48.1350 C   0  0  0  0  0  0  0  0  0  0  0  0
   61.8790   33.0960   49.3440 C   0  0  0  0  0  0  0  0  0  0  0  0
   61.0260   33.4330   50.3940 O   0  0  0  0  0  0  0  0  0  0  0  0
   59.6360   33.5470   50.2970 C   0  0  0  0  0  0  0  0  0  0  0  0
   59.8960   30.3550   51.0980 N   0  0  0  0  0  0  0  0  0  0  0  0
   53.8435   30.4183   52.6206 H   0  0  0  0  0  0  0  0  0  0  0  0
   54.4391   31.1777   50.9779 H   0  0  0  0  0  0  0  0  0  0  0  0
   56.1170   30.3207   53.4160 H   0  0  0  0  0  0  0  0  0  0  0  0
   56.7470   31.9699   50.8957 H   0  0  0  0  0  0  0  0  0  0  0  0
   57.8546   31.6159   52.2525 H   0  0  0  0  0  0  0  0  0  0  0  0
   58.0730   29.2290   48.5900 H   0  0  0  0  0  0  0  0  0  0  0  0
   59.5501   30.3021   45.7311 H   0  0  0  0  0  0  0  0  0  0  0  0
   61.2740   30.3568   46.0803 H   0  0  0  0  0  0  0  0  0  0  0  0
   59.7577   28.5332   44.2727 H   0  0  0  0  0  0  0  0  0  0  0  0
   61.4925   28.8538   44.2763 H   0  0  0  0  0  0  0  0  0  0  0  0
   60.5513   26.4518   45.1064 H   0  0  0  0  0  0  0  0  0  0  0  0
   61.9011   27.1420   45.9698 H   0  0  0  0  0  0  0  0  0  0  0  0
   60.1221   26.8810   47.7793 H   0  0  0  0  0  0  0  0  0  0  0  0
   58.4942   26.8697   45.5131 H   0  0  0  0  0  0  0  0  0  0  0  0
   58.2562   26.3527   47.2731 H   0  0  0  0  0  0  0  0  0  0  0  0
   56.6470   27.6690   47.0580 H   0  0  0  0  0  0  0  0  0  0  0  0
   57.8022   30.8737   47.3568 H   0  0  0  0  0  0  0  0  0  0  0  0
   58.3938   33.2699   47.1826 H   0  0  0  0  0  0  0  0  0  0  0  0
   58.8143   34.9331   43.8063 H   0  0  0  0  0  0  0  0  0  0  0  0
   57.7106   35.3766   45.1663 H   0  0  0  0  0  0  0  0  0  0  0  0
   60.4932   34.3011   45.7111 H   0  0  0  0  0  0  0  0  0  0  0  0
   60.2458   36.0287   45.3346 H   0  0  0  0  0  0  0  0  0  0  0  0
   60.0211   34.9996   47.8599 H   0  0  0  0  0  0  0  0  0  0  0  0
   59.0832   36.4260   47.3008 H   0  0  0  0  0  0  0  0  0  0  0  0
   58.3261   34.7970   47.3008 H   0  0  0  0  0  0  0  0  0  0  0  0
   57.9307   33.0809   42.9235 H   0  0  0  0  0  0  0  0  0  0  0  0
   57.3449   30.7006   43.1171 H   0  0  0  0  0  0  0  0  0  0  0  0
   63.2369   32.2911   51.6088 H   0  0  0  0  0  0  0  0  0  0  0  0
   64.0718   30.9220   50.7272 H   0  0  0  0  0  0  0  0  0  0  0  0
   64.5122   31.2159   48.4908 H   0  0  0  0  0  0  0  0  0  0  0  0
   64.1277   32.2939   46.3256 H   0  0  0  0  0  0  0  0  0  0  0  0
   62.2602   33.9217   46.0841 H   0  0  0  0  0  0  0  0  0  0  0  0
   60.8070   34.4406   48.0366 H   0  0  0  0  0  0  0  0  0  0  0  0
   59.1997   33.5828   51.3062 H   0  0  0  0  0  0  0  0  0  0  0  0
   59.3807   34.4691   49.7543 H   0  0  0  0  0  0  0  0  0  0  0  0
   59.2339   32.6788   49.7543 H   0  0  0  0  0  0  0  0  0  0  0  0
   59.7310   30.7020   52.0460 H   0  0  0  0  0  0  0  0  0  0  0  0
  1  2  2  0
  2  3  1  0
  3  4  1  0
  4  5  2  0
  5  6  1  0
  6  7  1  0
  7  8  1  0
  8  9  1  0
  9 10  1  0
 10 11  1  0
 11 12  1  0
 12 13  1  0
 13 14  1  0
 14 15  1  0
 15 16  2  0
 15 17  2  0
 15 18  1  0
 18 19  2  0
 19 20  1  0
 20 21  2  0
 21 22  1  0
 22 23  1  0
 23 24  1  0
 21 25  1  0
 25 26  2  0
  7 27  2  0
 27 28  1  0
 28 29  2  0
 29 30  1  0
 30 31  1  0
 31 32  2  0
 32 33  1  0
 33 34  2  0
 34 35  1  0
 35 36  2  0
 36 37  1  0
 37 38  1  0
 28 39  1  0
 39  5  1  0
 12  8  1  0
 26 18  1  0
 36 31  1  0
  1 40  1  0
  1 41  1  0
  2 42  1  0
  3 43  1  0
  3 44  1  0
  6 45  1  0
  9 46  1  0
  9 47  1  0
 10 48  1  0
 10 49  1  0
 11 50  1  0
 11 51  1  0
 12 52  1  1
 13 53  1  0
 13 54  1  0
 14 55  1  0
 19 56  1  0
 20 57  1  0
 22 58  1  0
 22 59  1  0
 23 60  1  0
 23 61  1  0
 24 62  1  0
 24 63  1  0
 24 64  1  0
 25 65  1  0
 26 66  1  0
 30 67  1  0
 30 68  1  0
 32 69  1  0
 33 70  1  0
 34 71  1  0
 35 72  1  0
 38 73  1  0
 38 74  1  0
 38 75  1  0
 39 76  1  0
M  END
>  <smiles>  (70) 
C=CCN=c1[nH]c(N2CCCC2CNS(=O)(=O)c2ccc(CCC)cc2)nc(=NCc2ccccc2OC)[nH]1

>  <score_type>  (70) 
oracle

>  <origin>  (70) 
adg

>  <m_score__min__energy>  (70) 
-10.380000000000001

>  <m_primary>  (70) 
energy

$$$$
70:0
     RDKit          3D

 58 62  0  0  0  0  0  0  0  0999 V2000
   56.9950   20.7250   43.4360 C   0  0  0  0  0  0  0  0  0  0  0  0
   56.9920   22.1280   43.9750 C   0  0  0  0  0  0  0  0  0  0  0  0
   55.9090   22.9750   43.6850 C   0  0  0  0  0  0  0  0  0  0  0  0
   55.8660   24.2760   44.1940 C   0  0  0  0  0  0  0  0  0  0  0  0
   56.9210   24.7650   44.9820 C   0  0  0  0  0  0  0  0  0  0  0  0
   56.9090   26.1360   45.5470 C   0  0  0  0  0  0  0  0  0  0  0  0
   55.9860   26.4360   46.3520 O   0  0  0  0  0  0  0  0  0  0  0  0
   57.9710   27.0890   45.3180 N   0  0  0  0  0  0  0  0  0  0  0  0
   59.1450   27.1450   46.1790 C   0  0  0  0  0  0  0  0  0  0  0  0
   60.0200   28.2620   45.6210 C   0  0  0  0  0  0  0  0  0  0  0  0
   59.4940   28.5240   44.2140 C   0  0  0  0  0  0  0  0  0  0  0  0
   58.0330   28.0710   44.2420 C   0  0  2  0  0  0  0  0  0  0  0  0
   57.1260   29.2360   44.5520 C   0  0  0  0  0  0  0  0  0  0  0  0
   56.4690   29.7800   43.6250 O   0  0  0  0  0  0  0  0  0  0  0  0
   57.0810   29.7640   45.8840 N   0  0  0  0  0  0  0  0  0  0  0  0
   58.1520   30.4060   46.5920 C   0  0  0  0  0  0  0  0  0  0  0  0
   58.7550   31.5870   46.1230 C   0  0  0  0  0  0  0  0  0  0  0  0
   59.7570   32.2140   46.8750 C   0  0  0  0  0  0  0  0  0  0  0  0
   60.1660   31.6740   48.1060 C   0  0  0  0  0  0  0  0  0  0  0  0
   61.2140   32.3530   48.9110 C   0  0  0  0  0  0  0  0  0  0  0  0
   62.5120   31.8270   48.9560 C   0  0  0  0  0  0  0  0  0  0  0  0
   63.5000   32.4800   49.6970 C   0  0  0  0  0  0  0  0  0  0  0  0
   64.8150   31.9950   49.7530 C   0  0  0  0  0  0  0  0  0  0  0  0
   65.7800   32.6790   50.4970 C   0  0  0  0  0  0  0  0  0  0  0  0
   65.4370   33.8470   51.1900 C   0  0  0  0  0  0  0  0  0  0  0  0
   66.4010   34.5230   51.9250 O   0  0  0  0  0  0  0  0  0  0  0  0
   64.1260   34.3340   51.1370 C   0  0  0  0  0  0  0  0  0  0  0  0
   63.1550   33.6570   50.3910 C   0  0  0  0  0  0  0  0  0  0  0  0
   61.9120   34.1260   50.3370 O   0  0  0  0  0  0  0  0  0  0  0  0
   60.9470   33.5320   49.6380 C   0  0  0  0  0  0  0  0  0  0  0  0
   59.7900   34.0330   49.6500 O   0  0  0  0  0  0  0  0  0  0  0  0
   59.5530   30.5020   48.5770 C   0  0  0  0  0  0  0  0  0  0  0  0
   58.5490   29.8800   47.8270 C   0  0  0  0  0  0  0  0  0  0  0  0
   57.9830   23.9020   45.3130 C   0  0  0  0  0  0  0  0  0  0  0  0
   58.0180   22.5870   44.8240 C   0  0  0  0  0  0  0  0  0  0  0  0
   59.0650   21.7390   45.1880 O   0  0  0  0  0  0  0  0  0  0  0  0
   56.9965   20.0108   44.2726 H   0  0  0  0  0  0  0  0  0  0  0  0
   56.0972   20.5668   42.8205 H   0  0  0  0  0  0  0  0  0  0  0  0
   57.8935   20.5706   42.8205 H   0  0  0  0  0  0  0  0  0  0  0  0
   55.0871   22.6106   43.0512 H   0  0  0  0  0  0  0  0  0  0  0  0
   55.0014   24.9203   43.9764 H   0  0  0  0  0  0  0  0  0  0  0  0
   58.8498   27.3712   47.2142 H   0  0  0  0  0  0  0  0  0  0  0  0
   59.6795   26.1837   46.1959 H   0  0  0  0  0  0  0  0  0  0  0  0
   59.9303   29.1668   46.2401 H   0  0  0  0  0  0  0  0  0  0  0  0
   61.0841   27.9835   45.6146 H   0  0  0  0  0  0  0  0  0  0  0  0
   59.5615   29.5945   43.9699 H   0  0  0  0  0  0  0  0  0  0  0  0
   60.0765   27.9876   43.4505 H   0  0  0  0  0  0  0  0  0  0  0  0
   57.7078   27.6585   43.2755 H   0  0  0  0  0  0  0  0  0  0  0  0
   58.4387   32.0198   45.1624 H   0  0  0  0  0  0  0  0  0  0  0  0
   60.2266   33.1350   46.4993 H   0  0  0  0  0  0  0  0  0  0  0  0
   62.7522   30.9030   48.4097 H   0  0  0  0  0  0  0  0  0  0  0  0
   65.0864   31.0768   49.2116 H   0  0  0  0  0  0  0  0  0  0  0  0
   66.8115   32.2993   50.5386 H   0  0  0  0  0  0  0  0  0  0  0  0
   63.8585   35.2508   51.6829 H   0  0  0  0  0  0  0  0  0  0  0  0
   59.8635   30.0708   49.5401 H   0  0  0  0  0  0  0  0  0  0  0  0
   58.0670   28.9690   48.2114 H   0  0  0  0  0  0  0  0  0  0  0  0
   58.7945   24.2625   45.9622 H   0  0  0  0  0  0  0  0  0  0  0  0
   59.0790   20.7640   44.9170 H   0  0  0  0  0  0  0  0  0  0  0  0
  1  2  1  0
  2  3  2  0
  3  4  1  0
  4  5  2  0
  5  6  1  0
  6  7  2  0
  6  8  1  0
  8  9  1  0
  9 10  1  0
 10 11  1  0
 11 12  1  0
 12 13  1  0
 13 14  2  0
 13 15  1  0
 15 16  1  0
 16 17  2  0
 17 18  1  0
 18 19  2  0
 19 20  1  0
 20 21  2  0
 21 22  1  0
 22 23  2  0
 23 24  1  0
 24 25  2  0
 25 26  1  0
 25 27  1  0
 27 28  2  0
 28 29  1  0
 29 30  1  0
 30 31  2  0
 19 32  1  0
 32 33  2  0
  5 34  1  0
 34 35  2  0
 35 36  1  0
 35  2  1  0
 12  8  1  0
 33 16  1  0
 30 20  1  0
 28 22  1  0
  1 37  1  0
  1 38  1  0
  1 39  1  0
  3 40  1  0
  4 41  1  0
  9 42  1  0
  9 43  1  0
 10 44  1  0
 10 45  1  0
 11 46  1  0
 11 47  1  0
 12 48  1  6
 17 49  1  0
 18 50  1  0
 21 51  1  0
 23 52  1  0
 24 53  1  0
 27 54  1  0
 32 55  1  0
 33 56  1  0
 34 57  1  0
 36 58  1  0
M  CHG  2  15  -1  26  -1
M  END
>  <UniqueID>  (71) 
66

>  <SMILES>  (71) 
Cc1ccc(C(=O)N2CCC[C@@H]2C(=O)[N-]c2ccc(-c3cc4ccc([O-])cc4oc3=O)cc2)cc1O

>  <Energy>  (71) 
85.53974177654206

>  <Genealogy>  (71) 
Cc1ccc(C(=O)N2CCCC2C(=O)[N-]c2ccc(-c3cc4ccc([O-])cc4oc3=O)cc2)cc1O (protonated)
Cc1ccc(C(=O)N2CCC[C@@H]2C(=O)[N-]c2ccc(-c3cc4ccc([O-])cc4oc3=O)cc2)cc1O (chirality)
Cc1ccc(C(=O)N2CCC[C@@H]2C(=O)[N-]c2ccc(-c3cc4ccc([O-])cc4oc3=O)cc2)cc1O (3D coordinates assigned)
Cc1ccc(C(=O)N2CCC[C@@H]2C(=O)[N-]c2ccc(-c3cc4ccc([O-])cc4oc3=O)cc2)cc1O (nonaromatic ring conformer: 85.53974177654206 kcal/mol)

>  <smiles>  (71) 
Cc1ccc(C(=O)N2CCCC2C(=O)Nc2ccc(-c3cc4ccc(O)cc4oc3=O)cc2)cc1O

>  <score_type>  (71) 
oracle

>  <origin>  (71) 
adg

>  <m_score__min__energy>  (71) 
-13.01

>  <m_primary>  (71) 
energy

$$$$
71:0
     RDKit          3D

 44 46  0  0  0  0  0  0  0  0999 V2000
   61.4850   34.1320   48.1540 O   0  0  0  0  0  0  0  0  0  0  0  0
   60.2280   34.1250   48.2700 C   0  0  0  0  0  0  0  0  0  0  0  0
   59.6300   34.3610   49.5500 N   0  0  0  0  0  0  0  0  0  0  0  0
   59.8250   33.4870   50.7020 C   0  0  0  0  0  0  0  0  0  0  0  0
   59.9060   32.0550   50.2530 C   0  0  0  0  0  0  0  0  0  0  0  0
   61.1490   31.4950   49.9210 C   0  0  0  0  0  0  0  0  0  0  0  0
   61.2390   30.1550   49.5330 C   0  0  0  0  0  0  0  0  0  0  0  0
   60.0880   29.3490   49.4720 C   0  0  0  0  0  0  0  0  0  0  0  0
   60.1860   27.9270   49.0670 C   0  0  0  0  0  0  0  0  0  0  0  0
   61.0630   27.1820   49.5840 O   0  0  0  0  0  0  0  0  0  0  0  0
   59.2870   27.3910   48.0920 N   0  0  0  0  0  0  0  0  0  0  0  0
   58.9880   28.1670   46.5740 S   0  0  0  0  0  0  0  0  0  0  0  0
   60.1170   27.8720   45.6270 O   0  0  0  0  0  0  0  0  0  0  0  0
   58.8720   29.6530   46.7800 O   0  0  0  0  0  0  0  0  0  0  0  0
   57.4600   27.5520   45.8940 C   0  0  0  0  0  0  0  0  0  0  0  0
   56.8160   28.6000   45.0450 C   0  0  0  0  0  0  0  0  0  0  0  0
   57.4190   29.2770   43.9990 C   0  0  0  0  0  0  0  0  0  0  0  0
   56.4060   30.0680   43.5140 C   0  0  0  0  0  0  0  0  0  0  0  0
   56.5010   30.8720   42.5510 O   0  0  0  0  0  0  0  0  0  0  0  0
   55.2800   29.8660   44.2170 N   0  0  0  0  0  0  0  0  0  0  0  0
   55.5210   28.9660   45.1560 N   0  0  0  0  0  0  0  0  0  0  0  0
   58.8440   29.9150   49.8090 C   0  0  0  0  0  0  0  0  0  0  0  0
   58.7560   31.2560   50.2000 C   0  0  0  0  0  0  0  0  0  0  0  0
   59.3750   33.8790   47.0830 C   0  0  0  0  0  0  0  0  0  0  0  0
   59.4070   34.7570   45.9830 C   0  0  0  0  0  0  0  0  0  0  0  0
   58.5890   34.5300   44.8700 C   0  0  0  0  0  0  0  0  0  0  0  0
   57.7410   33.4200   44.8410 C   0  0  0  0  0  0  0  0  0  0  0  0
   57.7000   32.5410   45.9250 C   0  0  0  0  0  0  0  0  0  0  0  0
   58.5100   32.7680   47.0430 C   0  0  0  0  0  0  0  0  0  0  0  0
   60.7592   33.7617   51.2137 H   0  0  0  0  0  0  0  0  0  0  0  0
   58.9748   33.6020   51.3904 H   0  0  0  0  0  0  0  0  0  0  0  0
   62.0574   32.1137   49.9663 H   0  0  0  0  0  0  0  0  0  0  0  0
   62.2185   29.7272   49.2731 H   0  0  0  0  0  0  0  0  0  0  0  0
   57.6669   26.6631   45.2800 H   0  0  0  0  0  0  0  0  0  0  0  0
   56.7801   27.2885   46.7176 H   0  0  0  0  0  0  0  0  0  0  0  0
   58.4569   29.2003   43.6428 H   0  0  0  0  0  0  0  0  0  0  0  0
   54.3600   30.3350   44.0700 H   0  0  0  0  0  0  0  0  0  0  0  0
   57.9340   29.2986   49.7647 H   0  0  0  0  0  0  0  0  0  0  0  0
   57.7790   31.6850   50.4671 H   0  0  0  0  0  0  0  0  0  0  0  0
   60.0794   35.6274   45.9982 H   0  0  0  0  0  0  0  0  0  0  0  0
   58.6138   35.2255   44.0182 H   0  0  0  0  0  0  0  0  0  0  0  0
   57.1045   33.2383   43.9625 H   0  0  0  0  0  0  0  0  0  0  0  0
   57.0300   31.6689   45.9000 H   0  0  0  0  0  0  0  0  0  0  0  0
   58.4711   32.0746   47.8960 H   0  0  0  0  0  0  0  0  0  0  0  0
  1  2  2  0
  2  3  1  0
  3  4  1  0
  4  5  1  0
  5  6  2  0
  6  7  1  0
  7  8  2  0
  8  9  1  0
  9 10  2  0
  9 11  1  0
 11 12  1  0
 12 13  2  0
 12 14  2  0
 12 15  1  0
 15 16  1  0
 16 17  2  0
 17 18  1  0
 18 19  2  0
 18 20  1  0
 20 21  1  0
  8 22  1  0
 22 23  2  0
  2 24  1  0
 24 25  2  0
 25 26  1  0
 26 27  2  0
 27 28  1  0
 28 29  2  0
 23  5  1  0
 29 24  1  0
 21 16  1  0
  4 30  1  0
  4 31  1  0
  6 32  1  0
  7 33  1  0
 15 34  1  0
 15 35  1  0
 17 36  1  0
 20 37  1  0
 22 38  1  0
 23 39  1  0
 25 40  1  0
 26 41  1  0
 27 42  1  0
 28 43  1  0
 29 44  1  0
M  CHG  3   3  -1  11  -1  21  -1
M  END
>  <UniqueID>  (72) 
67

>  <SMILES>  (72) 
O=C([N-]Cc1ccc(C(=O)[N-]S(=O)(=O)Cc2cc(=O)[nH][n-]2)cc1)c1ccccc1

>  <Energy>  (72) 
73.06482251542536

>  <Genealogy>  (72) 
O=C([N-]Cc1ccc(C(=O)[N-]S(=O)(=O)Cc2cc(=O)[nH][n-]2)cc1)c1ccccc1 (protonated)
O=C([N-]Cc1ccc(C(=O)[N-]S(=O)(=O)Cc2cc(=O)[nH][n-]2)cc1)c1ccccc1 (3D coordinates assigned)
O=C([N-]Cc1ccc(C(=O)[N-]S(=O)(=O)Cc2cc(=O)[nH][n-]2)cc1)c1ccccc1 (optimized conformer: 73.06482251542536 kcal/mol)

>  <smiles>  (72) 
O=C(NCc1ccc(C(=O)NS(=O)(=O)Cc2cc(=O)[nH][nH]2)cc1)c1ccccc1

>  <score_type>  (72) 
oracle

>  <origin>  (72) 
adg

>  <m_score__min__energy>  (72) 
-13.949999999999999

>  <m_primary>  (72) 
energy

$$$$
72:0
     RDKit          3D

 44 47  0  0  0  0  0  0  0  0999 V2000
   65.5210   32.8160   50.1040 C   0  0  0  0  0  0  0  0  0  0  0  0
   64.3920   33.6640   49.9180 O   0  0  0  0  0  0  0  0  0  0  0  0
   63.2780   33.3360   49.1320 C   0  0  0  0  0  0  0  0  0  0  0  0
   62.0270   33.9660   49.2920 C   0  0  0  0  0  0  0  0  0  0  0  0
   60.9490   33.6090   48.4790 C   0  0  0  0  0  0  0  0  0  0  0  0
   61.1050   32.6280   47.4910 C   0  0  0  0  0  0  0  0  0  0  0  0
   59.9700   32.2520   46.6180 C   0  0  0  0  0  0  0  0  0  0  0  0
   59.2980   31.0100   46.7570 C   0  0  0  0  0  0  0  0  0  0  0  0
   59.7810   30.0110   47.8040 C   0  0  0  0  0  0  0  0  0  0  0  0
   59.2730   30.3600   49.1800 C   0  0  0  0  0  0  0  0  0  0  0  0
   58.5600   31.5550   49.3920 C   0  0  0  0  0  0  0  0  0  0  0  0
   58.0780   31.8750   50.6640 C   0  0  0  0  0  0  0  0  0  0  0  0
   58.3140   31.0140   51.7380 C   0  0  0  0  0  0  0  0  0  0  0  0
   59.0330   29.8320   51.5430 C   0  0  0  0  0  0  0  0  0  0  0  0
   59.5150   29.5070   50.2710 C   0  0  0  0  0  0  0  0  0  0  0  0
   58.1700   30.7610   45.9250 C   0  0  0  0  0  0  0  0  0  0  0  0
   57.3760   29.5910   46.0080 C   0  0  0  0  0  0  0  0  0  0  0  0
   56.2890   29.4040   45.1490 C   0  0  0  0  0  0  0  0  0  0  0  0
   55.5210   28.2490   45.2440 O   0  0  0  0  0  0  0  0  0  0  0  0
   55.9690   30.3730   44.1980 C   0  0  0  0  0  0  0  0  0  0  0  0
   56.7250   31.5400   44.1100 C   0  0  0  0  0  0  0  0  0  0  0  0
   57.8130   31.7450   44.9670 C   0  0  0  0  0  0  0  0  0  0  0  0
   58.4960   32.8760   44.8690 O   0  0  0  0  0  0  0  0  0  0  0  0
   59.5300   33.1630   45.6440 C   0  0  0  0  0  0  0  0  0  0  0  0
   60.1160   34.2690   45.4930 O   0  0  0  0  0  0  0  0  0  0  0  0
   62.3430   31.9860   47.3410 C   0  0  0  0  0  0  0  0  0  0  0  0
   63.4210   32.3440   48.1540 C   0  0  0  0  0  0  0  0  0  0  0  0
   65.7034   32.6790   51.1801 H   0  0  0  0  0  0  0  0  0  0  0  0
   65.3264   31.8389   49.6378 H   0  0  0  0  0  0  0  0  0  0  0  0
   66.4052   33.2751   49.6378 H   0  0  0  0  0  0  0  0  0  0  0  0
   61.8994   34.7424   50.0608 H   0  0  0  0  0  0  0  0  0  0  0  0
   59.9740   34.0998   48.6149 H   0  0  0  0  0  0  0  0  0  0  0  0
   59.4195   29.0079   47.5338 H   0  0  0  0  0  0  0  0  0  0  0  0
   60.8804   30.0397   47.8256 H   0  0  0  0  0  0  0  0  0  0  0  0
   58.3811   32.2412   48.5511 H   0  0  0  0  0  0  0  0  0  0  0  0
   57.5124   32.8055   50.8195 H   0  0  0  0  0  0  0  0  0  0  0  0
   57.9334   31.2667   52.7386 H   0  0  0  0  0  0  0  0  0  0  0  0
   59.2201   29.1564   52.3907 H   0  0  0  0  0  0  0  0  0  0  0  0
   60.0866   28.5788   50.1234 H   0  0  0  0  0  0  0  0  0  0  0  0
   57.6172   28.8215   46.7561 H   0  0  0  0  0  0  0  0  0  0  0  0
   55.1194   30.2157   43.5172 H   0  0  0  0  0  0  0  0  0  0  0  0
   56.4656   32.3046   43.3630 H   0  0  0  0  0  0  0  0  0  0  0  0
   62.4652   31.1993   46.5819 H   0  0  0  0  0  0  0  0  0  0  0  0
   64.3912   31.8420   48.0248 H   0  0  0  0  0  0  0  0  0  0  0  0
  1  2  1  0
  2  3  1  0
  3  4  2  0
  4  5  1  0
  5  6  2  0
  6  7  1  0
  7  8  2  0
  8  9  1  0
  9 10  1  0
 10 11  2  0
 11 12  1  0
 12 13  2  0
 13 14  1  0
 14 15  2  0
  8 16  1  0
 16 17  2  0
 17 18  1  0
 18 19  1  0
 18 20  2  0
 20 21  1  0
 21 22  2  0
 22 23  1  0
 23 24  1  0
 24 25  2  0
  6 26  1  0
 26 27  2  0
 27  3  1  0
 24  7  1  0
 15 10  1  0
 22 16  1  0
  1 28  1  0
  1 29  1  0
  1 30  1  0
  4 31  1  0
  5 32  1  0
  9 33  1  0
  9 34  1  0
 11 35  1  0
 12 36  1  0
 13 37  1  0
 14 38  1  0
 15 39  1  0
 17 40  1  0
 20 41  1  0
 21 42  1  0
 26 43  1  0
 27 44  1  0
M  CHG  1  19  -1
M  END
>  <UniqueID>  (73) 
68

>  <SMILES>  (73) 
COc1ccc(-c2c(Cc3ccccc3)c3cc([O-])ccc3oc2=O)cc1

>  <Energy>  (73) 
63.79190842169733

>  <Genealogy>  (73) 
COc1ccc(-c2c(Cc3ccccc3)c3cc([O-])ccc3oc2=O)cc1 (protonated)
COc1ccc(-c2c(Cc3ccccc3)c3cc([O-])ccc3oc2=O)cc1 (3D coordinates assigned)
COc1ccc(-c2c(Cc3ccccc3)c3cc([O-])ccc3oc2=O)cc1 (optimized conformer: 63.79190842169733 kcal/mol)

>  <smiles>  (73) 
COc1ccc(-c2c(Cc3ccccc3)c3cc(O)ccc3oc2=O)cc1

>  <score_type>  (73) 
oracle

>  <origin>  (73) 
adg

>  <m_score__min__energy>  (73) 
-10.699999999999999

>  <m_primary>  (73) 
energy

$$$$
73:0
     RDKit          3D

 44 46  0  0  0  0  0  0  0  0999 V2000
   58.9870   36.3500   47.3850 H   0  0  0  0  0  0  0  0  0  0  0  0
   59.3070   35.5470   46.8960 O   0  0  0  0  0  0  0  0  0  0  0  0
   59.2730   34.4830   47.8060 C   0  0  0  0  0  0  0  0  0  0  0  0
   58.4173   34.6120   48.4851 H   0  0  0  0  0  0  0  0  0  0  0  0
   60.2096   34.4719   48.3827 H   0  0  0  0  0  0  0  0  0  0  0  0
   59.1320   33.1790   47.0700 C   0  0  0  0  0  0  0  0  0  0  0  0
   60.1700   32.2380   47.1040 C   0  0  0  0  0  0  0  0  0  0  0  0
   61.0758   32.4433   47.6933 H   0  0  0  0  0  0  0  0  0  0  0  0
   60.0600   31.0420   46.3940 C   0  0  0  0  0  0  0  0  0  0  0  0
   60.8715   30.3010   46.4438 H   0  0  0  0  0  0  0  0  0  0  0  0
   58.9250   30.7780   45.6190 C   0  0  0  0  0  0  0  0  0  0  0  0
   58.8640   29.5650   44.9180 O   0  0  0  0  0  0  0  0  0  0  0  0
   58.3970   28.3520   45.4440 C   0  0  0  0  0  0  0  0  0  0  0  0
   59.2690   27.3850   45.9750 C   0  0  0  0  0  0  0  0  0  0  0  0
   60.3534   27.5698   45.9801 H   0  0  0  0  0  0  0  0  0  0  0  0
   58.7650   26.1910   46.4960 C   0  0  0  0  0  0  0  0  0  0  0  0
   59.4548   25.4364   46.9018 H   0  0  0  0  0  0  0  0  0  0  0  0
   57.3840   25.9500   46.5040 C   0  0  0  0  0  0  0  0  0  0  0  0
   56.7490   24.4400   47.1590 S   0  0  0  0  0  0  0  0  0  0  0  0
   55.2560   24.4200   46.9870 O   0  0  0  0  0  0  0  0  0  0  0  0
   57.0870   24.3270   48.6190 O   0  0  0  0  0  0  0  0  0  0  0  0
   57.4650   23.1110   46.3030 N   0  0  0  0  0  0  0  0  0  0  0  0
   57.1380   22.7730   45.0920 C   0  0  0  0  0  0  0  0  0  0  0  0
   56.3470   23.5800   44.3290 N   0  0  0  0  0  0  0  0  0  0  0  0
   55.9920   23.2440   43.0600 C   0  0  0  0  0  0  0  0  0  0  0  0
   55.3519   23.9182   42.4721 H   0  0  0  0  0  0  0  0  0  0  0  0
   56.4390   22.0440   42.5020 C   0  0  0  0  0  0  0  0  0  0  0  0
   56.1543   21.7665   41.4763 H   0  0  0  0  0  0  0  0  0  0  0  0
   57.2520   21.2010   43.2630 C   0  0  0  0  0  0  0  0  0  0  0  0
   57.6136   20.2531   42.8380 H   0  0  0  0  0  0  0  0  0  0  0  0
   57.6050   21.5640   44.5650 C   0  0  0  0  0  0  0  0  0  0  0  0
   58.2445   20.9050   45.1706 H   0  0  0  0  0  0  0  0  0  0  0  0
   56.5100   26.9240   45.9950 C   0  0  0  0  0  0  0  0  0  0  0  0
   55.1350   26.7160   46.0030 O   0  0  0  0  0  0  0  0  0  0  0  0
   57.0180   28.1190   45.4740 C   0  0  0  0  0  0  0  0  0  0  0  0
   56.3273   28.8816   45.0848 H   0  0  0  0  0  0  0  0  0  0  0  0
   57.8630   31.7060   45.5900 C   0  0  0  0  0  0  0  0  0  0  0  0
   56.7020   31.3890   44.8670 O   0  0  0  0  0  0  0  0  0  0  0  0
   56.6900   30.8550   43.5470 C   0  0  0  0  0  0  0  0  0  0  0  0
   56.6653   29.7564   43.5961 H   0  0  0  0  0  0  0  0  0  0  0  0
   55.7998   31.2182   43.0126 H   0  0  0  0  0  0  0  0  0  0  0  0
   57.5956   31.1779   43.0126 H   0  0  0  0  0  0  0  0  0  0  0  0
   57.9860   32.9150   46.3050 C   0  0  0  0  0  0  0  0  0  0  0  0
   57.1760   33.6580   46.2626 H   0  0  0  0  0  0  0  0  0  0  0  0
  1  2  1  0
  2  3  1  0
  3  4  1  0
  3  5  1  0
  3  6  1  0
  6  7  2  0
  7  8  1  0
  7  9  1  0
  9 10  1  0
  9 11  2  0
 11 12  1  0
 12 13  1  0
 13 14  2  0
 14 15  1  0
 14 16  1  0
 16 17  1  0
 16 18  2  0
 18 19  1  0
 19 20  2  0
 19 21  2  0
 19 22  1  0
 22 23  2  0
 23 24  1  0
 24 25  1  0
 25 26  1  0
 25 27  2  0
 27 28  1  0
 27 29  1  0
 29 30  1  0
 29 31  2  0
 31 32  1  0
 18 33  1  0
 33 34  1  0
 33 35  2  0
 35 36  1  0
 11 37  1  0
 37 38  1  0
 38 39  1  0
 39 40  1  0
 39 41  1  0
 39 42  1  0
 37 43  2  0
 43 44  1  0
 43  6  1  0
 35 13  1  0
 31 23  1  0
M  CHG  2  24  -1  34  -1
M  END
>  <UniqueID>  (74) 
69

>  <SMILES>  (74) 
COc1cc(CO)ccc1Oc1ccc(S(=O)(=O)/N=c2/cccc[n-]2)c([O-])c1

>  <Energy>  (74) 
58.100936117338

>  <Genealogy>  (74) 
COc1cc(CO)ccc1Oc1ccc(S(=O)(=O)N=c2cccc[n-]2)c([O-])c1 (protonated)
COc1cc(CO)ccc1Oc1ccc(S(=O)(=O)/N=c2/cccc[n-]2)c([O-])c1 (cis-trans isomerization)
COc1cc(CO)ccc1Oc1ccc(S(=O)(=O)/N=c2/cccc[n-]2)c([O-])c1 (3D coordinates assigned)
COc1cc(CO)ccc1Oc1ccc(S(=O)(=O)/N=c2/cccc[n-]2)c([O-])c1 (optimized conformer: 58.100936117338 kcal/mol)

>  <smiles>  (74) 
COc1cc(CO)ccc1Oc1ccc(S(=O)(=O)N=c2cccc[nH]2)c(O)c1

>  <score_type>  (74) 
oracle

>  <origin>  (74) 
adg

>  <m_score__min__energy>  (74) 
-13.58

>  <m_primary>  (74) 
energy

$$$$
74:0
     RDKit          3D

 51 53  0  0  0  0  0  0  0  0999 V2000
   62.9840   33.4640   46.7720 C   0  0  0  0  0  0  0  0  0  0  0  0
   62.4430   32.5230   47.8560 C   0  0  0  0  0  0  0  0  0  0  0  0
   61.4990   31.4680   47.2710 C   0  0  0  0  0  0  0  0  0  0  0  0
   61.7940   33.2710   48.9540 N   0  0  0  0  0  0  0  0  0  0  0  0
   62.5820   34.2410   49.7250 C   0  0  0  0  0  0  0  0  0  0  0  0
   60.4350   32.9980   49.3730 C   0  0  0  0  0  0  0  0  0  0  0  0
   60.2060   32.1820   50.3030 O   0  0  0  0  0  0  0  0  0  0  0  0
   59.3260   33.7030   48.7910 N   0  0  0  0  0  0  0  0  0  0  0  0
   59.1850   34.0130   47.5330 C   0  0  0  0  0  0  0  0  0  0  0  0
   58.4370   33.2200   46.6410 C   0  0  0  0  0  0  0  0  0  0  0  0
   58.3310   33.5960   45.2920 C   0  0  0  0  0  0  0  0  0  0  0  0
   57.5980   32.8370   44.3670 O   0  0  0  0  0  0  0  0  0  0  0  0
   57.5180   31.4360   44.3590 C   0  0  0  0  0  0  0  0  0  0  0  0
   56.3000   30.7670   44.1510 C   0  0  0  0  0  0  0  0  0  0  0  0
   56.2530   29.3700   44.1430 C   0  0  0  0  0  0  0  0  0  0  0  0
   57.4180   28.6180   44.3740 C   0  0  0  0  0  0  0  0  0  0  0  0
   57.4070   27.1780   44.3940 N   0  0  0  0  0  0  0  0  0  0  0  0
   57.5310   26.2220   45.8370 S   0  0  0  0  0  0  0  0  0  0  0  0
   57.9180   24.8150   45.4760 O   0  0  0  0  0  0  0  0  0  0  0  0
   56.1950   26.1890   46.5260 O   0  0  0  0  0  0  0  0  0  0  0  0
   58.7120   26.9340   46.9230 C   0  0  0  0  0  0  0  0  0  0  0  0
   59.9660   26.3630   47.1850 C   0  0  0  0  0  0  0  0  0  0  0  0
   60.7190   27.0860   48.0990 C   0  0  0  0  0  0  0  0  0  0  0  0
   59.8190   28.4250   48.5730 S   0  0  0  0  0  0  0  0  0  0  0  0
   58.4710   28.1080   47.6230 C   0  0  0  0  0  0  0  0  0  0  0  0
   58.6280   29.2930   44.5990 C   0  0  0  0  0  0  0  0  0  0  0  0
   58.6740   30.6900   44.5980 C   0  0  0  0  0  0  0  0  0  0  0  0
   58.9330   34.7820   44.8680 C   0  0  0  0  0  0  0  0  0  0  0  0
   59.6490   35.5570   45.7820 C   0  0  0  0  0  0  0  0  0  0  0  0
   59.7570   35.1600   47.0770 N   0  0  0  0  0  0  0  0  0  0  0  0
   63.4786   34.3243   47.2467 H   0  0  0  0  0  0  0  0  0  0  0  0
   63.7093   32.9236   46.1460 H   0  0  0  0  0  0  0  0  0  0  0  0
   62.1520   33.8189   46.1460 H   0  0  0  0  0  0  0  0  0  0  0  0
   63.3077   31.9930   48.2818 H   0  0  0  0  0  0  0  0  0  0  0  0
   61.0089   30.9203   48.0895 H   0  0  0  0  0  0  0  0  0  0  0  0
   60.7358   31.9619   46.6517 H   0  0  0  0  0  0  0  0  0  0  0  0
   62.0744   30.7641   46.6517 H   0  0  0  0  0  0  0  0  0  0  0  0
   62.4354   34.0606   50.8002 H   0  0  0  0  0  0  0  0  0  0  0  0
   63.6475   34.1282   49.4762 H   0  0  0  0  0  0  0  0  0  0  0  0
   62.2533   35.2608   49.4762 H   0  0  0  0  0  0  0  0  0  0  0  0
   57.9371   32.3084   47.0001 H   0  0  0  0  0  0  0  0  0  0  0  0
   55.3781   31.3460   43.9935 H   0  0  0  0  0  0  0  0  0  0  0  0
   55.2988   28.8561   43.9548 H   0  0  0  0  0  0  0  0  0  0  0  0
   57.3620   26.6600   43.4890 H   0  0  0  0  0  0  0  0  0  0  0  0
   60.3177   25.4339   46.7126 H   0  0  0  0  0  0  0  0  0  0  0  0
   61.7285   26.8283   48.4519 H   0  0  0  0  0  0  0  0  0  0  0  0
   57.5597   28.7213   47.5657 H   0  0  0  0  0  0  0  0  0  0  0  0
   59.5482   28.7174   44.7777 H   0  0  0  0  0  0  0  0  0  0  0  0
   59.6273   31.2053   44.7868 H   0  0  0  0  0  0  0  0  0  0  0  0
   58.8437   35.1039   43.8200 H   0  0  0  0  0  0  0  0  0  0  0  0
   60.1270   36.4915   45.4530 H   0  0  0  0  0  0  0  0  0  0  0  0
  1  2  1  0
  2  3  1  0
  2  4  1  0
  4  5  1  0
  4  6  1  0
  6  7  2  0
  6  8  1  0
  8  9  2  3
  9 10  1  0
 10 11  2  0
 11 12  1  0
 12 13  1  0
 13 14  2  0
 14 15  1  0
 15 16  2  0
 16 17  1  0
 17 18  1  0
 18 19  2  0
 18 20  2  0
 18 21  1  0
 21 22  1  0
 22 23  2  0
 23 24  1  0
 24 25  1  0
 16 26  1  0
 26 27  2  0
 11 28  1  0
 28 29  2  0
 29 30  1  0
 30  9  1  0
 27 13  1  0
 25 21  2  0
  1 31  1  0
  1 32  1  0
  1 33  1  0
  2 34  1  0
  3 35  1  0
  3 36  1  0
  3 37  1  0
  5 38  1  0
  5 39  1  0
  5 40  1  0
 10 41  1  0
 14 42  1  0
 15 43  1  0
 17 44  1  0
 22 45  1  0
 23 46  1  0
 25 47  1  0
 26 48  1  0
 27 49  1  0
 28 50  1  0
 29 51  1  0
M  CHG  1  30  -1
M  END
>  <UniqueID>  (75) 
70

>  <SMILES>  (75) 
CC(C)N(C)C(=O)N=c1cc(Oc2ccc(NS(=O)(=O)c3ccsc3)cc2)cc[n-]1

>  <Energy>  (75) 
88.01165204250779

>  <Genealogy>  (75) 
CC(C)N(C)C(=O)N=c1cc(Oc2ccc(NS(=O)(=O)c3ccsc3)cc2)cc[n-]1 (protonated)
CC(C)N(C)C(=O)N=c1cc(Oc2ccc(NS(=O)(=O)c3ccsc3)cc2)cc[n-]1 (3D coordinates assigned)
CC(C)N(C)C(=O)N=c1cc(Oc2ccc(NS(=O)(=O)c3ccsc3)cc2)cc[n-]1 (optimized conformer: 88.01165204250779 kcal/mol)

>  <smiles>  (75) 
CC(C)N(C)C(=O)N=c1cc(Oc2ccc(NS(=O)(=O)c3ccsc3)cc2)cc[nH]1

>  <score_type>  (75) 
oracle

>  <origin>  (75) 
adg

>  <m_score__min__energy>  (75) 
-9.7699999999999996

>  <m_primary>  (75) 
energy

$$$$
75:0
     RDKit          3D

 54 58  0  0  0  0  0  0  0  0999 V2000
   54.7680   26.1440   45.9870 N   0  0  0  0  0  0  0  0  0  0  0  0
   56.3430   25.4750   46.2290 S   0  0  0  0  0  0  0  0  0  0  0  0
   56.3410   24.6150   47.4620 O   0  0  0  0  0  0  0  0  0  0  0  0
   56.7180   24.6250   45.0480 O   0  0  0  0  0  0  0  0  0  0  0  0
   57.5080   26.7810   46.4150 C   0  0  0  0  0  0  0  0  0  0  0  0
   57.8290   27.6040   45.3100 C   0  0  0  0  0  0  0  0  0  0  0  0
   58.7480   28.6540   45.4480 C   0  0  0  0  0  0  0  0  0  0  0  0
   59.3280   28.8630   46.6980 C   0  0  0  0  0  0  0  0  0  0  0  0
   59.0160   28.0710   47.7860 C   0  0  0  0  0  0  0  0  0  0  0  0
   58.1050   27.0220   47.6680 C   0  0  0  0  0  0  0  0  0  0  0  0
   59.7630   28.5030   49.0160 C   0  0  0  0  0  0  0  0  0  0  0  0
   60.5460   29.6600   48.4660 C   0  0  0  0  0  0  0  0  0  0  0  0
   61.4280   30.4920   49.1540 C   0  0  0  0  0  0  0  0  0  0  0  0
   62.0480   31.5480   48.4560 C   0  0  0  0  0  0  0  0  0  0  0  0
   63.1300   32.6590   49.2930 S   0  0  0  0  0  0  0  0  0  0  0  0
   64.1750   33.1340   48.3230 O   0  0  0  0  0  0  0  0  0  0  0  0
   63.8210   31.9480   50.4230 O   0  0  0  0  0  0  0  0  0  0  0  0
   62.2760   34.0400   49.9270 N   0  0  0  0  0  0  0  0  0  0  0  0
   60.9170   33.6980   50.3560 C   0  0  0  0  0  0  0  0  0  0  0  0
   59.9570   33.6630   49.1960 C   0  0  0  0  0  0  0  0  0  0  0  0
   60.0960   34.5720   48.1350 C   0  0  0  0  0  0  0  0  0  0  0  0
   59.1840   34.5620   47.0760 C   0  0  0  0  0  0  0  0  0  0  0  0
   58.1330   33.6320   47.0530 C   0  0  0  0  0  0  0  0  0  0  0  0
   57.1110   33.6700   45.9530 C   0  0  0  0  0  0  0  0  0  0  0  0
   57.5060   32.7630   44.8790 N   0  0  0  0  0  0  0  0  0  0  0  0
   56.9620   31.5700   44.5890 C   0  0  0  0  0  0  0  0  0  0  0  0
   57.5710   31.0970   43.4480 C   0  0  0  0  0  0  0  0  0  0  0  0
   58.4810   31.9940   43.0140 N   0  0  0  0  0  0  0  0  0  0  0  0
   58.4100   33.0020   43.9080 C   0  0  0  0  0  0  0  0  0  0  0  0
   57.9990   32.7170   48.1090 C   0  0  0  0  0  0  0  0  0  0  0  0
   58.9120   32.7250   49.1670 C   0  0  0  0  0  0  0  0  0  0  0  0
   61.7800   31.7380   47.0820 C   0  0  0  0  0  0  0  0  0  0  0  0
   60.8900   30.8900   46.4050 C   0  0  0  0  0  0  0  0  0  0  0  0
   60.2860   29.8600   47.1240 C   0  0  0  0  0  0  0  0  0  0  0  0
   54.8110   26.7180   45.1150 H   0  0  0  0  0  0  0  0  0  0  0  0
   57.3541   27.4188   44.3352 H   0  0  0  0  0  0  0  0  0  0  0  0
   59.0044   29.2959   44.5923 H   0  0  0  0  0  0  0  0  0  0  0  0
   57.8572   26.3945   48.5368 H   0  0  0  0  0  0  0  0  0  0  0  0
   59.0786   28.8195   49.8169 H   0  0  0  0  0  0  0  0  0  0  0  0
   60.3735   27.7158   49.4825 H   0  0  0  0  0  0  0  0  0  0  0  0
   61.6362   30.3275   50.2215 H   0  0  0  0  0  0  0  0  0  0  0  0
   60.9333   32.7078   50.8348 H   0  0  0  0  0  0  0  0  0  0  0  0
   60.5755   34.4716   51.0595 H   0  0  0  0  0  0  0  0  0  0  0  0
   60.9255   35.2945   48.1373 H   0  0  0  0  0  0  0  0  0  0  0  0
   59.2905   35.2872   46.2558 H   0  0  0  0  0  0  0  0  0  0  0  0
   56.1337   33.3601   46.3517 H   0  0  0  0  0  0  0  0  0  0  0  0
   57.0420   34.6938   45.5567 H   0  0  0  0  0  0  0  0  0  0  0  0
   56.1715   31.0616   45.1605 H   0  0  0  0  0  0  0  0  0  0  0  0
   57.3494   30.1344   42.9640 H   0  0  0  0  0  0  0  0  0  0  0  0
   59.0205   33.9152   43.8510 H   0  0  0  0  0  0  0  0  0  0  0  0
   57.1725   31.9911   48.1037 H   0  0  0  0  0  0  0  0  0  0  0  0
   58.8117   31.9926   49.9816 H   0  0  0  0  0  0  0  0  0  0  0  0
   62.2730   32.5574   46.5383 H   0  0  0  0  0  0  0  0  0  0  0  0
   60.6749   31.0343   45.3359 H   0  0  0  0  0  0  0  0  0  0  0  0
  1  2  1  0
  2  3  2  0
  2  4  2  0
  2  5  1  0
  5  6  2  0
  6  7  1  0
  7  8  2  0
  8  9  1  0
  9 10  2  0
  9 11  1  0
 11 12  1  0
 12 13  2  0
 13 14  1  0
 14 15  1  0
 15 16  2  0
 15 17  2  0
 15 18  1  0
 18 19  1  0
 19 20  1  0
 20 21  2  0
 21 22  1  0
 22 23  2  0
 23 24  1  0
 24 25  1  0
 25 26  1  0
 26 27  2  0
 27 28  1  0
 28 29  2  0
 23 30  1  0
 30 31  2  0
 14 32  2  0
 32 33  1  0
 33 34  2  0
 10  5  1  0
 34 12  1  0
 34  8  1  0
 31 20  1  0
 29 25  1  0
  1 35  1  0
  6 36  1  0
  7 37  1  0
 10 38  1  0
 11 39  1  0
 11 40  1  0
 13 41  1  0
 19 42  1  0
 19 43  1  0
 21 44  1  0
 22 45  1  0
 24 46  1  0
 24 47  1  0
 26 48  1  0
 27 49  1  0
 29 50  1  0
 30 51  1  0
 31 52  1  0
 32 53  1  0
 33 54  1  0
M  CHG  2   1  -1  18  -1
M  END
>  <UniqueID>  (76) 
71

>  <SMILES>  (76) 
[NH-]S(=O)(=O)c1ccc2c(c1)Cc1cc(S(=O)(=O)[N-]Cc3ccc(Cn4ccnc4)cc3)ccc1-2

>  <Energy>  (76) 
107.12715854282067

>  <Genealogy>  (76) 
[NH-]S(=O)(=O)c1ccc2c(c1)Cc1cc(S(=O)(=O)[N-]Cc3ccc(Cn4ccnc4)cc3)ccc1-2 (protonated)
[NH-]S(=O)(=O)c1ccc2c(c1)Cc1cc(S(=O)(=O)[N-]Cc3ccc(Cn4ccnc4)cc3)ccc1-2 (3D coordinates assigned)
[NH-]S(=O)(=O)c1ccc2c(c1)Cc1cc(S(=O)(=O)[N-]Cc3ccc(Cn4ccnc4)cc3)ccc1-2 (nonaromatic ring conformer: 107.12715854282067 kcal/mol)

>  <smiles>  (76) 
NS(=O)(=O)c1ccc2c(c1)Cc1cc(S(=O)(=O)NCc3ccc(Cn4ccnc4)cc3)ccc1-2

>  <score_type>  (76) 
oracle

>  <origin>  (76) 
adg

>  <m_score__min__energy>  (76) 
-13.880000000000001

>  <m_primary>  (76) 
energy

$$$$
76:0
     RDKit          3D

 41 43  0  0  1  0  0  0  0  0999 V2000
   57.6040   28.3610   43.3590 N   0  0  0  0  0  0  0  0  0  0  0  0
   56.9290   28.8670   44.8420 S   0  0  0  0  0  0  0  0  0  0  0  0
   56.2980   30.2230   44.6210 O   0  0  0  0  0  0  0  0  0  0  0  0
   55.9720   27.9110   45.4390 O   0  0  0  0  0  0  0  0  0  0  0  0
   58.2500   29.1060   45.9860 C   0  0  0  0  0  0  0  0  0  0  0  0
   59.4150   29.7250   45.5980 C   0  0  0  0  0  0  0  0  0  0  0  0
   60.4610   29.9120   46.5010 C   0  0  0  0  0  0  0  0  0  0  0  0
   60.3750   29.4940   47.8040 C   0  0  0  0  0  0  0  0  0  0  0  0
   61.3410   29.6290   48.7980 N   0  0  0  0  0  0  0  0  0  0  0  0
   61.4030   30.6330   49.4910 N   0  0  0  0  0  0  0  0  0  0  0  0
   62.0980   31.7800   49.1070 C   0  0  0  0  0  0  0  0  0  0  0  0
   61.3800   32.7320   48.3540 C   0  0  0  0  0  0  0  0  0  0  0  0
   60.0340   32.5030   47.9830 N   0  0  0  0  0  0  0  0  0  0  0  0
   59.3170   33.1250   46.9630 C   0  0  0  0  0  0  0  0  0  0  0  0
   59.8860   33.9600   46.0030 C   0  0  0  0  0  0  0  0  0  0  0  0
   59.1340   34.5390   44.9920 C   0  0  0  0  0  0  0  0  0  0  0  0
   57.7640   34.2820   44.9340 C   0  0  0  0  0  0  0  0  0  0  0  0
   57.2060   33.4560   45.8870 C   0  0  0  0  0  0  0  0  0  0  0  0
   57.9400   32.8700   46.9000 C   0  0  0  0  0  0  0  0  0  0  0  0
   62.0560   33.8440   47.9950 N   0  0  0  0  0  0  0  0  0  0  0  0
   63.3270   34.0550   48.3240 N   0  0  0  0  0  0  0  0  0  0  0  0
   64.0550   33.1810   49.0400 C   0  0  0  0  0  0  0  0  0  0  0  0
   65.2520   33.3960   49.3380 O   0  0  0  0  0  0  0  0  0  0  0  0
   63.4140   32.0240   49.4340 C   0  0  0  0  0  0  0  0  0  0  0  0
   64.0900   31.2040   50.1050 O   0  0  0  0  0  0  0  0  0  0  0  0
   59.1670   28.8660   48.1570 C   0  0  0  0  0  0  0  0  0  0  0  0
   58.1460   28.6810   47.2810 C   0  0  0  0  0  0  0  0  0  0  0  0
   57.9470   29.1460   42.7790 H   0  0  0  0  0  0  0  0  0  0  0  0
   56.8970   27.8430   42.8050 H   0  0  0  0  0  0  0  0  0  0  0  0
   59.5232   30.0773   44.5616 H   0  0  0  0  0  0  0  0  0  0  0  0
   61.3807   30.4087   46.1584 H   0  0  0  0  0  0  0  0  0  0  0  0
   59.5090   31.7640   48.5510 H   0  0  0  0  0  0  0  0  0  0  0  0
   60.9655   34.1662   46.0488 H   0  0  0  0  0  0  0  0  0  0  0  0
   59.6110   35.1918   44.2462 H   0  0  0  0  0  0  0  0  0  0  0  0
   57.1418   34.7289   44.1446 H   0  0  0  0  0  0  0  0  0  0  0  0
   56.1258   33.2543   45.8382 H   0  0  0  0  0  0  0  0  0  0  0  0
   57.4546   32.2177   47.6409 H   0  0  0  0  0  0  0  0  0  0  0  0
   61.6120   34.5970   47.4260 H   0  0  0  0  0  0  0  0  0  0  0  0
   63.8100   34.9360   48.0210 H   0  0  0  0  0  0  0  0  0  0  0  0
   59.0437   28.5084   49.1899 H   0  0  0  0  0  0  0  0  0  0  0  0
   57.2245   28.1833   47.6174 H   0  0  0  0  0  0  0  0  0  0  0  0
  1  2  1  0
  2  3  2  0
  2  4  2  0
  2  5  1  0
  5  6  2  0
  6  7  1  0
  7  8  2  0
  8  9  1  0
  9 10  2  0
 10 11  1  0
 11 12  2  0
 12 13  1  0
 13 14  1  0
 14 15  2  0
 15 16  1  0
 16 17  2  0
 17 18  1  0
 18 19  2  0
 12 20  1  0
 20 21  1  0
 21 22  1  0
 22 23  2  0
 22 24  1  0
 24 25  2  0
  8 26  1  0
 26 27  2  0
 27  5  1  0
 24 11  1  0
 19 14  1  0
  1 28  1  0
  1 29  1  0
  6 30  1  0
  7 31  1  0
 13 32  1  0
 15 33  1  0
 16 34  1  0
 17 35  1  0
 18 36  1  0
 19 37  1  0
 20 38  1  0
 21 39  1  0
 26 40  1  0
 27 41  1  0
M  END
>  <smiles>  (77) 
NS(=O)(=O)c1ccc(N=Nc2c(Nc3ccccc3)[nH][nH]c(=O)c2=O)cc1

>  <score_type>  (77) 
oracle

>  <origin>  (77) 
adg

>  <m_score__min__energy>  (77) 
-8.5500000000000007

>  <m_primary>  (77) 
energy

$$$$
77:0
     RDKit          3D

 28 29  0  0  0  0  0  0  0  0999 V2000
   53.1700   24.0840   44.7840 C   0  0  0  0  0  0  0  0  0  0  0  0
   54.3430   24.6990   45.4670 C   0  0  0  0  0  0  0  0  0  0  0  0
   55.4340   24.0290   45.9760 C   0  0  0  0  0  0  0  0  0  0  0  0
   56.2040   25.0360   46.5210 C   0  0  0  0  0  0  0  0  0  0  0  0
   57.5100   24.8640   47.1840 C   0  0  0  0  0  0  0  0  0  0  0  0
   57.5630   24.2770   48.2960 O   0  0  0  0  0  0  0  0  0  0  0  0
   58.7320   25.2910   46.5680 N   0  0  0  0  0  0  0  0  0  0  0  0
   58.9890   26.5870   46.0090 C   0  0  0  0  0  0  0  0  0  0  0  0
   60.3010   27.0720   45.9930 C   0  0  0  0  0  0  0  0  0  0  0  0
   60.5800   28.3350   45.4620 C   0  0  0  0  0  0  0  0  0  0  0  0
   59.5460   29.1280   44.9560 C   0  0  0  0  0  0  0  0  0  0  0  0
   58.2230   28.6650   44.9960 C   0  0  0  0  0  0  0  0  0  0  0  0
   56.9070   29.6460   44.3580 S   0  0  0  0  0  0  0  0  0  0  0  0
   55.3960   28.9780   44.8610 N   0  0  0  0  0  0  0  0  0  0  0  0
   57.0350   31.0530   44.8730 O   0  0  0  0  0  0  0  0  0  0  0  0
   56.9590   29.6740   42.8560 O   0  0  0  0  0  0  0  0  0  0  0  0
   57.9460   27.4010   45.5320 C   0  0  0  0  0  0  0  0  0  0  0  0
   55.5950   26.2240   46.3310 N   0  0  0  0  0  0  0  0  0  0  0  0
   54.4820   25.9830   45.7020 O   0  0  0  0  0  0  0  0  0  0  0  0
   52.4604   23.7120   45.5377 H   0  0  0  0  0  0  0  0  0  0  0  0
   52.6748   24.8385   44.1551 H   0  0  0  0  0  0  0  0  0  0  0  0
   53.5089   23.2476   44.1551 H   0  0  0  0  0  0  0  0  0  0  0  0
   55.6417   22.9490   45.9533 H   0  0  0  0  0  0  0  0  0  0  0  0
   61.1170   26.4569   46.4001 H   0  0  0  0  0  0  0  0  0  0  0  0
   61.6156   28.7055   45.4424 H   0  0  0  0  0  0  0  0  0  0  0  0
   59.7702   30.1155   44.5263 H   0  0  0  0  0  0  0  0  0  0  0  0
   55.5550   27.9610   45.0390 H   0  0  0  0  0  0  0  0  0  0  0  0
   56.9070   27.0430   45.5801 H   0  0  0  0  0  0  0  0  0  0  0  0
  1  2  1  0
  2  3  2  0
  3  4  1  0
  4  5  1  0
  5  6  2  0
  5  7  1  0
  7  8  1  0
  8  9  2  0
  9 10  1  0
 10 11  2  0
 11 12  1  0
 12 13  1  0
 13 14  1  0
 13 15  2  0
 13 16  2  0
 12 17  2  0
  4 18  2  0
 18 19  1  0
 19  2  1  0
 17  8  1  0
  1 20  1  0
  1 21  1  0
  1 22  1  0
  3 23  1  0
  9 24  1  0
 10 25  1  0
 11 26  1  0
 14 27  1  0
 17 28  1  0
M  CHG  2   7  -1  14  -1
M  END
>  <UniqueID>  (78) 
72

>  <SMILES>  (78) 
Cc1cc(C(=O)[N-]c2cccc(S([NH-])(=O)=O)c2)no1

>  <Energy>  (78) 
61.2848556349617

>  <Genealogy>  (78) 
Cc1cc(C(=O)[N-]c2cccc(S([NH-])(=O)=O)c2)no1 (protonated)
Cc1cc(C(=O)[N-]c2cccc(S([NH-])(=O)=O)c2)no1 (3D coordinates assigned)
Cc1cc(C(=O)[N-]c2cccc(S([NH-])(=O)=O)c2)no1 (optimized conformer: 61.2848556349617 kcal/mol)

>  <smiles>  (78) 
Cc1cc(C(=O)Nc2cccc(S(N)(=O)=O)c2)no1

>  <score_type>  (78) 
oracle

>  <origin>  (78) 
adg

>  <m_score__min__energy>  (78) 
-12.300000000000001

>  <m_primary>  (78) 
energy

$$$$
78:0
     RDKit          3D

 36 38  0  0  0  0  0  0  0  0999 V2000
   59.7320   29.7800   47.5600 C   0  0  0  0  0  0  0  0  0  0  0  0
   59.1530   30.7860   46.5980 C   0  0  0  0  0  0  0  0  0  0  0  0
   59.4930   32.1410   46.7580 C   0  0  0  0  0  0  0  0  0  0  0  0
   58.9670   33.1140   45.9080 C   0  0  0  0  0  0  0  0  0  0  0  0
   59.4370   34.9500   46.1470 Br  0  0  0  0  0  0  0  0  0  0  0  0
   58.0960   32.7470   44.8830 C   0  0  0  0  0  0  0  0  0  0  0  0
   57.7550   31.4070   44.7010 C   0  0  0  0  0  0  0  0  0  0  0  0
   58.2770   30.4060   45.5450 C   0  0  0  0  0  0  0  0  0  0  0  0
   57.9080   28.9880   45.2970 C   0  0  0  0  0  0  0  0  0  0  0  0
   58.4590   28.1500   44.3370 C   0  0  0  0  0  0  0  0  0  0  0  0
   57.8200   26.9370   44.4770 C   0  0  0  0  0  0  0  0  0  0  0  0
   56.9230   27.1040   45.5120 C   0  0  0  0  0  0  0  0  0  0  0  0
   56.0030   26.0880   46.0340 C   0  0  0  0  0  0  0  0  0  0  0  0
   54.7590   26.2850   45.9910 O   0  0  0  0  0  0  0  0  0  0  0  0
   56.5340   24.8580   46.5410 N   0  0  0  0  0  0  0  0  0  0  0  0
   57.1930   23.8330   45.7830 C   0  0  0  0  0  0  0  0  0  0  0  0
   58.5950   23.7490   45.6980 C   0  0  0  0  0  0  0  0  0  0  0  0
   59.1960   22.7480   44.9290 C   0  0  0  0  0  0  0  0  0  0  0  0
   58.4060   21.8320   44.2300 C   0  0  0  0  0  0  0  0  0  0  0  0
   57.0120   21.9200   44.2880 C   0  0  0  0  0  0  0  0  0  0  0  0
   56.2350   21.0070   43.5780 O   0  0  0  0  0  0  0  0  0  0  0  0
   56.4080   22.9250   45.0590 C   0  0  0  0  0  0  0  0  0  0  0  0
   56.9980   28.3290   45.9790 O   0  0  0  0  0  0  0  0  0  0  0  0
   59.5427   30.1089   48.5925 H   0  0  0  0  0  0  0  0  0  0  0  0
   59.2595   28.8005   47.3947 H   0  0  0  0  0  0  0  0  0  0  0  0
   60.8163   29.6966   47.3947 H   0  0  0  0  0  0  0  0  0  0  0  0
   60.1818   32.4372   47.5629 H   0  0  0  0  0  0  0  0  0  0  0  0
   57.6771   33.5156   44.2168 H   0  0  0  0  0  0  0  0  0  0  0  0
   57.0693   31.1274   43.8876 H   0  0  0  0  0  0  0  0  0  0  0  0
   59.2462   28.4030   43.6115 H   0  0  0  0  0  0  0  0  0  0  0  0
   57.9899   26.0248   43.8861 H   0  0  0  0  0  0  0  0  0  0  0  0
   59.2209   24.4741   46.2389 H   0  0  0  0  0  0  0  0  0  0  0  0
   60.2926   22.6815   44.8742 H   0  0  0  0  0  0  0  0  0  0  0  0
   58.8817   21.0401   43.6329 H   0  0  0  0  0  0  0  0  0  0  0  0
   56.5670   20.0720   43.3770 H   0  0  0  0  0  0  0  0  0  0  0  0
   55.3112   23.0007   45.0954 H   0  0  0  0  0  0  0  0  0  0  0  0
  1  2  1  0
  2  3  2  0
  3  4  1  0
  4  5  1  0
  4  6  2  0
  6  7  1  0
  7  8  2  0
  8  9  1  0
  9 10  2  0
 10 11  1  0
 11 12  2  0
 12 13  1  0
 13 14  2  0
 13 15  1  0
 15 16  1  0
 16 17  2  0
 17 18  1  0
 18 19  2  0
 19 20  1  0
 20 21  1  0
 20 22  2  0
 12 23  1  0
  8  2  1  0
 23  9  1  0
 22 16  1  0
  1 24  1  0
  1 25  1  0
  1 26  1  0
  3 27  1  0
  6 28  1  0
  7 29  1  0
 10 30  1  0
 11 31  1  0
 17 32  1  0
 18 33  1  0
 19 34  1  0
 21 35  1  0
 22 36  1  0
M  CHG  1  15  -1
M  END
>  <UniqueID>  (79) 
73

>  <SMILES>  (79) 
Cc1cc(Br)ccc1-c1ccc(C(=O)[N-]c2cccc(O)c2)o1

>  <Energy>  (79) 
70.34610451255944

>  <Genealogy>  (79) 
Cc1cc(Br)ccc1-c1ccc(C(=O)[N-]c2cccc(O)c2)o1 (protonated)
Cc1cc(Br)ccc1-c1ccc(C(=O)[N-]c2cccc(O)c2)o1 (3D coordinates assigned)
Cc1cc(Br)ccc1-c1ccc(C(=O)[N-]c2cccc(O)c2)o1 (optimized conformer: 70.34610451255944 kcal/mol)

>  <smiles>  (79) 
Cc1cc(Br)ccc1-c1ccc(C(=O)Nc2cccc(O)c2)o1

>  <score_type>  (79) 
oracle

>  <origin>  (79) 
adg

>  <m_score__min__energy>  (79) 
-11.029999999999999

>  <m_primary>  (79) 
energy

$$$$
79:0
     RDKit          3D

 42 43  0  0  0  0  0  0  0  0999 V2000
   60.3148   31.7748   46.3334 H   0  0  0  0  0  0  0  0  0  0  0  0
   59.3400   31.6840   45.8320 C   0  0  0  0  0  0  0  0  0  0  0  0
   58.6530   30.4680   45.8710 C   0  0  0  0  0  0  0  0  0  0  0  0
   59.0964   29.6073   46.3931 H   0  0  0  0  0  0  0  0  0  0  0  0
   57.4010   30.3360   45.2490 C   0  0  0  0  0  0  0  0  0  0  0  0
   56.6760   29.0410   45.2930 C   0  0  0  0  0  0  0  0  0  0  0  0
   55.4770   28.9870   44.9120 O   0  0  0  0  0  0  0  0  0  0  0  0
   57.2770   27.8560   45.8370 N   0  0  0  0  0  0  0  0  0  0  0  0
   56.8240   26.6370   45.7450 C   0  0  0  0  0  0  0  0  0  0  0  0
   57.7170   25.6230   45.5980 N   0  0  0  0  0  0  0  0  0  0  0  0
   57.3140   24.3300   45.4960 C   0  0  0  0  0  0  0  0  0  0  0  0
   58.3270   23.2440   45.3180 C   0  0  0  0  0  0  0  0  0  0  0  0
   58.6595   22.8875   46.3041 H   0  0  0  0  0  0  0  0  0  0  0  0
   57.8765   22.4103   44.7595 H   0  0  0  0  0  0  0  0  0  0  0  0
   59.1900   23.6355   44.7595 H   0  0  0  0  0  0  0  0  0  0  0  0
   55.9520   24.0260   45.5450 C   0  0  0  0  0  0  0  0  0  0  0  0
   55.6042   22.9866   45.4523 H   0  0  0  0  0  0  0  0  0  0  0  0
   55.0430   25.0690   45.7140 C   0  0  0  0  0  0  0  0  0  0  0  0
   53.8090   24.8220   45.7760 O   0  0  0  0  0  0  0  0  0  0  0  0
   55.4870   26.3520   45.8190 N   0  0  0  0  0  0  0  0  0  0  0  0
   54.7800   27.1030   45.9810 H   0  0  0  0  0  0  0  0  0  0  0  0
   56.8570   31.4440   44.5760 C   0  0  0  0  0  0  0  0  0  0  0  0
   55.8825   31.3532   44.0740 H   0  0  0  0  0  0  0  0  0  0  0  0
   57.5450   32.6600   44.5400 C   0  0  0  0  0  0  0  0  0  0  0  0
   57.1019   33.5234   44.0221 H   0  0  0  0  0  0  0  0  0  0  0  0
   58.8010   32.7870   45.1620 C   0  0  0  0  0  0  0  0  0  0  0  0
   59.5410   33.9810   45.1540 O   0  0  0  0  0  0  0  0  0  0  0  0
   59.4490   35.0350   46.1140 C   0  0  0  0  0  0  0  0  0  0  0  0
   60.4489   35.4649   46.2737 H   0  0  0  0  0  0  0  0  0  0  0  0
   58.7583   35.8003   45.7303 H   0  0  0  0  0  0  0  0  0  0  0  0
   58.9080   34.5130   47.4500 C   0  0  0  0  0  0  0  0  0  0  0  0
   58.2818   35.2900   47.9129 H   0  0  0  0  0  0  0  0  0  0  0  0
   58.3167   33.6054   47.2583 H   0  0  0  0  0  0  0  0  0  0  0  0
   60.0130   34.1700   48.3710 N   0  0  0  0  0  0  0  0  0  0  0  0
   59.6430   33.0390   49.2400 C   0  0  0  0  0  0  0  0  0  0  0  0
   59.7411   33.3389   50.2938 H   0  0  0  0  0  0  0  0  0  0  0  0
   58.6022   32.7462   49.0375 H   0  0  0  0  0  0  0  0  0  0  0  0
   60.3095   32.1876   49.0375 H   0  0  0  0  0  0  0  0  0  0  0  0
   61.2330   33.8390   47.6220 C   0  0  0  0  0  0  0  0  0  0  0  0
   62.0477   33.6180   48.3273 H   0  0  0  0  0  0  0  0  0  0  0  0
   61.0472   32.9588   46.9890 H   0  0  0  0  0  0  0  0  0  0  0  0
   61.5175   34.6924   46.9890 H   0  0  0  0  0  0  0  0  0  0  0  0
  1  2  1  0
  2  3  2  0
  3  4  1  0
  3  5  1  0
  5  6  1  0
  6  7  2  0
  6  8  1  0
  8  9  2  0
  9 10  1  0
 10 11  1  0
 11 12  1  0
 12 13  1  0
 12 14  1  0
 12 15  1  0
 11 16  2  0
 16 17  1  0
 16 18  1  0
 18 19  2  0
 18 20  1  0
 20 21  1  0
  5 22  2  0
 22 23  1  0
 22 24  1  0
 24 25  1  0
 24 26  2  0
 26 27  1  0
 27 28  1  0
 28 29  1  0
 28 30  1  0
 28 31  1  0
 31 32  1  0
 31 33  1  0
 31 34  1  0
 34 35  1  0
 35 36  1  0
 35 37  1  0
 35 38  1  0
 34 39  1  0
 39 40  1  0
 39 41  1  0
 39 42  1  0
 26  2  1  0
 20  9  1  0
M  CHG  1  10  -1
M  END
>  <UniqueID>  (80) 
74

>  <SMILES>  (80) 
Cc1cc(=O)[nH]/c(=N\C(=O)c2ccc(OCCN(C)C)cc2)[n-]1

>  <Energy>  (80) 
51.45489852303006

>  <Genealogy>  (80) 
Cc1cc(=O)[nH]c(=NC(=O)c2ccc(OCCN(C)C)cc2)[n-]1 (protonated)
Cc1cc(=O)[nH]/c(=N\C(=O)c2ccc(OCCN(C)C)cc2)[n-]1 (cis-trans isomerization)
Cc1cc(=O)[nH]/c(=N\C(=O)c2ccc(OCCN(C)C)cc2)[n-]1 (3D coordinates assigned)
Cc1cc(=O)[nH]/c(=N\C(=O)c2ccc(OCCN(C)C)cc2)[n-]1 (optimized conformer: 51.45489852303006 kcal/mol)

>  <smiles>  (80) 
Cc1cc(=O)[nH]c(=NC(=O)c2ccc(OCCN(C)C)cc2)[nH]1

>  <score_type>  (80) 
oracle

>  <origin>  (80) 
adg

>  <m_score__min__energy>  (80) 
-9.3100000000000005

>  <m_primary>  (80) 
energy

$$$$
80:0
     RDKit          3D

 39 41  0  0  0  0  0  0  0  0999 V2000
   63.5600   33.1050   49.0960 O   0  0  0  0  0  0  0  0  0  0  0  0
   62.3520   32.7670   48.2670 S   0  0  0  0  0  0  0  0  0  0  0  0
   62.6440   33.0940   46.8300 O   0  0  0  0  0  0  0  0  0  0  0  0
   60.9480   33.7360   48.8050 C   0  0  0  0  0  0  0  0  0  0  0  0
   59.8900   33.7750   47.7360 C   0  0  0  0  0  0  0  0  0  0  0  0
   58.7000   33.0430   47.8950 C   0  0  0  0  0  0  0  0  0  0  0  0
   57.7020   33.0980   46.9170 C   0  0  0  0  0  0  0  0  0  0  0  0
   57.8790   33.8920   45.7810 C   0  0  0  0  0  0  0  0  0  0  0  0
   59.0560   34.6280   45.6170 C   0  0  0  0  0  0  0  0  0  0  0  0
   59.2220   35.4020   44.5160 F   0  0  0  0  0  0  0  0  0  0  0  0
   60.0590   34.5710   46.5900 C   0  0  0  0  0  0  0  0  0  0  0  0
   62.0070   31.0730   48.3920 N   0  0  0  0  0  0  0  0  0  0  0  0
   60.9580   30.3990   47.6880 C   0  0  0  0  0  0  0  0  0  0  0  0
   60.1930   29.3810   48.2880 C   0  0  0  0  0  0  0  0  0  0  0  0
   59.1290   28.8000   47.5950 C   0  0  0  0  0  0  0  0  0  0  0  0
   58.8190   29.2230   46.2950 C   0  0  0  0  0  0  0  0  0  0  0  0
   57.4150   28.5780   45.4520 S   0  0  0  0  0  0  0  0  0  0  0  0
   57.8170   27.9540   44.1430 O   0  0  0  0  0  0  0  0  0  0  0  0
   56.4480   29.6960   45.1800 O   0  0  0  0  0  0  0  0  0  0  0  0
   56.6490   27.3800   46.4470 N   0  0  0  0  0  0  0  0  0  0  0  0
   56.1580   26.2770   45.9730 C   0  0  0  0  0  0  0  0  0  0  0  0
   54.8430   25.9640   45.9920 N   0  0  0  0  0  0  0  0  0  0  0  0
   54.6130   24.7530   45.4210 C   0  0  0  0  0  0  0  0  0  0  0  0
   55.7470   24.1000   44.9480 C   0  0  0  0  0  0  0  0  0  0  0  0
   57.0830   25.0760   45.2570 S   0  0  0  0  0  0  0  0  0  0  0  0
   59.5980   30.2130   45.6860 C   0  0  0  0  0  0  0  0  0  0  0  0
   60.6660   30.7930   46.3760 C   0  0  0  0  0  0  0  0  0  0  0  0
   60.5256   33.2856   49.7153 H   0  0  0  0  0  0  0  0  0  0  0  0
   61.2838   34.7635   49.0090 H   0  0  0  0  0  0  0  0  0  0  0  0
   58.5535   32.4244   48.7927 H   0  0  0  0  0  0  0  0  0  0  0  0
   56.7771   32.5158   47.0421 H   0  0  0  0  0  0  0  0  0  0  0  0
   57.0911   33.9380   45.0147 H   0  0  0  0  0  0  0  0  0  0  0  0
   60.9839   35.1515   46.4578 H   0  0  0  0  0  0  0  0  0  0  0  0
   60.4342   29.0420   49.3063 H   0  0  0  0  0  0  0  0  0  0  0  0
   58.5322   28.0079   48.0707 H   0  0  0  0  0  0  0  0  0  0  0  0
   53.6049   24.3206   45.3387 H   0  0  0  0  0  0  0  0  0  0  0  0
   55.7669   23.1159   44.4569 H   0  0  0  0  0  0  0  0  0  0  0  0
   59.3688   30.5361   44.6598 H   0  0  0  0  0  0  0  0  0  0  0  0
   61.2804   31.5628   45.8862 H   0  0  0  0  0  0  0  0  0  0  0  0
  1  2  2  0
  2  3  2  0
  2  4  1  0
  4  5  1  0
  5  6  2  0
  6  7  1  0
  7  8  2  0
  8  9  1  0
  9 10  1  0
  9 11  2  0
  2 12  1  0
 12 13  1  0
 13 14  2  0
 14 15  1  0
 15 16  2  0
 16 17  1  0
 17 18  2  0
 17 19  2  0
 17 20  1  0
 20 21  2  3
 21 22  1  0
 22 23  1  0
 23 24  2  0
 24 25  1  0
 16 26  1  0
 26 27  2  0
 11  5  1  0
 27 13  1  0
 25 21  1  0
  4 28  1  0
  4 29  1  0
  6 30  1  0
  7 31  1  0
  8 32  1  0
 11 33  1  0
 14 34  1  0
 15 35  1  0
 23 36  1  0
 24 37  1  0
 26 38  1  0
 27 39  1  0
M  CHG  2  12  -1  22  -1
M  END
>  <UniqueID>  (81) 
75

>  <SMILES>  (81) 
O=S(=O)(Cc1cccc(F)c1)[N-]c1ccc(S(=O)(=O)N=c2[n-]ccs2)cc1

>  <Energy>  (81) 
70.07524989882927

>  <Genealogy>  (81) 
O=S(=O)(Cc1cccc(F)c1)[N-]c1ccc(S(=O)(=O)N=c2[n-]ccs2)cc1 (protonated)
O=S(=O)(Cc1cccc(F)c1)[N-]c1ccc(S(=O)(=O)N=c2[n-]ccs2)cc1 (3D coordinates assigned)
O=S(=O)(Cc1cccc(F)c1)[N-]c1ccc(S(=O)(=O)N=c2[n-]ccs2)cc1 (optimized conformer: 70.07524989882927 kcal/mol)

>  <smiles>  (81) 
O=S(=O)(Cc1cccc(F)c1)Nc1ccc(S(=O)(=O)N=c2[nH]ccs2)cc1

>  <score_type>  (81) 
oracle

>  <origin>  (81) 
adg

>  <m_score__min__energy>  (81) 
-11.34

>  <m_primary>  (81) 
energy

$$$$
81:0
     RDKit          3D

 75 79  0  0  0  0  0  0  0  0999 V2000
   54.4700   30.5020   51.9660 O   0  0  0  0  0  0  0  0  0  0  0  0
   55.0620   30.1210   53.0130 C   0  0  0  0  0  0  0  0  0  0  0  0
   56.1760   30.8820   53.4880 N   0  0  0  0  0  0  0  0  0  0  0  0
   57.1220   31.5810   52.6680 C   0  0  0  0  0  0  0  0  0  0  0  0
   57.8400   32.6850   53.1530 C   0  0  0  0  0  0  0  0  0  0  0  0
   58.6970   33.4010   52.3070 C   0  0  0  0  0  0  0  0  0  0  0  0
   58.8370   33.0260   50.9640 C   0  0  0  0  0  0  0  0  0  0  0  0
   59.7520   33.7970   50.0490 C   0  0  0  0  0  0  0  0  0  0  0  0
   61.2090   33.6680   50.5100 C   0  0  0  0  0  0  0  0  0  0  0  0
   61.7210   32.3280   50.2240 N   0  0  0  0  0  0  0  0  0  0  0  0
   61.0930   31.4120   49.5490 C   0  0  0  0  0  0  0  0  0  0  0  0
   61.1500   30.0990   49.9150 N   0  0  0  0  0  0  0  0  0  0  0  0
   60.4920   29.1430   49.2090 C   0  0  0  0  0  0  0  0  0  0  0  0
   60.5730   27.9370   49.5640 O   0  0  0  0  0  0  0  0  0  0  0  0
   59.7380   29.5050   48.0890 C   0  0  0  0  0  0  0  0  0  0  0  0
   59.0890   28.5740   47.3440 N   0  0  0  0  0  0  0  0  0  0  0  0
   58.3920   28.9360   46.2350 C   0  0  0  0  0  0  0  0  0  0  0  0
   57.7070   27.9430   45.4600 N   0  0  0  0  0  0  0  0  0  0  0  0
   57.5990   26.5800   45.9970 C   0  0  0  0  0  0  0  0  0  0  0  0
   56.2800   25.9380   45.5730 C   0  0  0  0  0  0  0  0  0  0  0  0
   55.1870   26.7190   45.9750 O   0  0  0  0  0  0  0  0  0  0  0  0
   57.3030   28.2390   44.0760 C   0  0  0  0  0  0  0  0  0  0  0  0
   56.3400   29.4270   43.9900 C   0  0  0  0  0  0  0  0  0  0  0  0
   55.2170   29.2010   44.7900 O   0  0  0  0  0  0  0  0  0  0  0  0
   58.3300   30.2430   45.8670 N   0  0  0  0  0  0  0  0  0  0  0  0
   58.9480   31.2260   46.5790 C   0  0  0  0  0  0  0  0  0  0  0  0
   58.8850   32.5860   46.0900 N   0  0  0  0  0  0  0  0  0  0  0  0
   60.0270   33.4990   46.2690 C   0  0  0  0  0  0  0  0  0  0  0  0
   59.6350   34.9460   46.0210 C   0  0  0  0  0  0  0  0  0  0  0  0
   58.8860   35.0340   44.8320 O   0  0  0  0  0  0  0  0  0  0  0  0
   57.6010   34.5020   45.0650 C   0  0  0  0  0  0  0  0  0  0  0  0
   57.6460   32.9990   45.3980 C   0  0  0  0  0  0  0  0  0  0  0  0
   59.6830   30.8630   47.7250 C   0  0  0  0  0  0  0  0  0  0  0  0
   60.3670   31.7770   48.4590 N   0  0  0  0  0  0  0  0  0  0  0  0
   58.1180   31.9200   50.4810 C   0  0  0  0  0  0  0  0  0  0  0  0
   57.2570   31.2120   51.3240 C   0  0  0  0  0  0  0  0  0  0  0  0
   54.6560   28.9160   53.6860 N   0  0  0  0  0  0  0  0  0  0  0  0
   53.4710   28.1740   53.3580 C   0  0  0  0  0  0  0  0  0  0  0  0
   52.3390   28.8030   52.8120 C   0  0  0  0  0  0  0  0  0  0  0  0
   51.2100   28.0510   52.4680 C   0  0  0  0  0  0  0  0  0  0  0  0
   51.2090   26.6660   52.6500 C   0  0  0  0  0  0  0  0  0  0  0  0
   52.3390   26.0300   53.1680 C   0  0  0  0  0  0  0  0  0  0  0  0
   53.4700   26.7780   53.5070 C   0  0  0  0  0  0  0  0  0  0  0  0
   57.7292   32.9901   54.2040 H   0  0  0  0  0  0  0  0  0  0  0  0
   59.2617   34.2601   52.6981 H   0  0  0  0  0  0  0  0  0  0  0  0
   59.6596   33.4005   49.0271 H   0  0  0  0  0  0  0  0  0  0  0  0
   59.4650   34.8586   50.0722 H   0  0  0  0  0  0  0  0  0  0  0  0
   61.8233   34.4108   49.9800 H   0  0  0  0  0  0  0  0  0  0  0  0
   61.2551   33.8419   51.5952 H   0  0  0  0  0  0  0  0  0  0  0  0
   58.4346   25.9743   45.6164 H   0  0  0  0  0  0  0  0  0  0  0  0
   57.6330   26.6280   47.0954 H   0  0  0  0  0  0  0  0  0  0  0  0
   56.2655   25.8362   44.4778 H   0  0  0  0  0  0  0  0  0  0  0  0
   56.2007   24.9518   46.0537 H   0  0  0  0  0  0  0  0  0  0  0  0
   54.7810   27.0820   45.1450 H   0  0  0  0  0  0  0  0  0  0  0  0
   58.2029   28.4704   43.4872 H   0  0  0  0  0  0  0  0  0  0  0  0
   56.7803   27.3546   43.6828 H   0  0  0  0  0  0  0  0  0  0  0  0
   56.8540   30.3363   44.3350 H   0  0  0  0  0  0  0  0  0  0  0  0
   56.0162   29.5497   42.9459 H   0  0  0  0  0  0  0  0  0  0  0  0
   55.1290   28.2130   44.8700 H   0  0  0  0  0  0  0  0  0  0  0  0
   60.4021   33.4029   47.2986 H   0  0  0  0  0  0  0  0  0  0  0  0
   60.8028   33.2244   45.5391 H   0  0  0  0  0  0  0  0  0  0  0  0
   59.0291   35.3109   46.8635 H   0  0  0  0  0  0  0  0  0  0  0  0
   60.5428   35.5602   45.9279 H   0  0  0  0  0  0  0  0  0  0  0  0
   57.1431   35.0384   45.9091 H   0  0  0  0  0  0  0  0  0  0  0  0
   57.0115   34.6268   44.1447 H   0  0  0  0  0  0  0  0  0  0  0  0
   56.7893   32.7598   46.0452 H   0  0  0  0  0  0  0  0  0  0  0  0
   57.6116   32.4545   44.4428 H   0  0  0  0  0  0  0  0  0  0  0  0
   58.2335   31.6091   49.4322 H   0  0  0  0  0  0  0  0  0  0  0  0
   56.6826   30.3607   50.9298 H   0  0  0  0  0  0  0  0  0  0  0  0
   55.2000   28.6100   54.5170 H   0  0  0  0  0  0  0  0  0  0  0  0
   52.3404   29.8916   52.6543 H   0  0  0  0  0  0  0  0  0  0  0  0
   50.3222   28.5512   52.0537 H   0  0  0  0  0  0  0  0  0  0  0  0
   50.3186   26.0768   52.3854 H   0  0  0  0  0  0  0  0  0  0  0  0
   52.3391   24.9391   53.3094 H   0  0  0  0  0  0  0  0  0  0  0  0
   54.3656   26.2693   53.8932 H   0  0  0  0  0  0  0  0  0  0  0  0
  1  2  2  0
  2  3  1  0
  3  4  1  0
  4  5  2  0
  5  6  1  0
  6  7  2  0
  7  8  1  0
  8  9  1  0
  9 10  1  0
 10 11  2  3
 11 12  1  0
 12 13  1  0
 13 14  2  0
 13 15  1  0
 15 16  2  0
 16 17  1  0
 17 18  1  0
 18 19  1  0
 19 20  1  0
 20 21  1  0
 18 22  1  0
 22 23  1  0
 23 24  1  0
 17 25  2  0
 25 26  1  0
 26 27  1  0
 27 28  1  0
 28 29  1  0
 29 30  1  0
 30 31  1  0
 31 32  1  0
 26 33  2  0
 33 34  1  0
  7 35  1  0
 35 36  2  0
  2 37  1  0
 37 38  1  0
 38 39  2  0
 39 40  1  0
 40 41  2  0
 41 42  1  0
 42 43  2  0
 36  4  1  0
 43 38  1  0
 34 11  1  0
 33 15  1  0
 32 27  1  0
  5 44  1  0
  6 45  1  0
  8 46  1  0
  8 47  1  0
  9 48  1  0
  9 49  1  0
 19 50  1  0
 19 51  1  0
 20 52  1  0
 20 53  1  0
 21 54  1  0
 22 55  1  0
 22 56  1  0
 23 57  1  0
 23 58  1  0
 24 59  1  0
 28 60  1  0
 28 61  1  0
 29 62  1  0
 29 63  1  0
 31 64  1  0
 31 65  1  0
 32 66  1  0
 32 67  1  0
 35 68  1  0
 36 69  1  0
 37 70  1  0
 39 71  1  0
 40 72  1  0
 41 73  1  0
 42 74  1  0
 43 75  1  0
M  CHG  3   3  -1  12  -1  34  -1
M  END
>  <UniqueID>  (82) 
76

>  <SMILES>  (82) 
O=C([N-]c1ccc(CCN=c2[n-]c(=O)c3nc(N(CCO)CCO)nc(N4CCOCC4)c3[n-]2)cc1)Nc1ccccc1

>  <Energy>  (82) 
97.7732547670654

>  <Genealogy>  (82) 
O=C([N-]c1ccc(CCN=c2[n-]c(=O)c3nc(N(CCO)CCO)nc(N4CCOCC4)c3[n-]2)cc1)Nc1ccccc1 (protonated)
O=C([N-]c1ccc(CCN=c2[n-]c(=O)c3nc(N(CCO)CCO)nc(N4CCOCC4)c3[n-]2)cc1)Nc1ccccc1 (3D coordinates assigned)
O=C([N-]c1ccc(CCN=c2[n-]c(=O)c3nc(N(CCO)CCO)nc(N4CCOCC4)c3[n-]2)cc1)Nc1ccccc1 (nonaromatic ring conformer: 97.7732547670654 kcal/mol)

>  <smiles>  (82) 
O=C(Nc1ccccc1)Nc1ccc(CCN=c2[nH]c(=O)c3nc(N(CCO)CCO)nc(N4CCOCC4)c3[nH]2)cc1

>  <score_type>  (82) 
oracle

>  <origin>  (82) 
adg

>  <m_score__min__energy>  (82) 
-12.99

>  <m_primary>  (82) 
energy

$$$$
82:0
     RDKit          3D

 49 51  0  0  0  0  0  0  0  0999 V2000
   56.6340   20.7400   43.8030 C   0  0  0  0  0  0  0  0  0  0  0  0
   55.5340   21.5060   44.2860 O   0  0  0  0  0  0  0  0  0  0  0  0
   55.6200   22.8420   44.7080 C   0  0  0  0  0  0  0  0  0  0  0  0
   56.8270   23.5650   44.6590 C   0  0  0  0  0  0  0  0  0  0  0  0
   56.8710   24.8970   45.0790 C   0  0  0  0  0  0  0  0  0  0  0  0
   55.7040   25.5350   45.5370 C   0  0  0  0  0  0  0  0  0  0  0  0
   55.7060   26.8960   45.9950 N   0  0  0  0  0  0  0  0  0  0  0  0
   56.2740   28.0330   45.3310 C   0  0  0  0  0  0  0  0  0  0  0  0
   55.6150   29.0980   45.2050 O   0  0  0  0  0  0  0  0  0  0  0  0
   57.6890   27.9580   44.8210 C   0  0  0  0  0  0  0  0  0  0  0  0
   58.6050   28.9260   45.4670 N   0  0  0  0  0  0  0  0  0  0  0  0
   58.6780   28.7860   46.9350 C   0  0  0  0  0  0  0  0  0  0  0  0
   59.8870   29.5670   47.4610 C   0  0  0  0  0  0  0  0  0  0  0  0
   59.9980   30.8770   46.8020 N   0  0  0  0  0  0  0  0  0  0  0  0
   61.1500   31.7010   47.0680 C   0  0  0  0  0  0  0  0  0  0  0  0
   61.1660   33.0650   46.7250 C   0  0  0  0  0  0  0  0  0  0  0  0
   62.3080   33.8250   46.9820 C   0  0  0  0  0  0  0  0  0  0  0  0
   63.4280   33.2240   47.5580 C   0  0  0  0  0  0  0  0  0  0  0  0
   63.3910   31.8630   47.8660 C   0  0  0  0  0  0  0  0  0  0  0  0
   62.2670   31.1400   47.6150 N   0  0  0  0  0  0  0  0  0  0  0  0
   58.8540   31.3760   46.0250 C   0  0  0  0  0  0  0  0  0  0  0  0
   58.3990   30.3200   45.0010 C   0  0  0  0  0  0  0  0  0  0  0  0
   54.5100   24.8070   45.6090 C   0  0  0  0  0  0  0  0  0  0  0  0
   54.4580   23.4620   45.1940 C   0  0  0  0  0  0  0  0  0  0  0  0
   53.2720   22.7100   45.2510 O   0  0  0  0  0  0  0  0  0  0  0  0
   51.9940   23.2420   45.5850 C   0  0  0  0  0  0  0  0  0  0  0  0
   57.2056   20.3420   44.6544 H   0  0  0  0  0  0  0  0  0  0  0  0
   56.2596   19.9063   43.1909 H   0  0  0  0  0  0  0  0  0  0  0  0
   57.2861   21.3804   43.1909 H   0  0  0  0  0  0  0  0  0  0  0  0
   57.7410   23.0784   44.2878 H   0  0  0  0  0  0  0  0  0  0  0  0
   57.8221   25.4489   45.0514 H   0  0  0  0  0  0  0  0  0  0  0  0
   58.0710   26.9428   45.0037 H   0  0  0  0  0  0  0  0  0  0  0  0
   57.6592   28.2078   43.7502 H   0  0  0  0  0  0  0  0  0  0  0  0
   57.7582   29.1846   47.3879 H   0  0  0  0  0  0  0  0  0  0  0  0
   58.7842   27.7232   47.1980 H   0  0  0  0  0  0  0  0  0  0  0  0
   59.7733   29.7183   48.5446 H   0  0  0  0  0  0  0  0  0  0  0  0
   60.7975   28.9888   47.2451 H   0  0  0  0  0  0  0  0  0  0  0  0
   60.2850   33.5292   46.2577 H   0  0  0  0  0  0  0  0  0  0  0  0
   62.3252   34.8958   46.7310 H   0  0  0  0  0  0  0  0  0  0  0  0
   64.3308   33.8167   47.7672 H   0  0  0  0  0  0  0  0  0  0  0  0
   64.2707   31.3756   48.3116 H   0  0  0  0  0  0  0  0  0  0  0  0
   58.0218   31.6002   46.7085 H   0  0  0  0  0  0  0  0  0  0  0  0
   59.1576   32.2865   45.4876 H   0  0  0  0  0  0  0  0  0  0  0  0
   57.3274   30.4667   44.8004 H   0  0  0  0  0  0  0  0  0  0  0  0
   59.0113   30.4562   44.0974 H   0  0  0  0  0  0  0  0  0  0  0  0
   53.6010   25.2917   45.9946 H   0  0  0  0  0  0  0  0  0  0  0  0
   51.8895   23.2855   46.6792 H   0  0  0  0  0  0  0  0  0  0  0  0
   51.8978   24.2549   45.1669 H   0  0  0  0  0  0  0  0  0  0  0  0
   51.2075   22.5966   45.1669 H   0  0  0  0  0  0  0  0  0  0  0  0
  1  2  1  0
  2  3  1  0
  3  4  2  0
  4  5  1  0
  5  6  2  0
  6  7  1  0
  7  8  1  0
  8  9  2  0
  8 10  1  0
 10 11  1  0
 11 12  1  0
 12 13  1  0
 13 14  1  0
 14 15  1  0
 15 16  2  0
 16 17  1  0
 17 18  2  0
 18 19  1  0
 19 20  2  0
 14 21  1  0
 21 22  1  0
  6 23  1  0
 23 24  2  0
 24 25  1  0
 25 26  1  0
 24  3  1  0
 22 11  1  0
 20 15  1  0
  1 27  1  0
  1 28  1  0
  1 29  1  0
  4 30  1  0
  5 31  1  0
 10 32  1  0
 10 33  1  0
 12 34  1  0
 12 35  1  0
 13 36  1  0
 13 37  1  0
 16 38  1  0
 17 39  1  0
 18 40  1  0
 19 41  1  0
 21 42  1  0
 21 43  1  0
 22 44  1  0
 22 45  1  0
 23 46  1  0
 26 47  1  0
 26 48  1  0
 26 49  1  0
M  CHG  1   7  -1
M  END
>  <UniqueID>  (83) 
77

>  <SMILES>  (83) 
COc1ccc([N-]C(=O)CN2CCN(c3ccccn3)CC2)cc1OC

>  <Energy>  (83) 
65.09497464380465

>  <Genealogy>  (83) 
COc1ccc([N-]C(=O)CN2CCN(c3ccccn3)CC2)cc1OC (protonated)
COc1ccc([N-]C(=O)CN2CCN(c3ccccn3)CC2)cc1OC (3D coordinates assigned)
COc1ccc([N-]C(=O)CN2CCN(c3ccccn3)CC2)cc1OC (nonaromatic ring conformer: 65.09497464380465 kcal/mol)

>  <smiles>  (83) 
COc1ccc(NC(=O)CN2CCN(c3ccccn3)CC2)cc1OC

>  <score_type>  (83) 
oracle

>  <origin>  (83) 
adg

>  <m_score__min__energy>  (83) 
-9

>  <m_primary>  (83) 
energy

$$$$
83:0
     RDKit          3D

 45 47  0  0  0  0  0  0  0  0999 V2000
   55.1550   29.3350   44.8210 N   0  0  0  0  0  0  0  0  0  0  0  0
   56.6570   30.0120   44.3050 S   0  0  0  0  0  0  0  0  0  0  0  0
   56.6820   31.4790   44.6340 O   0  0  0  0  0  0  0  0  0  0  0  0
   56.7980   29.8510   42.8170 O   0  0  0  0  0  0  0  0  0  0  0  0
   57.9880   29.1930   45.1190 C   0  0  0  0  0  0  0  0  0  0  0  0
   58.3600   27.8980   44.7380 C   0  0  0  0  0  0  0  0  0  0  0  0
   59.4210   27.2540   45.3800 C   0  0  0  0  0  0  0  0  0  0  0  0
   60.1140   27.8980   46.4090 C   0  0  0  0  0  0  0  0  0  0  0  0
   59.7420   29.1950   46.8100 C   0  0  0  0  0  0  0  0  0  0  0  0
   60.4480   29.8850   47.8550 N   0  0  0  0  0  0  0  0  0  0  0  0
   59.8590   30.2380   49.1170 C   0  0  0  0  0  0  0  0  0  0  0  0
   58.6100   30.1730   49.2830 O   0  0  0  0  0  0  0  0  0  0  0  0
   60.7220   30.7210   50.2440 C   0  0  0  0  0  0  0  0  0  0  0  0
   61.9090   31.3960   49.7120 N   0  0  0  0  0  0  0  0  0  0  0  0
   61.7670   32.1620   48.6260 N   0  0  0  0  0  0  0  0  0  0  0  0
   62.8060   32.8400   48.0680 C   0  0  0  0  0  0  0  0  0  0  0  0
   62.5820   33.6720   46.8640 C   0  0  0  0  0  0  0  0  0  0  0  0
   63.4200   33.6450   45.9230 O   0  0  0  0  0  0  0  0  0  0  0  0
   61.4680   34.5720   46.7680 N   0  0  0  0  0  0  0  0  0  0  0  0
   60.0910   34.1990   46.6180 C   0  0  0  0  0  0  0  0  0  0  0  0
   59.4320   33.5890   47.6930 C   0  0  0  0  0  0  0  0  0  0  0  0
   58.0870   33.2240   47.5820 C   0  0  0  0  0  0  0  0  0  0  0  0
   57.3870   33.4800   46.4000 C   0  0  0  0  0  0  0  0  0  0  0  0
   58.0300   34.1130   45.3310 C   0  0  0  0  0  0  0  0  0  0  0  0
   59.3730   34.4840   45.4410 C   0  0  0  0  0  0  0  0  0  0  0  0
   64.0670   32.7550   48.6670 C   0  0  0  0  0  0  0  0  0  0  0  0
   64.2250   31.9750   49.8080 C   0  0  0  0  0  0  0  0  0  0  0  0
   63.1280   31.2920   50.3310 C   0  0  0  0  0  0  0  0  0  0  0  0
   63.2690   30.5910   51.3710 O   0  0  0  0  0  0  0  0  0  0  0  0
   58.6910   29.8440   46.1430 C   0  0  0  0  0  0  0  0  0  0  0  0
   55.1440   28.3390   44.5030 H   0  0  0  0  0  0  0  0  0  0  0  0
   57.8154   27.3861   43.9309 H   0  0  0  0  0  0  0  0  0  0  0  0
   59.7115   26.2379   45.0749 H   0  0  0  0  0  0  0  0  0  0  0  0
   60.9528   27.3896   46.9070 H   0  0  0  0  0  0  0  0  0  0  0  0
   61.4130   30.2320   47.6490 H   0  0  0  0  0  0  0  0  0  0  0  0
   60.1496   31.4259   50.8650 H   0  0  0  0  0  0  0  0  0  0  0  0
   61.0378   29.8602   50.8517 H   0  0  0  0  0  0  0  0  0  0  0  0
   59.9757   33.3961   48.6296 H   0  0  0  0  0  0  0  0  0  0  0  0
   57.5791   32.7347   48.4262 H   0  0  0  0  0  0  0  0  0  0  0  0
   56.3314   33.1841   46.3102 H   0  0  0  0  0  0  0  0  0  0  0  0
   57.4777   34.3191   44.4023 H   0  0  0  0  0  0  0  0  0  0  0  0
   59.8701   34.9998   44.6062 H   0  0  0  0  0  0  0  0  0  0  0  0
   64.9234   33.2983   48.2411 H   0  0  0  0  0  0  0  0  0  0  0  0
   65.2087   31.8977   50.2942 H   0  0  0  0  0  0  0  0  0  0  0  0
   58.4168   30.8711   46.4257 H   0  0  0  0  0  0  0  0  0  0  0  0
  1  2  1  0
  2  3  2  0
  2  4  2  0
  2  5  1  0
  5  6  2  0
  6  7  1  0
  7  8  2  0
  8  9  1  0
  9 10  1  0
 10 11  1  0
 11 12  2  0
 11 13  1  0
 13 14  1  0
 14 15  1  0
 15 16  2  0
 16 17  1  0
 17 18  2  0
 17 19  1  0
 19 20  1  0
 20 21  2  0
 21 22  1  0
 22 23  2  0
 23 24  1  0
 24 25  2  0
 16 26  1  0
 26 27  2  0
 27 28  1  0
 28 29  2  0
  9 30  2  0
 30  5  1  0
 28 14  1  0
 25 20  1  0
  1 31  1  0
  6 32  1  0
  7 33  1  0
  8 34  1  0
 10 35  1  0
 13 36  1  0
 13 37  1  0
 21 38  1  0
 22 39  1  0
 23 40  1  0
 24 41  1  0
 25 42  1  0
 26 43  1  0
 27 44  1  0
 30 45  1  0
M  CHG  2   1  -1  19  -1
M  END
>  <UniqueID>  (84) 
78

>  <SMILES>  (84) 
[NH-]S(=O)(=O)c1cccc(NC(=O)Cn2nc(C(=O)[N-]c3ccccc3)ccc2=O)c1

>  <Energy>  (84) 
56.18279935209159

>  <Genealogy>  (84) 
[NH-]S(=O)(=O)c1cccc(NC(=O)Cn2nc(C(=O)[N-]c3ccccc3)ccc2=O)c1 (protonated)
[NH-]S(=O)(=O)c1cccc(NC(=O)Cn2nc(C(=O)[N-]c3ccccc3)ccc2=O)c1 (3D coordinates assigned)
[NH-]S(=O)(=O)c1cccc(NC(=O)Cn2nc(C(=O)[N-]c3ccccc3)ccc2=O)c1 (optimized conformer: 56.18279935209159 kcal/mol)

>  <smiles>  (84) 
NS(=O)(=O)c1cccc(NC(=O)Cn2nc(C(=O)Nc3ccccc3)ccc2=O)c1

>  <score_type>  (84) 
oracle

>  <origin>  (84) 
adg

>  <m_score__min__energy>  (84) 
-12.69

>  <m_primary>  (84) 
energy

$$$$
84:0
     RDKit          3D

 43 46  0  0  0  0  0  0  0  0999 V2000
   65.7333   32.6597   49.4195 H   0  0  0  0  0  0  0  0  0  0  0  0
   64.7060   33.0350   49.3020 C   0  0  0  0  0  0  0  0  0  0  0  0
   63.9950   33.4870   50.4180 C   0  0  0  0  0  0  0  0  0  0  0  0
   64.4650   33.4712   51.4124 H   0  0  0  0  0  0  0  0  0  0  0  0
   62.6870   33.9590   50.2710 C   0  0  0  0  0  0  0  0  0  0  0  0
   62.1330   34.3194   51.1503 H   0  0  0  0  0  0  0  0  0  0  0  0
   62.0770   33.9750   49.0050 C   0  0  0  0  0  0  0  0  0  0  0  0
   60.6770   34.5000   48.8410 C   0  0  0  0  0  0  0  0  0  0  0  0
   60.7131   35.4845   48.3516 H   0  0  0  0  0  0  0  0  0  0  0  0
   60.2092   34.5904   49.8324 H   0  0  0  0  0  0  0  0  0  0  0  0
   59.8850   33.5810   48.0210 N   0  0  0  0  0  0  0  0  0  0  0  0
   59.1400   33.9130   46.9400 C   0  0  0  0  0  0  0  0  0  0  0  0
   59.0610   35.1970   46.4130 O   0  0  0  0  0  0  0  0  0  0  0  0
   58.4600   32.8120   46.4530 C   0  0  0  0  0  0  0  0  0  0  0  0
   57.5890   32.7940   45.3130 N   0  0  0  0  0  0  0  0  0  0  0  0
   56.9000   31.7850   44.9340 N   0  0  0  0  0  0  0  0  0  0  0  0
   57.3870   30.7040   44.1200 C   0  0  0  0  0  0  0  0  0  0  0  0
   57.7660   30.9540   42.9460 O   0  0  0  0  0  0  0  0  0  0  0  0
   57.4070   29.3050   44.6050 C   0  0  0  0  0  0  0  0  0  0  0  0
   58.6120   28.5810   44.5800 C   0  0  0  0  0  0  0  0  0  0  0  0
   59.5225   29.0495   44.1781 H   0  0  0  0  0  0  0  0  0  0  0  0
   58.6610   27.2710   45.0620 C   0  0  0  0  0  0  0  0  0  0  0  0
   59.6118   26.7178   45.0538 H   0  0  0  0  0  0  0  0  0  0  0  0
   57.5050   26.6630   45.5540 C   0  0  0  0  0  0  0  0  0  0  0  0
   57.5465   25.6315   45.9339 H   0  0  0  0  0  0  0  0  0  0  0  0
   56.2950   27.3620   45.5650 C   0  0  0  0  0  0  0  0  0  0  0  0
   55.1440   26.7430   46.0380 O   0  0  0  0  0  0  0  0  0  0  0  0
   56.2410   28.6800   45.0920 C   0  0  0  0  0  0  0  0  0  0  0  0
   55.0220   29.3520   45.0940 O   0  0  0  0  0  0  0  0  0  0  0  0
   58.8270   31.7500   47.2560 C   0  0  0  0  0  0  0  0  0  0  0  0
   58.4990   30.3950   47.2010 C   0  0  0  0  0  0  0  0  0  0  0  0
   57.8382   30.0027   46.4139 H   0  0  0  0  0  0  0  0  0  0  0  0
   59.0390   29.5480   48.1820 C   0  0  0  0  0  0  0  0  0  0  0  0
   58.7890   28.4768   48.1763 H   0  0  0  0  0  0  0  0  0  0  0  0
   59.9000   30.0610   49.1750 C   0  0  0  0  0  0  0  0  0  0  0  0
   60.3111   29.3875   49.9415 H   0  0  0  0  0  0  0  0  0  0  0  0
   60.2370   31.4260   49.1930 C   0  0  0  0  0  0  0  0  0  0  0  0
   60.9176   31.8306   49.9566 H   0  0  0  0  0  0  0  0  0  0  0  0
   59.6820   32.2550   48.2120 C   0  0  0  0  0  0  0  0  0  0  0  0
   62.8040   33.5330   47.8860 C   0  0  0  0  0  0  0  0  0  0  0  0
   62.3431   33.5591   46.8876 H   0  0  0  0  0  0  0  0  0  0  0  0
   64.1120   33.0600   48.0380 C   0  0  0  0  0  0  0  0  0  0  0  0
   64.6736   32.7072   47.1604 H   0  0  0  0  0  0  0  0  0  0  0  0
  1  2  1  0
  2  3  2  0
  3  4  1  0
  3  5  1  0
  5  6  1  0
  5  7  2  0
  7  8  1  0
  8  9  1  0
  8 10  1  0
  8 11  1  0
 11 12  1  0
 12 13  1  0
 12 14  2  0
 14 15  1  0
 15 16  2  0
 16 17  1  0
 17 18  2  0
 17 19  1  0
 19 20  2  0
 20 21  1  0
 20 22  1  0
 22 23  1  0
 22 24  2  0
 24 25  1  0
 24 26  1  0
 26 27  1  0
 26 28  2  0
 28 29  1  0
 14 30  1  0
 30 31  2  0
 31 32  1  0
 31 33  1  0
 33 34  1  0
 33 35  2  0
 35 36  1  0
 35 37  1  0
 37 38  1  0
 37 39  2  0
  7 40  1  0
 40 41  1  0
 40 42  2  0
 42 43  1  0
 42  2  1  0
 39 11  1  0
 28 19  1  0
 39 30  1  0
M  CHG  3  13  -1  27  -1  29  -1
M  END
>  <UniqueID>  (85) 
79

>  <SMILES>  (85) 
O=C(/N=N\c1c([O-])n(Cc2ccccc2)c2ccccc12)c1cccc([O-])c1[O-]

>  <Energy>  (85) 
94.59704004519112

>  <Genealogy>  (85) 
O=C(N=Nc1c([O-])n(Cc2ccccc2)c2ccccc12)c1cccc([O-])c1[O-] (protonated)
O=C(/N=N\c1c([O-])n(Cc2ccccc2)c2ccccc12)c1cccc([O-])c1[O-] (cis-trans isomerization)
O=C(/N=N\c1c([O-])n(Cc2ccccc2)c2ccccc12)c1cccc([O-])c1[O-] (3D coordinates assigned)
O=C(/N=N\c1c([O-])n(Cc2ccccc2)c2ccccc12)c1cccc([O-])c1[O-] (optimized conformer: 94.59704004519112 kcal/mol)

>  <smiles>  (85) 
O=C(N=Nc1c(O)n(Cc2ccccc2)c2ccccc12)c1cccc(O)c1O

>  <score_type>  (85) 
oracle

>  <origin>  (85) 
adg

>  <m_score__min__energy>  (85) 
-17.09

>  <m_primary>  (85) 
energy

$$$$
85:0
     RDKit          3D

 66 69  0  0  0  0  0  0  0  0999 V2000
   63.4050   32.6290   47.0410 C   0  0  0  0  0  0  0  0  0  0  0  0
   64.0340   33.4140   48.0460 O   0  0  0  0  0  0  0  0  0  0  0  0
   64.4260   32.9290   49.3040 C   0  0  0  0  0  0  0  0  0  0  0  0
   65.7610   32.9890   49.7470 C   0  0  0  0  0  0  0  0  0  0  0  0
   66.1060   32.5130   51.0140 C   0  0  0  0  0  0  0  0  0  0  0  0
   65.1260   31.9710   51.8490 C   0  0  0  0  0  0  0  0  0  0  0  0
   63.8010   31.8980   51.4160 C   0  0  0  0  0  0  0  0  0  0  0  0
   63.4490   32.3660   50.1430 C   0  0  0  0  0  0  0  0  0  0  0  0
   62.1000   32.2430   49.6960 N   0  0  0  0  0  0  0  0  0  0  0  0
   61.1030   33.6440   49.4970 S   0  0  0  0  0  0  0  0  0  0  0  0
   61.9800   34.8420   49.2640 O   0  0  0  0  0  0  0  0  0  0  0  0
   60.3010   33.8730   50.7500 O   0  0  0  0  0  0  0  0  0  0  0  0
   60.0190   33.4360   48.1230 C   0  0  0  0  0  0  0  0  0  0  0  0
   59.0340   32.4400   48.1520 C   0  0  0  0  0  0  0  0  0  0  0  0
   58.1770   32.2650   47.0610 C   0  0  0  0  0  0  0  0  0  0  0  0
   58.2920   33.0870   45.9290 C   0  0  0  0  0  0  0  0  0  0  0  0
   57.3490   32.9240   44.7620 C   0  0  0  0  0  0  0  0  0  0  0  0
   57.7560   31.7620   43.8430 C   0  0  0  0  0  0  0  0  0  0  0  0
   57.6430   30.4120   44.5000 C   0  0  0  0  0  0  0  0  0  0  0  0
   56.5490   30.0610   45.0260 O   0  0  0  0  0  0  0  0  0  0  0  0
   58.7650   29.5130   44.4870 N   0  0  0  0  0  0  0  0  0  0  0  0
   58.7560   28.2050   45.0810 C   0  0  0  0  0  0  0  0  0  0  0  0
   59.9320   27.6110   45.5720 C   0  0  0  0  0  0  0  0  0  0  0  0
   59.8940   26.3320   46.1340 C   0  0  0  0  0  0  0  0  0  0  0  0
   58.6840   25.6390   46.2210 C   0  0  0  0  0  0  0  0  0  0  0  0
   57.4980   26.2310   45.7670 C   0  0  0  0  0  0  0  0  0  0  0  0
   55.9680   25.3560   45.8810 S   0  0  0  0  0  0  0  0  0  0  0  0
   55.9760   24.4980   47.1150 O   0  0  0  0  0  0  0  0  0  0  0  0
   54.8430   26.3450   46.0120 O   0  0  0  0  0  0  0  0  0  0  0  0
   55.6930   24.3490   44.4790 N   0  0  0  0  0  0  0  0  0  0  0  0
   54.7880   23.2180   44.7850 C   0  0  0  0  0  0  0  0  0  0  0  0
   55.5460   21.8800   44.8760 C   0  0  0  0  0  0  0  0  0  0  0  0
   56.2470   21.5530   43.6850 O   0  0  0  0  0  0  0  0  0  0  0  0
   56.7780   22.6840   43.0020 C   0  0  0  0  0  0  0  0  0  0  0  0
   56.9770   23.9220   43.8910 C   0  0  0  0  0  0  0  0  0  0  0  0
   57.5390   27.5180   45.2120 C   0  0  0  0  0  0  0  0  0  0  0  0
   59.2980   34.0660   45.8920 C   0  0  0  0  0  0  0  0  0  0  0  0
   60.1560   34.2390   46.9830 C   0  0  0  0  0  0  0  0  0  0  0  0
   62.7845   31.8546   47.5155 H   0  0  0  0  0  0  0  0  0  0  0  0
   62.7711   33.2742   46.4150 H   0  0  0  0  0  0  0  0  0  0  0  0
   64.1729   32.1510   46.4150 H   0  0  0  0  0  0  0  0  0  0  0  0
   66.5364   33.4129   49.0919 H   0  0  0  0  0  0  0  0  0  0  0  0
   67.1506   32.5650   51.3547 H   0  0  0  0  0  0  0  0  0  0  0  0
   65.3987   31.6014   52.8485 H   0  0  0  0  0  0  0  0  0  0  0  0
   63.0310   31.4719   52.0760 H   0  0  0  0  0  0  0  0  0  0  0  0
   58.9345   31.7933   49.0363 H   0  0  0  0  0  0  0  0  0  0  0  0
   57.4083   31.4787   47.0900 H   0  0  0  0  0  0  0  0  0  0  0  0
   56.3373   32.7319   45.1486 H   0  0  0  0  0  0  0  0  0  0  0  0
   57.3828   33.8501   44.1694 H   0  0  0  0  0  0  0  0  0  0  0  0
   57.1047   31.7740   42.9566 H   0  0  0  0  0  0  0  0  0  0  0  0
   58.8147   31.9090   43.5832 H   0  0  0  0  0  0  0  0  0  0  0  0
   59.6810   29.8830   44.1450 H   0  0  0  0  0  0  0  0  0  0  0  0
   60.8861   28.1553   45.5135 H   0  0  0  0  0  0  0  0  0  0  0  0
   60.8191   25.8698   46.5088 H   0  0  0  0  0  0  0  0  0  0  0  0
   58.6623   24.6252   46.6474 H   0  0  0  0  0  0  0  0  0  0  0  0
   54.2915   23.4109   45.7474 H   0  0  0  0  0  0  0  0  0  0  0  0
   54.0557   23.1385   43.9681 H   0  0  0  0  0  0  0  0  0  0  0  0
   56.2700   21.9436   45.7017 H   0  0  0  0  0  0  0  0  0  0  0  0
   54.7981   21.0908   45.0427 H   0  0  0  0  0  0  0  0  0  0  0  0
   57.7534   22.4039   42.5777 H   0  0  0  0  0  0  0  0  0  0  0  0
   56.0423   22.9625   42.2331 H   0  0  0  0  0  0  0  0  0  0  0  0
   57.6816   23.6774   44.6995 H   0  0  0  0  0  0  0  0  0  0  0  0
   57.3756   24.7415   43.2749 H   0  0  0  0  0  0  0  0  0  0  0  0
   56.6066   27.9948   44.8754 H   0  0  0  0  0  0  0  0  0  0  0  0
   59.4119   34.7001   45.0004 H   0  0  0  0  0  0  0  0  0  0  0  0
   60.9413   35.0084   46.9459 H   0  0  0  0  0  0  0  0  0  0  0  0
  1  2  1  0
  2  3  1  0
  3  4  2  0
  4  5  1  0
  5  6  2  0
  6  7  1  0
  7  8  2  0
  8  9  1  0
  9 10  1  0
 10 11  2  0
 10 12  2  0
 10 13  1  0
 13 14  2  0
 14 15  1  0
 15 16  2  0
 16 17  1  0
 17 18  1  0
 18 19  1  0
 19 20  2  0
 19 21  1  0
 21 22  1  0
 22 23  2  0
 23 24  1  0
 24 25  2  0
 25 26  1  0
 26 27  1  0
 27 28  2  0
 27 29  2  0
 27 30  1  0
 30 31  1  0
 31 32  1  0
 32 33  1  0
 33 34  1  0
 34 35  1  0
 26 36  2  0
 16 37  1  0
 37 38  2  0
  8  3  1  0
 38 13  1  0
 36 22  1  0
 35 30  1  0
  1 39  1  0
  1 40  1  0
  1 41  1  0
  4 42  1  0
  5 43  1  0
  6 44  1  0
  7 45  1  0
 14 46  1  0
 15 47  1  0
 17 48  1  0
 17 49  1  0
 18 50  1  0
 18 51  1  0
 21 52  1  0
 23 53  1  0
 24 54  1  0
 25 55  1  0
 31 56  1  0
 31 57  1  0
 32 58  1  0
 32 59  1  0
 34 60  1  0
 34 61  1  0
 35 62  1  0
 35 63  1  0
 36 64  1  0
 37 65  1  0
 38 66  1  0
M  CHG  1   9  -1
M  END
>  <UniqueID>  (86) 
80

>  <SMILES>  (86) 
COc1ccccc1[N-]S(=O)(=O)c1ccc(CCC(=O)Nc2cccc(S(=O)(=O)N3CCOCC3)c2)cc1

>  <Energy>  (86) 
84.97036895399611

>  <Genealogy>  (86) 
COc1ccccc1[N-]S(=O)(=O)c1ccc(CCC(=O)Nc2cccc(S(=O)(=O)N3CCOCC3)c2)cc1 (protonated)
COc1ccccc1[N-]S(=O)(=O)c1ccc(CCC(=O)Nc2cccc(S(=O)(=O)N3CCOCC3)c2)cc1 (3D coordinates assigned)
COc1ccccc1[N-]S(=O)(=O)c1ccc(CCC(=O)Nc2cccc(S(=O)(=O)N3CCOCC3)c2)cc1 (nonaromatic ring conformer: 84.97036895399611 kcal/mol)

>  <smiles>  (86) 
COc1ccccc1NS(=O)(=O)c1ccc(CCC(=O)Nc2cccc(S(=O)(=O)N3CCOCC3)c2)cc1

>  <score_type>  (86) 
oracle

>  <origin>  (86) 
adg

>  <m_score__min__energy>  (86) 
-12.25

>  <m_primary>  (86) 
energy

$$$$
86:0
     RDKit          3D

 59 62  0  0  0  0  0  0  0  0999 V2000
   58.8660   32.4480   50.6760 C   0  0  0  0  0  0  0  0  0  0  0  0
   59.1580   31.3450   49.7030 C   0  0  0  0  0  0  0  0  0  0  0  0
   58.8450   31.5000   48.3460 C   0  0  0  0  0  0  0  0  0  0  0  0
   59.1810   30.5040   47.4250 C   0  0  0  0  0  0  0  0  0  0  0  0
   59.8110   29.3240   47.8510 C   0  0  0  0  0  0  0  0  0  0  0  0
   60.2160   28.2820   46.8330 C   0  0  0  0  0  0  0  0  0  0  0  0
   59.0700   27.4410   46.4140 N   0  0  0  0  0  0  0  0  0  0  0  0
   58.3970   27.6650   45.2310 C   0  0  0  0  0  0  0  0  0  0  0  0
   58.8050   29.0380   44.1240 S   0  0  0  0  0  0  0  0  0  0  0  0
   57.1140   29.2730   43.4680 C   0  0  0  0  0  0  0  0  0  0  0  0
   56.2380   29.8880   44.5120 C   0  0  0  0  0  0  0  0  0  0  0  0
   55.1590   29.3230   44.8340 O   0  0  0  0  0  0  0  0  0  0  0  0
   56.6750   31.0630   45.2040 N   0  0  0  0  0  0  0  0  0  0  0  0
   57.3310   32.1820   44.5960 C   0  0  0  0  0  0  0  0  0  0  0  0
   57.9020   32.0150   43.4830 O   0  0  0  0  0  0  0  0  0  0  0  0
   57.3390   33.5400   45.2560 C   0  0  0  0  0  0  0  0  0  0  0  0
   58.6500   34.2980   45.0060 C   0  0  0  0  0  0  0  0  0  0  0  0
   59.5740   34.1930   46.1910 C   0  0  0  0  0  0  0  0  0  0  0  0
   59.1820   34.7010   47.4420 C   0  0  0  0  0  0  0  0  0  0  0  0
   60.0340   34.5910   48.5450 C   0  0  0  0  0  0  0  0  0  0  0  0
   61.2810   33.9750   48.4100 C   0  0  0  0  0  0  0  0  0  0  0  0
   61.6820   33.4740   47.1670 C   0  0  0  0  0  0  0  0  0  0  0  0
   60.8370   33.5900   46.0580 C   0  0  0  0  0  0  0  0  0  0  0  0
   57.3520   26.8700   44.8750 N   0  0  0  0  0  0  0  0  0  0  0  0
   56.9430   25.8380   45.6570 C   0  0  0  0  0  0  0  0  0  0  0  0
   55.8690   25.0250   45.2600 C   0  0  0  0  0  0  0  0  0  0  0  0
   55.4500   23.9670   46.0720 C   0  0  0  0  0  0  0  0  0  0  0  0
   56.0970   23.7160   47.2830 C   0  0  0  0  0  0  0  0  0  0  0  0
   57.1660   24.5200   47.6880 C   0  0  0  0  0  0  0  0  0  0  0  0
   57.5980   25.5870   46.8760 C   0  0  0  0  0  0  0  0  0  0  0  0
   58.6670   26.4190   47.2400 C   0  0  0  0  0  0  0  0  0  0  0  0
   59.2600   26.2210   48.3390 O   0  0  0  0  0  0  0  0  0  0  0  0
   60.1250   29.1730   49.2130 C   0  0  0  0  0  0  0  0  0  0  0  0
   59.8100   30.1800   50.1290 C   0  0  0  0  0  0  0  0  0  0  0  0
   58.9668   32.0672   51.7030 H   0  0  0  0  0  0  0  0  0  0  0  0
   59.5767   33.2728   50.5194 H   0  0  0  0  0  0  0  0  0  0  0  0
   57.8403   32.8131   50.5194 H   0  0  0  0  0  0  0  0  0  0  0  0
   58.3319   32.4108   48.0037 H   0  0  0  0  0  0  0  0  0  0  0  0
   58.9502   30.6456   46.3589 H   0  0  0  0  0  0  0  0  0  0  0  0
   60.6258   28.7906   45.9479 H   0  0  0  0  0  0  0  0  0  0  0  0
   60.9668   27.6262   47.2980 H   0  0  0  0  0  0  0  0  0  0  0  0
   57.1531   29.9347   42.5902 H   0  0  0  0  0  0  0  0  0  0  0  0
   56.7001   28.2949   43.1817 H   0  0  0  0  0  0  0  0  0  0  0  0
   56.5044   34.1338   44.8549 H   0  0  0  0  0  0  0  0  0  0  0  0
   57.2376   33.3890   46.3409 H   0  0  0  0  0  0  0  0  0  0  0  0
   59.1486   33.8712   44.1232 H   0  0  0  0  0  0  0  0  0  0  0  0
   58.4129   35.3595   44.8420 H   0  0  0  0  0  0  0  0  0  0  0  0
   58.2014   35.1868   47.5533 H   0  0  0  0  0  0  0  0  0  0  0  0
   59.7220   34.9903   49.5213 H   0  0  0  0  0  0  0  0  0  0  0  0
   61.9470   33.8841   49.2808 H   0  0  0  0  0  0  0  0  0  0  0  0
   62.6632   32.9881   47.0614 H   0  0  0  0  0  0  0  0  0  0  0  0
   61.1619   33.2082   45.0789 H   0  0  0  0  0  0  0  0  0  0  0  0
   56.8560   27.0630   43.9740 H   0  0  0  0  0  0  0  0  0  0  0  0
   55.3558   25.2213   44.3071 H   0  0  0  0  0  0  0  0  0  0  0  0
   54.6095   23.3316   45.7562 H   0  0  0  0  0  0  0  0  0  0  0  0
   55.7647   22.8833   47.9203 H   0  0  0  0  0  0  0  0  0  0  0  0
   57.6717   24.3190   48.6440 H   0  0  0  0  0  0  0  0  0  0  0  0
   60.6223   28.2553   49.5601 H   0  0  0  0  0  0  0  0  0  0  0  0
   60.0751   30.0577   51.1896 H   0  0  0  0  0  0  0  0  0  0  0  0
  1  2  1  0
  2  3  2  0
  3  4  1  0
  4  5  2  0
  5  6  1  0
  6  7  1  0
  7  8  1  0
  8  9  1  0
  9 10  1  0
 10 11  1  0
 11 12  2  0
 11 13  1  0
 13 14  1  0
 14 15  2  0
 14 16  1  0
 16 17  1  0
 17 18  1  0
 18 19  2  0
 19 20  1  0
 20 21  2  0
 21 22  1  0
 22 23  2  0
  8 24  2  0
 24 25  1  0
 25 26  2  0
 26 27  1  0
 27 28  2  0
 28 29  1  0
 29 30  2  0
 30 31  1  0
 31 32  2  0
  5 33  1  0
 33 34  2  0
 34  2  1  0
 31  7  1  0
 23 18  1  0
 30 25  1  0
  1 35  1  0
  1 36  1  0
  1 37  1  0
  3 38  1  0
  4 39  1  0
  6 40  1  0
  6 41  1  0
 10 42  1  0
 10 43  1  0
 16 44  1  0
 16 45  1  0
 17 46  1  0
 17 47  1  0
 19 48  1  0
 20 49  1  0
 21 50  1  0
 22 51  1  0
 23 52  1  0
 24 53  1  0
 26 54  1  0
 27 55  1  0
 28 56  1  0
 29 57  1  0
 33 58  1  0
 34 59  1  0
M  CHG  2  13  -1  24   1
M  END
>  <UniqueID>  (87) 
81

>  <SMILES>  (87) 
Cc1ccc(Cn2c(SCC(=O)[N-]C(=O)CCc3ccccc3)[nH+]c3ccccc3c2=O)cc1

>  <Energy>  (87) 
62.83930183826469

>  <Genealogy>  (87) 
Cc1ccc(Cn2c(SCC(=O)[N-]C(=O)CCc3ccccc3)[nH+]c3ccccc3c2=O)cc1 (protonated)
Cc1ccc(Cn2c(SCC(=O)[N-]C(=O)CCc3ccccc3)[nH+]c3ccccc3c2=O)cc1 (3D coordinates assigned)
Cc1ccc(Cn2c(SCC(=O)[N-]C(=O)CCc3ccccc3)[nH+]c3ccccc3c2=O)cc1 (optimized conformer: 62.83930183826469 kcal/mol)

>  <smiles>  (87) 
Cc1ccc(Cn2c(SCC(=O)NC(=O)CCc3ccccc3)nc3ccccc3c2=O)cc1

>  <score_type>  (87) 
oracle

>  <origin>  (87) 
adg

>  <m_score__min__energy>  (87) 
-10.390000000000001

>  <m_primary>  (87) 
energy

$$$$
87:0
     RDKit          3D

 36 38  0  0  0  0  0  0  0  0999 V2000
   59.3365   30.5475   43.6618 H   0  0  0  0  0  0  0  0  0  0  0  0
   58.6210   30.6410   44.4920 C   0  0  0  0  0  0  0  0  0  0  0  0
   58.0110   29.5260   44.9260 C   0  0  0  0  0  0  0  0  0  0  0  0
   58.8610   28.0460   45.5100 S   0  0  0  0  0  0  0  0  0  0  0  0
   57.2550   27.2550   45.6710 C   0  0  0  0  0  0  0  0  0  0  0  0
   57.0600   25.9020   46.5670 S   0  0  0  0  0  0  0  0  0  0  0  0
   56.1420   28.0480   45.2840 N   0  0  0  0  0  0  0  0  0  0  0  0
   55.1430   27.7540   45.3680 H   0  0  0  0  0  0  0  0  0  0  0  0
   56.5650   29.3280   44.8570 C   0  0  0  0  0  0  0  0  0  0  0  0
   55.7500   30.2070   44.4670 O   0  0  0  0  0  0  0  0  0  0  0  0
   58.3910   31.9850   45.0600 C   0  0  0  0  0  0  0  0  0  0  0  0
   57.1670   32.6550   44.8890 C   0  0  0  0  0  0  0  0  0  0  0  0
   56.3475   32.1681   44.3400 H   0  0  0  0  0  0  0  0  0  0  0  0
   56.9880   33.9370   45.4140 C   0  0  0  0  0  0  0  0  0  0  0  0
   56.0207   34.4474   45.2962 H   0  0  0  0  0  0  0  0  0  0  0  0
   58.0330   34.5730   46.0880 C   0  0  0  0  0  0  0  0  0  0  0  0
   57.8810   35.5750   46.5156 H   0  0  0  0  0  0  0  0  0  0  0  0
   59.2790   33.9350   46.2210 C   0  0  0  0  0  0  0  0  0  0  0  0
   60.3530   34.5360   46.8940 O   0  0  0  0  0  0  0  0  0  0  0  0
   61.4120   33.8530   47.5110 C   0  0  0  0  0  0  0  0  0  0  0  0
   62.6240   33.7330   46.8250 C   0  0  0  0  0  0  0  0  0  0  0  0
   62.7253   34.1618   45.8171 H   0  0  0  0  0  0  0  0  0  0  0  0
   63.7090   33.0720   47.4100 C   0  0  0  0  0  0  0  0  0  0  0  0
   64.6541   32.9735   46.8559 H   0  0  0  0  0  0  0  0  0  0  0  0
   63.5960   32.5320   48.7060 C   0  0  0  0  0  0  0  0  0  0  0  0
   64.6520   31.8600   49.3370 O   0  0  0  0  0  0  0  0  0  0  0  0
   65.6610   32.4990   50.1140 C   0  0  0  0  0  0  0  0  0  0  0  0
   65.4429   32.3609   51.1833 H   0  0  0  0  0  0  0  0  0  0  0  0
   66.6401   32.0560   49.8793 H   0  0  0  0  0  0  0  0  0  0  0  0
   65.6790   33.5735   49.8793 H   0  0  0  0  0  0  0  0  0  0  0  0
   62.3870   32.6720   49.3980 C   0  0  0  0  0  0  0  0  0  0  0  0
   62.2892   32.2591   50.4128 H   0  0  0  0  0  0  0  0  0  0  0  0
   61.3040   33.3310   48.8120 C   0  0  0  0  0  0  0  0  0  0  0  0
   60.3629   33.4421   49.3705 H   0  0  0  0  0  0  0  0  0  0  0  0
   59.4470   32.6410   45.7120 C   0  0  0  0  0  0  0  0  0  0  0  0
   60.4165   32.1335   45.8243 H   0  0  0  0  0  0  0  0  0  0  0  0
  1  2  1  0
  2  3  2  0
  3  4  1  0
  4  5  1  0
  5  6  2  0
  5  7  1  0
  7  8  1  0
  7  9  1  0
  9 10  2  0
  2 11  1  0
 11 12  2  0
 12 13  1  0
 12 14  1  0
 14 15  1  0
 14 16  2  0
 16 17  1  0
 16 18  1  0
 18 19  1  0
 19 20  1  0
 20 21  2  0
 21 22  1  0
 21 23  1  0
 23 24  1  0
 23 25  2  0
 25 26  1  0
 26 27  1  0
 27 28  1  0
 27 29  1  0
 27 30  1  0
 25 31  1  0
 31 32  1  0
 31 33  2  0
 33 34  1  0
 18 35  2  0
 35 36  1  0
  9  3  1  0
 35 11  1  0
 33 20  1  0
M  END
>  <UniqueID>  (88) 
82

>  <SMILES>  (88) 
COc1ccc(Oc2cccc(/C=C3\SC(=S)NC3=O)c2)cc1

>  <Energy>  (88) 
68.3650456391841

>  <Genealogy>  (88) 
COc1ccc(Oc2cccc(/C=C3\SC(=S)NC3=O)c2)cc1 (cis-trans isomerization)
COc1ccc(Oc2cccc(/C=C3\SC(=S)NC3=O)c2)cc1 (3D coordinates assigned)
COc1ccc(Oc2cccc(/C=C3\SC(=S)NC3=O)c2)cc1 (nonaromatic ring conformer: 68.3650456391841 kcal/mol)

>  <smiles>  (88) 
COc1ccc(Oc2cccc(C=C3SC(=S)NC3=O)c2)cc1

>  <score_type>  (88) 
oracle

>  <origin>  (88) 
adg

>  <m_score__min__energy>  (88) 
-8.4499999999999993

>  <m_primary>  (88) 
energy

$$$$
88:0
     RDKit          3D

 22 23  0  0  0  0  0  0  0  0999 V2000
   55.1440   26.3880   46.0160 N   0  0  0  0  0  0  0  0  0  0  0  0
   56.8410   26.7020   45.9160 S   0  0  0  0  0  0  0  0  0  0  0  0
   57.4330   26.6920   47.2970 O   0  0  0  0  0  0  0  0  0  0  0  0
   57.4840   25.6230   45.0890 O   0  0  0  0  0  0  0  0  0  0  0  0
   57.1170   28.2730   45.1720 C   0  0  0  0  0  0  0  0  0  0  0  0
   58.4250   28.7140   44.9270 C   0  0  0  0  0  0  0  0  0  0  0  0
   58.6470   29.9580   44.3300 C   0  0  0  0  0  0  0  0  0  0  0  0
   57.5640   30.7690   43.9730 C   0  0  0  0  0  0  0  0  0  0  0  0
   57.8500   32.3660   43.2100 S   0  0  0  0  0  0  0  0  0  0  0  0
   58.0500   33.1790   44.7900 C   0  0  0  0  0  0  0  0  0  0  0  0
   57.3510   32.8470   45.8910 N   0  0  0  0  0  0  0  0  0  0  0  0
   57.7660   33.6480   46.8570 N   0  0  0  0  0  0  0  0  0  0  0  0
   58.7020   34.4390   46.3060 C   0  0  0  0  0  0  0  0  0  0  0  0
   59.3160   35.3310   46.9480 O   0  0  0  0  0  0  0  0  0  0  0  0
   58.9210   34.1860   45.0030 N   0  0  0  0  0  0  0  0  0  0  0  0
   56.2560   30.3280   44.2060 C   0  0  0  0  0  0  0  0  0  0  0  0
   56.0330   29.0820   44.8030 C   0  0  0  0  0  0  0  0  0  0  0  0
   54.7420   27.0900   46.6790 H   0  0  0  0  0  0  0  0  0  0  0  0
   59.2790   28.0791   45.2054 H   0  0  0  0  0  0  0  0  0  0  0  0
   59.6751   30.3003   44.1404 H   0  0  0  0  0  0  0  0  0  0  0  0
   55.4032   30.9610   43.9198 H   0  0  0  0  0  0  0  0  0  0  0  0
   55.0044   28.7364   44.9832 H   0  0  0  0  0  0  0  0  0  0  0  0
  1  2  1  0
  2  3  2  0
  2  4  2  0
  2  5  1  0
  5  6  2  0
  6  7  1  0
  7  8  2  0
  8  9  1  0
  9 10  1  0
 10 11  2  0
 11 12  1  0
 12 13  1  0
 13 14  2  0
 13 15  1  0
  8 16  1  0
 16 17  2  0
 17  5  1  0
 15 10  1  0
  1 18  1  0
  6 19  1  0
  7 20  1  0
 16 21  1  0
 17 22  1  0
M  CHG  3   1  -1  12  -1  15  -1
M  END
>  <UniqueID>  (89) 
83

>  <SMILES>  (89) 
[NH-]S(=O)(=O)c1ccc(Sc2n[n-]c(=O)[n-]2)cc1

>  <Energy>  (89) 
50.913804620854386

>  <Genealogy>  (89) 
[NH-]S(=O)(=O)c1ccc(Sc2n[n-]c(=O)[n-]2)cc1 (protonated)
[NH-]S(=O)(=O)c1ccc(Sc2n[n-]c(=O)[n-]2)cc1 (3D coordinates assigned)
[NH-]S(=O)(=O)c1ccc(Sc2n[n-]c(=O)[n-]2)cc1 (optimized conformer: 50.913804620854386 kcal/mol)

>  <smiles>  (89) 
NS(=O)(=O)c1ccc(Sc2n[nH]c(=O)[nH]2)cc1

>  <score_type>  (89) 
oracle

>  <origin>  (89) 
adg

>  <m_score__min__energy>  (89) 
-11.26

>  <m_primary>  (89) 
energy

$$$$
89:0
     RDKit          3D

 35 39  0  0  0  0  0  0  0  0999 V2000
   55.5190   28.2100   45.2480 O   0  0  0  0  0  0  0  0  0  0  0  0
   56.2800   29.2430   44.7160 C   0  0  0  0  0  0  0  0  0  0  0  0
   55.9390   29.7950   43.4770 C   0  0  0  0  0  0  0  0  0  0  0  0
   56.7040   30.8330   42.9400 C   0  0  0  0  0  0  0  0  0  0  0  0
   57.8090   31.3240   43.6390 C   0  0  0  0  0  0  0  0  0  0  0  0
   58.1620   30.7780   44.8880 C   0  0  0  0  0  0  0  0  0  0  0  0
   59.3590   31.3040   45.6510 C   0  0  2  0  0  0  0  0  0  0  0  0
   59.5980   30.4710   46.9100 C   0  0  0  0  0  0  0  0  0  0  0  0
   59.9540   29.1090   46.7690 C   0  0  0  0  0  0  0  0  0  0  0  0
   60.1370   28.3520   47.9210 C   0  0  0  0  0  0  0  0  0  0  0  0
   59.9880   28.8780   49.1610 C   0  0  0  0  0  0  0  0  0  0  0  0
   59.6460   30.2110   49.3640 C   0  0  0  0  0  0  0  0  0  0  0  0
   59.4510   31.0260   48.2300 C   0  0  0  0  0  0  0  0  0  0  0  0
   59.1300   32.4170   48.4060 N   0  0  0  0  0  0  0  0  0  0  0  0
   59.0220   33.2370   47.2490 C   0  0  0  0  0  0  0  0  0  0  0  0
   58.8070   34.5960   47.1700 C   0  0  0  0  0  0  0  0  0  0  0  0
   58.7990   34.9390   45.8950 O   0  0  0  0  0  0  0  0  0  0  0  0
   59.0010   33.8570   45.1680 C   0  0  0  0  0  0  0  0  0  0  0  0
   59.0450   33.8490   43.7800 O   0  0  0  0  0  0  0  0  0  0  0  0
   59.1530   32.7550   45.9830 C   0  0  0  0  0  0  0  0  0  0  0  0
   60.2280   27.9010   50.1070 O   0  0  0  0  0  0  0  0  0  0  0  0
   60.5460   26.6840   49.4170 C   0  0  0  0  0  0  0  0  0  0  0  0
   60.4770   27.0170   48.0250 O   0  0  0  0  0  0  0  0  0  0  0  0
   57.3860   29.7320   45.4190 C   0  0  0  0  0  0  0  0  0  0  0  0
   55.0681   29.4116   42.9252 H   0  0  0  0  0  0  0  0  0  0  0  0
   56.4356   31.2647   41.9645 H   0  0  0  0  0  0  0  0  0  0  0  0
   58.4071   32.1421   43.2113 H   0  0  0  0  0  0  0  0  0  0  0  0
   60.2571   31.2189   45.0216 H   0  0  0  0  0  0  0  0  0  0  0  0
   60.0828   28.6601   45.7730 H   0  0  0  0  0  0  0  0  0  0  0  0
   59.5310   30.6175   50.3797 H   0  0  0  0  0  0  0  0  0  0  0  0
   59.0180   32.8320   49.3580 H   0  0  0  0  0  0  0  0  0  0  0  0
   58.6663   35.2773   48.0221 H   0  0  0  0  0  0  0  0  0  0  0  0
   61.5571   26.3419   49.6829 H   0  0  0  0  0  0  0  0  0  0  0  0
   59.8574   25.8678   49.6808 H   0  0  0  0  0  0  0  0  0  0  0  0
   57.6506   29.2957   46.3935 H   0  0  0  0  0  0  0  0  0  0  0  0
  1  2  1  0
  2  3  2  0
  3  4  1  0
  4  5  2  0
  5  6  1  0
  6  7  1  0
  7  8  1  0
  8  9  2  0
  9 10  1  0
 10 11  2  0
 11 12  1  0
 12 13  2  0
 13 14  1  0
 14 15  1  0
 15 16  2  0
 16 17  1  0
 17 18  1  0
 18 19  1  0
 18 20  2  0
 11 21  1  0
 21 22  1  0
 22 23  1  0
  6 24  2  0
 24  2  1  0
 20  7  1  0
 13  8  1  0
 20 15  1  0
 23 10  1  0
  3 25  1  0
  4 26  1  0
  5 27  1  0
  7 28  1  6
  9 29  1  0
 12 30  1  0
 14 31  1  0
 16 32  1  0
 22 33  1  0
 22 34  1  0
 24 35  1  0
M  CHG  2   1  -1  19  -1
M  END
>  <UniqueID>  (90) 
84

>  <SMILES>  (90) 
[O-]c1cccc([C@@H]2c3cc4c(cc3Nc3coc([O-])c32)OCO4)c1

>  <Energy>  (90) 
102.67791161808363

>  <Genealogy>  (90) 
[O-]c1cccc(C2c3cc4c(cc3Nc3coc([O-])c32)OCO4)c1 (protonated)
[O-]c1cccc([C@@H]2c3cc4c(cc3Nc3coc([O-])c32)OCO4)c1 (chirality)
[O-]c1cccc([C@@H]2c3cc4c(cc3Nc3coc([O-])c32)OCO4)c1 (3D coordinates assigned)
[O-]c1cccc([C@@H]2c3cc4c(cc3Nc3coc([O-])c32)OCO4)c1 (nonaromatic ring conformer: 102.67791161808363 kcal/mol)

>  <smiles>  (90) 
Oc1cccc(C2c3cc4c(cc3Nc3coc(O)c32)OCO4)c1

>  <score_type>  (90) 
oracle

>  <origin>  (90) 
adg

>  <m_score__min__energy>  (90) 
-11.369999999999999

>  <m_primary>  (90) 
energy

$$$$
90:0
     RDKit          3D

 33 34  0  0  0  0  0  0  0  0999 V2000
   55.1700   29.3540   44.4840 N   0  0  0  0  0  0  0  0  0  0  0  0
   56.6360   29.8250   43.6980 S   0  0  0  0  0  0  0  0  0  0  0  0
   57.4260   28.5980   43.3380 O   0  0  0  0  0  0  0  0  0  0  0  0
   56.3110   30.5770   42.4380 O   0  0  0  0  0  0  0  0  0  0  0  0
   57.5820   30.8440   44.7780 C   0  0  0  0  0  0  0  0  0  0  0  0
   57.8000   32.1920   44.4680 C   0  0  0  0  0  0  0  0  0  0  0  0
   58.5380   33.0010   45.3360 C   0  0  0  0  0  0  0  0  0  0  0  0
   59.0680   32.4660   46.5130 C   0  0  0  0  0  0  0  0  0  0  0  0
   58.8710   31.1170   46.8270 C   0  0  0  0  0  0  0  0  0  0  0  0
   59.4220   30.6000   48.0470 N   0  0  0  0  0  0  0  0  0  0  0  0
   59.1790   29.2990   48.6010 C   0  0  0  0  0  0  0  0  0  0  0  0
   59.0170   29.1930   49.8460 O   0  0  0  0  0  0  0  0  0  0  0  0
   59.1580   28.0790   47.7600 C   0  0  0  0  0  0  0  0  0  0  0  0
   60.3480   27.5460   47.2350 C   0  0  0  0  0  0  0  0  0  0  0  0
   60.3170   26.4070   46.4270 C   0  0  0  0  0  0  0  0  0  0  0  0
   59.1000   25.7800   46.1450 C   0  0  0  0  0  0  0  0  0  0  0  0
   57.9080   26.2850   46.6810 C   0  0  0  0  0  0  0  0  0  0  0  0
   56.3730   25.5080   46.3130 S   0  0  0  0  0  0  0  0  0  0  0  0
   55.1920   26.7120   45.9380 N   0  0  0  0  0  0  0  0  0  0  0  0
   55.9120   24.7040   47.4970 O   0  0  0  0  0  0  0  0  0  0  0  0
   56.5350   24.5840   45.1380 O   0  0  0  0  0  0  0  0  0  0  0  0
   57.9410   27.4320   47.4870 C   0  0  0  0  0  0  0  0  0  0  0  0
   58.1010   30.3130   45.9670 C   0  0  0  0  0  0  0  0  0  0  0  0
   55.1510   28.3090   44.4920 H   0  0  0  0  0  0  0  0  0  0  0  0
   57.3894   32.6150   43.5393 H   0  0  0  0  0  0  0  0  0  0  0  0
   58.7020   34.0610   45.0923 H   0  0  0  0  0  0  0  0  0  0  0  0
   59.6429   33.1086   47.1960 H   0  0  0  0  0  0  0  0  0  0  0  0
   61.3099   28.0290   47.4619 H   0  0  0  0  0  0  0  0  0  0  0  0
   61.2520   26.0027   46.0119 H   0  0  0  0  0  0  0  0  0  0  0  0
   59.0780   24.8884   45.5011 H   0  0  0  0  0  0  0  0  0  0  0  0
   54.7670   27.0140   46.8430 H   0  0  0  0  0  0  0  0  0  0  0  0
   57.0059   27.8287   47.9092 H   0  0  0  0  0  0  0  0  0  0  0  0
   57.9052   29.2627   46.2288 H   0  0  0  0  0  0  0  0  0  0  0  0
  1  2  1  0
  2  3  2  0
  2  4  2  0
  2  5  1  0
  5  6  2  0
  6  7  1  0
  7  8  2  0
  8  9  1  0
  9 10  1  0
 10 11  1  0
 11 12  2  0
 11 13  1  0
 13 14  2  0
 14 15  1  0
 15 16  2  0
 16 17  1  0
 17 18  1  0
 18 19  1  0
 18 20  2  0
 18 21  2  0
 17 22  2  0
  9 23  2  0
 23  5  1  0
 22 13  1  0
  1 24  1  0
  6 25  1  0
  7 26  1  0
  8 27  1  0
 14 28  1  0
 15 29  1  0
 16 30  1  0
 19 31  1  0
 22 32  1  0
 23 33  1  0
M  CHG  3   1  -1  10  -1  19  -1
M  END
>  <UniqueID>  (91) 
85

>  <SMILES>  (91) 
[NH-]S(=O)(=O)c1cccc([N-]C(=O)c2cccc(S([NH-])(=O)=O)c2)c1

>  <Energy>  (91) 
39.356651368936156

>  <Genealogy>  (91) 
[NH-]S(=O)(=O)c1cccc([N-]C(=O)c2cccc(S([NH-])(=O)=O)c2)c1 (protonated)
[NH-]S(=O)(=O)c1cccc([N-]C(=O)c2cccc(S([NH-])(=O)=O)c2)c1 (3D coordinates assigned)
[NH-]S(=O)(=O)c1cccc([N-]C(=O)c2cccc(S([NH-])(=O)=O)c2)c1 (optimized conformer: 39.356651368936156 kcal/mol)

>  <smiles>  (91) 
NS(=O)(=O)c1cccc(NC(=O)c2cccc(S(N)(=O)=O)c2)c1

>  <score_type>  (91) 
oracle

>  <origin>  (91) 
adg

>  <m_score__min__energy>  (91) 
-14.32

>  <m_primary>  (91) 
energy

$$$$
91:0
     RDKit          3D

 58 60  0  0  0  0  0  0  0  0999 V2000
   59.9370   34.5670   48.6930 C   0  0  0  0  0  0  0  0  0  0  0  0
   59.4810   34.1990   47.3230 C   0  0  0  0  0  0  0  0  0  0  0  0
   60.2850   34.1550   46.2450 N   0  0  0  0  0  0  0  0  0  0  0  0
   59.5160   33.8160   45.2220 N   0  0  0  0  0  0  0  0  0  0  0  0
   58.2720   33.6770   45.7180 C   0  0  0  0  0  0  0  0  0  0  0  0
   57.0860   33.2730   44.9050 C   0  0  0  0  0  0  0  0  0  0  0  0
   57.5250   32.4820   43.7540 N   0  0  0  0  0  0  0  0  0  0  0  0
   57.0230   30.8300   43.9540 S   0  0  0  0  0  0  0  0  0  0  0  0
   57.0310   30.1300   42.6230 O   0  0  0  0  0  0  0  0  0  0  0  0
   55.6230   30.8010   44.4990 O   0  0  0  0  0  0  0  0  0  0  0  0
   58.0940   30.0070   45.0840 C   0  0  0  0  0  0  0  0  0  0  0  0
   58.9390   28.9770   44.6470 C   0  0  0  0  0  0  0  0  0  0  0  0
   59.7980   28.3440   45.5480 C   0  0  0  0  0  0  0  0  0  0  0  0
   59.8280   28.7360   46.8970 C   0  0  0  0  0  0  0  0  0  0  0  0
   60.7330   28.0370   47.8780 C   0  0  0  0  0  0  0  0  0  0  0  0
   60.3640   28.3510   49.3400 C   0  0  0  0  0  0  0  0  0  0  0  0
   61.2160   29.4530   50.0010 C   0  0  0  0  0  0  0  0  0  0  0  0
   60.6980   30.8980   49.8270 C   0  0  0  0  0  0  0  0  0  0  0  0
   61.6680   31.8380   49.0660 C   0  0  0  0  0  0  0  0  0  0  0  0
   61.9220   31.3740   47.6090 C   0  0  0  0  0  0  0  0  0  0  0  0
   63.3710   31.6070   47.1350 C   0  0  0  0  0  0  0  0  0  0  0  0
   63.9430   32.8660   47.6520 N   0  0  0  0  0  0  0  0  0  0  0  0
   63.3310   34.0480   47.0220 C   0  0  0  0  0  0  0  0  0  0  0  0
   63.9480   32.9540   49.1350 C   0  0  0  0  0  0  0  0  0  0  0  0
   62.9970   31.9600   49.8300 C   0  0  0  0  0  0  0  0  0  0  0  0
   58.9800   29.7680   47.3310 C   0  0  0  0  0  0  0  0  0  0  0  0
   58.1210   30.4020   46.4270 C   0  0  0  0  0  0  0  0  0  0  0  0
   58.2410   33.9080   47.0080 O   0  0  0  0  0  0  0  0  0  0  0  0
   59.3072   34.0587   49.4380 H   0  0  0  0  0  0  0  0  0  0  0  0
   60.9843   34.2580   48.8262 H   0  0  0  0  0  0  0  0  0  0  0  0
   59.8562   35.6559   48.8262 H   0  0  0  0  0  0  0  0  0  0  0  0
   56.4055   32.6707   45.5248 H   0  0  0  0  0  0  0  0  0  0  0  0
   56.5625   34.1733   44.5508 H   0  0  0  0  0  0  0  0  0  0  0  0
   58.5720   32.4790   43.7420 H   0  0  0  0  0  0  0  0  0  0  0  0
   58.9253   28.6667   43.5918 H   0  0  0  0  0  0  0  0  0  0  0  0
   60.4551   27.5336   45.1995 H   0  0  0  0  0  0  0  0  0  0  0  0
   60.6557   26.9513   47.7190 H   0  0  0  0  0  0  0  0  0  0  0  0
   61.7582   28.3964   47.7051 H   0  0  0  0  0  0  0  0  0  0  0  0
   59.3118   28.6705   49.3660 H   0  0  0  0  0  0  0  0  0  0  0  0
   60.5530   27.4300   49.9110 H   0  0  0  0  0  0  0  0  0  0  0  0
   61.2662   29.2399   51.0790 H   0  0  0  0  0  0  0  0  0  0  0  0
   62.1912   29.4219   49.4931 H   0  0  0  0  0  0  0  0  0  0  0  0
   59.7496   30.8590   49.2712 H   0  0  0  0  0  0  0  0  0  0  0  0
   60.5849   31.3152   50.8385 H   0  0  0  0  0  0  0  0  0  0  0  0
   61.1870   32.8256   49.0090 H   0  0  0  0  0  0  0  0  0  0  0  0
   61.7023   30.2982   47.5425 H   0  0  0  0  0  0  0  0  0  0  0  0
   61.2677   31.9734   46.9589 H   0  0  0  0  0  0  0  0  0  0  0  0
   63.9938   30.7690   47.4812 H   0  0  0  0  0  0  0  0  0  0  0  0
   63.3551   31.6749   46.0372 H   0  0  0  0  0  0  0  0  0  0  0  0
   62.9746   34.7363   47.8025 H   0  0  0  0  0  0  0  0  0  0  0  0
   64.0782   34.5583   46.3964 H   0  0  0  0  0  0  0  0  0  0  0  0
   62.4830   33.7324   46.3964 H   0  0  0  0  0  0  0  0  0  0  0  0
   64.9709   32.7577   49.4888 H   0  0  0  0  0  0  0  0  0  0  0  0
   63.5942   33.9631   49.3930 H   0  0  0  0  0  0  0  0  0  0  0  0
   63.4788   30.9720   49.8727 H   0  0  0  0  0  0  0  0  0  0  0  0
   62.7843   32.3308   50.8435 H   0  0  0  0  0  0  0  0  0  0  0  0
   58.9913   30.0790   48.3860 H   0  0  0  0  0  0  0  0  0  0  0  0
   57.4643   31.2139   46.7726 H   0  0  0  0  0  0  0  0  0  0  0  0
  1  2  1  0
  2  3  2  0
  3  4  1  0
  4  5  2  0
  5  6  1  0
  6  7  1  0
  7  8  1  0
  8  9  2  0
  8 10  2  0
  8 11  1  0
 11 12  2  0
 12 13  1  0
 13 14  2  0
 14 15  1  0
 15 16  1  0
 16 17  1  0
 17 18  1  0
 18 19  1  0
 19 20  1  0
 20 21  1  0
 21 22  1  0
 22 23  1  0
 22 24  1  0
 24 25  1  0
 14 26  1  0
 26 27  2  0
  5 28  1  0
 28  2  1  0
 27 11  1  0
 25 19  1  0
  1 29  1  0
  1 30  1  0
  1 31  1  0
  6 32  1  0
  6 33  1  0
  7 34  1  0
 12 35  1  0
 13 36  1  0
 15 37  1  0
 15 38  1  0
 16 39  1  0
 16 40  1  0
 17 41  1  0
 17 42  1  0
 18 43  1  0
 18 44  1  0
 19 45  1  0
 20 46  1  0
 20 47  1  0
 21 48  1  0
 21 49  1  0
 23 50  1  0
 23 51  1  0
 23 52  1  0
 24 53  1  0
 24 54  1  0
 25 55  1  0
 25 56  1  0
 26 57  1  0
 27 58  1  0
M  END
>  <UniqueID>  (92) 
86

>  <SMILES>  (92) 
Cc1nnc(CNS(=O)(=O)c2ccc(CCCCC3CCN(C)CC3)cc2)o1

>  <Energy>  (92) 
92.64745708100429

>  <Genealogy>  (92) 
Cc1nnc(CNS(=O)(=O)c2ccc(CCCCC3CCN(C)CC3)cc2)o1 (3D coordinates assigned)
Cc1nnc(CNS(=O)(=O)c2ccc(CCCCC3CCN(C)CC3)cc2)o1 (nonaromatic ring conformer: 92.64745708100429 kcal/mol)

>  <smiles>  (92) 
Cc1nnc(CNS(=O)(=O)c2ccc(CCCCC3CCN(C)CC3)cc2)o1

>  <score_type>  (92) 
oracle

>  <origin>  (92) 
adg

>  <m_score__min__energy>  (92) 
-10.279999999999999

>  <m_primary>  (92) 
energy

$$$$
92:0
     RDKit          3D

 33 34  0  0  0  0  0  0  0  0999 V2000
   60.3560   34.5070   48.4100 C   0  0  0  0  0  0  0  0  0  0  0  0
   59.7290   34.7640   47.1570 O   0  0  0  0  0  0  0  0  0  0  0  0
   58.9320   33.8390   46.4660 C   0  0  0  0  0  0  0  0  0  0  0  0
   58.9080   32.5140   46.9160 C   0  0  0  0  0  0  0  0  0  0  0  0
   58.1260   31.5570   46.2630 C   0  0  0  0  0  0  0  0  0  0  0  0
   57.3540   31.9070   45.1500 C   0  0  0  0  0  0  0  0  0  0  0  0
   56.5790   30.9080   44.5380 O   0  0  0  0  0  0  0  0  0  0  0  0
   57.0850   29.8740   43.6940 C   0  0  0  0  0  0  0  0  0  0  0  0
   57.5910   28.7240   44.5110 C   0  0  0  0  0  0  0  0  0  0  0  0
   58.7310   28.2450   44.2660 O   0  0  0  0  0  0  0  0  0  0  0  0
   56.8090   28.2180   45.6030 N   0  0  0  0  0  0  0  0  0  0  0  0
   57.0130   26.9240   46.1990 C   0  0  0  0  0  0  0  0  0  0  0  0
   58.2930   26.5000   46.5970 C   0  0  0  0  0  0  0  0  0  0  0  0
   58.4700   25.2290   47.1440 C   0  0  0  0  0  0  0  0  0  0  0  0
   57.3700   24.3820   47.2780 C   0  0  0  0  0  0  0  0  0  0  0  0
   56.1410   24.7940   46.8720 N   0  0  0  0  0  0  0  0  0  0  0  0
   55.9360   26.0280   46.3370 C   0  0  0  0  0  0  0  0  0  0  0  0
   54.7770   26.3600   45.9750 O   0  0  0  0  0  0  0  0  0  0  0  0
   57.3790   33.2380   44.6910 C   0  0  0  0  0  0  0  0  0  0  0  0
   58.1600   34.1960   45.3440 C   0  0  0  0  0  0  0  0  0  0  0  0
   59.6733   34.7868   49.2259 H   0  0  0  0  0  0  0  0  0  0  0  0
   60.5988   33.4368   48.4859 H   0  0  0  0  0  0  0  0  0  0  0  0
   61.2801   35.0989   48.4859 H   0  0  0  0  0  0  0  0  0  0  0  0
   59.5091   32.2235   47.7902 H   0  0  0  0  0  0  0  0  0  0  0  0
   58.1175   30.5192   46.6276 H   0  0  0  0  0  0  0  0  0  0  0  0
   56.2797   29.5208   43.0331 H   0  0  0  0  0  0  0  0  0  0  0  0
   57.9171   30.2785   43.0989 H   0  0  0  0  0  0  0  0  0  0  0  0
   56.0650   28.8380   45.9970 H   0  0  0  0  0  0  0  0  0  0  0  0
   59.1560   27.1714   46.4769 H   0  0  0  0  0  0  0  0  0  0  0  0
   59.4681   24.8978   47.4667 H   0  0  0  0  0  0  0  0  0  0  0  0
   57.4978   23.3797   47.7128 H   0  0  0  0  0  0  0  0  0  0  0  0
   56.7807   33.5255   43.8138 H   0  0  0  0  0  0  0  0  0  0  0  0
   58.1715   35.2338   44.9795 H   0  0  0  0  0  0  0  0  0  0  0  0
  1  2  1  0
  2  3  1  0
  3  4  2  0
  4  5  1  0
  5  6  2  0
  6  7  1  0
  7  8  1  0
  8  9  1  0
  9 10  2  0
  9 11  1  0
 11 12  1  0
 12 13  2  0
 13 14  1  0
 14 15  2  0
 15 16  1  0
 16 17  1  0
 17 18  2  0
  6 19  1  0
 19 20  2  0
 20  3  1  0
 17 12  1  0
  1 21  1  0
  1 22  1  0
  1 23  1  0
  4 24  1  0
  5 25  1  0
  8 26  1  0
  8 27  1  0
 11 28  1  0
 13 29  1  0
 14 30  1  0
 15 31  1  0
 19 32  1  0
 20 33  1  0
M  CHG  1  16  -1
M  END
>  <UniqueID>  (93) 
87

>  <SMILES>  (93) 
COc1ccc(OCC(=O)Nc2ccc[n-]c2=O)cc1

>  <Energy>  (93) 
36.36221135470192

>  <Genealogy>  (93) 
COc1ccc(OCC(=O)Nc2ccc[n-]c2=O)cc1 (protonated)
COc1ccc(OCC(=O)Nc2ccc[n-]c2=O)cc1 (3D coordinates assigned)
COc1ccc(OCC(=O)Nc2ccc[n-]c2=O)cc1 (optimized conformer: 36.36221135470192 kcal/mol)

>  <smiles>  (93) 
COc1ccc(OCC(=O)Nc2ccc[nH]c2=O)cc1

>  <score_type>  (93) 
oracle

>  <origin>  (93) 
adg

>  <m_score__min__energy>  (93) 
-8.9800000000000004

>  <m_primary>  (93) 
energy

$$$$
93:0
     RDKit          3D

 64 67  0  0  0  0  0  0  0  0999 V2000
   57.7440   23.7020   47.3540 N   0  0  0  0  0  0  0  0  0  0  0  0
   56.6350   24.1070   46.0920 S   0  0  0  0  0  0  0  0  0  0  0  0
   56.7010   23.0620   45.0130 O   0  0  0  0  0  0  0  0  0  0  0  0
   55.2390   24.1410   46.6480 O   0  0  0  0  0  0  0  0  0  0  0  0
   57.0600   25.6760   45.4160 C   0  0  0  0  0  0  0  0  0  0  0  0
   57.7590   25.7630   44.2040 C   0  0  0  0  0  0  0  0  0  0  0  0
   58.0780   27.0120   43.6670 C   0  0  0  0  0  0  0  0  0  0  0  0
   57.7290   28.1890   44.3440 C   0  0  0  0  0  0  0  0  0  0  0  0
   58.0790   29.4580   43.7690 N   0  0  0  0  0  0  0  0  0  0  0  0
   57.2990   30.6550   43.9310 C   0  0  0  0  0  0  0  0  0  0  0  0
   56.1860   30.6250   44.5220 O   0  0  0  0  0  0  0  0  0  0  0  0
   57.8550   31.9760   43.4870 C   0  0  0  0  0  0  0  0  0  0  0  0
   58.2030   32.8230   44.6830 C   0  0  0  0  0  0  0  0  0  0  0  0
   58.7330   34.1120   44.5160 C   0  0  0  0  0  0  0  0  0  0  0  0
   59.0080   34.9080   45.6300 C   0  0  0  0  0  0  0  0  0  0  0  0
   58.7520   34.4310   46.9180 C   0  0  0  0  0  0  0  0  0  0  0  0
   58.2350   33.1440   47.1050 C   0  0  0  0  0  0  0  0  0  0  0  0
   57.9050   32.7140   48.4330 N   0  0  0  0  0  0  0  0  0  0  0  0
   58.5180   31.6220   49.1270 C   0  0  0  0  0  0  0  0  0  0  0  0
   58.5680   30.4810   48.5900 O   0  0  0  0  0  0  0  0  0  0  0  0
   59.0380   31.8430   50.5270 C   0  0  0  0  0  0  0  0  0  0  0  0
   60.0400   30.7260   50.9020 C   0  0  0  0  0  0  0  0  0  0  0  0
   61.4810   31.1940   50.6910 C   0  0  0  0  0  0  0  0  0  0  0  0
   61.8210   32.3270   51.5790 N   0  0  0  0  0  0  0  0  0  0  0  0
   63.2130   33.1780   50.9540 S   0  0  0  0  0  0  0  0  0  0  0  0
   63.3130   34.5370   51.5880 O   0  0  0  0  0  0  0  0  0  0  0  0
   64.4580   32.4040   51.2840 O   0  0  0  0  0  0  0  0  0  0  0  0
   63.0990   33.3530   49.2010 C   0  0  0  0  0  0  0  0  0  0  0  0
   61.9290   33.8530   48.6100 C   0  0  0  0  0  0  0  0  0  0  0  0
   61.8390   33.9710   47.2200 C   0  0  0  0  0  0  0  0  0  0  0  0
   62.9160   33.5930   46.4140 C   0  0  0  0  0  0  0  0  0  0  0  0
   64.0770   33.0780   46.9960 C   0  0  0  0  0  0  0  0  0  0  0  0
   64.1680   32.9570   48.3870 C   0  0  0  0  0  0  0  0  0  0  0  0
   60.6960   33.2600   51.8430 C   0  0  0  0  0  0  0  0  0  0  0  0
   59.6440   33.2590   50.7220 C   0  0  0  0  0  0  0  0  0  0  0  0
   57.9550   32.3450   45.9810 C   0  0  0  0  0  0  0  0  0  0  0  0
   57.0080   28.1000   45.5470 C   0  0  0  0  0  0  0  0  0  0  0  0
   56.6760   26.8480   46.0770 C   0  0  0  0  0  0  0  0  0  0  0  0
   57.3910   22.8250   47.7990 H   0  0  0  0  0  0  0  0  0  0  0  0
   58.0568   24.8457   43.6749 H   0  0  0  0  0  0  0  0  0  0  0  0
   58.6075   27.0728   42.7048 H   0  0  0  0  0  0  0  0  0  0  0  0
   59.0400   29.5550   43.3690 H   0  0  0  0  0  0  0  0  0  0  0  0
   58.7608   31.8055   42.8867 H   0  0  0  0  0  0  0  0  0  0  0  0
   57.0980   32.4996   42.8847 H   0  0  0  0  0  0  0  0  0  0  0  0
   58.9323   34.4962   43.5047 H   0  0  0  0  0  0  0  0  0  0  0  0
   59.4281   35.9153   45.4928 H   0  0  0  0  0  0  0  0  0  0  0  0
   58.9578   35.0701   47.7893 H   0  0  0  0  0  0  0  0  0  0  0  0
   58.1827   31.7894   51.2166 H   0  0  0  0  0  0  0  0  0  0  0  0
   59.8998   30.4561   51.9591 H   0  0  0  0  0  0  0  0  0  0  0  0
   59.8545   29.8552   50.2560 H   0  0  0  0  0  0  0  0  0  0  0  0
   62.1628   30.3572   50.9030 H   0  0  0  0  0  0  0  0  0  0  0  0
   61.5844   31.5306   49.6489 H   0  0  0  0  0  0  0  0  0  0  0  0
   61.0802   34.1530   49.2421 H   0  0  0  0  0  0  0  0  0  0  0  0
   60.9193   34.3619   46.7602 H   0  0  0  0  0  0  0  0  0  0  0  0
   62.8497   33.7009   45.3213 H   0  0  0  0  0  0  0  0  0  0  0  0
   64.9196   32.7676   46.3607 H   0  0  0  0  0  0  0  0  0  0  0  0
   65.0823   32.5494   48.8430 H   0  0  0  0  0  0  0  0  0  0  0  0
   60.2076   32.9642   52.7832 H   0  0  0  0  0  0  0  0  0  0  0  0
   61.1153   34.2752   51.9020 H   0  0  0  0  0  0  0  0  0  0  0  0
   58.8391   33.9615   50.9838 H   0  0  0  0  0  0  0  0  0  0  0  0
   60.1319   33.5629   49.7841 H   0  0  0  0  0  0  0  0  0  0  0  0
   57.5380   31.3366   46.1197 H   0  0  0  0  0  0  0  0  0  0  0  0
   56.7038   29.0167   46.0734 H   0  0  0  0  0  0  0  0  0  0  0  0
   56.1102   26.7849   47.0182 H   0  0  0  0  0  0  0  0  0  0  0  0
  1  2  1  0
  2  3  2  0
  2  4  2  0
  2  5  1  0
  5  6  2  0
  6  7  1  0
  7  8  2  0
  8  9  1  0
  9 10  1  0
 10 11  2  0
 10 12  1  0
 12 13  1  0
 13 14  2  0
 14 15  1  0
 15 16  2  0
 16 17  1  0
 17 18  1  0
 18 19  1  0
 19 20  2  0
 19 21  1  0
 21 22  1  0
 22 23  1  0
 23 24  1  0
 24 25  1  0
 25 26  2  0
 25 27  2  0
 25 28  1  0
 28 29  2  0
 29 30  1  0
 30 31  2  0
 31 32  1  0
 32 33  2  0
 24 34  1  0
 34 35  1  0
 17 36  2  0
  8 37  1  0
 37 38  2  0
 38  5  1  0
 36 13  1  0
 35 21  1  0
 33 28  1  0
  1 39  1  0
  6 40  1  0
  7 41  1  0
  9 42  1  0
 12 43  1  0
 12 44  1  0
 14 45  1  0
 15 46  1  0
 16 47  1  0
 21 48  1  0
 22 49  1  0
 22 50  1  0
 23 51  1  0
 23 52  1  0
 29 53  1  0
 30 54  1  0
 31 55  1  0
 32 56  1  0
 33 57  1  0
 34 58  1  0
 34 59  1  0
 35 60  1  0
 35 61  1  0
 36 62  1  0
 37 63  1  0
 38 64  1  0
M  CHG  2   1  -1  18  -1
M  END
>  <UniqueID>  (94) 
88

>  <SMILES>  (94) 
[NH-]S(=O)(=O)c1ccc(NC(=O)Cc2cccc([N-]C(=O)C3CCN(S(=O)(=O)c4ccccc4)CC3)c2)cc1

>  <Energy>  (94) 
74.65935425890332

>  <Genealogy>  (94) 
[NH-]S(=O)(=O)c1ccc(NC(=O)Cc2cccc([N-]C(=O)C3CCN(S(=O)(=O)c4ccccc4)CC3)c2)cc1 (protonated)
[NH-]S(=O)(=O)c1ccc(NC(=O)Cc2cccc([N-]C(=O)C3CCN(S(=O)(=O)c4ccccc4)CC3)c2)cc1 (3D coordinates assigned)
[NH-]S(=O)(=O)c1ccc(NC(=O)Cc2cccc([N-]C(=O)C3CCN(S(=O)(=O)c4ccccc4)CC3)c2)cc1 (nonaromatic ring conformer: 74.65935425890332 kcal/mol)

>  <smiles>  (94) 
NS(=O)(=O)c1ccc(NC(=O)Cc2cccc(NC(=O)C3CCN(S(=O)(=O)c4ccccc4)CC3)c2)cc1

>  <score_type>  (94) 
oracle

>  <origin>  (94) 
adg

>  <m_score__min__energy>  (94) 
-14.130000000000001

>  <m_primary>  (94) 
energy

$$$$
