0:0
     RDKit          3D

 51 54  0  0  0  0  0  0  0  0999 V2000
   58.8890   21.5850   44.8420 N   0  0  0  0  0  0  0  0  0  0  0  0
   59.1760   22.9080   45.3050 C   0  0  0  0  0  0  0  0  0  0  0  0
   60.3730   23.2230   45.5570 O   0  0  0  0  0  0  0  0  0  0  0  0
   58.0980   23.9080   45.4760 C   0  0  0  0  0  0  0  0  0  0  0  0
   56.7530   23.5070   45.4280 C   0  0  0  0  0  0  0  0  0  0  0  0
   55.7310   24.4460   45.5890 C   0  0  0  0  0  0  0  0  0  0  0  0
   56.0370   25.7940   45.8070 C   0  0  0  0  0  0  0  0  0  0  0  0
   55.0100   26.7130   45.9800 O   0  0  0  0  0  0  0  0  0  0  0  0
   57.3730   26.2150   45.8550 C   0  0  0  0  0  0  0  0  0  0  0  0
   57.6470   27.5810   46.0440 O   0  0  0  0  0  0  0  0  0  0  0  0
   57.3750   28.6140   45.1330 C   0  0  0  0  0  0  0  0  0  0  0  0
   57.2880   28.3040   43.7740 C   0  0  0  0  0  0  0  0  0  0  0  0
   57.0180   29.3150   42.8500 C   0  0  0  0  0  0  0  0  0  0  0  0
   56.8180   30.5900   43.2770 N   0  0  0  0  0  0  0  0  0  0  0  0
   56.8560   30.9360   44.5940 C   0  0  0  0  0  0  0  0  0  0  0  0
   56.6600   32.1900   44.9020 N   0  0  0  0  0  0  0  0  0  0  0  0
   57.5570   33.3080   44.8090 C   0  0  0  0  0  0  0  0  0  0  0  0
   57.0700   34.4440   44.5660 O   0  0  0  0  0  0  0  0  0  0  0  0
   58.9510   33.1630   45.1190 N   0  0  0  0  0  0  0  0  0  0  0  0
   59.5980   33.1260   46.4020 C   0  0  0  0  0  0  0  0  0  0  0  0
   60.3100   34.2160   46.9350 C   0  0  0  0  0  0  0  0  0  0  0  0
   60.9060   34.1170   48.1970 C   0  0  0  0  0  0  0  0  0  0  0  0
   60.8220   32.9280   48.9250 C   0  0  0  0  0  0  0  0  0  0  0  0
   60.1610   31.8200   48.3890 C   0  0  0  0  0  0  0  0  0  0  0  0
   60.0990   30.6440   49.1500 O   0  0  0  0  0  0  0  0  0  0  0  0
   60.2560   29.3400   48.6520 C   0  0  0  0  0  0  0  0  0  0  0  0
   60.3100   29.1580   47.2630 C   0  0  0  0  0  0  0  0  0  0  0  0
   60.4140   27.8730   46.7200 C   0  0  0  0  0  0  0  0  0  0  0  0
   60.4540   26.7580   47.5640 C   0  0  0  0  0  0  0  0  0  0  0  0
   60.4090   26.9290   48.9500 C   0  0  0  0  0  0  0  0  0  0  0  0
   60.3010   28.2120   49.4970 C   0  0  0  0  0  0  0  0  0  0  0  0
   59.5370   31.9300   47.1320 C   0  0  0  0  0  0  0  0  0  0  0  0
   57.1430   29.9380   45.5530 C   0  0  0  0  0  0  0  0  0  0  0  0
   58.4010   25.2710   45.6610 C   0  0  0  0  0  0  0  0  0  0  0  0
   57.9480   21.3310   44.4660 H   0  0  0  0  0  0  0  0  0  0  0  0
   59.6550   20.8750   44.7820 H   0  0  0  0  0  0  0  0  0  0  0  0
   56.5029   22.4486   45.2629 H   0  0  0  0  0  0  0  0  0  0  0  0
   54.6802   24.1239   45.5442 H   0  0  0  0  0  0  0  0  0  0  0  0
   57.4316   27.2680   43.4333 H   0  0  0  0  0  0  0  0  0  0  0  0
   56.9671   29.0800   41.7766 H   0  0  0  0  0  0  0  0  0  0  0  0
   60.3984   35.1484   46.3582 H   0  0  0  0  0  0  0  0  0  0  0  0
   61.4433   34.9797   48.6178 H   0  0  0  0  0  0  0  0  0  0  0  0
   61.2779   32.8637   49.9240 H   0  0  0  0  0  0  0  0  0  0  0  0
   60.2703   30.0315   46.5956 H   0  0  0  0  0  0  0  0  0  0  0  0
   60.4643   27.7393   45.6293 H   0  0  0  0  0  0  0  0  0  0  0  0
   60.5209   25.7467   47.1365 H   0  0  0  0  0  0  0  0  0  0  0  0
   60.4586   26.0525   49.6128 H   0  0  0  0  0  0  0  0  0  0  0  0
   60.2511   28.3412   50.5883 H   0  0  0  0  0  0  0  0  0  0  0  0
   58.9949   31.0674   46.7172 H   0  0  0  0  0  0  0  0  0  0  0  0
   57.1849   30.1942   46.6219 H   0  0  0  0  0  0  0  0  0  0  0  0
   59.4501   25.6017   45.6540 H   0  0  0  0  0  0  0  0  0  0  0  0
  1  2  1  0
  2  3  2  0
  2  4  1  0
  4  5  2  0
  5  6  1  0
  6  7  2  0
  7  8  1  0
  7  9  1  0
  9 10  1  0
 10 11  1  0
 11 12  1  0
 12 13  2  0
 13 14  1  0
 14 15  1  0
 15 16  2  3
 16 17  1  0
 17 18  2  0
 17 19  1  0
 19 20  1  0
 20 21  2  0
 21 22  1  0
 22 23  2  0
 23 24  1  0
 24 25  1  0
 25 26  1  0
 26 27  2  0
 27 28  1  0
 28 29  2  0
 29 30  1  0
 30 31  2  0
 24 32  2  0
 15 33  1  0
  9 34  2  0
 34  4  1  0
 33 11  2  0
 32 20  1  0
 31 26  1  0
  1 35  1  0
  1 36  1  0
  5 37  1  0
  6 38  1  0
 12 39  1  0
 13 40  1  0
 21 41  1  0
 22 42  1  0
 23 43  1  0
 27 44  1  0
 28 45  1  0
 29 46  1  0
 30 47  1  0
 31 48  1  0
 32 49  1  0
 33 50  1  0
 34 51  1  0
M  CHG  3   8  -1  14  -1  19  -1
M  END
>  <UniqueID>  (1) 
1

>  <SMILES>  (1) 
NC(=O)c1ccc([O-])c(Oc2cc[n-]c(=NC(=O)[N-]c3cccc(Oc4ccccc4)c3)c2)c1

>  <Energy>  (1) 
79.75079788296134

>  <Genealogy>  (1) 
NC(=O)c1ccc([O-])c(Oc2cc[n-]c(=NC(=O)[N-]c3cccc(Oc4ccccc4)c3)c2)c1 (protonated)
NC(=O)c1ccc([O-])c(Oc2cc[n-]c(=NC(=O)[N-]c3cccc(Oc4ccccc4)c3)c2)c1 (3D coordinates assigned)
NC(=O)c1ccc([O-])c(Oc2cc[n-]c(=NC(=O)[N-]c3cccc(Oc4ccccc4)c3)c2)c1 (optimized conformer: 79.75079788296134 kcal/mol)

>  <smiles>  (1) 
NC(=O)c1ccc(O)c(Oc2cc[nH]c(=NC(=O)Nc3cccc(Oc4ccccc4)c3)c2)c1

>  <score_type>  (1) 
oracle

>  <origin>  (1) 
adg

>  <m_score__min__energy>  (1) 
-16.25

>  <m_primary>  (1) 
energy

$$$$
1:0
     RDKit          3D

 31 32  0  0  0  0  0  0  0  0999 V2000
   55.1570   28.6150   45.6380 H   0  0  0  0  0  0  0  0  0  0  0  0
   55.2380   29.3270   44.8800 N   0  0  0  0  0  0  0  0  0  0  0  0
   56.8830   29.8630   44.8460 S   0  0  0  0  0  0  0  0  0  0  0  0
   57.4490   29.6210   43.4750 O   0  0  0  0  0  0  0  0  0  0  0  0
   56.9400   31.3330   45.1520 O   0  0  0  0  0  0  0  0  0  0  0  0
   57.8470   28.9550   46.0440 C   0  0  0  0  0  0  0  0  0  0  0  0
   57.2062   28.2011   46.5246 H   0  0  0  0  0  0  0  0  0  0  0  0
   58.6871   28.4714   45.5241 H   0  0  0  0  0  0  0  0  0  0  0  0
   58.4090   29.8880   47.1140 C   0  0  0  0  0  0  0  0  0  0  0  0
   59.3127   30.3835   46.7296 H   0  0  0  0  0  0  0  0  0  0  0  0
   57.6542   30.6459   47.3707 H   0  0  0  0  0  0  0  0  0  0  0  0
   58.7470   29.1190   48.3050 N   0  0  0  0  0  0  0  0  0  0  0  0
   59.3310   29.6690   49.4920 C   0  0  0  0  0  0  0  0  0  0  0  0
   59.9510   28.9020   50.2770 O   0  0  0  0  0  0  0  0  0  0  0  0
   59.1940   31.1220   49.8510 C   0  0  0  0  0  0  0  0  0  0  0  0
   60.1303   31.4726   50.3097 H   0  0  0  0  0  0  0  0  0  0  0  0
   58.9836   31.6986   48.9382 H   0  0  0  0  0  0  0  0  0  0  0  0
   58.0700   31.3120   50.8170 C   0  0  0  0  0  0  0  0  0  0  0  0
   57.0000   30.4890   50.8910 N   0  0  0  0  0  0  0  0  0  0  0  0
   56.1470   30.8520   51.8870 C   0  0  0  0  0  0  0  0  0  0  0  0
   54.9140   30.1440   52.0810 N   0  0  0  0  0  0  0  0  0  0  0  0
   53.7280   30.6560   52.2450 C   0  0  0  0  0  0  0  0  0  0  0  0
   53.1650   31.4620   51.3190 N   0  0  0  0  0  0  0  0  0  0  0  0
   51.9080   31.8330   51.6800 C   0  0  0  0  0  0  0  0  0  0  0  0
   51.1350   32.6650   50.8820 O   0  0  0  0  0  0  0  0  0  0  0  0
   51.4510   31.3220   52.8910 C   0  0  0  0  0  0  0  0  0  0  0  0
   50.4677   31.5116   53.3462 H   0  0  0  0  0  0  0  0  0  0  0  0
   52.6740   30.3620   53.5330 S   0  0  0  0  0  0  0  0  0  0  0  0
   56.5240   31.9930   52.6020 C   0  0  0  0  0  0  0  0  0  0  0  0
   55.9613   32.4585   53.4246 H   0  0  0  0  0  0  0  0  0  0  0  0
   57.9930   32.5260   51.9780 S   0  0  0  0  0  0  0  0  0  0  0  0
  1  2  1  0
  2  3  1  0
  3  4  2  0
  3  5  2  0
  3  6  1  0
  6  7  1  0
  6  8  1  0
  6  9  1  0
  9 10  1  0
  9 11  1  0
  9 12  1  0
 12 13  1  0
 13 14  2  0
 13 15  1  0
 15 16  1  0
 15 17  1  0
 15 18  1  0
 18 19  2  0
 19 20  1  0
 20 21  1  0
 21 22  2  0
 22 23  1  0
 23 24  1  0
 24 25  1  0
 24 26  2  0
 26 27  1  0
 26 28  1  0
 20 29  2  0
 29 30  1  0
 29 31  1  0
 31 18  1  0
 28 22  1  0
M  CHG  4   2  -1  12  -1  23  -1  25  -1
M  END
>  <UniqueID>  (2) 
2

>  <SMILES>  (2) 
[NH-]S(=O)(=O)CC[N-]C(=O)Cc1nc(/N=c2/[n-]c([O-])cs2)cs1

>  <Energy>  (2) 
85.40235951928557

>  <Genealogy>  (2) 
[NH-]S(=O)(=O)CC[N-]C(=O)Cc1nc(N=c2[n-]c([O-])cs2)cs1 (protonated)
[NH-]S(=O)(=O)CC[N-]C(=O)Cc1nc(/N=c2/[n-]c([O-])cs2)cs1 (cis-trans isomerization)
[NH-]S(=O)(=O)CC[N-]C(=O)Cc1nc(/N=c2/[n-]c([O-])cs2)cs1 (3D coordinates assigned)
[NH-]S(=O)(=O)CC[N-]C(=O)Cc1nc(/N=c2/[n-]c([O-])cs2)cs1 (optimized conformer: 85.40235951928557 kcal/mol)

>  <smiles>  (2) 
NS(=O)(=O)CCNC(=O)Cc1nc(N=c2[nH]c(O)cs2)cs1

>  <score_type>  (2) 
oracle

>  <origin>  (2) 
adg

>  <m_score__min__energy>  (2) 
-16.030000000000001

>  <m_primary>  (2) 
energy

$$$$
2:0
     RDKit          3D

 75 79  0  0  0  0  0  0  0  0999 V2000
   58.3224   33.8805   45.7929 H   0  0  0  0  0  0  0  0  0  0  0  0
   59.1780   33.8640   46.4840 C   0  0  0  0  0  0  0  0  0  0  0  0
   60.4810   33.8650   45.9820 C   0  0  0  0  0  0  0  0  0  0  0  0
   60.6510   33.8824   44.8953 H   0  0  0  0  0  0  0  0  0  0  0  0
   61.5690   33.8440   46.8580 C   0  0  0  0  0  0  0  0  0  0  0  0
   62.5931   33.8392   46.4565 H   0  0  0  0  0  0  0  0  0  0  0  0
   61.3650   33.8290   48.2480 C   0  0  0  0  0  0  0  0  0  0  0  0
   62.7560   33.8200   49.3390 S   0  0  0  0  0  0  0  0  0  0  0  0
   62.9520   35.2060   49.8820 O   0  0  0  0  0  0  0  0  0  0  0  0
   63.9820   33.4200   48.5660 O   0  0  0  0  0  0  0  0  0  0  0  0
   62.4630   32.7410   50.6850 N   0  0  0  0  0  0  0  0  0  0  0  0
   62.6820   31.3070   50.4190 C   0  0  2  0  0  0  0  0  0  0  0  0
   63.7759   31.2081   50.4789 H   0  0  0  0  0  0  0  0  0  0  0  0
   62.1940   30.8690   49.0370 C   0  0  0  0  0  0  0  0  0  0  0  0
   61.6656   31.6943   48.5374 H   0  0  0  0  0  0  0  0  0  0  0  0
   63.0304   30.5793   48.3840 H   0  0  0  0  0  0  0  0  0  0  0  0
   61.2890   29.7580   49.2740 N   0  0  0  0  0  0  0  0  0  0  0  0
   60.5970   29.0750   48.2190 C   0  0  0  0  0  0  0  0  0  0  0  0
   60.8470   27.7630   47.9690 N   0  0  0  0  0  0  0  0  0  0  0  0
   60.1870   27.1140   46.9770 C   0  0  0  0  0  0  0  0  0  0  0  0
   60.4600   25.8630   46.7420 N   0  0  0  0  0  0  0  0  0  0  0  0
   59.6160   24.9330   46.0440 C   0  0  0  0  0  0  0  0  0  0  0  0
   60.0930   23.6760   45.6280 C   0  0  0  0  0  0  0  0  0  0  0  0
   61.1302   23.3819   45.8467 H   0  0  0  0  0  0  0  0  0  0  0  0
   59.2510   22.8020   44.9380 C   0  0  0  0  0  0  0  0  0  0  0  0
   59.6211   21.8125   44.6316 H   0  0  0  0  0  0  0  0  0  0  0  0
   57.9400   23.1790   44.6350 C   0  0  0  0  0  0  0  0  0  0  0  0
   57.2757   22.4779   44.1085 H   0  0  0  0  0  0  0  0  0  0  0  0
   57.4670   24.4520   45.0010 C   0  0  0  0  0  0  0  0  0  0  0  0
   56.1230   24.8670   44.7250 N   0  0  0  0  0  0  0  0  0  0  0  0
   55.1760   25.3370   45.6920 C   0  0  0  0  0  0  0  0  0  0  0  0
   55.1440   26.5650   45.9710 O   0  0  0  0  0  0  0  0  0  0  0  0
   54.2630   24.4320   46.3180 N   0  0  0  0  0  0  0  0  0  0  0  0
   54.6970   23.2690   47.0790 C   0  0  0  0  0  0  0  0  0  0  0  0
   54.8864   22.4315   46.3915 H   0  0  0  0  0  0  0  0  0  0  0  0
   53.9111   22.9870   47.7952 H   0  0  0  0  0  0  0  0  0  0  0  0
   55.9750   23.6020   47.8360 C   0  0  0  0  0  0  0  0  0  0  0  0
   55.7838   23.5522   48.9181 H   0  0  0  0  0  0  0  0  0  0  0  0
   56.7588   22.8781   47.5685 H   0  0  0  0  0  0  0  0  0  0  0  0
   56.3059   24.6164   47.5685 H   0  0  0  0  0  0  0  0  0  0  0  0
   58.3080   25.3170   45.7140 C   0  0  0  0  0  0  0  0  0  0  0  0
   57.9385   26.3075   46.0180 H   0  0  0  0  0  0  0  0  0  0  0  0
   59.2890   27.7950   46.2140 N   0  0  0  0  0  0  0  0  0  0  0  0
   59.0340   29.1100   46.4490 C   0  0  0  0  0  0  0  0  0  0  0  0
   58.0980   29.8260   45.6150 N   0  0  0  0  0  0  0  0  0  0  0  0
   56.7970   29.2100   45.3050 C   0  0  0  0  0  0  0  0  0  0  0  0
   56.9694   28.2239   44.8491 H   0  0  0  0  0  0  0  0  0  0  0  0
   56.2299   29.1179   46.2430 H   0  0  0  0  0  0  0  0  0  0  0  0
   55.9720   30.0750   44.3280 C   0  0  2  0  0  0  0  0  0  0  0  0
   55.6245   30.9678   44.8686 H   0  0  0  0  0  0  0  0  0  0  0  0
   54.7930   29.3540   43.8470 N   0  0  0  0  0  0  0  0  0  0  0  0
   54.9600   29.0230   42.8690 H   0  0  0  0  0  0  0  0  0  0  0  0
   54.6580   28.5040   44.4420 H   0  0  0  0  0  0  0  0  0  0  0  0
   56.8510   30.5100   43.1420 C   0  0  0  0  0  0  0  0  0  0  0  0
   57.1300   29.6154   42.5659 H   0  0  0  0  0  0  0  0  0  0  0  0
   56.2639   31.2195   42.5403 H   0  0  0  0  0  0  0  0  0  0  0  0
   58.1530   31.2410   43.5850 C   0  0  1  0  0  0  0  0  0  0  0  0
   58.9747   30.7023   43.0905 H   0  0  0  0  0  0  0  0  0  0  0  0
   58.1550   32.6410   43.1510 N   0  0  0  0  0  0  0  0  0  0  0  0
   57.1630   32.9520   43.0260 H   0  0  0  0  0  0  0  0  0  0  0  0
   58.5750   33.2330   43.9080 H   0  0  0  0  0  0  0  0  0  0  0  0
   58.4010   31.1730   45.1050 C   0  0  0  0  0  0  0  0  0  0  0  0
   59.4552   31.4098   45.3111 H   0  0  0  0  0  0  0  0  0  0  0  0
   57.7451   31.9000   45.6062 H   0  0  0  0  0  0  0  0  0  0  0  0
   59.6900   29.7410   47.4570 N   0  0  0  0  0  0  0  0  0  0  0  0
   61.1420   29.4080   50.6780 C   0  0  0  0  0  0  0  0  0  0  0  0
   60.0932   29.5196   50.9902 H   0  0  0  0  0  0  0  0  0  0  0  0
   61.4318   28.3628   50.8611 H   0  0  0  0  0  0  0  0  0  0  0  0
   62.0310   30.3740   51.4580 C   0  0  0  0  0  0  0  0  0  0  0  0
   61.4263   30.9584   52.1671 H   0  0  0  0  0  0  0  0  0  0  0  0
   62.7927   29.8326   52.0383 H   0  0  0  0  0  0  0  0  0  0  0  0
   60.0450   33.8250   48.7500 C   0  0  0  0  0  0  0  0  0  0  0  0
   59.7030   33.7950   50.4790 Cl  0  0  0  0  0  0  0  0  0  0  0  0
   58.9610   33.8420   47.8630 C   0  0  0  0  0  0  0  0  0  0  0  0
   57.9332   33.8380   48.2550 H   0  0  0  0  0  0  0  0  0  0  0  0
  1  2  1  0
  2  3  2  0
  3  4  1  0
  3  5  1  0
  5  6  1  0
  5  7  2  0
  7  8  1  0
  8  9  2  0
  8 10  2  0
  8 11  1  0
 11 12  1  0
 12 13  1  6
 12 14  1  0
 14 15  1  0
 14 16  1  0
 14 17  1  0
 17 18  1  0
 18 19  2  0
 19 20  1  0
 20 21  2  0
 21 22  1  0
 22 23  2  0
 23 24  1  0
 23 25  1  0
 25 26  1  0
 25 27  2  0
 27 28  1  0
 27 29  1  0
 29 30  1  0
 30 31  1  0
 31 32  2  0
 31 33  1  0
 33 34  1  0
 34 35  1  0
 34 36  1  0
 34 37  1  0
 37 38  1  0
 37 39  1  0
 37 40  1  0
 29 41  2  0
 41 42  1  0
 20 43  1  0
 43 44  2  0
 44 45  1  0
 45 46  1  0
 46 47  1  0
 46 48  1  0
 46 49  1  0
 49 50  1  1
 49 51  1  0
 51 52  1  0
 51 53  1  0
 49 54  1  0
 54 55  1  0
 54 56  1  0
 54 57  1  0
 57 58  1  6
 57 59  1  0
 59 60  1  0
 59 61  1  0
 57 62  1  0
 62 63  1  0
 62 64  1  0
 44 65  1  0
 17 66  1  0
 66 67  1  0
 66 68  1  0
 66 69  1  0
 69 70  1  0
 69 71  1  0
  7 72  1  0
 72 73  1  0
 72 74  2  0
 74 75  1  0
 74  2  1  0
 69 12  1  0
 65 18  1  0
 41 22  1  0
 62 45  1  0
M  CHG  4  11  -1  30  -1  33  -1  65  -1
M  END
>  <UniqueID>  (3) 
3

>  <SMILES>  (3) 
CC[N-]C(=O)[N-]c1cccc(/N=c2/nc(N3CCC([N-]S(=O)(=O)c4ccccc4Cl)C3)[n-]c(N3C[C@H](N)C[C@@H](N)C3)n2)c1

>  <Energy>  (3) 
92.14740638499664

>  <Genealogy>  (3) 
CC[N-]C(=O)[N-]c1cccc(N=c2nc(N3CC(N)CC(N)C3)[n-]c(N3CCC([N-]S(=O)(=O)c4ccccc4Cl)C3)n2)c1 (protonated)
CC[N-]C(=O)[N-]c1cccc(N=c2nc(N3CCC([N-]S(=O)(=O)c4ccccc4Cl)C3)[n-]c(N3C[C@H](N)C[C@@H](N)C3)n2)c1 (chirality)
CC[N-]C(=O)[N-]c1cccc(/N=c2/nc(N3CCC([N-]S(=O)(=O)c4ccccc4Cl)C3)[n-]c(N3C[C@H](N)C[C@@H](N)C3)n2)c1 (cis-trans isomerization)
CC[N-]C(=O)[N-]c1cccc(/N=c2/nc(N3CCC([N-]S(=O)(=O)c4ccccc4Cl)C3)[n-]c(N3C[C@H](N)C[C@@H](N)C3)n2)c1 (3D coordinates assigned)
CC[N-]C(=O)[N-]c1cccc(/N=c2/nc(N3CCC([N-]S(=O)(=O)c4ccccc4Cl)C3)[n-]c(N3C[C@H](N)C[C@@H](N)C3)n2)c1 (nonaromatic ring conformer: 92.14740638499664 kcal/mol)

>  <smiles>  (3) 
CCNC(=O)Nc1cccc(N=c2nc(N3CC(N)CC(N)C3)[nH]c(N3CCC(NS(=O)(=O)c4ccccc4Cl)C3)n2)c1

>  <score_type>  (3) 
oracle

>  <origin>  (3) 
adg

>  <m_score__min__energy>  (3) 
-16.890000000000001

>  <m_primary>  (3) 
energy

$$$$
3:0
     RDKit          3D

 28 29  0  0  0  0  0  0  0  0999 V2000
   59.2110   22.7640   45.2100 C   0  0  0  0  0  0  0  0  0  0  0  0
   58.1670   23.8280   45.3680 C   0  0  0  0  0  0  0  0  0  0  0  0
   56.9080   23.6760   44.7700 C   0  0  0  0  0  0  0  0  0  0  0  0
   55.9170   24.6420   44.9610 C   0  0  0  0  0  0  0  0  0  0  0  0
   56.1710   25.7700   45.7550 C   0  0  0  0  0  0  0  0  0  0  0  0
   55.1520   26.6930   45.9890 O   0  0  0  0  0  0  0  0  0  0  0  0
   57.4420   25.9420   46.3400 C   0  0  0  0  0  0  0  0  0  0  0  0
   57.7510   27.0710   47.1680 N   0  0  0  0  0  0  0  0  0  0  0  0
   58.1230   28.3700   46.6930 C   0  0  0  0  0  0  0  0  0  0  0  0
   59.0610   29.0100   47.2420 O   0  0  0  0  0  0  0  0  0  0  0  0
   57.3680   28.9790   45.5940 C   0  0  0  0  0  0  0  0  0  0  0  0
   57.8910   29.6690   44.5190 C   0  0  0  0  0  0  0  0  0  0  0  0
   56.7720   30.0160   43.7920 C   0  0  0  0  0  0  0  0  0  0  0  0
   56.7580   30.8430   42.5500 C   0  0  0  0  0  0  0  0  0  0  0  0
   55.6640   29.5720   44.4140 N   0  0  0  0  0  0  0  0  0  0  0  0
   56.0600   28.9490   45.4860 O   0  0  0  0  0  0  0  0  0  0  0  0
   58.4180   24.9500   46.1700 C   0  0  0  0  0  0  0  0  0  0  0  0
   59.5429   22.4257   46.2027 H   0  0  0  0  0  0  0  0  0  0  0  0
   58.7870   21.9137   44.6557 H   0  0  0  0  0  0  0  0  0  0  0  0
   60.0692   23.1718   44.6557 H   0  0  0  0  0  0  0  0  0  0  0  0
   56.6998   22.7929   44.1481 H   0  0  0  0  0  0  0  0  0  0  0  0
   54.9326   24.5174   44.4863 H   0  0  0  0  0  0  0  0  0  0  0  0
   55.1420   27.6010   45.5380 H   0  0  0  0  0  0  0  0  0  0  0  0
   58.9455   29.8889   44.2962 H   0  0  0  0  0  0  0  0  0  0  0  0
   56.7399   31.9093   42.8197 H   0  0  0  0  0  0  0  0  0  0  0  0
   57.6599   30.6299   41.9574 H   0  0  0  0  0  0  0  0  0  0  0  0
   55.8638   30.5995   41.9574 H   0  0  0  0  0  0  0  0  0  0  0  0
   59.3916   25.0532   46.6715 H   0  0  0  0  0  0  0  0  0  0  0  0
  1  2  1  0
  2  3  2  0
  3  4  1  0
  4  5  2  0
  5  6  1  0
  5  7  1  0
  7  8  1  0
  8  9  1  0
  9 10  2  0
  9 11  1  0
 11 12  2  0
 12 13  1  0
 13 14  1  0
 13 15  2  0
 15 16  1  0
  7 17  2  0
 17  2  1  0
 16 11  1  0
  1 18  1  0
  1 19  1  0
  1 20  1  0
  3 21  1  0
  4 22  1  0
  6 23  1  0
 12 24  1  0
 14 25  1  0
 14 26  1  0
 14 27  1  0
 17 28  1  0
M  CHG  1   8  -1
M  END
>  <UniqueID>  (4) 
4

>  <SMILES>  (4) 
Cc1ccc(O)c([N-]C(=O)c2cc(C)no2)c1

>  <Energy>  (4) 
60.41232074538949

>  <Genealogy>  (4) 
Cc1ccc(O)c([N-]C(=O)c2cc(C)no2)c1 (protonated)
Cc1ccc(O)c([N-]C(=O)c2cc(C)no2)c1 (3D coordinates assigned)
Cc1ccc(O)c([N-]C(=O)c2cc(C)no2)c1 (optimized conformer: 60.41232074538949 kcal/mol)

>  <smiles>  (4) 
Cc1ccc(O)c(NC(=O)c2cc(C)no2)c1

>  <score_type>  (4) 
oracle

>  <origin>  (4) 
adg

>  <m_score__min__energy>  (4) 
-10.119999999999999

>  <m_primary>  (4) 
energy

$$$$
4:0
     RDKit          3D

 36 37  0  0  0  0  0  0  0  0999 V2000
   59.2430   34.6510   47.0340 C   0  0  0  0  0  0  0  0  0  0  0  0
   59.7800   33.6310   46.1420 N   0  0  0  0  0  0  0  0  0  0  0  0
   59.8190   32.2350   46.4520 C   0  0  0  0  0  0  0  0  0  0  0  0
   60.7160   31.8030   47.2210 O   0  0  0  0  0  0  0  0  0  0  0  0
   58.8170   31.2950   45.9240 C   0  0  0  0  0  0  0  0  0  0  0  0
   58.8050   29.9210   46.0740 C   0  0  0  0  0  0  0  0  0  0  0  0
   59.7700   29.1750   46.8250 N   0  0  0  0  0  0  0  0  0  0  0  0
   59.4980   28.1830   47.8240 C   0  0  0  0  0  0  0  0  0  0  0  0
   59.1090   28.5660   48.9590 O   0  0  0  0  0  0  0  0  0  0  0  0
   59.7070   26.7090   47.5880 C   0  0  0  0  0  0  0  0  0  0  0  0
   58.6010   26.1150   46.7520 C   0  0  0  0  0  0  0  0  0  0  0  0
   58.8250   24.9530   45.9900 C   0  0  0  0  0  0  0  0  0  0  0  0
   57.7930   24.3980   45.2280 C   0  0  0  0  0  0  0  0  0  0  0  0
   56.5260   24.9880   45.2290 C   0  0  0  0  0  0  0  0  0  0  0  0
   56.2860   26.1270   46.0010 C   0  0  0  0  0  0  0  0  0  0  0  0
   55.0220   26.7060   46.0100 O   0  0  0  0  0  0  0  0  0  0  0  0
   57.3150   26.6840   46.7680 C   0  0  0  0  0  0  0  0  0  0  0  0
   57.7710   29.3990   45.4510 O   0  0  0  0  0  0  0  0  0  0  0  0
   57.1050   30.3700   44.8650 C   0  0  0  0  0  0  0  0  0  0  0  0
   55.8630   30.1700   44.0570 C   0  0  0  0  0  0  0  0  0  0  0  0
   55.1510   29.0620   44.5360 O   0  0  0  0  0  0  0  0  0  0  0  0
   57.7270   31.5760   45.1250 C   0  0  0  0  0  0  0  0  0  0  0  0
   57.3440   32.8170   44.6230 O   0  0  0  0  0  0  0  0  0  0  0  0
   59.4036   34.3460   48.0786 H   0  0  0  0  0  0  0  0  0  0  0  0
   59.7548   35.6068   46.8483 H   0  0  0  0  0  0  0  0  0  0  0  0
   58.1653   34.7700   46.8483 H   0  0  0  0  0  0  0  0  0  0  0  0
   60.6648   26.5638   47.0670 H   0  0  0  0  0  0  0  0  0  0  0  0
   59.7083   26.2024   48.5644 H   0  0  0  0  0  0  0  0  0  0  0  0
   59.8177   24.4790   45.9942 H   0  0  0  0  0  0  0  0  0  0  0  0
   57.9783   23.4957   44.6267 H   0  0  0  0  0  0  0  0  0  0  0  0
   55.7175   24.5552   44.6216 H   0  0  0  0  0  0  0  0  0  0  0  0
   57.1171   27.5716   47.3868 H   0  0  0  0  0  0  0  0  0  0  0  0
   55.2320   31.0679   44.1312 H   0  0  0  0  0  0  0  0  0  0  0  0
   56.1405   29.9937   43.0073 H   0  0  0  0  0  0  0  0  0  0  0  0
   55.8260   28.3820   44.7980 H   0  0  0  0  0  0  0  0  0  0  0  0
   57.8800   33.6530   44.8240 H   0  0  0  0  0  0  0  0  0  0  0  0
  1  2  1  0
  2  3  1  0
  3  4  2  0
  3  5  1  0
  5  6  2  0
  6  7  1  0
  7  8  1  0
  8  9  2  0
  8 10  1  0
 10 11  1  0
 11 12  2  0
 12 13  1  0
 13 14  2  0
 14 15  1  0
 15 16  1  0
 15 17  2  0
  6 18  1  0
 18 19  1  0
 19 20  1  0
 20 21  1  0
 19 22  2  0
 22 23  1  0
 22  5  1  0
 17 11  1  0
  1 24  1  0
  1 25  1  0
  1 26  1  0
 10 27  1  0
 10 28  1  0
 12 29  1  0
 13 30  1  0
 14 31  1  0
 17 32  1  0
 20 33  1  0
 20 34  1  0
 21 35  1  0
 23 36  1  0
M  CHG  3   2  -1   7  -1  16  -1
M  END
>  <UniqueID>  (5) 
5

>  <SMILES>  (5) 
C[N-]C(=O)c1c([N-]C(=O)Cc2cccc([O-])c2)oc(CO)c1O

>  <Energy>  (5) 
66.46011293364016

>  <Genealogy>  (5) 
C[N-]C(=O)c1c([N-]C(=O)Cc2cccc([O-])c2)oc(CO)c1O (protonated)
C[N-]C(=O)c1c([N-]C(=O)Cc2cccc([O-])c2)oc(CO)c1O (3D coordinates assigned)
C[N-]C(=O)c1c([N-]C(=O)Cc2cccc([O-])c2)oc(CO)c1O (optimized conformer: 66.46011293364016 kcal/mol)

>  <smiles>  (5) 
CNC(=O)c1c(NC(=O)Cc2cccc(O)c2)oc(CO)c1O

>  <score_type>  (5) 
oracle

>  <origin>  (5) 
adg

>  <m_score__min__energy>  (5) 
-12.550000000000001

>  <m_primary>  (5) 
energy

$$$$
5:0
     RDKit          3D

 48 50  0  0  0  0  0  0  0  0999 V2000
   60.2810   34.5910   48.4180 C   0  0  0  0  0  0  0  0  0  0  0  0
   59.5460   34.2680   47.1510 C   0  0  0  0  0  0  0  0  0  0  0  0
   59.5450   35.1780   46.0830 C   0  0  0  0  0  0  0  0  0  0  0  0
   58.8960   34.8570   44.8870 C   0  0  0  0  0  0  0  0  0  0  0  0
   58.2500   33.6260   44.7480 C   0  0  0  0  0  0  0  0  0  0  0  0
   58.2410   32.7080   45.8080 C   0  0  0  0  0  0  0  0  0  0  0  0
   57.5350   31.4220   45.6580 C   0  0  0  0  0  0  0  0  0  0  0  0
   57.7620   30.5010   46.4870 O   0  0  0  0  0  0  0  0  0  0  0  0
   56.6420   31.1630   44.5650 N   0  0  0  0  0  0  0  0  0  0  0  0
   56.8540   30.1960   43.4880 C   0  0  0  0  0  0  0  0  0  0  0  0
   57.0830   28.8180   44.0320 C   0  0  0  0  0  0  0  0  0  0  0  0
   57.7010   27.9730   43.3290 O   0  0  0  0  0  0  0  0  0  0  0  0
   56.6310   28.4730   45.3500 N   0  0  0  0  0  0  0  0  0  0  0  0
   56.9090   27.2000   45.9470 C   0  0  0  0  0  0  0  0  0  0  0  0
   55.9770   26.1630   45.7970 C   0  0  0  0  0  0  0  0  0  0  0  0
   56.1950   24.9230   46.4000 C   0  0  0  0  0  0  0  0  0  0  0  0
   57.3510   24.7040   47.1500 C   0  0  0  0  0  0  0  0  0  0  0  0
   58.2990   25.7210   47.2880 C   0  0  0  0  0  0  0  0  0  0  0  0
   58.0960   26.9710   46.6800 C   0  0  0  0  0  0  0  0  0  0  0  0
   59.1130   27.9870   46.7730 N   0  0  0  0  0  0  0  0  0  0  0  0
   59.9780   28.2520   45.6220 C   0  0  0  0  0  0  0  0  0  0  0  0
   60.4850   29.6960   45.6860 C   0  0  0  0  0  0  0  0  0  0  0  0
   61.0840   29.9620   46.9410 O   0  0  0  0  0  0  0  0  0  0  0  0
   60.1120   29.8790   47.9650 C   0  0  0  0  0  0  0  0  0  0  0  0
   59.5660   28.4510   48.0860 C   0  0  0  0  0  0  0  0  0  0  0  0
   58.9120   33.0250   47.0020 C   0  0  0  0  0  0  0  0  0  0  0  0
   59.6587   34.3175   49.2828 H   0  0  0  0  0  0  0  0  0  0  0  0
   61.2230   34.0239   48.4502 H   0  0  0  0  0  0  0  0  0  0  0  0
   60.5003   35.6684   48.4502 H   0  0  0  0  0  0  0  0  0  0  0  0
   60.0561   36.1465   46.1870 H   0  0  0  0  0  0  0  0  0  0  0  0
   58.8940   35.5751   44.0537 H   0  0  0  0  0  0  0  0  0  0  0  0
   57.7461   33.3758   43.8027 H   0  0  0  0  0  0  0  0  0  0  0  0
   55.9662   30.1822   42.8387 H   0  0  0  0  0  0  0  0  0  0  0  0
   57.7462   30.4983   42.9200 H   0  0  0  0  0  0  0  0  0  0  0  0
   56.2750   29.2360   45.9680 H   0  0  0  0  0  0  0  0  0  0  0  0
   55.0679   26.3278   45.2001 H   0  0  0  0  0  0  0  0  0  0  0  0
   55.4547   24.1178   46.2838 H   0  0  0  0  0  0  0  0  0  0  0  0
   57.5162   23.7297   47.6331 H   0  0  0  0  0  0  0  0  0  0  0  0
   59.2107   25.5416   47.8768 H   0  0  0  0  0  0  0  0  0  0  0  0
   60.8342   27.5616   45.6401 H   0  0  0  0  0  0  0  0  0  0  0  0
   59.4076   28.1045   44.6931 H   0  0  0  0  0  0  0  0  0  0  0  0
   61.2285   29.8530   44.8907 H   0  0  0  0  0  0  0  0  0  0  0  0
   59.6313   30.3764   45.5508 H   0  0  0  0  0  0  0  0  0  0  0  0
   60.5702   30.1717   48.9212 H   0  0  0  0  0  0  0  0  0  0  0  0
   59.2798   30.5538   47.7155 H   0  0  0  0  0  0  0  0  0  0  0  0
   60.3598   27.7854   48.4560 H   0  0  0  0  0  0  0  0  0  0  0  0
   58.7204   28.4409   48.7895 H   0  0  0  0  0  0  0  0  0  0  0  0
   58.9402   32.2946   47.8240 H   0  0  0  0  0  0  0  0  0  0  0  0
  1  2  1  0
  2  3  2  0
  3  4  1  0
  4  5  2  0
  5  6  1  0
  6  7  1  0
  7  8  2  0
  7  9  1  0
  9 10  1  0
 10 11  1  0
 11 12  2  0
 11 13  1  0
 13 14  1  0
 14 15  2  0
 15 16  1  0
 16 17  2  0
 17 18  1  0
 18 19  2  0
 19 20  1  0
 20 21  1  0
 21 22  1  0
 22 23  1  0
 23 24  1  0
 24 25  1  0
  6 26  2  0
 26  2  1  0
 19 14  1  0
 25 20  1  0
  1 27  1  0
  1 28  1  0
  1 29  1  0
  3 30  1  0
  4 31  1  0
  5 32  1  0
 10 33  1  0
 10 34  1  0
 13 35  1  0
 15 36  1  0
 16 37  1  0
 17 38  1  0
 18 39  1  0
 21 40  1  0
 21 41  1  0
 22 42  1  0
 22 43  1  0
 24 44  1  0
 24 45  1  0
 25 46  1  0
 25 47  1  0
 26 48  1  0
M  CHG  1   9  -1
M  END
>  <UniqueID>  (6) 
6

>  <SMILES>  (6) 
Cc1cccc(C(=O)[N-]CC(=O)Nc2ccccc2N2CCOCC2)c1

>  <Energy>  (6) 
59.24597687254536

>  <Genealogy>  (6) 
Cc1cccc(C(=O)[N-]CC(=O)Nc2ccccc2N2CCOCC2)c1 (protonated)
Cc1cccc(C(=O)[N-]CC(=O)Nc2ccccc2N2CCOCC2)c1 (3D coordinates assigned)
Cc1cccc(C(=O)[N-]CC(=O)Nc2ccccc2N2CCOCC2)c1 (nonaromatic ring conformer: 59.24597687254536 kcal/mol)

>  <smiles>  (6) 
Cc1cccc(C(=O)NCC(=O)Nc2ccccc2N2CCOCC2)c1

>  <score_type>  (6) 
oracle

>  <origin>  (6) 
adg

>  <m_score__min__energy>  (6) 
-9.3699999999999992

>  <m_primary>  (6) 
energy

$$$$
6:0
     RDKit          3D

 36 38  0  0  0  0  0  0  0  0999 V2000
   64.0710   32.7930   53.2440 C   0  0  0  0  0  0  0  0  0  0  0  0
   63.6200   33.0550   51.8600 C   0  0  0  0  0  0  0  0  0  0  0  0
   62.3290   33.4090   51.6080 N   0  0  0  0  0  0  0  0  0  0  0  0
   61.9160   33.6470   50.3560 C   0  0  0  0  0  0  0  0  0  0  0  0
   60.2900   34.1180   49.7420 S   0  0  0  0  0  0  0  0  0  0  0  0
   60.8140   34.1690   48.0130 C   0  0  0  0  0  0  0  0  0  0  0  0
   59.9380   34.4960   46.9390 C   0  0  0  0  0  0  0  0  0  0  0  0
   59.5720   35.6480   46.5890 O   0  0  0  0  0  0  0  0  0  0  0  0
   59.3880   33.4250   46.1360 N   0  0  0  0  0  0  0  0  0  0  0  0
   58.5190   33.6850   45.0640 C   0  0  0  0  0  0  0  0  0  0  0  0
   58.2110   34.8760   44.7930 O   0  0  0  0  0  0  0  0  0  0  0  0
   57.9360   32.6500   44.2230 C   0  0  0  0  0  0  0  0  0  0  0  0
   58.1570   32.7090   42.8610 C   0  0  0  0  0  0  0  0  0  0  0  0
   57.6310   31.7540   41.9860 C   0  0  0  0  0  0  0  0  0  0  0  0
   56.8680   30.7130   42.4780 C   0  0  0  0  0  0  0  0  0  0  0  0
   56.6480   30.6550   43.8380 C   0  0  0  0  0  0  0  0  0  0  0  0
   55.6840   29.3560   44.5280 Cl  0  0  0  0  0  0  0  0  0  0  0  0
   57.1760   31.6120   44.7000 C   0  0  0  0  0  0  0  0  0  0  0  0
   62.1640   33.8270   48.0450 C   0  0  0  0  0  0  0  0  0  0  0  0
   62.9250   33.7870   46.7290 C   0  0  0  0  0  0  0  0  0  0  0  0
   62.7120   33.5650   49.2340 C   0  0  0  0  0  0  0  0  0  0  0  0
   64.0460   33.1950   49.5310 C   0  0  0  0  0  0  0  0  0  0  0  0
   64.9150   33.0700   48.6380 O   0  0  0  0  0  0  0  0  0  0  0  0
   64.4140   32.9680   50.7890 N   0  0  0  0  0  0  0  0  0  0  0  0
   63.3437   33.2155   53.9528 H   0  0  0  0  0  0  0  0  0  0  0  0
   64.1512   31.7077   53.4042 H   0  0  0  0  0  0  0  0  0  0  0  0
   65.0535   33.2609   53.4042 H   0  0  0  0  0  0  0  0  0  0  0  0
   59.6280   32.4330   46.3390 H   0  0  0  0  0  0  0  0  0  0  0  0
   58.7641   33.5307   42.4532 H   0  0  0  0  0  0  0  0  0  0  0  0
   57.8247   31.8316   40.9060 H   0  0  0  0  0  0  0  0  0  0  0  0
   56.4478   29.9519   41.8041 H   0  0  0  0  0  0  0  0  0  0  0  0
   56.9810   31.5349   45.7798 H   0  0  0  0  0  0  0  0  0  0  0  0
   64.0047   33.7302   46.9314 H   0  0  0  0  0  0  0  0  0  0  0  0
   62.6132   32.9040   46.1518 H   0  0  0  0  0  0  0  0  0  0  0  0
   62.7075   34.6978   46.1518 H   0  0  0  0  0  0  0  0  0  0  0  0
   65.4130   32.6950   50.9760 H   0  0  0  0  0  0  0  0  0  0  0  0
  1  2  1  0
  2  3  2  0
  3  4  1  0
  4  5  1  0
  5  6  1  0
  6  7  1  0
  7  8  2  0
  7  9  1  0
  9 10  1  0
 10 11  2  0
 10 12  1  0
 12 13  2  0
 13 14  1  0
 14 15  2  0
 15 16  1  0
 16 17  1  0
 16 18  2  0
  6 19  2  0
 19 20  1  0
 19 21  1  0
 21 22  1  0
 22 23  2  0
 22 24  1  0
 24  2  1  0
 21  4  2  0
 18 12  1  0
  1 25  1  0
  1 26  1  0
  1 27  1  0
  9 28  1  0
 13 29  1  0
 14 30  1  0
 15 31  1  0
 18 32  1  0
 20 33  1  0
 20 34  1  0
 20 35  1  0
 24 36  1  0
M  END
>  <smiles>  (7) 
Cc1nc2sc(C(=O)NC(=O)c3cccc(Cl)c3)c(C)c2c(=O)[nH]1

>  <score_type>  (7) 
oracle

>  <origin>  (7) 
adg

>  <m_score__min__energy>  (7) 
-8.3499999999999996

>  <m_primary>  (7) 
energy

$$$$
7:0
     RDKit          3D

 64 67  0  0  0  0  0  0  0  0999 V2000
   58.3620   32.0730   49.0380 C   0  0  0  0  0  0  0  0  0  0  0  0
   59.8120   32.4240   48.7980 C   0  0  0  0  0  0  0  0  0  0  0  0
   60.3960   33.4980   49.5150 C   0  0  0  0  0  0  0  0  0  0  0  0
   59.6150   34.3020   50.4070 N   0  0  0  0  0  0  0  0  0  0  0  0
   59.4370   33.8640   52.0710 S   0  0  0  0  0  0  0  0  0  0  0  0
   58.6000   34.8990   52.7690 O   0  0  0  0  0  0  0  0  0  0  0  0
   60.7820   33.8070   52.7420 O   0  0  0  0  0  0  0  0  0  0  0  0
   58.6480   32.2960   52.1610 C   0  0  0  0  0  0  0  0  0  0  0  0
   57.2510   32.2090   52.1610 C   0  0  0  0  0  0  0  0  0  0  0  0
   56.6260   30.9610   52.1920 C   0  0  0  0  0  0  0  0  0  0  0  0
   57.3920   29.7930   52.2230 C   0  0  0  0  0  0  0  0  0  0  0  0
   58.7970   29.8630   52.2230 C   0  0  0  0  0  0  0  0  0  0  0  0
   59.6160   28.6310   52.2030 C   0  0  0  0  0  0  0  0  0  0  0  0
   59.4270   27.7550   53.0920 O   0  0  0  0  0  0  0  0  0  0  0  0
   60.6340   28.4180   51.2110 N   0  0  0  0  0  0  0  0  0  0  0  0
   60.3210   28.6260   49.7940 C   0  0  0  0  0  0  0  0  0  0  0  0
   61.8970   27.7930   51.6140 C   0  0  0  0  0  0  0  0  0  0  0  0
   59.4180   31.1240   52.1770 C   0  0  0  0  0  0  0  0  0  0  0  0
   61.7480   33.8090   49.3320 C   0  0  0  0  0  0  0  0  0  0  0  0
   62.5260   33.0800   48.4370 C   0  0  0  0  0  0  0  0  0  0  0  0
   61.9660   32.0220   47.7270 C   0  0  0  0  0  0  0  0  0  0  0  0
   60.6250   31.6640   47.9170 C   0  0  0  0  0  0  0  0  0  0  0  0
   59.9930   30.2760   46.9550 S   0  0  0  0  0  0  0  0  0  0  0  0
   59.0220   31.3020   45.8390 C   0  0  0  0  0  0  0  0  0  0  0  0
   59.0660   32.6980   45.9760 C   0  0  0  0  0  0  0  0  0  0  0  0
   58.2830   33.5110   45.1560 C   0  0  0  0  0  0  0  0  0  0  0  0
   57.4220   32.9370   44.2200 C   0  0  0  0  0  0  0  0  0  0  0  0
   57.3550   31.5470   44.0910 C   0  0  0  0  0  0  0  0  0  0  0  0
   58.1700   30.7160   44.8850 C   0  0  0  0  0  0  0  0  0  0  0  0
   58.1110   29.3170   44.7960 O   0  0  0  0  0  0  0  0  0  0  0  0
   57.0190   28.5190   45.1670 C   0  0  0  0  0  0  0  0  0  0  0  0
   55.8470   28.9750   45.0940 O   0  0  0  0  0  0  0  0  0  0  0  0
   57.2530   27.1160   45.5920 C   0  0  0  0  0  0  0  0  0  0  0  0
   58.5640   26.6030   45.5860 C   0  0  0  0  0  0  0  0  0  0  0  0
   58.8160   25.2910   45.9950 C   0  0  0  0  0  0  0  0  0  0  0  0
   57.7660   24.4720   46.4110 C   0  0  0  0  0  0  0  0  0  0  0  0
   56.4590   24.9600   46.4140 C   0  0  0  0  0  0  0  0  0  0  0  0
   56.1930   26.2730   46.0040 C   0  0  0  0  0  0  0  0  0  0  0  0
   54.8730   26.7160   46.0040 O   0  0  0  0  0  0  0  0  0  0  0  0
   58.1702   32.0266   50.1202 H   0  0  0  0  0  0  0  0  0  0  0  0
   57.7188   32.8414   48.5843 H   0  0  0  0  0  0  0  0  0  0  0  0
   58.1414   31.0955   48.5843 H   0  0  0  0  0  0  0  0  0  0  0  0
   58.9920   35.0480   50.0250 H   0  0  0  0  0  0  0  0  0  0  0  0
   56.6441   33.1261   52.1365 H   0  0  0  0  0  0  0  0  0  0  0  0
   55.5279   30.8971   52.1920 H   0  0  0  0  0  0  0  0  0  0  0  0
   56.8935   28.8128   52.2476 H   0  0  0  0  0  0  0  0  0  0  0  0
   59.4078   29.2328   49.7054 H   0  0  0  0  0  0  0  0  0  0  0  0
   61.1573   29.1486   49.3067 H   0  0  0  0  0  0  0  0  0  0  0  0
   60.1631   27.6526   49.3067 H   0  0  0  0  0  0  0  0  0  0  0  0
   61.9574   27.7631   52.7119 H   0  0  0  0  0  0  0  0  0  0  0  0
   61.9424   26.7684   51.2163 H   0  0  0  0  0  0  0  0  0  0  0  0
   62.7391   28.3784   51.2163 H   0  0  0  0  0  0  0  0  0  0  0  0
   60.5157   31.1915   52.1534 H   0  0  0  0  0  0  0  0  0  0  0  0
   62.1995   34.6359   49.8998 H   0  0  0  0  0  0  0  0  0  0  0  0
   63.5847   33.3404   48.2907 H   0  0  0  0  0  0  0  0  0  0  0  0
   62.5827   31.4611   47.0093 H   0  0  0  0  0  0  0  0  0  0  0  0
   59.7209   33.1533   46.7335 H   0  0  0  0  0  0  0  0  0  0  0  0
   58.3445   34.6055   45.2475 H   0  0  0  0  0  0  0  0  0  0  0  0
   56.7956   33.5789   43.5832 H   0  0  0  0  0  0  0  0  0  0  0  0
   56.6612   31.0987   43.3646 H   0  0  0  0  0  0  0  0  0  0  0  0
   59.3974   27.2408   45.2564 H   0  0  0  0  0  0  0  0  0  0  0  0
   59.8452   24.9027   45.9890 H   0  0  0  0  0  0  0  0  0  0  0  0
   57.9687   23.4411   46.7368 H   0  0  0  0  0  0  0  0  0  0  0  0
   55.6332   24.3106   46.7399 H   0  0  0  0  0  0  0  0  0  0  0  0
  1  2  1  0
  2  3  2  0
  3  4  1  0
  4  5  1  0
  5  6  2  0
  5  7  2  0
  5  8  1  0
  8  9  2  0
  9 10  1  0
 10 11  2  0
 11 12  1  0
 12 13  1  0
 13 14  2  0
 13 15  1  0
 15 16  1  0
 15 17  1  0
 12 18  2  0
  3 19  1  0
 19 20  2  0
 20 21  1  0
 21 22  2  0
 22 23  1  0
 23 24  1  0
 24 25  2  0
 25 26  1  0
 26 27  2  0
 27 28  1  0
 28 29  2  0
 29 30  1  0
 30 31  1  0
 31 32  2  0
 31 33  1  0
 33 34  2  0
 34 35  1  0
 35 36  2  0
 36 37  1  0
 37 38  2  0
 38 39  1  0
 22  2  1  0
 29 24  1  0
 38 33  1  0
 18  8  1  0
  1 40  1  0
  1 41  1  0
  1 42  1  0
  4 43  1  0
  9 44  1  0
 10 45  1  0
 11 46  1  0
 16 47  1  0
 16 48  1  0
 16 49  1  0
 17 50  1  0
 17 51  1  0
 17 52  1  0
 18 53  1  0
 19 54  1  0
 20 55  1  0
 21 56  1  0
 25 57  1  0
 26 58  1  0
 27 59  1  0
 28 60  1  0
 34 61  1  0
 35 62  1  0
 36 63  1  0
 37 64  1  0
M  CHG  1  39  -1
M  END
>  <UniqueID>  (8) 
7

>  <SMILES>  (8) 
Cc1c(NS(=O)(=O)c2cccc(C(=O)N(C)C)c2)cccc1Sc1ccccc1OC(=O)c1ccccc1[O-]

>  <Energy>  (8) 
76.49533914727313

>  <Genealogy>  (8) 
Cc1c(NS(=O)(=O)c2cccc(C(=O)N(C)C)c2)cccc1Sc1ccccc1OC(=O)c1ccccc1[O-] (protonated)
Cc1c(NS(=O)(=O)c2cccc(C(=O)N(C)C)c2)cccc1Sc1ccccc1OC(=O)c1ccccc1[O-] (3D coordinates assigned)
Cc1c(NS(=O)(=O)c2cccc(C(=O)N(C)C)c2)cccc1Sc1ccccc1OC(=O)c1ccccc1[O-] (optimized conformer: 76.49533914727313 kcal/mol)

>  <smiles>  (8) 
Cc1c(NS(=O)(=O)c2cccc(C(=O)N(C)C)c2)cccc1Sc1ccccc1OC(=O)c1ccccc1O

>  <score_type>  (8) 
oracle

>  <origin>  (8) 
adg

>  <m_score__min__energy>  (8) 
-14.380000000000001

>  <m_primary>  (8) 
energy

$$$$
8:0
     RDKit          3D

 48 51  0  0  0  0  0  0  0  0999 V2000
   51.6100   23.8700   44.5960 C   0  0  0  0  0  0  0  0  0  0  0  0
   52.7530   23.0310   44.7140 O   0  0  0  0  0  0  0  0  0  0  0  0
   54.0590   23.5090   44.5730 C   0  0  0  0  0  0  0  0  0  0  0  0
   54.5010   24.5500   45.3950 C   0  0  0  0  0  0  0  0  0  0  0  0
   55.8120   25.0380   45.2630 C   0  0  0  0  0  0  0  0  0  0  0  0
   56.3010   26.1390   46.1260 C   0  0  0  0  0  0  0  0  0  0  0  0
   56.7310   25.8880   47.2850 O   0  0  0  0  0  0  0  0  0  0  0  0
   56.3180   27.4850   45.6360 N   0  0  0  0  0  0  0  0  0  0  0  0
   57.4190   28.3890   45.7890 C   0  0  0  0  0  0  0  0  0  0  0  0
   58.4710   28.0260   46.6380 C   0  0  0  0  0  0  0  0  0  0  0  0
   59.5640   28.8760   46.8150 C   0  0  0  0  0  0  0  0  0  0  0  0
   59.6390   30.0880   46.1220 C   0  0  0  0  0  0  0  0  0  0  0  0
   60.7450   30.9220   46.3410 O   0  0  0  0  0  0  0  0  0  0  0  0
   60.9710   31.6760   47.5020 C   0  0  0  0  0  0  0  0  0  0  0  0
   61.8700   31.2580   48.4430 N   0  0  0  0  0  0  0  0  0  0  0  0
   62.1210   31.9870   49.5640 C   0  0  0  0  0  0  0  0  0  0  0  0
   61.4500   33.1880   49.7860 C   0  0  0  0  0  0  0  0  0  0  0  0
   60.5090   33.6260   48.8560 C   0  0  0  0  0  0  0  0  0  0  0  0
   60.2430   32.8640   47.7090 C   0  0  0  0  0  0  0  0  0  0  0  0
   59.2420   33.3370   46.7250 C   0  0  0  0  0  0  0  0  0  0  0  0
   59.6660   33.9350   45.5290 C   0  0  0  0  0  0  0  0  0  0  0  0
   58.7300   34.3780   44.5940 C   0  0  0  0  0  0  0  0  0  0  0  0
   57.3690   34.2250   44.8640 C   0  0  0  0  0  0  0  0  0  0  0  0
   56.9670   33.6580   46.0310 N   0  0  0  0  0  0  0  0  0  0  0  0
   57.8560   33.2180   46.9620 C   0  0  0  0  0  0  0  0  0  0  0  0
   57.4270   32.7230   48.0380 O   0  0  0  0  0  0  0  0  0  0  0  0
   58.5910   30.4530   45.2580 C   0  0  0  0  0  0  0  0  0  0  0  0
   57.4920   29.6050   45.0760 C   0  0  0  0  0  0  0  0  0  0  0  0
   56.2750   30.0600   43.8890 Cl  0  0  0  0  0  0  0  0  0  0  0  0
   56.6530   24.4600   44.2980 C   0  0  0  0  0  0  0  0  0  0  0  0
   56.1750   23.4220   43.4950 C   0  0  0  0  0  0  0  0  0  0  0  0
   56.9800   22.8590   42.5620 F   0  0  0  0  0  0  0  0  0  0  0  0
   54.9020   22.9730   43.6470 N   0  0  0  0  0  0  0  0  0  0  0  0
   51.2461   24.1371   45.5991 H   0  0  0  0  0  0  0  0  0  0  0  0
   51.8816   24.7848   44.0488 H   0  0  0  0  0  0  0  0  0  0  0  0
   50.8186   23.3367   44.0488 H   0  0  0  0  0  0  0  0  0  0  0  0
   53.8235   24.9863   46.1438 H   0  0  0  0  0  0  0  0  0  0  0  0
   58.4361   27.0637   47.1697 H   0  0  0  0  0  0  0  0  0  0  0  0
   60.3720   28.5903   47.5046 H   0  0  0  0  0  0  0  0  0  0  0  0
   62.3720   30.3510   48.3230 H   0  0  0  0  0  0  0  0  0  0  0  0
   62.8567   31.6269   50.2982 H   0  0  0  0  0  0  0  0  0  0  0  0
   61.6609   33.7842   50.6860 H   0  0  0  0  0  0  0  0  0  0  0  0
   59.9733   34.5723   49.0221 H   0  0  0  0  0  0  0  0  0  0  0  0
   60.7407   34.0551   45.3275 H   0  0  0  0  0  0  0  0  0  0  0  0
   59.0611   34.8430   43.6537 H   0  0  0  0  0  0  0  0  0  0  0  0
   56.6217   34.5638   44.1313 H   0  0  0  0  0  0  0  0  0  0  0  0
   58.6352   31.4121   44.7211 H   0  0  0  0  0  0  0  0  0  0  0  0
   57.6840   24.8233   44.1751 H   0  0  0  0  0  0  0  0  0  0  0  0
  1  2  1  0
  2  3  1  0
  3  4  2  0
  4  5  1  0
  5  6  1  0
  6  7  2  0
  6  8  1  0
  8  9  1  0
  9 10  2  0
 10 11  1  0
 11 12  2  0
 12 13  1  0
 13 14  1  0
 14 15  2  0
 15 16  1  0
 16 17  2  0
 17 18  1  0
 18 19  2  0
 19 20  1  0
 20 21  2  0
 21 22  1  0
 22 23  2  0
 23 24  1  0
 24 25  1  0
 25 26  2  0
 12 27  1  0
 27 28  2  0
 28 29  1  0
  5 30  2  0
 30 31  1  0
 31 32  1  0
 31 33  2  0
 33  3  1  0
 28  9  1  0
 19 14  1  0
 25 20  1  0
  1 34  1  0
  1 35  1  0
  1 36  1  0
  4 37  1  0
 10 38  1  0
 11 39  1  0
 15 40  1  0
 16 41  1  0
 17 42  1  0
 18 43  1  0
 21 44  1  0
 22 45  1  0
 23 46  1  0
 27 47  1  0
 30 48  1  0
M  CHG  3   8  -1  15   1  24  -1
M  END
>  <UniqueID>  (9) 
8

>  <SMILES>  (9) 
COc1cc(C(=O)[N-]c2ccc(Oc3[nH+]cccc3-c3ccc[n-]c3=O)cc2Cl)cc(F)n1

>  <Energy>  (9) 
73.70403275909831

>  <Genealogy>  (9) 
COc1cc(C(=O)[N-]c2ccc(Oc3[nH+]cccc3-c3ccc[n-]c3=O)cc2Cl)cc(F)n1 (protonated)
COc1cc(C(=O)[N-]c2ccc(Oc3[nH+]cccc3-c3ccc[n-]c3=O)cc2Cl)cc(F)n1 (3D coordinates assigned)
COc1cc(C(=O)[N-]c2ccc(Oc3[nH+]cccc3-c3ccc[n-]c3=O)cc2Cl)cc(F)n1 (optimized conformer: 73.70403275909831 kcal/mol)

>  <smiles>  (9) 
COc1cc(C(=O)Nc2ccc(Oc3ncccc3-c3ccc[nH]c3=O)cc2Cl)cc(F)n1

>  <score_type>  (9) 
oracle

>  <origin>  (9) 
adg

>  <m_score__min__energy>  (9) 
-9.9600000000000009

>  <m_primary>  (9) 
energy

$$$$
9:0
     RDKit          3D

 41 43  0  0  0  0  0  0  0  0999 V2000
   61.5370   34.0140   48.1150 O   0  0  0  0  0  0  0  0  0  0  0  0
   60.2950   34.0950   48.3040 C   0  0  0  0  0  0  0  0  0  0  0  0
   59.8100   34.2260   49.6470 N   0  0  0  0  0  0  0  0  0  0  0  0
   59.2270   33.1830   50.4430 C   0  0  0  0  0  0  0  0  0  0  0  0
   59.2900   31.8320   50.0580 C   0  0  0  0  0  0  0  0  0  0  0  0
   58.7780   30.8360   50.8950 C   0  0  0  0  0  0  0  0  0  0  0  0
   58.2090   31.1760   52.1300 C   0  0  0  0  0  0  0  0  0  0  0  0
   57.6130   29.9230   53.2170 S   0  0  0  0  0  0  0  0  0  0  0  0
   57.3920   28.6420   52.4590 O   0  0  0  0  0  0  0  0  0  0  0  0
   58.6450   29.6830   54.2810 O   0  0  0  0  0  0  0  0  0  0  0  0
   56.1300   30.4360   53.9740 N   0  0  0  0  0  0  0  0  0  0  0  0
   55.0010   29.5920   53.5780 C   0  0  0  0  0  0  0  0  0  0  0  0
   53.8570   30.4240   53.0660 C   0  0  0  0  0  0  0  0  0  0  0  0
   53.8770   30.9180   51.7510 C   0  0  0  0  0  0  0  0  0  0  0  0
   52.8070   31.6780   51.2680 C   0  0  0  0  0  0  0  0  0  0  0  0
   51.7140   31.9530   52.0950 C   0  0  0  0  0  0  0  0  0  0  0  0
   50.6580   32.7220   51.6170 O   0  0  0  0  0  0  0  0  0  0  0  0
   51.6840   31.4580   53.4020 C   0  0  0  0  0  0  0  0  0  0  0  0
   52.7510   30.6970   53.8870 C   0  0  0  0  0  0  0  0  0  0  0  0
   58.1540   32.5190   52.5190 C   0  0  0  0  0  0  0  0  0  0  0  0
   58.6590   33.5170   51.6790 C   0  0  0  0  0  0  0  0  0  0  0  0
   59.3900   34.1030   47.1370 C   0  0  0  0  0  0  0  0  0  0  0  0
   58.1590   33.4280   47.1610 C   0  0  0  0  0  0  0  0  0  0  0  0
   57.3180   33.4920   46.0470 C   0  0  0  0  0  0  0  0  0  0  0  0
   57.7080   34.2200   44.9240 C   0  0  0  0  0  0  0  0  0  0  0  0
   58.9340   34.8880   44.9350 C   0  0  0  0  0  0  0  0  0  0  0  0
   59.7350   34.8210   46.0310 N   0  0  0  0  0  0  0  0  0  0  0  0
   59.7440   31.5577   49.0943 H   0  0  0  0  0  0  0  0  0  0  0  0
   58.8219   29.7820   50.5833 H   0  0  0  0  0  0  0  0  0  0  0  0
   55.3278   28.9035   52.7848 H   0  0  0  0  0  0  0  0  0  0  0  0
   54.6580   29.0307   54.4596 H   0  0  0  0  0  0  0  0  0  0  0  0
   54.7373   30.7063   51.0990 H   0  0  0  0  0  0  0  0  0  0  0  0
   52.8255   32.0597   50.2365 H   0  0  0  0  0  0  0  0  0  0  0  0
   50.8197   31.6677   54.0493 H   0  0  0  0  0  0  0  0  0  0  0  0
   52.7244   30.3102   54.9164 H   0  0  0  0  0  0  0  0  0  0  0  0
   57.7120   32.7909   53.4889 H   0  0  0  0  0  0  0  0  0  0  0  0
   58.6098   34.5707   51.9910 H   0  0  0  0  0  0  0  0  0  0  0  0
   57.8591   32.8534   48.0497 H   0  0  0  0  0  0  0  0  0  0  0  0
   56.3503   32.9691   46.0561 H   0  0  0  0  0  0  0  0  0  0  0  0
   57.0569   34.2677   44.0387 H   0  0  0  0  0  0  0  0  0  0  0  0
   59.2517   35.4687   44.0564 H   0  0  0  0  0  0  0  0  0  0  0  0
  1  2  2  0
  2  3  1  0
  3  4  1  0
  4  5  2  0
  5  6  1  0
  6  7  2  0
  7  8  1  0
  8  9  2  0
  8 10  2  0
  8 11  1  0
 11 12  1  0
 12 13  1  0
 13 14  2  0
 14 15  1  0
 15 16  2  0
 16 17  1  0
 16 18  1  0
 18 19  2  0
  7 20  1  0
 20 21  2  0
  2 22  1  0
 22 23  2  0
 23 24  1  0
 24 25  2  0
 25 26  1  0
 26 27  2  0
 21  4  1  0
 27 22  1  0
 19 13  1  0
  5 28  1  0
  6 29  1  0
 12 30  1  0
 12 31  1  0
 14 32  1  0
 15 33  1  0
 18 34  1  0
 19 35  1  0
 20 36  1  0
 21 37  1  0
 23 38  1  0
 24 39  1  0
 25 40  1  0
 26 41  1  0
M  CHG  3   3  -1  11  -1  17  -1
M  END
>  <UniqueID>  (10) 
9

>  <SMILES>  (10) 
O=C([N-]c1ccc(S(=O)(=O)[N-]Cc2ccc([O-])cc2)cc1)c1ccccn1

>  <Energy>  (10) 
45.79927406213501

>  <Genealogy>  (10) 
O=C([N-]c1ccc(S(=O)(=O)[N-]Cc2ccc([O-])cc2)cc1)c1ccccn1 (protonated)
O=C([N-]c1ccc(S(=O)(=O)[N-]Cc2ccc([O-])cc2)cc1)c1ccccn1 (3D coordinates assigned)
O=C([N-]c1ccc(S(=O)(=O)[N-]Cc2ccc([O-])cc2)cc1)c1ccccn1 (optimized conformer: 45.79927406213501 kcal/mol)

>  <smiles>  (10) 
O=C(Nc1ccc(S(=O)(=O)NCc2ccc(O)cc2)cc1)c1ccccn1

>  <score_type>  (10) 
oracle

>  <origin>  (10) 
adg

>  <m_score__min__energy>  (10) 
-14.19

>  <m_primary>  (10) 
energy

$$$$
10:0
     RDKit          3D

 51 54  0  0  1  0  0  0  0  0999 V2000
   63.7720   33.0630   47.0280 C   0  0  0  0  0  0  0  0  0  0  0  0
   62.4070   33.4640   47.4620 C   0  0  0  0  0  0  0  0  0  0  0  0
   61.4190   33.8360   46.5660 C   0  0  0  0  0  0  0  0  0  0  0  0
   60.1570   34.2000   47.0430 C   0  0  0  0  0  0  0  0  0  0  0  0
   59.2450   34.5450   46.1970 N   0  0  0  0  0  0  0  0  0  0  0  0
   58.6080   33.4820   45.4760 C   0  0  0  0  0  0  0  0  0  0  0  0
   58.4950   33.4830   44.1010 C   0  0  0  0  0  0  0  0  0  0  0  0
   57.8730   32.4410   43.4180 C   0  0  0  0  0  0  0  0  0  0  0  0
   57.3530   31.3780   44.1310 C   0  0  0  0  0  0  0  0  0  0  0  0
   56.5610   30.0410   43.3320 S   0  0  0  0  0  0  0  0  0  0  0  0
   57.5420   28.6200   43.3670 N   0  0  0  0  0  0  0  0  0  0  0  0
   56.2960   30.4150   41.9060 O   0  0  0  0  0  0  0  0  0  0  0  0
   55.2780   29.7140   44.0750 O   0  0  0  0  0  0  0  0  0  0  0  0
   57.4670   31.3790   45.5050 C   0  0  0  0  0  0  0  0  0  0  0  0
   58.0830   32.4110   46.1690 C   0  0  0  0  0  0  0  0  0  0  0  0
   59.8830   34.1960   48.3750 N   0  0  0  0  0  0  0  0  0  0  0  0
   60.8670   33.8280   49.2210 C   0  0  0  0  0  0  0  0  0  0  0  0
   60.6050   33.7900   51.0060 S   0  0  0  0  0  0  0  0  0  0  0  0
   59.4560   32.4190   51.3070 C   0  0  0  0  0  0  0  0  0  0  0  0
   59.3260   31.5120   50.1540 C   0  0  0  0  0  0  0  0  0  0  0  0
   58.1760   31.0590   49.8880 O   0  0  0  0  0  0  0  0  0  0  0  0
   60.4210   31.1180   49.3280 N   0  0  0  0  0  0  0  0  0  0  0  0
   60.1140   30.2330   48.2530 C   0  0  0  0  0  0  0  0  0  0  0  0
   60.5640   30.6170   46.9930 C   0  0  0  0  0  0  0  0  0  0  0  0
   60.3290   29.8390   45.8720 C   0  0  0  0  0  0  0  0  0  0  0  0
   59.6270   28.6660   46.0580 C   0  0  0  0  0  0  0  0  0  0  0  0
   59.1720   28.2730   47.3160 C   0  0  0  0  0  0  0  0  0  0  0  0
   59.4130   29.0570   48.4240 C   0  0  0  0  0  0  0  0  0  0  0  0
   58.5030   27.0480   47.1570 O   0  0  0  0  0  0  0  0  0  0  0  0
   58.2240   26.8860   45.7730 C   0  0  0  0  0  0  0  0  0  0  0  0
   59.2340   27.6820   45.1540 O   0  0  0  0  0  0  0  0  0  0  0  0
   62.0910   33.4740   48.7690 N   0  0  0  0  0  0  0  0  0  0  0  0
   64.3988   32.8789   47.9130 H   0  0  0  0  0  0  0  0  0  0  0  0
   63.7102   32.1451   46.4250 H   0  0  0  0  0  0  0  0  0  0  0  0
   64.2165   33.8685   46.4250 H   0  0  0  0  0  0  0  0  0  0  0  0
   61.6262   33.8449   45.4857 H   0  0  0  0  0  0  0  0  0  0  0  0
   58.9066   34.3282   43.5298 H   0  0  0  0  0  0  0  0  0  0  0  0
   57.7964   32.4640   42.3209 H   0  0  0  0  0  0  0  0  0  0  0  0
   57.2750   28.0120   44.1530 H   0  0  0  0  0  0  0  0  0  0  0  0
   58.5500   28.8460   43.3910 H   0  0  0  0  0  0  0  0  0  0  0  0
   57.0564   30.5364   46.0807 H   0  0  0  0  0  0  0  0  0  0  0  0
   58.1587   32.3834   47.2660 H   0  0  0  0  0  0  0  0  0  0  0  0
   58.9660   34.4580   48.7580 H   0  0  0  0  0  0  0  0  0  0  0  0
   59.8195   31.8401   52.1689 H   0  0  0  0  0  0  0  0  0  0  0  0
   58.4643   32.8566   51.4943 H   0  0  0  0  0  0  0  0  0  0  0  0
   61.3650   31.4820   49.5360 H   0  0  0  0  0  0  0  0  0  0  0  0
   61.1192   31.5605   46.8854 H   0  0  0  0  0  0  0  0  0  0  0  0
   60.6863   30.1428   44.8770 H   0  0  0  0  0  0  0  0  0  0  0  0
   59.0556   28.7528   49.4189 H   0  0  0  0  0  0  0  0  0  0  0  0
   58.3100   25.8315   45.4718 H   0  0  0  0  0  0  0  0  0  0  0  0
   57.2022   27.1845   45.4959 H   0  0  0  0  0  0  0  0  0  0  0  0
  1  2  1  0
  2  3  2  0
  3  4  1  0
  4  5  2  0
  5  6  1  0
  6  7  2  0
  7  8  1  0
  8  9  2  0
  9 10  1  0
 10 11  1  0
 10 12  2  0
 10 13  2  0
  9 14  1  0
 14 15  2  0
  4 16  1  0
 16 17  1  0
 17 18  1  0
 18 19  1  0
 19 20  1  0
 20 21  2  0
 20 22  1  0
 22 23  1  0
 23 24  2  0
 24 25  1  0
 25 26  2  0
 26 27  1  0
 27 28  2  0
 27 29  1  0
 29 30  1  0
 30 31  1  0
 17 32  2  0
 32  2  1  0
 15  6  1  0
 28 23  1  0
 31 26  1  0
  1 33  1  0
  1 34  1  0
  1 35  1  0
  3 36  1  0
  7 37  1  0
  8 38  1  0
 11 39  1  0
 11 40  1  0
 14 41  1  0
 15 42  1  0
 16 43  1  0
 19 44  1  0
 19 45  1  0
 22 46  1  0
 24 47  1  0
 25 48  1  0
 28 49  1  0
 30 50  1  0
 30 51  1  0
M  END
>  <smiles>  (11) 
Cc1cc(=Nc2ccc(S(N)(=O)=O)cc2)[nH]c(SCC(=O)Nc2ccc3c(c2)OCO3)n1

>  <score_type>  (11) 
oracle

>  <origin>  (11) 
adg

>  <m_score__min__energy>  (11) 
-8.9000000000000004

>  <m_primary>  (11) 
energy

$$$$
11:0
     RDKit          3D

 44 46  0  0  0  0  0  0  0  0999 V2000
   63.8550   33.4760   47.2480 N   0  0  0  0  0  0  0  0  0  0  0  0
   62.7350   32.5910   47.2020 C   0  0  0  0  0  0  0  0  0  0  0  0
   62.9250   31.3070   47.1610 N   0  0  0  0  0  0  0  0  0  0  0  0
   61.4120   33.1340   47.3410 N   0  0  0  0  0  0  0  0  0  0  0  0
   60.3270   32.7540   46.7270 C   0  0  0  0  0  0  0  0  0  0  0  0
   59.2810   33.6450   46.4080 C   0  0  0  0  0  0  0  0  0  0  0  0
   58.1430   33.1640   45.7580 C   0  0  0  0  0  0  0  0  0  0  0  0
   58.0300   31.7990   45.4540 C   0  0  0  0  0  0  0  0  0  0  0  0
   56.8870   31.2640   44.7710 N   0  0  0  0  0  0  0  0  0  0  0  0
   56.3910   29.9220   44.8750 C   0  0  0  0  0  0  0  0  0  0  0  0
   55.1650   29.7170   44.6750 O   0  0  0  0  0  0  0  0  0  0  0  0
   57.2840   28.7720   45.1540 C   0  0  0  0  0  0  0  0  0  0  0  0
   57.3930   28.2660   46.4590 C   0  0  0  0  0  0  0  0  0  0  0  0
   58.2270   27.1780   46.7310 C   0  0  0  0  0  0  0  0  0  0  0  0
   58.9610   26.5650   45.7000 C   0  0  0  0  0  0  0  0  0  0  0  0
   59.8460   25.4110   45.9850 C   0  0  0  0  0  0  0  0  0  0  0  0
   61.0880   25.5880   46.1080 O   0  0  0  0  0  0  0  0  0  0  0  0
   59.2950   24.0880   46.0680 N   0  0  0  0  0  0  0  0  0  0  0  0
   58.4260   23.4600   45.1150 C   0  0  0  0  0  0  0  0  0  0  0  0
   57.3140   24.1260   44.5640 C   0  0  0  0  0  0  0  0  0  0  0  0
   56.5040   23.4800   43.6230 C   0  0  0  0  0  0  0  0  0  0  0  0
   56.8020   22.1770   43.2160 C   0  0  0  0  0  0  0  0  0  0  0  0
   56.0140   21.5530   42.3070 F   0  0  0  0  0  0  0  0  0  0  0  0
   57.9190   21.5210   43.7410 C   0  0  0  0  0  0  0  0  0  0  0  0
   58.7310   22.1630   44.6810 C   0  0  0  0  0  0  0  0  0  0  0  0
   58.8390   27.0650   44.3910 C   0  0  0  0  0  0  0  0  0  0  0  0
   58.0050   28.1530   44.1210 C   0  0  0  0  0  0  0  0  0  0  0  0
   59.0870   30.9490   45.7860 C   0  0  0  0  0  0  0  0  0  0  0  0
   60.1890   31.4380   46.4140 N   0  0  0  0  0  0  0  0  0  0  0  0
   63.7060   34.5070   47.3150 H   0  0  0  0  0  0  0  0  0  0  0  0
   64.8330   33.1100   47.2320 H   0  0  0  0  0  0  0  0  0  0  0  0
   62.1400   30.6540   46.9370 H   0  0  0  0  0  0  0  0  0  0  0  0
   63.8710   30.8950   47.3220 H   0  0  0  0  0  0  0  0  0  0  0  0
   59.3614   34.7105   46.6694 H   0  0  0  0  0  0  0  0  0  0  0  0
   57.3335   33.8564   45.4837 H   0  0  0  0  0  0  0  0  0  0  0  0
   56.8175   28.7295   47.2738 H   0  0  0  0  0  0  0  0  0  0  0  0
   58.3099   26.7981   47.7600 H   0  0  0  0  0  0  0  0  0  0  0  0
   57.0817   25.1556   44.8738 H   0  0  0  0  0  0  0  0  0  0  0  0
   55.6303   23.9996   43.2027 H   0  0  0  0  0  0  0  0  0  0  0  0
   58.1595   20.4985   43.4143 H   0  0  0  0  0  0  0  0  0  0  0  0
   59.6152   21.6464   45.0825 H   0  0  0  0  0  0  0  0  0  0  0  0
   59.4050   26.5955   43.5729 H   0  0  0  0  0  0  0  0  0  0  0  0
   57.9127   28.5274   43.0908 H   0  0  0  0  0  0  0  0  0  0  0  0
   59.0276   29.8789   45.5382 H   0  0  0  0  0  0  0  0  0  0  0  0
  1  2  1  0
  2  3  2  0
  2  4  1  0
  4  5  2  3
  5  6  1  0
  6  7  2  0
  7  8  1  0
  8  9  1  0
  9 10  1  0
 10 11  2  0
 10 12  1  0
 12 13  2  0
 13 14  1  0
 14 15  2  0
 15 16  1  0
 16 17  2  0
 16 18  1  0
 18 19  1  0
 19 20  2  0
 20 21  1  0
 21 22  2  0
 22 23  1  0
 22 24  1  0
 24 25  2  0
 15 26  1  0
 26 27  2  0
  8 28  2  0
 28 29  1  0
 29  5  1  0
 27 12  1  0
 25 19  1  0
  1 30  1  0
  1 31  1  0
  3 32  1  0
  3 33  1  0
  6 34  1  0
  7 35  1  0
 13 36  1  0
 14 37  1  0
 20 38  1  0
 21 39  1  0
 24 40  1  0
 25 41  1  0
 26 42  1  0
 27 43  1  0
 28 44  1  0
M  CHG  4   3   1   9  -1  18  -1  29  -1
M  END
>  <UniqueID>  (12) 
10

>  <SMILES>  (12) 
NC(=[NH2+])N=c1ccc([N-]C(=O)c2ccc(C(=O)[N-]c3ccc(F)cc3)cc2)c[n-]1

>  <Energy>  (12) 
65.60473989507453

>  <Genealogy>  (12) 
NC(=[NH2+])N=c1ccc([N-]C(=O)c2ccc(C(=O)[N-]c3ccc(F)cc3)cc2)c[n-]1 (protonated)
NC(=[NH2+])N=c1ccc([N-]C(=O)c2ccc(C(=O)[N-]c3ccc(F)cc3)cc2)c[n-]1 (3D coordinates assigned)
NC(=[NH2+])N=c1ccc([N-]C(=O)c2ccc(C(=O)[N-]c3ccc(F)cc3)cc2)c[n-]1 (optimized conformer: 65.60473989507453 kcal/mol)

>  <smiles>  (12) 
N=C(N)N=c1ccc(NC(=O)c2ccc(C(=O)Nc3ccc(F)cc3)cc2)c[nH]1

>  <score_type>  (12) 
oracle

>  <origin>  (12) 
adg

>  <m_score__min__energy>  (12) 
-11.44

>  <m_primary>  (12) 
energy

$$$$
12:0
     RDKit          3D

 74 78  0  0  0  0  0  0  0  0999 V2000
   66.3870   33.7620   50.5400 C   0  0  0  0  0  0  0  0  0  0  0  0
   64.9050   33.6640   50.9770 C   0  0  0  0  0  0  0  0  0  0  0  0
   64.7570   32.4670   51.9390 C   0  0  0  0  0  0  0  0  0  0  0  0
   64.5450   34.9720   51.7180 C   0  0  0  0  0  0  0  0  0  0  0  0
   64.0250   33.4640   49.7020 C   0  0  0  0  0  0  0  0  0  0  0  0
   63.3640   32.1300   49.6390 N   0  0  0  0  0  0  0  0  0  0  0  0
   62.0190   32.1300   50.2810 C   0  0  0  0  0  0  0  0  0  0  0  0
   60.9480   31.2560   49.5850 C   0  0  0  0  0  0  0  0  0  0  0  0
   60.8860   31.3810   48.0250 C   0  0  0  0  0  0  0  0  0  0  0  0
   62.1680   32.0360   47.4600 C   0  0  0  0  0  0  0  0  0  0  0  0
   63.3810   31.5690   48.2680 C   0  0  0  0  0  0  0  0  0  0  0  0
   60.6940   29.9580   47.3830 C   0  0  0  0  0  0  0  0  0  0  0  0
   59.6170   30.0840   46.4090 N   0  0  0  0  0  0  0  0  0  0  0  0
   59.0330   28.9420   45.7660 C   0  0  0  0  0  0  0  0  0  0  0  0
   58.8540   28.9600   44.3730 C   0  0  0  0  0  0  0  0  0  0  0  0
   58.2240   27.8950   43.7260 C   0  0  0  0  0  0  0  0  0  0  0  0
   57.7530   26.8110   44.4650 C   0  0  0  0  0  0  0  0  0  0  0  0
   57.9150   26.7840   45.8510 C   0  0  0  0  0  0  0  0  0  0  0  0
   58.5680   27.8340   46.5170 C   0  0  0  0  0  0  0  0  0  0  0  0
   58.7050   27.7640   47.9470 N   0  0  0  0  0  0  0  0  0  0  0  0
   59.9110   27.3590   48.6140 C   0  0  0  0  0  0  0  0  0  0  0  0
   60.8170   26.7690   47.9670 O   0  0  0  0  0  0  0  0  0  0  0  0
   60.0660   27.5030   50.0330 N   0  0  0  0  0  0  0  0  0  0  0  0
   61.2550   27.3240   50.8170 C   0  0  0  0  0  0  0  0  0  0  0  0
   61.7120   26.0560   51.2160 C   0  0  0  0  0  0  0  0  0  0  0  0
   62.8750   25.9350   51.9800 C   0  0  0  0  0  0  0  0  0  0  0  0
   63.5980   27.0690   52.3630 C   0  0  0  0  0  0  0  0  0  0  0  0
   64.7870   26.8870   53.0860 O   0  0  0  0  0  0  0  0  0  0  0  0
   66.0990   26.8850   52.5270 C   0  0  0  0  0  0  0  0  0  0  0  0
   66.4390   28.1800   52.1760 F   0  0  0  0  0  0  0  0  0  0  0  0
   67.0160   26.4210   53.4540 F   0  0  0  0  0  0  0  0  0  0  0  0
   66.1290   26.0910   51.3930 F   0  0  0  0  0  0  0  0  0  0  0  0
   63.1130   28.3410   52.0070 C   0  0  0  0  0  0  0  0  0  0  0  0
   61.9480   28.4610   51.2450 C   0  0  0  0  0  0  0  0  0  0  0  0
   58.9840   31.3390   46.6010 C   0  0  0  0  0  0  0  0  0  0  0  0
   57.8570   31.8150   45.9120 C   0  0  0  0  0  0  0  0  0  0  0  0
   57.2130   31.0450   44.9490 O   0  0  0  0  0  0  0  0  0  0  0  0
   57.3900   33.1020   46.1950 C   0  0  0  0  0  0  0  0  0  0  0  0
   58.0610   33.9070   47.1240 C   0  0  0  0  0  0  0  0  0  0  0  0
   59.2080   33.4340   47.7830 C   0  0  0  0  0  0  0  0  0  0  0  0
   60.0400   34.5410   48.8570 Cl  0  0  0  0  0  0  0  0  0  0  0  0
   59.6550   32.1190   47.5190 C   0  0  0  0  0  0  0  0  0  0  0  0
   67.0301   33.8045   51.4314 H   0  0  0  0  0  0  0  0  0  0  0  0
   66.6512   32.8794   49.9390 H   0  0  0  0  0  0  0  0  0  0  0  0
   66.5327   34.6717   49.9390 H   0  0  0  0  0  0  0  0  0  0  0  0
   64.8012   32.8243   52.9784 H   0  0  0  0  0  0  0  0  0  0  0  0
   63.7908   31.9718   51.7622 H   0  0  0  0  0  0  0  0  0  0  0  0
   65.5735   31.7514   51.7622 H   0  0  0  0  0  0  0  0  0  0  0  0
   64.5915   34.8029   52.8039 H   0  0  0  0  0  0  0  0  0  0  0  0
   65.2596   35.7603   51.4387 H   0  0  0  0  0  0  0  0  0  0  0  0
   63.5277   35.2836   51.4387 H   0  0  0  0  0  0  0  0  0  0  0  0
   63.2452   34.2397   49.6920 H   0  0  0  0  0  0  0  0  0  0  0  0
   64.6949   33.5345   48.8323 H   0  0  0  0  0  0  0  0  0  0  0  0
   62.1358   31.7656   51.3123 H   0  0  0  0  0  0  0  0  0  0  0  0
   61.6531   33.1653   50.2151 H   0  0  0  0  0  0  0  0  0  0  0  0
   61.1552   30.2045   49.8328 H   0  0  0  0  0  0  0  0  0  0  0  0
   59.9768   31.6157   49.9558 H   0  0  0  0  0  0  0  0  0  0  0  0
   62.2949   31.7441   46.4071 H   0  0  0  0  0  0  0  0  0  0  0  0
   62.0810   33.1303   47.5304 H   0  0  0  0  0  0  0  0  0  0  0  0
   63.3687   30.4708   48.3302 H   0  0  0  0  0  0  0  0  0  0  0  0
   64.2917   31.9203   47.7608 H   0  0  0  0  0  0  0  0  0  0  0  0
   61.6210   29.6379   46.8849 H   0  0  0  0  0  0  0  0  0  0  0  0
   60.4514   29.2062   48.1485 H   0  0  0  0  0  0  0  0  0  0  0  0
   59.2127   29.8193   43.7875 H   0  0  0  0  0  0  0  0  0  0  0  0
   58.0994   27.9114   42.6332 H   0  0  0  0  0  0  0  0  0  0  0  0
   57.2525   25.9749   43.9546 H   0  0  0  0  0  0  0  0  0  0  0  0
   57.5272   25.9314   46.4278 H   0  0  0  0  0  0  0  0  0  0  0  0
   57.8300   27.7950   48.5180 H   0  0  0  0  0  0  0  0  0  0  0  0
   61.1514   25.1553   50.9254 H   0  0  0  0  0  0  0  0  0  0  0  0
   63.2257   24.9376   52.2835 H   0  0  0  0  0  0  0  0  0  0  0  0
   63.6526   29.2436   52.3296 H   0  0  0  0  0  0  0  0  0  0  0  0
   61.5720   29.4599   50.9790 H   0  0  0  0  0  0  0  0  0  0  0  0
   56.4925   33.4836   45.6863 H   0  0  0  0  0  0  0  0  0  0  0  0
   57.6866   34.9186   47.3396 H   0  0  0  0  0  0  0  0  0  0  0  0
  1  2  1  0
  2  3  1  0
  2  4  1  0
  2  5  1  0
  5  6  1  0
  6  7  1  0
  7  8  1  0
  8  9  1  0
  9 10  1  0
 10 11  1  0
  9 12  1  0
 12 13  1  0
 13 14  1  0
 14 15  2  0
 15 16  1  0
 16 17  2  0
 17 18  1  0
 18 19  2  0
 19 20  1  0
 20 21  1  0
 21 22  2  0
 21 23  1  0
 23 24  1  0
 24 25  2  0
 25 26  1  0
 26 27  2  0
 27 28  1  0
 28 29  1  0
 29 30  1  0
 29 31  1  0
 29 32  1  0
 27 33  1  0
 33 34  2  0
 13 35  1  0
 35 36  2  0
 36 37  1  0
 36 38  1  0
 38 39  2  0
 39 40  1  0
 40 41  1  0
 40 42  2  0
 11  6  1  0
 19 14  1  0
 34 24  1  0
 42 35  1  0
 42  9  1  0
  1 43  1  0
  1 44  1  0
  1 45  1  0
  3 46  1  0
  3 47  1  0
  3 48  1  0
  4 49  1  0
  4 50  1  0
  4 51  1  0
  5 52  1  0
  5 53  1  0
  7 54  1  0
  7 55  1  0
  8 56  1  0
  8 57  1  0
 10 58  1  0
 10 59  1  0
 11 60  1  0
 11 61  1  0
 12 62  1  0
 12 63  1  0
 15 64  1  0
 16 65  1  0
 17 66  1  0
 18 67  1  0
 20 68  1  0
 25 69  1  0
 26 70  1  0
 33 71  1  0
 34 72  1  0
 38 73  1  0
 39 74  1  0
M  CHG  2  23  -1  37  -1
M  END
>  <UniqueID>  (13) 
11

>  <SMILES>  (13) 
CC(C)(C)CN1CCC2(CC1)CN(c1ccccc1NC(=O)[N-]c1ccc(OC(F)(F)F)cc1)c1c([O-])ccc(Cl)c12

>  <Energy>  (13) 
123.71054213234801

>  <Genealogy>  (13) 
CC(C)(C)CN1CCC2(CC1)CN(c1ccccc1NC(=O)[N-]c1ccc(OC(F)(F)F)cc1)c1c([O-])ccc(Cl)c12 (protonated)
CC(C)(C)CN1CCC2(CC1)CN(c1ccccc1NC(=O)[N-]c1ccc(OC(F)(F)F)cc1)c1c([O-])ccc(Cl)c12 (3D coordinates assigned)
CC(C)(C)CN1CCC2(CC1)CN(c1ccccc1NC(=O)[N-]c1ccc(OC(F)(F)F)cc1)c1c([O-])ccc(Cl)c12 (nonaromatic ring conformer: 123.71054213234801 kcal/mol)

>  <smiles>  (13) 
CC(C)(C)CN1CCC2(CC1)CN(c1ccccc1NC(=O)Nc1ccc(OC(F)(F)F)cc1)c1c(O)ccc(Cl)c12

>  <score_type>  (13) 
oracle

>  <origin>  (13) 
adg

>  <m_score__min__energy>  (13) 
-11.640000000000001

>  <m_primary>  (13) 
energy

$$$$
13:0
     RDKit          3D

 63 65  0  0  0  0  0  0  0  0999 V2000
   59.7030   34.2180   49.9890 C   0  0  0  0  0  0  0  0  0  0  0  0
   60.3480   34.0670   48.7440 O   0  0  0  0  0  0  0  0  0  0  0  0
   59.6620   34.7920   47.7400 C   0  0  0  0  0  0  0  0  0  0  0  0
   60.3270   34.5760   46.3820 C   0  0  0  0  0  0  0  0  0  0  0  0
   59.3970   34.9220   45.3120 N   0  0  0  0  0  0  0  0  0  0  0  0
   58.2870   34.1110   44.9110 C   0  0  0  0  0  0  0  0  0  0  0  0
   57.1230   34.4990   45.1930 O   0  0  0  0  0  0  0  0  0  0  0  0
   58.4790   32.8430   44.1200 C   0  0  0  0  0  0  0  0  0  0  0  0
   58.0080   31.6680   44.8620 N   0  0  0  0  0  0  0  0  0  0  0  0
   58.5930   31.3360   46.1380 C   0  0  0  0  0  0  0  0  0  0  0  0
   59.6470   30.4080   46.2170 C   0  0  0  0  0  0  0  0  0  0  0  0
   60.2250   30.0960   47.4500 C   0  0  0  0  0  0  0  0  0  0  0  0
   59.7740   30.7070   48.6250 C   0  0  0  0  0  0  0  0  0  0  0  0
   60.3870   30.3530   49.8380 O   0  0  0  0  0  0  0  0  0  0  0  0
   61.7380   29.9120   49.9820 C   0  0  0  0  0  0  0  0  0  0  0  0
   62.7340   31.0410   49.8330 C   0  0  0  0  0  0  0  0  0  0  0  0
   63.8830   30.8440   50.2070 O   0  0  0  0  0  0  0  0  0  0  0  0
   62.3270   32.3570   49.3530 N   0  0  0  0  0  0  0  0  0  0  0  0
   62.7920   33.4170   50.2710 C   0  0  0  0  0  0  0  0  0  0  0  0
   64.3210   33.6460   50.1720 C   0  0  0  0  0  0  0  0  0  0  0  0
   64.9040   33.0670   49.0160 O   0  0  0  0  0  0  0  0  0  0  0  0
   64.1160   33.3530   47.8810 C   0  0  0  0  0  0  0  0  0  0  0  0
   62.7610   32.6140   47.9550 C   0  0  0  0  0  0  0  0  0  0  0  0
   58.7240   31.6430   48.5500 C   0  0  0  0  0  0  0  0  0  0  0  0
   58.1400   31.9520   47.3180 C   0  0  0  0  0  0  0  0  0  0  0  0
   56.9270   30.5520   44.0760 S   0  0  0  0  0  0  0  0  0  0  0  0
   56.9990   30.7330   42.5840 O   0  0  0  0  0  0  0  0  0  0  0  0
   55.5170   30.8190   44.5260 O   0  0  0  0  0  0  0  0  0  0  0  0
   57.3810   28.8940   44.4640 C   0  0  0  0  0  0  0  0  0  0  0  0
   57.8340   28.0280   43.4570 C   0  0  0  0  0  0  0  0  0  0  0  0
   58.1620   26.7040   43.7630 C   0  0  0  0  0  0  0  0  0  0  0  0
   58.0400   26.2370   45.0750 C   0  0  0  0  0  0  0  0  0  0  0  0
   57.5880   27.0960   46.0820 C   0  0  0  0  0  0  0  0  0  0  0  0
   57.2590   28.4210   45.7790 C   0  0  0  0  0  0  0  0  0  0  0  0
   60.4268   34.0486   50.7998 H   0  0  0  0  0  0  0  0  0  0  0  0
   59.2943   35.2361   50.0691 H   0  0  0  0  0  0  0  0  0  0  0  0
   58.8848   33.4871   50.0691 H   0  0  0  0  0  0  0  0  0  0  0  0
   58.6186   34.4469   47.6921 H   0  0  0  0  0  0  0  0  0  0  0  0
   59.6937   35.8633   47.9875 H   0  0  0  0  0  0  0  0  0  0  0  0
   61.2208   35.2129   46.3083 H   0  0  0  0  0  0  0  0  0  0  0  0
   60.6142   33.5187   46.2839 H   0  0  0  0  0  0  0  0  0  0  0  0
   57.9153   32.9205   43.1786 H   0  0  0  0  0  0  0  0  0  0  0  0
   59.5543   32.7186   43.9243 H   0  0  0  0  0  0  0  0  0  0  0  0
   60.0188   29.9245   45.3016 H   0  0  0  0  0  0  0  0  0  0  0  0
   61.0432   29.3623   47.4975 H   0  0  0  0  0  0  0  0  0  0  0  0
   61.8587   29.4642   50.9795 H   0  0  0  0  0  0  0  0  0  0  0  0
   61.9384   29.1815   49.1843 H   0  0  0  0  0  0  0  0  0  0  0  0
   61.2800   32.3940   49.3500 H   0  0  0  0  0  0  0  0  0  0  0  0
   62.2760   34.3553   50.0193 H   0  0  0  0  0  0  0  0  0  0  0  0
   62.5636   33.0984   51.2988 H   0  0  0  0  0  0  0  0  0  0  0  0
   64.5107   34.7293   50.1527 H   0  0  0  0  0  0  0  0  0  0  0  0
   64.7793   33.1589   51.0453 H   0  0  0  0  0  0  0  0  0  0  0  0
   63.9338   34.4367   47.8319 H   0  0  0  0  0  0  0  0  0  0  0  0
   64.6541   33.0148   46.9832 H   0  0  0  0  0  0  0  0  0  0  0  0
   61.9969   33.2280   47.4559 H   0  0  0  0  0  0  0  0  0  0  0  0
   62.8849   31.6397   47.4596 H   0  0  0  0  0  0  0  0  0  0  0  0
   58.3617   32.1333   49.4656 H   0  0  0  0  0  0  0  0  0  0  0  0
   57.3194   32.6830   47.2714 H   0  0  0  0  0  0  0  0  0  0  0  0
   57.9313   28.3921   42.4236 H   0  0  0  0  0  0  0  0  0  0  0  0
   58.5166   26.0287   42.9704 H   0  0  0  0  0  0  0  0  0  0  0  0
   58.2992   25.1953   45.3151 H   0  0  0  0  0  0  0  0  0  0  0  0
   57.4911   26.7286   47.1143 H   0  0  0  0  0  0  0  0  0  0  0  0
   56.9038   29.0937   46.5735 H   0  0  0  0  0  0  0  0  0  0  0  0
  1  2  1  0
  2  3  1  0
  3  4  1  0
  4  5  1  0
  5  6  1  0
  6  7  2  0
  6  8  1  0
  8  9  1  0
  9 10  1  0
 10 11  2  0
 11 12  1  0
 12 13  2  0
 13 14  1  0
 14 15  1  0
 15 16  1  0
 16 17  2  0
 16 18  1  0
 18 19  1  0
 19 20  1  0
 20 21  1  0
 21 22  1  0
 22 23  1  0
 13 24  1  0
 24 25  2  0
  9 26  1  0
 26 27  2  0
 26 28  2  0
 26 29  1  0
 29 30  2  0
 30 31  1  0
 31 32  2  0
 32 33  1  0
 33 34  2  0
 25 10  1  0
 34 29  1  0
 23 18  1  0
  1 35  1  0
  1 36  1  0
  1 37  1  0
  3 38  1  0
  3 39  1  0
  4 40  1  0
  4 41  1  0
  8 42  1  0
  8 43  1  0
 11 44  1  0
 12 45  1  0
 15 46  1  0
 15 47  1  0
 18 48  1  0
 19 49  1  0
 19 50  1  0
 20 51  1  0
 20 52  1  0
 22 53  1  0
 22 54  1  0
 23 55  1  0
 23 56  1  0
 24 57  1  0
 25 58  1  0
 30 59  1  0
 31 60  1  0
 32 61  1  0
 33 62  1  0
 34 63  1  0
M  CHG  2   5  -1  18   1
M  END
>  <UniqueID>  (14) 
12

>  <SMILES>  (14) 
COCC[N-]C(=O)CN(c1ccc(OCC(=O)[NH+]2CCOCC2)cc1)S(=O)(=O)c1ccccc1

>  <Energy>  (14) 
80.2768971467269

>  <Genealogy>  (14) 
COCC[N-]C(=O)CN(c1ccc(OCC(=O)[NH+]2CCOCC2)cc1)S(=O)(=O)c1ccccc1 (protonated)
COCC[N-]C(=O)CN(c1ccc(OCC(=O)[NH+]2CCOCC2)cc1)S(=O)(=O)c1ccccc1 (3D coordinates assigned)
COCC[N-]C(=O)CN(c1ccc(OCC(=O)[NH+]2CCOCC2)cc1)S(=O)(=O)c1ccccc1 (nonaromatic ring conformer: 80.2768971467269 kcal/mol)

>  <smiles>  (14) 
COCCNC(=O)CN(c1ccc(OCC(=O)N2CCOCC2)cc1)S(=O)(=O)c1ccccc1

>  <score_type>  (14) 
oracle

>  <origin>  (14) 
adg

>  <m_score__min__energy>  (14) 
-9.9700000000000006

>  <m_primary>  (14) 
energy

$$$$
14:0
     RDKit          3D

 40 42  0  0  0  0  0  0  0  0999 V2000
   61.7920   30.8010   47.9750 C   0  0  0  0  0  0  0  0  0  0  0  0
   60.6580   30.0690   47.3210 C   0  0  0  0  0  0  0  0  0  0  0  0
   60.7140   29.7620   45.9530 C   0  0  0  0  0  0  0  0  0  0  0  0
   59.6630   29.0690   45.3440 C   0  0  0  0  0  0  0  0  0  0  0  0
   58.5490   28.6740   46.0940 C   0  0  0  0  0  0  0  0  0  0  0  0
   57.2080   27.8510   45.2970 S   0  0  0  0  0  0  0  0  0  0  0  0
   56.8580   26.5880   46.0340 O   0  0  0  0  0  0  0  0  0  0  0  0
   57.6310   27.4890   43.9020 O   0  0  0  0  0  0  0  0  0  0  0  0
   55.8090   28.8840   45.2160 N   0  0  0  0  0  0  0  0  0  0  0  0
   55.7800   29.6510   43.9680 C   0  0  0  0  0  0  0  0  0  0  0  0
   56.6920   30.8360   44.0590 C   0  0  0  0  0  0  0  0  0  0  0  0
   57.0730   31.5870   42.9500 C   0  0  0  0  0  0  0  0  0  0  0  0
   58.1630   32.7520   43.4780 S   0  0  0  0  0  0  0  0  0  0  0  0
   58.0990   32.2610   45.0900 C   0  0  0  0  0  0  0  0  0  0  0  0
   58.8980   32.8270   46.2000 C   0  0  0  0  0  0  0  0  0  0  0  0
   58.4180   32.8070   47.5220 C   0  0  0  0  0  0  0  0  0  0  0  0
   59.1610   33.3840   48.5550 C   0  0  0  0  0  0  0  0  0  0  0  0
   60.3960   33.9890   48.2920 C   0  0  0  0  0  0  0  0  0  0  0  0
   61.1180   34.5780   49.3840 N   0  0  0  0  0  0  0  0  0  0  0  0
   62.3010   34.2430   49.7150 C   0  0  0  0  0  0  0  0  0  0  0  0
   63.7980   33.8190   50.1330 S   0  0  0  0  0  0  0  0  0  0  0  0
   60.8830   34.0070   46.9720 C   0  0  0  0  0  0  0  0  0  0  0  0
   60.1420   33.4290   45.9380 C   0  0  0  0  0  0  0  0  0  0  0  0
   57.2590   31.2140   45.2370 N   0  0  0  0  0  0  0  0  0  0  0  0
   58.5040   28.9560   47.4670 C   0  0  0  0  0  0  0  0  0  0  0  0
   59.5560   29.6420   48.0790 C   0  0  0  0  0  0  0  0  0  0  0  0
   61.6893   30.7347   49.0682 H   0  0  0  0  0  0  0  0  0  0  0  0
   62.7463   30.3480   47.6682 H   0  0  0  0  0  0  0  0  0  0  0  0
   61.7721   31.8572   47.6682 H   0  0  0  0  0  0  0  0  0  0  0  0
   61.5872   30.0673   45.3578 H   0  0  0  0  0  0  0  0  0  0  0  0
   59.7119   28.8332   44.2707 H   0  0  0  0  0  0  0  0  0  0  0  0
   56.1064   29.0059   43.1390 H   0  0  0  0  0  0  0  0  0  0  0  0
   54.7535   30.0049   43.7917 H   0  0  0  0  0  0  0  0  0  0  0  0
   56.7241   31.4438   41.9167 H   0  0  0  0  0  0  0  0  0  0  0  0
   57.4503   32.3335   47.7442 H   0  0  0  0  0  0  0  0  0  0  0  0
   58.7723   33.3628   49.5838 H   0  0  0  0  0  0  0  0  0  0  0  0
   61.8523   34.4787   46.7529 H   0  0  0  0  0  0  0  0  0  0  0  0
   60.5347   33.4449   44.9106 H   0  0  0  0  0  0  0  0  0  0  0  0
   57.6374   28.6360   48.0642 H   0  0  0  0  0  0  0  0  0  0  0  0
   59.5208   29.8484   49.1589 H   0  0  0  0  0  0  0  0  0  0  0  0
  1  2  1  0
  2  3  2  0
  3  4  1  0
  4  5  2  0
  5  6  1  0
  6  7  2  0
  6  8  2  0
  6  9  1  0
  9 10  1  0
 10 11  1  0
 11 12  2  0
 12 13  1  0
 13 14  1  0
 14 15  1  0
 15 16  2  0
 16 17  1  0
 17 18  2  0
 18 19  1  0
 19 20  2  0
 20 21  2  0
 18 22  1  0
 22 23  2  0
 14 24  2  0
  5 25  1  0
 25 26  2  0
 26  2  1  0
 24 11  1  0
 23 15  1  0
  1 27  1  0
  1 28  1  0
  1 29  1  0
  3 30  1  0
  4 31  1  0
 10 32  1  0
 10 33  1  0
 12 34  1  0
 16 35  1  0
 17 36  1  0
 22 37  1  0
 23 38  1  0
 25 39  1  0
 26 40  1  0
M  CHG  1   9  -1
M  END
>  <UniqueID>  (15) 
13

>  <SMILES>  (15) 
Cc1ccc(S(=O)(=O)[N-]Cc2csc(-c3ccc(N=C=S)cc3)n2)cc1

>  <Energy>  (15) 
64.93248125013773

>  <Genealogy>  (15) 
Cc1ccc(S(=O)(=O)[N-]Cc2csc(-c3ccc(N=C=S)cc3)n2)cc1 (protonated)
Cc1ccc(S(=O)(=O)[N-]Cc2csc(-c3ccc(N=C=S)cc3)n2)cc1 (3D coordinates assigned)
Cc1ccc(S(=O)(=O)[N-]Cc2csc(-c3ccc(N=C=S)cc3)n2)cc1 (optimized conformer: 64.93248125013773 kcal/mol)

>  <smiles>  (15) 
Cc1ccc(S(=O)(=O)NCc2csc(-c3ccc(N=C=S)cc3)n2)cc1

>  <score_type>  (15) 
oracle

>  <origin>  (15) 
adg

>  <m_score__min__energy>  (15) 
-10.52

>  <m_primary>  (15) 
energy

$$$$
15:0
     RDKit          3D

 64 68  0  0  0  0  0  0  0  0999 V2000
   60.2920   28.1350   47.1890 C   0  0  0  0  0  0  0  0  0  0  0  0
   59.3290   27.3450   48.0690 C   0  0  0  0  0  0  0  0  0  0  0  0
   59.0910   26.0480   47.5230 O   0  0  0  0  0  0  0  0  0  0  0  0
   57.8690   25.5710   47.0180 C   0  0  0  0  0  0  0  0  0  0  0  0
   57.5490   24.1980   47.0470 C   0  0  0  0  0  0  0  0  0  0  0  0
   56.3600   23.7270   46.4720 C   0  0  0  0  0  0  0  0  0  0  0  0
   56.0760   22.2800   46.4480 C   0  0  0  0  0  0  0  0  0  0  0  0
   55.5780   21.6790   47.6150 C   0  0  0  0  0  0  0  0  0  0  0  0
   55.2760   20.3160   47.6370 C   0  0  0  0  0  0  0  0  0  0  0  0
   55.4700   19.5410   46.4950 C   0  0  0  0  0  0  0  0  0  0  0  0
   55.9760   20.1220   45.3300 C   0  0  0  0  0  0  0  0  0  0  0  0
   56.2920   21.4910   45.2910 C   0  0  0  0  0  0  0  0  0  0  0  0
   56.9630   22.1750   43.7980 S   0  0  0  0  0  0  0  0  0  0  0  0
   58.0800   21.0620   43.0810 N   0  0  0  0  0  0  0  0  0  0  0  0
   57.6580   23.4720   44.1070 O   0  0  0  0  0  0  0  0  0  0  0  0
   55.8560   22.4400   42.8140 O   0  0  0  0  0  0  0  0  0  0  0  0
   55.4470   24.6330   45.9250 C   0  0  0  0  0  0  0  0  0  0  0  0
   55.7380   25.9960   45.9150 C   0  0  0  0  0  0  0  0  0  0  0  0
   56.9450   26.4780   46.4400 C   0  0  0  0  0  0  0  0  0  0  0  0
   57.2170   27.8790   46.2760 N   0  0  0  0  0  0  0  0  0  0  0  0
   56.7450   28.7250   45.2220 C   0  0  0  0  0  0  0  0  0  0  0  0
   55.5250   28.6990   44.8900 O   0  0  0  0  0  0  0  0  0  0  0  0
   57.6990   29.6750   44.5420 C   0  0  1  0  0  0  0  0  0  0  0  0
   56.9210   30.5160   43.4880 C   0  0  0  0  0  0  0  0  0  0  0  0
   57.5840   31.8270   43.2060 C   0  0  0  0  0  0  0  0  0  0  0  0
   57.6450   32.2610   42.0220 O   0  0  0  0  0  0  0  0  0  0  0  0
   58.0950   32.6170   44.3490 C   0  0  0  0  0  0  0  0  0  0  0  0
   58.6620   33.8160   44.1510 C   0  0  0  0  0  0  0  0  0  0  0  0
   59.1970   34.6740   45.2560 C   0  0  0  0  0  0  0  0  0  0  0  0
   59.3090   33.9770   46.5840 C   0  0  0  0  0  0  0  0  0  0  0  0
   59.9540   34.6540   47.6340 C   0  0  0  0  0  0  0  0  0  0  0  0
   59.9680   34.1150   48.9220 C   0  0  0  0  0  0  0  0  0  0  0  0
   59.3140   32.9130   49.1790 C   0  0  0  0  0  0  0  0  0  0  0  0
   58.6700   32.2300   48.1440 C   0  0  0  0  0  0  0  0  0  0  0  0
   58.6910   32.7300   46.8270 C   0  0  0  0  0  0  0  0  0  0  0  0
   57.9720   31.9760   45.7200 C   0  0  2  0  0  0  0  0  0  0  0  0
   58.4870   30.5190   45.5920 C   0  0  0  0  0  0  0  0  0  0  0  0
   60.9862   28.7045   47.8245 H   0  0  0  0  0  0  0  0  0  0  0  0
   60.8618   27.4408   46.5539 H   0  0  0  0  0  0  0  0  0  0  0  0
   59.7226   28.8296   46.5539 H   0  0  0  0  0  0  0  0  0  0  0  0
   59.7633   27.2390   49.0740 H   0  0  0  0  0  0  0  0  0  0  0  0
   58.3730   27.8868   48.1201 H   0  0  0  0  0  0  0  0  0  0  0  0
   58.2398   23.4885   47.5260 H   0  0  0  0  0  0  0  0  0  0  0  0
   55.4246   22.2866   48.5190 H   0  0  0  0  0  0  0  0  0  0  0  0
   54.8850   19.8539   48.5555 H   0  0  0  0  0  0  0  0  0  0  0  0
   55.2240   18.4690   46.5112 H   0  0  0  0  0  0  0  0  0  0  0  0
   56.1287   19.5021   44.4342 H   0  0  0  0  0  0  0  0  0  0  0  0
   57.5870   20.1460   42.9810 H   0  0  0  0  0  0  0  0  0  0  0  0
   58.8510   20.9050   43.7700 H   0  0  0  0  0  0  0  0  0  0  0  0
   54.4985   24.2702   45.5023 H   0  0  0  0  0  0  0  0  0  0  0  0
   55.0107   26.7030   45.4894 H   0  0  0  0  0  0  0  0  0  0  0  0
   58.4722   29.1189   43.9916 H   0  0  0  0  0  0  0  0  0  0  0  0
   56.8606   29.9416   42.5518 H   0  0  0  0  0  0  0  0  0  0  0  0
   55.9212   30.7255   43.8961 H   0  0  0  0  0  0  0  0  0  0  0  0
   58.7385   34.1903   43.1195 H   0  0  0  0  0  0  0  0  0  0  0  0
   60.1985   35.0244   44.9656 H   0  0  0  0  0  0  0  0  0  0  0  0
   58.4784   35.4957   45.3919 H   0  0  0  0  0  0  0  0  0  0  0  0
   60.4514   35.6156   47.4393 H   0  0  0  0  0  0  0  0  0  0  0  0
   60.4951   34.6394   49.7327 H   0  0  0  0  0  0  0  0  0  0  0  0
   59.3043   32.5003   50.1986 H   0  0  0  0  0  0  0  0  0  0  0  0
   58.1402   31.2905   48.3601 H   0  0  0  0  0  0  0  0  0  0  0  0
   56.9159   32.0016   46.0266 H   0  0  0  0  0  0  0  0  0  0  0  0
   59.5453   30.5479   45.2933 H   0  0  0  0  0  0  0  0  0  0  0  0
   58.3450   30.0364   46.5703 H   0  0  0  0  0  0  0  0  0  0  0  0
  1  2  1  0
  2  3  1  0
  3  4  1  0
  4  5  2  0
  5  6  1  0
  6  7  1  0
  7  8  2  0
  8  9  1  0
  9 10  2  0
 10 11  1  0
 11 12  2  0
 12 13  1  0
 13 14  1  0
 13 15  2  0
 13 16  2  0
  6 17  2  0
 17 18  1  0
 18 19  2  0
 19 20  1  0
 20 21  1  0
 21 22  2  0
 21 23  1  0
 23 24  1  0
 24 25  1  0
 25 26  2  0
 25 27  1  0
 27 28  2  0
 28 29  1  0
 29 30  1  0
 30 31  2  0
 31 32  1  0
 32 33  2  0
 33 34  1  0
 34 35  2  0
 35 36  1  0
 36 37  1  0
 19  4  1  0
 37 23  1  0
 12  7  1  0
 36 27  1  0
 35 30  1  0
  1 38  1  0
  1 39  1  0
  1 40  1  0
  2 41  1  0
  2 42  1  0
  5 43  1  0
  8 44  1  0
  9 45  1  0
 10 46  1  0
 11 47  1  0
 14 48  1  0
 14 49  1  0
 17 50  1  0
 18 51  1  0
 23 52  1  6
 24 53  1  0
 24 54  1  0
 28 55  1  0
 29 56  1  0
 29 57  1  0
 31 58  1  0
 32 59  1  0
 33 60  1  0
 34 61  1  0
 36 62  1  1
 37 63  1  0
 37 64  1  0
M  CHG  1  20  -1
M  END
>  <UniqueID>  (16) 
14

>  <SMILES>  (16) 
CCOc1cc(-c2ccccc2S(N)(=O)=O)ccc1[N-]C(=O)[C@H]1CC(=O)C2=CCc3ccccc3[C@@H]2C1

>  <Energy>  (16) 
94.620844259305

>  <Genealogy>  (16) 
CCOc1cc(-c2ccccc2S(N)(=O)=O)ccc1[N-]C(=O)C1CC(=O)C2=CCc3ccccc3C2C1 (protonated)
CCOc1cc(-c2ccccc2S(N)(=O)=O)ccc1[N-]C(=O)[C@H]1CC(=O)C2=CCc3ccccc3[C@@H]2C1 (chirality)
CCOc1cc(-c2ccccc2S(N)(=O)=O)ccc1[N-]C(=O)[C@H]1CC(=O)C2=CCc3ccccc3[C@@H]2C1 (3D coordinates assigned)
CCOc1cc(-c2ccccc2S(N)(=O)=O)ccc1[N-]C(=O)[C@H]1CC(=O)C2=CCc3ccccc3[C@@H]2C1 (nonaromatic ring conformer: 94.620844259305 kcal/mol)

>  <smiles>  (16) 
CCOc1cc(-c2ccccc2S(N)(=O)=O)ccc1NC(=O)C1CC(=O)C2=CCc3ccccc3C2C1

>  <score_type>  (16) 
oracle

>  <origin>  (16) 
adg

>  <m_score__min__energy>  (16) 
-13.52

>  <m_primary>  (16) 
energy

$$$$
16:0
     RDKit          3D

 29 30  0  0  0  0  0  0  0  0999 V2000
   54.7720   26.3500   45.9930 O   0  0  0  0  0  0  0  0  0  0  0  0
   55.9770   26.2070   46.3310 C   0  0  0  0  0  0  0  0  0  0  0  0
   56.3290   25.1220   47.1270 O   0  0  0  0  0  0  0  0  0  0  0  0
   57.0030   27.1790   45.8920 C   0  0  0  0  0  0  0  0  0  0  0  0
   58.3660   26.9460   46.1470 C   0  0  0  0  0  0  0  0  0  0  0  0
   59.3310   27.8660   45.7290 C   0  0  0  0  0  0  0  0  0  0  0  0
   58.9480   29.0270   45.0550 C   0  0  0  0  0  0  0  0  0  0  0  0
   57.5950   29.2770   44.7970 C   0  0  0  0  0  0  0  0  0  0  0  0
   57.1210   30.7510   43.9590 S   0  0  0  0  0  0  0  0  0  0  0  0
   55.8480   31.3060   44.5350 O   0  0  0  0  0  0  0  0  0  0  0  0
   56.9020   30.4310   42.5070 O   0  0  0  0  0  0  0  0  0  0  0  0
   58.3740   31.9430   44.1000 N   0  0  0  0  0  0  0  0  0  0  0  0
   58.6690   32.6620   45.3120 C   0  0  0  0  0  0  0  0  0  0  0  0
   58.3410   32.0790   46.5480 C   0  0  0  0  0  0  0  0  0  0  0  0
   58.6080   32.7530   47.7440 C   0  0  0  0  0  0  0  0  0  0  0  0
   59.2080   34.0140   47.7180 C   0  0  0  0  0  0  0  0  0  0  0  0
   59.4720   34.6830   48.9070 O   0  0  0  0  0  0  0  0  0  0  0  0
   59.5440   34.6010   46.4960 C   0  0  0  0  0  0  0  0  0  0  0  0
   59.2790   33.9310   45.2970 C   0  0  0  0  0  0  0  0  0  0  0  0
   56.6260   28.3500   45.2120 C   0  0  0  0  0  0  0  0  0  0  0  0
   58.6745   26.0339   46.6788 H   0  0  0  0  0  0  0  0  0  0  0  0
   60.3952   27.6750   45.9315 H   0  0  0  0  0  0  0  0  0  0  0  0
   59.7114   29.7473   44.7258 H   0  0  0  0  0  0  0  0  0  0  0  0
   58.9830   32.0890   43.2640 H   0  0  0  0  0  0  0  0  0  0  0  0
   57.8707   31.0850   46.5749 H   0  0  0  0  0  0  0  0  0  0  0  0
   58.3452   32.2894   48.7063 H   0  0  0  0  0  0  0  0  0  0  0  0
   60.0185   35.5932   46.4764 H   0  0  0  0  0  0  0  0  0  0  0  0
   59.5484   34.3976   44.3380 H   0  0  0  0  0  0  0  0  0  0  0  0
   55.5631   28.5415   45.0034 H   0  0  0  0  0  0  0  0  0  0  0  0
  1  2  2  0
  2  3  1  0
  2  4  1  0
  4  5  2  0
  5  6  1  0
  6  7  2  0
  7  8  1  0
  8  9  1  0
  9 10  2  0
  9 11  2  0
  9 12  1  0
 12 13  1  0
 13 14  2  0
 14 15  1  0
 15 16  2  0
 16 17  1  0
 16 18  1  0
 18 19  2  0
  8 20  2  0
 20  4  1  0
 19 13  1  0
  5 21  1  0
  6 22  1  0
  7 23  1  0
 12 24  1  0
 14 25  1  0
 15 26  1  0
 18 27  1  0
 19 28  1  0
 20 29  1  0
M  CHG  2   3  -1  17  -1
M  END
>  <UniqueID>  (17) 
15

>  <SMILES>  (17) 
O=C([O-])c1cccc(S(=O)(=O)Nc2ccc([O-])cc2)c1

>  <Energy>  (17) 
33.1638218862647

>  <Genealogy>  (17) 
O=C([O-])c1cccc(S(=O)(=O)Nc2ccc([O-])cc2)c1 (protonated)
O=C([O-])c1cccc(S(=O)(=O)Nc2ccc([O-])cc2)c1 (3D coordinates assigned)
O=C([O-])c1cccc(S(=O)(=O)Nc2ccc([O-])cc2)c1 (optimized conformer: 33.1638218862647 kcal/mol)

>  <smiles>  (17) 
O=C(O)c1cccc(S(=O)(=O)Nc2ccc(O)cc2)c1

>  <score_type>  (17) 
oracle

>  <origin>  (17) 
adg

>  <m_score__min__energy>  (17) 
-11.31

>  <m_primary>  (17) 
energy

$$$$
17:0
     RDKit          3D

 41 42  0  0  0  0  0  0  0  0999 V2000
   60.3009   25.7912   47.4830 H   0  0  0  0  0  0  0  0  0  0  0  0
   59.5710   25.9050   46.6680 C   0  0  0  0  0  0  0  0  0  0  0  0
   59.0760   24.7830   46.1220 C   0  0  0  0  0  0  0  0  0  0  0  0
   59.7605   23.9286   46.0151 H   0  0  0  0  0  0  0  0  0  0  0  0
   57.6840   24.6020   45.6520 C   0  0  0  0  0  0  0  0  0  0  0  0
   56.7090   25.5380   46.0270 C   0  0  0  0  0  0  0  0  0  0  0  0
   56.9900   26.4023   46.6467 H   0  0  0  0  0  0  0  0  0  0  0  0
   55.3810   25.3780   45.6170 C   0  0  0  0  0  0  0  0  0  0  0  0
   54.4240   26.3190   45.9780 O   0  0  0  0  0  0  0  0  0  0  0  0
   55.0160   24.2720   44.8430 C   0  0  0  0  0  0  0  0  0  0  0  0
   53.9738   24.1529   44.5118 H   0  0  0  0  0  0  0  0  0  0  0  0
   55.9740   23.3180   44.4900 C   0  0  0  0  0  0  0  0  0  0  0  0
   55.6080   22.2120   43.7350 O   0  0  0  0  0  0  0  0  0  0  0  0
   57.3030   23.4750   44.9010 C   0  0  0  0  0  0  0  0  0  0  0  0
   58.0521   22.7144   44.6358 H   0  0  0  0  0  0  0  0  0  0  0  0
   59.2140   27.2830   46.2620 C   0  0  0  0  0  0  0  0  0  0  0  0
   58.6560   28.1500   47.2080 C   0  0  0  0  0  0  0  0  0  0  0  0
   58.5034   27.8055   48.2415 H   0  0  0  0  0  0  0  0  0  0  0  0
   58.2910   29.4510   46.8490 C   0  0  0  0  0  0  0  0  0  0  0  0
   57.8688   30.1265   47.6076 H   0  0  0  0  0  0  0  0  0  0  0  0
   58.4580   29.9060   45.5270 C   0  0  0  0  0  0  0  0  0  0  0  0
   58.0740   31.2540   45.1540 N   0  0  0  0  0  0  0  0  0  0  0  0
   58.6920   32.4230   45.8010 C   0  0  0  0  0  0  0  0  0  0  0  0
   58.5361   32.3603   46.8881 H   0  0  0  0  0  0  0  0  0  0  0  0
   59.7682   32.4296   45.5735 H   0  0  0  0  0  0  0  0  0  0  0  0
   58.0910   33.6630   45.2970 C   0  0  0  0  0  0  0  0  0  0  0  0
   57.6160   34.6410   44.8990 N   0  0  0  0  0  0  0  0  0  0  0  0
   57.0630   31.4800   44.1100 C   0  0  0  0  0  0  0  0  0  0  0  0
   57.5686   31.6228   43.1436 H   0  0  0  0  0  0  0  0  0  0  0  0
   56.4790   32.3743   44.3732 H   0  0  0  0  0  0  0  0  0  0  0  0
   56.1090   30.2840   44.0060 C   0  0  0  0  0  0  0  0  0  0  0  0
   55.0731   30.6419   44.1004 H   0  0  0  0  0  0  0  0  0  0  0  0
   56.3492   29.5754   44.8123 H   0  0  0  0  0  0  0  0  0  0  0  0
   56.2680   29.5670   42.6690 C   0  0  0  0  0  0  0  0  0  0  0  0
   56.5030   28.5072   42.8469 H   0  0  0  0  0  0  0  0  0  0  0  0
   55.3310   29.6439   42.0980 H   0  0  0  0  0  0  0  0  0  0  0  0
   57.0847   30.0328   42.0980 H   0  0  0  0  0  0  0  0  0  0  0  0
   58.9920   29.0180   44.5730 C   0  0  0  0  0  0  0  0  0  0  0  0
   59.1246   29.3510   43.5330 H   0  0  0  0  0  0  0  0  0  0  0  0
   59.3550   27.7180   44.9350 C   0  0  0  0  0  0  0  0  0  0  0  0
   59.7541   27.0307   44.1745 H   0  0  0  0  0  0  0  0  0  0  0  0
  1  2  1  0
  2  3  2  0
  3  4  1  0
  3  5  1  0
  5  6  2  0
  6  7  1  0
  6  8  1  0
  8  9  1  0
  8 10  2  0
 10 11  1  0
 10 12  1  0
 12 13  1  0
 12 14  2  0
 14 15  1  0
  2 16  1  0
 16 17  2  0
 17 18  1  0
 17 19  1  0
 19 20  1  0
 19 21  2  0
 21 22  1  0
 22 23  1  0
 23 24  1  0
 23 25  1  0
 23 26  1  0
 26 27  3  0
 22 28  1  0
 28 29  1  0
 28 30  1  0
 28 31  1  0
 31 32  1  0
 31 33  1  0
 31 34  1  0
 34 35  1  0
 34 36  1  0
 34 37  1  0
 21 38  1  0
 38 39  1  0
 38 40  2  0
 40 41  1  0
 14  5  1  0
 40 16  1  0
M  CHG  2   9  -1  13  -1
M  END
>  <UniqueID>  (18) 
16

>  <SMILES>  (18) 
CCCN(CC#N)c1ccc(/C=C\c2cc([O-])cc([O-])c2)cc1

>  <Energy>  (18) 
47.55420706970394

>  <Genealogy>  (18) 
CCCN(CC#N)c1ccc(C=Cc2cc([O-])cc([O-])c2)cc1 (protonated)
CCCN(CC#N)c1ccc(/C=C\c2cc([O-])cc([O-])c2)cc1 (cis-trans isomerization)
CCCN(CC#N)c1ccc(/C=C\c2cc([O-])cc([O-])c2)cc1 (3D coordinates assigned)
CCCN(CC#N)c1ccc(/C=C\c2cc([O-])cc([O-])c2)cc1 (optimized conformer: 47.55420706970394 kcal/mol)

>  <smiles>  (18) 
CCCN(CC#N)c1ccc(C=Cc2cc(O)cc(O)c2)cc1

>  <score_type>  (18) 
oracle

>  <origin>  (18) 
adg

>  <m_score__min__energy>  (18) 
-12.82

>  <m_primary>  (18) 
energy

$$$$
18:0
     RDKit          3D

 34 35  0  0  0  0  0  0  0  0999 V2000
   59.2040   34.9920   47.2670 C   0  0  0  0  0  0  0  0  0  0  0  0
   58.8680   33.9330   46.2580 C   0  0  0  0  0  0  0  0  0  0  0  0
   58.8570   34.2380   44.8900 C   0  0  0  0  0  0  0  0  0  0  0  0
   58.5060   33.2640   43.9510 C   0  0  0  0  0  0  0  0  0  0  0  0
   58.1480   31.9680   44.3680 C   0  0  0  0  0  0  0  0  0  0  0  0
   57.7800   30.9370   43.4330 N   0  0  0  0  0  0  0  0  0  0  0  0
   56.7890   29.5690   43.8310 S   0  0  0  0  0  0  0  0  0  0  0  0
   56.2970   29.7190   45.2440 O   0  0  0  0  0  0  0  0  0  0  0  0
   55.6130   29.5340   42.8960 O   0  0  0  0  0  0  0  0  0  0  0  0
   57.7380   28.0940   43.6330 C   0  0  0  0  0  0  0  0  0  0  0  0
   58.9110   27.8580   44.2340 C   0  0  0  0  0  0  0  0  0  0  0  0
   59.3320   28.4510   45.5190 C   0  0  0  0  0  0  0  0  0  0  0  0
   60.4290   29.3270   45.5920 C   0  0  0  0  0  0  0  0  0  0  0  0
   60.7900   29.9000   46.8150 C   0  0  0  0  0  0  0  0  0  0  0  0
   60.0510   29.6190   47.9670 C   0  0  0  0  0  0  0  0  0  0  0  0
   58.9410   28.7720   47.8950 C   0  0  0  0  0  0  0  0  0  0  0  0
   58.5770   28.1970   46.6730 C   0  0  0  0  0  0  0  0  0  0  0  0
   58.1450   31.6740   45.7420 C   0  0  0  0  0  0  0  0  0  0  0  0
   58.4950   32.6490   46.6800 C   0  0  0  0  0  0  0  0  0  0  0  0
   59.0752   34.5861   48.2812 H   0  0  0  0  0  0  0  0  0  0  0  0
   60.2476   35.3114   47.1296 H   0  0  0  0  0  0  0  0  0  0  0  0
   58.5354   35.8546   47.1296 H   0  0  0  0  0  0  0  0  0  0  0  0
   59.1262   35.2500   44.5534 H   0  0  0  0  0  0  0  0  0  0  0  0
   58.5095   33.5118   42.8793 H   0  0  0  0  0  0  0  0  0  0  0  0
   58.1360   30.9920   42.4520 H   0  0  0  0  0  0  0  0  0  0  0  0
   57.3376   27.3137   42.9691 H   0  0  0  0  0  0  0  0  0  0  0  0
   59.6116   27.1728   43.7343 H   0  0  0  0  0  0  0  0  0  0  0  0
   61.0047   29.5622   44.6847 H   0  0  0  0  0  0  0  0  0  0  0  0
   61.6578   30.5736   46.8705 H   0  0  0  0  0  0  0  0  0  0  0  0
   60.3423   30.0639   48.9299 H   0  0  0  0  0  0  0  0  0  0  0  0
   58.3536   28.5577   48.8000 H   0  0  0  0  0  0  0  0  0  0  0  0
   57.6946   27.5427   46.6170 H   0  0  0  0  0  0  0  0  0  0  0  0
   57.8644   30.6664   46.0827 H   0  0  0  0  0  0  0  0  0  0  0  0
   58.4778   32.4082   47.7532 H   0  0  0  0  0  0  0  0  0  0  0  0
  1  2  1  0
  2  3  2  0
  3  4  1  0
  4  5  2  0
  5  6  1  0
  6  7  1  0
  7  8  2  0
  7  9  2  0
  7 10  1  0
 10 11  2  3
 11 12  1  0
 12 13  2  0
 13 14  1  0
 14 15  2  0
 15 16  1  0
 16 17  2  0
  5 18  1  0
 18 19  2  0
 19  2  1  0
 17 12  1  0
  1 20  1  0
  1 21  1  0
  1 22  1  0
  3 23  1  0
  4 24  1  0
  6 25  1  0
 10 26  1  0
 11 27  1  0
 13 28  1  0
 14 29  1  0
 15 30  1  0
 16 31  1  0
 17 32  1  0
 18 33  1  0
 19 34  1  0
M  END
>  <UniqueID>  (19) 
17

>  <SMILES>  (19) 
Cc1ccc(NS(=O)(=O)C=Cc2ccccc2)cc1

>  <Energy>  (19) 
43.21332541430685

>  <Genealogy>  (19) 
Cc1ccc(NS(=O)(=O)C=Cc2ccccc2)cc1 (3D coordinates assigned)
Cc1ccc(NS(=O)(=O)C=Cc2ccccc2)cc1 (optimized conformer: 43.21332541430685 kcal/mol)

>  <smiles>  (19) 
Cc1ccc(NS(=O)(=O)C=Cc2ccccc2)cc1

>  <score_type>  (19) 
oracle

>  <origin>  (19) 
adg

>  <m_score__min__energy>  (19) 
-8.0500000000000007

>  <m_primary>  (19) 
energy

$$$$
19:0
     RDKit          3D

 27 28  0  0  0  0  0  0  0  0999 V2000
   56.2830   31.9760   44.8690 O   0  0  0  0  0  0  0  0  0  0  0  0
   57.4520   31.7150   44.4710 C   0  0  0  0  0  0  0  0  0  0  0  0
   58.3650   32.7480   44.2410 O   0  0  0  0  0  0  0  0  0  0  0  0
   58.1130   34.0980   44.6160 C   0  0  0  0  0  0  0  0  0  0  0  0
   59.0760   34.5040   45.6880 C   0  0  0  0  0  0  0  0  0  0  0  0
   59.6300   35.6340   45.6230 O   0  0  0  0  0  0  0  0  0  0  0  0
   59.4020   33.5950   46.8050 C   0  0  0  0  0  0  0  0  0  0  0  0
   59.6250   33.9850   48.1130 C   0  0  0  0  0  0  0  0  0  0  0  0
   59.8990   32.8310   48.8190 C   0  0  0  0  0  0  0  0  0  0  0  0
   59.8310   31.7900   47.9160 C   0  0  0  0  0  0  0  0  0  0  0  0
   59.5280   32.2570   46.6910 N   0  0  0  0  0  0  0  0  0  0  0  0
   57.8500   30.3160   44.2510 C   0  0  0  0  0  0  0  0  0  0  0  0
   57.0000   29.4110   43.5960 C   0  0  0  0  0  0  0  0  0  0  0  0
   57.4040   28.1260   43.4080 N   0  0  0  0  0  0  0  0  0  0  0  0
   58.6200   27.7010   43.8430 C   0  0  0  0  0  0  0  0  0  0  0  0
   59.4690   28.5980   44.4940 C   0  0  0  0  0  0  0  0  0  0  0  0
   59.0660   29.8820   44.6820 N   0  0  0  0  0  0  0  0  0  0  0  0
   58.2408   34.7520   43.7408 H   0  0  0  0  0  0  0  0  0  0  0  0
   57.0836   34.1887   44.9930 H   0  0  0  0  0  0  0  0  0  0  0  0
   59.5908   35.0099   48.5111 H   0  0  0  0  0  0  0  0  0  0  0  0
   60.1271   32.7559   49.8925 H   0  0  0  0  0  0  0  0  0  0  0  0
   60.0001   30.7313   48.1620 H   0  0  0  0  0  0  0  0  0  0  0  0
   59.4180   31.6820   45.8280 H   0  0  0  0  0  0  0  0  0  0  0  0
   56.0133   29.7391   43.2370 H   0  0  0  0  0  0  0  0  0  0  0  0
   56.7700   27.4540   42.9210 H   0  0  0  0  0  0  0  0  0  0  0  0
   58.9325   26.6585   43.6833 H   0  0  0  0  0  0  0  0  0  0  0  0
   60.4556   28.2682   44.8516 H   0  0  0  0  0  0  0  0  0  0  0  0
  1  2  2  0
  2  3  1  0
  3  4  1  0
  4  5  1  0
  5  6  2  0
  5  7  1  0
  7  8  2  0
  8  9  1  0
  9 10  2  0
 10 11  1  0
  2 12  1  0
 12 13  2  0
 13 14  1  0
 14 15  2  0
 15 16  1  0
 16 17  2  0
 11  7  1  0
 17 12  1  0
  4 18  1  0
  4 19  1  0
  8 20  1  0
  9 21  1  0
 10 22  1  0
 11 23  1  0
 13 24  1  0
 14 25  1  0
 15 26  1  0
 16 27  1  0
M  CHG  1  14   1
M  END
>  <UniqueID>  (20) 
18

>  <SMILES>  (20) 
O=C(OCC(=O)c1ccc[nH]1)c1c[nH+]ccn1

>  <Energy>  (20) 
49.367986486789874

>  <Genealogy>  (20) 
O=C(OCC(=O)c1ccc[nH]1)c1c[nH+]ccn1 (protonated)
O=C(OCC(=O)c1ccc[nH]1)c1c[nH+]ccn1 (3D coordinates assigned)
O=C(OCC(=O)c1ccc[nH]1)c1c[nH+]ccn1 (optimized conformer: 49.367986486789874 kcal/mol)

>  <smiles>  (20) 
O=C(OCC(=O)c1ccc[nH]1)c1cnccn1

>  <score_type>  (20) 
oracle

>  <origin>  (20) 
adg

>  <m_score__min__energy>  (20) 
-3.9300000000000002

>  <m_primary>  (20) 
energy

$$$$
20:0
     RDKit          3D

 36 38  0  0  0  0  0  0  0  0999 V2000
   57.0420   31.4900   46.6250 H   0  0  0  0  0  0  0  0  0  0  0  0
   57.7490   31.9130   47.2130 O   0  0  0  0  0  0  0  0  0  0  0  0
   58.4930   33.0250   46.8170 C   0  0  0  0  0  0  0  0  0  0  0  0
   59.0390   33.8530   47.8070 C   0  0  0  0  0  0  0  0  0  0  0  0
   58.9062   33.5967   48.8684 H   0  0  0  0  0  0  0  0  0  0  0  0
   59.7510   35.0020   47.4540 C   0  0  0  0  0  0  0  0  0  0  0  0
   60.1767   35.6468   48.2369 H   0  0  0  0  0  0  0  0  0  0  0  0
   59.9230   35.3330   46.1070 C   0  0  0  0  0  0  0  0  0  0  0  0
   60.4776   36.2420   45.8311 H   0  0  0  0  0  0  0  0  0  0  0  0
   59.3910   34.5100   45.1100 C   0  0  0  0  0  0  0  0  0  0  0  0
   59.5196   34.7797   44.0513 H   0  0  0  0  0  0  0  0  0  0  0  0
   58.6940   33.3420   45.4530 C   0  0  0  0  0  0  0  0  0  0  0  0
   58.1720   32.5130   44.4050 N   0  0  0  0  0  0  0  0  0  0  0  0
   57.8110   31.2760   44.5620 C   0  0  0  0  0  0  0  0  0  0  0  0
   56.5140   30.9060   44.6230 N   0  0  0  0  0  0  0  0  0  0  0  0
   56.3880   29.5620   44.7860 C   0  0  0  0  0  0  0  0  0  0  0  0
   55.1410   28.9540   44.8700 O   0  0  0  0  0  0  0  0  0  0  0  0
   57.5850   28.8500   44.8580 C   0  0  0  0  0  0  0  0  0  0  0  0
   57.6970   27.3570   44.9910 C   0  0  0  0  0  0  0  0  0  0  0  0
   58.5589   27.0152   44.3991 H   0  0  0  0  0  0  0  0  0  0  0  0
   56.7543   26.9208   44.6290 H   0  0  0  0  0  0  0  0  0  0  0  0
   57.8850   26.9100   46.4170 C   0  0  0  0  0  0  0  0  0  0  0  0
   58.1870   27.7690   47.2890 O   0  0  0  0  0  0  0  0  0  0  0  0
   57.8210   25.5300   46.8020 N   0  0  0  0  0  0  0  0  0  0  0  0
   57.8120   24.3900   45.9290 C   0  0  0  0  0  0  0  0  0  0  0  0
   58.9960   23.6910   45.6320 C   0  0  0  0  0  0  0  0  0  0  0  0
   59.9458   24.0031   46.0908 H   0  0  0  0  0  0  0  0  0  0  0  0
   58.9710   22.6010   44.7560 C   0  0  0  0  0  0  0  0  0  0  0  0
   59.8967   22.0461   44.5433 H   0  0  0  0  0  0  0  0  0  0  0  0
   57.7730   22.2160   44.1510 C   0  0  0  0  0  0  0  0  0  0  0  0
   57.7558   21.3584   43.4624 H   0  0  0  0  0  0  0  0  0  0  0  0
   56.5950   22.9200   44.4200 C   0  0  0  0  0  0  0  0  0  0  0  0
   55.6529   22.6173   43.9396 H   0  0  0  0  0  0  0  0  0  0  0  0
   56.6120   24.0100   45.3000 C   0  0  0  0  0  0  0  0  0  0  0  0
   55.1150   24.8750   45.6210 Cl  0  0  0  0  0  0  0  0  0  0  0  0
   58.8550   29.9520   44.6850 S   0  0  0  0  0  0  0  0  0  0  0  0
  1  2  1  0
  2  3  1  0
  3  4  2  0
  4  5  1  0
  4  6  1  0
  6  7  1  0
  6  8  2  0
  8  9  1  0
  8 10  1  0
 10 11  1  0
 10 12  2  0
 12 13  1  0
 13 14  2  0
 14 15  1  0
 15 16  1  0
 16 17  1  0
 16 18  2  0
 18 19  1  0
 19 20  1  0
 19 21  1  0
 19 22  1  0
 22 23  2  0
 22 24  1  0
 24 25  1  0
 25 26  2  0
 26 27  1  0
 26 28  1  0
 28 29  1  0
 28 30  2  0
 30 31  1  0
 30 32  1  0
 32 33  1  0
 32 34  2  0
 34 35  1  0
 18 36  1  0
 12  3  1  0
 36 14  1  0
 34 25  1  0
M  CHG  3  15  -1  17  -1  24  -1
M  END
>  <UniqueID>  (21) 
19

>  <SMILES>  (21) 
O=C(Cc1s/c(=N\c2ccccc2O)[n-]c1[O-])[N-]c1ccccc1Cl

>  <Energy>  (21) 
82.99455118036539

>  <Genealogy>  (21) 
O=C(Cc1sc(=Nc2ccccc2O)[n-]c1[O-])[N-]c1ccccc1Cl (protonated)
O=C(Cc1s/c(=N\c2ccccc2O)[n-]c1[O-])[N-]c1ccccc1Cl (cis-trans isomerization)
O=C(Cc1s/c(=N\c2ccccc2O)[n-]c1[O-])[N-]c1ccccc1Cl (3D coordinates assigned)
O=C(Cc1s/c(=N\c2ccccc2O)[n-]c1[O-])[N-]c1ccccc1Cl (optimized conformer: 82.99455118036539 kcal/mol)

>  <smiles>  (21) 
O=C(Cc1sc(=Nc2ccccc2O)[nH]c1O)Nc1ccccc1Cl

>  <score_type>  (21) 
oracle

>  <origin>  (21) 
adg

>  <m_score__min__energy>  (21) 
-15.109999999999999

>  <m_primary>  (21) 
energy

$$$$
21:0
     RDKit          3D

 39 41  0  0  0  0  0  0  0  0999 V2000
   58.1460   29.7200   50.4470 O   0  0  0  0  0  0  0  0  0  0  0  0
   58.8080   30.1950   49.4890 C   0  0  0  0  0  0  0  0  0  0  0  0
   59.5000   31.3960   49.6410 C   0  0  0  0  0  0  0  0  0  0  0  0
   60.2250   31.8960   48.5500 C   0  0  0  0  0  0  0  0  0  0  0  0
   60.9170   33.1560   48.6390 N   0  0  0  0  0  0  0  0  0  0  0  0
   59.9830   34.2880   48.5380 C   0  0  0  0  0  0  0  0  0  0  0  0
   59.2020   34.2610   47.2460 C   0  0  0  0  0  0  0  0  0  0  0  0
   57.9630   33.6010   47.1770 C   0  0  0  0  0  0  0  0  0  0  0  0
   57.2460   33.5720   45.9770 C   0  0  0  0  0  0  0  0  0  0  0  0
   57.7640   34.1940   44.8380 C   0  0  0  0  0  0  0  0  0  0  0  0
   59.0060   34.8320   44.8920 C   0  0  0  0  0  0  0  0  0  0  0  0
   59.7250   34.8630   46.0900 C   0  0  0  0  0  0  0  0  0  0  0  0
   60.2310   31.2020   47.3790 N   0  0  0  0  0  0  0  0  0  0  0  0
   59.5520   30.0300   47.2500 C   0  0  0  0  0  0  0  0  0  0  0  0
   59.5840   29.2870   45.9510 C   0  0  0  0  0  0  0  0  0  0  0  0
   58.4280   29.6960   45.0720 C   0  0  0  0  0  0  0  0  0  0  0  0
   58.5210   30.8830   44.3230 C   0  0  0  0  0  0  0  0  0  0  0  0
   57.4710   31.2790   43.4910 C   0  0  0  0  0  0  0  0  0  0  0  0
   56.3130   30.5040   43.4070 C   0  0  0  0  0  0  0  0  0  0  0  0
   56.1970   29.3370   44.1650 C   0  0  0  0  0  0  0  0  0  0  0  0
   57.2430   28.9290   45.0010 C   0  0  0  0  0  0  0  0  0  0  0  0
   57.0330   27.4570   45.9440 Cl  0  0  0  0  0  0  0  0  0  0  0  0
   58.8470   29.5360   48.3030 N   0  0  0  0  0  0  0  0  0  0  0  0
   59.4776   31.9398   50.5969 H   0  0  0  0  0  0  0  0  0  0  0  0
   61.6370   33.2200   47.8800 H   0  0  0  0  0  0  0  0  0  0  0  0
   61.4170   33.2080   49.5570 H   0  0  0  0  0  0  0  0  0  0  0  0
   59.2776   34.2431   49.3808 H   0  0  0  0  0  0  0  0  0  0  0  0
   60.5707   35.2176   48.5613 H   0  0  0  0  0  0  0  0  0  0  0  0
   57.5558   33.1053   48.0706 H   0  0  0  0  0  0  0  0  0  0  0  0
   56.2739   33.0594   45.9296 H   0  0  0  0  0  0  0  0  0  0  0  0
   57.1933   34.1814   43.8977 H   0  0  0  0  0  0  0  0  0  0  0  0
   59.4180   35.3101   43.9911 H   0  0  0  0  0  0  0  0  0  0  0  0
   60.7050   35.3612   46.1277 H   0  0  0  0  0  0  0  0  0  0  0  0
   60.5281   29.5087   45.4318 H   0  0  0  0  0  0  0  0  0  0  0  0
   59.5054   28.2096   46.1587 H   0  0  0  0  0  0  0  0  0  0  0  0
   59.4265   31.5036   44.3929 H   0  0  0  0  0  0  0  0  0  0  0  0
   57.5569   32.2033   42.9009 H   0  0  0  0  0  0  0  0  0  0  0  0
   55.4917   30.8127   42.7435 H   0  0  0  0  0  0  0  0  0  0  0  0
   55.2784   28.7349   44.1048 H   0  0  0  0  0  0  0  0  0  0  0  0
  1  2  2  0
  2  3  1  0
  3  4  2  0
  4  5  1  0
  5  6  1  0
  6  7  1  0
  7  8  2  0
  8  9  1  0
  9 10  2  0
 10 11  1  0
 11 12  2  0
  4 13  1  0
 13 14  2  0
 14 15  1  0
 15 16  1  0
 16 17  2  0
 17 18  1  0
 18 19  2  0
 19 20  1  0
 20 21  2  0
 21 22  1  0
 14 23  1  0
 23  2  1  0
 12  7  1  0
 21 16  1  0
  3 24  1  0
  5 25  1  0
  5 26  1  0
  6 27  1  0
  6 28  1  0
  8 29  1  0
  9 30  1  0
 10 31  1  0
 11 32  1  0
 12 33  1  0
 15 34  1  0
 15 35  1  0
 17 36  1  0
 18 37  1  0
 19 38  1  0
 20 39  1  0
M  CHG  2   5   1  23  -1
M  END
>  <UniqueID>  (22) 
20

>  <SMILES>  (22) 
O=c1cc([NH2+]Cc2ccccc2)nc(Cc2ccccc2Cl)[n-]1

>  <Energy>  (22) 
38.11690430170465

>  <Genealogy>  (22) 
O=c1cc([NH2+]Cc2ccccc2)nc(Cc2ccccc2Cl)[n-]1 (protonated)
O=c1cc([NH2+]Cc2ccccc2)nc(Cc2ccccc2Cl)[n-]1 (3D coordinates assigned)
O=c1cc([NH2+]Cc2ccccc2)nc(Cc2ccccc2Cl)[n-]1 (optimized conformer: 38.11690430170465 kcal/mol)

>  <smiles>  (22) 
O=c1cc(NCc2ccccc2)nc(Cc2ccccc2Cl)[nH]1

>  <score_type>  (22) 
oracle

>  <origin>  (22) 
adg

>  <m_score__min__energy>  (22) 
-7.5700000000000003

>  <m_primary>  (22) 
energy

$$$$
22:0
     RDKit          3D

 61 64  0  0  0  0  0  0  0  0999 V2000
   56.5670   23.7950   43.7300 C   0  0  0  0  0  0  0  0  0  0  0  0
   56.9430   24.3050   45.0530 N   0  0  0  0  0  0  0  0  0  0  0  0
   56.5070   23.5770   46.2490 C   0  0  0  0  0  0  0  0  0  0  0  0
   57.7570   25.4980   45.1770 C   0  0  0  0  0  0  0  0  0  0  0  0
   58.2900   25.8820   46.4230 C   0  0  0  0  0  0  0  0  0  0  0  0
   59.0370   27.0560   46.5490 C   0  0  0  0  0  0  0  0  0  0  0  0
   59.2560   27.8810   45.4370 C   0  0  0  0  0  0  0  0  0  0  0  0
   59.9870   29.1890   45.5960 C   0  0  0  0  0  0  0  0  0  0  0  0
   59.2810   30.0910   46.5380 N   0  0  0  0  0  0  0  0  0  0  0  0
   57.8050   29.9700   46.4190 C   0  0  0  0  0  0  0  0  0  0  0  0
   57.3480   30.2160   45.0010 C   0  0  0  0  0  0  0  0  0  0  0  0
   58.0270   31.1470   44.1950 C   0  0  0  0  0  0  0  0  0  0  0  0
   57.6440   31.3430   42.8650 C   0  0  0  0  0  0  0  0  0  0  0  0
   56.5720   30.6240   42.3320 C   0  0  0  0  0  0  0  0  0  0  0  0
   55.8710   29.7190   43.1320 C   0  0  0  0  0  0  0  0  0  0  0  0
   56.2500   29.5150   44.4630 C   0  0  0  0  0  0  0  0  0  0  0  0
   55.5340   28.6140   45.2420 O   0  0  0  0  0  0  0  0  0  0  0  0
   59.7040   31.4940   46.3130 C   0  0  0  0  0  0  0  0  0  0  0  0
   60.6310   31.9510   47.4200 C   0  0  0  0  0  0  0  0  0  0  0  0
   61.9980   32.1100   47.1360 C   0  0  0  0  0  0  0  0  0  0  0  0
   62.8680   32.5670   48.1250 C   0  0  0  0  0  0  0  0  0  0  0  0
   64.0930   32.7140   47.8710 O   0  0  0  0  0  0  0  0  0  0  0  0
   62.4000   32.8620   49.3640 N   0  0  0  0  0  0  0  0  0  0  0  0
   61.0880   32.7200   49.6880 C   0  0  0  0  0  0  0  0  0  0  0  0
   60.6580   33.0500   50.9780 C   0  0  0  0  0  0  0  0  0  0  0  0
   59.3110   32.9160   51.3300 C   0  0  0  0  0  0  0  0  0  0  0  0
   58.7750   33.3650   52.9460 S   0  0  0  0  0  0  0  0  0  0  0  0
   58.1570   34.9790   52.9170 N   0  0  0  0  0  0  0  0  0  0  0  0
   57.6990   32.4220   53.4090 O   0  0  0  0  0  0  0  0  0  0  0  0
   59.9300   33.2860   53.9040 O   0  0  0  0  0  0  0  0  0  0  0  0
   58.3890   32.4530   50.3840 C   0  0  0  0  0  0  0  0  0  0  0  0
   58.8090   32.1170   49.0940 C   0  0  0  0  0  0  0  0  0  0  0  0
   60.1610   32.2520   48.7230 C   0  0  0  0  0  0  0  0  0  0  0  0
   58.7680   27.4850   44.1840 C   0  0  0  0  0  0  0  0  0  0  0  0
   58.0210   26.3110   44.0560 C   0  0  0  0  0  0  0  0  0  0  0  0
   55.9180   22.9147   43.8473 H   0  0  0  0  0  0  0  0  0  0  0  0
   56.0276   24.5769   43.1753 H   0  0  0  0  0  0  0  0  0  0  0  0
   57.4735   23.5110   43.1753 H   0  0  0  0  0  0  0  0  0  0  0  0
   56.8326   24.1206   47.1482 H   0  0  0  0  0  0  0  0  0  0  0  0
   55.4102   23.4936   46.2480 H   0  0  0  0  0  0  0  0  0  0  0  0
   56.9512   22.5707   46.2480 H   0  0  0  0  0  0  0  0  0  0  0  0
   58.1162   25.2505   47.3068 H   0  0  0  0  0  0  0  0  0  0  0  0
   59.4560   27.3347   47.5271 H   0  0  0  0  0  0  0  0  0  0  0  0
   60.9981   28.9897   45.9808 H   0  0  0  0  0  0  0  0  0  0  0  0
   60.0339   29.6816   44.6136 H   0  0  0  0  0  0  0  0  0  0  0  0
   57.5027   28.9568   46.7224 H   0  0  0  0  0  0  0  0  0  0  0  0
   57.3406   30.7254   47.0699 H   0  0  0  0  0  0  0  0  0  0  0  0
   58.8645   31.7244   44.6136 H   0  0  0  0  0  0  0  0  0  0  0  0
   58.1877   32.0645   42.2374 H   0  0  0  0  0  0  0  0  0  0  0  0
   56.2797   30.7705   41.2817 H   0  0  0  0  0  0  0  0  0  0  0  0
   55.0178   29.1646   42.7140 H   0  0  0  0  0  0  0  0  0  0  0  0
   60.2290   31.5639   45.3489 H   0  0  0  0  0  0  0  0  0  0  0  0
   58.8124   32.1383   46.3061 H   0  0  0  0  0  0  0  0  0  0  0  0
   62.3820   31.8737   46.1326 H   0  0  0  0  0  0  0  0  0  0  0  0
   61.3832   33.4168   51.7193 H   0  0  0  0  0  0  0  0  0  0  0  0
   58.8910   35.5940   53.3330 H   0  0  0  0  0  0  0  0  0  0  0  0
   58.0670   35.2540   51.9140 H   0  0  0  0  0  0  0  0  0  0  0  0
   57.3282   32.3531   50.6573 H   0  0  0  0  0  0  0  0  0  0  0  0
   58.0774   31.7439   48.3622 H   0  0  0  0  0  0  0  0  0  0  0  0
   58.9742   28.1017   43.2968 H   0  0  0  0  0  0  0  0  0  0  0  0
   57.6344   26.0177   43.0688 H   0  0  0  0  0  0  0  0  0  0  0  0
  1  2  1  0
  2  3  1  0
  2  4  1  0
  4  5  2  0
  5  6  1  0
  6  7  2  0
  7  8  1  0
  8  9  1  0
  9 10  1  0
 10 11  1  0
 11 12  2  0
 12 13  1  0
 13 14  2  0
 14 15  1  0
 15 16  2  0
 16 17  1  0
  9 18  1  0
 18 19  1  0
 19 20  2  0
 20 21  1  0
 21 22  2  0
 21 23  1  0
 23 24  1  0
 24 25  2  0
 25 26  1  0
 26 27  1  0
 27 28  1  0
 27 29  2  0
 27 30  2  0
 26 31  2  0
 31 32  1  0
 32 33  2  0
  7 34  1  0
 34 35  2  0
 35  4  1  0
 16 11  1  0
 33 19  1  0
 33 24  1  0
  1 36  1  0
  1 37  1  0
  1 38  1  0
  3 39  1  0
  3 40  1  0
  3 41  1  0
  5 42  1  0
  6 43  1  0
  8 44  1  0
  8 45  1  0
 10 46  1  0
 10 47  1  0
 12 48  1  0
 13 49  1  0
 14 50  1  0
 15 51  1  0
 18 52  1  0
 18 53  1  0
 20 54  1  0
 25 55  1  0
 28 56  1  0
 28 57  1  0
 31 58  1  0
 32 59  1  0
 34 60  1  0
 35 61  1  0
M  CHG  2  17  -1  23  -1
M  END
>  <UniqueID>  (23) 
21

>  <SMILES>  (23) 
CN(C)c1ccc(CN(Cc2ccccc2[O-])Cc2cc(=O)[n-]c3cc(S(N)(=O)=O)ccc23)cc1

>  <Energy>  (23) 
68.4713884051224

>  <Genealogy>  (23) 
CN(C)c1ccc(CN(Cc2ccccc2[O-])Cc2cc(=O)[n-]c3cc(S(N)(=O)=O)ccc23)cc1 (protonated)
CN(C)c1ccc(CN(Cc2ccccc2[O-])Cc2cc(=O)[n-]c3cc(S(N)(=O)=O)ccc23)cc1 (3D coordinates assigned)
CN(C)c1ccc(CN(Cc2ccccc2[O-])Cc2cc(=O)[n-]c3cc(S(N)(=O)=O)ccc23)cc1 (optimized conformer: 68.4713884051224 kcal/mol)

>  <smiles>  (23) 
CN(C)c1ccc(CN(Cc2ccccc2O)Cc2cc(=O)[nH]c3cc(S(N)(=O)=O)ccc23)cc1

>  <score_type>  (23) 
oracle

>  <origin>  (23) 
adg

>  <m_score__min__energy>  (23) 
-13.779999999999999

>  <m_primary>  (23) 
energy

$$$$
23:0
     RDKit          3D

 93 97  0  0  0  0  0  0  0  0999 V2000
   58.1100   33.4240   52.3990 C   0  0  0  0  0  0  0  0  0  0  0  0
   59.2770   33.4540   51.4190 C   0  0  0  0  0  0  0  0  0  0  0  0
   59.0620   32.4630   50.2730 C   0  0  0  0  0  0  0  0  0  0  0  0
   59.6580   32.9740   48.9870 C   0  0  0  0  0  0  0  0  0  0  0  0
   59.0580   33.9160   48.1750 C   0  0  0  0  0  0  0  0  0  0  0  0
   59.9440   34.1760   47.1480 C   0  0  0  0  0  0  0  0  0  0  0  0
   59.6590   35.0740   45.9760 C   0  0  0  0  0  0  0  0  0  0  0  0
   59.1540   34.3070   44.7350 C   0  0  0  0  0  0  0  0  0  0  0  0
   57.7780   33.6320   44.9020 C   0  0  0  0  0  0  0  0  0  0  0  0
   57.8630   32.1400   45.1100 C   0  0  0  0  0  0  0  0  0  0  0  0
   58.6640   31.6110   46.1330 C   0  0  0  0  0  0  0  0  0  0  0  0
   58.6350   30.2430   46.4220 C   0  0  0  0  0  0  0  0  0  0  0  0
   57.8080   29.3750   45.6830 C   0  0  0  0  0  0  0  0  0  0  0  0
   57.6940   27.9490   46.0600 C   0  0  0  0  0  0  0  0  0  0  0  0
   58.1740   27.5410   47.1550 O   0  0  0  0  0  0  0  0  0  0  0  0
   57.0060   27.0310   45.1970 N   0  0  0  0  0  0  0  0  0  0  0  0
   56.1380   25.6570   45.7970 S   0  0  0  0  0  0  0  0  0  0  0  0
   54.6620   25.9060   45.6470 O   0  0  0  0  0  0  0  0  0  0  0  0
   56.4420   25.4840   47.2600 O   0  0  0  0  0  0  0  0  0  0  0  0
   56.5800   24.2020   44.9030 C   0  0  0  0  0  0  0  0  0  0  0  0
   55.8650   23.8190   43.7560 C   0  0  0  0  0  0  0  0  0  0  0  0
   56.2720   22.7060   43.0080 C   0  0  0  0  0  0  0  0  0  0  0  0
   57.3960   21.9760   43.4000 C   0  0  0  0  0  0  0  0  0  0  0  0
   58.1040   22.3460   44.5480 C   0  0  0  0  0  0  0  0  0  0  0  0
   57.6990   23.4540   45.3010 C   0  0  0  0  0  0  0  0  0  0  0  0
   57.0330   29.9020   44.6290 C   0  0  0  0  0  0  0  0  0  0  0  0
   57.0550   31.2730   44.3500 C   0  0  0  0  0  0  0  0  0  0  0  0
   61.0770   33.4040   47.3930 C   0  0  0  0  0  0  0  0  0  0  0  0
   62.3760   33.4750   46.6340 C   0  0  0  0  0  0  0  0  0  0  0  0
   63.4640   34.1020   47.5150 C   0  0  0  0  0  0  0  0  0  0  0  0
   64.5170   33.1220   47.8050 N   0  0  0  0  0  0  0  0  0  0  0  0
   64.8040   33.0510   49.5210 S   0  0  0  0  0  0  0  0  0  0  0  0
   66.2260   33.4610   49.7880 O   0  0  0  0  0  0  0  0  0  0  0  0
   64.6080   31.6430   50.0080 O   0  0  0  0  0  0  0  0  0  0  0  0
   63.6980   34.1500   50.4010 C   0  0  0  0  0  0  0  0  0  0  0  0
   63.6760   33.8070   51.8670 C   0  0  0  0  0  0  0  0  0  0  0  0
   62.4600   33.7720   52.5750 C   0  0  0  0  0  0  0  0  0  0  0  0
   62.4490   33.4740   53.9420 C   0  0  0  0  0  0  0  0  0  0  0  0
   63.6480   33.2170   54.6160 C   0  0  0  0  0  0  0  0  0  0  0  0
   64.8630   33.2730   53.9220 C   0  0  0  0  0  0  0  0  0  0  0  0
   64.8800   33.5710   52.5550 C   0  0  0  0  0  0  0  0  0  0  0  0
   60.8880   32.6680   48.5140 N   0  0  0  0  0  0  0  0  0  0  0  0
   61.7810   31.6770   49.0450 C   0  0  0  0  0  0  0  0  0  0  0  0
   62.5180   31.0140   48.2720 O   0  0  0  0  0  0  0  0  0  0  0  0
   61.8290   31.4290   50.5200 C   0  0  0  0  0  0  0  0  0  0  0  0
   61.6430   29.9600   50.8140 C   0  0  0  0  0  0  0  0  0  0  0  0
   60.6820   29.2380   50.0890 C   0  0  0  0  0  0  0  0  0  0  0  0
   60.4830   27.8780   50.3340 C   0  0  0  0  0  0  0  0  0  0  0  0
   61.2430   27.2180   51.2990 C   0  0  0  0  0  0  0  0  0  0  0  0
   60.9790   25.5160   51.6130 Cl  0  0  0  0  0  0  0  0  0  0  0  0
   62.2180   27.9210   52.0180 C   0  0  0  0  0  0  0  0  0  0  0  0
   62.4300   29.2840   51.7710 C   0  0  0  0  0  0  0  0  0  0  0  0
   63.6940   30.1050   52.6840 Cl  0  0  0  0  0  0  0  0  0  0  0  0
   58.4959   33.4339   53.4291 H   0  0  0  0  0  0  0  0  0  0  0  0
   57.4729   34.3061   52.2376 H   0  0  0  0  0  0  0  0  0  0  0  0
   57.5190   32.5104   52.2376 H   0  0  0  0  0  0  0  0  0  0  0  0
   59.3709   34.4682   51.0036 H   0  0  0  0  0  0  0  0  0  0  0  0
   60.1926   33.1699   51.9584 H   0  0  0  0  0  0  0  0  0  0  0  0
   59.5381   31.5060   50.5330 H   0  0  0  0  0  0  0  0  0  0  0  0
   57.9797   32.3325   50.1258 H   0  0  0  0  0  0  0  0  0  0  0  0
   58.0668   34.3710   48.3183 H   0  0  0  0  0  0  0  0  0  0  0  0
   58.8916   35.8041   46.2727 H   0  0  0  0  0  0  0  0  0  0  0  0
   60.6052   35.5614   45.6981 H   0  0  0  0  0  0  0  0  0  0  0  0
   59.0860   35.0181   43.8986 H   0  0  0  0  0  0  0  0  0  0  0  0
   59.8756   33.4953   44.5604 H   0  0  0  0  0  0  0  0  0  0  0  0
   57.2748   34.0772   45.7729 H   0  0  0  0  0  0  0  0  0  0  0  0
   57.2197   33.7982   43.9689 H   0  0  0  0  0  0  0  0  0  0  0  0
   59.3200   32.2774   46.7123 H   0  0  0  0  0  0  0  0  0  0  0  0
   59.2623   29.8423   47.2319 H   0  0  0  0  0  0  0  0  0  0  0  0
   54.9817   24.3953   43.4436 H   0  0  0  0  0  0  0  0  0  0  0  0
   55.7065   22.4077   42.1129 H   0  0  0  0  0  0  0  0  0  0  0  0
   57.7244   21.1103   42.8061 H   0  0  0  0  0  0  0  0  0  0  0  0
   58.9832   21.7635   44.8605 H   0  0  0  0  0  0  0  0  0  0  0  0
   58.2577   23.7387   46.2048 H   0  0  0  0  0  0  0  0  0  0  0  0
   56.4072   29.2309   44.0224 H   0  0  0  0  0  0  0  0  0  0  0  0
   56.4381   31.6753   43.5330 H   0  0  0  0  0  0  0  0  0  0  0  0
   62.6835   32.4600   46.3422 H   0  0  0  0  0  0  0  0  0  0  0  0
   62.2364   34.0948   45.7360 H   0  0  0  0  0  0  0  0  0  0  0  0
   63.9045   34.9621   46.9895 H   0  0  0  0  0  0  0  0  0  0  0  0
   63.0107   34.4287   48.4625 H   0  0  0  0  0  0  0  0  0  0  0  0
   64.1780   32.1730   47.5220 H   0  0  0  0  0  0  0  0  0  0  0  0
   64.0424   35.1872   50.2763 H   0  0  0  0  0  0  0  0  0  0  0  0
   62.6829   34.0378   49.9924 H   0  0  0  0  0  0  0  0  0  0  0  0
   61.5150   33.9797   52.0517 H   0  0  0  0  0  0  0  0  0  0  0  0
   61.4949   33.4417   54.4885 H   0  0  0  0  0  0  0  0  0  0  0  0
   63.6362   32.9716   55.6882 H   0  0  0  0  0  0  0  0  0  0  0  0
   65.8071   33.0821   54.4533 H   0  0  0  0  0  0  0  0  0  0  0  0
   65.8379   33.6209   52.0166 H   0  0  0  0  0  0  0  0  0  0  0  0
   62.8038   31.7561   50.9108 H   0  0  0  0  0  0  0  0  0  0  0  0
   61.0185   31.9945   51.0030 H   0  0  0  0  0  0  0  0  0  0  0  0
   60.0809   29.7478   49.3217 H   0  0  0  0  0  0  0  0  0  0  0  0
   59.7230   27.3245   49.7630 H   0  0  0  0  0  0  0  0  0  0  0  0
   62.8191   27.4016   52.7789 H   0  0  0  0  0  0  0  0  0  0  0  0
  1  2  1  0
  2  3  1  0
  3  4  1  0
  4  5  2  0
  5  6  1  0
  6  7  1  0
  7  8  1  0
  8  9  1  0
  9 10  1  0
 10 11  2  0
 11 12  1  0
 12 13  2  0
 13 14  1  0
 14 15  2  0
 14 16  1  0
 16 17  1  0
 17 18  2  0
 17 19  2  0
 17 20  1  0
 20 21  2  0
 21 22  1  0
 22 23  2  0
 23 24  1  0
 24 25  2  0
 13 26  1  0
 26 27  2  0
  6 28  2  0
 28 29  1  0
 29 30  1  0
 30 31  1  0
 31 32  1  0
 32 33  2  0
 32 34  2  0
 32 35  1  0
 35 36  1  0
 36 37  2  0
 37 38  1  0
 38 39  2  0
 39 40  1  0
 40 41  2  0
 28 42  1  0
 42 43  1  0
 43 44  2  0
 43 45  1  0
 45 46  1  0
 46 47  2  0
 47 48  1  0
 48 49  2  0
 49 50  1  0
 49 51  1  0
 51 52  2  0
 52 53  1  0
 42  4  1  0
 52 46  1  0
 27 10  1  0
 41 36  1  0
 25 20  1  0
  1 54  1  0
  1 55  1  0
  1 56  1  0
  2 57  1  0
  2 58  1  0
  3 59  1  0
  3 60  1  0
  5 61  1  0
  7 62  1  0
  7 63  1  0
  8 64  1  0
  8 65  1  0
  9 66  1  0
  9 67  1  0
 11 68  1  0
 12 69  1  0
 21 70  1  0
 22 71  1  0
 23 72  1  0
 24 73  1  0
 25 74  1  0
 26 75  1  0
 27 76  1  0
 29 77  1  0
 29 78  1  0
 30 79  1  0
 30 80  1  0
 31 81  1  0
 35 82  1  0
 35 83  1  0
 37 84  1  0
 38 85  1  0
 39 86  1  0
 40 87  1  0
 41 88  1  0
 45 89  1  0
 45 90  1  0
 47 91  1  0
 48 92  1  0
 51 93  1  0
M  CHG  1  16  -1
M  END
>  <UniqueID>  (24) 
22

>  <SMILES>  (24) 
CCCc1cc(CCCc2ccc(C(=O)[N-]S(=O)(=O)c3ccccc3)cc2)c(CCNS(=O)(=O)Cc2ccccc2)n1C(=O)Cc1ccc(Cl)cc1Cl

>  <Energy>  (24) 
114.86662575924682

>  <Genealogy>  (24) 
CCCc1cc(CCCc2ccc(C(=O)[N-]S(=O)(=O)c3ccccc3)cc2)c(CCNS(=O)(=O)Cc2ccccc2)n1C(=O)Cc1ccc(Cl)cc1Cl (protonated)
CCCc1cc(CCCc2ccc(C(=O)[N-]S(=O)(=O)c3ccccc3)cc2)c(CCNS(=O)(=O)Cc2ccccc2)n1C(=O)Cc1ccc(Cl)cc1Cl (3D coordinates assigned)
CCCc1cc(CCCc2ccc(C(=O)[N-]S(=O)(=O)c3ccccc3)cc2)c(CCNS(=O)(=O)Cc2ccccc2)n1C(=O)Cc1ccc(Cl)cc1Cl (optimized conformer: 114.86662575924682 kcal/mol)

>  <smiles>  (24) 
CCCc1cc(CCCc2ccc(C(=O)NS(=O)(=O)c3ccccc3)cc2)c(CCNS(=O)(=O)Cc2ccccc2)n1C(=O)Cc1ccc(Cl)cc1Cl

>  <score_type>  (24) 
oracle

>  <origin>  (24) 
adg

>  <m_score__min__energy>  (24) 
-13.720000000000001

>  <m_primary>  (24) 
energy

$$$$
24:0
     RDKit          3D

 50 52  0  0  0  0  0  0  0  0999 V2000
   59.6810   33.7910   50.4600 C   0  0  0  0  0  0  0  0  0  0  0  0
   60.1830   32.9520   49.4260 O   0  0  0  0  0  0  0  0  0  0  0  0
   61.2680   33.2720   48.5950 C   0  0  0  0  0  0  0  0  0  0  0  0
   62.5870   33.3470   49.0890 C   0  0  0  0  0  0  0  0  0  0  0  0
   63.6480   33.6380   48.2290 C   0  0  0  0  0  0  0  0  0  0  0  0
   63.4110   33.8580   46.8720 C   0  0  0  0  0  0  0  0  0  0  0  0
   62.1090   33.7900   46.3710 C   0  0  0  0  0  0  0  0  0  0  0  0
   61.0320   33.5060   47.2260 C   0  0  0  0  0  0  0  0  0  0  0  0
   59.6980   33.4530   46.6980 N   0  0  0  0  0  0  0  0  0  0  0  0
   58.6510   34.3800   47.0860 C   0  0  0  0  0  0  0  0  0  0  0  0
   57.4110   33.9290   46.3270 C   0  0  0  0  0  0  0  0  0  0  0  0
   57.9170   33.0460   45.1830 C   0  0  2  0  0  0  0  0  0  0  0  0
   57.0250   31.9470   44.9780 O   0  0  0  0  0  0  0  0  0  0  0  0
   57.3780   30.5900   45.0540 C   0  0  0  0  0  0  0  0  0  0  0  0
   57.0710   29.7670   43.9670 C   0  0  0  0  0  0  0  0  0  0  0  0
   57.3960   28.4070   43.9860 C   0  0  0  0  0  0  0  0  0  0  0  0
   58.0550   27.8440   45.0990 C   0  0  0  0  0  0  0  0  0  0  0  0
   58.4190   26.3670   45.1880 C   0  0  1  0  0  0  0  0  0  0  0  0
   59.3480   25.9710   46.3440 C   0  0  0  0  0  0  0  0  0  0  0  0
   57.2180   25.5270   45.1930 N   0  0  0  0  0  0  0  0  0  0  0  0
   56.0810   25.6170   46.0660 C   0  0  0  0  0  0  0  0  0  0  0  0
   55.1390   26.6890   45.9800 N   0  0  0  0  0  0  0  0  0  0  0  0
   55.9070   24.7160   46.9260 O   0  0  0  0  0  0  0  0  0  0  0  0
   58.3510   28.6750   46.1930 C   0  0  0  0  0  0  0  0  0  0  0  0
   58.0240   30.0340   46.1720 C   0  0  0  0  0  0  0  0  0  0  0  0
   59.3050   32.5710   45.6140 C   0  0  0  0  0  0  0  0  0  0  0  0
   59.9386   33.3605   51.4390 H   0  0  0  0  0  0  0  0  0  0  0  0
   60.1289   34.7916   50.3702 H   0  0  0  0  0  0  0  0  0  0  0  0
   58.5875   33.8694   50.3702 H   0  0  0  0  0  0  0  0  0  0  0  0
   62.7810   33.1752   50.1580 H   0  0  0  0  0  0  0  0  0  0  0  0
   64.6736   33.6939   48.6227 H   0  0  0  0  0  0  0  0  0  0  0  0
   64.2492   34.0849   46.1968 H   0  0  0  0  0  0  0  0  0  0  0  0
   61.9261   33.9600   45.2997 H   0  0  0  0  0  0  0  0  0  0  0  0
   58.4769   34.3319   48.1711 H   0  0  0  0  0  0  0  0  0  0  0  0
   58.9184   35.4209   46.8516 H   0  0  0  0  0  0  0  0  0  0  0  0
   56.7456   33.3545   46.9882 H   0  0  0  0  0  0  0  0  0  0  0  0
   56.8340   34.7864   45.9504 H   0  0  0  0  0  0  0  0  0  0  0  0
   57.9671   33.5882   44.2272 H   0  0  0  0  0  0  0  0  0  0  0  0
   56.5681   30.1938   43.0867 H   0  0  0  0  0  0  0  0  0  0  0  0
   57.1358   27.7715   43.1267 H   0  0  0  0  0  0  0  0  0  0  0  0
   59.0098   26.1868   44.2778 H   0  0  0  0  0  0  0  0  0  0  0  0
   58.8514   26.1827   47.3024 H   0  0  0  0  0  0  0  0  0  0  0  0
   59.5770   24.8971   46.2790 H   0  0  0  0  0  0  0  0  0  0  0  0
   60.2813   26.5495   46.2790 H   0  0  0  0  0  0  0  0  0  0  0  0
   54.3320   26.7220   46.6420 H   0  0  0  0  0  0  0  0  0  0  0  0
   55.2120   27.4420   45.2660 H   0  0  0  0  0  0  0  0  0  0  0  0
   58.8469   28.2501   47.0782 H   0  0  0  0  0  0  0  0  0  0  0  0
   58.2731   30.6708   47.0336 H   0  0  0  0  0  0  0  0  0  0  0  0
   59.2634   31.5285   45.9626 H   0  0  0  0  0  0  0  0  0  0  0  0
   60.0235   32.6024   44.7817 H   0  0  0  0  0  0  0  0  0  0  0  0
  1  2  1  0
  2  3  1  0
  3  4  2  0
  4  5  1  0
  5  6  2  0
  6  7  1  0
  7  8  2  0
  8  9  1  0
  9 10  1  0
 10 11  1  0
 11 12  1  0
 12 13  1  0
 13 14  1  0
 14 15  2  0
 15 16  1  0
 16 17  2  0
 17 18  1  0
 18 19  1  0
 18 20  1  0
 20 21  1  0
 21 22  1  0
 21 23  2  0
 17 24  1  0
 24 25  2  0
 12 26  1  0
  8  3  1  0
 26  9  1  0
 25 14  1  0
  1 27  1  0
  1 28  1  0
  1 29  1  0
  4 30  1  0
  5 31  1  0
  6 32  1  0
  7 33  1  0
 10 34  1  0
 10 35  1  0
 11 36  1  0
 11 37  1  0
 12 38  1  6
 15 39  1  0
 16 40  1  0
 18 41  1  6
 19 42  1  0
 19 43  1  0
 19 44  1  0
 22 45  1  0
 22 46  1  0
 24 47  1  0
 25 48  1  0
 26 49  1  0
 26 50  1  0
M  CHG  1  20  -1
M  END
>  <UniqueID>  (25) 
23

>  <SMILES>  (25) 
COc1ccccc1N1CC[C@H](Oc2ccc([C@@H](C)[N-]C(N)=O)cc2)C1

>  <Energy>  (25) 
57.0638274841841

>  <Genealogy>  (25) 
COc1ccccc1N1CCC(Oc2ccc(C(C)[N-]C(N)=O)cc2)C1 (protonated)
COc1ccccc1N1CC[C@H](Oc2ccc([C@@H](C)[N-]C(N)=O)cc2)C1 (chirality)
COc1ccccc1N1CC[C@H](Oc2ccc([C@@H](C)[N-]C(N)=O)cc2)C1 (3D coordinates assigned)
COc1ccccc1N1CC[C@H](Oc2ccc([C@@H](C)[N-]C(N)=O)cc2)C1 (nonaromatic ring conformer: 57.0638274841841 kcal/mol)

>  <smiles>  (25) 
COc1ccccc1N1CCC(Oc2ccc(C(C)NC(N)=O)cc2)C1

>  <score_type>  (25) 
oracle

>  <origin>  (25) 
adg

>  <m_score__min__energy>  (25) 
-10.890000000000001

>  <m_primary>  (25) 
energy

$$$$
25:0
     RDKit          3D

 49 51  0  0  0  0  0  0  0  0999 V2000
   58.4310   32.6790   44.1590 N   0  0  0  0  0  0  0  0  0  0  0  0
   58.2250   34.0420   45.2050 S   0  0  0  0  0  0  0  0  0  0  0  0
   56.7600   34.2180   45.4990 O   0  0  0  0  0  0  0  0  0  0  0  0
   58.7480   35.2790   44.5290 O   0  0  0  0  0  0  0  0  0  0  0  0
   59.1170   33.7660   46.6960 C   0  0  0  0  0  0  0  0  0  0  0  0
   60.4390   34.2100   46.8360 C   0  0  0  0  0  0  0  0  0  0  0  0
   61.1240   34.0000   48.0350 C   0  0  0  0  0  0  0  0  0  0  0  0
   60.4940   33.3500   49.0990 C   0  0  0  0  0  0  0  0  0  0  0  0
   59.1750   32.8970   48.9720 C   0  0  0  0  0  0  0  0  0  0  0  0
   58.5590   32.2480   50.0940 N   0  0  0  0  0  0  0  0  0  0  0  0
   58.7380   30.5710   50.4970 S   0  0  0  0  0  0  0  0  0  0  0  0
   59.7900   30.4250   51.5610 O   0  0  0  0  0  0  0  0  0  0  0  0
   57.4340   30.0520   51.0310 O   0  0  0  0  0  0  0  0  0  0  0  0
   59.1660   29.6570   49.0530 C   0  0  0  0  0  0  0  0  0  0  0  0
   60.0630   28.5860   49.1560 C   0  0  0  0  0  0  0  0  0  0  0  0
   60.3860   27.8300   48.0260 C   0  0  0  0  0  0  0  0  0  0  0  0
   59.8110   28.1360   46.7900 C   0  0  0  0  0  0  0  0  0  0  0  0
   58.9120   29.2050   46.6770 C   0  0  0  0  0  0  0  0  0  0  0  0
   58.1830   29.5680   45.1170 S   0  0  0  0  0  0  0  0  0  0  0  0
   59.2410   29.9880   44.1350 O   0  0  0  0  0  0  0  0  0  0  0  0
   57.2030   30.6950   45.2940 O   0  0  0  0  0  0  0  0  0  0  0  0
   57.3580   28.1510   44.5150 N   0  0  0  0  0  0  0  0  0  0  0  0
   56.7590   27.3690   45.6260 C   0  0  0  0  0  0  0  0  0  0  0  0
   57.5810   26.1250   45.9950 C   0  0  0  0  0  0  0  0  0  0  0  0
   57.7450   25.1870   44.7870 C   0  0  0  0  0  0  0  0  0  0  0  0
   57.7700   25.9420   43.4470 C   0  0  0  0  0  0  0  0  0  0  0  0
   58.2640   27.3790   43.6350 C   0  0  0  0  0  0  0  0  0  0  0  0
   58.5920   29.9660   47.8100 C   0  0  0  0  0  0  0  0  0  0  0  0
   58.4930   33.0980   47.7590 C   0  0  0  0  0  0  0  0  0  0  0  0
   57.4770   32.3330   43.9130 H   0  0  0  0  0  0  0  0  0  0  0  0
   58.8940   31.9270   44.7180 H   0  0  0  0  0  0  0  0  0  0  0  0
   60.9374   34.7242   46.0010 H   0  0  0  0  0  0  0  0  0  0  0  0
   62.1622   34.3473   48.1417 H   0  0  0  0  0  0  0  0  0  0  0  0
   61.0374   33.1930   50.0425 H   0  0  0  0  0  0  0  0  0  0  0  0
   60.5141   28.3395   50.1285 H   0  0  0  0  0  0  0  0  0  0  0  0
   61.0942   26.9925   48.1098 H   0  0  0  0  0  0  0  0  0  0  0  0
   60.0646   27.5363   45.9034 H   0  0  0  0  0  0  0  0  0  0  0  0
   56.6869   28.0171   46.5119 H   0  0  0  0  0  0  0  0  0  0  0  0
   55.7707   27.0227   45.2894 H   0  0  0  0  0  0  0  0  0  0  0  0
   58.5760   26.4421   46.3405 H   0  0  0  0  0  0  0  0  0  0  0  0
   57.0497   25.5799   46.7891 H   0  0  0  0  0  0  0  0  0  0  0  0
   58.6895   24.6340   44.8968 H   0  0  0  0  0  0  0  0  0  0  0  0
   56.8770   24.5115   44.7711 H   0  0  0  0  0  0  0  0  0  0  0  0
   58.4429   25.4185   42.7518 H   0  0  0  0  0  0  0  0  0  0  0  0
   56.7471   25.9734   43.0437 H   0  0  0  0  0  0  0  0  0  0  0  0
   59.2672   27.3565   44.0856 H   0  0  0  0  0  0  0  0  0  0  0  0
   58.2894   27.8679   42.6500 H   0  0  0  0  0  0  0  0  0  0  0  0
   57.8890   30.8077   47.7246 H   0  0  0  0  0  0  0  0  0  0  0  0
   57.4633   32.7288   47.6433 H   0  0  0  0  0  0  0  0  0  0  0  0
  1  2  1  0
  2  3  2  0
  2  4  2  0
  2  5  1  0
  5  6  2  0
  6  7  1  0
  7  8  2  0
  8  9  1  0
  9 10  1  0
 10 11  1  0
 11 12  2  0
 11 13  2  0
 11 14  1  0
 14 15  2  0
 15 16  1  0
 16 17  2  0
 17 18  1  0
 18 19  1  0
 19 20  2  0
 19 21  2  0
 19 22  1  0
 22 23  1  0
 23 24  1  0
 24 25  1  0
 25 26  1  0
 26 27  1  0
 18 28  2  0
  9 29  2  0
 29  5  1  0
 28 14  1  0
 27 22  1  0
  1 30  1  0
  1 31  1  0
  6 32  1  0
  7 33  1  0
  8 34  1  0
 15 35  1  0
 16 36  1  0
 17 37  1  0
 23 38  1  0
 23 39  1  0
 24 40  1  0
 24 41  1  0
 25 42  1  0
 25 43  1  0
 26 44  1  0
 26 45  1  0
 27 46  1  0
 27 47  1  0
 28 48  1  0
 29 49  1  0
M  CHG  1  10  -1
M  END
>  <UniqueID>  (26) 
24

>  <SMILES>  (26) 
NS(=O)(=O)c1cccc([N-]S(=O)(=O)c2cccc(S(=O)(=O)N3CCCCC3)c2)c1

>  <Energy>  (26) 
55.500888554237726

>  <Genealogy>  (26) 
NS(=O)(=O)c1cccc([N-]S(=O)(=O)c2cccc(S(=O)(=O)N3CCCCC3)c2)c1 (protonated)
NS(=O)(=O)c1cccc([N-]S(=O)(=O)c2cccc(S(=O)(=O)N3CCCCC3)c2)c1 (3D coordinates assigned)
NS(=O)(=O)c1cccc([N-]S(=O)(=O)c2cccc(S(=O)(=O)N3CCCCC3)c2)c1 (nonaromatic ring conformer: 55.500888554237726 kcal/mol)

>  <smiles>  (26) 
NS(=O)(=O)c1cccc(NS(=O)(=O)c2cccc(S(=O)(=O)N3CCCCC3)c2)c1

>  <score_type>  (26) 
oracle

>  <origin>  (26) 
adg

>  <m_score__min__energy>  (26) 
-11.82

>  <m_primary>  (26) 
energy

$$$$
26:0
     RDKit          3D

 52 54  0  0  0  0  0  0  0  0999 V2000
   52.5930   22.6770   45.2470 N   0  0  0  0  0  0  0  0  0  0  0  0
   54.0080   23.6510   45.4470 S   0  0  0  0  0  0  0  0  0  0  0  0
   53.5960   25.0890   45.5910 O   0  0  0  0  0  0  0  0  0  0  0  0
   54.8670   23.4910   44.2240 O   0  0  0  0  0  0  0  0  0  0  0  0
   54.9070   23.1460   46.8860 C   0  0  0  0  0  0  0  0  0  0  0  0
   54.3570   22.1550   47.7150 C   0  0  0  0  0  0  0  0  0  0  0  0
   55.0570   21.6930   48.8310 C   0  0  0  0  0  0  0  0  0  0  0  0
   56.3150   22.2130   49.1330 C   0  0  0  0  0  0  0  0  0  0  0  0
   56.8710   23.2070   48.3270 C   0  0  0  0  0  0  0  0  0  0  0  0
   56.1740   23.6930   47.2080 C   0  0  0  0  0  0  0  0  0  0  0  0
   56.7910   24.7740   46.4140 C   0  0  0  0  0  0  0  0  0  0  0  0
   57.8990   24.5020   45.5970 C   0  0  0  0  0  0  0  0  0  0  0  0
   58.5070   25.5290   44.8690 C   0  0  0  0  0  0  0  0  0  0  0  0
   58.0260   26.8440   44.9640 C   0  0  0  0  0  0  0  0  0  0  0  0
   58.6810   27.9560   44.1920 C   0  0  0  0  0  0  0  0  0  0  0  0
   58.7440   29.1640   45.0120 N   0  0  0  0  0  0  0  0  0  0  0  0
   59.9520   29.6150   45.6430 C   0  0  0  0  0  0  0  0  0  0  0  0
   61.0320   28.9850   45.4760 O   0  0  0  0  0  0  0  0  0  0  0  0
   59.9510   30.8580   46.4890 C   0  0  0  0  0  0  0  0  0  0  0  0
   58.6910   31.7150   46.2690 C   0  0  0  0  0  0  0  0  0  0  0  0
   58.9740   33.0940   45.6500 C   0  0  0  0  0  0  0  0  0  0  0  0
   57.9600   33.4880   44.5630 C   0  0  0  0  0  0  0  0  0  0  0  0
   57.9030   32.4650   43.4210 C   0  0  0  0  0  0  0  0  0  0  0  0
   57.0540   31.2820   43.7760 C   0  0  0  0  0  0  0  0  0  0  0  0
   57.0050   30.1440   43.0620 N   0  0  0  0  0  0  0  0  0  0  0  0
   56.1780   29.3630   43.7370 N   0  0  0  0  0  0  0  0  0  0  0  0
   55.7440   29.9970   44.8170 N   0  0  0  0  0  0  0  0  0  0  0  0
   56.2810   31.2040   44.8720 N   0  0  0  0  0  0  0  0  0  0  0  0
   56.9130   27.1140   45.7760 C   0  0  0  0  0  0  0  0  0  0  0  0
   56.3020   26.0870   46.5000 C   0  0  0  0  0  0  0  0  0  0  0  0
   52.7800   21.7670   45.7230 H   0  0  0  0  0  0  0  0  0  0  0  0
   53.3655   21.7389   47.4829 H   0  0  0  0  0  0  0  0  0  0  0  0
   54.6152   20.9171   49.4735 H   0  0  0  0  0  0  0  0  0  0  0  0
   56.8692   21.8396   50.0068 H   0  0  0  0  0  0  0  0  0  0  0  0
   57.8638   23.6138   48.5698 H   0  0  0  0  0  0  0  0  0  0  0  0
   58.2908   23.4764   45.5291 H   0  0  0  0  0  0  0  0  0  0  0  0
   59.3659   25.3055   44.2191 H   0  0  0  0  0  0  0  0  0  0  0  0
   59.7004   27.6530   43.9108 H   0  0  0  0  0  0  0  0  0  0  0  0
   58.0908   28.1640   43.2874 H   0  0  0  0  0  0  0  0  0  0  0  0
   57.8880   29.7620   45.0730 H   0  0  0  0  0  0  0  0  0  0  0  0
   59.9986   30.5648   47.5481 H   0  0  0  0  0  0  0  0  0  0  0  0
   60.8232   31.4624   46.1992 H   0  0  0  0  0  0  0  0  0  0  0  0
   58.0126   31.1672   45.5984 H   0  0  0  0  0  0  0  0  0  0  0  0
   58.2509   31.8951   47.2609 H   0  0  0  0  0  0  0  0  0  0  0  0
   58.9418   33.8494   46.4489 H   0  0  0  0  0  0  0  0  0  0  0  0
   59.9632   33.0416   45.1717 H   0  0  0  0  0  0  0  0  0  0  0  0
   56.9625   33.5633   45.0205 H   0  0  0  0  0  0  0  0  0  0  0  0
   58.2805   34.4502   44.1370 H   0  0  0  0  0  0  0  0  0  0  0  0
   57.4817   32.9507   42.5285 H   0  0  0  0  0  0  0  0  0  0  0  0
   58.9257   32.1074   43.2307 H   0  0  0  0  0  0  0  0  0  0  0  0
   56.5200   28.1392   45.8426 H   0  0  0  0  0  0  0  0  0  0  0  0
   55.4348   26.3081   47.1396 H   0  0  0  0  0  0  0  0  0  0  0  0
  1  2  1  0
  2  3  2  0
  2  4  2  0
  2  5  1  0
  5  6  2  0
  6  7  1  0
  7  8  2  0
  8  9  1  0
  9 10  2  0
 10 11  1  0
 11 12  2  0
 12 13  1  0
 13 14  2  0
 14 15  1  0
 15 16  1  0
 16 17  1  0
 17 18  2  0
 17 19  1  0
 19 20  1  0
 20 21  1  0
 21 22  1  0
 22 23  1  0
 23 24  1  0
 24 25  1  0
 25 26  2  0
 26 27  1  0
 27 28  1  0
 14 29  1  0
 29 30  2  0
 10  5  1  0
 30 11  1  0
 28 24  2  0
  1 31  1  0
  6 32  1  0
  7 33  1  0
  8 34  1  0
  9 35  1  0
 12 36  1  0
 13 37  1  0
 15 38  1  0
 15 39  1  0
 16 40  1  0
 19 41  1  0
 19 42  1  0
 20 43  1  0
 20 44  1  0
 21 45  1  0
 21 46  1  0
 22 47  1  0
 22 48  1  0
 23 49  1  0
 23 50  1  0
 29 51  1  0
 30 52  1  0
M  CHG  2   1  -1  27  -1
M  END
>  <UniqueID>  (27) 
25

>  <SMILES>  (27) 
[NH-]S(=O)(=O)c1ccccc1-c1ccc(CNC(=O)CCCCCc2nn[n-]n2)cc1

>  <Energy>  (27) 
87.82383593036202

>  <Genealogy>  (27) 
[NH-]S(=O)(=O)c1ccccc1-c1ccc(CNC(=O)CCCCCc2nn[n-]n2)cc1 (protonated)
[NH-]S(=O)(=O)c1ccccc1-c1ccc(CNC(=O)CCCCCc2nn[n-]n2)cc1 (3D coordinates assigned)
[NH-]S(=O)(=O)c1ccccc1-c1ccc(CNC(=O)CCCCCc2nn[n-]n2)cc1 (optimized conformer: 87.82383593036202 kcal/mol)

>  <smiles>  (27) 
NS(=O)(=O)c1ccccc1-c1ccc(CNC(=O)CCCCCc2nn[nH]n2)cc1

>  <score_type>  (27) 
oracle

>  <origin>  (27) 
adg

>  <m_score__min__energy>  (27) 
-14.33

>  <m_primary>  (27) 
energy

$$$$
27:0
     RDKit          3D

 59 62  0  0  0  0  0  0  0  0999 V2000
   60.3730   25.5870   46.3720 C   0  0  0  0  0  0  0  0  0  0  0  0
   59.5300   26.7510   45.9420 C   0  0  0  0  0  0  0  0  0  0  0  0
   60.0980   27.8050   45.2130 C   0  0  0  0  0  0  0  0  0  0  0  0
   59.3050   28.8720   44.7790 C   0  0  0  0  0  0  0  0  0  0  0  0
   57.9330   28.8880   45.0580 C   0  0  0  0  0  0  0  0  0  0  0  0
   56.9300   30.2290   44.5120 S   0  0  0  0  0  0  0  0  0  0  0  0
   57.4240   30.6820   43.1660 O   0  0  0  0  0  0  0  0  0  0  0  0
   55.4930   29.8040   44.3900 O   0  0  0  0  0  0  0  0  0  0  0  0
   57.0360   31.5530   45.6270 N   0  0  0  0  0  0  0  0  0  0  0  0
   57.9140   32.6800   45.5050 C   0  0  0  0  0  0  0  0  0  0  0  0
   57.5080   33.8660   44.8610 C   0  0  0  0  0  0  0  0  0  0  0  0
   58.3630   34.9680   44.8050 C   0  0  0  0  0  0  0  0  0  0  0  0
   59.6230   34.9060   45.4000 C   0  0  0  0  0  0  0  0  0  0  0  0
   60.0390   33.7340   46.0340 C   0  0  0  0  0  0  0  0  0  0  0  0
   59.2090   32.6070   46.0570 C   0  0  0  0  0  0  0  0  0  0  0  0
   59.8010   31.1100   46.8650 S   0  0  0  0  0  0  0  0  0  0  0  0
   61.0430   31.9490   47.8710 C   0  0  0  0  0  0  0  0  0  0  0  0
   62.3290   32.0830   47.3240 C   0  0  0  0  0  0  0  0  0  0  0  0
   63.3470   32.7160   48.0380 C   0  0  0  0  0  0  0  0  0  0  0  0
   63.0960   33.2130   49.3160 C   0  0  0  0  0  0  0  0  0  0  0  0
   61.8330   33.0650   49.8870 C   0  0  0  0  0  0  0  0  0  0  0  0
   60.7960   32.4260   49.1850 C   0  0  0  0  0  0  0  0  0  0  0  0
   59.2290   32.2740   50.0010 S   0  0  0  0  0  0  0  0  0  0  0  0
   58.1370   32.2920   48.9700 O   0  0  0  0  0  0  0  0  0  0  0  0
   59.0090   33.4400   50.9230 O   0  0  0  0  0  0  0  0  0  0  0  0
   59.1140   30.8010   50.9090 N   0  0  0  0  0  0  0  0  0  0  0  0
   60.2730   30.1180   51.4080 C   0  0  0  0  0  0  0  0  0  0  0  0
   60.8430   30.5130   52.6300 C   0  0  0  0  0  0  0  0  0  0  0  0
   61.9560   29.8450   53.1420 C   0  0  0  0  0  0  0  0  0  0  0  0
   62.5040   28.7690   52.4470 C   0  0  0  0  0  0  0  0  0  0  0  0
   61.9300   28.3450   51.2470 C   0  0  0  0  0  0  0  0  0  0  0  0
   60.8130   29.0080   50.7180 C   0  0  0  0  0  0  0  0  0  0  0  0
   60.1160   28.4470   49.1920 S   0  0  0  0  0  0  0  0  0  0  0  0
   58.5270   29.1060   49.0080 N   0  0  0  0  0  0  0  0  0  0  0  0
   60.9840   28.8860   48.0460 O   0  0  0  0  0  0  0  0  0  0  0  0
   60.0280   26.9460   49.1800 O   0  0  0  0  0  0  0  0  0  0  0  0
   57.3600   27.8320   45.7790 C   0  0  0  0  0  0  0  0  0  0  0  0
   58.1520   26.7630   46.2110 C   0  0  0  0  0  0  0  0  0  0  0  0
   60.4047   25.5433   47.4707 H   0  0  0  0  0  0  0  0  0  0  0  0
   59.9388   24.6553   45.9803 H   0  0  0  0  0  0  0  0  0  0  0  0
   61.3936   25.7089   45.9803 H   0  0  0  0  0  0  0  0  0  0  0  0
   61.1732   27.7927   44.9811 H   0  0  0  0  0  0  0  0  0  0  0  0
   59.7603   29.7008   44.2170 H   0  0  0  0  0  0  0  0  0  0  0  0
   56.5111   33.9237   44.3996 H   0  0  0  0  0  0  0  0  0  0  0  0
   58.0427   35.8863   44.2911 H   0  0  0  0  0  0  0  0  0  0  0  0
   60.2891   35.7809   45.3696 H   0  0  0  0  0  0  0  0  0  0  0  0
   61.0257   33.6958   46.5188 H   0  0  0  0  0  0  0  0  0  0  0  0
   62.5366   31.6840   46.3201 H   0  0  0  0  0  0  0  0  0  0  0  0
   64.3471   32.8228   47.5927 H   0  0  0  0  0  0  0  0  0  0  0  0
   63.8953   33.7224   49.8743 H   0  0  0  0  0  0  0  0  0  0  0  0
   61.6454   33.4529   50.8991 H   0  0  0  0  0  0  0  0  0  0  0  0
   58.2120   30.2810   50.8450 H   0  0  0  0  0  0  0  0  0  0  0  0
   60.4083   31.3557   53.1876 H   0  0  0  0  0  0  0  0  0  0  0  0
   62.4009   30.1681   54.0947 H   0  0  0  0  0  0  0  0  0  0  0  0
   63.3903   28.2527   52.8444 H   0  0  0  0  0  0  0  0  0  0  0  0
   62.3573   27.4840   50.7121 H   0  0  0  0  0  0  0  0  0  0  0  0
   58.6350   30.1400   48.8990 H   0  0  0  0  0  0  0  0  0  0  0  0
   56.2838   27.8437   46.0061 H   0  0  0  0  0  0  0  0  0  0  0  0
   57.6938   25.9292   46.7631 H   0  0  0  0  0  0  0  0  0  0  0  0
  1  2  1  0
  2  3  2  0
  3  4  1  0
  4  5  2  0
  5  6  1  0
  6  7  2  0
  6  8  2  0
  6  9  1  0
  9 10  1  0
 10 11  2  0
 11 12  1  0
 12 13  2  0
 13 14  1  0
 14 15  2  0
 15 16  1  0
 16 17  1  0
 17 18  2  0
 18 19  1  0
 19 20  2  0
 20 21  1  0
 21 22  2  0
 22 23  1  0
 23 24  2  0
 23 25  2  0
 23 26  1  0
 26 27  1  0
 27 28  2  0
 28 29  1  0
 29 30  2  0
 30 31  1  0
 31 32  2  0
 32 33  1  0
 33 34  1  0
 33 35  2  0
 33 36  2  0
  5 37  1  0
 37 38  2  0
 38  2  1  0
 15 10  1  0
 22 17  1  0
 32 27  1  0
  1 39  1  0
  1 40  1  0
  1 41  1  0
  3 42  1  0
  4 43  1  0
 11 44  1  0
 12 45  1  0
 13 46  1  0
 14 47  1  0
 18 48  1  0
 19 49  1  0
 20 50  1  0
 21 51  1  0
 26 52  1  0
 28 53  1  0
 29 54  1  0
 30 55  1  0
 31 56  1  0
 34 57  1  0
 37 58  1  0
 38 59  1  0
M  CHG  2   9  -1  34  -1
M  END
>  <UniqueID>  (28) 
26

>  <SMILES>  (28) 
Cc1ccc(S(=O)(=O)[N-]c2ccccc2Sc2ccccc2S(=O)(=O)Nc2ccccc2S([NH-])(=O)=O)cc1

>  <Energy>  (28) 
69.97447232547911

>  <Genealogy>  (28) 
Cc1ccc(S(=O)(=O)[N-]c2ccccc2Sc2ccccc2S(=O)(=O)Nc2ccccc2S([NH-])(=O)=O)cc1 (protonated)
Cc1ccc(S(=O)(=O)[N-]c2ccccc2Sc2ccccc2S(=O)(=O)Nc2ccccc2S([NH-])(=O)=O)cc1 (3D coordinates assigned)
Cc1ccc(S(=O)(=O)[N-]c2ccccc2Sc2ccccc2S(=O)(=O)Nc2ccccc2S([NH-])(=O)=O)cc1 (optimized conformer: 69.97447232547911 kcal/mol)

>  <smiles>  (28) 
Cc1ccc(S(=O)(=O)Nc2ccccc2Sc2ccccc2S(=O)(=O)Nc2ccccc2S(N)(=O)=O)cc1

>  <score_type>  (28) 
oracle

>  <origin>  (28) 
adg

>  <m_score__min__energy>  (28) 
-13.85

>  <m_primary>  (28) 
energy

$$$$
28:0
     RDKit          3D

 54 58  0  0  0  0  0  0  0  0999 V2000
   60.7975   29.4388   47.2154 H   0  0  0  0  0  0  0  0  0  0  0  0
   60.2390   30.2930   46.8050 C   0  0  0  0  0  0  0  0  0  0  0  0
   60.5160   31.5940   47.0540 N   0  0  0  0  0  0  0  0  0  0  0  0
   59.5730   32.2580   46.3520 C   0  0  0  0  0  0  0  0  0  0  0  0
   59.3990   33.6420   46.3060 C   0  0  0  0  0  0  0  0  0  0  0  0
   60.2210   34.4320   46.9350 N   0  0  0  0  0  0  0  0  0  0  0  0
   60.5120   34.3930   48.3420 C   0  0  0  0  0  0  0  0  0  0  0  0
   59.6420   34.8180   49.1470 O   0  0  0  0  0  0  0  0  0  0  0  0
   61.8190   33.9300   48.8650 C   0  0  0  0  0  0  0  0  0  0  0  0
   61.9710   33.5820   50.2180 C   0  0  0  0  0  0  0  0  0  0  0  0
   61.1128   33.6612   50.9015 H   0  0  0  0  0  0  0  0  0  0  0  0
   63.2040   33.1360   50.7020 C   0  0  0  0  0  0  0  0  0  0  0  0
   63.3149   32.8896   51.7683 H   0  0  0  0  0  0  0  0  0  0  0  0
   64.3020   33.0000   49.8380 C   0  0  0  0  0  0  0  0  0  0  0  0
   65.6440   32.5670   50.3720 C   0  0  0  0  0  0  0  0  0  0  0  0
   65.7150   31.1860   50.4480 F   0  0  0  0  0  0  0  0  0  0  0  0
   65.8230   33.0980   51.6360 F   0  0  0  0  0  0  0  0  0  0  0  0
   66.6660   33.0070   49.5490 F   0  0  0  0  0  0  0  0  0  0  0  0
   64.1530   33.3570   48.4860 C   0  0  0  0  0  0  0  0  0  0  0  0
   65.0132   33.2849   47.8042 H   0  0  0  0  0  0  0  0  0  0  0  0
   62.9190   33.8030   48.0020 C   0  0  0  0  0  0  0  0  0  0  0  0
   62.8095   34.0562   46.9371 H   0  0  0  0  0  0  0  0  0  0  0  0
   58.3600   34.1290   45.5640 N   0  0  0  0  0  0  0  0  0  0  0  0
   57.4960   33.3030   44.9030 C   0  0  0  0  0  0  0  0  0  0  0  0
   56.6634   33.7252   44.3212 H   0  0  0  0  0  0  0  0  0  0  0  0
   57.6760   31.9150   44.9700 C   0  0  0  0  0  0  0  0  0  0  0  0
   56.9849   31.2267   44.4615 H   0  0  0  0  0  0  0  0  0  0  0  0
   58.7340   31.4480   45.6850 N   0  0  0  0  0  0  0  0  0  0  0  0
   59.1470   30.1960   45.9560 C   0  0  0  0  0  0  0  0  0  0  0  0
   58.5450   28.9420   45.4530 C   0  0  0  0  0  0  0  0  0  0  0  0
   59.1540   28.2180   44.4160 C   0  0  0  0  0  0  0  0  0  0  0  0
   60.0770   28.5963   43.9523 H   0  0  0  0  0  0  0  0  0  0  0  0
   58.5930   27.0200   43.9710 C   0  0  0  0  0  0  0  0  0  0  0  0
   59.0768   26.4566   43.1595 H   0  0  0  0  0  0  0  0  0  0  0  0
   57.4200   26.5340   44.5520 C   0  0  0  0  0  0  0  0  0  0  0  0
   56.9869   25.5860   44.2001 H   0  0  0  0  0  0  0  0  0  0  0  0
   56.7920   27.2480   45.5810 C   0  0  0  0  0  0  0  0  0  0  0  0
   55.5990   26.7090   46.1670 N   0  0  0  0  0  0  0  0  0  0  0  0
   55.1010   25.3780   45.9910 C   0  0  0  0  0  0  0  0  0  0  0  0
   53.9240   25.2180   45.5750 O   0  0  0  0  0  0  0  0  0  0  0  0
   55.8930   24.2490   46.3860 N   0  0  0  0  0  0  0  0  0  0  0  0
   56.7220   23.4410   45.5380 C   0  0  0  0  0  0  0  0  0  0  0  0
   58.0890   23.2390   45.8070 C   0  0  0  0  0  0  0  0  0  0  0  0
   58.5542   23.7246   46.6775 H   0  0  0  0  0  0  0  0  0  0  0  0
   58.8570   22.4230   44.9710 C   0  0  0  0  0  0  0  0  0  0  0  0
   59.9269   22.2759   45.1799 H   0  0  0  0  0  0  0  0  0  0  0  0
   58.2690   21.7940   43.8710 C   0  0  0  0  0  0  0  0  0  0  0  0
   58.8777   21.1594   43.2101 H   0  0  0  0  0  0  0  0  0  0  0  0
   56.9070   21.9710   43.6100 C   0  0  0  0  0  0  0  0  0  0  0  0
   56.3360   21.3480   42.5500 F   0  0  0  0  0  0  0  0  0  0  0  0
   56.1340   22.7850   44.4460 C   0  0  0  0  0  0  0  0  0  0  0  0
   54.8110   22.9450   44.1900 F   0  0  0  0  0  0  0  0  0  0  0  0
   57.3780   28.4380   46.0510 C   0  0  0  0  0  0  0  0  0  0  0  0
   56.9190   28.9774   46.8926 H   0  0  0  0  0  0  0  0  0  0  0  0
  1  2  1  0
  2  3  1  0
  3  4  2  0
  4  5  1  0
  5  6  2  0
  6  7  1  0
  7  8  2  0
  7  9  1  0
  9 10  2  0
 10 11  1  0
 10 12  1  0
 12 13  1  0
 12 14  2  0
 14 15  1  0
 15 16  1  0
 15 17  1  0
 15 18  1  0
 14 19  1  0
 19 20  1  0
 19 21  2  0
 21 22  1  0
  5 23  1  0
 23 24  1  0
 24 25  1  0
 24 26  2  0
 26 27  1  0
 26 28  1  0
 28 29  1  0
 29 30  1  0
 30 31  2  0
 31 32  1  0
 31 33  1  0
 33 34  1  0
 33 35  2  0
 35 36  1  0
 35 37  1  0
 37 38  1  0
 38 39  1  0
 39 40  2  0
 39 41  1  0
 41 42  1  0
 42 43  2  0
 43 44  1  0
 43 45  1  0
 45 46  1  0
 45 47  2  0
 47 48  1  0
 47 49  1  0
 49 50  1  0
 49 51  2  0
 51 52  1  0
 37 53  2  0
 53 54  1  0
 29  2  2  0
 53 30  1  0
 28  4  1  0
 51 42  1  0
 21  9  1  0
M  CHG  3  23  -1  38  -1  41  -1
M  END
>  <UniqueID>  (29) 
27

>  <SMILES>  (29) 
O=C([N-]c1cccc(-c2cnc3/c(=N/C(=O)c4ccc(C(F)(F)F)cc4)[n-]ccn23)c1)[N-]c1cccc(F)c1F

>  <Energy>  (29) 
118.20301266987164

>  <Genealogy>  (29) 
O=C([N-]c1cccc(-c2cnc3c(=NC(=O)c4ccc(C(F)(F)F)cc4)[n-]ccn23)c1)[N-]c1cccc(F)c1F (protonated)
O=C([N-]c1cccc(-c2cnc3/c(=N/C(=O)c4ccc(C(F)(F)F)cc4)[n-]ccn23)c1)[N-]c1cccc(F)c1F (cis-trans isomerization)
O=C([N-]c1cccc(-c2cnc3/c(=N/C(=O)c4ccc(C(F)(F)F)cc4)[n-]ccn23)c1)[N-]c1cccc(F)c1F (3D coordinates assigned)
O=C([N-]c1cccc(-c2cnc3/c(=N/C(=O)c4ccc(C(F)(F)F)cc4)[n-]ccn23)c1)[N-]c1cccc(F)c1F (optimized conformer: 118.20301266987164 kcal/mol)

>  <smiles>  (29) 
O=C(Nc1cccc(-c2cnc3c(=NC(=O)c4ccc(C(F)(F)F)cc4)[nH]ccn23)c1)Nc1cccc(F)c1F

>  <score_type>  (29) 
oracle

>  <origin>  (29) 
adg

>  <m_score__min__energy>  (29) 
-14.18

>  <m_primary>  (29) 
energy

$$$$
29:0
     RDKit          3D

 47 49  0  0  0  0  0  0  0  0999 V2000
   56.4890   29.4400   43.1480 O   0  0  0  0  0  0  0  0  0  0  0  0
   56.3280   29.6970   44.3710 C   0  0  0  0  0  0  0  0  0  0  0  0
   55.8690   28.6590   45.2450 N   0  0  0  0  0  0  0  0  0  0  0  0
   56.6930   27.6050   45.8450 C   0  0  2  0  0  0  0  0  0  0  0  0
   58.1150   27.5970   45.2430 C   0  0  0  0  0  0  0  0  0  0  0  0
   59.0570   28.3610   46.0820 N   0  0  0  0  0  0  0  0  0  0  0  0
   59.5930   29.5170   45.5870 C   0  0  0  0  0  0  0  0  0  0  0  0
   60.4410   30.2960   46.3680 C   0  0  0  0  0  0  0  0  0  0  0  0
   60.7340   29.8720   47.6600 C   0  0  0  0  0  0  0  0  0  0  0  0
   61.4940   30.5620   48.3920 O   0  0  0  0  0  0  0  0  0  0  0  0
   60.1970   28.7160   48.1310 N   0  0  0  0  0  0  0  0  0  0  0  0
   59.3670   27.9620   47.3600 C   0  0  0  0  0  0  0  0  0  0  0  0
   58.8800   26.9010   47.8380 O   0  0  0  0  0  0  0  0  0  0  0  0
   56.0240   26.2550   45.7610 C   0  0  0  0  0  0  0  0  0  0  0  0
   54.7860   26.1360   45.9660 O   0  0  0  0  0  0  0  0  0  0  0  0
   56.8370   25.0970   45.5080 N   0  0  0  0  0  0  0  0  0  0  0  0
   56.9670   24.0200   46.2320 C   0  0  0  0  0  0  0  0  0  0  0  0
   56.8550   24.1400   47.6240 C   0  0  0  0  0  0  0  0  0  0  0  0
   57.0140   23.0160   48.4360 C   0  0  0  0  0  0  0  0  0  0  0  0
   57.2860   21.8070   47.8820 N   0  0  0  0  0  0  0  0  0  0  0  0
   57.4160   21.6540   46.5370 C   0  0  0  0  0  0  0  0  0  0  0  0
   57.2670   22.7530   45.6870 C   0  0  0  0  0  0  0  0  0  0  0  0
   56.5980   30.9770   44.8690 O   0  0  0  0  0  0  0  0  0  0  0  0
   57.4270   31.9220   44.1970 C   0  0  0  0  0  0  0  0  0  0  0  0
   58.0770   32.8360   45.1980 C   0  0  0  0  0  0  0  0  0  0  0  0
   58.7840   33.9660   44.7590 C   0  0  0  0  0  0  0  0  0  0  0  0
   59.3600   34.8410   45.6850 C   0  0  0  0  0  0  0  0  0  0  0  0
   59.2300   34.5960   47.0550 C   0  0  0  0  0  0  0  0  0  0  0  0
   58.5200   33.4760   47.5000 C   0  0  0  0  0  0  0  0  0  0  0  0
   57.9410   32.6000   46.5770 C   0  0  0  0  0  0  0  0  0  0  0  0
   56.7988   27.8318   46.9162 H   0  0  0  0  0  0  0  0  0  0  0  0
   58.4657   26.5572   45.1664 H   0  0  0  0  0  0  0  0  0  0  0  0
   58.0740   28.0684   44.2500 H   0  0  0  0  0  0  0  0  0  0  0  0
   59.3517   29.8343   44.5618 H   0  0  0  0  0  0  0  0  0  0  0  0
   60.8708   31.2279   45.9719 H   0  0  0  0  0  0  0  0  0  0  0  0
   60.4210   28.4060   49.1040 H   0  0  0  0  0  0  0  0  0  0  0  0
   56.6418   25.1198   48.0763 H   0  0  0  0  0  0  0  0  0  0  0  0
   56.9186   23.1101   49.5278 H   0  0  0  0  0  0  0  0  0  0  0  0
   57.6391   20.6621   46.1169 H   0  0  0  0  0  0  0  0  0  0  0  0
   57.3828   22.6315   44.5999 H   0  0  0  0  0  0  0  0  0  0  0  0
   58.2050   31.3877   43.6320 H   0  0  0  0  0  0  0  0  0  0  0  0
   56.8108   32.5189   43.5085 H   0  0  0  0  0  0  0  0  0  0  0  0
   58.8854   34.1642   43.6818 H   0  0  0  0  0  0  0  0  0  0  0  0
   59.9161   35.7232   45.3350 H   0  0  0  0  0  0  0  0  0  0  0  0
   59.6858   35.2835   47.7827 H   0  0  0  0  0  0  0  0  0  0  0  0
   58.4170   33.2841   48.5782 H   0  0  0  0  0  0  0  0  0  0  0  0
   57.3776   31.7239   46.9308 H   0  0  0  0  0  0  0  0  0  0  0  0
  1  2  2  0
  2  3  1  0
  3  4  1  0
  4  5  1  0
  5  6  1  0
  6  7  1  0
  7  8  2  0
  8  9  1  0
  9 10  2  0
  9 11  1  0
 11 12  1  0
 12 13  2  0
  4 14  1  0
 14 15  2  0
 14 16  1  0
 16 17  2  3
 17 18  1  0
 18 19  2  0
 19 20  1  0
 20 21  1  0
 21 22  2  0
  2 23  1  0
 23 24  1  0
 24 25  1  0
 25 26  2  0
 26 27  1  0
 27 28  2  0
 28 29  1  0
 29 30  2  0
 12  6  1  0
 22 17  1  0
 30 25  1  0
  4 31  1  1
  5 32  1  0
  5 33  1  0
  7 34  1  0
  8 35  1  0
 11 36  1  0
 18 37  1  0
 19 38  1  0
 21 39  1  0
 22 40  1  0
 24 41  1  0
 24 42  1  0
 26 43  1  0
 27 44  1  0
 28 45  1  0
 29 46  1  0
 30 47  1  0
M  CHG  2   3  -1  20  -1
M  END
>  <UniqueID>  (30) 
28

>  <SMILES>  (30) 
O=C([N-][C@H](Cn1ccc(=O)[nH]c1=O)C(=O)N=c1cc[n-]cc1)OCc1ccccc1

>  <Energy>  (30) 
54.20115595474084

>  <Genealogy>  (30) 
O=C([N-]C(Cn1ccc(=O)[nH]c1=O)C(=O)N=c1cc[n-]cc1)OCc1ccccc1 (protonated)
O=C([N-][C@H](Cn1ccc(=O)[nH]c1=O)C(=O)N=c1cc[n-]cc1)OCc1ccccc1 (chirality)
O=C([N-][C@H](Cn1ccc(=O)[nH]c1=O)C(=O)N=c1cc[n-]cc1)OCc1ccccc1 (3D coordinates assigned)
O=C([N-][C@H](Cn1ccc(=O)[nH]c1=O)C(=O)N=c1cc[n-]cc1)OCc1ccccc1 (optimized conformer: 54.20115595474084 kcal/mol)

>  <smiles>  (30) 
O=C(NC(Cn1ccc(=O)[nH]c1=O)C(=O)N=c1cc[nH]cc1)OCc1ccccc1

>  <score_type>  (30) 
oracle

>  <origin>  (30) 
adg

>  <m_score__min__energy>  (30) 
-12.08

>  <m_primary>  (30) 
energy

$$$$
30:0
     RDKit          3D

 25 26  0  0  0  0  0  0  0  0999 V2000
   55.9770   29.9090   42.9730 O   0  0  0  0  0  0  0  0  0  0  0  0
   55.9580   29.9950   44.2300 C   0  0  0  0  0  0  0  0  0  0  0  0
   56.0570   31.2870   44.8390 N   0  0  0  0  0  0  0  0  0  0  0  0
   57.2730   31.9860   45.1420 C   0  0  0  0  0  0  0  0  0  0  0  0
   57.5340   33.1970   44.4860 C   0  0  0  0  0  0  0  0  0  0  0  0
   58.6980   33.9190   44.7710 C   0  0  0  0  0  0  0  0  0  0  0  0
   59.6000   33.4430   45.7260 C   0  0  0  0  0  0  0  0  0  0  0  0
   60.7270   34.1460   46.0030 F   0  0  0  0  0  0  0  0  0  0  0  0
   59.3340   32.2500   46.4040 C   0  0  0  0  0  0  0  0  0  0  0  0
   58.1720   31.5260   46.1210 C   0  0  0  0  0  0  0  0  0  0  0  0
   55.9290   28.8100   45.0330 N   0  0  0  0  0  0  0  0  0  0  0  0
   57.0820   28.0270   45.3580 C   0  0  0  0  0  0  0  0  0  0  0  0
   58.6540   28.5590   45.1110 S   0  0  0  0  0  0  0  0  0  0  0  0
   59.4090   27.1550   45.6450 C   0  0  0  0  0  0  0  0  0  0  0  0
   58.4250   26.2580   46.0420 C   0  0  0  0  0  0  0  0  0  0  0  0
   58.7370   25.0080   46.5630 O   0  0  0  0  0  0  0  0  0  0  0  0
   57.1080   26.7350   45.8990 C   0  0  0  0  0  0  0  0  0  0  0  0
   55.9260   25.9840   46.3730 C   0  0  0  0  0  0  0  0  0  0  0  0
   56.0600   24.9970   47.1420 O   0  0  0  0  0  0  0  0  0  0  0  0
   54.6520   26.3360   45.9440 O   0  0  0  0  0  0  0  0  0  0  0  0
   56.8198   33.5817   43.7431 H   0  0  0  0  0  0  0  0  0  0  0  0
   58.9032   34.8619   44.2429 H   0  0  0  0  0  0  0  0  0  0  0  0
   60.0404   31.8800   47.1618 H   0  0  0  0  0  0  0  0  0  0  0  0
   57.9602   30.5940   46.6655 H   0  0  0  0  0  0  0  0  0  0  0  0
   60.4941   26.9773   45.6749 H   0  0  0  0  0  0  0  0  0  0  0  0
  1  2  2  0
  2  3  1  0
  3  4  1  0
  4  5  2  0
  5  6  1  0
  6  7  2  0
  7  8  1  0
  7  9  1  0
  9 10  2  0
  2 11  1  0
 11 12  1  0
 12 13  1  0
 13 14  1  0
 14 15  2  0
 15 16  1  0
 15 17  1  0
 17 18  1  0
 18 19  2  0
 18 20  1  0
 10  4  1  0
 17 12  2  0
  5 21  1  0
  6 22  1  0
  9 23  1  0
 10 24  1  0
 14 25  1  0
M  CHG  4   3  -1  11  -1  16  -1  20  -1
M  END
>  <UniqueID>  (31) 
29

>  <SMILES>  (31) 
O=C([N-]c1ccc(F)cc1)[N-]c1scc([O-])c1C(=O)[O-]

>  <Energy>  (31) 
63.68311164077921

>  <Genealogy>  (31) 
O=C([N-]c1ccc(F)cc1)[N-]c1scc([O-])c1C(=O)[O-] (protonated)
O=C([N-]c1ccc(F)cc1)[N-]c1scc([O-])c1C(=O)[O-] (3D coordinates assigned)
O=C([N-]c1ccc(F)cc1)[N-]c1scc([O-])c1C(=O)[O-] (optimized conformer: 63.68311164077921 kcal/mol)

>  <smiles>  (31) 
O=C(Nc1ccc(F)cc1)Nc1scc(O)c1C(=O)O

>  <score_type>  (31) 
oracle

>  <origin>  (31) 
adg

>  <m_score__min__energy>  (31) 
-14.31

>  <m_primary>  (31) 
energy

$$$$
31:0
     RDKit          3D

 57 59  0  0  0  0  0  0  0  0999 V2000
   59.0500   33.1790   51.0770 C   0  0  0  0  0  0  0  0  0  0  0  0
   59.2350   32.0010   50.4830 C   0  0  0  0  0  0  0  0  0  0  0  0
   58.9270   31.7770   49.0570 C   0  0  0  0  0  0  0  0  0  0  0  0
   58.9570   30.6080   48.5760 O   0  0  0  0  0  0  0  0  0  0  0  0
   58.5640   32.8920   48.2270 N   0  0  0  0  0  0  0  0  0  0  0  0
   58.4340   32.8070   46.7970 C   0  0  0  0  0  0  0  0  0  0  0  0
   57.8880   31.6560   46.2020 C   0  0  0  0  0  0  0  0  0  0  0  0
   57.6870   31.5860   44.8200 C   0  0  0  0  0  0  0  0  0  0  0  0
   57.1510   30.3830   44.2560 N   0  0  0  0  0  0  0  0  0  0  0  0
   56.5460   29.3180   44.9950 C   0  0  0  0  0  0  0  0  0  0  0  0
   55.3220   29.0530   44.8410 O   0  0  0  0  0  0  0  0  0  0  0  0
   57.3560   28.5560   45.9010 N   0  0  0  0  0  0  0  0  0  0  0  0
   57.2500   27.2850   46.1690 C   0  0  0  0  0  0  0  0  0  0  0  0
   56.3000   26.3990   45.6890 C   0  0  0  0  0  0  0  0  0  0  0  0
   56.6120   25.2000   46.3190 C   0  0  0  0  0  0  0  0  0  0  0  0
   55.8100   23.9120   46.2340 C   0  0  0  0  0  0  0  0  0  0  0  0
   55.6070   23.3570   47.6560 C   0  0  0  0  0  0  0  0  0  0  0  0
   56.5620   22.8650   45.3850 C   0  0  0  0  0  0  0  0  0  0  0  0
   54.4390   24.1820   45.5820 C   0  0  0  0  0  0  0  0  0  0  0  0
   57.6730   25.3800   47.1380 N   0  0  0  0  0  0  0  0  0  0  0  0
   58.0500   26.6450   47.0410 N   0  0  0  0  0  0  0  0  0  0  0  0
   59.1920   27.2090   47.7530 C   0  0  0  0  0  0  0  0  0  0  0  0
   58.0710   32.6680   44.0140 C   0  0  0  0  0  0  0  0  0  0  0  0
   58.6520   33.8000   44.5870 C   0  0  0  0  0  0  0  0  0  0  0  0
   58.8580   33.8700   45.9710 C   0  0  0  0  0  0  0  0  0  0  0  0
   59.6320   35.3430   46.6540 S   0  0  0  0  0  0  0  0  0  0  0  0
   60.9670   34.4210   47.4280 C   0  0  0  0  0  0  0  0  0  0  0  0
   61.1550   34.4730   48.8150 C   0  0  0  0  0  0  0  0  0  0  0  0
   62.1930   33.7490   49.4110 C   0  0  0  0  0  0  0  0  0  0  0  0
   63.0530   32.9770   48.6220 C   0  0  0  0  0  0  0  0  0  0  0  0
   64.3560   32.0710   49.3700 Cl  0  0  0  0  0  0  0  0  0  0  0  0
   62.8760   32.9340   47.2360 C   0  0  0  0  0  0  0  0  0  0  0  0
   61.8380   33.6560   46.6400 C   0  0  0  0  0  0  0  0  0  0  0  0
   59.2931   33.3018   52.1428 H   0  0  0  0  0  0  0  0  0  0  0  0
   58.6542   34.0289   50.5017 H   0  0  0  0  0  0  0  0  0  0  0  0
   59.6319   31.1646   51.0771 H   0  0  0  0  0  0  0  0  0  0  0  0
   58.3180   33.7890   48.7030 H   0  0  0  0  0  0  0  0  0  0  0  0
   57.6148   30.7976   46.8333 H   0  0  0  0  0  0  0  0  0  0  0  0
   55.4872   26.5980   44.9750 H   0  0  0  0  0  0  0  0  0  0  0  0
   55.8876   24.1243   48.3926 H   0  0  0  0  0  0  0  0  0  0  0  0
   54.5507   23.0837   47.7956 H   0  0  0  0  0  0  0  0  0  0  0  0
   56.2377   22.4666   47.7956 H   0  0  0  0  0  0  0  0  0  0  0  0
   57.0734   22.1530   46.0494 H   0  0  0  0  0  0  0  0  0  0  0  0
   55.8448   22.3240   44.7503 H   0  0  0  0  0  0  0  0  0  0  0  0
   57.3037   23.3719   44.7503 H   0  0  0  0  0  0  0  0  0  0  0  0
   53.6827   24.3309   46.3668 H   0  0  0  0  0  0  0  0  0  0  0  0
   54.5017   25.0851   44.9571 H   0  0  0  0  0  0  0  0  0  0  0  0
   54.1546   23.3226   44.9571 H   0  0  0  0  0  0  0  0  0  0  0  0
   59.0252   27.1266   48.8372 H   0  0  0  0  0  0  0  0  0  0  0  0
   60.1035   26.6575   47.4793 H   0  0  0  0  0  0  0  0  0  0  0  0
   59.3081   28.2681   47.4793 H   0  0  0  0  0  0  0  0  0  0  0  0
   57.9135   32.6240   42.9262 H   0  0  0  0  0  0  0  0  0  0  0  0
   58.9505   34.6436   43.9473 H   0  0  0  0  0  0  0  0  0  0  0  0
   60.4849   35.0846   49.4370 H   0  0  0  0  0  0  0  0  0  0  0  0
   62.3334   33.7866   50.5014 H   0  0  0  0  0  0  0  0  0  0  0  0
   63.5541   32.3315   46.6138 H   0  0  0  0  0  0  0  0  0  0  0  0
   61.7042   33.6237   45.5486 H   0  0  0  0  0  0  0  0  0  0  0  0
  1  2  2  0
  2  3  1  0
  3  4  2  0
  3  5  1  0
  5  6  1  0
  6  7  2  0
  7  8  1  0
  8  9  1  0
  9 10  1  0
 10 11  2  0
 10 12  1  0
 12 13  2  3
 13 14  1  0
 14 15  2  0
 15 16  1  0
 16 17  1  0
 16 18  1  0
 16 19  1  0
 15 20  1  0
 20 21  1  0
 21 22  1  0
  8 23  2  0
 23 24  1  0
 24 25  2  0
 25 26  1  0
 26 27  1  0
 27 28  2  0
 28 29  1  0
 29 30  2  0
 30 31  1  0
 30 32  1  0
 32 33  2  0
 25  6  1  0
 33 27  1  0
 21 13  1  0
  1 34  1  0
  1 35  1  0
  2 36  1  0
  5 37  1  0
  7 38  1  0
 14 39  1  0
 17 40  1  0
 17 41  1  0
 17 42  1  0
 18 43  1  0
 18 44  1  0
 18 45  1  0
 19 46  1  0
 19 47  1  0
 19 48  1  0
 22 49  1  0
 22 50  1  0
 22 51  1  0
 23 52  1  0
 24 53  1  0
 28 54  1  0
 29 55  1  0
 32 56  1  0
 33 57  1  0
M  CHG  2   9  -1  20  -1
M  END
>  <UniqueID>  (32) 
30

>  <SMILES>  (32) 
C=CC(=O)Nc1cc([N-]C(=O)N=c2cc(C(C)(C)C)[n-]n2C)ccc1Sc1ccc(Cl)cc1

>  <Energy>  (32) 
91.74198885064514

>  <Genealogy>  (32) 
C=CC(=O)Nc1cc([N-]C(=O)N=c2cc(C(C)(C)C)[n-]n2C)ccc1Sc1ccc(Cl)cc1 (protonated)
C=CC(=O)Nc1cc([N-]C(=O)N=c2cc(C(C)(C)C)[n-]n2C)ccc1Sc1ccc(Cl)cc1 (3D coordinates assigned)
C=CC(=O)Nc1cc([N-]C(=O)N=c2cc(C(C)(C)C)[n-]n2C)ccc1Sc1ccc(Cl)cc1 (optimized conformer: 91.74198885064514 kcal/mol)

>  <smiles>  (32) 
C=CC(=O)Nc1cc(NC(=O)N=c2cc(C(C)(C)C)[nH]n2C)ccc1Sc1ccc(Cl)cc1

>  <score_type>  (32) 
oracle

>  <origin>  (32) 
adg

>  <m_score__min__energy>  (32) 
-12.119999999999999

>  <m_primary>  (32) 
energy

$$$$
32:0
     RDKit          3D

 44 46  0  0  0  0  0  0  0  0999 V2000
   55.4900   24.6890   46.4020 O   0  0  0  0  0  0  0  0  0  0  0  0
   56.0890   25.5160   45.6630 C   0  0  0  0  0  0  0  0  0  0  0  0
   55.9910   26.9110   45.9760 N   0  0  0  0  0  0  0  0  0  0  0  0
   57.0770   27.8470   45.9760 C   0  0  0  0  0  0  0  0  0  0  0  0
   58.3350   27.4280   46.4230 C   0  0  0  0  0  0  0  0  0  0  0  0
   59.4070   28.3220   46.4520 C   0  0  0  0  0  0  0  0  0  0  0  0
   59.2250   29.6500   46.0580 C   0  0  0  0  0  0  0  0  0  0  0  0
   57.9590   30.1010   45.6500 C   0  0  0  0  0  0  0  0  0  0  0  0
   57.7570   31.5050   45.2330 C   0  0  0  0  0  0  0  0  0  0  0  0
   56.6250   31.8610   44.8070 O   0  0  0  0  0  0  0  0  0  0  0  0
   58.8200   32.4740   45.3160 N   0  0  0  0  0  0  0  0  0  0  0  0
   58.9210   33.5440   44.3160 C   0  0  0  0  0  0  0  0  0  0  0  0
   58.7440   34.9180   44.9790 C   0  0  0  0  0  0  0  0  0  0  0  0
   59.4200   35.0230   46.3660 C   0  0  0  0  0  0  0  0  0  0  0  0
   60.3930   33.8710   46.6450 C   0  0  0  0  0  0  0  0  0  0  0  0
   59.6730   32.5200   46.5160 C   0  0  0  0  0  0  0  0  0  0  0  0
   56.8880   29.1930   45.6080 C   0  0  0  0  0  0  0  0  0  0  0  0
   56.8770   25.0640   44.5490 N   0  0  0  0  0  0  0  0  0  0  0  0
   56.9620   23.6940   44.1240 C   0  0  0  0  0  0  0  0  0  0  0  0
   56.2010   23.2680   43.0250 C   0  0  0  0  0  0  0  0  0  0  0  0
   56.2810   21.9460   42.5770 C   0  0  0  0  0  0  0  0  0  0  0  0
   57.1370   21.0430   43.2130 C   0  0  0  0  0  0  0  0  0  0  0  0
   57.9180   21.4630   44.2930 C   0  0  0  0  0  0  0  0  0  0  0  0
   57.8390   22.7850   44.7440 C   0  0  0  0  0  0  0  0  0  0  0  0
   58.4801   26.3888   46.7533 H   0  0  0  0  0  0  0  0  0  0  0  0
   60.3976   27.9798   46.7860 H   0  0  0  0  0  0  0  0  0  0  0  0
   60.0771   30.3455   46.0674 H   0  0  0  0  0  0  0  0  0  0  0  0
   59.9095   33.4985   43.8356 H   0  0  0  0  0  0  0  0  0  0  0  0
   58.1283   33.4060   43.5659 H   0  0  0  0  0  0  0  0  0  0  0  0
   59.1811   35.6822   44.3195 H   0  0  0  0  0  0  0  0  0  0  0  0
   57.6650   35.0680   45.1317 H   0  0  0  0  0  0  0  0  0  0  0  0
   59.9756   35.9711   46.4147 H   0  0  0  0  0  0  0  0  0  0  0  0
   58.6251   34.9745   47.1249 H   0  0  0  0  0  0  0  0  0  0  0  0
   61.2202   33.9116   45.9211 H   0  0  0  0  0  0  0  0  0  0  0  0
   60.7821   33.9721   47.6689 H   0  0  0  0  0  0  0  0  0  0  0  0
   60.4246   31.7195   46.4509 H   0  0  0  0  0  0  0  0  0  0  0  0
   59.0321   32.3853   47.3998 H   0  0  0  0  0  0  0  0  0  0  0  0
   55.8940   29.5361   45.2851 H   0  0  0  0  0  0  0  0  0  0  0  0
   57.3560   25.7780   43.9560 H   0  0  0  0  0  0  0  0  0  0  0  0
   55.5367   23.9791   42.5122 H   0  0  0  0  0  0  0  0  0  0  0  0
   55.6700   21.6167   41.7237 H   0  0  0  0  0  0  0  0  0  0  0  0
   57.1961   20.0017   42.8635 H   0  0  0  0  0  0  0  0  0  0  0  0
   58.5960   20.7531   44.7893 H   0  0  0  0  0  0  0  0  0  0  0  0
   58.4648   23.1150   45.5863 H   0  0  0  0  0  0  0  0  0  0  0  0
  1  2  2  0
  2  3  1  0
  3  4  1  0
  4  5  2  0
  5  6  1  0
  6  7  2  0
  7  8  1  0
  8  9  1  0
  9 10  2  0
  9 11  1  0
 11 12  1  0
 12 13  1  0
 13 14  1  0
 14 15  1  0
 15 16  1  0
  8 17  2  0
  2 18  1  0
 18 19  1  0
 19 20  2  0
 20 21  1  0
 21 22  2  0
 22 23  1  0
 23 24  2  0
 17  4  1  0
 24 19  1  0
 16 11  1  0
  5 25  1  0
  6 26  1  0
  7 27  1  0
 12 28  1  0
 12 29  1  0
 13 30  1  0
 13 31  1  0
 14 32  1  0
 14 33  1  0
 15 34  1  0
 15 35  1  0
 16 36  1  0
 16 37  1  0
 17 38  1  0
 18 39  1  0
 20 40  1  0
 21 41  1  0
 22 42  1  0
 23 43  1  0
 24 44  1  0
M  CHG  1   3  -1
M  END
>  <UniqueID>  (33) 
31

>  <SMILES>  (33) 
O=C([N-]c1cccc(C(=O)N2CCCCC2)c1)Nc1ccccc1

>  <Energy>  (33) 
59.96080887630051

>  <Genealogy>  (33) 
O=C([N-]c1cccc(C(=O)N2CCCCC2)c1)Nc1ccccc1 (protonated)
O=C([N-]c1cccc(C(=O)N2CCCCC2)c1)Nc1ccccc1 (3D coordinates assigned)
O=C([N-]c1cccc(C(=O)N2CCCCC2)c1)Nc1ccccc1 (nonaromatic ring conformer: 59.96080887630051 kcal/mol)

>  <smiles>  (33) 
O=C(Nc1ccccc1)Nc1cccc(C(=O)N2CCCCC2)c1

>  <score_type>  (33) 
oracle

>  <origin>  (33) 
adg

>  <m_score__min__energy>  (33) 
-10.18

>  <m_primary>  (33) 
energy

$$$$
33:0
     RDKit          3D

 50 51  0  0  0  0  0  0  0  0999 V2000
   56.1470   23.2990   43.0120 C   0  0  0  0  0  0  0  0  0  0  0  0
   56.5760   21.9530   43.5780 C   0  0  0  0  0  0  0  0  0  0  0  0
   56.1630   21.8600   44.9780 N   0  0  0  0  0  0  0  0  0  0  0  0
   57.3760   22.5680   46.0000 S   0  0  0  0  0  0  0  0  0  0  0  0
   57.1300   22.1370   47.4200 O   0  0  0  0  0  0  0  0  0  0  0  0
   58.7390   22.0870   45.5880 O   0  0  0  0  0  0  0  0  0  0  0  0
   57.3060   24.3280   45.9100 C   0  0  0  0  0  0  0  0  0  0  0  0
   56.1090   25.0040   46.1810 C   0  0  0  0  0  0  0  0  0  0  0  0
   56.0660   26.4020   46.1350 C   0  0  0  0  0  0  0  0  0  0  0  0
   57.2110   27.1360   45.7990 C   0  0  0  0  0  0  0  0  0  0  0  0
   57.1410   28.5670   45.7990 N   0  0  0  0  0  0  0  0  0  0  0  0
   56.4010   29.3650   44.8680 C   0  0  0  0  0  0  0  0  0  0  0  0
   55.1410   29.3180   44.8420 O   0  0  0  0  0  0  0  0  0  0  0  0
   57.1270   30.2910   43.9450 C   0  0  0  0  0  0  0  0  0  0  0  0
   57.7820   31.3920   44.7310 C   0  0  0  0  0  0  0  0  0  0  0  0
   57.3880   32.7270   44.5490 C   0  0  0  0  0  0  0  0  0  0  0  0
   58.0310   33.7540   45.2470 C   0  0  0  0  0  0  0  0  0  0  0  0
   59.0950   33.4610   46.1180 C   0  0  0  0  0  0  0  0  0  0  0  0
   59.7530   34.4900   46.8660 N   0  0  0  0  0  0  0  0  0  0  0  0
   60.3980   34.3360   48.1380 C   0  0  0  0  0  0  0  0  0  0  0  0
   59.7200   34.5280   49.1830 O   0  0  0  0  0  0  0  0  0  0  0  0
   61.8120   33.8130   48.2590 C   0  0  0  0  0  0  0  0  0  0  0  0
   61.8300   32.4340   48.9320 C   0  0  0  0  0  0  0  0  0  0  0  0
   62.4640   33.7490   46.8720 C   0  0  0  0  0  0  0  0  0  0  0  0
   59.4740   32.1280   46.3140 C   0  0  0  0  0  0  0  0  0  0  0  0
   58.8340   31.1000   45.6160 C   0  0  0  0  0  0  0  0  0  0  0  0
   58.4140   26.4560   45.5420 C   0  0  0  0  0  0  0  0  0  0  0  0
   58.4590   25.0590   45.5960 C   0  0  0  0  0  0  0  0  0  0  0  0
   55.9265   23.9908   43.8383 H   0  0  0  0  0  0  0  0  0  0  0  0
   56.9579   23.7123   42.3943 H   0  0  0  0  0  0  0  0  0  0  0  0
   55.2465   23.1668   42.3943 H   0  0  0  0  0  0  0  0  0  0  0  0
   56.1024   21.1448   43.0013 H   0  0  0  0  0  0  0  0  0  0  0  0
   57.6699   21.8583   43.5109 H   0  0  0  0  0  0  0  0  0  0  0  0
   55.2014   24.4348   46.4304 H   0  0  0  0  0  0  0  0  0  0  0  0
   55.1274   26.9278   46.3641 H   0  0  0  0  0  0  0  0  0  0  0  0
   57.8962   29.7284   43.3956 H   0  0  0  0  0  0  0  0  0  0  0  0
   56.4092   30.7309   43.2370 H   0  0  0  0  0  0  0  0  0  0  0  0
   56.5696   32.9664   43.8540 H   0  0  0  0  0  0  0  0  0  0  0  0
   57.7029   34.7955   45.1140 H   0  0  0  0  0  0  0  0  0  0  0  0
   62.3898   34.5026   48.8919 H   0  0  0  0  0  0  0  0  0  0  0  0
   61.8284   32.5593   50.0248 H   0  0  0  0  0  0  0  0  0  0  0  0
   60.9392   31.8654   48.6268 H   0  0  0  0  0  0  0  0  0  0  0  0
   62.7353   31.8888   48.6268 H   0  0  0  0  0  0  0  0  0  0  0  0
   63.5531   33.6421   46.9834 H   0  0  0  0  0  0  0  0  0  0  0  0
   62.0655   32.8857   46.3190 H   0  0  0  0  0  0  0  0  0  0  0  0
   62.2410   34.6734   46.3190 H   0  0  0  0  0  0  0  0  0  0  0  0
   60.2809   31.8878   47.0220 H   0  0  0  0  0  0  0  0  0  0  0  0
   59.1551   30.0578   45.7600 H   0  0  0  0  0  0  0  0  0  0  0  0
   59.3234   27.0245   45.2975 H   0  0  0  0  0  0  0  0  0  0  0  0
   59.4029   24.5326   45.3912 H   0  0  0  0  0  0  0  0  0  0  0  0
  1  2  1  0
  2  3  1  0
  3  4  1  0
  4  5  2  0
  4  6  2  0
  4  7  1  0
  7  8  2  0
  8  9  1  0
  9 10  2  0
 10 11  1  0
 11 12  1  0
 12 13  2  0
 12 14  1  0
 14 15  1  0
 15 16  2  0
 16 17  1  0
 17 18  2  0
 18 19  1  0
 19 20  1  0
 20 21  2  0
 20 22  1  0
 22 23  1  0
 22 24  1  0
 18 25  1  0
 25 26  2  0
 10 27  1  0
 27 28  2  0
 28  7  1  0
 26 15  1  0
  1 29  1  0
  1 30  1  0
  1 31  1  0
  2 32  1  0
  2 33  1  0
  8 34  1  0
  9 35  1  0
 14 36  1  0
 14 37  1  0
 16 38  1  0
 17 39  1  0
 22 40  1  0
 23 41  1  0
 23 42  1  0
 23 43  1  0
 24 44  1  0
 24 45  1  0
 24 46  1  0
 25 47  1  0
 26 48  1  0
 27 49  1  0
 28 50  1  0
M  CHG  3   3  -1  11  -1  19  -1
M  END
>  <UniqueID>  (34) 
32

>  <SMILES>  (34) 
CC[N-]S(=O)(=O)c1ccc([N-]C(=O)Cc2ccc([N-]C(=O)C(C)C)cc2)cc1

>  <Energy>  (34) 
47.18274876017705

>  <Genealogy>  (34) 
CC[N-]S(=O)(=O)c1ccc([N-]C(=O)Cc2ccc([N-]C(=O)C(C)C)cc2)cc1 (protonated)
CC[N-]S(=O)(=O)c1ccc([N-]C(=O)Cc2ccc([N-]C(=O)C(C)C)cc2)cc1 (3D coordinates assigned)
CC[N-]S(=O)(=O)c1ccc([N-]C(=O)Cc2ccc([N-]C(=O)C(C)C)cc2)cc1 (optimized conformer: 47.18274876017705 kcal/mol)

>  <smiles>  (34) 
CCNS(=O)(=O)c1ccc(NC(=O)Cc2ccc(NC(=O)C(C)C)cc2)cc1

>  <score_type>  (34) 
oracle

>  <origin>  (34) 
adg

>  <m_score__min__energy>  (34) 
-12.06

>  <m_primary>  (34) 
energy

$$$$
34:0
     RDKit          3D

 35 37  0  0  0  0  0  0  0  0999 V2000
   57.8676   32.7232   44.2763 H   0  0  0  0  0  0  0  0  0  0  0  0
   57.3930   31.7710   43.9970 C   0  0  0  0  0  0  0  0  0  0  0  0
   56.7830   30.9650   44.9080 N   0  0  0  0  0  0  0  0  0  0  0  0
   56.2680   29.8610   44.3210 C   0  0  0  0  0  0  0  0  0  0  0  0
   55.6490   28.9140   44.9610 N   0  0  0  0  0  0  0  0  0  0  0  0
   56.2690   27.7960   45.6140 C   0  0  0  0  0  0  0  0  0  0  0  0
   55.5410   26.8330   45.9730 O   0  0  0  0  0  0  0  0  0  0  0  0
   57.7170   27.7720   45.9430 C   0  0  0  0  0  0  0  0  0  0  0  0
   58.3150   28.8710   46.5870 C   0  0  0  0  0  0  0  0  0  0  0  0
   57.7062   29.7530   46.8347 H   0  0  0  0  0  0  0  0  0  0  0  0
   59.6830   28.8550   46.9180 C   0  0  0  0  0  0  0  0  0  0  0  0
   60.3240   29.9370   47.5430 O   0  0  0  0  0  0  0  0  0  0  0  0
   59.6730   30.9540   48.3060 C   0  0  0  0  0  0  0  0  0  0  0  0
   58.7130   30.5662   48.6774 H   0  0  0  0  0  0  0  0  0  0  0  0
   60.3259   31.2344   49.1457 H   0  0  0  0  0  0  0  0  0  0  0  0
   59.4180   32.1790   47.4660 C   0  0  0  0  0  0  0  0  0  0  0  0
   60.4730   32.7890   46.7690 C   0  0  0  0  0  0  0  0  0  0  0  0
   61.4898   32.3761   46.8437 H   0  0  0  0  0  0  0  0  0  0  0  0
   60.2370   33.9180   45.9810 C   0  0  0  0  0  0  0  0  0  0  0  0
   61.0689   34.3950   45.4421 H   0  0  0  0  0  0  0  0  0  0  0  0
   58.9450   34.4430   45.8760 C   0  0  0  0  0  0  0  0  0  0  0  0
   58.7616   35.3350   45.2590 H   0  0  0  0  0  0  0  0  0  0  0  0
   57.8870   33.8330   46.5560 C   0  0  0  0  0  0  0  0  0  0  0  0
   56.8700   34.2434   46.4703 H   0  0  0  0  0  0  0  0  0  0  0  0
   58.1190   32.7020   47.3450 C   0  0  0  0  0  0  0  0  0  0  0  0
   57.2825   32.2203   47.8724 H   0  0  0  0  0  0  0  0  0  0  0  0
   60.4440   27.7210   46.6160 C   0  0  0  0  0  0  0  0  0  0  0  0
   61.5134   27.6977   46.8725 H   0  0  0  0  0  0  0  0  0  0  0  0
   59.8580   26.6190   45.9920 C   0  0  0  0  0  0  0  0  0  0  0  0
   60.4664   25.7319   45.7621 H   0  0  0  0  0  0  0  0  0  0  0  0
   58.5010   26.6380   45.6580 C   0  0  0  0  0  0  0  0  0  0  0  0
   57.9620   25.5580   45.0380 F   0  0  0  0  0  0  0  0  0  0  0  0
   56.5610   29.8290   42.6700 S   0  0  0  0  0  0  0  0  0  0  0  0
   57.3730   31.3040   42.6880 C   0  0  0  0  0  0  0  0  0  0  0  0
   57.8115   31.8101   41.8153 H   0  0  0  0  0  0  0  0  0  0  0  0
  1  2  1  0
  2  3  1  0
  3  4  1  0
  4  5  2  0
  5  6  1  0
  6  7  2  0
  6  8  1  0
  8  9  2  0
  9 10  1  0
  9 11  1  0
 11 12  1  0
 12 13  1  0
 13 14  1  0
 13 15  1  0
 13 16  1  0
 16 17  2  0
 17 18  1  0
 17 19  1  0
 19 20  1  0
 19 21  2  0
 21 22  1  0
 21 23  1  0
 23 24  1  0
 23 25  2  0
 25 26  1  0
 11 27  2  0
 27 28  1  0
 27 29  1  0
 29 30  1  0
 29 31  2  0
 31 32  1  0
  4 33  1  0
 33 34  1  0
 34 35  1  0
 34  2  2  0
 31  8  1  0
 25 16  1  0
M  CHG  1   3  -1
M  END
>  <UniqueID>  (35) 
33

>  <SMILES>  (35) 
O=C(/N=c1\[n-]ccs1)c1cc(OCc2ccccc2)ccc1F

>  <Energy>  (35) 
74.87989788753615

>  <Genealogy>  (35) 
O=C(N=c1[n-]ccs1)c1cc(OCc2ccccc2)ccc1F (protonated)
O=C(/N=c1\[n-]ccs1)c1cc(OCc2ccccc2)ccc1F (cis-trans isomerization)
O=C(/N=c1\[n-]ccs1)c1cc(OCc2ccccc2)ccc1F (3D coordinates assigned)
O=C(/N=c1\[n-]ccs1)c1cc(OCc2ccccc2)ccc1F (optimized conformer: 74.87989788753615 kcal/mol)

>  <smiles>  (35) 
O=C(N=c1[nH]ccs1)c1cc(OCc2ccccc2)ccc1F

>  <score_type>  (35) 
oracle

>  <origin>  (35) 
adg

>  <m_score__min__energy>  (35) 
-9.8200000000000003

>  <m_primary>  (35) 
energy

$$$$
35:0
     RDKit          3D

 23 24  0  0  0  0  0  0  0  0999 V2000
   56.7012   24.9156   47.4104 H   0  0  0  0  0  0  0  0  0  0  0  0
   56.6420   25.8360   46.8110 C   0  0  0  0  0  0  0  0  0  0  0  0
   55.5150   26.3280   46.2550 N   0  0  0  0  0  0  0  0  0  0  0  0
   55.8300   27.4410   45.6130 N   0  0  0  0  0  0  0  0  0  0  0  0
   55.1470   28.0340   45.0900 H   0  0  0  0  0  0  0  0  0  0  0  0
   57.1450   27.6660   45.7540 C   0  0  0  0  0  0  0  0  0  0  0  0
   57.7500   28.6930   45.2360 N   0  0  0  0  0  0  0  0  0  0  0  0
   56.9370   30.0250   44.4760 S   0  0  0  0  0  0  0  0  0  0  0  0
   55.4880   30.0090   44.8720 O   0  0  0  0  0  0  0  0  0  0  0  0
   57.0390   29.8750   42.9840 O   0  0  0  0  0  0  0  0  0  0  0  0
   57.6530   31.5480   44.9960 C   0  0  0  0  0  0  0  0  0  0  0  0
   58.1440   31.6800   46.3030 C   0  0  0  0  0  0  0  0  0  0  0  0
   58.0767   30.8338   47.0026 H   0  0  0  0  0  0  0  0  0  0  0  0
   58.7190   32.8850   46.7190 C   0  0  0  0  0  0  0  0  0  0  0  0
   59.1063   32.9843   47.7438 H   0  0  0  0  0  0  0  0  0  0  0  0
   58.8020   33.9640   45.8330 C   0  0  0  0  0  0  0  0  0  0  0  0
   59.2550   34.9114   46.1606 H   0  0  0  0  0  0  0  0  0  0  0  0
   58.3090   33.8380   44.5310 C   0  0  0  0  0  0  0  0  0  0  0  0
   58.3731   34.6873   43.8348 H   0  0  0  0  0  0  0  0  0  0  0  0
   57.7340   32.6330   44.1120 C   0  0  0  0  0  0  0  0  0  0  0  0
   57.3450   32.5370   43.0876 H   0  0  0  0  0  0  0  0  0  0  0  0
   57.7110   26.6610   46.5150 C   0  0  0  0  0  0  0  0  0  0  0  0
   58.7631   26.5449   46.8144 H   0  0  0  0  0  0  0  0  0  0  0  0
  1  2  1  0
  2  3  1  0
  3  4  1  0
  4  5  1  0
  4  6  1  0
  6  7  2  0
  7  8  1  0
  8  9  2  0
  8 10  2  0
  8 11  1  0
 11 12  2  0
 12 13  1  0
 12 14  1  0
 14 15  1  0
 14 16  2  0
 16 17  1  0
 16 18  1  0
 18 19  1  0
 18 20  2  0
 20 21  1  0
  6 22  1  0
 22 23  1  0
 22  2  2  0
 20 11  1  0
M  CHG  1   3  -1
M  END
>  <UniqueID>  (36) 
34

>  <SMILES>  (36) 
O=S(=O)(/N=c1\cc[n-][nH]1)c1ccccc1

>  <Energy>  (36) 
57.40223422978458

>  <Genealogy>  (36) 
O=S(=O)(N=c1cc[n-][nH]1)c1ccccc1 (protonated)
O=S(=O)(/N=c1\cc[n-][nH]1)c1ccccc1 (cis-trans isomerization)
O=S(=O)(/N=c1\cc[n-][nH]1)c1ccccc1 (3D coordinates assigned)
O=S(=O)(/N=c1\cc[n-][nH]1)c1ccccc1 (optimized conformer: 57.40223422978458 kcal/mol)

>  <smiles>  (36) 
O=S(=O)(N=c1cc[nH][nH]1)c1ccccc1

>  <score_type>  (36) 
oracle

>  <origin>  (36) 
adg

>  <m_score__min__energy>  (36) 
-9.5099999999999998

>  <m_primary>  (36) 
energy

$$$$
36:0
     RDKit          3D

 48 50  0  0  0  0  0  0  0  0999 V2000
   64.0860   32.9260   46.8210 N   0  0  0  0  0  0  0  0  0  0  0  0
   62.8160   32.9960   47.0340 C   0  0  0  0  0  0  0  0  0  0  0  0
   62.2560   32.0250   47.8380 C   0  0  0  0  0  0  0  0  0  0  0  0
   60.8780   32.0980   48.0710 C   0  0  0  0  0  0  0  0  0  0  0  0
   60.1840   31.0960   48.9260 C   0  0  0  0  0  0  0  0  0  0  0  0
   59.3870   31.7350   50.0000 C   0  0  0  0  0  0  0  0  0  0  0  0
   58.2100   31.2100   50.4880 C   0  0  0  0  0  0  0  0  0  0  0  0
   57.5720   31.9200   51.4990 C   0  0  0  0  0  0  0  0  0  0  0  0
   58.0770   33.0990   52.0050 C   0  0  0  0  0  0  0  0  0  0  0  0
   59.2560   33.6270   51.5170 C   0  0  0  0  0  0  0  0  0  0  0  0
   59.8950   32.9280   50.5150 C   0  0  0  0  0  0  0  0  0  0  0  0
   60.1510   33.1030   47.5110 N   0  0  0  0  0  0  0  0  0  0  0  0
   60.7180   34.0400   46.7300 C   0  0  0  0  0  0  0  0  0  0  0  0
   59.6550   35.2960   46.0530 S   0  0  0  0  0  0  0  0  0  0  0  0
   58.1660   34.6040   45.3730 C   0  0  0  0  0  0  0  0  0  0  0  0
   57.9960   33.1590   45.5020 C   0  0  0  0  0  0  0  0  0  0  0  0
   57.6850   32.7120   46.6590 O   0  0  0  0  0  0  0  0  0  0  0  0
   58.1390   32.2040   44.4810 N   0  0  0  0  0  0  0  0  0  0  0  0
   57.9210   30.8290   44.8400 C   0  0  0  0  0  0  0  0  0  0  0  0
   58.8740   30.0960   45.5310 C   0  0  0  0  0  0  0  0  0  0  0  0
   58.6390   28.7640   45.8660 C   0  0  0  0  0  0  0  0  0  0  0  0
   57.4260   28.2320   45.4770 C   0  0  0  0  0  0  0  0  0  0  0  0
   57.0020   26.5560   45.8380 S   0  0  0  0  0  0  0  0  0  0  0  0
   57.7020   26.0510   47.3470 N   0  0  0  0  0  0  0  0  0  0  0  0
   57.3650   25.6310   44.7230 O   0  0  0  0  0  0  0  0  0  0  0  0
   55.5020   26.4870   46.0600 O   0  0  0  0  0  0  0  0  0  0  0  0
   56.4750   28.9600   44.7900 C   0  0  0  0  0  0  0  0  0  0  0  0
   56.7120   30.2800   44.4590 C   0  0  0  0  0  0  0  0  0  0  0  0
   62.0390   33.9720   46.5030 N   0  0  0  0  0  0  0  0  0  0  0  0
   64.5430   32.0010   46.9940 H   0  0  0  0  0  0  0  0  0  0  0  0
   62.8686   31.2247   48.2787 H   0  0  0  0  0  0  0  0  0  0  0  0
   59.5119   30.4961   48.2948 H   0  0  0  0  0  0  0  0  0  0  0  0
   60.9513   30.4679   49.4021 H   0  0  0  0  0  0  0  0  0  0  0  0
   57.7936   30.2707   50.0951 H   0  0  0  0  0  0  0  0  0  0  0  0
   56.6304   31.5269   51.9100 H   0  0  0  0  0  0  0  0  0  0  0  0
   57.5353   33.6243   52.8054 H   0  0  0  0  0  0  0  0  0  0  0  0
   59.6686   34.5672   51.9117 H   0  0  0  0  0  0  0  0  0  0  0  0
   60.8370   33.3242   50.1079 H   0  0  0  0  0  0  0  0  0  0  0  0
   59.1170   33.1340   47.7030 H   0  0  0  0  0  0  0  0  0  0  0  0
   57.3145   35.0860   45.8757 H   0  0  0  0  0  0  0  0  0  0  0  0
   58.2273   34.7925   44.2910 H   0  0  0  0  0  0  0  0  0  0  0  0
   58.3940   32.5140   43.5330 H   0  0  0  0  0  0  0  0  0  0  0  0
   59.8242   30.5704   45.8173 H   0  0  0  0  0  0  0  0  0  0  0  0
   59.3829   28.1663   46.4131 H   0  0  0  0  0  0  0  0  0  0  0  0
   57.1780   25.2170   47.7040 H   0  0  0  0  0  0  0  0  0  0  0  0
   57.5190   26.8220   48.0550 H   0  0  0  0  0  0  0  0  0  0  0  0
   55.5239   28.4865   44.5049 H   0  0  0  0  0  0  0  0  0  0  0  0
   55.9646   30.8729   43.9115 H   0  0  0  0  0  0  0  0  0  0  0  0
  1  2  2  3
  2  3  1  0
  3  4  2  0
  4  5  1  0
  5  6  1  0
  6  7  2  0
  7  8  1  0
  8  9  2  0
  9 10  1  0
 10 11  2  0
  4 12  1  0
 12 13  1  0
 13 14  1  0
 14 15  1  0
 15 16  1  0
 16 17  2  0
 16 18  1  0
 18 19  1  0
 19 20  2  0
 20 21  1  0
 21 22  2  0
 22 23  1  0
 23 24  1  0
 23 25  2  0
 23 26  2  0
 22 27  1  0
 27 28  2  0
 13 29  2  0
 29  2  1  0
 11  6  1  0
 28 19  1  0
  1 30  1  0
  3 31  1  0
  5 32  1  0
  5 33  1  0
  7 34  1  0
  8 35  1  0
  9 36  1  0
 10 37  1  0
 11 38  1  0
 12 39  1  0
 15 40  1  0
 15 41  1  0
 18 42  1  0
 20 43  1  0
 21 44  1  0
 24 45  1  0
 24 46  1  0
 27 47  1  0
 28 48  1  0
M  END
>  <smiles>  (37) 
N=c1cc(Cc2ccccc2)[nH]c(SCC(=O)Nc2ccc(S(N)(=O)=O)cc2)n1

>  <score_type>  (37) 
oracle

>  <origin>  (37) 
adg

>  <m_score__min__energy>  (37) 
-9.9000000000000004

>  <m_primary>  (37) 
energy

$$$$
37:0
     RDKit          3D

 36 37  0  0  0  0  0  0  0  0999 V2000
   59.9680   30.2770   46.4050 C   0  0  0  0  0  0  0  0  0  0  0  0
   59.6790   31.4610   47.3320 C   0  0  0  0  0  0  0  0  0  0  0  0
   60.0910   32.7480   46.7490 N   0  0  0  0  0  0  0  0  0  0  0  0
   58.7440   33.5980   46.0440 S   0  0  0  0  0  0  0  0  0  0  0  0
   59.2140   34.9320   45.5370 O   0  0  0  0  0  0  0  0  0  0  0  0
   57.6820   33.8200   47.0840 O   0  0  0  0  0  0  0  0  0  0  0  0
   58.0850   32.6790   44.6920 C   0  0  0  0  0  0  0  0  0  0  0  0
   58.4790   32.9650   43.3790 C   0  0  0  0  0  0  0  0  0  0  0  0
   57.9450   32.2380   42.3140 C   0  0  0  0  0  0  0  0  0  0  0  0
   57.0170   31.2210   42.5530 C   0  0  0  0  0  0  0  0  0  0  0  0
   56.6150   30.9150   43.8660 C   0  0  0  0  0  0  0  0  0  0  0  0
   55.6240   29.8430   44.1190 C   0  0  0  0  0  0  0  0  0  0  0  0
   54.6370   29.6990   43.3470 O   0  0  0  0  0  0  0  0  0  0  0  0
   55.7810   28.9670   45.2420 N   0  0  0  0  0  0  0  0  0  0  0  0
   57.0000   28.2150   45.5140 C   0  0  0  0  0  0  0  0  0  0  0  0
   56.6740   26.7740   45.7460 C   0  0  0  0  0  0  0  0  0  0  0  0
   57.5770   25.7280   45.7350 C   0  0  0  0  0  0  0  0  0  0  0  0
   56.8320   24.5960   45.9870 C   0  0  0  0  0  0  0  0  0  0  0  0
   55.5270   25.0210   46.1390 C   0  0  0  0  0  0  0  0  0  0  0  0
   55.4650   26.3230   45.9910 O   0  0  0  0  0  0  0  0  0  0  0  0
   57.1610   31.6520   44.9320 C   0  0  0  0  0  0  0  0  0  0  0  0
   60.1861   29.3835   47.0085 H   0  0  0  0  0  0  0  0  0  0  0  0
   59.0902   30.0855   45.7703 H   0  0  0  0  0  0  0  0  0  0  0  0
   60.8353   30.5114   45.7703 H   0  0  0  0  0  0  0  0  0  0  0  0
   58.5982   31.4952   47.5338 H   0  0  0  0  0  0  0  0  0  0  0  0
   60.2587   31.3117   48.2549 H   0  0  0  0  0  0  0  0  0  0  0  0
   60.5220   33.3630   47.4770 H   0  0  0  0  0  0  0  0  0  0  0  0
   59.2104   33.7638   43.1867 H   0  0  0  0  0  0  0  0  0  0  0  0
   58.2555   32.4662   41.2837 H   0  0  0  0  0  0  0  0  0  0  0  0
   56.5975   30.6553   41.7080 H   0  0  0  0  0  0  0  0  0  0  0  0
   57.6797   28.3002   44.6534 H   0  0  0  0  0  0  0  0  0  0  0  0
   57.4823   28.6244   46.4139 H   0  0  0  0  0  0  0  0  0  0  0  0
   58.6617   25.7864   45.5617 H   0  0  0  0  0  0  0  0  0  0  0  0
   57.2024   23.5624   46.0536 H   0  0  0  0  0  0  0  0  0  0  0  0
   54.6689   24.3666   46.3520 H   0  0  0  0  0  0  0  0  0  0  0  0
   56.8602   31.4205   45.9644 H   0  0  0  0  0  0  0  0  0  0  0  0
  1  2  1  0
  2  3  1  0
  3  4  1  0
  4  5  2  0
  4  6  2  0
  4  7  1  0
  7  8  2  0
  8  9  1  0
  9 10  2  0
 10 11  1  0
 11 12  1  0
 12 13  2  0
 12 14  1  0
 14 15  1  0
 15 16  1  0
 16 17  2  0
 17 18  1  0
 18 19  2  0
 19 20  1  0
 11 21  2  0
 21  7  1  0
 20 16  1  0
  1 22  1  0
  1 23  1  0
  1 24  1  0
  2 25  1  0
  2 26  1  0
  3 27  1  0
  8 28  1  0
  9 29  1  0
 10 30  1  0
 15 31  1  0
 15 32  1  0
 17 33  1  0
 18 34  1  0
 19 35  1  0
 21 36  1  0
M  CHG  1  14  -1
M  END
>  <UniqueID>  (38) 
35

>  <SMILES>  (38) 
CCNS(=O)(=O)c1cccc(C(=O)[N-]Cc2ccco2)c1

>  <Energy>  (38) 
57.57747887986207

>  <Genealogy>  (38) 
CCNS(=O)(=O)c1cccc(C(=O)[N-]Cc2ccco2)c1 (protonated)
CCNS(=O)(=O)c1cccc(C(=O)[N-]Cc2ccco2)c1 (3D coordinates assigned)
CCNS(=O)(=O)c1cccc(C(=O)[N-]Cc2ccco2)c1 (optimized conformer: 57.57747887986207 kcal/mol)

>  <smiles>  (38) 
CCNS(=O)(=O)c1cccc(C(=O)NCc2ccco2)c1

>  <score_type>  (38) 
oracle

>  <origin>  (38) 
adg

>  <m_score__min__energy>  (38) 
-9.7899999999999991

>  <m_primary>  (38) 
energy

$$$$
38:0
     RDKit          3D

 49 51  0  0  0  0  0  0  0  0999 V2000
   54.0380   29.8960   51.8580 C   0  0  0  0  0  0  0  0  0  0  0  0
   55.0320   30.9540   51.7130 N   0  0  0  0  0  0  0  0  0  0  0  0
   56.4380   30.6790   51.7980 C   0  0  0  0  0  0  0  0  0  0  0  0
   56.8330   29.4990   52.0040 O   0  0  0  0  0  0  0  0  0  0  0  0
   57.4270   31.7700   51.6450 C   0  0  0  0  0  0  0  0  0  0  0  0
   58.4650   31.6800   50.7020 C   0  0  0  0  0  0  0  0  0  0  0  0
   59.3800   32.7310   50.5820 C   0  0  0  0  0  0  0  0  0  0  0  0
   60.7080   32.6350   49.3800 S   0  0  0  0  0  0  0  0  0  0  0  0
   59.6060   32.1130   48.0650 C   0  0  0  0  0  0  0  0  0  0  0  0
   59.2830   30.7610   47.9170 C   0  0  0  0  0  0  0  0  0  0  0  0
   58.4190   30.3530   46.8960 C   0  0  0  0  0  0  0  0  0  0  0  0
   57.8870   31.2910   46.0000 C   0  0  0  0  0  0  0  0  0  0  0  0
   56.9900   30.8350   44.9780 N   0  0  0  0  0  0  0  0  0  0  0  0
   56.4200   29.5260   44.8770 C   0  0  0  0  0  0  0  0  0  0  0  0
   55.1930   29.3410   45.0990 O   0  0  0  0  0  0  0  0  0  0  0  0
   57.2430   28.4430   44.4400 N   0  0  0  0  0  0  0  0  0  0  0  0
   58.0880   27.6770   45.3120 C   0  0  0  0  0  0  0  0  0  0  0  0
   57.5170   26.6430   46.0860 C   0  0  0  0  0  0  0  0  0  0  0  0
   56.0420   26.3600   46.0090 C   0  0  0  0  0  0  0  0  0  0  0  0
   58.3260   25.8990   46.9580 C   0  0  0  0  0  0  0  0  0  0  0  0
   59.6910   26.1660   47.0530 C   0  0  0  0  0  0  0  0  0  0  0  0
   60.2690   27.1620   46.2680 C   0  0  0  0  0  0  0  0  0  0  0  0
   59.4860   27.9090   45.3740 C   0  0  0  0  0  0  0  0  0  0  0  0
   60.1590   28.9410   44.5100 C   0  0  0  0  0  0  0  0  0  0  0  0
   58.2000   32.6540   46.1660 C   0  0  0  0  0  0  0  0  0  0  0  0
   59.0620   33.0590   47.1890 C   0  0  0  0  0  0  0  0  0  0  0  0
   59.2580   33.8540   51.4040 C   0  0  0  0  0  0  0  0  0  0  0  0
   58.2180   33.9110   52.3310 C   0  0  0  0  0  0  0  0  0  0  0  0
   57.3360   32.8810   52.4300 N   0  0  0  0  0  0  0  0  0  0  0  0
   53.8588   29.7052   52.9264 H   0  0  0  0  0  0  0  0  0  0  0  0
   53.0983   30.2075   51.3785 H   0  0  0  0  0  0  0  0  0  0  0  0
   54.4075   28.9776   51.3785 H   0  0  0  0  0  0  0  0  0  0  0  0
   54.6960   31.9280   51.5480 H   0  0  0  0  0  0  0  0  0  0  0  0
   58.5572   30.7895   50.0629 H   0  0  0  0  0  0  0  0  0  0  0  0
   59.7095   30.0164   48.6053 H   0  0  0  0  0  0  0  0  0  0  0  0
   58.1552   29.2899   46.7952 H   0  0  0  0  0  0  0  0  0  0  0  0
   55.6302   26.2810   47.0260 H   0  0  0  0  0  0  0  0  0  0  0  0
   55.5392   27.1781   45.4724 H   0  0  0  0  0  0  0  0  0  0  0  0
   55.8777   25.4139   45.4724 H   0  0  0  0  0  0  0  0  0  0  0  0
   57.8809   25.1007   47.5700 H   0  0  0  0  0  0  0  0  0  0  0  0
   60.3147   25.5879   47.7507 H   0  0  0  0  0  0  0  0  0  0  0  0
   61.3472   27.3643   46.3496 H   0  0  0  0  0  0  0  0  0  0  0  0
   60.6482   29.6912   45.1486 H   0  0  0  0  0  0  0  0  0  0  0  0
   60.9127   28.4525   43.8749 H   0  0  0  0  0  0  0  0  0  0  0  0
   59.4080   29.4337   43.8749 H   0  0  0  0  0  0  0  0  0  0  0  0
   57.7644   33.4027   45.4880 H   0  0  0  0  0  0  0  0  0  0  0  0
   59.3133   34.1235   47.3057 H   0  0  0  0  0  0  0  0  0  0  0  0
   59.9747   34.6843   51.3208 H   0  0  0  0  0  0  0  0  0  0  0  0
   58.1110   34.7904   52.9831 H   0  0  0  0  0  0  0  0  0  0  0  0
  1  2  1  0
  2  3  1  0
  3  4  2  0
  3  5  1  0
  5  6  2  0
  6  7  1  0
  7  8  1  0
  8  9  1  0
  9 10  2  0
 10 11  1  0
 11 12  2  0
 12 13  1  0
 13 14  1  0
 14 15  2  0
 14 16  1  0
 16 17  1  0
 17 18  2  0
 18 19  1  0
 18 20  1  0
 20 21  2  0
 21 22  1  0
 22 23  2  0
 23 24  1  0
 12 25  1  0
 25 26  2  0
  7 27  2  0
 27 28  1  0
 28 29  2  0
 29  5  1  0
 26  9  1  0
 23 17  1  0
  1 30  1  0
  1 31  1  0
  1 32  1  0
  2 33  1  0
  6 34  1  0
 10 35  1  0
 11 36  1  0
 19 37  1  0
 19 38  1  0
 19 39  1  0
 20 40  1  0
 21 41  1  0
 22 42  1  0
 24 43  1  0
 24 44  1  0
 24 45  1  0
 25 46  1  0
 26 47  1  0
 27 48  1  0
 28 49  1  0
M  CHG  2  13  -1  16  -1
M  END
>  <UniqueID>  (39) 
36

>  <SMILES>  (39) 
CNC(=O)c1cc(Sc2ccc([N-]C(=O)[N-]c3c(C)cccc3C)cc2)ccn1

>  <Energy>  (39) 
54.42306905463858

>  <Genealogy>  (39) 
CNC(=O)c1cc(Sc2ccc([N-]C(=O)[N-]c3c(C)cccc3C)cc2)ccn1 (protonated)
CNC(=O)c1cc(Sc2ccc([N-]C(=O)[N-]c3c(C)cccc3C)cc2)ccn1 (3D coordinates assigned)
CNC(=O)c1cc(Sc2ccc([N-]C(=O)[N-]c3c(C)cccc3C)cc2)ccn1 (optimized conformer: 54.42306905463858 kcal/mol)

>  <smiles>  (39) 
CNC(=O)c1cc(Sc2ccc(NC(=O)Nc3c(C)cccc3C)cc2)ccn1

>  <score_type>  (39) 
oracle

>  <origin>  (39) 
adg

>  <m_score__min__energy>  (39) 
-11.82

>  <m_primary>  (39) 
energy

$$$$
39:0
     RDKit          3D

 47 49  0  0  0  0  0  0  0  0999 V2000
   61.8140   33.8430   46.3850 C   0  0  0  0  0  0  0  0  0  0  0  0
   60.3100   33.7110   46.7090 C   0  0  0  0  0  0  0  0  0  0  0  0
   59.6150   35.0740   46.5630 C   0  0  0  0  0  0  0  0  0  0  0  0
   59.7130   32.8610   45.7530 O   0  0  0  0  0  0  0  0  0  0  0  0
   60.1010   33.1280   48.1120 C   0  0  0  0  0  0  0  0  0  0  0  0
   59.5040   33.8200   49.1590 C   0  0  0  0  0  0  0  0  0  0  0  0
   59.4490   32.9690   50.2350 C   0  0  0  0  0  0  0  0  0  0  0  0
   59.9790   31.7820   49.9100 N   0  0  0  0  0  0  0  0  0  0  0  0
   60.3820   31.8470   48.6210 C   0  0  0  0  0  0  0  0  0  0  0  0
   61.0890   30.6940   47.9170 C   0  0  1  0  0  0  0  0  0  0  0  0
   60.9940   29.3800   48.7110 C   0  0  0  0  0  0  0  0  0  0  0  0
   59.5730   28.8240   48.7230 C   0  0  0  0  0  0  0  0  0  0  0  0
   58.9420   28.8650   47.3600 C   0  0  0  0  0  0  0  0  0  0  0  0
   57.7850   28.1030   47.1290 C   0  0  0  0  0  0  0  0  0  0  0  0
   57.1170   28.1700   45.8960 C   0  0  0  0  0  0  0  0  0  0  0  0
   55.9350   27.4060   45.6200 N   0  0  0  0  0  0  0  0  0  0  0  0
   55.7460   25.7000   45.8720 S   0  0  0  0  0  0  0  0  0  0  0  0
   56.7070   24.7940   44.6770 C   0  0  0  0  0  0  0  0  0  0  0  0
   56.2440   25.3570   47.2470 O   0  0  0  0  0  0  0  0  0  0  0  0
   54.2950   25.3220   45.7760 O   0  0  0  0  0  0  0  0  0  0  0  0
   57.6120   29.0130   44.8970 C   0  0  0  0  0  0  0  0  0  0  0  0
   58.7520   29.7860   45.1210 C   0  0  0  0  0  0  0  0  0  0  0  0
   59.4190   29.7410   46.3560 C   0  0  0  0  0  0  0  0  0  0  0  0
   60.6320   30.5160   46.5210 N   0  0  0  0  0  0  0  0  0  0  0  0
   62.3879   33.8934   47.3221 H   0  0  0  0  0  0  0  0  0  0  0  0
   62.1413   32.9701   45.8011 H   0  0  0  0  0  0  0  0  0  0  0  0
   61.9842   34.7595   45.8011 H   0  0  0  0  0  0  0  0  0  0  0  0
   59.4044   35.4869   47.5606 H   0  0  0  0  0  0  0  0  0  0  0  0
   60.2717   35.7633   46.0120 H   0  0  0  0  0  0  0  0  0  0  0  0
   58.6714   34.9473   46.0120 H   0  0  0  0  0  0  0  0  0  0  0  0
   59.5280   33.3870   44.9300 H   0  0  0  0  0  0  0  0  0  0  0  0
   59.1421   34.8584   49.1308 H   0  0  0  0  0  0  0  0  0  0  0  0
   59.0310   33.2243   51.2199 H   0  0  0  0  0  0  0  0  0  0  0  0
   60.0550   30.9720   50.5610 H   0  0  0  0  0  0  0  0  0  0  0  0
   62.1523   30.9723   47.8731 H   0  0  0  0  0  0  0  0  0  0  0  0
   61.6626   28.6374   48.2510 H   0  0  0  0  0  0  0  0  0  0  0  0
   61.2876   29.5878   49.7505 H   0  0  0  0  0  0  0  0  0  0  0  0
   59.6027   27.7804   49.0695 H   0  0  0  0  0  0  0  0  0  0  0  0
   58.9687   29.4494   49.3966 H   0  0  0  0  0  0  0  0  0  0  0  0
   57.3981   27.4468   47.9226 H   0  0  0  0  0  0  0  0  0  0  0  0
   57.4111   24.1302   45.2000 H   0  0  0  0  0  0  0  0  0  0  0  0
   56.0356   24.1926   44.0465 H   0  0  0  0  0  0  0  0  0  0  0  0
   57.2678   25.4997   44.0465 H   0  0  0  0  0  0  0  0  0  0  0  0
   57.0985   29.0676   43.9258 H   0  0  0  0  0  0  0  0  0  0  0  0
   59.1325   30.4381   44.3210 H   0  0  0  0  0  0  0  0  0  0  0  0
   61.3860   30.0210   45.9880 H   0  0  0  0  0  0  0  0  0  0  0  0
   60.5090   31.4570   46.0790 H   0  0  0  0  0  0  0  0  0  0  0  0
  1  2  1  0
  2  3  1  0
  2  4  1  0
  2  5  1  0
  5  6  1  0
  6  7  2  0
  7  8  1  0
  8  9  1  0
  9 10  1  0
 10 11  1  0
 11 12  1  0
 12 13  1  0
 13 14  2  0
 14 15  1  0
 15 16  1  0
 16 17  1  0
 17 18  1  0
 17 19  2  0
 17 20  2  0
 15 21  2  0
 21 22  1  0
 22 23  2  0
 23 24  1  0
  9  5  2  0
 24 10  1  0
 23 13  1  0
  1 25  1  0
  1 26  1  0
  1 27  1  0
  3 28  1  0
  3 29  1  0
  3 30  1  0
  4 31  1  0
  6 32  1  0
  7 33  1  0
  8 34  1  0
 10 35  1  6
 11 36  1  0
 11 37  1  0
 12 38  1  0
 12 39  1  0
 14 40  1  0
 18 41  1  0
 18 42  1  0
 18 43  1  0
 21 44  1  0
 22 45  1  0
 24 46  1  0
 24 47  1  0
M  CHG  2  16  -1  24   1
M  END
>  <UniqueID>  (40) 
37

>  <SMILES>  (40) 
CC(C)(O)c1cc[nH]c1[C@H]1CCc2cc([N-]S(C)(=O)=O)ccc2[NH2+]1

>  <Energy>  (40) 
80.42157844611964

>  <Genealogy>  (40) 
CC(C)(O)c1cc[nH]c1C1CCc2cc([N-]S(C)(=O)=O)ccc2[NH2+]1 (protonated)
CC(C)(O)c1cc[nH]c1[C@H]1CCc2cc([N-]S(C)(=O)=O)ccc2[NH2+]1 (chirality)
CC(C)(O)c1cc[nH]c1[C@H]1CCc2cc([N-]S(C)(=O)=O)ccc2[NH2+]1 (3D coordinates assigned)
CC(C)(O)c1cc[nH]c1[C@H]1CCc2cc([N-]S(C)(=O)=O)ccc2[NH2+]1 (nonaromatic ring conformer: 80.42157844611964 kcal/mol)

>  <smiles>  (40) 
CC(C)(O)c1cc[nH]c1C1CCc2cc(NS(C)(=O)=O)ccc2N1

>  <score_type>  (40) 
oracle

>  <origin>  (40) 
adg

>  <m_score__min__energy>  (40) 
-8.3100000000000005

>  <m_primary>  (40) 
energy

$$$$
40:0
     RDKit          3D

 46 48  0  0  0  0  0  0  0  0999 V2000
   50.6360   34.3290   51.6600 H   0  0  0  0  0  0  0  0  0  0  0  0
   50.7160   33.3540   52.0240 N   0  0  0  0  0  0  0  0  0  0  0  0
   51.4560   32.3630   51.3140 C   0  0  0  0  0  0  0  0  0  0  0  0
   51.4210   32.3590   50.0530 O   0  0  0  0  0  0  0  0  0  0  0  0
   52.2430   31.3420   52.0460 C   0  0  0  0  0  0  0  0  0  0  0  0
   51.6770   30.6390   53.1210 C   0  0  0  0  0  0  0  0  0  0  0  0
   50.6436   30.8476   53.4349 H   0  0  0  0  0  0  0  0  0  0  0  0
   52.4310   29.6750   53.7890 C   0  0  0  0  0  0  0  0  0  0  0  0
   51.9929   29.1246   54.6347 H   0  0  0  0  0  0  0  0  0  0  0  0
   53.7050   29.4140   53.3980 N   0  0  0  0  0  0  0  0  0  0  0  0
   54.2960   30.0650   52.3620 C   0  0  0  0  0  0  0  0  0  0  0  0
   55.5160   29.7340   52.0370 N   0  0  0  0  0  0  0  0  0  0  0  0
   56.7220   29.8650   52.8610 C   0  0  0  0  0  0  0  0  0  0  0  0
   57.2223   28.8871   52.9191 H   0  0  0  0  0  0  0  0  0  0  0  0
   56.4193   30.2123   53.8599 H   0  0  0  0  0  0  0  0  0  0  0  0
   57.6850   30.8740   52.2830 C   0  0  0  0  0  0  0  0  0  0  0  0
   57.4480   32.2460   52.4610 C   0  0  0  0  0  0  0  0  0  0  0  0
   56.5544   32.5804   53.0084 H   0  0  0  0  0  0  0  0  0  0  0  0
   58.3420   33.1900   51.9460 C   0  0  0  0  0  0  0  0  0  0  0  0
   58.1521   34.2628   52.0979 H   0  0  0  0  0  0  0  0  0  0  0  0
   59.4760   32.7780   51.2390 C   0  0  0  0  0  0  0  0  0  0  0  0
   60.3470   33.7500   50.7290 O   0  0  0  0  0  0  0  0  0  0  0  0
   60.7590   33.8350   49.3900 C   0  0  0  0  0  0  0  0  0  0  0  0
   62.0770   33.5370   49.0010 C   0  0  0  0  0  0  0  0  0  0  0  0
   62.8273   33.2768   49.7622 H   0  0  0  0  0  0  0  0  0  0  0  0
   62.4370   33.5700   47.6530 C   0  0  0  0  0  0  0  0  0  0  0  0
   63.4675   33.3281   47.3536 H   0  0  0  0  0  0  0  0  0  0  0  0
   61.4900   33.9100   46.6830 C   0  0  0  0  0  0  0  0  0  0  0  0
   61.7777   33.9278   45.6214 H   0  0  0  0  0  0  0  0  0  0  0  0
   60.1740   34.2290   47.0540 C   0  0  0  0  0  0  0  0  0  0  0  0
   59.2090   34.5350   46.0320 N   0  0  0  0  0  0  0  0  0  0  0  0
   59.4900   35.2010   45.2770 H   0  0  0  0  0  0  0  0  0  0  0  0
   57.8590   34.0440   46.0190 C   0  0  0  0  0  0  0  0  0  0  0  0
   57.3510   33.5280   47.0500 O   0  0  0  0  0  0  0  0  0  0  0  0
   57.0260   34.2050   44.7900 C   0  0  0  0  0  0  0  0  0  0  0  0
   55.9835   34.4065   45.0774 H   0  0  0  0  0  0  0  0  0  0  0  0
   57.4109   35.0454   44.1937 H   0  0  0  0  0  0  0  0  0  0  0  0
   57.0700   33.2817   44.1937 H   0  0  0  0  0  0  0  0  0  0  0  0
   59.8100   34.1640   48.4130 C   0  0  0  0  0  0  0  0  0  0  0  0
   58.7717   34.3733   48.7100 H   0  0  0  0  0  0  0  0  0  0  0  0
   59.7380   31.4070   51.0960 C   0  0  0  0  0  0  0  0  0  0  0  0
   60.6442   31.0751   50.5682 H   0  0  0  0  0  0  0  0  0  0  0  0
   58.8530   30.4610   51.6210 C   0  0  0  0  0  0  0  0  0  0  0  0
   59.0722   29.3883   51.5153 H   0  0  0  0  0  0  0  0  0  0  0  0
   53.5700   31.0590   51.6720 C   0  0  0  0  0  0  0  0  0  0  0  0
   54.0397   31.6109   50.8445 H   0  0  0  0  0  0  0  0  0  0  0  0
  1  2  1  0
  2  3  1  0
  3  4  2  0
  3  5  1  0
  5  6  1  0
  6  7  1  0
  6  8  2  0
  8  9  1  0
  8 10  1  0
 10 11  1  0
 11 12  2  0
 12 13  1  0
 13 14  1  0
 13 15  1  0
 13 16  1  0
 16 17  2  0
 17 18  1  0
 17 19  1  0
 19 20  1  0
 19 21  2  0
 21 22  1  0
 22 23  1  0
 23 24  2  0
 24 25  1  0
 24 26  1  0
 26 27  1  0
 26 28  2  0
 28 29  1  0
 28 30  1  0
 30 31  1  0
 31 32  1  0
 31 33  1  0
 33 34  2  0
 33 35  1  0
 35 36  1  0
 35 37  1  0
 35 38  1  0
 30 39  2  0
 39 40  1  0
 21 41  1  0
 41 42  1  0
 41 43  2  0
 43 44  1  0
 11 45  1  0
 45 46  1  0
 45  5  2  0
 43 16  1  0
 39 23  1  0
M  CHG  2   2  -1  10  -1
M  END
>  <UniqueID>  (41) 
38

>  <SMILES>  (41) 
CC(=O)Nc1cccc(Oc2ccc(C/N=c3\cc(C([NH-])=O)cc[n-]3)cc2)c1

>  <Energy>  (41) 
59.51699987701849

>  <Genealogy>  (41) 
CC(=O)Nc1cccc(Oc2ccc(CN=c3cc(C([NH-])=O)cc[n-]3)cc2)c1 (protonated)
CC(=O)Nc1cccc(Oc2ccc(C/N=c3\cc(C([NH-])=O)cc[n-]3)cc2)c1 (cis-trans isomerization)
CC(=O)Nc1cccc(Oc2ccc(C/N=c3\cc(C([NH-])=O)cc[n-]3)cc2)c1 (3D coordinates assigned)
CC(=O)Nc1cccc(Oc2ccc(C/N=c3\cc(C([NH-])=O)cc[n-]3)cc2)c1 (optimized conformer: 59.51699987701849 kcal/mol)

>  <smiles>  (41) 
CC(=O)Nc1cccc(Oc2ccc(CN=c3cc(C(N)=O)cc[nH]3)cc2)c1

>  <score_type>  (41) 
oracle

>  <origin>  (41) 
adg

>  <m_score__min__energy>  (41) 
-14.050000000000001

>  <m_primary>  (41) 
energy

$$$$
41:0
     RDKit          3D

 30 31  0  0  0  0  0  0  0  0999 V2000
   55.1810   26.4570   46.0000 N   0  0  0  0  0  0  0  0  0  0  0  0
   56.8900   26.7150   46.0470 S   0  0  0  0  0  0  0  0  0  0  0  0
   57.5640   25.7760   45.0870 O   0  0  0  0  0  0  0  0  0  0  0  0
   57.3810   26.4390   47.4410 O   0  0  0  0  0  0  0  0  0  0  0  0
   57.2580   28.3770   45.5980 C   0  0  0  0  0  0  0  0  0  0  0  0
   56.7570   28.9080   44.4030 C   0  0  0  0  0  0  0  0  0  0  0  0
   57.0560   30.2240   44.0390 C   0  0  0  0  0  0  0  0  0  0  0  0
   57.8620   31.0230   44.8590 C   0  0  0  0  0  0  0  0  0  0  0  0
   58.1490   32.3640   44.4420 N   0  0  0  0  0  0  0  0  0  0  0  0
   58.0280   33.7710   45.4490 S   0  0  0  0  0  0  0  0  0  0  0  0
   56.6720   33.7960   46.0960 O   0  0  0  0  0  0  0  0  0  0  0  0
   58.1890   34.9990   44.5990 O   0  0  0  0  0  0  0  0  0  0  0  0
   59.2980   33.7520   46.6690 C   0  0  0  0  0  0  0  0  0  0  0  0
   58.9620   33.7860   48.0310 C   0  0  0  0  0  0  0  0  0  0  0  0
   59.9670   33.7810   49.0010 C   0  0  0  0  0  0  0  0  0  0  0  0
   61.3110   33.7390   48.6190 C   0  0  0  0  0  0  0  0  0  0  0  0
   61.6510   33.6990   47.2630 C   0  0  0  0  0  0  0  0  0  0  0  0
   63.3380   33.6440   46.7830 Cl  0  0  0  0  0  0  0  0  0  0  0  0
   60.6460   33.7050   46.2890 C   0  0  0  0  0  0  0  0  0  0  0  0
   58.3660   30.4870   46.0590 C   0  0  0  0  0  0  0  0  0  0  0  0
   58.0680   29.1700   46.4220 C   0  0  0  0  0  0  0  0  0  0  0  0
   54.7570   27.0900   46.7150 H   0  0  0  0  0  0  0  0  0  0  0  0
   56.1264   28.2878   43.7490 H   0  0  0  0  0  0  0  0  0  0  0  0
   56.6549   30.6352   43.1009 H   0  0  0  0  0  0  0  0  0  0  0  0
   57.9054   33.8166   48.3353 H   0  0  0  0  0  0  0  0  0  0  0  0
   59.7003   33.8102   50.0678 H   0  0  0  0  0  0  0  0  0  0  0  0
   62.1008   33.7374   49.3846 H   0  0  0  0  0  0  0  0  0  0  0  0
   60.9148   33.6728   45.2228 H   0  0  0  0  0  0  0  0  0  0  0  0
   58.9966   31.1065   46.7136 H   0  0  0  0  0  0  0  0  0  0  0  0
   58.4708   28.7549   47.3577 H   0  0  0  0  0  0  0  0  0  0  0  0
  1  2  1  0
  2  3  2  0
  2  4  2  0
  2  5  1  0
  5  6  2  0
  6  7  1  0
  7  8  2  0
  8  9  1  0
  9 10  1  0
 10 11  2  0
 10 12  2  0
 10 13  1  0
 13 14  2  0
 14 15  1  0
 15 16  2  0
 16 17  1  0
 17 18  1  0
 17 19  2  0
  8 20  1  0
 20 21  2  0
 21  5  1  0
 19 13  1  0
  1 22  1  0
  6 23  1  0
  7 24  1  0
 14 25  1  0
 15 26  1  0
 16 27  1  0
 19 28  1  0
 20 29  1  0
 21 30  1  0
M  CHG  2   1  -1   9  -1
M  END
>  <UniqueID>  (42) 
39

>  <SMILES>  (42) 
[NH-]S(=O)(=O)c1ccc([N-]S(=O)(=O)c2cccc(Cl)c2)cc1

>  <Energy>  (42) 
33.27048267919114

>  <Genealogy>  (42) 
[NH-]S(=O)(=O)c1ccc([N-]S(=O)(=O)c2cccc(Cl)c2)cc1 (protonated)
[NH-]S(=O)(=O)c1ccc([N-]S(=O)(=O)c2cccc(Cl)c2)cc1 (3D coordinates assigned)
[NH-]S(=O)(=O)c1ccc([N-]S(=O)(=O)c2cccc(Cl)c2)cc1 (optimized conformer: 33.27048267919114 kcal/mol)

>  <smiles>  (42) 
NS(=O)(=O)c1ccc(NS(=O)(=O)c2cccc(Cl)c2)cc1

>  <score_type>  (42) 
oracle

>  <origin>  (42) 
adg

>  <m_score__min__energy>  (42) 
-12.140000000000001

>  <m_primary>  (42) 
energy

$$$$
42:0
     RDKit          3D

 57 61  0  0  0  0  0  0  0  0999 V2000
   55.5380   27.4480   45.1970 H   0  0  0  0  0  0  0  0  0  0  0  0
   55.3500   26.7110   45.9140 N   0  0  0  0  0  0  0  0  0  0  0  0
   56.8100   25.8060   46.1010 S   0  0  0  0  0  0  0  0  0  0  0  0
   56.5630   24.6910   47.0800 O   0  0  0  0  0  0  0  0  0  0  0  0
   57.1990   25.1910   44.7860 O   0  0  0  0  0  0  0  0  0  0  0  0
   58.0980   26.8640   46.7060 C   0  0  0  0  0  0  0  0  0  0  0  0
   58.8610   26.4110   47.7970 C   0  0  0  0  0  0  0  0  0  0  0  0
   58.6441   25.4273   48.2389 H   0  0  0  0  0  0  0  0  0  0  0  0
   59.8890   27.1910   48.3270 C   0  0  0  0  0  0  0  0  0  0  0  0
   60.4772   26.8195   49.1791 H   0  0  0  0  0  0  0  0  0  0  0  0
   60.1710   28.4380   47.7790 C   0  0  0  0  0  0  0  0  0  0  0  0
   60.9858   29.0493   48.1942 H   0  0  0  0  0  0  0  0  0  0  0  0
   59.4210   28.9140   46.7030 C   0  0  0  0  0  0  0  0  0  0  0  0
   59.6521   29.9003   46.2744 H   0  0  0  0  0  0  0  0  0  0  0  0
   58.3730   28.1490   46.1590 C   0  0  0  0  0  0  0  0  0  0  0  0
   57.4730   28.8320   44.7930 S   0  0  0  0  0  0  0  0  0  0  0  0
   56.0830   29.1990   45.2300 O   0  0  0  0  0  0  0  0  0  0  0  0
   57.3760   27.8160   43.6880 O   0  0  0  0  0  0  0  0  0  0  0  0
   58.2850   30.2600   44.2320 N   0  0  0  0  0  0  0  0  0  0  0  0
   58.8110   30.1820   43.3330 H   0  0  0  0  0  0  0  0  0  0  0  0
   58.1690   31.5460   44.8640 C   0  0  0  0  0  0  0  0  0  0  0  0
   57.4080   32.5460   44.2430 C   0  0  0  0  0  0  0  0  0  0  0  0
   56.9149   32.3388   43.2818 H   0  0  0  0  0  0  0  0  0  0  0  0
   57.2710   33.8030   44.8350 C   0  0  0  0  0  0  0  0  0  0  0  0
   56.6652   34.5780   44.3426 H   0  0  0  0  0  0  0  0  0  0  0  0
   57.9000   34.0790   46.0490 C   0  0  0  0  0  0  0  0  0  0  0  0
   57.7793   35.0683   46.5146 H   0  0  0  0  0  0  0  0  0  0  0  0
   58.6870   33.1010   46.6810 C   0  0  0  0  0  0  0  0  0  0  0  0
   59.3630   33.3840   47.9700 C   0  0  0  0  0  0  0  0  0  0  0  0
   60.3360   34.3480   48.2110 C   0  0  0  0  0  0  0  0  0  0  0  0
   60.7458   35.0319   47.4532 H   0  0  0  0  0  0  0  0  0  0  0  0
   60.7070   34.3230   49.5170 N   0  0  0  0  0  0  0  0  0  0  0  0
   59.9440   33.3430   50.0410 C   0  0  0  0  0  0  0  0  0  0  0  0
   59.9200   32.9340   51.3680 C   0  0  0  0  0  0  0  0  0  0  0  0
   60.5819   33.3901   52.1189 H   0  0  0  0  0  0  0  0  0  0  0  0
   59.0180   31.9160   51.7130 C   0  0  0  0  0  0  0  0  0  0  0  0
   58.9676   31.5529   52.7501 H   0  0  0  0  0  0  0  0  0  0  0  0
   58.1760   31.3590   50.7280 C   0  0  0  0  0  0  0  0  0  0  0  0
   57.3370   30.4210   51.0510 N   0  0  0  0  0  0  0  0  0  0  0  0
   56.8760   30.1740   52.4140 C   0  0  0  0  0  0  0  0  0  0  0  0
   57.3430   29.2553   52.7986 H   0  0  0  0  0  0  0  0  0  0  0  0
   57.1552   31.0225   53.0559 H   0  0  0  0  0  0  0  0  0  0  0  0
   55.3840   30.0150   52.4140 C   0  0  0  0  0  0  0  0  0  0  0  0
   54.7850   28.9640   53.1280 C   0  0  0  0  0  0  0  0  0  0  0  0
   55.4094   28.2699   53.7097 H   0  0  0  0  0  0  0  0  0  0  0  0
   53.3960   28.7980   53.1010 C   0  0  0  0  0  0  0  0  0  0  0  0
   52.9300   27.9784   53.6676 H   0  0  0  0  0  0  0  0  0  0  0  0
   52.6000   29.6710   52.3560 C   0  0  0  0  0  0  0  0  0  0  0  0
   51.5078   29.5410   52.3390 H   0  0  0  0  0  0  0  0  0  0  0  0
   53.1920   30.7100   51.6320 C   0  0  0  0  0  0  0  0  0  0  0  0
   52.5645   31.3955   51.0435 H   0  0  0  0  0  0  0  0  0  0  0  0
   54.5790   30.8800   51.6540 C   0  0  0  0  0  0  0  0  0  0  0  0
   55.0415   31.6929   51.0750 H   0  0  0  0  0  0  0  0  0  0  0  0
   58.2560   31.8160   49.4430 N   0  0  0  0  0  0  0  0  0  0  0  0
   59.1350   32.7700   49.1410 N   0  0  0  0  0  0  0  0  0  0  0  0
   58.8120   31.8340   46.0840 C   0  0  0  0  0  0  0  0  0  0  0  0
   59.4187   31.0590   46.5751 H   0  0  0  0  0  0  0  0  0  0  0  0
  1  2  1  0
  2  3  1  0
  3  4  2  0
  3  5  2  0
  3  6  1  0
  6  7  2  0
  7  8  1  0
  7  9  1  0
  9 10  1  0
  9 11  2  0
 11 12  1  0
 11 13  1  0
 13 14  1  0
 13 15  2  0
 15 16  1  0
 16 17  2  0
 16 18  2  0
 16 19  1  0
 19 20  1  0
 19 21  1  0
 21 22  2  0
 22 23  1  0
 22 24  1  0
 24 25  1  0
 24 26  2  0
 26 27  1  0
 26 28  1  0
 28 29  1  0
 29 30  2  0
 30 31  1  0
 30 32  1  0
 32 33  2  0
 33 34  1  0
 34 35  1  0
 34 36  2  0
 36 37  1  0
 36 38  1  0
 38 39  2  0
 39 40  1  0
 40 41  1  0
 40 42  1  0
 40 43  1  0
 43 44  2  0
 44 45  1  0
 44 46  1  0
 46 47  1  0
 46 48  2  0
 48 49  1  0
 48 50  1  0
 50 51  1  0
 50 52  2  0
 52 53  1  0
 38 54  1  0
 54 55  1  0
 28 56  2  0
 56 57  1  0
 15  6  1  0
 56 21  1  0
 55 29  1  0
 55 33  1  0
 52 43  1  0
M  CHG  2   2  -1  54  -1
M  END
>  <UniqueID>  (43) 
40

>  <SMILES>  (43) 
[NH-]S(=O)(=O)c1ccccc1S(=O)(=O)Nc1cccc(-c2cnc3cc/c(=N/Cc4ccccc4)[n-]n23)c1

>  <Energy>  (43) 
109.44637786371145

>  <Genealogy>  (43) 
[NH-]S(=O)(=O)c1ccccc1S(=O)(=O)Nc1cccc(-c2cnc3ccc(=NCc4ccccc4)[n-]n23)c1 (protonated)
[NH-]S(=O)(=O)c1ccccc1S(=O)(=O)Nc1cccc(-c2cnc3cc/c(=N/Cc4ccccc4)[n-]n23)c1 (cis-trans isomerization)
[NH-]S(=O)(=O)c1ccccc1S(=O)(=O)Nc1cccc(-c2cnc3cc/c(=N/Cc4ccccc4)[n-]n23)c1 (3D coordinates assigned)
[NH-]S(=O)(=O)c1ccccc1S(=O)(=O)Nc1cccc(-c2cnc3cc/c(=N/Cc4ccccc4)[n-]n23)c1 (optimized conformer: 109.44637786371145 kcal/mol)

>  <smiles>  (43) 
NS(=O)(=O)c1ccccc1S(=O)(=O)Nc1cccc(-c2cnc3ccc(=NCc4ccccc4)[nH]n23)c1

>  <score_type>  (43) 
oracle

>  <origin>  (43) 
adg

>  <m_score__min__energy>  (43) 
-15.140000000000001

>  <m_primary>  (43) 
energy

$$$$
43:0
     RDKit          3D

 57 60  0  0  1  0  0  0  0  0999 V2000
   63.2470   31.2960   50.8820 N   0  0  0  0  0  0  0  0  0  0  0  0
   63.9440   32.8010   50.3550 S   0  0  0  0  0  0  0  0  0  0  0  0
   63.7880   33.8630   51.3790 O   0  0  0  0  0  0  0  0  0  0  0  0
   65.4040   32.5070   50.0690 O   0  0  0  0  0  0  0  0  0  0  0  0
   63.2050   33.2070   48.8180 C   0  0  0  0  0  0  0  0  0  0  0  0
   63.9240   33.1380   47.6230 C   0  0  0  0  0  0  0  0  0  0  0  0
   63.2940   33.4680   46.4410 C   0  0  0  0  0  0  0  0  0  0  0  0
   61.9750   33.8690   46.3710 C   0  0  0  0  0  0  0  0  0  0  0  0
   61.2750   33.9330   47.5570 C   0  0  0  0  0  0  0  0  0  0  0  0
   59.9090   34.3310   47.6340 N   0  0  0  0  0  0  0  0  0  0  0  0
   59.0790   33.8150   46.7920 C   0  0  0  0  0  0  0  0  0  0  0  0
   58.7300   32.4800   46.8300 C   0  0  0  0  0  0  0  0  0  0  0  0
   57.8350   32.0190   45.8870 C   0  0  0  0  0  0  0  0  0  0  0  0
   57.4120   30.6980   45.8260 O   0  0  0  0  0  0  0  0  0  0  0  0
   58.3570   29.7200   46.1060 C   0  0  0  0  0  0  0  0  0  0  0  0
   58.7590   28.9230   45.0550 C   0  0  0  0  0  0  0  0  0  0  0  0
   59.6920   27.9240   45.2210 C   0  0  0  0  0  0  0  0  0  0  0  0
   60.2140   27.7440   46.4840 C   0  0  0  0  0  0  0  0  0  0  0  0
   59.8460   28.5120   47.5670 C   0  0  0  0  0  0  0  0  0  0  0  0
   60.3910   28.3180   48.8650 N   0  0  0  0  0  0  0  0  0  0  0  0
   61.1110   29.6730   49.6890 S   0  0  0  0  0  0  0  0  0  0  0  0
   61.8670   30.5620   48.7720 O   0  0  0  0  0  0  0  0  0  0  0  0
   61.9420   29.2110   50.8340 O   0  0  0  0  0  0  0  0  0  0  0  0
   59.7660   30.5900   50.3600 C   0  0  0  0  0  0  0  0  0  0  0  0
   59.8530   31.9640   50.5130 C   0  0  0  0  0  0  0  0  0  0  0  0
   58.8330   32.7110   51.0290 C   0  0  0  0  0  0  0  0  0  0  0  0
   57.6730   32.0410   51.4070 C   0  0  0  0  0  0  0  0  0  0  0  0
   57.5650   30.6540   51.2620 C   0  0  0  0  0  0  0  0  0  0  0  0
   56.3670   30.0980   51.6710 O   0  0  0  0  0  0  0  0  0  0  0  0
   56.0220   29.9160   53.0280 C   0  0  0  0  0  0  0  0  0  0  0  0
   56.8440   30.5590   53.9070 F   0  0  0  0  0  0  0  0  0  0  0  0
   54.7270   30.2560   53.2920 F   0  0  0  0  0  0  0  0  0  0  0  0
   56.1360   28.5500   53.2910 F   0  0  0  0  0  0  0  0  0  0  0  0
   58.6050   29.9140   50.7380 C   0  0  0  0  0  0  0  0  0  0  0  0
   58.9020   29.5050   47.3400 C   0  0  0  0  0  0  0  0  0  0  0  0
   57.3330   32.8800   44.9690 N   0  0  0  0  0  0  0  0  0  0  0  0
   57.6760   34.1830   44.9360 C   0  0  0  0  0  0  0  0  0  0  0  0
   58.5500   34.6240   45.8590 N   0  0  0  0  0  0  0  0  0  0  0  0
   61.8910   33.6060   48.7500 C   0  0  0  0  0  0  0  0  0  0  0  0
   63.5490   30.5920   50.1670 H   0  0  0  0  0  0  0  0  0  0  0  0
   62.2100   31.3920   50.7950 H   0  0  0  0  0  0  0  0  0  0  0  0
   64.9785   32.8248   47.6241 H   0  0  0  0  0  0  0  0  0  0  0  0
   63.8720   33.4086   45.5070 H   0  0  0  0  0  0  0  0  0  0  0  0
   61.5032   34.1262   45.4112 H   0  0  0  0  0  0  0  0  0  0  0  0
   59.1525   31.8048   47.5887 H   0  0  0  0  0  0  0  0  0  0  0  0
   58.3233   29.0895   44.0588 H   0  0  0  0  0  0  0  0  0  0  0  0
   60.0089   27.2932   44.3774 H   0  0  0  0  0  0  0  0  0  0  0  0
   60.9598   26.9495   46.6343 H   0  0  0  0  0  0  0  0  0  0  0  0
   60.3800   27.4100   49.3410 H   0  0  0  0  0  0  0  0  0  0  0  0
   60.7791   32.4728   50.2072 H   0  0  0  0  0  0  0  0  0  0  0  0
   58.9246   33.8014   51.1417 H   0  0  0  0  0  0  0  0  0  0  0  0
   56.8297   32.6100   51.8255 H   0  0  0  0  0  0  0  0  0  0  0  0
   58.5215   28.8234   50.6216 H   0  0  0  0  0  0  0  0  0  0  0  0
   58.5830   30.1386   48.1807 H   0  0  0  0  0  0  0  0  0  0  0  0
   57.2557   34.8628   44.1802 H   0  0  0  0  0  0  0  0  0  0  0  0
   58.8020   35.6540   45.8090 H   0  0  0  0  0  0  0  0  0  0  0  0
   61.3079   33.6673   49.6807 H   0  0  0  0  0  0  0  0  0  0  0  0
  1  2  1  0
  2  3  2  0
  2  4  2  0
  2  5  1  0
  5  6  2  0
  6  7  1  0
  7  8  2  0
  8  9  1  0
  9 10  1  0
 10 11  2  0
 11 12  1  0
 12 13  2  0
 13 14  1  0
 14 15  1  0
 15 16  2  0
 16 17  1  0
 17 18  2  0
 18 19  1  0
 19 20  1  0
 20 21  1  0
 21 22  2  0
 21 23  2  0
 21 24  1  0
 24 25  2  0
 25 26  1  0
 26 27  2  0
 27 28  1  0
 28 29  1  0
 29 30  1  0
 30 31  1  0
 30 32  1  0
 30 33  1  0
 28 34  2  0
 19 35  2  0
 13 36  1  0
 36 37  2  0
 37 38  1  0
  9 39  2  0
 39  5  1  0
 38 11  1  0
 35 15  1  0
 34 24  1  0
  1 40  1  0
  1 41  1  0
  6 42  1  0
  7 43  1  0
  8 44  1  0
 12 45  1  0
 16 46  1  0
 17 47  1  0
 18 48  1  0
 20 49  1  0
 25 50  1  0
 26 51  1  0
 27 52  1  0
 34 53  1  0
 35 54  1  0
 37 55  1  0
 38 56  1  0
 39 57  1  0
M  END
>  <smiles>  (44) 
NS(=O)(=O)c1cccc(N=c2cc(Oc3cccc(NS(=O)(=O)c4cccc(OC(F)(F)F)c4)c3)nc[nH]2)c1

>  <score_type>  (44) 
oracle

>  <origin>  (44) 
adg

>  <m_score__min__energy>  (44) 
-10.5

>  <m_primary>  (44) 
energy

$$$$
44:0
     RDKit          3D

 63 66  0  0  0  0  0  0  0  0999 V2000
   67.8780   32.7120   50.8960 C   0  0  0  0  0  0  0  0  0  0  0  0
   66.7000   32.4980   51.8460 C   0  0  0  0  0  0  0  0  0  0  0  0
   65.9430   33.8050   52.1500 C   0  0  0  0  0  0  0  0  0  0  0  0
   64.5410   33.7370   51.6850 N   0  0  0  0  0  0  0  0  0  0  0  0
   64.2650   33.5280   50.3490 C   0  0  0  0  0  0  0  0  0  0  0  0
   65.2000   33.4130   49.5110 O   0  0  0  0  0  0  0  0  0  0  0  0
   62.9300   33.4210   49.9520 C   0  0  0  0  0  0  0  0  0  0  0  0
   61.9470   33.5270   50.8790 C   0  0  0  0  0  0  0  0  0  0  0  0
   60.7500   33.2560   50.3370 N   0  0  0  0  0  0  0  0  0  0  0  0
   61.0430   32.9890   49.0360 C   0  0  0  0  0  0  0  0  0  0  0  0
   60.0230   32.4900   48.1350 N   0  0  0  0  0  0  0  0  0  0  0  0
   59.5730   31.0940   48.3090 C   0  0  0  0  0  0  0  0  0  0  0  0
   59.1210   30.4950   46.9730 C   0  0  0  0  0  0  0  0  0  0  0  0
   58.2230   31.4120   46.2560 N   0  0  0  0  0  0  0  0  0  0  0  0
   57.7160   31.0240   44.9710 C   0  0  0  0  0  0  0  0  0  0  0  0
   57.0230   29.8100   44.8630 C   0  0  0  0  0  0  0  0  0  0  0  0
   56.4460   29.4280   43.6510 C   0  0  0  0  0  0  0  0  0  0  0  0
   56.5580   30.2530   42.5340 C   0  0  0  0  0  0  0  0  0  0  0  0
   57.2480   31.4770   42.6140 C   0  0  0  0  0  0  0  0  0  0  0  0
   57.3430   32.3410   41.3840 C   0  0  0  0  0  0  0  0  0  0  0  0
   57.8640   31.8580   43.8380 C   0  0  0  0  0  0  0  0  0  0  0  0
   58.6230   33.1670   43.9420 C   0  0  0  0  0  0  0  0  0  0  0  0
   57.9280   32.7400   46.8010 C   0  0  0  0  0  0  0  0  0  0  0  0
   59.2300   33.3920   47.2790 C   0  0  0  0  0  0  0  0  0  0  0  0
   62.3840   33.1020   48.7540 N   0  0  0  0  0  0  0  0  0  0  0  0
   63.1120   32.7540   47.5220 C   0  0  0  0  0  0  0  0  0  0  0  0
   62.9860   33.8690   46.4910 C   0  0  0  0  0  0  0  0  0  0  0  0
   62.1960   33.7540   52.1980 N   0  0  0  0  0  0  0  0  0  0  0  0
   61.0900   33.7900   53.1660 C   0  0  0  0  0  0  0  0  0  0  0  0
   63.5090   33.8320   52.6050 C   0  0  0  0  0  0  0  0  0  0  0  0
   63.7730   33.9740   53.8360 O   0  0  0  0  0  0  0  0  0  0  0  0
   68.7948   32.8786   51.4805 H   0  0  0  0  0  0  0  0  0  0  0  0
   68.0040   31.8221   50.2619 H   0  0  0  0  0  0  0  0  0  0  0  0
   67.6830   33.5894   50.2619 H   0  0  0  0  0  0  0  0  0  0  0  0
   66.0009   31.7841   51.3860 H   0  0  0  0  0  0  0  0  0  0  0  0
   67.1016   32.1154   52.7959 H   0  0  0  0  0  0  0  0  0  0  0  0
   65.9518   33.9794   53.2361 H   0  0  0  0  0  0  0  0  0  0  0  0
   66.4445   34.6272   51.6186 H   0  0  0  0  0  0  0  0  0  0  0  0
   60.4041   30.4949   48.7096 H   0  0  0  0  0  0  0  0  0  0  0  0
   58.7214   31.0833   49.0052 H   0  0  0  0  0  0  0  0  0  0  0  0
   60.0060   30.2992   46.3498 H   0  0  0  0  0  0  0  0  0  0  0  0
   58.5757   29.5616   47.1764 H   0  0  0  0  0  0  0  0  0  0  0  0
   56.9333   29.1532   45.7408 H   0  0  0  0  0  0  0  0  0  0  0  0
   55.9023   28.4746   43.5776 H   0  0  0  0  0  0  0  0  0  0  0  0
   56.1031   29.9450   41.5810 H   0  0  0  0  0  0  0  0  0  0  0  0
   57.4587   33.3932   41.6831 H   0  0  0  0  0  0  0  0  0  0  0  0
   58.2126   32.0322   40.7853 H   0  0  0  0  0  0  0  0  0  0  0  0
   56.4271   32.2286   40.7853 H   0  0  0  0  0  0  0  0  0  0  0  0
   58.7708   33.4219   45.0018 H   0  0  0  0  0  0  0  0  0  0  0  0
   59.6013   33.0637   43.4498 H   0  0  0  0  0  0  0  0  0  0  0  0
   58.0473   33.9647   43.4498 H   0  0  0  0  0  0  0  0  0  0  0  0
   57.4697   33.3643   46.0198 H   0  0  0  0  0  0  0  0  0  0  0  0
   57.2314   32.6447   47.6470 H   0  0  0  0  0  0  0  0  0  0  0  0
   59.8320   33.6667   46.4003 H   0  0  0  0  0  0  0  0  0  0  0  0
   58.9652   34.2775   47.8755 H   0  0  0  0  0  0  0  0  0  0  0  0
   64.1748   32.6012   47.7611 H   0  0  0  0  0  0  0  0  0  0  0  0
   62.6799   31.8333   47.1030 H   0  0  0  0  0  0  0  0  0  0  0  0
   62.8769   34.8345   47.0066 H   0  0  0  0  0  0  0  0  0  0  0  0
   63.8875   33.8895   45.8611 H   0  0  0  0  0  0  0  0  0  0  0  0
   62.1026   33.6878   45.8611 H   0  0  0  0  0  0  0  0  0  0  0  0
   61.4966   33.7768   54.1880 H   0  0  0  0  0  0  0  0  0  0  0  0
   60.5022   34.7078   53.0171 H   0  0  0  0  0  0  0  0  0  0  0  0
   60.4437   32.9124   53.0171 H   0  0  0  0  0  0  0  0  0  0  0  0
  1  2  1  0
  2  3  1  0
  3  4  1  0
  4  5  1  0
  5  6  2  0
  5  7  1  0
  7  8  2  0
  8  9  1  0
  9 10  2  0
 10 11  1  0
 11 12  1  0
 12 13  1  0
 13 14  1  0
 14 15  1  0
 15 16  2  0
 16 17  1  0
 17 18  2  0
 18 19  1  0
 19 20  1  0
 19 21  2  0
 21 22  1  0
 14 23  1  0
 23 24  1  0
 10 25  1  0
 25 26  1  0
 26 27  1  0
  8 28  1  0
 28 29  1  0
 28 30  1  0
 30 31  2  0
 30  4  1  0
 25  7  1  0
 24 11  1  0
 21 15  1  0
  1 32  1  0
  1 33  1  0
  1 34  1  0
  2 35  1  0
  2 36  1  0
  3 37  1  0
  3 38  1  0
 12 39  1  0
 12 40  1  0
 13 41  1  0
 13 42  1  0
 16 43  1  0
 17 44  1  0
 18 45  1  0
 20 46  1  0
 20 47  1  0
 20 48  1  0
 22 49  1  0
 22 50  1  0
 22 51  1  0
 23 52  1  0
 23 53  1  0
 24 54  1  0
 24 55  1  0
 26 56  1  0
 26 57  1  0
 27 58  1  0
 27 59  1  0
 27 60  1  0
 29 61  1  0
 29 62  1  0
 29 63  1  0
M  END
>  <UniqueID>  (45) 
41

>  <SMILES>  (45) 
CCCn1c(=O)c2c(nc(N3CCN(c4cccc(C)c4C)CC3)n2CC)n(C)c1=O

>  <Energy>  (45) 
118.13513859239492

>  <Genealogy>  (45) 
CCCn1c(=O)c2c(nc(N3CCN(c4cccc(C)c4C)CC3)n2CC)n(C)c1=O (3D coordinates assigned)
CCCn1c(=O)c2c(nc(N3CCN(c4cccc(C)c4C)CC3)n2CC)n(C)c1=O (nonaromatic ring conformer: 118.13513859239492 kcal/mol)

>  <smiles>  (45) 
CCCn1c(=O)c2c(nc(N3CCN(c4cccc(C)c4C)CC3)n2CC)n(C)c1=O

>  <score_type>  (45) 
oracle

>  <origin>  (45) 
adg

>  <m_score__min__energy>  (45) 
-7.6200000000000001

>  <m_primary>  (45) 
energy

$$$$
45:0
     RDKit          3D

 26 27  0  0  0  0  0  0  0  0999 V2000
   54.7370   26.3340   45.7220 O   0  0  0  0  0  0  0  0  0  0  0  0
   55.9460   26.3160   46.0720 C   0  0  0  0  0  0  0  0  0  0  0  0
   56.3450   25.5110   47.1310 O   0  0  0  0  0  0  0  0  0  0  0  0
   56.9600   27.1210   45.3220 C   0  0  0  0  0  0  0  0  0  0  0  0
   56.6220   28.5850   45.3830 C   0  0  0  0  0  0  0  0  0  0  0  0
   55.5410   28.9910   44.8790 O   0  0  0  0  0  0  0  0  0  0  0  0
   57.5160   29.5440   45.9630 N   0  0  0  0  0  0  0  0  0  0  0  0
   57.7820   30.8690   45.4750 C   0  0  0  0  0  0  0  0  0  0  0  0
   57.4830   31.1890   44.1420 C   0  0  0  0  0  0  0  0  0  0  0  0
   57.7610   32.4540   43.6340 C   0  0  0  0  0  0  0  0  0  0  0  0
   58.3580   33.4190   44.4390 C   0  0  0  0  0  0  0  0  0  0  0  0
   58.7000   33.1280   45.7730 C   0  0  0  0  0  0  0  0  0  0  0  0
   59.3200   34.0950   46.5900 C   0  0  0  0  0  0  0  0  0  0  0  0
   59.7070   35.7180   46.0200 Cl  0  0  0  0  0  0  0  0  0  0  0  0
   59.6460   33.7710   47.9060 C   0  0  0  0  0  0  0  0  0  0  0  0
   59.3710   32.5390   48.4010 N   0  0  0  0  0  0  0  0  0  0  0  0
   58.7720   31.5740   47.6510 C   0  0  0  0  0  0  0  0  0  0  0  0
   58.5430   30.4530   48.1810 O   0  0  0  0  0  0  0  0  0  0  0  0
   58.4170   31.8360   46.3030 C   0  0  0  0  0  0  0  0  0  0  0  0
   57.9522   26.9599   45.7688 H   0  0  0  0  0  0  0  0  0  0  0  0
   56.9606   26.8002   44.2698 H   0  0  0  0  0  0  0  0  0  0  0  0
   57.0234   30.4308   43.4910 H   0  0  0  0  0  0  0  0  0  0  0  0
   57.5075   32.6924   42.5905 H   0  0  0  0  0  0  0  0  0  0  0  0
   58.5647   34.4187   44.0291 H   0  0  0  0  0  0  0  0  0  0  0  0
   60.1304   34.5211   48.5483 H   0  0  0  0  0  0  0  0  0  0  0  0
   59.6300   32.3310   49.3930 H   0  0  0  0  0  0  0  0  0  0  0  0
  1  2  2  0
  2  3  1  0
  2  4  1  0
  4  5  1  0
  5  6  2  0
  5  7  1  0
  7  8  1  0
  8  9  2  0
  9 10  1  0
 10 11  2  0
 11 12  1  0
 12 13  1  0
 13 14  1  0
 13 15  2  0
 15 16  1  0
 16 17  1  0
 17 18  2  0
 17 19  1  0
 19  8  1  0
 19 12  2  0
  4 20  1  0
  4 21  1  0
  9 22  1  0
 10 23  1  0
 11 24  1  0
 15 25  1  0
 16 26  1  0
M  CHG  2   3  -1   7  -1
M  END
>  <UniqueID>  (46) 
42

>  <SMILES>  (46) 
O=C([O-])CC(=O)[N-]c1cccc2c(Cl)c[nH]c(=O)c12

>  <Energy>  (46) 
39.21530580095694

>  <Genealogy>  (46) 
O=C([O-])CC(=O)[N-]c1cccc2c(Cl)c[nH]c(=O)c12 (protonated)
O=C([O-])CC(=O)[N-]c1cccc2c(Cl)c[nH]c(=O)c12 (3D coordinates assigned)
O=C([O-])CC(=O)[N-]c1cccc2c(Cl)c[nH]c(=O)c12 (optimized conformer: 39.21530580095694 kcal/mol)

>  <smiles>  (46) 
O=C(O)CC(=O)Nc1cccc2c(Cl)c[nH]c(=O)c12

>  <score_type>  (46) 
oracle

>  <origin>  (46) 
adg

>  <m_score__min__energy>  (46) 
-11.32

>  <m_primary>  (46) 
energy

$$$$
46:0
     RDKit          3D

 47 50  0  0  0  0  0  0  0  0999 V2000
   58.4378   35.8031   47.7046 H   0  0  0  0  0  0  0  0  0  0  0  0
   59.1190   34.9620   47.5080 C   0  0  0  0  0  0  0  0  0  0  0  0
   60.3340   34.9220   48.1070 N   0  0  0  0  0  0  0  0  0  0  0  0
   61.1870   33.8800   47.9330 C   0  0  0  0  0  0  0  0  0  0  0  0
   62.3980   33.8720   48.6330 C   0  0  0  0  0  0  0  0  0  0  0  0
   62.6876   34.7442   49.2375 H   0  0  0  0  0  0  0  0  0  0  0  0
   63.2400   32.7610   48.5670 C   0  0  0  0  0  0  0  0  0  0  0  0
   64.7500   32.7500   49.4610 Cl  0  0  0  0  0  0  0  0  0  0  0  0
   62.8550   31.6410   47.8320 C   0  0  0  0  0  0  0  0  0  0  0  0
   63.5021   30.7517   47.8115 H   0  0  0  0  0  0  0  0  0  0  0  0
   61.6520   31.6410   47.1210 C   0  0  0  0  0  0  0  0  0  0  0  0
   61.3414   30.7360   46.5783 H   0  0  0  0  0  0  0  0  0  0  0  0
   60.8290   32.7910   47.0910 C   0  0  0  0  0  0  0  0  0  0  0  0
   59.6050   32.8840   46.3550 C   0  0  0  0  0  0  0  0  0  0  0  0
   59.2400   32.0810   45.3880 N   0  0  0  0  0  0  0  0  0  0  0  0
   58.5860   30.8060   45.4450 C   0  0  0  0  0  0  0  0  0  0  0  0
   59.2440   29.6830   45.9690 C   0  0  0  0  0  0  0  0  0  0  0  0
   60.2577   29.7855   46.3836 H   0  0  0  0  0  0  0  0  0  0  0  0
   58.6160   28.4350   45.9660 C   0  0  0  0  0  0  0  0  0  0  0  0
   59.1350   27.5614   46.3873 H   0  0  0  0  0  0  0  0  0  0  0  0
   57.3270   28.2880   45.4290 C   0  0  0  0  0  0  0  0  0  0  0  0
   56.7110   26.9890   45.4210 N   0  0  0  0  0  0  0  0  0  0  0  0
   56.2770   26.6540   44.5310 H   0  0  0  0  0  0  0  0  0  0  0  0
   56.7460   26.0720   46.5230 C   0  0  0  0  0  0  0  0  0  0  0  0
   57.5340   26.2650   47.4890 O   0  0  0  0  0  0  0  0  0  0  0  0
   55.9460   24.8850   46.4680 N   0  0  0  0  0  0  0  0  0  0  0  0
   56.1560   23.7520   45.6120 C   0  0  0  0  0  0  0  0  0  0  0  0
   55.8490   23.7990   44.2390 C   0  0  0  0  0  0  0  0  0  0  0  0
   55.4193   24.7142   43.8056 H   0  0  0  0  0  0  0  0  0  0  0  0
   56.0870   22.6900   43.4240 C   0  0  0  0  0  0  0  0  0  0  0  0
   55.8356   22.7308   42.3539 H   0  0  0  0  0  0  0  0  0  0  0  0
   56.6430   21.5310   43.9650 C   0  0  0  0  0  0  0  0  0  0  0  0
   56.8204   20.6556   43.3229 H   0  0  0  0  0  0  0  0  0  0  0  0
   56.9750   21.4800   45.3210 C   0  0  0  0  0  0  0  0  0  0  0  0
   57.4220   20.5669   45.7410 H   0  0  0  0  0  0  0  0  0  0  0  0
   56.7400   22.5930   46.1540 C   0  0  0  0  0  0  0  0  0  0  0  0
   57.0660   22.5820   47.5190 O   0  0  0  0  0  0  0  0  0  0  0  0
   56.1130   22.5640   48.5770 C   0  0  0  0  0  0  0  0  0  0  0  0
   56.6380   22.5739   49.5436 H   0  0  0  0  0  0  0  0  0  0  0  0
   55.4655   23.4501   48.5023 H   0  0  0  0  0  0  0  0  0  0  0  0
   55.4994   21.6541   48.5023 H   0  0  0  0  0  0  0  0  0  0  0  0
   56.6980   29.4040   44.8490 C   0  0  0  0  0  0  0  0  0  0  0  0
   55.7044   29.2941   44.3901 H   0  0  0  0  0  0  0  0  0  0  0  0
   57.3280   30.6530   44.8520 C   0  0  0  0  0  0  0  0  0  0  0  0
   56.8326   31.5178   44.3865 H   0  0  0  0  0  0  0  0  0  0  0  0
   58.7310   33.9420   46.6450 C   0  0  0  0  0  0  0  0  0  0  0  0
   57.7313   33.9655   46.1867 H   0  0  0  0  0  0  0  0  0  0  0  0
  1  2  1  0
  2  3  1  0
  3  4  1  0
  4  5  2  0
  5  6  1  0
  5  7  1  0
  7  8  1  0
  7  9  2  0
  9 10  1  0
  9 11  1  0
 11 12  1  0
 11 13  2  0
 13 14  1  0
 14 15  2  0
 15 16  1  0
 16 17  2  0
 17 18  1  0
 17 19  1  0
 19 20  1  0
 19 21  2  0
 21 22  1  0
 22 23  1  0
 22 24  1  0
 24 25  2  0
 24 26  1  0
 26 27  1  0
 27 28  2  0
 28 29  1  0
 28 30  1  0
 30 31  1  0
 30 32  2  0
 32 33  1  0
 32 34  1  0
 34 35  1  0
 34 36  2  0
 36 37  1  0
 37 38  1  0
 38 39  1  0
 38 40  1  0
 38 41  1  0
 21 42  1  0
 42 43  1  0
 42 44  2  0
 44 45  1  0
 14 46  1  0
 46 47  1  0
 46  2  2  0
 13  4  1  0
 44 16  1  0
 36 27  1  0
M  CHG  2   3  -1  26  -1
M  END
>  <UniqueID>  (47) 
43

>  <SMILES>  (47) 
COc1ccccc1[N-]C(=O)Nc1ccc(/N=c2/cc[n-]c3cc(Cl)ccc23)cc1

>  <Energy>  (47) 
81.42385734682368

>  <Genealogy>  (47) 
COc1ccccc1[N-]C(=O)Nc1ccc(N=c2cc[n-]c3cc(Cl)ccc23)cc1 (protonated)
COc1ccccc1[N-]C(=O)Nc1ccc(/N=c2/cc[n-]c3cc(Cl)ccc23)cc1 (cis-trans isomerization)
COc1ccccc1[N-]C(=O)Nc1ccc(/N=c2/cc[n-]c3cc(Cl)ccc23)cc1 (3D coordinates assigned)
COc1ccccc1[N-]C(=O)Nc1ccc(/N=c2/cc[n-]c3cc(Cl)ccc23)cc1 (optimized conformer: 81.42385734682368 kcal/mol)

>  <smiles>  (47) 
COc1ccccc1NC(=O)Nc1ccc(N=c2cc[nH]c3cc(Cl)ccc23)cc1

>  <score_type>  (47) 
oracle

>  <origin>  (47) 
adg

>  <m_score__min__energy>  (47) 
-11.800000000000001

>  <m_primary>  (47) 
energy

$$$$
47:0
     RDKit          3D

 42 44  0  0  0  0  0  0  0  0999 V2000
   57.6660   28.3610   43.5550 O   0  0  0  0  0  0  0  0  0  0  0  0
   57.0340   28.9510   44.4740 C   0  0  0  0  0  0  0  0  0  0  0  0
   56.6780   30.3320   44.3380 N   0  0  0  0  0  0  0  0  0  0  0  0
   57.4190   31.4580   44.8330 C   0  0  0  0  0  0  0  0  0  0  0  0
   57.7660   31.5820   46.1910 C   0  0  0  0  0  0  0  0  0  0  0  0
   58.4690   32.7050   46.6380 C   0  0  0  0  0  0  0  0  0  0  0  0
   58.8210   33.7170   45.7400 C   0  0  0  0  0  0  0  0  0  0  0  0
   59.7800   35.2500   46.3550 Br  0  0  0  0  0  0  0  0  0  0  0  0
   58.4590   33.6110   44.3940 C   0  0  0  0  0  0  0  0  0  0  0  0
   57.7550   32.4900   43.9430 C   0  0  0  0  0  0  0  0  0  0  0  0
   57.4070   32.4010   42.6340 F   0  0  0  0  0  0  0  0  0  0  0  0
   56.5870   28.2260   45.6260 N   0  0  0  0  0  0  0  0  0  0  0  0
   56.9790   26.8730   45.9150 C   0  0  0  0  0  0  0  0  0  0  0  0
   56.0670   25.8160   45.7380 C   0  0  0  0  0  0  0  0  0  0  0  0
   56.4660   24.4950   45.9470 C   0  0  0  0  0  0  0  0  0  0  0  0
   57.7780   24.2110   46.3250 C   0  0  0  0  0  0  0  0  0  0  0  0
   58.6970   25.2490   46.4960 C   0  0  0  0  0  0  0  0  0  0  0  0
   58.3090   26.5830   46.2950 C   0  0  0  0  0  0  0  0  0  0  0  0
   59.2600   27.6380   46.5160 N   0  0  0  0  0  0  0  0  0  0  0  0
   60.3880   27.8210   45.5940 C   0  0  0  0  0  0  0  0  0  0  0  0
   60.5750   29.3110   45.2960 C   0  0  0  0  0  0  0  0  0  0  0  0
   60.6960   30.1700   46.5740 C   0  0  0  0  0  0  0  0  0  0  0  0
   60.3200   29.4250   47.8670 C   0  0  0  0  0  0  0  0  0  0  0  0
   59.0870   28.5370   47.6670 C   0  0  0  0  0  0  0  0  0  0  0  0
   57.4833   30.7929   46.9033 H   0  0  0  0  0  0  0  0  0  0  0  0
   58.7458   32.7924   47.6990 H   0  0  0  0  0  0  0  0  0  0  0  0
   58.7283   34.4107   43.6884 H   0  0  0  0  0  0  0  0  0  0  0  0
   55.8970   28.6910   46.2570 H   0  0  0  0  0  0  0  0  0  0  0  0
   55.0326   26.0324   45.4328 H   0  0  0  0  0  0  0  0  0  0  0  0
   55.7440   23.6760   45.8133 H   0  0  0  0  0  0  0  0  0  0  0  0
   58.0894   23.1688   46.4886 H   0  0  0  0  0  0  0  0  0  0  0  0
   59.7318   25.0195   46.7902 H   0  0  0  0  0  0  0  0  0  0  0  0
   61.3043   27.4223   46.0538 H   0  0  0  0  0  0  0  0  0  0  0  0
   60.1819   27.2851   44.6557 H   0  0  0  0  0  0  0  0  0  0  0  0
   61.4911   29.4374   44.7004 H   0  0  0  0  0  0  0  0  0  0  0  0
   59.6821   29.6530   44.7522 H   0  0  0  0  0  0  0  0  0  0  0  0
   61.7374   30.5131   46.6628 H   0  0  0  0  0  0  0  0  0  0  0  0
   59.9837   31.0014   46.4672 H   0  0  0  0  0  0  0  0  0  0  0  0
   61.1674   28.7953   48.1757 H   0  0  0  0  0  0  0  0  0  0  0  0
   60.0848   30.1723   48.6392 H   0  0  0  0  0  0  0  0  0  0  0  0
   58.9287   27.9336   48.5730 H   0  0  0  0  0  0  0  0  0  0  0  0
   58.2187   29.1846   47.4757 H   0  0  0  0  0  0  0  0  0  0  0  0
  1  2  2  0
  2  3  1  0
  3  4  1  0
  4  5  2  0
  5  6  1  0
  6  7  2  0
  7  8  1  0
  7  9  1  0
  9 10  2  0
 10 11  1  0
  2 12  1  0
 12 13  1  0
 13 14  2  0
 14 15  1  0
 15 16  2  0
 16 17  1  0
 17 18  2  0
 18 19  1  0
 19 20  1  0
 20 21  1  0
 21 22  1  0
 22 23  1  0
 23 24  1  0
 10  4  1  0
 18 13  1  0
 24 19  1  0
  5 25  1  0
  6 26  1  0
  9 27  1  0
 12 28  1  0
 14 29  1  0
 15 30  1  0
 16 31  1  0
 17 32  1  0
 20 33  1  0
 20 34  1  0
 21 35  1  0
 21 36  1  0
 22 37  1  0
 22 38  1  0
 23 39  1  0
 23 40  1  0
 24 41  1  0
 24 42  1  0
M  CHG  1   3  -1
M  END
>  <UniqueID>  (48) 
44

>  <SMILES>  (48) 
O=C([N-]c1ccc(Br)cc1F)Nc1ccccc1N1CCCCC1

>  <Energy>  (48) 
55.710930481180256

>  <Genealogy>  (48) 
O=C([N-]c1ccc(Br)cc1F)Nc1ccccc1N1CCCCC1 (protonated)
O=C([N-]c1ccc(Br)cc1F)Nc1ccccc1N1CCCCC1 (3D coordinates assigned)
O=C([N-]c1ccc(Br)cc1F)Nc1ccccc1N1CCCCC1 (nonaromatic ring conformer: 55.710930481180256 kcal/mol)

>  <smiles>  (48) 
O=C(Nc1ccc(Br)cc1F)Nc1ccccc1N1CCCCC1

>  <score_type>  (48) 
oracle

>  <origin>  (48) 
adg

>  <m_score__min__energy>  (48) 
-9.1999999999999993

>  <m_primary>  (48) 
energy

$$$$
48:0
     RDKit          3D

 63 66  0  0  0  0  0  0  0  0999 V2000
   54.3810   25.4390   45.6820 N   0  0  0  0  0  0  0  0  0  0  0  0
   55.6310   25.3700   46.0020 C   0  0  0  0  0  0  0  0  0  0  0  0
   56.5800   26.1570   45.4540 N   0  0  0  0  0  0  0  0  0  0  0  0
   57.8090   25.8760   45.9690 C   0  0  0  0  0  0  0  0  0  0  0  0
   59.0280   26.6500   45.5650 C   0  0  0  0  0  0  0  0  0  0  0  0
   59.3310   27.7220   46.5660 C   0  0  0  0  0  0  0  0  0  0  0  0
   60.3620   27.6300   47.2860 O   0  0  0  0  0  0  0  0  0  0  0  0
   58.4470   28.8450   46.6870 N   0  0  0  0  0  0  0  0  0  0  0  0
   57.6830   29.4610   45.6390 C   0  0  0  0  0  0  0  0  0  0  0  0
   56.5040   28.8820   45.1310 C   0  0  0  0  0  0  0  0  0  0  0  0
   55.7940   29.5180   44.1090 C   0  0  0  0  0  0  0  0  0  0  0  0
   56.2280   30.7450   43.6090 C   0  0  0  0  0  0  0  0  0  0  0  0
   57.3710   31.3620   44.1420 C   0  0  0  0  0  0  0  0  0  0  0  0
   57.8270   32.6700   43.6240 C   0  0  0  0  0  0  0  0  0  0  0  0
   58.5330   32.7110   42.5810 O   0  0  0  0  0  0  0  0  0  0  0  0
   57.4610   33.9020   44.2570 N   0  0  0  0  0  0  0  0  0  0  0  0
   58.2970   34.5960   45.2330 C   0  0  0  0  0  0  0  0  0  0  0  0
   59.6060   33.8370   45.4530 C   0  0  0  0  0  0  0  0  0  0  0  0
   59.5440   32.9410   46.6630 C   0  0  0  0  0  0  0  0  0  0  0  0
   60.4690   31.8970   46.8180 C   0  0  0  0  0  0  0  0  0  0  0  0
   60.3900   31.0420   47.9210 C   0  0  0  0  0  0  0  0  0  0  0  0
   59.3910   31.2280   48.8870 C   0  0  0  0  0  0  0  0  0  0  0  0
   59.2460   30.1250   50.2510 S   0  0  0  0  0  0  0  0  0  0  0  0
   59.5070   28.7230   49.7790 O   0  0  0  0  0  0  0  0  0  0  0  0
   57.8620   30.1810   50.8360 O   0  0  0  0  0  0  0  0  0  0  0  0
   60.4040   30.5390   51.4690 N   0  0  0  0  0  0  0  0  0  0  0  0
   60.4440   31.8280   52.0890 C   0  0  0  0  0  0  0  0  0  0  0  0
   60.4060   31.9350   53.3450 O   0  0  0  0  0  0  0  0  0  0  0  0
   60.5100   33.0570   51.2380 C   0  0  0  0  0  0  0  0  0  0  0  0
   61.7090   33.0100   50.3310 C   0  0  0  0  0  0  0  0  0  0  0  0
   61.7910   33.8680   49.2210 C   0  0  0  0  0  0  0  0  0  0  0  0
   62.8980   33.8140   48.3680 C   0  0  0  0  0  0  0  0  0  0  0  0
   63.9250   32.8990   48.6120 C   0  0  0  0  0  0  0  0  0  0  0  0
   63.8440   32.0330   49.7060 C   0  0  0  0  0  0  0  0  0  0  0  0
   62.7400   32.0830   50.5610 C   0  0  0  0  0  0  0  0  0  0  0  0
   58.4810   32.2840   48.7480 C   0  0  0  0  0  0  0  0  0  0  0  0
   58.5600   33.1400   47.6450 C   0  0  0  0  0  0  0  0  0  0  0  0
   58.0990   30.7050   45.1480 C   0  0  0  0  0  0  0  0  0  0  0  0
   57.8280   24.8770   46.9430 C   0  0  0  0  0  0  0  0  0  0  0  0
   56.2540   24.3130   47.1460 S   0  0  0  0  0  0  0  0  0  0  0  0
   53.9830   26.2940   45.2300 H   0  0  0  0  0  0  0  0  0  0  0  0
   59.8857   25.9644   45.4996 H   0  0  0  0  0  0  0  0  0  0  0  0
   58.8401   27.1209   44.5888 H   0  0  0  0  0  0  0  0  0  0  0  0
   56.1412   27.9272   45.5395 H   0  0  0  0  0  0  0  0  0  0  0  0
   54.8886   29.0484   43.6972 H   0  0  0  0  0  0  0  0  0  0  0  0
   55.6727   31.2316   42.7936 H   0  0  0  0  0  0  0  0  0  0  0  0
   58.5226   35.6069   44.8626 H   0  0  0  0  0  0  0  0  0  0  0  0
   57.7548   34.6543   46.1883 H   0  0  0  0  0  0  0  0  0  0  0  0
   59.8125   33.2209   44.5654 H   0  0  0  0  0  0  0  0  0  0  0  0
   60.4031   34.5766   45.6191 H   0  0  0  0  0  0  0  0  0  0  0  0
   61.2601   31.7508   46.0678 H   0  0  0  0  0  0  0  0  0  0  0  0
   61.1136   30.2209   48.0314 H   0  0  0  0  0  0  0  0  0  0  0  0
   59.5974   33.1232   50.6275 H   0  0  0  0  0  0  0  0  0  0  0  0
   60.5951   33.9370   51.8925 H   0  0  0  0  0  0  0  0  0  0  0  0
   60.9810   34.5852   49.0222 H   0  0  0  0  0  0  0  0  0  0  0  0
   62.9600   34.4925   47.5044 H   0  0  0  0  0  0  0  0  0  0  0  0
   64.7974   32.8601   47.9431 H   0  0  0  0  0  0  0  0  0  0  0  0
   64.6515   31.3102   49.8944 H   0  0  0  0  0  0  0  0  0  0  0  0
   62.6776   31.3947   51.4168 H   0  0  0  0  0  0  0  0  0  0  0  0
   57.7020   32.4403   49.5087 H   0  0  0  0  0  0  0  0  0  0  0  0
   57.8483   33.9729   47.5461 H   0  0  0  0  0  0  0  0  0  0  0  0
   59.0071   31.1735   45.5552 H   0  0  0  0  0  0  0  0  0  0  0  0
   58.7166   24.5199   47.4842 H   0  0  0  0  0  0  0  0  0  0  0  0
  1  2  2  3
  2  3  1  0
  3  4  1  0
  4  5  1  0
  5  6  1  0
  6  7  2  0
  6  8  1  0
  8  9  1  0
  9 10  2  0
 10 11  1  0
 11 12  2  0
 12 13  1  0
 13 14  1  0
 14 15  2  0
 14 16  1  0
 16 17  1  0
 17 18  1  0
 18 19  1  0
 19 20  2  0
 20 21  1  0
 21 22  2  0
 22 23  1  0
 23 24  2  0
 23 25  2  0
 23 26  1  0
 26 27  1  0
 27 28  2  0
 27 29  1  0
 29 30  1  0
 30 31  2  0
 31 32  1  0
 32 33  2  0
 33 34  1  0
 34 35  2  0
 22 36  1  0
 36 37  2  0
 13 38  2  0
  4 39  2  0
 39 40  1  0
 40  2  1  0
 38  9  1  0
 37 19  1  0
 35 30  1  0
  1 41  1  0
  5 42  1  0
  5 43  1  0
 10 44  1  0
 11 45  1  0
 12 46  1  0
 17 47  1  0
 17 48  1  0
 18 49  1  0
 18 50  1  0
 20 51  1  0
 21 52  1  0
 29 53  1  0
 29 54  1  0
 31 55  1  0
 32 56  1  0
 33 57  1  0
 34 58  1  0
 35 59  1  0
 36 60  1  0
 37 61  1  0
 38 62  1  0
 39 63  1  0
M  CHG  4   3  -1   8  -1  16  -1  26  -1
M  END
>  <UniqueID>  (49) 
45

>  <SMILES>  (49) 
N=c1[n-]c(CC(=O)[N-]c2cccc(C(=O)[N-]CCc3ccc(S(=O)(=O)[N-]C(=O)Cc4ccccc4)cc3)c2)cs1

>  <Energy>  (49) 
102.44509977558303

>  <Genealogy>  (49) 
N=c1[n-]c(CC(=O)[N-]c2cccc(C(=O)[N-]CCc3ccc(S(=O)(=O)[N-]C(=O)Cc4ccccc4)cc3)c2)cs1 (protonated)
N=c1[n-]c(CC(=O)[N-]c2cccc(C(=O)[N-]CCc3ccc(S(=O)(=O)[N-]C(=O)Cc4ccccc4)cc3)c2)cs1 (3D coordinates assigned)
N=c1[n-]c(CC(=O)[N-]c2cccc(C(=O)[N-]CCc3ccc(S(=O)(=O)[N-]C(=O)Cc4ccccc4)cc3)c2)cs1 (optimized conformer: 102.44509977558303 kcal/mol)

>  <smiles>  (49) 
N=c1[nH]c(CC(=O)Nc2cccc(C(=O)NCCc3ccc(S(=O)(=O)NC(=O)Cc4ccccc4)cc3)c2)cs1

>  <score_type>  (49) 
oracle

>  <origin>  (49) 
adg

>  <m_score__min__energy>  (49) 
-16.539999999999999

>  <m_primary>  (49) 
energy

$$$$
49:0
     RDKit          3D

 36 38  0  0  0  0  0  0  0  0999 V2000
   64.0000   33.1210   46.9770 N   0  0  0  0  0  0  0  0  0  0  0  0
   63.0310   33.3190   47.8140 C   0  0  0  0  0  0  0  0  0  0  0  0
   63.3060   33.8520   49.0770 C   0  0  0  0  0  0  0  0  0  0  0  0
   62.2580   34.0770   49.9690 C   0  0  0  0  0  0  0  0  0  0  0  0
   60.9820   33.7700   49.6140 N   0  0  0  0  0  0  0  0  0  0  0  0
   60.6780   33.2330   48.4000 C   0  0  0  0  0  0  0  0  0  0  0  0
   59.2620   32.9470   48.0780 C   0  0  0  0  0  0  0  0  0  0  0  0
   58.4850   32.6250   49.0170 O   0  0  0  0  0  0  0  0  0  0  0  0
   58.7250   33.0160   46.6980 C   0  0  0  0  0  0  0  0  0  0  0  0
   59.0180   34.1100   45.8640 C   0  0  0  0  0  0  0  0  0  0  0  0
   58.5420   34.1450   44.5530 C   0  0  0  0  0  0  0  0  0  0  0  0
   57.7690   33.0930   44.0580 C   0  0  0  0  0  0  0  0  0  0  0  0
   57.4590   31.9990   44.8730 C   0  0  0  0  0  0  0  0  0  0  0  0
   56.6840   30.9260   44.3170 N   0  0  0  0  0  0  0  0  0  0  0  0
   56.3610   29.6850   44.9590 C   0  0  0  0  0  0  0  0  0  0  0  0
   55.1560   29.3760   45.1590 O   0  0  0  0  0  0  0  0  0  0  0  0
   57.4590   28.7500   45.3020 C   0  0  0  0  0  0  0  0  0  0  0  0
   58.7370   29.2110   45.1860 N   0  0  0  0  0  0  0  0  0  0  0  0
   59.8210   28.4440   45.4690 C   0  0  0  0  0  0  0  0  0  0  0  0
   59.6520   27.1310   45.8980 C   0  0  0  0  0  0  0  0  0  0  0  0
   58.3630   26.6210   46.0370 C   0  0  0  0  0  0  0  0  0  0  0  0
   57.2510   27.4180   45.7460 C   0  0  0  0  0  0  0  0  0  0  0  0
   55.6120   26.6910   45.9940 S   0  0  0  0  0  0  0  0  0  0  0  0
   57.9620   31.9520   46.1860 C   0  0  0  0  0  0  0  0  0  0  0  0
   61.7070   33.0130   47.4680 C   0  0  0  0  0  0  0  0  0  0  0  0
   64.7140   32.3690   47.1130 H   0  0  0  0  0  0  0  0  0  0  0  0
   64.3403   34.0918   49.3646 H   0  0  0  0  0  0  0  0  0  0  0  0
   62.4641   34.5037   50.9617 H   0  0  0  0  0  0  0  0  0  0  0  0
   59.6259   34.9427   46.2475 H   0  0  0  0  0  0  0  0  0  0  0  0
   58.7765   35.0042   43.9073 H   0  0  0  0  0  0  0  0  0  0  0  0
   57.4017   33.1245   43.0216 H   0  0  0  0  0  0  0  0  0  0  0  0
   60.8331   28.8606   45.3591 H   0  0  0  0  0  0  0  0  0  0  0  0
   60.5262   26.5030   46.1248 H   0  0  0  0  0  0  0  0  0  0  0  0
   58.2189   25.5851   46.3777 H   0  0  0  0  0  0  0  0  0  0  0  0
   57.7565   31.0751   46.8175 H   0  0  0  0  0  0  0  0  0  0  0  0
   61.4752   32.6035   46.4737 H   0  0  0  0  0  0  0  0  0  0  0  0
  1  2  2  3
  2  3  1  0
  3  4  2  0
  4  5  1  0
  5  6  1  0
  6  7  1  0
  7  8  2  0
  7  9  1  0
  9 10  2  0
 10 11  1  0
 11 12  2  0
 12 13  1  0
 13 14  1  0
 14 15  1  0
 15 16  2  0
 15 17  1  0
 17 18  2  0
 18 19  1  0
 19 20  2  0
 20 21  1  0
 21 22  2  0
 22 23  1  0
 13 24  2  0
  6 25  2  0
 25  2  1  0
 24  9  1  0
 22 17  1  0
  1 26  1  0
  3 27  1  0
  4 28  1  0
 10 29  1  0
 11 30  1  0
 12 31  1  0
 19 32  1  0
 20 33  1  0
 21 34  1  0
 24 35  1  0
 25 36  1  0
M  CHG  3   5  -1  14  -1  23  -1
M  END
>  <UniqueID>  (50) 
46

>  <SMILES>  (50) 
N=c1cc[n-]c(C(=O)c2cccc([N-]C(=O)c3ncccc3[S-])c2)c1

>  <Energy>  (50) 
53.74424350843081

>  <Genealogy>  (50) 
N=c1cc[n-]c(C(=O)c2cccc([N-]C(=O)c3ncccc3[S-])c2)c1 (protonated)
N=c1cc[n-]c(C(=O)c2cccc([N-]C(=O)c3ncccc3[S-])c2)c1 (3D coordinates assigned)
N=c1cc[n-]c(C(=O)c2cccc([N-]C(=O)c3ncccc3[S-])c2)c1 (optimized conformer: 53.74424350843081 kcal/mol)

>  <smiles>  (50) 
N=c1cc[nH]c(C(=O)c2cccc(NC(=O)c3ncccc3S)c2)c1

>  <score_type>  (50) 
oracle

>  <origin>  (50) 
adg

>  <m_score__min__energy>  (50) 
-12.75

>  <m_primary>  (50) 
energy

$$$$
50:0
     RDKit          3D

 35 37  0  0  0  0  0  0  0  0999 V2000
   54.7390   26.3060   45.9970 N   0  0  0  0  0  0  0  0  0  0  0  0
   56.0970   25.2410   46.0760 S   0  0  0  0  0  0  0  0  0  0  0  0
   55.9160   24.2860   47.2220 O   0  0  0  0  0  0  0  0  0  0  0  0
   56.1940   24.4530   44.8000 O   0  0  0  0  0  0  0  0  0  0  0  0
   57.5680   26.1820   46.3060 C   0  0  0  0  0  0  0  0  0  0  0  0
   58.8130   25.5430   46.3650 C   0  0  0  0  0  0  0  0  0  0  0  0
   59.9770   26.2920   46.5600 C   0  0  0  0  0  0  0  0  0  0  0  0
   59.9020   27.6800   46.7020 C   0  0  0  0  0  0  0  0  0  0  0  0
   58.6640   28.3320   46.6530 C   0  0  0  0  0  0  0  0  0  0  0  0
   58.6330   29.7570   46.8080 N   0  0  0  0  0  0  0  0  0  0  0  0
   58.4360   30.9000   45.5180 S   0  0  0  0  0  0  0  0  0  0  0  0
   59.1300   30.3850   44.2890 O   0  0  0  0  0  0  0  0  0  0  0  0
   56.9710   31.0890   45.2440 O   0  0  0  0  0  0  0  0  0  0  0  0
   59.1420   32.4560   45.9660 C   0  0  0  0  0  0  0  0  0  0  0  0
   58.4410   33.6450   45.7060 C   0  0  0  0  0  0  0  0  0  0  0  0
   58.9900   34.8820   46.0560 C   0  0  0  0  0  0  0  0  0  0  0  0
   60.2430   34.9500   46.6690 C   0  0  0  0  0  0  0  0  0  0  0  0
   60.9560   33.7750   46.9360 C   0  0  0  0  0  0  0  0  0  0  0  0
   62.2150   33.8180   47.5500 C   0  0  0  0  0  0  0  0  0  0  0  0
   62.9050   32.6310   47.8050 C   0  0  0  0  0  0  0  0  0  0  0  0
   62.3290   31.4120   47.4440 C   0  0  0  0  0  0  0  0  0  0  0  0
   61.1070   31.3820   46.8490 N   0  0  0  0  0  0  0  0  0  0  0  0
   60.4050   32.5200   46.5850 C   0  0  0  0  0  0  0  0  0  0  0  0
   57.4940   27.5750   46.4560 C   0  0  0  0  0  0  0  0  0  0  0  0
   55.1110   27.2810   46.0460 H   0  0  0  0  0  0  0  0  0  0  0  0
   58.8749   24.4500   46.2577 H   0  0  0  0  0  0  0  0  0  0  0  0
   60.9538   25.7878   46.6017 H   0  0  0  0  0  0  0  0  0  0  0  0
   60.8216   28.2643   46.8533 H   0  0  0  0  0  0  0  0  0  0  0  0
   57.4533   33.6025   45.2237 H   0  0  0  0  0  0  0  0  0  0  0  0
   58.4321   35.8068   45.8475 H   0  0  0  0  0  0  0  0  0  0  0  0
   60.6696   35.9265   46.9420 H   0  0  0  0  0  0  0  0  0  0  0  0
   62.6587   34.7847   47.8305 H   0  0  0  0  0  0  0  0  0  0  0  0
   63.8938   32.6565   48.2862 H   0  0  0  0  0  0  0  0  0  0  0  0
   62.8656   30.4723   47.6416 H   0  0  0  0  0  0  0  0  0  0  0  0
   56.5165   28.0781   46.4194 H   0  0  0  0  0  0  0  0  0  0  0  0
  1  2  1  0
  2  3  2  0
  2  4  2  0
  2  5  1  0
  5  6  2  0
  6  7  1  0
  7  8  2  0
  8  9  1  0
  9 10  1  0
 10 11  1  0
 11 12  2  0
 11 13  2  0
 11 14  1  0
 14 15  2  0
 15 16  1  0
 16 17  2  0
 17 18  1  0
 18 19  2  0
 19 20  1  0
 20 21  2  0
 21 22  1  0
 22 23  2  0
  9 24  2  0
 24  5  1  0
 23 14  1  0
 23 18  1  0
  1 25  1  0
  6 26  1  0
  7 27  1  0
  8 28  1  0
 15 29  1  0
 16 30  1  0
 17 31  1  0
 19 32  1  0
 20 33  1  0
 21 34  1  0
 24 35  1  0
M  CHG  2   1  -1  10  -1
M  END
>  <UniqueID>  (51) 
47

>  <SMILES>  (51) 
[NH-]S(=O)(=O)c1cccc([N-]S(=O)(=O)c2cccc3cccnc23)c1

>  <Energy>  (51) 
45.75210982516665

>  <Genealogy>  (51) 
[NH-]S(=O)(=O)c1cccc([N-]S(=O)(=O)c2cccc3cccnc23)c1 (protonated)
[NH-]S(=O)(=O)c1cccc([N-]S(=O)(=O)c2cccc3cccnc23)c1 (3D coordinates assigned)
[NH-]S(=O)(=O)c1cccc([N-]S(=O)(=O)c2cccc3cccnc23)c1 (optimized conformer: 45.75210982516665 kcal/mol)

>  <smiles>  (51) 
NS(=O)(=O)c1cccc(NS(=O)(=O)c2cccc3cccnc23)c1

>  <score_type>  (51) 
oracle

>  <origin>  (51) 
adg

>  <m_score__min__energy>  (51) 
-13.369999999999999

>  <m_primary>  (51) 
energy

$$$$
51:0
     RDKit          3D

 59 62  0  0  0  0  0  0  0  0999 V2000
   66.7460   31.7960   51.0170 C   0  0  0  0  0  0  0  0  0  0  0  0
   65.4140   32.0930   51.4340 O   0  0  0  0  0  0  0  0  0  0  0  0
   64.4040   32.5540   50.5750 C   0  0  0  0  0  0  0  0  0  0  0  0
   64.5160   32.2800   49.2080 C   0  0  0  0  0  0  0  0  0  0  0  0
   63.5400   32.7230   48.3100 C   0  0  0  0  0  0  0  0  0  0  0  0
   62.4260   33.4450   48.7670 C   0  0  0  0  0  0  0  0  0  0  0  0
   61.4350   33.9270   47.8370 N   0  0  0  0  0  0  0  0  0  0  0  0
   60.2040   34.5790   48.3070 C   0  0  0  0  0  0  0  0  0  0  0  0
   58.9570   33.9760   47.6170 C   0  0  0  0  0  0  0  0  0  0  0  0
   59.2830   33.2760   46.3510 N   0  0  0  0  0  0  0  0  0  0  0  0
   57.8520   33.0910   45.3610 S   0  0  0  0  0  0  0  0  0  0  0  0
   57.9950   33.9670   44.1460 O   0  0  0  0  0  0  0  0  0  0  0  0
   56.6420   33.5520   46.1270 O   0  0  0  0  0  0  0  0  0  0  0  0
   57.5920   31.4180   44.8480 C   0  0  0  0  0  0  0  0  0  0  0  0
   56.7620   31.1260   43.7590 C   0  0  0  0  0  0  0  0  0  0  0  0
   56.5380   29.7990   43.3870 C   0  0  0  0  0  0  0  0  0  0  0  0
   57.1510   28.7580   44.0890 C   0  0  0  0  0  0  0  0  0  0  0  0
   58.0050   29.0300   45.1740 C   0  0  0  0  0  0  0  0  0  0  0  0
   58.7190   27.9120   45.8520 C   0  0  0  0  0  0  0  0  0  0  0  0
   58.2460   26.7460   45.7930 O   0  0  0  0  0  0  0  0  0  0  0  0
   60.0060   28.0950   46.4580 N   0  0  0  0  0  0  0  0  0  0  0  0
   60.2780   28.0720   47.8670 C   0  0  0  0  0  0  0  0  0  0  0  0
   60.5390   26.8480   48.5100 C   0  0  0  0  0  0  0  0  0  0  0  0
   60.7970   26.8070   49.8800 C   0  0  0  0  0  0  0  0  0  0  0  0
   60.7960   27.9870   50.6270 C   0  0  0  0  0  0  0  0  0  0  0  0
   61.1400   27.9270   52.5040 Br  0  0  0  0  0  0  0  0  0  0  0  0
   60.5410   29.2110   50.0020 C   0  0  0  0  0  0  0  0  0  0  0  0
   60.2810   29.2760   48.6180 C   0  0  0  0  0  0  0  0  0  0  0  0
   59.9800   30.5980   48.0000 C   0  0  0  0  0  0  0  0  0  0  0  0
   60.7780   31.1060   47.1650 O   0  0  0  0  0  0  0  0  0  0  0  0
   58.8290   31.3050   48.3300 O   0  0  0  0  0  0  0  0  0  0  0  0
   58.2010   30.3720   45.5530 C   0  0  0  0  0  0  0  0  0  0  0  0
   60.3600   33.9630   45.6130 C   0  0  0  0  0  0  0  0  0  0  0  0
   61.6780   33.8400   46.3890 C   0  0  0  0  0  0  0  0  0  0  0  0
   62.3180   33.7270   50.1390 C   0  0  0  0  0  0  0  0  0  0  0  0
   63.2930   33.2840   51.0360 C   0  0  0  0  0  0  0  0  0  0  0  0
   67.3841   31.6537   51.9017 H   0  0  0  0  0  0  0  0  0  0  0  0
   66.7449   30.8760   50.4139 H   0  0  0  0  0  0  0  0  0  0  0  0
   67.1358   32.6293   50.4139 H   0  0  0  0  0  0  0  0  0  0  0  0
   65.3803   31.7105   48.8357 H   0  0  0  0  0  0  0  0  0  0  0  0
   63.6458   32.5041   47.2372 H   0  0  0  0  0  0  0  0  0  0  0  0
   60.1159   34.4392   49.3945 H   0  0  0  0  0  0  0  0  0  0  0  0
   60.2581   35.6492   48.0584 H   0  0  0  0  0  0  0  0  0  0  0  0
   58.4875   33.2575   48.3051 H   0  0  0  0  0  0  0  0  0  0  0  0
   58.2801   34.8074   47.3710 H   0  0  0  0  0  0  0  0  0  0  0  0
   59.6050   32.3050   46.5820 H   0  0  0  0  0  0  0  0  0  0  0  0
   56.2861   31.9425   43.1961 H   0  0  0  0  0  0  0  0  0  0  0  0
   55.8764   29.5722   42.5380 H   0  0  0  0  0  0  0  0  0  0  0  0
   56.9643   27.7158   43.7907 H   0  0  0  0  0  0  0  0  0  0  0  0
   60.5396   25.9152   47.9270 H   0  0  0  0  0  0  0  0  0  0  0  0
   61.0014   25.8448   50.3724 H   0  0  0  0  0  0  0  0  0  0  0  0
   60.5432   30.1356   50.5979 H   0  0  0  0  0  0  0  0  0  0  0  0
   58.8425   30.6025   46.4163 H   0  0  0  0  0  0  0  0  0  0  0  0
   60.4753   33.5020   44.6210 H   0  0  0  0  0  0  0  0  0  0  0  0
   60.1024   35.0263   45.4983 H   0  0  0  0  0  0  0  0  0  0  0  0
   62.1446   32.8710   46.1581 H   0  0  0  0  0  0  0  0  0  0  0  0
   62.3439   34.6631   46.0906 H   0  0  0  0  0  0  0  0  0  0  0  0
   61.4572   34.3023   50.5106 H   0  0  0  0  0  0  0  0  0  0  0  0
   63.1916   33.5070   52.1084 H   0  0  0  0  0  0  0  0  0  0  0  0
  1  2  1  0
  2  3  1  0
  3  4  2  0
  4  5  1  0
  5  6  2  0
  6  7  1  0
  7  8  1  0
  8  9  1  0
  9 10  1  0
 10 11  1  0
 11 12  2  0
 11 13  2  0
 11 14  1  0
 14 15  2  0
 15 16  1  0
 16 17  2  0
 17 18  1  0
 18 19  1  0
 19 20  2  0
 19 21  1  0
 21 22  1  0
 22 23  2  0
 23 24  1  0
 24 25  2  0
 25 26  1  0
 25 27  1  0
 27 28  2  0
 28 29  1  0
 29 30  2  0
 29 31  1  0
 18 32  2  0
 10 33  1  0
 33 34  1  0
  6 35  1  0
 35 36  2  0
 36  3  1  0
 34  7  1  0
 32 14  1  0
 28 22  1  0
  1 37  1  0
  1 38  1  0
  1 39  1  0
  4 40  1  0
  5 41  1  0
  8 42  1  0
  8 43  1  0
  9 44  1  0
  9 45  1  0
 10 46  1  0
 15 47  1  0
 16 48  1  0
 17 49  1  0
 23 50  1  0
 24 51  1  0
 27 52  1  0
 32 53  1  0
 33 54  1  0
 33 55  1  0
 34 56  1  0
 34 57  1  0
 35 58  1  0
 36 59  1  0
M  CHG  3  10   1  21  -1  31  -1
M  END
>  <UniqueID>  (52) 
48

>  <SMILES>  (52) 
COc1ccc(N2CC[NH+](S(=O)(=O)c3cccc(C(=O)[N-]c4ccc(Br)cc4C(=O)[O-])c3)CC2)cc1

>  <Energy>  (52) 
82.54528708337828

>  <Genealogy>  (52) 
COc1ccc(N2CC[NH+](S(=O)(=O)c3cccc(C(=O)[N-]c4ccc(Br)cc4C(=O)[O-])c3)CC2)cc1 (protonated)
COc1ccc(N2CC[NH+](S(=O)(=O)c3cccc(C(=O)[N-]c4ccc(Br)cc4C(=O)[O-])c3)CC2)cc1 (3D coordinates assigned)
COc1ccc(N2CC[NH+](S(=O)(=O)c3cccc(C(=O)[N-]c4ccc(Br)cc4C(=O)[O-])c3)CC2)cc1 (nonaromatic ring conformer: 82.54528708337828 kcal/mol)

>  <smiles>  (52) 
COc1ccc(N2CCN(S(=O)(=O)c3cccc(C(=O)Nc4ccc(Br)cc4C(=O)O)c3)CC2)cc1

>  <score_type>  (52) 
oracle

>  <origin>  (52) 
adg

>  <m_score__min__energy>  (52) 
-13.77

>  <m_primary>  (52) 
energy

$$$$
52:0
     RDKit          3D

 66 69  0  0  1  0  0  0  0  0999 V2000
   62.2750   32.0800   47.4550 C   0  0  0  0  0  0  0  0  0  0  0  0
   61.0290   31.5600   47.0710 O   0  0  0  0  0  0  0  0  0  0  0  0
   60.3920   30.5980   47.8540 C   0  0  0  0  0  0  0  0  0  0  0  0
   60.7620   29.2770   47.5640 C   0  0  0  0  0  0  0  0  0  0  0  0
   60.1620   28.2600   48.3130 C   0  0  0  0  0  0  0  0  0  0  0  0
   60.4990   26.8140   48.0420 C   0  0  0  0  0  0  0  0  0  0  0  0
   59.2150   26.0940   48.0440 N   0  0  0  0  0  0  0  0  0  0  0  0
   58.4130   26.0750   47.0370 C   0  0  0  0  0  0  0  0  0  0  0  0
   58.2840   24.8740   46.3710 C   0  0  0  0  0  0  0  0  0  0  0  0
   57.4310   24.8380   45.2890 C   0  0  0  0  0  0  0  0  0  0  0  0
   57.1860   23.6820   44.5110 N   0  0  0  0  0  0  0  0  0  0  0  0
   57.8300   22.4260   44.8390 C   0  0  0  0  0  0  0  0  0  0  0  0
   56.8680   21.3000   44.6910 C   0  0  0  0  0  0  0  0  0  0  0  0
   56.1800   21.3500   43.5080 O   0  0  0  0  0  0  0  0  0  0  0  0
   56.5090   22.3930   42.6670 C   0  0  0  0  0  0  0  0  0  0  0  0
   56.2830   23.7470   43.3620 C   0  0  0  0  0  0  0  0  0  0  0  0
   56.8000   25.9800   44.9790 N   0  0  0  0  0  0  0  0  0  0  0  0
   56.9420   27.1420   45.6450 C   0  0  0  0  0  0  0  0  0  0  0  0
   56.1880   28.2450   45.1530 N   0  0  0  0  0  0  0  0  0  0  0  0
   56.7550   29.5090   44.8510 C   0  0  0  0  0  0  0  0  0  0  0  0
   56.4290   30.1530   43.6650 C   0  0  0  0  0  0  0  0  0  0  0  0
   57.0110   31.3710   43.4450 C   0  0  0  0  0  0  0  0  0  0  0  0
   57.8840   31.9870   44.3140 C   0  0  0  0  0  0  0  0  0  0  0  0
   58.4690   33.2390   44.0610 N   0  0  0  0  0  0  0  0  0  0  0  0
   59.1490   34.2280   45.2980 S   0  0  0  0  0  0  0  0  0  0  0  0
   58.1360   34.1160   46.7440 C   0  0  0  0  0  0  0  0  0  0  0  0
   59.2730   35.6740   44.8410 O   0  0  0  0  0  0  0  0  0  0  0  0
   60.5390   33.7880   45.6230 O   0  0  0  0  0  0  0  0  0  0  0  0
   58.1780   31.3090   45.4790 C   0  0  0  0  0  0  0  0  0  0  0  0
   57.6300   30.0670   45.7810 C   0  0  0  0  0  0  0  0  0  0  0  0
   57.7600   27.1950   46.6930 N   0  0  0  0  0  0  0  0  0  0  0  0
   59.2510   28.5870   49.2860 C   0  0  0  0  0  0  0  0  0  0  0  0
   58.8920   29.9110   49.5630 C   0  0  0  0  0  0  0  0  0  0  0  0
   57.9650   30.0820   50.5670 O   0  0  0  0  0  0  0  0  0  0  0  0
   57.9300   31.2490   51.3210 C   0  0  0  0  0  0  0  0  0  0  0  0
   59.4770   30.9060   48.8330 C   0  0  0  0  0  0  0  0  0  0  0  0
   62.3386   32.1066   48.5528 H   0  0  0  0  0  0  0  0  0  0  0  0
   63.0773   31.4416   47.0565 H   0  0  0  0  0  0  0  0  0  0  0  0
   62.3855   33.0993   47.0565 H   0  0  0  0  0  0  0  0  0  0  0  0
   61.4963   29.0494   46.7772 H   0  0  0  0  0  0  0  0  0  0  0  0
   60.9930   26.7129   47.0644 H   0  0  0  0  0  0  0  0  0  0  0  0
   61.1893   26.4114   48.7979 H   0  0  0  0  0  0  0  0  0  0  0  0
   58.8399   23.9803   46.6908 H   0  0  0  0  0  0  0  0  0  0  0  0
   58.6821   22.2671   44.1618 H   0  0  0  0  0  0  0  0  0  0  0  0
   58.1799   22.4639   45.8812 H   0  0  0  0  0  0  0  0  0  0  0  0
   57.4247   20.3523   44.7355 H   0  0  0  0  0  0  0  0  0  0  0  0
   56.1349   21.3773   45.5075 H   0  0  0  0  0  0  0  0  0  0  0  0
   57.5679   22.3062   42.3819 H   0  0  0  0  0  0  0  0  0  0  0  0
   55.8671   22.3429   41.7751 H   0  0  0  0  0  0  0  0  0  0  0  0
   56.5488   24.5819   42.6970 H   0  0  0  0  0  0  0  0  0  0  0  0
   55.2340   23.9195   43.6444 H   0  0  0  0  0  0  0  0  0  0  0  0
   55.1650   28.0750   45.0200 H   0  0  0  0  0  0  0  0  0  0  0  0
   55.7361   29.7053   42.9374 H   0  0  0  0  0  0  0  0  0  0  0  0
   56.7648   31.8947   42.5095 H   0  0  0  0  0  0  0  0  0  0  0  0
   58.4780   33.5660   43.0560 H   0  0  0  0  0  0  0  0  0  0  0  0
   58.7686   34.1859   47.6412 H   0  0  0  0  0  0  0  0  0  0  0  0
   57.4061   34.9389   46.7450 H   0  0  0  0  0  0  0  0  0  0  0  0
   57.6035   33.1535   46.7450 H   0  0  0  0  0  0  0  0  0  0  0  0
   58.8730   31.7687   46.1971 H   0  0  0  0  0  0  0  0  0  0  0  0
   57.8776   29.5455   46.7173 H   0  0  0  0  0  0  0  0  0  0  0  0
   57.8810   28.0890   47.2160 H   0  0  0  0  0  0  0  0  0  0  0  0
   58.7860   27.7788   49.8695 H   0  0  0  0  0  0  0  0  0  0  0  0
   57.9376   30.9945   52.3911 H   0  0  0  0  0  0  0  0  0  0  0  0
   58.8101   31.8650   51.0843 H   0  0  0  0  0  0  0  0  0  0  0  0
   57.0146   31.8111   51.0843 H   0  0  0  0  0  0  0  0  0  0  0  0
   59.2155   31.9564   49.0287 H   0  0  0  0  0  0  0  0  0  0  0  0
  1  2  1  0
  2  3  1  0
  3  4  2  0
  4  5  1  0
  5  6  1  0
  6  7  1  0
  7  8  2  0
  8  9  1  0
  9 10  2  0
 10 11  1  0
 11 12  1  0
 12 13  1  0
 13 14  1  0
 14 15  1  0
 15 16  1  0
 10 17  1  0
 17 18  2  0
 18 19  1  0
 19 20  1  0
 20 21  2  0
 21 22  1  0
 22 23  2  0
 23 24  1  0
 24 25  1  0
 25 26  1  0
 25 27  2  0
 25 28  2  0
 23 29  1  0
 29 30  2  0
 18 31  1  0
  5 32  2  0
 32 33  1  0
 33 34  1  0
 34 35  1  0
 33 36  2  0
 36  3  1  0
 31  8  1  0
 16 11  1  0
 30 20  1  0
  1 37  1  0
  1 38  1  0
  1 39  1  0
  4 40  1  0
  6 41  1  0
  6 42  1  0
  9 43  1  0
 12 44  1  0
 12 45  1  0
 13 46  1  0
 13 47  1  0
 15 48  1  0
 15 49  1  0
 16 50  1  0
 16 51  1  0
 19 52  1  0
 21 53  1  0
 22 54  1  0
 24 55  1  0
 26 56  1  0
 26 57  1  0
 26 58  1  0
 29 59  1  0
 30 60  1  0
 31 61  1  0
 32 62  1  0
 35 63  1  0
 35 64  1  0
 35 65  1  0
 36 66  1  0
M  END
>  <smiles>  (53) 
COc1cc(CN=c2cc(N3CCOCC3)nc(Nc3ccc(NS(C)(=O)=O)cc3)[nH]2)cc(OC)c1

>  <score_type>  (53) 
oracle

>  <origin>  (53) 
adg

>  <m_score__min__energy>  (53) 
-8.9700000000000006

>  <m_primary>  (53) 
energy

$$$$
53:0
     RDKit          3D

 44 46  0  0  0  0  0  0  0  0999 V2000
   55.3320   29.3480   44.8850 O   0  0  0  0  0  0  0  0  0  0  0  0
   56.5190   29.7700   44.8710 C   0  0  0  0  0  0  0  0  0  0  0  0
   56.8320   31.0300   44.2650 N   0  0  0  0  0  0  0  0  0  0  0  0
   57.4610   32.1520   44.9030 C   0  0  0  0  0  0  0  0  0  0  0  0
   57.7810   33.3300   44.2010 C   0  0  0  0  0  0  0  0  0  0  0  0
   58.4140   34.3900   44.8580 C   0  0  0  0  0  0  0  0  0  0  0  0
   58.7440   34.2800   46.2120 C   0  0  0  0  0  0  0  0  0  0  0  0
   59.3590   35.3080   46.8460 F   0  0  0  0  0  0  0  0  0  0  0  0
   58.4510   33.1040   46.9080 C   0  0  0  0  0  0  0  0  0  0  0  0
   57.8190   32.0410   46.2540 C   0  0  0  0  0  0  0  0  0  0  0  0
   57.5570   29.0420   45.5410 N   0  0  0  0  0  0  0  0  0  0  0  0
   57.4050   27.7060   46.0500 C   0  0  0  0  0  0  0  0  0  0  0  0
   56.3150   26.9290   45.6300 C   0  0  0  0  0  0  0  0  0  0  0  0
   56.1490   25.6240   46.1050 C   0  0  0  0  0  0  0  0  0  0  0  0
   57.0660   25.0860   47.0170 C   0  0  0  0  0  0  0  0  0  0  0  0
   56.9260   23.4160   47.5590 S   0  0  0  0  0  0  0  0  0  0  0  0
   57.8220   22.5590   46.7100 O   0  0  0  0  0  0  0  0  0  0  0  0
   57.3600   23.2900   48.9930 O   0  0  0  0  0  0  0  0  0  0  0  0
   55.2820   22.8660   47.3860 N   0  0  0  0  0  0  0  0  0  0  0  0
   55.2060   21.6450   46.5800 C   0  0  0  0  0  0  0  0  0  0  0  0
   55.7290   21.8790   45.1870 C   0  0  0  0  0  0  0  0  0  0  0  0
   56.5730   20.9370   44.5740 C   0  0  0  0  0  0  0  0  0  0  0  0
   57.0230   21.1420   43.2660 C   0  0  0  0  0  0  0  0  0  0  0  0
   56.6430   22.2890   42.5650 C   0  0  0  0  0  0  0  0  0  0  0  0
   55.8160   23.2370   43.1730 C   0  0  0  0  0  0  0  0  0  0  0  0
   55.3620   23.0370   44.4810 C   0  0  0  0  0  0  0  0  0  0  0  0
   58.1300   25.8730   47.4750 C   0  0  0  0  0  0  0  0  0  0  0  0
   58.2980   27.1760   46.9990 C   0  0  0  0  0  0  0  0  0  0  0  0
   57.5324   33.4167   43.1330 H   0  0  0  0  0  0  0  0  0  0  0  0
   58.6527   35.3123   44.3081 H   0  0  0  0  0  0  0  0  0  0  0  0
   58.7177   33.0141   47.9714 H   0  0  0  0  0  0  0  0  0  0  0  0
   57.6017   31.1128   46.8028 H   0  0  0  0  0  0  0  0  0  0  0  0
   58.4450   29.5520   45.7480 H   0  0  0  0  0  0  0  0  0  0  0  0
   55.5856   27.3492   44.9219 H   0  0  0  0  0  0  0  0  0  0  0  0
   55.2968   25.0191   45.7618 H   0  0  0  0  0  0  0  0  0  0  0  0
   55.8065   20.8592   47.0615 H   0  0  0  0  0  0  0  0  0  0  0  0
   54.1518   21.3389   46.5096 H   0  0  0  0  0  0  0  0  0  0  0  0
   56.8805   20.0358   45.1248 H   0  0  0  0  0  0  0  0  0  0  0  0
   57.6777   20.3984   42.7880 H   0  0  0  0  0  0  0  0  0  0  0  0
   56.9947   22.4458   41.5346 H   0  0  0  0  0  0  0  0  0  0  0  0
   55.5214   24.1424   42.6221 H   0  0  0  0  0  0  0  0  0  0  0  0
   54.7158   23.7885   44.9582 H   0  0  0  0  0  0  0  0  0  0  0  0
   58.8363   25.4638   48.2124 H   0  0  0  0  0  0  0  0  0  0  0  0
   59.1325   27.7902   47.3681 H   0  0  0  0  0  0  0  0  0  0  0  0
  1  2  2  0
  2  3  1  0
  3  4  1  0
  4  5  2  0
  5  6  1  0
  6  7  2  0
  7  8  1  0
  7  9  1  0
  9 10  2  0
  2 11  1  0
 11 12  1  0
 12 13  2  0
 13 14  1  0
 14 15  2  0
 15 16  1  0
 16 17  2  0
 16 18  2  0
 16 19  1  0
 19 20  1  0
 20 21  1  0
 21 22  2  0
 22 23  1  0
 23 24  2  0
 24 25  1  0
 25 26  2  0
 15 27  1  0
 27 28  2  0
 10  4  1  0
 28 12  1  0
 26 21  1  0
  5 29  1  0
  6 30  1  0
  9 31  1  0
 10 32  1  0
 11 33  1  0
 13 34  1  0
 14 35  1  0
 20 36  1  0
 20 37  1  0
 22 38  1  0
 23 39  1  0
 24 40  1  0
 25 41  1  0
 26 42  1  0
 27 43  1  0
 28 44  1  0
M  CHG  2   3  -1  19  -1
M  END
>  <UniqueID>  (54) 
49

>  <SMILES>  (54) 
O=C([N-]c1ccc(F)cc1)Nc1ccc(S(=O)(=O)[N-]Cc2ccccc2)cc1

>  <Energy>  (54) 
48.39533662658596

>  <Genealogy>  (54) 
O=C([N-]c1ccc(F)cc1)Nc1ccc(S(=O)(=O)[N-]Cc2ccccc2)cc1 (protonated)
O=C([N-]c1ccc(F)cc1)Nc1ccc(S(=O)(=O)[N-]Cc2ccccc2)cc1 (3D coordinates assigned)
O=C([N-]c1ccc(F)cc1)Nc1ccc(S(=O)(=O)[N-]Cc2ccccc2)cc1 (optimized conformer: 48.39533662658596 kcal/mol)

>  <smiles>  (54) 
O=C(Nc1ccc(F)cc1)Nc1ccc(S(=O)(=O)NCc2ccccc2)cc1

>  <score_type>  (54) 
oracle

>  <origin>  (54) 
adg

>  <m_score__min__energy>  (54) 
-11.23

>  <m_primary>  (54) 
energy

$$$$
54:0
     RDKit          3D

 50 52  0  0  0  0  0  0  0  0999 V2000
   56.2178   19.5533   45.2527 H   0  0  0  0  0  0  0  0  0  0  0  0
   56.3420   20.5550   45.6900 C   0  0  0  0  0  0  0  0  0  0  0  0
   56.6240   20.6880   47.0520 C   0  0  0  0  0  0  0  0  0  0  0  0
   56.7264   19.7901   47.6791 H   0  0  0  0  0  0  0  0  0  0  0  0
   56.7780   21.9640   47.6270 C   0  0  0  0  0  0  0  0  0  0  0  0
   57.0910   22.1360   48.9850 O   0  0  0  0  0  0  0  0  0  0  0  0
   56.2960   21.6530   50.0630 C   0  0  0  0  0  0  0  0  0  0  0  0
   56.7623   21.9363   51.0181 H   0  0  0  0  0  0  0  0  0  0  0  0
   55.2894   22.0924   50.0018 H   0  0  0  0  0  0  0  0  0  0  0  0
   56.2221   20.5572   50.0018 H   0  0  0  0  0  0  0  0  0  0  0  0
   56.6190   23.1040   46.8170 C   0  0  0  0  0  0  0  0  0  0  0  0
   56.7880   24.4170   47.3640 N   0  0  0  0  0  0  0  0  0  0  0  0
   56.6100   25.5550   46.7500 C   0  0  0  0  0  0  0  0  0  0  0  0
   57.5500   26.5420   46.4420 C   0  0  0  0  0  0  0  0  0  0  0  0
   58.9930   26.6500   46.8560 C   0  0  0  0  0  0  0  0  0  0  0  0
   59.0601   26.6550   47.9539 H   0  0  0  0  0  0  0  0  0  0  0  0
   59.5538   25.7913   46.4583 H   0  0  0  0  0  0  0  0  0  0  0  0
   59.4197   27.5826   46.4583 H   0  0  0  0  0  0  0  0  0  0  0  0
   56.8100   27.4790   45.7180 C   0  0  0  0  0  0  0  0  0  0  0  0
   57.2960   28.7060   45.0580 C   0  0  0  0  0  0  0  0  0  0  0  0
   58.4840   28.7520   44.6380 O   0  0  0  0  0  0  0  0  0  0  0  0
   56.4460   29.8460   44.9230 N   0  0  0  0  0  0  0  0  0  0  0  0
   56.7230   30.9530   44.0180 C   0  0  0  0  0  0  0  0  0  0  0  0
   57.3107   30.5893   43.1622 H   0  0  0  0  0  0  0  0  0  0  0  0
   55.7752   31.3782   43.6563 H   0  0  0  0  0  0  0  0  0  0  0  0
   57.5020   32.0110   44.7480 C   0  0  0  0  0  0  0  0  0  0  0  0
   57.9610   31.7730   46.0530 C   0  0  0  0  0  0  0  0  0  0  0  0
   57.7676   30.8017   46.5316 H   0  0  0  0  0  0  0  0  0  0  0  0
   58.6620   32.7620   46.7480 C   0  0  0  0  0  0  0  0  0  0  0  0
   59.0041   32.5717   47.7760 H   0  0  0  0  0  0  0  0  0  0  0  0
   58.9310   33.9970   46.1390 C   0  0  0  0  0  0  0  0  0  0  0  0
   59.6460   35.0790   46.8930 C   0  0  0  0  0  0  0  0  0  0  0  0
   59.5334   34.9086   47.9739 H   0  0  0  0  0  0  0  0  0  0  0  0
   60.7138   35.0657   46.6290 H   0  0  0  0  0  0  0  0  0  0  0  0
   59.2151   36.0561   46.6290 H   0  0  0  0  0  0  0  0  0  0  0  0
   58.4690   34.2390   44.8360 C   0  0  0  0  0  0  0  0  0  0  0  0
   58.6626   35.2106   44.3580 H   0  0  0  0  0  0  0  0  0  0  0  0
   57.7640   33.2510   44.1430 C   0  0  0  0  0  0  0  0  0  0  0  0
   57.4127   33.4456   43.1189 H   0  0  0  0  0  0  0  0  0  0  0  0
   55.5210   27.0860   45.6510 N   0  0  0  0  0  0  0  0  0  0  0  0
   55.4090   25.9330   46.2870 N   0  0  0  0  0  0  0  0  0  0  0  0
   54.5150   25.3980   46.3730 H   0  0  0  0  0  0  0  0  0  0  0  0
   56.3700   22.9610   45.4470 C   0  0  0  0  0  0  0  0  0  0  0  0
   56.2945   23.8563   44.8123 H   0  0  0  0  0  0  0  0  0  0  0  0
   56.2160   21.6940   44.8750 C   0  0  0  0  0  0  0  0  0  0  0  0
   55.9390   21.6120   43.5010 O   0  0  0  0  0  0  0  0  0  0  0  0
   56.2300   22.6380   42.5590 C   0  0  0  0  0  0  0  0  0  0  0  0
   56.4923   23.5629   43.0936 H   0  0  0  0  0  0  0  0  0  0  0  0
   57.0754   22.3271   41.9276 H   0  0  0  0  0  0  0  0  0  0  0  0
   55.3473   22.8172   41.9276 H   0  0  0  0  0  0  0  0  0  0  0  0
  1  2  1  0
  2  3  2  0
  3  4  1  0
  3  5  1  0
  5  6  1  0
  6  7  1  0
  7  8  1  0
  7  9  1  0
  7 10  1  0
  5 11  2  0
 11 12  1  0
 12 13  2  0
 13 14  1  0
 14 15  1  0
 15 16  1  0
 15 17  1  0
 15 18  1  0
 14 19  2  0
 19 20  1  0
 20 21  2  0
 20 22  1  0
 22 23  1  0
 23 24  1  0
 23 25  1  0
 23 26  1  0
 26 27  2  0
 27 28  1  0
 27 29  1  0
 29 30  1  0
 29 31  2  0
 31 32  1  0
 32 33  1  0
 32 34  1  0
 32 35  1  0
 31 36  1  0
 36 37  1  0
 36 38  2  0
 38 39  1  0
 19 40  1  0
 40 41  1  0
 41 42  1  0
 11 43  1  0
 43 44  1  0
 43 45  2  0
 45 46  1  0
 46 47  1  0
 47 48  1  0
 47 49  1  0
 47 50  1  0
 45  2  1  0
 41 13  1  0
 38 26  1  0
M  CHG  2  22  -1  40  -1
M  END
>  <UniqueID>  (55) 
50

>  <SMILES>  (55) 
COc1ccc(OC)c(/N=c2/[nH][n-]c(C(=O)[N-]Cc3ccc(C)cc3)c2C)c1

>  <Energy>  (55) 
90.01064976364762

>  <Genealogy>  (55) 
COc1ccc(OC)c(N=c2[nH][n-]c(C(=O)[N-]Cc3ccc(C)cc3)c2C)c1 (protonated)
COc1ccc(OC)c(/N=c2/[nH][n-]c(C(=O)[N-]Cc3ccc(C)cc3)c2C)c1 (cis-trans isomerization)
COc1ccc(OC)c(/N=c2/[nH][n-]c(C(=O)[N-]Cc3ccc(C)cc3)c2C)c1 (3D coordinates assigned)
COc1ccc(OC)c(/N=c2/[nH][n-]c(C(=O)[N-]Cc3ccc(C)cc3)c2C)c1 (optimized conformer: 90.01064976364762 kcal/mol)

>  <smiles>  (55) 
COc1ccc(OC)c(N=c2[nH][nH]c(C(=O)NCc3ccc(C)cc3)c2C)c1

>  <score_type>  (55) 
oracle

>  <origin>  (55) 
adg

>  <m_score__min__energy>  (55) 
-12.06

>  <m_primary>  (55) 
energy

$$$$
55:0
     RDKit          3D

 57 59  0  0  0  0  0  0  0  0999 V2000
   60.5630   29.7070   48.0180 C   0  0  0  0  0  0  0  0  0  0  0  0
   60.3380   28.3890   47.2850 C   0  0  0  0  0  0  0  0  0  0  0  0
   59.2440   28.5260   46.2720 C   0  0  0  0  0  0  0  0  0  0  0  0
   58.1940   29.4230   46.3310 C   0  0  0  0  0  0  0  0  0  0  0  0
   57.5020   29.2180   45.1530 C   0  0  0  0  0  0  0  0  0  0  0  0
   56.2900   29.9530   44.7440 C   0  0  0  0  0  0  0  0  0  0  0  0
   55.2650   29.3280   44.3610 O   0  0  0  0  0  0  0  0  0  0  0  0
   56.2710   31.3840   44.8420 N   0  0  0  0  0  0  0  0  0  0  0  0
   57.3700   32.2360   45.1960 C   0  0  0  0  0  0  0  0  0  0  0  0
   58.1570   32.8820   44.2320 C   0  0  0  0  0  0  0  0  0  0  0  0
   59.2260   33.6840   44.6390 C   0  0  0  0  0  0  0  0  0  0  0  0
   59.5280   33.8300   45.9650 N   0  0  0  0  0  0  0  0  0  0  0  0
   60.6430   34.7150   46.3420 C   0  0  0  0  0  0  0  0  0  0  0  0
   61.8590   33.9060   46.6950 C   0  0  0  0  0  0  0  0  0  0  0  0
   62.9190   34.0620   46.0320 O   0  0  0  0  0  0  0  0  0  0  0  0
   61.8180   32.9870   47.7970 N   0  0  0  0  0  0  0  0  0  0  0  0
   62.9700   32.1850   48.2140 C   0  0  0  0  0  0  0  0  0  0  0  0
   63.6850   32.8160   49.3920 C   0  0  0  0  0  0  0  0  0  0  0  0
   65.0910   32.7410   49.4250 C   0  0  0  0  0  0  0  0  0  0  0  0
   65.8140   33.2760   50.4900 C   0  0  0  0  0  0  0  0  0  0  0  0
   65.1490   33.8870   51.5470 C   0  0  0  0  0  0  0  0  0  0  0  0
   63.7560   33.9650   51.5450 C   0  0  0  0  0  0  0  0  0  0  0  0
   63.0010   33.4420   50.4760 C   0  0  0  0  0  0  0  0  0  0  0  0
   61.5220   33.5510   50.5530 C   0  0  0  0  0  0  0  0  0  0  0  0
   60.9180   34.3640   49.8000 O   0  0  0  0  0  0  0  0  0  0  0  0
   60.7880   32.7370   51.4190 O   0  0  0  0  0  0  0  0  0  0  0  0
   59.4110   32.4440   51.2190 C   0  0  0  0  0  0  0  0  0  0  0  0
   58.7720   33.1950   46.9200 C   0  0  0  0  0  0  0  0  0  0  0  0
   59.0310   33.3360   48.1470 O   0  0  0  0  0  0  0  0  0  0  0  0
   57.6970   32.3830   46.5450 C   0  0  0  0  0  0  0  0  0  0  0  0
   58.1350   28.2520   44.4460 N   0  0  0  0  0  0  0  0  0  0  0  0
   57.7750   27.7310   43.1310 C   0  0  0  0  0  0  0  0  0  0  0  0
   59.1980   27.8360   45.1170 N   0  0  0  0  0  0  0  0  0  0  0  0
   60.5332   29.5325   49.1037 H   0  0  0  0  0  0  0  0  0  0  0  0
   61.5444   30.1185   47.7396 H   0  0  0  0  0  0  0  0  0  0  0  0
   59.7737   30.4208   47.7396 H   0  0  0  0  0  0  0  0  0  0  0  0
   61.2676   28.0964   46.7750 H   0  0  0  0  0  0  0  0  0  0  0  0
   60.0468   27.6223   48.0180 H   0  0  0  0  0  0  0  0  0  0  0  0
   57.9620   30.1381   47.1340 H   0  0  0  0  0  0  0  0  0  0  0  0
   57.9341   32.7581   43.1620 H   0  0  0  0  0  0  0  0  0  0  0  0
   59.8326   34.2047   43.8834 H   0  0  0  0  0  0  0  0  0  0  0  0
   60.8814   35.3774   45.4968 H   0  0  0  0  0  0  0  0  0  0  0  0
   60.3449   35.3107   47.2174 H   0  0  0  0  0  0  0  0  0  0  0  0
   60.9010   32.8100   48.2640 H   0  0  0  0  0  0  0  0  0  0  0  0
   62.6225   31.1818   48.5017 H   0  0  0  0  0  0  0  0  0  0  0  0
   63.6749   32.1269   47.3715 H   0  0  0  0  0  0  0  0  0  0  0  0
   65.6268   32.2528   48.5977 H   0  0  0  0  0  0  0  0  0  0  0  0
   66.9123   33.2146   50.4941 H   0  0  0  0  0  0  0  0  0  0  0  0
   65.7217   34.3094   52.3858 H   0  0  0  0  0  0  0  0  0  0  0  0
   63.2391   34.4420   52.3907 H   0  0  0  0  0  0  0  0  0  0  0  0
   58.9133   32.3381   52.1942 H   0  0  0  0  0  0  0  0  0  0  0  0
   58.9403   33.2621   50.6540 H   0  0  0  0  0  0  0  0  0  0  0  0
   59.3142   31.5051   50.6540 H   0  0  0  0  0  0  0  0  0  0  0  0
   57.1089   31.8599   47.3134 H   0  0  0  0  0  0  0  0  0  0  0  0
   57.1534   26.8314   43.2506 H   0  0  0  0  0  0  0  0  0  0  0  0
   57.2112   28.4950   42.5757 H   0  0  0  0  0  0  0  0  0  0  0  0
   58.6891   27.4739   42.5757 H   0  0  0  0  0  0  0  0  0  0  0  0
  1  2  1  0
  2  3  1  0
  3  4  1  0
  4  5  2  0
  5  6  1  0
  6  7  2  0
  6  8  1  0
  8  9  1  0
  9 10  1  0
 10 11  2  0
 11 12  1  0
 12 13  1  0
 13 14  1  0
 14 15  2  0
 14 16  1  0
 16 17  1  0
 17 18  1  0
 18 19  2  0
 19 20  1  0
 20 21  2  0
 21 22  1  0
 22 23  2  0
 23 24  1  0
 24 25  2  0
 24 26  1  0
 26 27  1  0
 12 28  1  0
 28 29  2  0
 28 30  1  0
  5 31  1  0
 31 32  1  0
 31 33  1  0
 33  3  2  0
 30  9  2  0
 23 18  1  0
  1 34  1  0
  1 35  1  0
  1 36  1  0
  2 37  1  0
  2 38  1  0
  4 39  1  0
 10 40  1  0
 11 41  1  0
 13 42  1  0
 13 43  1  0
 16 44  1  0
 17 45  1  0
 17 46  1  0
 19 47  1  0
 20 48  1  0
 21 49  1  0
 22 50  1  0
 27 51  1  0
 27 52  1  0
 27 53  1  0
 30 54  1  0
 32 55  1  0
 32 56  1  0
 32 57  1  0
M  CHG  1   8  -1
M  END
>  <UniqueID>  (56) 
51

>  <SMILES>  (56) 
CCc1cc(C(=O)[N-]c2ccn(CC(=O)NCc3ccccc3C(=O)OC)c(=O)c2)n(C)n1

>  <Energy>  (56) 
90.89570497055132

>  <Genealogy>  (56) 
CCc1cc(C(=O)[N-]c2ccn(CC(=O)NCc3ccccc3C(=O)OC)c(=O)c2)n(C)n1 (protonated)
CCc1cc(C(=O)[N-]c2ccn(CC(=O)NCc3ccccc3C(=O)OC)c(=O)c2)n(C)n1 (3D coordinates assigned)
CCc1cc(C(=O)[N-]c2ccn(CC(=O)NCc3ccccc3C(=O)OC)c(=O)c2)n(C)n1 (optimized conformer: 90.89570497055132 kcal/mol)

>  <smiles>  (56) 
CCc1cc(C(=O)Nc2ccn(CC(=O)NCc3ccccc3C(=O)OC)c(=O)c2)n(C)n1

>  <score_type>  (56) 
oracle

>  <origin>  (56) 
adg

>  <m_score__min__energy>  (56) 
-10.24

>  <m_primary>  (56) 
energy

$$$$
56:0
     RDKit          3D

 46 48  0  0  0  0  0  0  0  0999 V2000
   60.7050   27.5403   48.2290 H   0  0  0  0  0  0  0  0  0  0  0  0
   60.0960   27.6820   47.3240 C   0  0  0  0  0  0  0  0  0  0  0  0
   58.8200   27.1190   47.2460 C   0  0  0  0  0  0  0  0  0  0  0  0
   58.4245   26.5356   48.0905 H   0  0  0  0  0  0  0  0  0  0  0  0
   58.0450   27.2960   46.0960 C   0  0  0  0  0  0  0  0  0  0  0  0
   57.0391   26.8542   46.0413 H   0  0  0  0  0  0  0  0  0  0  0  0
   58.5440   28.0360   45.0080 C   0  0  0  0  0  0  0  0  0  0  0  0
   57.7440   28.2270   43.8250 N   0  0  0  0  0  0  0  0  0  0  0  0
   57.7910   27.2480   42.7380 C   0  0  0  0  0  0  0  0  0  0  0  0
   57.8397   26.2334   43.1602 H   0  0  0  0  0  0  0  0  0  0  0  0
   56.8872   27.3443   42.1184 H   0  0  0  0  0  0  0  0  0  0  0  0
   58.6814   27.4305   42.1184 H   0  0  0  0  0  0  0  0  0  0  0  0
   56.6630   29.5850   43.6960 S   0  0  0  0  0  0  0  0  0  0  0  0
   56.2340   29.7340   42.2630 O   0  0  0  0  0  0  0  0  0  0  0  0
   55.4490   29.3660   44.5550 O   0  0  0  0  0  0  0  0  0  0  0  0
   57.4740   31.0440   44.2560 C   0  0  0  0  0  0  0  0  0  0  0  0
   57.8300   32.0350   43.3340 C   0  0  0  0  0  0  0  0  0  0  0  0
   57.6058   31.8954   42.2662 H   0  0  0  0  0  0  0  0  0  0  0  0
   58.4690   33.2010   43.7640 C   0  0  0  0  0  0  0  0  0  0  0  0
   58.7428   33.9749   43.0318 H   0  0  0  0  0  0  0  0  0  0  0  0
   58.7650   33.3930   45.1260 C   0  0  0  0  0  0  0  0  0  0  0  0
   59.4390   34.6320   45.5840 C   0  0  0  0  0  0  0  0  0  0  0  0
   59.3140   35.6940   44.9140 O   0  0  0  0  0  0  0  0  0  0  0  0
   60.3070   34.5930   46.7290 N   0  0  0  0  0  0  0  0  0  0  0  0
   61.1970   33.6930   47.0460 C   0  0  0  0  0  0  0  0  0  0  0  0
   62.5000   33.8520   46.5550 C   0  0  0  0  0  0  0  0  0  0  0  0
   62.7478   34.7123   45.9159 H   0  0  0  0  0  0  0  0  0  0  0  0
   63.4800   32.9170   46.8790 C   0  0  0  0  0  0  0  0  0  0  0  0
   64.5074   33.0449   46.5073 H   0  0  0  0  0  0  0  0  0  0  0  0
   63.1580   31.8200   47.6740 C   0  0  0  0  0  0  0  0  0  0  0  0
   63.9319   31.0884   47.9495 H   0  0  0  0  0  0  0  0  0  0  0  0
   61.8400   31.6560   48.1200 C   0  0  0  0  0  0  0  0  0  0  0  0
   61.4820   30.4840   48.9860 C   0  0  0  0  0  0  0  0  0  0  0  0
   61.5694   30.7700   50.0446 H   0  0  0  0  0  0  0  0  0  0  0  0
   60.4481   30.1738   48.7741 H   0  0  0  0  0  0  0  0  0  0  0  0
   62.1661   29.6490   48.7741 H   0  0  0  0  0  0  0  0  0  0  0  0
   60.8940   32.5930   47.8060 N   0  0  0  0  0  0  0  0  0  0  0  0
   59.9200   32.4160   48.1310 H   0  0  0  0  0  0  0  0  0  0  0  0
   58.4060   32.3910   46.0470 C   0  0  0  0  0  0  0  0  0  0  0  0
   58.6304   32.5259   47.1154 H   0  0  0  0  0  0  0  0  0  0  0  0
   57.7660   31.2250   45.6140 C   0  0  0  0  0  0  0  0  0  0  0  0
   57.4911   30.4477   46.3422 H   0  0  0  0  0  0  0  0  0  0  0  0
   59.8270   28.6040   45.1010 C   0  0  0  0  0  0  0  0  0  0  0  0
   60.2259   29.1930   44.2620 H   0  0  0  0  0  0  0  0  0  0  0  0
   60.5990   28.4250   46.2530 C   0  0  0  0  0  0  0  0  0  0  0  0
   61.6032   28.8695   46.3161 H   0  0  0  0  0  0  0  0  0  0  0  0
  1  2  1  0
  2  3  2  0
  3  4  1  0
  3  5  1  0
  5  6  1  0
  5  7  2  0
  7  8  1  0
  8  9  1  0
  9 10  1  0
  9 11  1  0
  9 12  1  0
  8 13  1  0
 13 14  2  0
 13 15  2  0
 13 16  1  0
 16 17  2  0
 17 18  1  0
 17 19  1  0
 19 20  1  0
 19 21  2  0
 21 22  1  0
 22 23  2  0
 22 24  1  0
 24 25  2  0
 25 26  1  0
 26 27  1  0
 26 28  2  0
 28 29  1  0
 28 30  1  0
 30 31  1  0
 30 32  2  0
 32 33  1  0
 33 34  1  0
 33 35  1  0
 33 36  1  0
 32 37  1  0
 37 38  1  0
 21 39  1  0
 39 40  1  0
 39 41  2  0
 41 42  1  0
  7 43  1  0
 43 44  1  0
 43 45  2  0
 45 46  1  0
 45  2  1  0
 41 16  1  0
 37 25  1  0
M  END
>  <UniqueID>  (57) 
52

>  <SMILES>  (57) 
Cc1ccc/c(=N/C(=O)c2ccc(S(=O)(=O)N(C)c3ccccc3)cc2)[nH]1

>  <Energy>  (57) 
60.768748965133945

>  <Genealogy>  (57) 
Cc1ccc/c(=N/C(=O)c2ccc(S(=O)(=O)N(C)c3ccccc3)cc2)[nH]1 (cis-trans isomerization)
Cc1ccc/c(=N/C(=O)c2ccc(S(=O)(=O)N(C)c3ccccc3)cc2)[nH]1 (3D coordinates assigned)
Cc1ccc/c(=N/C(=O)c2ccc(S(=O)(=O)N(C)c3ccccc3)cc2)[nH]1 (optimized conformer: 60.768748965133945 kcal/mol)

>  <smiles>  (57) 
Cc1cccc(=NC(=O)c2ccc(S(=O)(=O)N(C)c3ccccc3)cc2)[nH]1

>  <score_type>  (57) 
oracle

>  <origin>  (57) 
adg

>  <m_score__min__energy>  (57) 
-9.4700000000000006

>  <m_primary>  (57) 
energy

$$$$
57:0
     RDKit          3D

 40 42  0  0  0  0  0  0  0  0999 V2000
   53.7140   22.9560   46.8250 C   0  0  0  0  0  0  0  0  0  0  0  0
   54.3290   24.0620   46.1710 O   0  0  0  0  0  0  0  0  0  0  0  0
   55.6620   24.4450   46.3030 N   0  0  0  0  0  0  0  0  0  0  0  0
   55.9200   25.7840   46.2200 C   0  0  0  0  0  0  0  0  0  0  0  0
   54.8670   26.6700   46.0030 O   0  0  0  0  0  0  0  0  0  0  0  0
   57.2320   26.2730   46.3320 C   0  0  0  0  0  0  0  0  0  0  0  0
   57.5100   27.7270   46.2290 C   0  0  0  0  0  0  0  0  0  0  0  0
   56.9370   28.4010   45.3320 O   0  0  0  0  0  0  0  0  0  0  0  0
   58.3740   28.4050   47.1510 N   0  0  0  0  0  0  0  0  0  0  0  0
   59.0250   29.6650   46.9360 C   0  0  0  0  0  0  0  0  0  0  0  0
   60.3960   29.7670   47.1770 C   0  0  0  0  0  0  0  0  0  0  0  0
   61.0610   30.9800   46.9920 C   0  0  0  0  0  0  0  0  0  0  0  0
   60.3610   32.1260   46.5770 C   0  0  0  0  0  0  0  0  0  0  0  0
   58.9710   32.0290   46.3300 C   0  0  0  0  0  0  0  0  0  0  0  0
   58.3100   30.8070   46.5380 C   0  0  0  0  0  0  0  0  0  0  0  0
   58.1800   33.2400   45.9140 C   0  0  0  0  0  0  0  0  0  0  0  0
   58.2650   34.3510   46.9710 C   0  0  0  0  0  0  0  0  0  0  0  0
   59.4220   35.2490   46.8010 N   0  0  0  0  0  0  0  0  0  0  0  0
   60.6960   34.6390   47.2150 C   0  0  0  0  0  0  0  0  0  0  0  0
   61.1310   33.4190   46.3570 C   0  0  0  0  0  0  0  0  0  0  0  0
   58.2600   25.3460   46.5510 C   0  0  0  0  0  0  0  0  0  0  0  0
   59.4530   25.7230   46.6980 O   0  0  0  0  0  0  0  0  0  0  0  0
   57.9700   24.0260   46.6230 N   0  0  0  0  0  0  0  0  0  0  0  0
   56.7000   23.5650   46.5010 C   0  0  0  0  0  0  0  0  0  0  0  0
   56.5050   22.3240   46.5750 O   0  0  0  0  0  0  0  0  0  0  0  0
   53.7871   23.0874   47.9147 H   0  0  0  0  0  0  0  0  0  0  0  0
   52.6550   22.8997   46.5327 H   0  0  0  0  0  0  0  0  0  0  0  0
   54.2250   22.0268   46.5327 H   0  0  0  0  0  0  0  0  0  0  0  0
   60.9572   28.8837   47.5157 H   0  0  0  0  0  0  0  0  0  0  0  0
   62.1444   31.0398   47.1729 H   0  0  0  0  0  0  0  0  0  0  0  0
   57.2221   30.7437   46.3878 H   0  0  0  0  0  0  0  0  0  0  0  0
   58.5796   33.6196   44.9620 H   0  0  0  0  0  0  0  0  0  0  0  0
   57.1260   32.9455   45.8033 H   0  0  0  0  0  0  0  0  0  0  0  0
   57.3469   34.9542   46.9143 H   0  0  0  0  0  0  0  0  0  0  0  0
   58.3850   33.8561   47.9460 H   0  0  0  0  0  0  0  0  0  0  0  0
   59.2630   36.1600   47.2930 H   0  0  0  0  0  0  0  0  0  0  0  0
   61.4824   35.4051   47.1476 H   0  0  0  0  0  0  0  0  0  0  0  0
   60.5479   34.2662   48.2392 H   0  0  0  0  0  0  0  0  0  0  0  0
   61.0203   33.6981   45.2988 H   0  0  0  0  0  0  0  0  0  0  0  0
   62.1637   33.1992   46.6657 H   0  0  0  0  0  0  0  0  0  0  0  0
  1  2  1  0
  2  3  1  0
  3  4  1  0
  4  5  1  0
  4  6  2  0
  6  7  1  0
  7  8  2  0
  7  9  1  0
  9 10  1  0
 10 11  2  0
 11 12  1  0
 12 13  2  0
 13 14  1  0
 14 15  2  0
 14 16  1  0
 16 17  1  0
 17 18  1  0
 18 19  1  0
 19 20  1  0
  6 21  1  0
 21 22  2  0
 21 23  1  0
 23 24  1  0
 24 25  2  0
 24  3  1  0
 15 10  1  0
 20 13  1  0
  1 26  1  0
  1 27  1  0
  1 28  1  0
 11 29  1  0
 12 30  1  0
 15 31  1  0
 16 32  1  0
 16 33  1  0
 17 34  1  0
 17 35  1  0
 18 36  1  0
 19 37  1  0
 19 38  1  0
 20 39  1  0
 20 40  1  0
M  CHG  3   5  -1   9  -1  23  -1
M  END
>  <UniqueID>  (58) 
53

>  <SMILES>  (58) 
COn1c([O-])c(C(=O)[N-]c2ccc3c(c2)CCNCC3)c(=O)[n-]c1=O

>  <Energy>  (58) 
67.0418431447549

>  <Genealogy>  (58) 
COn1c([O-])c(C(=O)[N-]c2ccc3c(c2)CCNCC3)c(=O)[n-]c1=O (protonated)
COn1c([O-])c(C(=O)[N-]c2ccc3c(c2)CCNCC3)c(=O)[n-]c1=O (3D coordinates assigned)
COn1c([O-])c(C(=O)[N-]c2ccc3c(c2)CCNCC3)c(=O)[n-]c1=O (nonaromatic ring conformer: 67.0418431447549 kcal/mol)

>  <smiles>  (58) 
COn1c(O)c(C(=O)Nc2ccc3c(c2)CCNCC3)c(=O)[nH]c1=O

>  <score_type>  (58) 
oracle

>  <origin>  (58) 
adg

>  <m_score__min__energy>  (58) 
-12.130000000000001

>  <m_primary>  (58) 
energy

$$$$
58:0
     RDKit          3D

 41 43  0  0  1  0  0  0  0  0999 V2000
   55.1490   29.7130   43.6930 C   0  0  0  0  0  0  0  0  0  0  0  0
   55.5610   29.1210   44.9110 O   0  0  0  0  0  0  0  0  0  0  0  0
   56.9170   28.9660   45.1710 C   0  0  0  0  0  0  0  0  0  0  0  0
   57.5260   27.7360   45.3060 C   0  0  0  0  0  0  0  0  0  0  0  0
   58.8700   27.5770   45.5640 C   0  0  0  0  0  0  0  0  0  0  0  0
   59.6320   28.7420   45.6910 C   0  0  0  0  0  0  0  0  0  0  0  0
   59.0340   29.9780   45.5570 C   0  0  0  0  0  0  0  0  0  0  0  0
   57.6840   30.1290   45.2990 C   0  0  0  0  0  0  0  0  0  0  0  0
   57.0620   31.4020   45.1600 N   0  0  0  0  0  0  0  0  0  0  0  0
   57.7480   32.4330   45.5270 C   0  0  0  0  0  0  0  0  0  0  0  0
   57.9110   33.4080   44.6080 N   0  0  0  0  0  0  0  0  0  0  0  0
   58.6050   34.5330   44.8680 C   0  0  0  0  0  0  0  0  0  0  0  0
   59.1500   34.6400   46.1390 C   0  0  0  0  0  0  0  0  0  0  0  0
   59.8510   35.7530   46.4360 F   0  0  0  0  0  0  0  0  0  0  0  0
   58.9940   33.6560   47.0920 C   0  0  0  0  0  0  0  0  0  0  0  0
   59.5330   33.8420   48.2410 N   0  0  0  0  0  0  0  0  0  0  0  0
   60.6780   33.0340   48.5970 C   0  0  0  0  0  0  0  0  0  0  0  0
   61.7290   33.9930   49.1150 C   0  0  0  0  0  0  0  0  0  0  0  0
   62.9550   33.8390   48.2780 C   0  0  0  0  0  0  0  0  0  0  0  0
   62.5760   33.0030   47.0980 C   0  0  0  0  0  0  0  0  0  0  0  0
   61.2390   32.3800   47.3600 C   0  0  0  0  0  0  0  0  0  0  0  0
   58.2880   32.5680   46.7510 N   0  0  0  0  0  0  0  0  0  0  0  0
   54.5325   30.5988   43.9059 H   0  0  0  0  0  0  0  0  0  0  0  0
   56.0343   30.0132   43.1133 H   0  0  0  0  0  0  0  0  0  0  0  0
   54.5600   28.9871   43.1133 H   0  0  0  0  0  0  0  0  0  0  0  0
   56.9055   26.8337   45.2021 H   0  0  0  0  0  0  0  0  0  0  0  0
   59.3225   26.5795   45.6654 H   0  0  0  0  0  0  0  0  0  0  0  0
   60.7101   28.6731   45.8981 H   0  0  0  0  0  0  0  0  0  0  0  0
   59.6560   30.8794   45.6595 H   0  0  0  0  0  0  0  0  0  0  0  0
   57.5010   33.3320   43.6420 H   0  0  0  0  0  0  0  0  0  0  0  0
   58.7325   35.3234   44.1137 H   0  0  0  0  0  0  0  0  0  0  0  0
   60.3996   32.2646   49.3322 H   0  0  0  0  0  0  0  0  0  0  0  0
   61.3575   35.0260   49.0445 H   0  0  0  0  0  0  0  0  0  0  0  0
   61.9581   33.7725   50.1680 H   0  0  0  0  0  0  0  0  0  0  0  0
   63.3107   34.8248   47.9440 H   0  0  0  0  0  0  0  0  0  0  0  0
   63.7650   33.3646   48.8515 H   0  0  0  0  0  0  0  0  0  0  0  0
   62.5202   33.6349   46.1993 H   0  0  0  0  0  0  0  0  0  0  0  0
   63.3299   32.2183   46.9370 H   0  0  0  0  0  0  0  0  0  0  0  0
   60.5686   32.5527   46.5052 H   0  0  0  0  0  0  0  0  0  0  0  0
   61.3352   31.2934   47.5019 H   0  0  0  0  0  0  0  0  0  0  0  0
   58.1570   31.8090   47.4550 H   0  0  0  0  0  0  0  0  0  0  0  0
  1  2  1  0
  2  3  1  0
  3  4  2  0
  4  5  1  0
  5  6  2  0
  6  7  1  0
  7  8  2  0
  8  9  1  0
  9 10  2  0
 10 11  1  0
 11 12  1  0
 12 13  2  0
 13 14  1  0
 13 15  1  0
 15 16  2  0
 16 17  1  0
 17 18  1  0
 18 19  1  0
 19 20  1  0
 20 21  1  0
 15 22  1  0
  8  3  1  0
 22 10  1  0
 21 17  1  0
  1 23  1  0
  1 24  1  0
  1 25  1  0
  4 26  1  0
  5 27  1  0
  6 28  1  0
  7 29  1  0
 11 30  1  0
 12 31  1  0
 17 32  1  0
 18 33  1  0
 18 34  1  0
 19 35  1  0
 19 36  1  0
 20 37  1  0
 20 38  1  0
 21 39  1  0
 21 40  1  0
 22 41  1  0
M  END
>  <smiles>  (59) 
COc1ccccc1N=c1[nH]cc(F)c(=NC2CCCC2)[nH]1

>  <score_type>  (59) 
oracle

>  <origin>  (59) 
adg

>  <m_score__min__energy>  (59) 
-8.2300000000000004

>  <m_primary>  (59) 
energy

$$$$
59:0
     RDKit          3D

 39 41  0  0  0  0  0  0  0  0999 V2000
   62.6360   31.7360   49.7500 N   0  0  0  0  0  0  0  0  0  0  0  0
   62.2150   33.4010   49.6280 S   0  0  0  0  0  0  0  0  0  0  0  0
   63.4760   34.2280   49.4800 O   0  0  0  0  0  0  0  0  0  0  0  0
   61.5720   33.8210   50.9150 O   0  0  0  0  0  0  0  0  0  0  0  0
   61.1150   33.6780   48.2910 C   0  0  0  0  0  0  0  0  0  0  0  0
   61.5430   33.9220   47.0130 C   0  0  0  0  0  0  0  0  0  0  0  0
   60.6140   34.1300   46.0170 C   0  0  0  0  0  0  0  0  0  0  0  0
   59.2570   34.0870   46.3250 C   0  0  0  0  0  0  0  0  0  0  0  0
   58.2540   34.3060   45.2740 C   0  0  0  0  0  0  0  0  0  0  0  0
   57.5340   33.0480   44.9190 C   0  0  0  0  0  0  0  0  0  0  0  0
   56.3560   32.8060   45.2890 O   0  0  0  0  0  0  0  0  0  0  0  0
   58.2860   32.1150   44.1150 N   0  0  0  0  0  0  0  0  0  0  0  0
   57.6080   30.9150   43.7730 C   0  0  0  0  0  0  0  0  0  0  0  0
   57.5010   29.7350   44.4670 C   0  0  0  0  0  0  0  0  0  0  0  0
   58.0970   29.3900   45.7840 C   0  0  0  0  0  0  0  0  0  0  0  0
   58.2090   28.1430   46.2380 C   0  0  0  0  0  0  0  0  0  0  0  0
   58.7750   27.9160   47.4460 C   0  0  0  0  0  0  0  0  0  0  0  0
   59.2390   29.5560   48.1080 S   0  0  0  0  0  0  0  0  0  0  0  0
   58.5790   30.4060   46.5970 C   0  0  0  0  0  0  0  0  0  0  0  0
   56.7340   28.9410   43.7000 N   0  0  0  0  0  0  0  0  0  0  0  0
   56.3830   29.5640   42.6100 N   0  0  0  0  0  0  0  0  0  0  0  0
   56.8900   30.8010   42.5800 C   0  0  0  0  0  0  0  0  0  0  0  0
   56.7590   31.6740   41.6930 O   0  0  0  0  0  0  0  0  0  0  0  0
   58.8050   33.8400   47.6120 C   0  0  0  0  0  0  0  0  0  0  0  0
   59.7650   33.6380   48.5790 C   0  0  0  0  0  0  0  0  0  0  0  0
   61.9750   31.2070   50.3560 H   0  0  0  0  0  0  0  0  0  0  0  0
   63.6280   31.5990   50.0660 H   0  0  0  0  0  0  0  0  0  0  0  0
   62.6185   33.9516   46.7839 H   0  0  0  0  0  0  0  0  0  0  0  0
   60.9421   34.3286   44.9860 H   0  0  0  0  0  0  0  0  0  0  0  0
   57.5221   35.0460   45.6300 H   0  0  0  0  0  0  0  0  0  0  0  0
   58.7762   34.6645   44.3747 H   0  0  0  0  0  0  0  0  0  0  0  0
   59.2670   32.3300   43.8140 H   0  0  0  0  0  0  0  0  0  0  0  0
   57.8427   27.3005   45.6331 H   0  0  0  0  0  0  0  0  0  0  0  0
   58.9257   26.9408   47.9320 H   0  0  0  0  0  0  0  0  0  0  0  0
   58.5713   31.4862   46.3895 H   0  0  0  0  0  0  0  0  0  0  0  0
   56.4720   27.9620   43.9690 H   0  0  0  0  0  0  0  0  0  0  0  0
   55.7790   29.1200   41.8690 H   0  0  0  0  0  0  0  0  0  0  0  0
   57.7315   33.8069   47.8496 H   0  0  0  0  0  0  0  0  0  0  0  0
   59.4463   33.4386   49.6128 H   0  0  0  0  0  0  0  0  0  0  0  0
  1  2  1  0
  2  3  2  0
  2  4  2  0
  2  5  1  0
  5  6  2  0
  6  7  1  0
  7  8  2  0
  8  9  1  0
  9 10  1  0
 10 11  2  0
 10 12  1  0
 12 13  1  0
 13 14  2  0
 14 15  1  0
 15 16  1  0
 16 17  2  0
 17 18  1  0
 18 19  1  0
 14 20  1  0
 20 21  1  0
 21 22  1  0
 22 23  2  0
  8 24  1  0
 24 25  2  0
 25  5  1  0
 22 13  1  0
 19 15  2  0
  1 26  1  0
  1 27  1  0
  6 28  1  0
  7 29  1  0
  9 30  1  0
  9 31  1  0
 12 32  1  0
 16 33  1  0
 17 34  1  0
 19 35  1  0
 20 36  1  0
 21 37  1  0
 24 38  1  0
 25 39  1  0
M  END
>  <smiles>  (60) 
NS(=O)(=O)c1ccc(CC(=O)Nc2c(-c3ccsc3)[nH][nH]c2=O)cc1

>  <score_type>  (60) 
oracle

>  <origin>  (60) 
adg

>  <m_score__min__energy>  (60) 
-8.6099999999999994

>  <m_primary>  (60) 
energy

$$$$
60:0
     RDKit          3D

 34 35  0  0  0  0  0  0  0  0999 V2000
   55.6510   26.3370   46.0580 O   0  0  0  0  0  0  0  0  0  0  0  0
   56.4090   27.2070   45.5560 C   0  0  0  0  0  0  0  0  0  0  0  0
   57.8490   26.8470   45.3040 C   0  0  0  0  0  0  0  0  0  0  0  0
   58.7440   27.2320   46.4550 C   0  0  0  0  0  0  0  0  0  0  0  0
   59.8210   26.4060   46.8210 C   0  0  0  0  0  0  0  0  0  0  0  0
   60.6390   26.7500   47.9020 C   0  0  0  0  0  0  0  0  0  0  0  0
   60.3800   27.9090   48.6350 C   0  0  0  0  0  0  0  0  0  0  0  0
   59.2940   28.7210   48.2980 C   0  0  0  0  0  0  0  0  0  0  0  0
   58.4710   28.3800   47.2200 C   0  0  0  0  0  0  0  0  0  0  0  0
   55.8560   28.4940   45.2480 N   0  0  0  0  0  0  0  0  0  0  0  0
   56.4480   29.6420   44.0870 S   0  0  0  0  0  0  0  0  0  0  0  0
   55.5620   30.8550   44.1260 O   0  0  0  0  0  0  0  0  0  0  0  0
   56.4030   29.0710   42.6990 O   0  0  0  0  0  0  0  0  0  0  0  0
   58.1150   30.1330   44.4950 C   0  0  0  0  0  0  0  0  0  0  0  0
   58.1230   31.5170   45.0810 C   0  0  0  0  0  0  0  0  0  0  0  0
   58.2000   31.6960   46.4740 C   0  0  0  0  0  0  0  0  0  0  0  0
   58.1750   32.9820   47.0200 C   0  0  0  0  0  0  0  0  0  0  0  0
   58.0670   34.0970   46.1830 C   0  0  0  0  0  0  0  0  0  0  0  0
   57.9800   33.9260   44.8000 C   0  0  0  0  0  0  0  0  0  0  0  0
   58.0040   32.6410   44.2480 C   0  0  0  0  0  0  0  0  0  0  0  0
   57.9202   25.7604   45.1484 H   0  0  0  0  0  0  0  0  0  0  0  0
   58.1847   27.4023   44.4158 H   0  0  0  0  0  0  0  0  0  0  0  0
   60.0213   25.4847   46.2544 H   0  0  0  0  0  0  0  0  0  0  0  0
   61.4879   26.1059   48.1749 H   0  0  0  0  0  0  0  0  0  0  0  0
   61.0309   28.1833   49.4782 H   0  0  0  0  0  0  0  0  0  0  0  0
   59.0860   29.6300   48.8816 H   0  0  0  0  0  0  0  0  0  0  0  0
   57.6065   29.0124   46.9694 H   0  0  0  0  0  0  0  0  0  0  0  0
   58.5323   29.4264   45.2276 H   0  0  0  0  0  0  0  0  0  0  0  0
   58.7234   30.1292   43.5786 H   0  0  0  0  0  0  0  0  0  0  0  0
   58.2802   30.8209   47.1356 H   0  0  0  0  0  0  0  0  0  0  0  0
   58.2404   33.1174   48.1097 H   0  0  0  0  0  0  0  0  0  0  0  0
   58.0506   35.1088   46.6142 H   0  0  0  0  0  0  0  0  0  0  0  0
   57.8924   34.8039   44.1430 H   0  0  0  0  0  0  0  0  0  0  0  0
   57.9294   32.5107   43.1583 H   0  0  0  0  0  0  0  0  0  0  0  0
  1  2  2  0
  2  3  1  0
  3  4  1  0
  4  5  2  0
  5  6  1  0
  6  7  2  0
  7  8  1  0
  8  9  2  0
  2 10  1  0
 10 11  1  0
 11 12  2  0
 11 13  2  0
 11 14  1  0
 14 15  1  0
 15 16  2  0
 16 17  1  0
 17 18  2  0
 18 19  1  0
 19 20  2  0
  9  4  1  0
 20 15  1  0
  3 21  1  0
  3 22  1  0
  5 23  1  0
  6 24  1  0
  7 25  1  0
  8 26  1  0
  9 27  1  0
 14 28  1  0
 14 29  1  0
 16 30  1  0
 17 31  1  0
 18 32  1  0
 19 33  1  0
 20 34  1  0
M  CHG  1  10  -1
M  END
>  <UniqueID>  (61) 
54

>  <SMILES>  (61) 
O=C(Cc1ccccc1)[N-]S(=O)(=O)Cc1ccccc1

>  <Energy>  (61) 
30.027706061671935

>  <Genealogy>  (61) 
O=C(Cc1ccccc1)[N-]S(=O)(=O)Cc1ccccc1 (protonated)
O=C(Cc1ccccc1)[N-]S(=O)(=O)Cc1ccccc1 (3D coordinates assigned)
O=C(Cc1ccccc1)[N-]S(=O)(=O)Cc1ccccc1 (optimized conformer: 30.027706061671935 kcal/mol)

>  <smiles>  (61) 
O=C(Cc1ccccc1)NS(=O)(=O)Cc1ccccc1

>  <score_type>  (61) 
oracle

>  <origin>  (61) 
adg

>  <m_score__min__energy>  (61) 
-9.9000000000000004

>  <m_primary>  (61) 
energy

$$$$
61:0
     RDKit          3D

 44 48  0  0  0  0  0  0  0  0999 V2000
   56.7033   27.8048   43.8553 H   0  0  0  0  0  0  0  0  0  0  0  0
   56.9990   28.6150   44.5380 C   0  0  0  0  0  0  0  0  0  0  0  0
   56.8050   29.8860   44.3310 N   0  0  0  0  0  0  0  0  0  0  0  0
   57.2860   30.5630   45.4600 N   0  0  0  0  0  0  0  0  0  0  0  0
   57.9720   31.7220   45.5180 C   0  0  0  0  0  0  0  0  0  0  0  0
   57.7940   32.7390   44.7290 N   0  0  0  0  0  0  0  0  0  0  0  0
   57.6970   34.1220   45.1840 C   0  0  0  0  0  0  0  0  0  0  0  0
   56.6229   34.2653   44.9948 H   0  0  0  0  0  0  0  0  0  0  0  0
   58.9620   34.9150   44.9160 C   0  0  0  0  0  0  0  0  0  0  0  0
   59.7966   34.4515   44.3695 H   0  0  0  0  0  0  0  0  0  0  0  0
   59.1890   35.8815   44.4423 H   0  0  0  0  0  0  0  0  0  0  0  0
   58.6320   34.4600   46.3310 C   0  0  0  0  0  0  0  0  0  0  0  0
   59.2278   33.6674   46.8073 H   0  0  0  0  0  0  0  0  0  0  0  0
   58.5214   34.9608   47.3041 H   0  0  0  0  0  0  0  0  0  0  0  0
   58.9450   31.6830   46.4610 N   0  0  0  0  0  0  0  0  0  0  0  0
   58.8240   30.4140   46.9350 C   0  0  0  0  0  0  0  0  0  0  0  0
   59.6720   29.8460   47.7420 N   0  0  0  0  0  0  0  0  0  0  0  0
   60.7670   30.4800   48.4230 C   0  0  0  0  0  0  0  0  0  0  0  0
   61.1720   30.0910   49.7120 C   0  0  0  0  0  0  0  0  0  0  0  0
   60.6293   29.2929   50.2396 H   0  0  0  0  0  0  0  0  0  0  0  0
   62.2600   30.7140   50.3240 C   0  0  0  0  0  0  0  0  0  0  0  0
   62.5623   30.4155   51.3386 H   0  0  0  0  0  0  0  0  0  0  0  0
   62.9670   31.7150   49.6540 C   0  0  0  0  0  0  0  0  0  0  0  0
   63.8180   32.2066   50.1482 H   0  0  0  0  0  0  0  0  0  0  0  0
   62.5980   32.1000   48.3490 C   0  0  0  0  0  0  0  0  0  0  0  0
   63.3480   33.1530   47.6130 C   0  0  0  0  0  0  0  0  0  0  0  0
   64.5040   33.4810   47.9960 O   0  0  0  0  0  0  0  0  0  0  0  0
   62.7710   33.8480   46.4150 C   0  0  0  0  0  0  0  0  0  0  0  0
   62.1010   34.6550   46.7466 H   0  0  0  0  0  0  0  0  0  0  0  0
   63.5855   34.2730   45.8100 H   0  0  0  0  0  0  0  0  0  0  0  0
   62.2034   33.1256   45.8100 H   0  0  0  0  0  0  0  0  0  0  0  0
   61.4980   31.4630   47.7430 C   0  0  0  0  0  0  0  0  0  0  0  0
   61.2080   31.7417   46.7192 H   0  0  0  0  0  0  0  0  0  0  0  0
   57.8120   29.7560   46.3400 N   0  0  0  0  0  0  0  0  0  0  0  0
   57.6790   28.4360   45.8350 C   0  0  0  0  0  0  0  0  0  0  0  0
   58.1950   27.3290   46.3840 C   0  0  0  0  0  0  0  0  0  0  0  0
   59.2550   27.3399   46.6776 H   0  0  0  0  0  0  0  0  0  0  0  0
   57.4220   26.0990   46.6160 C   0  0  0  0  0  0  0  0  0  0  0  0
   57.9510   24.9880   47.1590 N   0  0  0  0  0  0  0  0  0  0  0  0
   56.8940   24.1520   47.2570 C   0  0  0  0  0  0  0  0  0  0  0  0
   56.9940   22.9850   47.7170 O   0  0  0  0  0  0  0  0  0  0  0  0
   55.7220   24.6690   46.8340 N   0  0  0  0  0  0  0  0  0  0  0  0
   56.0690   25.9050   46.4420 C   0  0  0  0  0  0  0  0  0  0  0  0
   55.1570   26.8490   45.9870 O   0  0  0  0  0  0  0  0  0  0  0  0
  1  2  1  0
  2  3  2  0
  3  4  1  0
  4  5  1  0
  5  6  2  3
  6  7  1  0
  7  8  1  0
  7  9  1  0
  9 10  1  0
  9 11  1  0
  9 12  1  0
 12 13  1  0
 12 14  1  0
  5 15  1  0
 15 16  1  0
 16 17  2  0
 17 18  1  0
 18 19  2  0
 19 20  1  0
 19 21  1  0
 21 22  1  0
 21 23  2  0
 23 24  1  0
 23 25  1  0
 25 26  1  0
 26 27  2  0
 26 28  1  0
 28 29  1  0
 28 30  1  0
 28 31  1  0
 25 32  2  0
 32 33  1  0
 16 34  1  0
 34 35  1  0
 35 36  2  0
 36 37  1  0
 36 38  1  0
 38 39  1  0
 39 40  1  0
 40 41  2  0
 40 42  1  0
 42 43  1  0
 43 44  1  0
 35  2  1  0
 43 38  2  0
 34  4  1  0
 12  7  1  0
 32 18  1  0
M  CHG  4  15  -1  39  -1  42  -1  44  -1
M  END
>  <UniqueID>  (62) 
55

>  <SMILES>  (62) 
CC(=O)c1cccc(/N=c2\[n-]c(=NC3CC3)n3n2/C(=C/c2[n-]c(=O)[n-]c2[O-])C=N3)c1

>  <Energy>  (62) 
448.52763086363234

>  <Genealogy>  (62) 
CC(=O)c1cccc(N=c2[n-]c(=NC3CC3)n3n2C(=Cc2[n-]c(=O)[n-]c2[O-])C=N3)c1 (protonated)
CC(=O)c1cccc(/N=c2\[n-]c(=NC3CC3)n3n2/C(=C/c2[n-]c(=O)[n-]c2[O-])C=N3)c1 (cis-trans isomerization)
CC(=O)c1cccc(/N=c2\[n-]c(=NC3CC3)n3n2/C(=C/c2[n-]c(=O)[n-]c2[O-])C=N3)c1 (3D coordinates assigned)
CC(=O)c1cccc(/N=c2\[n-]c(=NC3CC3)n3n2/C(=C/c2[n-]c(=O)[n-]c2[O-])C=N3)c1 (nonaromatic ring conformer: 448.52763086363234 kcal/mol)

>  <smiles>  (62) 
CC(=O)c1cccc(N=c2[nH]c(=NC3CC3)n3n2C(=Cc2[nH]c(=O)[nH]c2O)C=N3)c1

>  <score_type>  (62) 
oracle

>  <origin>  (62) 
adg

>  <m_score__min__energy>  (62) 
-17.100000000000001

>  <m_primary>  (62) 
energy

$$$$
62:0
     RDKit          3D

 60 63  0  0  0  0  0  0  0  0999 V2000
   55.6402   23.1000   45.8021 H   0  0  0  0  0  0  0  0  0  0  0  0
   55.6990   24.1890   45.9460 C   0  0  0  0  0  0  0  0  0  0  0  0
   54.4710   24.9700   45.6980 C   0  0  0  0  0  0  0  0  0  0  0  0
   54.4680   26.2030   45.9520 O   0  0  0  0  0  0  0  0  0  0  0  0
   53.3020   24.3730   45.2420 O   0  0  0  0  0  0  0  0  0  0  0  0
   56.8810   24.6940   46.3320 C   0  0  0  0  0  0  0  0  0  0  0  0
   57.3267   24.2946   47.2549 H   0  0  0  0  0  0  0  0  0  0  0  0
   57.6280   25.7430   45.6140 C   0  0  0  0  0  0  0  0  0  0  0  0
   57.7760   25.6950   44.2180 C   0  0  0  0  0  0  0  0  0  0  0  0
   57.3447   24.8582   43.6490 H   0  0  0  0  0  0  0  0  0  0  0  0
   58.4700   26.7080   43.5500 C   0  0  0  0  0  0  0  0  0  0  0  0
   58.5949   26.6609   42.4581 H   0  0  0  0  0  0  0  0  0  0  0  0
   59.0050   27.7800   44.2680 C   0  0  0  0  0  0  0  0  0  0  0  0
   59.5605   28.5700   43.7414 H   0  0  0  0  0  0  0  0  0  0  0  0
   58.8360   27.8520   45.6580 C   0  0  0  0  0  0  0  0  0  0  0  0
   59.4220   28.9310   46.4040 N   0  0  0  0  0  0  0  0  0  0  0  0
   58.7460   30.2360   46.4150 C   0  0  0  0  0  0  0  0  0  0  0  0
   58.1756   30.3416   47.3496 H   0  0  0  0  0  0  0  0  0  0  0  0
   59.5020   31.0318   46.3437 H   0  0  0  0  0  0  0  0  0  0  0  0
   57.8060   30.3460   45.2440 C   0  0  0  0  0  0  0  0  0  0  0  0
   58.1660   31.1050   44.1170 C   0  0  0  0  0  0  0  0  0  0  0  0
   59.1084   31.6724   44.1173 H   0  0  0  0  0  0  0  0  0  0  0  0
   57.3320   31.1420   42.9960 C   0  0  0  0  0  0  0  0  0  0  0  0
   57.6224   31.7323   42.1144 H   0  0  0  0  0  0  0  0  0  0  0  0
   56.1300   30.4300   42.9940 C   0  0  0  0  0  0  0  0  0  0  0  0
   55.4762   30.4574   42.1098 H   0  0  0  0  0  0  0  0  0  0  0  0
   55.7580   29.6830   44.1150 C   0  0  0  0  0  0  0  0  0  0  0  0
   54.5630   28.9730   44.1120 O   0  0  0  0  0  0  0  0  0  0  0  0
   56.5920   29.6400   45.2360 C   0  0  0  0  0  0  0  0  0  0  0  0
   56.2960   29.0503   46.1161 H   0  0  0  0  0  0  0  0  0  0  0  0
   60.7410   28.7460   47.0270 C   0  0  0  0  0  0  0  0  0  0  0  0
   60.9721   27.6717   47.0756 H   0  0  0  0  0  0  0  0  0  0  0  0
   61.4986   29.2670   46.4232 H   0  0  0  0  0  0  0  0  0  0  0  0
   60.7450   29.3180   48.4180 C   0  0  0  0  0  0  0  0  0  0  0  0
   60.6200   28.4770   49.5330 C   0  0  0  0  0  0  0  0  0  0  0  0
   60.6275   27.3851   49.4001 H   0  0  0  0  0  0  0  0  0  0  0  0
   60.4860   29.0220   50.8120 C   0  0  0  0  0  0  0  0  0  0  0  0
   60.4030   28.3580   51.6850 H   0  0  0  0  0  0  0  0  0  0  0  0
   60.4570   30.4080   50.9860 C   0  0  0  0  0  0  0  0  0  0  0  0
   60.3362   30.8323   51.9937 H   0  0  0  0  0  0  0  0  0  0  0  0
   60.5820   31.2620   49.8750 C   0  0  0  0  0  0  0  0  0  0  0  0
   60.5210   32.6600   49.9880 O   0  0  0  0  0  0  0  0  0  0  0  0
   59.3760   33.4500   49.6670 C   0  0  0  0  0  0  0  0  0  0  0  0
   58.4693   32.9253   50.0024 H   0  0  0  0  0  0  0  0  0  0  0  0
   59.4627   34.4223   50.1740 H   0  0  0  0  0  0  0  0  0  0  0  0
   59.2920   33.6830   48.1810 C   0  0  0  0  0  0  0  0  0  0  0  0
   58.0840   33.4640   47.5000 C   0  0  0  0  0  0  0  0  0  0  0  0
   57.2014   33.1087   48.0520 H   0  0  0  0  0  0  0  0  0  0  0  0
   57.9970   33.6950   46.1250 C   0  0  0  0  0  0  0  0  0  0  0  0
   57.0449   33.5305   45.5992 H   0  0  0  0  0  0  0  0  0  0  0  0
   59.1190   34.1350   45.4170 C   0  0  0  0  0  0  0  0  0  0  0  0
   59.0492   34.3206   44.3350 H   0  0  0  0  0  0  0  0  0  0  0  0
   60.3300   34.3390   46.0850 C   0  0  0  0  0  0  0  0  0  0  0  0
   61.2146   34.6789   45.5264 H   0  0  0  0  0  0  0  0  0  0  0  0
   60.4190   34.1120   47.4610 C   0  0  0  0  0  0  0  0  0  0  0  0
   61.3749   34.2698   47.9819 H   0  0  0  0  0  0  0  0  0  0  0  0
   60.7510   30.7090   48.6020 C   0  0  0  0  0  0  0  0  0  0  0  0
   60.8902   31.3717   47.7352 H   0  0  0  0  0  0  0  0  0  0  0  0
   58.1400   26.8360   46.3280 C   0  0  0  0  0  0  0  0  0  0  0  0
   57.9951   26.8964   47.4167 H   0  0  0  0  0  0  0  0  0  0  0  0
  1  2  1  0
  2  3  1  0
  3  4  2  0
  3  5  1  0
  2  6  2  0
  6  7  1  0
  6  8  1  0
  8  9  2  0
  9 10  1  0
  9 11  1  0
 11 12  1  0
 11 13  2  0
 13 14  1  0
 13 15  1  0
 15 16  1  0
 16 17  1  0
 17 18  1  0
 17 19  1  0
 17 20  1  0
 20 21  2  0
 21 22  1  0
 21 23  1  0
 23 24  1  0
 23 25  2  0
 25 26  1  0
 25 27  1  0
 27 28  1  0
 27 29  2  0
 29 30  1  0
 16 31  1  0
 31 32  1  0
 31 33  1  0
 31 34  1  0
 34 35  2  0
 35 36  1  0
 35 37  1  0
 37 38  1  0
 37 39  2  0
 39 40  1  0
 39 41  1  0
 41 42  1  0
 42 43  1  0
 43 44  1  0
 43 45  1  0
 43 46  1  0
 46 47  2  0
 47 48  1  0
 47 49  1  0
 49 50  1  0
 49 51  2  0
 51 52  1  0
 51 53  1  0
 53 54  1  0
 53 55  2  0
 55 56  1  0
 41 57  2  0
 57 58  1  0
 15 59  2  0
 59 60  1  0
 59  8  1  0
 29 20  1  0
 57 34  1  0
 55 46  1  0
M  CHG  2   5  -1  28  -1
M  END
>  <UniqueID>  (63) 
56

>  <SMILES>  (63) 
O=C([O-])/C=C\c1cccc(N(Cc2cccc([O-])c2)Cc2cccc(OCc3ccccc3)c2)c1

>  <Energy>  (63) 
70.62046920884886

>  <Genealogy>  (63) 
O=C([O-])C=Cc1cccc(N(Cc2cccc([O-])c2)Cc2cccc(OCc3ccccc3)c2)c1 (protonated)
O=C([O-])/C=C\c1cccc(N(Cc2cccc([O-])c2)Cc2cccc(OCc3ccccc3)c2)c1 (cis-trans isomerization)
O=C([O-])/C=C\c1cccc(N(Cc2cccc([O-])c2)Cc2cccc(OCc3ccccc3)c2)c1 (3D coordinates assigned)
O=C([O-])/C=C\c1cccc(N(Cc2cccc([O-])c2)Cc2cccc(OCc3ccccc3)c2)c1 (optimized conformer: 70.62046920884886 kcal/mol)

>  <smiles>  (63) 
O=C(O)C=Cc1cccc(N(Cc2cccc(O)c2)Cc2cccc(OCc3ccccc3)c2)c1

>  <score_type>  (63) 
oracle

>  <origin>  (63) 
adg

>  <m_score__min__energy>  (63) 
-15.119999999999999

>  <m_primary>  (63) 
energy

$$$$
63:0
     RDKit          3D

 56 59  0  0  0  0  0  0  0  0999 V2000
   60.9260   31.0670   47.2740 H   0  0  0  0  0  0  0  0  0  0  0  0
   61.7630   31.6150   47.1270 O   0  0  0  0  0  0  0  0  0  0  0  0
   62.3590   32.3750   48.1360 C   0  0  0  0  0  0  0  0  0  0  0  0
   63.7530   32.3610   48.2420 C   0  0  0  0  0  0  0  0  0  0  0  0
   64.3488   31.7826   47.5205 H   0  0  0  0  0  0  0  0  0  0  0  0
   64.3960   33.0750   49.2560 C   0  0  0  0  0  0  0  0  0  0  0  0
   65.4929   33.0492   49.3339 H   0  0  0  0  0  0  0  0  0  0  0  0
   63.6490   33.8230   50.1730 C   0  0  0  0  0  0  0  0  0  0  0  0
   64.3070   34.5550   51.2100 N   0  0  0  0  0  0  0  0  0  0  0  0
   65.3360   34.7340   51.1680 H   0  0  0  0  0  0  0  0  0  0  0  0
   63.7720   34.9200   52.0290 H   0  0  0  0  0  0  0  0  0  0  0  0
   62.2530   33.8560   50.0650 C   0  0  0  0  0  0  0  0  0  0  0  0
   61.6659   34.4556   50.7762 H   0  0  0  0  0  0  0  0  0  0  0  0
   61.5940   33.1300   49.0560 C   0  0  0  0  0  0  0  0  0  0  0  0
   60.1220   33.2390   48.9360 C   0  0  0  0  0  0  0  0  0  0  0  0
   59.5230   33.4650   47.7430 C   0  0  0  0  0  0  0  0  0  0  0  0
   59.2940   34.7930   47.1400 C   0  0  0  0  0  0  0  0  0  0  0  0
   59.7760   35.7166   47.4929 H   0  0  0  0  0  0  0  0  0  0  0  0
   58.4610   34.7480   46.1480 N   0  0  0  0  0  0  0  0  0  0  0  0
   58.0980   33.3840   45.9830 C   0  0  0  0  0  0  0  0  0  0  0  0
   57.2720   32.8820   44.9870 C   0  0  0  0  0  0  0  0  0  0  0  0
   56.7711   33.5595   44.2798 H   0  0  0  0  0  0  0  0  0  0  0  0
   57.0870   31.4850   44.8990 C   0  0  0  0  0  0  0  0  0  0  0  0
   56.2380   30.9120   43.9400 O   0  0  0  0  0  0  0  0  0  0  0  0
   56.6530   29.9740   42.9520 C   0  0  0  0  0  0  0  0  0  0  0  0
   57.0509   29.0745   43.4446 H   0  0  0  0  0  0  0  0  0  0  0  0
   55.7929   29.6981   42.3242 H   0  0  0  0  0  0  0  0  0  0  0  0
   57.4356   30.4249   42.3242 H   0  0  0  0  0  0  0  0  0  0  0  0
   57.7790   30.6210   45.7820 C   0  0  0  0  0  0  0  0  0  0  0  0
   57.5600   29.2400   45.6250 O   0  0  0  0  0  0  0  0  0  0  0  0
   58.3560   28.1960   46.1740 C   0  0  0  0  0  0  0  0  0  0  0  0
   58.3185   28.2452   47.2723 H   0  0  0  0  0  0  0  0  0  0  0  0
   57.9682   27.2233   45.8371 H   0  0  0  0  0  0  0  0  0  0  0  0
   59.3966   28.3125   45.8371 H   0  0  0  0  0  0  0  0  0  0  0  0
   58.6550   31.1680   46.7610 C   0  0  0  0  0  0  0  0  0  0  0  0
   59.4700   30.3510   47.5300 O   0  0  0  0  0  0  0  0  0  0  0  0
   58.7270   32.5650   46.8890 C   0  0  0  0  0  0  0  0  0  0  0  0
   59.3130   32.9110   50.1410 C   0  0  0  0  0  0  0  0  0  0  0  0
   59.2420   33.8090   51.2170 C   0  0  0  0  0  0  0  0  0  0  0  0
   59.7708   34.7719   51.1601 H   0  0  0  0  0  0  0  0  0  0  0  0
   58.5060   33.4900   52.3580 C   0  0  0  0  0  0  0  0  0  0  0  0
   58.4517   34.2061   53.1912 H   0  0  0  0  0  0  0  0  0  0  0  0
   57.8320   32.2570   52.4500 C   0  0  0  0  0  0  0  0  0  0  0  0
   57.0820   31.9010   53.5830 O   0  0  0  0  0  0  0  0  0  0  0  0
   57.6340   31.6570   54.8720 C   0  0  0  0  0  0  0  0  0  0  0  0
   56.9171   31.9739   55.6438 H   0  0  0  0  0  0  0  0  0  0  0  0
   57.8426   30.5828   54.9842 H   0  0  0  0  0  0  0  0  0  0  0  0
   58.5688   32.2257   54.9842 H   0  0  0  0  0  0  0  0  0  0  0  0
   57.9060   31.3460   51.3850 C   0  0  0  0  0  0  0  0  0  0  0  0
   57.2280   30.1220   51.5070 O   0  0  0  0  0  0  0  0  0  0  0  0
   57.3910   29.2160   52.5920 C   0  0  0  0  0  0  0  0  0  0  0  0
   57.2930   29.7609   53.5425 H   0  0  0  0  0  0  0  0  0  0  0  0
   56.6191   28.4343   52.5361 H   0  0  0  0  0  0  0  0  0  0  0  0
   58.3870   28.7524   52.5361 H   0  0  0  0  0  0  0  0  0  0  0  0
   58.6500   31.6770   50.2350 C   0  0  0  0  0  0  0  0  0  0  0  0
   58.7120   30.9611   49.4022 H   0  0  0  0  0  0  0  0  0  0  0  0
  1  2  1  0
  2  3  1  0
  3  4  2  0
  4  5  1  0
  4  6  1  0
  6  7  1  0
  6  8  2  0
  8  9  1  0
  9 10  1  0
  9 11  1  0
  8 12  1  0
 12 13  1  0
 12 14  2  0
 14 15  1  0
 15 16  2  0
 16 17  1  0
 17 18  1  0
 17 19  2  0
 19 20  1  0
 20 21  2  0
 21 22  1  0
 21 23  1  0
 23 24  1  0
 24 25  1  0
 25 26  1  0
 25 27  1  0
 25 28  1  0
 23 29  2  0
 29 30  1  0
 30 31  1  0
 31 32  1  0
 31 33  1  0
 31 34  1  0
 29 35  1  0
 35 36  1  0
 35 37  2  0
 15 38  1  0
 38 39  2  0
 39 40  1  0
 39 41  1  0
 41 42  1  0
 41 43  2  0
 43 44  1  0
 44 45  1  0
 45 46  1  0
 45 47  1  0
 45 48  1  0
 43 49  1  0
 49 50  1  0
 50 51  1  0
 51 52  1  0
 51 53  1  0
 51 54  1  0
 49 55  2  0
 55 56  1  0
 14  3  1  0
 37 16  1  0
 55 38  1  0
 37 20  1  0
M  CHG  1  36  -1
M  END
>  <UniqueID>  (64) 
57

>  <SMILES>  (64) 
COc1ccc(/C(=C2\C=Nc3cc(OC)c(OC)c([O-])c32)c2cc(N)ccc2O)cc1OC

>  <Energy>  (64) 
108.40369619574213

>  <Genealogy>  (64) 
COc1ccc(C(=C2C=Nc3cc(OC)c(OC)c([O-])c32)c2cc(N)ccc2O)cc1OC (protonated)
COc1ccc(/C(=C2\C=Nc3cc(OC)c(OC)c([O-])c32)c2cc(N)ccc2O)cc1OC (cis-trans isomerization)
COc1ccc(/C(=C2\C=Nc3cc(OC)c(OC)c([O-])c32)c2cc(N)ccc2O)cc1OC (3D coordinates assigned)
COc1ccc(/C(=C2\C=Nc3cc(OC)c(OC)c([O-])c32)c2cc(N)ccc2O)cc1OC (nonaromatic ring conformer: 108.40369619574213 kcal/mol)

>  <smiles>  (64) 
COc1ccc(C(=C2C=Nc3cc(OC)c(OC)c(O)c32)c2cc(N)ccc2O)cc1OC

>  <score_type>  (64) 
oracle

>  <origin>  (64) 
adg

>  <m_score__min__energy>  (64) 
-9.8800000000000008

>  <m_primary>  (64) 
energy

$$$$
64:0
     RDKit          3D

 50 53  0  0  0  0  0  0  0  0999 V2000
   58.2050   32.7550   51.4160 O   0  0  0  0  0  0  0  0  0  0  0  0
   57.8650   31.6080   51.0160 C   0  0  0  0  0  0  0  0  0  0  0  0
   58.3870   31.0980   49.7780 N   0  0  0  0  0  0  0  0  0  0  0  0
   59.0300   31.9510   48.7750 C   0  0  0  0  0  0  0  0  0  0  0  0
   59.9810   31.1400   47.8500 C   0  0  2  0  0  0  0  0  0  0  0  0
   61.3790   30.4170   48.8310 S   0  0  0  0  0  0  0  0  0  0  0  0
   62.2120   31.9250   49.3550 C   0  0  0  0  0  0  0  0  0  0  0  0
   63.4010   32.3200   48.7270 C   0  0  0  0  0  0  0  0  0  0  0  0
   64.0730   33.4690   49.1550 C   0  0  0  0  0  0  0  0  0  0  0  0
   63.5730   34.2130   50.2270 C   0  0  0  0  0  0  0  0  0  0  0  0
   62.4060   33.8030   50.8790 C   0  0  0  0  0  0  0  0  0  0  0  0
   61.7330   32.6550   50.4510 C   0  0  0  0  0  0  0  0  0  0  0  0
   60.5290   32.0260   46.7020 C   0  0  0  0  0  0  0  0  0  0  0  0
   59.4330   32.5500   45.7570 C   0  0  0  0  0  0  0  0  0  0  0  0
   58.3460   31.5480   45.4540 C   0  0  0  0  0  0  0  0  0  0  0  0
   57.3930   31.8650   44.4730 C   0  0  0  0  0  0  0  0  0  0  0  0
   56.3270   31.0000   44.2130 C   0  0  0  0  0  0  0  0  0  0  0  0
   56.2000   29.8110   44.9330 C   0  0  0  0  0  0  0  0  0  0  0  0
   55.1430   28.9490   44.6700 O   0  0  0  0  0  0  0  0  0  0  0  0
   57.1370   29.4860   45.9170 C   0  0  0  0  0  0  0  0  0  0  0  0
   58.2040   30.3550   46.1980 C   0  0  0  0  0  0  0  0  0  0  0  0
   59.2440   29.9420   47.2060 C   0  0  0  0  0  0  0  0  0  0  0  0
   56.9500   30.7950   51.8470 C   0  0  0  0  0  0  0  0  0  0  0  0
   55.6080   31.1900   51.9910 C   0  0  0  0  0  0  0  0  0  0  0  0
   54.7260   30.4360   52.7700 C   0  0  0  0  0  0  0  0  0  0  0  0
   55.1710   29.2740   53.4060 C   0  0  0  0  0  0  0  0  0  0  0  0
   56.4970   28.8610   53.2560 C   0  0  0  0  0  0  0  0  0  0  0  0
   57.3850   29.6110   52.4780 C   0  0  0  0  0  0  0  0  0  0  0  0
   58.6500   29.1490   52.3070 F   0  0  0  0  0  0  0  0  0  0  0  0
   58.2860   30.0810   49.5670 H   0  0  0  0  0  0  0  0  0  0  0  0
   58.2516   32.4239   48.1583 H   0  0  0  0  0  0  0  0  0  0  0  0
   59.6299   32.7067   49.3033 H   0  0  0  0  0  0  0  0  0  0  0  0
   63.8064   31.7248   47.8955 H   0  0  0  0  0  0  0  0  0  0  0  0
   64.9956   33.7874   48.6477 H   0  0  0  0  0  0  0  0  0  0  0  0
   64.0976   35.1214   50.5580 H   0  0  0  0  0  0  0  0  0  0  0  0
   62.0176   34.3838   51.7286 H   0  0  0  0  0  0  0  0  0  0  0  0
   60.8249   32.3238   50.9760 H   0  0  0  0  0  0  0  0  0  0  0  0
   61.0488   32.8883   47.1450 H   0  0  0  0  0  0  0  0  0  0  0  0
   61.2028   31.3979   46.1007 H   0  0  0  0  0  0  0  0  0  0  0  0
   58.9690   33.4320   46.2225 H   0  0  0  0  0  0  0  0  0  0  0  0
   59.9247   32.7816   44.8007 H   0  0  0  0  0  0  0  0  0  0  0  0
   57.4863   32.8020   43.9044 H   0  0  0  0  0  0  0  0  0  0  0  0
   55.5872   31.2562   43.4403 H   0  0  0  0  0  0  0  0  0  0  0  0
   57.0384   28.5434   46.4753 H   0  0  0  0  0  0  0  0  0  0  0  0
   58.7492   29.3671   48.0027 H   0  0  0  0  0  0  0  0  0  0  0  0
   59.9974   29.3450   46.6712 H   0  0  0  0  0  0  0  0  0  0  0  0
   55.2497   32.0995   51.4866 H   0  0  0  0  0  0  0  0  0  0  0  0
   53.6801   30.7577   52.8826 H   0  0  0  0  0  0  0  0  0  0  0  0
   54.4776   28.6850   54.0243 H   0  0  0  0  0  0  0  0  0  0  0  0
   56.8441   27.9424   53.7517 H   0  0  0  0  0  0  0  0  0  0  0  0
  1  2  2  0
  2  3  1  0
  3  4  1  0
  4  5  1  0
  5  6  1  1
  6  7  1  0
  7  8  2  0
  8  9  1  0
  9 10  2  0
 10 11  1  0
 11 12  2  0
  5 13  1  0
 13 14  1  0
 14 15  1  0
 15 16  2  0
 16 17  1  0
 17 18  2  0
 18 19  1  0
 18 20  1  0
 20 21  2  0
 21 22  1  0
  2 23  1  0
 23 24  2  0
 24 25  1  0
 25 26  2  0
 26 27  1  0
 27 28  2  0
 28 29  1  0
 22  5  1  0
 28 23  1  0
 12  7  1  0
 21 15  1  0
  3 30  1  0
  4 31  1  0
  4 32  1  0
  8 33  1  0
  9 34  1  0
 10 35  1  0
 11 36  1  0
 12 37  1  0
 13 38  1  0
 13 39  1  0
 14 40  1  0
 14 41  1  0
 16 42  1  0
 17 43  1  0
 20 44  1  0
 22 45  1  0
 22 46  1  0
 24 47  1  0
 25 48  1  0
 26 49  1  0
 27 50  1  0
M  CHG  1  19  -1
M  END
>  <UniqueID>  (65) 
58

>  <SMILES>  (65) 
O=C(NC[C@]1(Sc2ccccc2)CCc2ccc([O-])cc2C1)c1ccccc1F

>  <Energy>  (65) 
56.74432473049226

>  <Genealogy>  (65) 
O=C(NCC1(Sc2ccccc2)CCc2ccc([O-])cc2C1)c1ccccc1F (protonated)
O=C(NC[C@]1(Sc2ccccc2)CCc2ccc([O-])cc2C1)c1ccccc1F (chirality)
O=C(NC[C@]1(Sc2ccccc2)CCc2ccc([O-])cc2C1)c1ccccc1F (3D coordinates assigned)
O=C(NC[C@]1(Sc2ccccc2)CCc2ccc([O-])cc2C1)c1ccccc1F (nonaromatic ring conformer: 56.74432473049226 kcal/mol)

>  <smiles>  (65) 
O=C(NCC1(Sc2ccccc2)CCc2ccc(O)cc2C1)c1ccccc1F

>  <score_type>  (65) 
oracle

>  <origin>  (65) 
adg

>  <m_score__min__energy>  (65) 
-10.31

>  <m_primary>  (65) 
energy

$$$$
65:0
     RDKit          3D

 50 52  0  0  0  0  0  0  0  0999 V2000
   59.3600   33.0630   50.0020 C   0  0  0  0  0  0  0  0  0  0  0  0
   60.4470   33.9510   49.7590 O   0  0  0  0  0  0  0  0  0  0  0  0
   61.5780   33.6340   48.9830 C   0  0  0  0  0  0  0  0  0  0  0  0
   62.7810   33.1920   49.5670 C   0  0  0  0  0  0  0  0  0  0  0  0
   63.8760   32.8670   48.7640 C   0  0  0  0  0  0  0  0  0  0  0  0
   63.8010   33.0040   47.3780 C   0  0  0  0  0  0  0  0  0  0  0  0
   62.6170   33.4420   46.7840 C   0  0  0  0  0  0  0  0  0  0  0  0
   61.5110   33.7670   47.5820 C   0  0  0  0  0  0  0  0  0  0  0  0
   60.2890   34.3120   46.9490 C   0  0  0  0  0  0  0  0  0  0  0  0
   59.8510   33.9120   45.7430 C   0  0  0  0  0  0  0  0  0  0  0  0
   58.1540   33.9700   45.2390 S   0  0  0  0  0  0  0  0  0  0  0  0
   57.2240   33.9020   46.4260 O   0  0  0  0  0  0  0  0  0  0  0  0
   57.9080   35.2440   44.4800 O   0  0  0  0  0  0  0  0  0  0  0  0
   57.8710   32.6470   44.1530 N   0  0  0  0  0  0  0  0  0  0  0  0
   57.3710   31.3560   44.5330 C   0  0  0  0  0  0  0  0  0  0  0  0
   56.2560   30.8490   43.8600 C   0  0  0  0  0  0  0  0  0  0  0  0
   55.7240   29.6020   44.2050 C   0  0  0  0  0  0  0  0  0  0  0  0
   56.2870   28.8610   45.2510 C   0  0  0  0  0  0  0  0  0  0  0  0
   55.7430   27.6210   45.5810 O   0  0  0  0  0  0  0  0  0  0  0  0
   57.3900   29.3710   45.9620 C   0  0  0  0  0  0  0  0  0  0  0  0
   57.9530   28.6300   47.0650 N   0  0  0  0  0  0  0  0  0  0  0  0
   58.6910   29.2670   48.1150 C   0  0  0  0  0  0  0  0  0  0  0  0
   58.6130   30.5240   48.2640 O   0  0  0  0  0  0  0  0  0  0  0  0
   59.5430   28.4830   49.0430 C   0  0  0  0  0  0  0  0  0  0  0  0
   59.9070   29.0220   50.2900 C   0  0  0  0  0  0  0  0  0  0  0  0
   60.7250   28.3060   51.1710 C   0  0  0  0  0  0  0  0  0  0  0  0
   61.2060   27.0340   50.8130 C   0  0  0  0  0  0  0  0  0  0  0  0
   62.0620   26.2940   51.7670 C   0  0  0  0  0  0  0  0  0  0  0  0
   62.7300   25.2840   51.3950 O   0  0  0  0  0  0  0  0  0  0  0  0
   60.8520   26.4950   49.5680 C   0  0  0  0  0  0  0  0  0  0  0  0
   60.0190   27.2020   48.6850 C   0  0  0  0  0  0  0  0  0  0  0  0
   57.9520   30.6000   45.5690 C   0  0  0  0  0  0  0  0  0  0  0  0
   59.2172   32.9464   51.0864 H   0  0  0  0  0  0  0  0  0  0  0  0
   58.4435   33.4740   49.5536 H   0  0  0  0  0  0  0  0  0  0  0  0
   59.5799   32.0829   49.5536 H   0  0  0  0  0  0  0  0  0  0  0  0
   62.8582   33.1024   50.6606 H   0  0  0  0  0  0  0  0  0  0  0  0
   64.8038   32.5005   49.2275 H   0  0  0  0  0  0  0  0  0  0  0  0
   64.6749   32.7668   46.7535 H   0  0  0  0  0  0  0  0  0  0  0  0
   62.5513   33.5323   45.6897 H   0  0  0  0  0  0  0  0  0  0  0  0
   59.7140   35.0783   47.4895 H   0  0  0  0  0  0  0  0  0  0  0  0
   60.5905   33.5256   45.0262 H   0  0  0  0  0  0  0  0  0  0  0  0
   55.7930   31.4352   43.0525 H   0  0  0  0  0  0  0  0  0  0  0  0
   54.8607   29.2024   43.6527 H   0  0  0  0  0  0  0  0  0  0  0  0
   57.6780   27.6270   47.1840 H   0  0  0  0  0  0  0  0  0  0  0  0
   59.5437   30.0199   50.5766 H   0  0  0  0  0  0  0  0  0  0  0  0
   60.9925   28.7392   52.1461 H   0  0  0  0  0  0  0  0  0  0  0  0
   62.1190   26.6258   52.8142 H   0  0  0  0  0  0  0  0  0  0  0  0
   61.2320   25.5042   49.2785 H   0  0  0  0  0  0  0  0  0  0  0  0
   59.7382   26.7595   47.7178 H   0  0  0  0  0  0  0  0  0  0  0  0
   58.8538   30.9735   46.0761 H   0  0  0  0  0  0  0  0  0  0  0  0
  1  2  1  0
  2  3  1  0
  3  4  2  0
  4  5  1  0
  5  6  2  0
  6  7  1  0
  7  8  2  0
  8  9  1  0
  9 10  2  3
 10 11  1  0
 11 12  2  0
 11 13  2  0
 11 14  1  0
 14 15  1  0
 15 16  2  0
 16 17  1  0
 17 18  2  0
 18 19  1  0
 18 20  1  0
 20 21  1  0
 21 22  1  0
 22 23  2  0
 22 24  1  0
 24 25  2  0
 25 26  1  0
 26 27  2  0
 27 28  1  0
 28 29  2  0
 27 30  1  0
 30 31  2  0
 20 32  2  0
  8  3  1  0
 32 15  1  0
 31 24  1  0
  1 33  1  0
  1 34  1  0
  1 35  1  0
  4 36  1  0
  5 37  1  0
  6 38  1  0
  7 39  1  0
  9 40  1  0
 10 41  1  0
 16 42  1  0
 17 43  1  0
 21 44  1  0
 25 45  1  0
 26 46  1  0
 28 47  1  0
 30 48  1  0
 31 49  1  0
 32 50  1  0
M  CHG  2  14  -1  19  -1
M  END
>  <UniqueID>  (66) 
59

>  <SMILES>  (66) 
COc1ccccc1C=CS(=O)(=O)[N-]c1ccc([O-])c(NC(=O)c2ccc(C=O)cc2)c1

>  <Energy>  (66) 
72.08248517283411

>  <Genealogy>  (66) 
COc1ccccc1C=CS(=O)(=O)[N-]c1ccc([O-])c(NC(=O)c2ccc(C=O)cc2)c1 (protonated)
COc1ccccc1C=CS(=O)(=O)[N-]c1ccc([O-])c(NC(=O)c2ccc(C=O)cc2)c1 (3D coordinates assigned)
COc1ccccc1C=CS(=O)(=O)[N-]c1ccc([O-])c(NC(=O)c2ccc(C=O)cc2)c1 (optimized conformer: 72.08248517283411 kcal/mol)

>  <smiles>  (66) 
COc1ccccc1C=CS(=O)(=O)Nc1ccc(O)c(NC(=O)c2ccc(C=O)cc2)c1

>  <score_type>  (66) 
oracle

>  <origin>  (66) 
adg

>  <m_score__min__energy>  (66) 
-11.880000000000001

>  <m_primary>  (66) 
energy

$$$$
66:0
     RDKit          3D

 41 41  0  0  0  0  0  0  0  0999 V2000
   60.6270   28.9310   45.1660 C   0  0  0  0  0  0  0  0  0  0  0  0
   59.3870   29.3890   44.9720 C   0  0  0  0  0  0  0  0  0  0  0  0
   58.5420   29.8940   46.1090 C   0  0  0  0  0  0  0  0  0  0  0  0
   58.3910   31.3960   46.0380 C   0  0  0  0  0  0  0  0  0  0  0  0
   59.2910   32.2040   46.7520 C   0  0  0  0  0  0  0  0  0  0  0  0
   59.2290   33.6040   46.6600 C   0  0  0  0  0  0  0  0  0  0  0  0
   60.1310   34.4510   47.3230 O   0  0  0  0  0  0  0  0  0  0  0  0
   60.7000   34.2220   48.6140 C   0  0  0  0  0  0  0  0  0  0  0  0
   62.1750   33.8150   48.4980 C   0  0  0  0  0  0  0  0  0  0  0  0
   62.4260   33.0910   47.2330 N   0  0  0  0  0  0  0  0  0  0  0  0
   63.3490   33.8450   46.3720 C   0  0  0  0  0  0  0  0  0  0  0  0
   62.9760   31.7490   47.4920 C   0  0  0  0  0  0  0  0  0  0  0  0
   58.2280   34.1890   45.8810 C   0  0  0  0  0  0  0  0  0  0  0  0
   57.3280   33.3980   45.1660 C   0  0  0  0  0  0  0  0  0  0  0  0
   57.4080   31.9940   45.2210 C   0  0  0  0  0  0  0  0  0  0  0  0
   56.5330   31.1670   44.4940 O   0  0  0  0  0  0  0  0  0  0  0  0
   56.7820   30.6210   43.1980 C   0  0  0  0  0  0  0  0  0  0  0  0
   57.3960   31.6730   42.2780 C   0  0  0  0  0  0  0  0  0  0  0  0
   61.2192   28.5685   44.3128 H   0  0  0  0  0  0  0  0  0  0  0  0
   61.0557   28.9164   46.1789 H   0  0  0  0  0  0  0  0  0  0  0  0
   58.9729   29.3969   43.9530 H   0  0  0  0  0  0  0  0  0  0  0  0
   57.5470   29.4283   46.0537 H   0  0  0  0  0  0  0  0  0  0  0  0
   59.0340   29.6331   47.0576 H   0  0  0  0  0  0  0  0  0  0  0  0
   60.0536   31.7346   47.3909 H   0  0  0  0  0  0  0  0  0  0  0  0
   60.6266   35.1445   49.2087 H   0  0  0  0  0  0  0  0  0  0  0  0
   60.1474   33.4054   49.1018 H   0  0  0  0  0  0  0  0  0  0  0  0
   62.8011   34.7190   48.5256 H   0  0  0  0  0  0  0  0  0  0  0  0
   62.4226   33.1496   49.3382 H   0  0  0  0  0  0  0  0  0  0  0  0
   64.0495   34.4173   46.9980 H   0  0  0  0  0  0  0  0  0  0  0  0
   63.9122   33.1454   45.7369 H   0  0  0  0  0  0  0  0  0  0  0  0
   62.7758   34.5365   45.7369 H   0  0  0  0  0  0  0  0  0  0  0  0
   63.0437   31.5837   48.5774 H   0  0  0  0  0  0  0  0  0  0  0  0
   62.3164   30.9901   47.0460 H   0  0  0  0  0  0  0  0  0  0  0  0
   63.9785   31.6713   47.0460 H   0  0  0  0  0  0  0  0  0  0  0  0
   58.1484   35.2850   45.8307 H   0  0  0  0  0  0  0  0  0  0  0  0
   56.5490   33.8760   44.5539 H   0  0  0  0  0  0  0  0  0  0  0  0
   57.4764   29.7730   43.2908 H   0  0  0  0  0  0  0  0  0  0  0  0
   55.8273   30.2870   42.7656 H   0  0  0  0  0  0  0  0  0  0  0  0
   57.8586   32.4655   42.8846 H   0  0  0  0  0  0  0  0  0  0  0  0
   58.1616   31.2030   41.6432 H   0  0  0  0  0  0  0  0  0  0  0  0
   56.6103   32.1085   41.6432 H   0  0  0  0  0  0  0  0  0  0  0  0
  1  2  2  0
  2  3  1  0
  3  4  1  0
  4  5  2  0
  5  6  1  0
  6  7  1  0
  7  8  1  0
  8  9  1  0
  9 10  1  0
 10 11  1  0
 10 12  1  0
  6 13  2  0
 13 14  1  0
 14 15  2  0
 15 16  1  0
 16 17  1  0
 17 18  1  0
 15  4  1  0
  1 19  1  0
  1 20  1  0
  2 21  1  0
  3 22  1  0
  3 23  1  0
  5 24  1  0
  8 25  1  0
  8 26  1  0
  9 27  1  0
  9 28  1  0
 11 29  1  0
 11 30  1  0
 11 31  1  0
 12 32  1  0
 12 33  1  0
 12 34  1  0
 13 35  1  0
 14 36  1  0
 17 37  1  0
 17 38  1  0
 18 39  1  0
 18 40  1  0
 18 41  1  0
M  END
>  <UniqueID>  (67) 
60

>  <SMILES>  (67) 
C=CCc1cc(OCCN(C)C)ccc1OCC

>  <Energy>  (67) 
32.14212409184949

>  <Genealogy>  (67) 
C=CCc1cc(OCCN(C)C)ccc1OCC (3D coordinates assigned)
C=CCc1cc(OCCN(C)C)ccc1OCC (optimized conformer: 32.14212409184949 kcal/mol)

>  <smiles>  (67) 
C=CCc1cc(OCCN(C)C)ccc1OCC

>  <score_type>  (67) 
oracle

>  <origin>  (67) 
adg

>  <m_score__min__energy>  (67) 
-5.3499999999999996

>  <m_primary>  (67) 
energy

$$$$
67:0
     RDKit          3D

 62 65  0  0  0  0  0  0  0  0999 V2000
   57.0350   24.7860   43.4160 C   0  0  0  0  0  0  0  0  0  0  0  0
   56.6400   23.4620   44.0170 C   0  0  0  0  0  0  0  0  0  0  0  0
   57.4380   22.3370   43.7430 C   0  0  0  0  0  0  0  0  0  0  0  0
   57.1100   21.0880   44.2700 C   0  0  0  0  0  0  0  0  0  0  0  0
   55.9790   20.9420   45.0730 C   0  0  0  0  0  0  0  0  0  0  0  0
   55.1630   22.0430   45.3380 C   0  0  0  0  0  0  0  0  0  0  0  0
   55.4620   23.3070   44.7980 C   0  0  0  0  0  0  0  0  0  0  0  0
   54.5340   24.4650   45.0960 C   0  0  0  0  0  0  0  0  0  0  0  0
   55.1490   25.4100   46.0260 N   0  0  0  0  0  0  0  0  0  0  0  0
   56.3220   25.2070   46.8290 C   0  0  0  0  0  0  0  0  0  0  0  0
   56.4190   24.1280   47.4720 O   0  0  0  0  0  0  0  0  0  0  0  0
   57.4080   26.2050   46.9470 C   0  0  0  0  0  0  0  0  0  0  0  0
   58.2500   26.1230   47.8790 O   0  0  0  0  0  0  0  0  0  0  0  0
   57.5320   27.2500   45.9700 N   0  0  0  0  0  0  0  0  0  0  0  0
   58.6420   28.2050   45.9690 C   0  0  0  0  0  0  0  0  0  0  0  0
   58.1460   29.6780   46.0260 C   0  0  2  0  0  0  0  0  0  0  0  0
   57.1890   29.8760   44.8770 C   0  0  0  0  0  0  0  0  0  0  0  0
   57.4670   30.5270   43.6900 C   0  0  0  0  0  0  0  0  0  0  0  0
   56.3060   30.4600   42.9500 C   0  0  0  0  0  0  0  0  0  0  0  0
   55.3950   29.7720   43.7270 C   0  0  0  0  0  0  0  0  0  0  0  0
   55.9500   29.4350   44.8680 O   0  0  0  0  0  0  0  0  0  0  0  0
   59.2590   30.6750   45.9490 N   0  0  0  0  0  0  0  0  0  0  0  0
   60.4320   30.3690   46.7990 C   0  0  0  0  0  0  0  0  0  0  0  0
   60.1210   30.5120   48.2940 C   0  0  0  0  0  0  0  0  0  0  0  0
   59.5380   31.8310   48.5620 N   0  0  0  0  0  0  0  0  0  0  0  0
   59.7400   32.4580   49.8410 C   0  0  0  0  0  0  0  0  0  0  0  0
   61.0240   32.8830   50.2230 C   0  0  0  0  0  0  0  0  0  0  0  0
   61.2270   33.4910   51.4650 C   0  0  0  0  0  0  0  0  0  0  0  0
   60.1510   33.6770   52.3370 C   0  0  0  0  0  0  0  0  0  0  0  0
   58.8710   33.2550   51.9690 C   0  0  0  0  0  0  0  0  0  0  0  0
   58.6640   32.6460   50.7270 C   0  0  0  0  0  0  0  0  0  0  0  0
   58.4600   32.3080   47.6880 C   0  0  0  0  0  0  0  0  0  0  0  0
   58.8190   32.0710   46.2130 C   0  0  0  0  0  0  0  0  0  0  0  0
   57.2494   25.5046   44.2208 H   0  0  0  0  0  0  0  0  0  0  0  0
   57.9327   24.6532   42.7942 H   0  0  0  0  0  0  0  0  0  0  0  0
   56.2113   25.1668   42.7942 H   0  0  0  0  0  0  0  0  0  0  0  0
   58.3293   22.4430   43.1071 H   0  0  0  0  0  0  0  0  0  0  0  0
   57.7446   20.2164   44.0519 H   0  0  0  0  0  0  0  0  0  0  0  0
   55.7299   19.9584   45.4978 H   0  0  0  0  0  0  0  0  0  0  0  0
   54.2757   21.9208   45.9766 H   0  0  0  0  0  0  0  0  0  0  0  0
   54.2991   24.9873   44.1568 H   0  0  0  0  0  0  0  0  0  0  0  0
   53.6185   24.0674   45.5584 H   0  0  0  0  0  0  0  0  0  0  0  0
   56.7500   27.4040   45.2940 H   0  0  0  0  0  0  0  0  0  0  0  0
   59.2780   28.0107   46.8452 H   0  0  0  0  0  0  0  0  0  0  0  0
   59.2025   28.0722   45.0319 H   0  0  0  0  0  0  0  0  0  0  0  0
   57.6569   29.8487   46.9964 H   0  0  0  0  0  0  0  0  0  0  0  0
   58.4161   30.9997   43.3971 H   0  0  0  0  0  0  0  0  0  0  0  0
   56.1389   30.8715   41.9437 H   0  0  0  0  0  0  0  0  0  0  0  0
   54.3602   29.5411   43.4340 H   0  0  0  0  0  0  0  0  0  0  0  0
   60.7518   29.3352   46.6016 H   0  0  0  0  0  0  0  0  0  0  0  0
   61.2250   31.0895   46.5500 H   0  0  0  0  0  0  0  0  0  0  0  0
   59.4071   29.7306   48.5938 H   0  0  0  0  0  0  0  0  0  0  0  0
   61.0533   30.4063   48.8681 H   0  0  0  0  0  0  0  0  0  0  0  0
   61.8741   32.7363   49.5405 H   0  0  0  0  0  0  0  0  0  0  0  0
   62.2343   33.8233   51.7562 H   0  0  0  0  0  0  0  0  0  0  0  0
   60.3119   34.1561   53.3140 H   0  0  0  0  0  0  0  0  0  0  0  0
   58.0251   33.4018   52.6567 H   0  0  0  0  0  0  0  0  0  0  0  0
   57.6552   32.3126   50.4419 H   0  0  0  0  0  0  0  0  0  0  0  0
   57.5334   31.7654   47.9268 H   0  0  0  0  0  0  0  0  0  0  0  0
   58.3203   33.3868   47.8514 H   0  0  0  0  0  0  0  0  0  0  0  0
   57.9334   32.2840   45.5962 H   0  0  0  0  0  0  0  0  0  0  0  0
   59.6574   32.7377   45.9627 H   0  0  0  0  0  0  0  0  0  0  0  0
  1  2  1  0
  2  3  2  0
  3  4  1  0
  4  5  2  0
  5  6  1  0
  6  7  2  0
  7  8  1  0
  8  9  1  0
  9 10  1  0
 10 11  2  0
 10 12  1  0
 12 13  2  0
 12 14  1  0
 14 15  1  0
 15 16  1  0
 16 17  1  0
 17 18  2  0
 18 19  1  0
 19 20  2  0
 20 21  1  0
 16 22  1  0
 22 23  1  0
 23 24  1  0
 24 25  1  0
 25 26  1  0
 26 27  2  0
 27 28  1  0
 28 29  2  0
 29 30  1  0
 30 31  2  0
 25 32  1  0
 32 33  1  0
  7  2  1  0
 21 17  1  0
 33 22  1  0
 31 26  1  0
  1 34  1  0
  1 35  1  0
  1 36  1  0
  3 37  1  0
  4 38  1  0
  5 39  1  0
  6 40  1  0
  8 41  1  0
  8 42  1  0
 14 43  1  0
 15 44  1  0
 15 45  1  0
 16 46  1  1
 18 47  1  0
 19 48  1  0
 20 49  1  0
 23 50  1  0
 23 51  1  0
 24 52  1  0
 24 53  1  0
 27 54  1  0
 28 55  1  0
 29 56  1  0
 30 57  1  0
 31 58  1  0
 32 59  1  0
 32 60  1  0
 33 61  1  0
 33 62  1  0
M  CHG  1   9  -1
M  END
>  <UniqueID>  (68) 
61

>  <SMILES>  (68) 
Cc1ccccc1C[N-]C(=O)C(=O)NC[C@H](c1ccco1)N1CCN(c2ccccc2)CC1

>  <Energy>  (68) 
100.93167920371164

>  <Genealogy>  (68) 
Cc1ccccc1C[N-]C(=O)C(=O)NCC(c1ccco1)N1CCN(c2ccccc2)CC1 (protonated)
Cc1ccccc1C[N-]C(=O)C(=O)NC[C@H](c1ccco1)N1CCN(c2ccccc2)CC1 (chirality)
Cc1ccccc1C[N-]C(=O)C(=O)NC[C@H](c1ccco1)N1CCN(c2ccccc2)CC1 (3D coordinates assigned)
Cc1ccccc1C[N-]C(=O)C(=O)NC[C@H](c1ccco1)N1CCN(c2ccccc2)CC1 (nonaromatic ring conformer: 100.93167920371164 kcal/mol)

>  <smiles>  (68) 
Cc1ccccc1CNC(=O)C(=O)NCC(c1ccco1)N1CCN(c2ccccc2)CC1

>  <score_type>  (68) 
oracle

>  <origin>  (68) 
adg

>  <m_score__min__energy>  (68) 
-10.369999999999999

>  <m_primary>  (68) 
energy

$$$$
68:0
     RDKit          3D

 63 66  0  0  0  0  0  0  0  0999 V2000
   59.8280   35.7500   46.5582 H   0  0  0  0  0  0  0  0  0  0  0  0
   59.2470   34.8890   46.1960 C   0  0  0  0  0  0  0  0  0  0  0  0
   59.2770   34.5450   44.8420 C   0  0  0  0  0  0  0  0  0  0  0  0
   59.8836   35.1348   44.1390 H   0  0  0  0  0  0  0  0  0  0  0  0
   58.5370   33.4520   44.3790 C   0  0  0  0  0  0  0  0  0  0  0  0
   58.5679   33.1809   43.3134 H   0  0  0  0  0  0  0  0  0  0  0  0
   57.7540   32.6990   45.2710 C   0  0  0  0  0  0  0  0  0  0  0  0
   56.9940   31.4950   44.7830 C   0  0  0  0  0  0  0  0  0  0  0  0
   56.8086   31.5947   43.7033 H   0  0  0  0  0  0  0  0  0  0  0  0
   56.0375   31.4298   45.3224 H   0  0  0  0  0  0  0  0  0  0  0  0
   57.7900   30.2430   45.0380 C   0  0  0  0  0  0  0  0  0  0  0  0
   57.5470   29.0880   44.2910 C   0  0  0  0  0  0  0  0  0  0  0  0
   56.7467   29.0847   43.5363 H   0  0  0  0  0  0  0  0  0  0  0  0
   58.3140   27.9340   44.4950 C   0  0  0  0  0  0  0  0  0  0  0  0
   58.0150   26.7220   43.6870 C   0  0  0  0  0  0  0  0  0  0  0  0
   57.9930   26.8170   42.4290 O   0  0  0  0  0  0  0  0  0  0  0  0
   57.7100   25.3920   44.3300 C   0  0  0  0  0  0  0  0  0  0  0  0
   56.9456   24.8738   43.7324 H   0  0  0  0  0  0  0  0  0  0  0  0
   58.6413   24.8079   44.3695 H   0  0  0  0  0  0  0  0  0  0  0  0
   57.2000   25.5590   45.7360 C   0  0  0  0  0  0  0  0  0  0  0  0
   58.0250   25.6030   46.6890 O   0  0  0  0  0  0  0  0  0  0  0  0
   55.7600   25.6250   46.0260 C   0  0  0  0  0  0  0  0  0  0  0  0
   55.1440   26.7230   45.9750 O   0  0  0  0  0  0  0  0  0  0  0  0
   55.0620   24.4690   46.3490 O   0  0  0  0  0  0  0  0  0  0  0  0
   59.3240   27.9610   45.4830 C   0  0  0  0  0  0  0  0  0  0  0  0
   59.9890   26.9170   45.7260 O   0  0  0  0  0  0  0  0  0  0  0  0
   59.5670   29.1090   46.1980 N   0  0  0  0  0  0  0  0  0  0  0  0
   60.5900   29.1430   47.2570 C   0  0  0  0  0  0  0  0  0  0  0  0
   61.5496   29.4641   46.8256 H   0  0  0  0  0  0  0  0  0  0  0  0
   60.6922   28.1374   47.6909 H   0  0  0  0  0  0  0  0  0  0  0  0
   60.1830   30.1080   48.3400 C   0  0  0  0  0  0  0  0  0  0  0  0
   60.6690   31.4240   48.3380 C   0  0  0  0  0  0  0  0  0  0  0  0
   61.3854   31.7405   47.5656 H   0  0  0  0  0  0  0  0  0  0  0  0
   60.2490   32.3360   49.3110 C   0  0  0  0  0  0  0  0  0  0  0  0
   60.6475   33.3613   49.3066 H   0  0  0  0  0  0  0  0  0  0  0  0
   59.3210   31.9520   50.2950 C   0  0  0  0  0  0  0  0  0  0  0  0
   58.8660   32.9170   51.3240 C   0  0  0  0  0  0  0  0  0  0  0  0
   59.6600   33.8030   51.7430 O   0  0  0  0  0  0  0  0  0  0  0  0
   57.5600   32.7770   51.9090 N   0  0  0  0  0  0  0  0  0  0  0  0
   57.0320   31.7290   52.4810 C   0  0  0  0  0  0  0  0  0  0  0  0
   55.8070   31.2560   51.9910 C   0  0  0  0  0  0  0  0  0  0  0  0
   55.3257   31.7571   51.1382 H   0  0  0  0  0  0  0  0  0  0  0  0
   55.1950   30.1450   52.5870 C   0  0  0  0  0  0  0  0  0  0  0  0
   53.8980   29.6110   52.0490 C   0  0  0  0  0  0  0  0  0  0  0  0
   53.2380   29.3393   52.8860 H   0  0  0  0  0  0  0  0  0  0  0  0
   53.4112   30.3819   51.4335 H   0  0  0  0  0  0  0  0  0  0  0  0
   54.0951   28.7209   51.4335 H   0  0  0  0  0  0  0  0  0  0  0  0
   55.8280   29.5140   53.6650 C   0  0  0  0  0  0  0  0  0  0  0  0
   55.2740   28.4250   54.2550 F   0  0  0  0  0  0  0  0  0  0  0  0
   57.0370   30.0210   54.1420 C   0  0  0  0  0  0  0  0  0  0  0  0
   57.5320   29.5369   54.9968 H   0  0  0  0  0  0  0  0  0  0  0  0
   57.6090   31.1090   53.5590 N   0  0  0  0  0  0  0  0  0  0  0  0
   58.4830   31.4700   53.9980 H   0  0  0  0  0  0  0  0  0  0  0  0
   58.8310   30.6340   50.2890 C   0  0  0  0  0  0  0  0  0  0  0  0
   58.1029   30.3196   51.0512 H   0  0  0  0  0  0  0  0  0  0  0  0
   59.2610   29.7200   49.3230 C   0  0  0  0  0  0  0  0  0  0  0  0
   58.8740   28.6904   49.3338 H   0  0  0  0  0  0  0  0  0  0  0  0
   58.8210   30.2350   45.9820 C   0  0  0  0  0  0  0  0  0  0  0  0
   59.0353   31.1467   46.5590 H   0  0  0  0  0  0  0  0  0  0  0  0
   57.7360   33.0440   46.6320 C   0  0  0  0  0  0  0  0  0  0  0  0
   57.1369   32.4525   47.3399 H   0  0  0  0  0  0  0  0  0  0  0  0
   58.4780   34.1380   47.0900 C   0  0  0  0  0  0  0  0  0  0  0  0
   58.4563   34.4080   48.1561 H   0  0  0  0  0  0  0  0  0  0  0  0
  1  2  1  0
  2  3  2  0
  3  4  1  0
  3  5  1  0
  5  6  1  0
  5  7  2  0
  7  8  1  0
  8  9  1  0
  8 10  1  0
  8 11  1  0
 11 12  1  0
 12 13  1  0
 12 14  2  0
 14 15  1  0
 15 16  2  0
 15 17  1  0
 17 18  1  0
 17 19  1  0
 17 20  1  0
 20 21  2  0
 20 22  1  0
 22 23  2  0
 22 24  1  0
 14 25  1  0
 25 26  2  0
 25 27  1  0
 27 28  1  0
 28 29  1  0
 28 30  1  0
 28 31  1  0
 31 32  2  0
 32 33  1  0
 32 34  1  0
 34 35  1  0
 34 36  2  0
 36 37  1  0
 37 38  2  0
 37 39  1  0
 39 40  2  0
 40 41  1  0
 41 42  1  0
 41 43  2  0
 43 44  1  0
 44 45  1  0
 44 46  1  0
 44 47  1  0
 43 48  1  0
 48 49  1  0
 48 50  2  0
 50 51  1  0
 50 52  1  0
 52 53  1  0
 36 54  1  0
 54 55  1  0
 54 56  2  0
 56 57  1  0
 27 58  1  0
 58 59  1  0
  7 60  1  0
 60 61  1  0
 60 62  2  0
 62 63  1  0
 62  2  1  0
 58 11  2  0
 56 31  1  0
 52 40  1  0
M  CHG  1  24  -1
M  END
>  <UniqueID>  (69) 
62

>  <SMILES>  (69) 
Cc1c/c(=N/C(=O)c2ccc(Cn3cc(Cc4ccccc4)cc(C(=O)CC(=O)C(=O)[O-])c3=O)cc2)[nH]cc1F

>  <Energy>  (69) 
78.77099416872154

>  <Genealogy>  (69) 
Cc1cc(=NC(=O)c2ccc(Cn3cc(Cc4ccccc4)cc(C(=O)CC(=O)C(=O)[O-])c3=O)cc2)[nH]cc1F (protonated)
Cc1c/c(=N/C(=O)c2ccc(Cn3cc(Cc4ccccc4)cc(C(=O)CC(=O)C(=O)[O-])c3=O)cc2)[nH]cc1F (cis-trans isomerization)
Cc1c/c(=N/C(=O)c2ccc(Cn3cc(Cc4ccccc4)cc(C(=O)CC(=O)C(=O)[O-])c3=O)cc2)[nH]cc1F (3D coordinates assigned)
Cc1c/c(=N/C(=O)c2ccc(Cn3cc(Cc4ccccc4)cc(C(=O)CC(=O)C(=O)[O-])c3=O)cc2)[nH]cc1F (optimized conformer: 78.77099416872154 kcal/mol)

>  <smiles>  (69) 
Cc1cc(=NC(=O)c2ccc(Cn3cc(Cc4ccccc4)cc(C(=O)CC(=O)C(=O)O)c3=O)cc2)[nH]cc1F

>  <score_type>  (69) 
oracle

>  <origin>  (69) 
adg

>  <m_score__min__energy>  (69) 
-13.06

>  <m_primary>  (69) 
energy

$$$$
69:0
     RDKit          3D

 55 57  0  0  0  0  0  0  0  0999 V2000
   58.1940   22.2950   44.2970 C   0  0  0  0  0  0  0  0  0  0  0  0
   56.9230   21.5400   43.9480 C   0  0  0  0  0  0  0  0  0  0  0  0
   55.9780   22.4380   43.3760 O   0  0  0  0  0  0  0  0  0  0  0  0
   55.2640   23.3700   44.1350 C   0  0  0  0  0  0  0  0  0  0  0  0
   53.8690   23.3640   44.0940 C   0  0  0  0  0  0  0  0  0  0  0  0
   53.1740   24.3030   44.8610 C   0  0  0  0  0  0  0  0  0  0  0  0
   51.6800   24.3240   44.8640 C   0  0  0  0  0  0  0  0  0  0  0  0
   53.8640   25.1860   45.6300 N   0  0  0  0  0  0  0  0  0  0  0  0
   55.2260   25.1910   45.6510 C   0  0  0  0  0  0  0  0  0  0  0  0
   55.8850   26.0340   46.3910 N   0  0  0  0  0  0  0  0  0  0  0  0
   57.3090   26.0540   46.5880 C   0  0  0  0  0  0  0  0  0  0  0  0
   57.8410   25.1000   47.2160 O   0  0  0  0  0  0  0  0  0  0  0  0
   58.1720   27.1190   46.0230 C   0  0  0  0  0  0  0  0  0  0  0  0
   58.4440   27.1700   44.6440 C   0  0  0  0  0  0  0  0  0  0  0  0
   59.2640   28.1740   44.1240 C   0  0  0  0  0  0  0  0  0  0  0  0
   59.8350   29.1250   44.9730 C   0  0  0  0  0  0  0  0  0  0  0  0
   59.5940   29.0720   46.3520 C   0  0  0  0  0  0  0  0  0  0  0  0
   60.3410   30.2610   47.4160 S   0  0  0  0  0  0  0  0  0  0  0  0
   60.7440   29.5780   48.6930 O   0  0  0  0  0  0  0  0  0  0  0  0
   61.5650   30.8470   46.7680 O   0  0  0  0  0  0  0  0  0  0  0  0
   59.2200   31.5480   47.7490 N   0  0  0  0  0  0  0  0  0  0  0  0
   58.5530   31.6180   49.0460 C   0  0  0  0  0  0  0  0  0  0  0  0
   58.9800   32.5630   46.7640 C   0  0  0  0  0  0  0  0  0  0  0  0
   59.6700   33.7840   46.8440 C   0  0  0  0  0  0  0  0  0  0  0  0
   59.4400   34.7860   45.9000 C   0  0  0  0  0  0  0  0  0  0  0  0
   58.5210   34.5790   44.8700 C   0  0  0  0  0  0  0  0  0  0  0  0
   57.8320   33.3670   44.7770 C   0  0  0  0  0  0  0  0  0  0  0  0
   58.0600   32.3440   45.7200 C   0  0  0  0  0  0  0  0  0  0  0  0
   57.4080   31.1030   45.6410 O   0  0  0  0  0  0  0  0  0  0  0  0
   56.8320   30.5650   44.4560 C   0  0  0  0  0  0  0  0  0  0  0  0
   58.7620   28.0720   46.8740 C   0  0  0  0  0  0  0  0  0  0  0  0
   55.9110   24.2800   44.9120 N   0  0  0  0  0  0  0  0  0  0  0  0
   58.2959   22.3556   45.3906 H   0  0  0  0  0  0  0  0  0  0  0  0
   59.0619   21.7659   43.8766 H   0  0  0  0  0  0  0  0  0  0  0  0
   58.1446   23.3103   43.8766 H   0  0  0  0  0  0  0  0  0  0  0  0
   57.1563   20.7442   43.2253 H   0  0  0  0  0  0  0  0  0  0  0  0
   56.4993   21.0950   44.8604 H   0  0  0  0  0  0  0  0  0  0  0  0
   53.3283   22.6360   43.4715 H   0  0  0  0  0  0  0  0  0  0  0  0
   51.3155   24.3291   45.9018 H   0  0  0  0  0  0  0  0  0  0  0  0
   51.3250   25.2272   44.3462 H   0  0  0  0  0  0  0  0  0  0  0  0
   51.2997   23.4311   44.3462 H   0  0  0  0  0  0  0  0  0  0  0  0
   58.0089   26.4157   43.9719 H   0  0  0  0  0  0  0  0  0  0  0  0
   59.4608   28.2160   43.0426 H   0  0  0  0  0  0  0  0  0  0  0  0
   60.4753   29.9173   44.5578 H   0  0  0  0  0  0  0  0  0  0  0  0
   59.3017   31.5394   49.8480 H   0  0  0  0  0  0  0  0  0  0  0  0
   58.0212   32.5769   49.1335 H   0  0  0  0  0  0  0  0  0  0  0  0
   57.8337   30.7904   49.1335 H   0  0  0  0  0  0  0  0  0  0  0  0
   60.3949   33.9512   47.6543 H   0  0  0  0  0  0  0  0  0  0  0  0
   59.9836   35.7399   45.9678 H   0  0  0  0  0  0  0  0  0  0  0  0
   58.3387   35.3719   44.1297 H   0  0  0  0  0  0  0  0  0  0  0  0
   57.1080   33.2102   43.9639 H   0  0  0  0  0  0  0  0  0  0  0  0
   56.0525   29.8370   44.7251 H   0  0  0  0  0  0  0  0  0  0  0  0
   56.3861   31.3775   43.8635 H   0  0  0  0  0  0  0  0  0  0  0  0
   57.6122   30.0647   43.8635 H   0  0  0  0  0  0  0  0  0  0  0  0
   58.5689   28.0319   47.9562 H   0  0  0  0  0  0  0  0  0  0  0  0
  1  2  1  0
  2  3  1  0
  3  4  1  0
  4  5  1  0
  5  6  2  0
  6  7  1  0
  6  8  1  0
  8  9  1  0
  9 10  2  3
 10 11  1  0
 11 12  2  0
 11 13  1  0
 13 14  2  0
 14 15  1  0
 15 16  2  0
 16 17  1  0
 17 18  1  0
 18 19  2  0
 18 20  2  0
 18 21  1  0
 21 22  1  0
 21 23  1  0
 23 24  2  0
 24 25  1  0
 25 26  2  0
 26 27  1  0
 27 28  2  0
 28 29  1  0
 29 30  1  0
 17 31  2  0
  9 32  1  0
 32  4  2  0
 31 13  1  0
 28 23  1  0
  1 33  1  0
  1 34  1  0
  1 35  1  0
  2 36  1  0
  2 37  1  0
  5 38  1  0
  7 39  1  0
  7 40  1  0
  7 41  1  0
 14 42  1  0
 15 43  1  0
 16 44  1  0
 22 45  1  0
 22 46  1  0
 22 47  1  0
 24 48  1  0
 25 49  1  0
 26 50  1  0
 27 51  1  0
 30 52  1  0
 30 53  1  0
 30 54  1  0
 31 55  1  0
M  CHG  1   8  -1
M  END
>  <UniqueID>  (70) 
63

>  <SMILES>  (70) 
CCOc1cc(C)[n-]c(=NC(=O)c2cccc(S(=O)(=O)N(C)c3ccccc3OC)c2)n1

>  <Energy>  (70) 
64.33117381838944

>  <Genealogy>  (70) 
CCOc1cc(C)[n-]c(=NC(=O)c2cccc(S(=O)(=O)N(C)c3ccccc3OC)c2)n1 (protonated)
CCOc1cc(C)[n-]c(=NC(=O)c2cccc(S(=O)(=O)N(C)c3ccccc3OC)c2)n1 (3D coordinates assigned)
CCOc1cc(C)[n-]c(=NC(=O)c2cccc(S(=O)(=O)N(C)c3ccccc3OC)c2)n1 (optimized conformer: 64.33117381838944 kcal/mol)

>  <smiles>  (70) 
CCOc1cc(C)[nH]c(=NC(=O)c2cccc(S(=O)(=O)N(C)c3ccccc3OC)c2)n1

>  <score_type>  (70) 
oracle

>  <origin>  (70) 
adg

>  <m_score__min__energy>  (70) 
-10.949999999999999

>  <m_primary>  (70) 
energy

$$$$
70:0
     RDKit          3D

 50 52  0  0  0  0  0  0  0  0999 V2000
   59.0030   34.9250   47.0190 C   0  0  0  0  0  0  0  0  0  0  0  0
   60.0520   34.7110   47.9580 O   0  0  0  0  0  0  0  0  0  0  0  0
   60.9890   33.6700   47.8750 C   0  0  0  0  0  0  0  0  0  0  0  0
   60.7410   32.4850   47.1580 C   0  0  0  0  0  0  0  0  0  0  0  0
   61.7060   31.4710   47.0990 C   0  0  0  0  0  0  0  0  0  0  0  0
   61.4100   30.2600   46.3810 N   0  0  0  0  0  0  0  0  0  0  0  0
   60.2120   29.4880   46.5610 C   0  0  0  0  0  0  0  0  0  0  0  0
   59.4420   29.7110   47.5340 O   0  0  0  0  0  0  0  0  0  0  0  0
   59.9130   28.3460   45.6360 C   0  0  0  0  0  0  0  0  0  0  0  0
   58.4420   28.0210   45.6200 C   0  0  0  0  0  0  0  0  0  0  0  0
   57.7650   26.5700   46.1600 S   0  0  0  0  0  0  0  0  0  0  0  0
   56.2020   27.0500   45.7910 C   0  0  0  0  0  0  0  0  0  0  0  0
   55.1560   26.3140   45.9980 N   0  0  0  0  0  0  0  0  0  0  0  0
   55.1860   24.5830   45.9060 S   0  0  0  0  0  0  0  0  0  0  0  0
   56.1690   24.0940   44.5070 C   0  0  0  0  0  0  0  0  0  0  0  0
   55.7940   24.0160   47.1580 O   0  0  0  0  0  0  0  0  0  0  0  0
   53.7880   24.0590   45.7340 O   0  0  0  0  0  0  0  0  0  0  0  0
   56.1610   28.2850   45.2460 N   0  0  0  0  0  0  0  0  0  0  0  0
   57.4020   28.8300   45.1290 C   0  0  0  0  0  0  0  0  0  0  0  0
   57.5820   30.1630   44.5180 C   0  0  0  0  0  0  0  0  0  0  0  0
   57.3300   30.3720   43.1510 C   0  0  0  0  0  0  0  0  0  0  0  0
   57.4720   31.6470   42.5940 C   0  0  0  0  0  0  0  0  0  0  0  0
   57.8550   32.7240   43.3990 C   0  0  0  0  0  0  0  0  0  0  0  0
   58.0880   32.5290   44.7630 C   0  0  0  0  0  0  0  0  0  0  0  0
   57.9460   31.2550   45.3230 C   0  0  0  0  0  0  0  0  0  0  0  0
   62.9170   31.6310   47.7950 C   0  0  0  0  0  0  0  0  0  0  0  0
   63.1770   32.8140   48.5120 C   0  0  0  0  0  0  0  0  0  0  0  0
   64.3740   33.0220   49.2120 O   0  0  0  0  0  0  0  0  0  0  0  0
   64.9880   32.0570   50.0620 C   0  0  0  0  0  0  0  0  0  0  0  0
   62.2110   33.8240   48.5390 C   0  0  0  0  0  0  0  0  0  0  0  0
   58.0629   35.1168   47.5569 H   0  0  0  0  0  0  0  0  0  0  0  0
   59.2474   35.7918   46.3874 H   0  0  0  0  0  0  0  0  0  0  0  0
   58.8884   34.0317   46.3874 H   0  0  0  0  0  0  0  0  0  0  0  0
   59.7802   32.3535   46.6388 H   0  0  0  0  0  0  0  0  0  0  0  0
   62.1490   29.8690   45.7530 H   0  0  0  0  0  0  0  0  0  0  0  0
   60.2305   28.6174   44.6184 H   0  0  0  0  0  0  0  0  0  0  0  0
   60.4590   27.4601   45.9926 H   0  0  0  0  0  0  0  0  0  0  0  0
   57.1021   23.6298   44.8588 H   0  0  0  0  0  0  0  0  0  0  0  0
   55.6064   23.3707   43.8984 H   0  0  0  0  0  0  0  0  0  0  0  0
   56.4065   24.9790   43.8984 H   0  0  0  0  0  0  0  0  0  0  0  0
   57.0197   29.5288   42.5164 H   0  0  0  0  0  0  0  0  0  0  0  0
   57.2822   31.8025   41.5217 H   0  0  0  0  0  0  0  0  0  0  0  0
   57.9730   33.7251   42.9586 H   0  0  0  0  0  0  0  0  0  0  0  0
   58.3833   33.3781   45.3969 H   0  0  0  0  0  0  0  0  0  0  0  0
   58.1202   31.1076   46.3991 H   0  0  0  0  0  0  0  0  0  0  0  0
   63.6665   30.8261   47.7791 H   0  0  0  0  0  0  0  0  0  0  0  0
   64.8139   32.3306   51.1131 H   0  0  0  0  0  0  0  0  0  0  0  0
   64.5543   31.0656   49.8645 H   0  0  0  0  0  0  0  0  0  0  0  0
   66.0698   32.0299   49.8645 H   0  0  0  0  0  0  0  0  0  0  0  0
   62.4145   34.7538   49.0905 H   0  0  0  0  0  0  0  0  0  0  0  0
  1  2  1  0
  2  3  1  0
  3  4  2  0
  4  5  1  0
  5  6  1  0
  6  7  1  0
  7  8  2  0
  7  9  1  0
  9 10  1  0
 10 11  1  0
 11 12  1  0
 12 13  2  3
 13 14  1  0
 14 15  1  0
 14 16  2  0
 14 17  2  0
 12 18  1  0
 18 19  1  0
 19 20  1  0
 20 21  2  0
 21 22  1  0
 22 23  2  0
 23 24  1  0
 24 25  2  0
  5 26  2  0
 26 27  1  0
 27 28  1  0
 28 29  1  0
 27 30  2  0
 30  3  1  0
 19 10  2  0
 25 20  1  0
  1 31  1  0
  1 32  1  0
  1 33  1  0
  4 34  1  0
  6 35  1  0
  9 36  1  0
  9 37  1  0
 15 38  1  0
 15 39  1  0
 15 40  1  0
 21 41  1  0
 22 42  1  0
 23 43  1  0
 24 44  1  0
 25 45  1  0
 26 46  1  0
 29 47  1  0
 29 48  1  0
 29 49  1  0
 30 50  1  0
M  CHG  1  18  -1
M  END
>  <UniqueID>  (71) 
64

>  <SMILES>  (71) 
COc1cc(NC(=O)Cc2sc(=NS(C)(=O)=O)[n-]c2-c2ccccc2)cc(OC)c1

>  <Energy>  (71) 
85.9882755289413

>  <Genealogy>  (71) 
COc1cc(NC(=O)Cc2sc(=NS(C)(=O)=O)[n-]c2-c2ccccc2)cc(OC)c1 (protonated)
COc1cc(NC(=O)Cc2sc(=NS(C)(=O)=O)[n-]c2-c2ccccc2)cc(OC)c1 (3D coordinates assigned)
COc1cc(NC(=O)Cc2sc(=NS(C)(=O)=O)[n-]c2-c2ccccc2)cc(OC)c1 (optimized conformer: 85.9882755289413 kcal/mol)

>  <smiles>  (71) 
COc1cc(NC(=O)Cc2sc(=NS(C)(=O)=O)[nH]c2-c2ccccc2)cc(OC)c1

>  <score_type>  (71) 
oracle

>  <origin>  (71) 
adg

>  <m_score__min__energy>  (71) 
-10.550000000000001

>  <m_primary>  (71) 
energy

$$$$
71:0
     RDKit          3D

 51 54  0  0  0  0  0  0  0  0999 V2000
   53.0550   30.4510   54.6710 O   0  0  0  0  0  0  0  0  0  0  0  0
   53.2920   30.5450   53.4370 C   0  0  0  0  0  0  0  0  0  0  0  0
   54.3740   29.7810   52.8840 N   0  0  0  0  0  0  0  0  0  0  0  0
   55.5100   30.2540   52.4600 C   0  0  0  0  0  0  0  0  0  0  0  0
   55.9100   31.5800   52.4570 C   0  0  0  0  0  0  0  0  0  0  0  0
   57.1950   31.5370   51.9480 C   0  0  0  0  0  0  0  0  0  0  0  0
   58.0880   32.7080   51.8370 C   0  0  0  0  0  0  0  0  0  0  0  0
   57.7310   33.8310   52.2820 O   0  0  0  0  0  0  0  0  0  0  0  0
   59.3510   32.5670   51.1830 N   0  0  0  0  0  0  0  0  0  0  0  0
   60.1900   33.7040   50.8250 C   0  0  0  0  0  0  0  0  0  0  0  0
   59.6880   34.3470   49.5280 C   0  0  0  0  0  0  0  0  0  0  0  0
   60.3980   33.8110   48.2730 C   0  0  0  0  0  0  0  0  0  0  0  0
   59.4690   33.0410   47.3680 C   0  0  0  0  0  0  0  0  0  0  0  0
   58.2990   33.6390   46.8710 C   0  0  0  0  0  0  0  0  0  0  0  0
   57.4430   32.9220   46.0300 C   0  0  0  0  0  0  0  0  0  0  0  0
   57.7500   31.6040   45.6770 C   0  0  0  0  0  0  0  0  0  0  0  0
   56.9050   30.8980   44.8300 O   0  0  0  0  0  0  0  0  0  0  0  0
   58.9070   30.9990   46.1750 C   0  0  0  0  0  0  0  0  0  0  0  0
   59.7620   31.7110   47.0230 C   0  0  0  0  0  0  0  0  0  0  0  0
   57.5110   30.2480   51.6720 N   0  0  0  0  0  0  0  0  0  0  0  0
   58.7130   29.7380   51.0760 C   0  0  0  0  0  0  0  0  0  0  0  0
   58.8310   29.6850   49.6780 C   0  0  0  0  0  0  0  0  0  0  0  0
   60.0140   29.2260   49.0880 C   0  0  0  0  0  0  0  0  0  0  0  0
   61.0890   28.8320   49.8890 C   0  0  0  0  0  0  0  0  0  0  0  0
   60.9860   28.9030   51.2820 C   0  0  0  0  0  0  0  0  0  0  0  0
   59.8050   29.3620   51.8750 C   0  0  0  0  0  0  0  0  0  0  0  0
   56.4920   29.4650   51.9930 N   0  0  0  0  0  0  0  0  0  0  0  0
   52.4000   31.3650   52.5940 C   0  0  0  0  0  0  0  0  0  0  0  0
   51.3300   32.1210   53.0370 C   0  0  0  0  0  0  0  0  0  0  0  0
   50.7100   32.7240   52.0020 N   0  0  0  0  0  0  0  0  0  0  0  0
   51.3900   32.3310   50.9100 C   0  0  0  0  0  0  0  0  0  0  0  0
   51.0600   32.7350   49.6220 O   0  0  0  0  0  0  0  0  0  0  0  0
   52.4330   31.4890   51.2210 C   0  0  0  0  0  0  0  0  0  0  0  0
   55.3388   32.4616   52.7834 H   0  0  0  0  0  0  0  0  0  0  0  0
   60.1583   34.4478   51.6348 H   0  0  0  0  0  0  0  0  0  0  0  0
   61.2221   33.3543   50.6752 H   0  0  0  0  0  0  0  0  0  0  0  0
   58.6105   34.1471   49.4326 H   0  0  0  0  0  0  0  0  0  0  0  0
   59.9038   35.4238   49.5915 H   0  0  0  0  0  0  0  0  0  0  0  0
   60.8124   34.6615   47.7118 H   0  0  0  0  0  0  0  0  0  0  0  0
   61.1884   33.1217   48.6050 H   0  0  0  0  0  0  0  0  0  0  0  0
   58.0554   34.6761   47.1449 H   0  0  0  0  0  0  0  0  0  0  0  0
   56.5272   33.3948   45.6456 H   0  0  0  0  0  0  0  0  0  0  0  0
   59.1459   29.9611   45.8998 H   0  0  0  0  0  0  0  0  0  0  0  0
   60.6666   31.2279   47.4209 H   0  0  0  0  0  0  0  0  0  0  0  0
   57.9908   30.0053   49.0444 H   0  0  0  0  0  0  0  0  0  0  0  0
   60.0977   29.1753   47.9924 H   0  0  0  0  0  0  0  0  0  0  0  0
   62.0163   28.4660   49.4240 H   0  0  0  0  0  0  0  0  0  0  0  0
   61.8345   28.5976   51.9120 H   0  0  0  0  0  0  0  0  0  0  0  0
   59.7315   29.4286   52.9705 H   0  0  0  0  0  0  0  0  0  0  0  0
   51.0261   32.2174   54.0898 H   0  0  0  0  0  0  0  0  0  0  0  0
   53.1409   31.0164   50.5242 H   0  0  0  0  0  0  0  0  0  0  0  0
  1  2  2  0
  2  3  1  0
  3  4  2  3
  4  5  1  0
  5  6  2  0
  6  7  1  0
  7  8  2  0
  7  9  1  0
  9 10  1  0
 10 11  1  0
 11 12  1  0
 12 13  1  0
 13 14  2  0
 14 15  1  0
 15 16  2  0
 16 17  1  0
 16 18  1  0
 18 19  2  0
  6 20  1  0
 20 21  1  0
 21 22  2  0
 22 23  1  0
 23 24  2  0
 24 25  1  0
 25 26  2  0
 20 27  1  0
  2 28  1  0
 28 29  2  0
 29 30  1  0
 30 31  1  0
 31 32  1  0
 31 33  2  0
 27  4  1  0
 33 28  1  0
 19 13  1  0
 26 21  1  0
  5 34  1  0
 10 35  1  0
 10 36  1  0
 11 37  1  0
 11 38  1  0
 12 39  1  0
 12 40  1  0
 14 41  1  0
 15 42  1  0
 18 43  1  0
 19 44  1  0
 22 45  1  0
 23 46  1  0
 24 47  1  0
 25 48  1  0
 26 49  1  0
 29 50  1  0
 33 51  1  0
M  CHG  5   9  -1  17  -1  27  -1  30  -1  32  -1
M  END
>  <UniqueID>  (72) 
65

>  <SMILES>  (72) 
O=C(N=c1cc(C(=O)[N-]CCCc2ccc([O-])cc2)n(-c2ccccc2)[n-]1)c1c[n-]c([O-])c1

>  <Energy>  (72) 
114.68842550783191

>  <Genealogy>  (72) 
O=C(N=c1cc(C(=O)[N-]CCCc2ccc([O-])cc2)n(-c2ccccc2)[n-]1)c1c[n-]c([O-])c1 (protonated)
O=C(N=c1cc(C(=O)[N-]CCCc2ccc([O-])cc2)n(-c2ccccc2)[n-]1)c1c[n-]c([O-])c1 (3D coordinates assigned)
O=C(N=c1cc(C(=O)[N-]CCCc2ccc([O-])cc2)n(-c2ccccc2)[n-]1)c1c[n-]c([O-])c1 (optimized conformer: 114.68842550783191 kcal/mol)

>  <smiles>  (72) 
O=C(N=c1cc(C(=O)NCCCc2ccc(O)cc2)n(-c2ccccc2)[nH]1)c1c[nH]c(O)c1

>  <score_type>  (72) 
oracle

>  <origin>  (72) 
adg

>  <m_score__min__energy>  (72) 
-21.120000000000001

>  <m_primary>  (72) 
energy

$$$$
72:0
     RDKit          3D

 70 75  0  0  0  0  0  0  0  0999 V2000
   56.9020   34.7200   44.8610 N   0  0  0  0  0  0  0  0  0  0  0  0
   58.1700   34.0060   45.0450 C   0  0  1  0  0  0  0  0  0  0  0  0
   58.0760   33.0290   46.2470 C   0  0  0  0  0  0  0  0  0  0  0  0
   57.7430   31.5750   45.8470 C   0  0  0  0  0  0  0  0  0  0  0  0
   56.8310   31.5230   44.6150 C   0  0  2  0  0  0  0  0  0  0  0  0
   56.4870   30.1290   44.3290 N   0  0  0  0  0  0  0  0  0  0  0  0
   57.4150   29.0380   44.2760 C   0  0  0  0  0  0  0  0  0  0  0  0
   57.3670   28.2490   43.2970 O   0  0  0  0  0  0  0  0  0  0  0  0
   58.3940   28.7890   45.3440 C   0  0  0  0  0  0  0  0  0  0  0  0
   59.7700   28.9400   45.2190 C   0  0  0  0  0  0  0  0  0  0  0  0
   60.4690   28.6370   46.3440 N   0  0  0  0  0  0  0  0  0  0  0  0
   59.6650   28.2670   47.3650 C   0  0  0  0  0  0  0  0  0  0  0  0
   60.1320   27.9000   48.6270 O   0  0  0  0  0  0  0  0  0  0  0  0
   60.7280   28.8270   49.4840 C   0  0  0  0  0  0  0  0  0  0  0  0
   60.4470   30.1880   49.3430 C   0  0  0  0  0  0  0  0  0  0  0  0
   61.0820   31.1220   50.1640 C   0  0  0  0  0  0  0  0  0  0  0  0
   61.9830   30.6970   51.1480 C   0  0  0  0  0  0  0  0  0  0  0  0
   62.2150   29.3290   51.3470 C   0  0  0  0  0  0  0  0  0  0  0  0
   61.5980   28.3980   50.4990 C   0  0  0  0  0  0  0  0  0  0  0  0
   63.0510   28.8410   52.5010 C   0  0  0  0  0  0  0  0  0  0  0  0
   63.8160   29.9330   53.2870 C   0  0  0  0  0  0  0  0  0  0  0  0
   63.8180   31.3590   52.6770 C   0  0  1  0  0  0  0  0  0  0  0  0
   65.0630   31.7280   51.8730 C   0  0  0  0  0  0  0  0  0  0  0  0
   66.2570   31.0280   52.1510 C   0  0  0  0  0  0  0  0  0  0  0  0
   67.4460   31.3420   51.4920 C   0  0  0  0  0  0  0  0  0  0  0  0
   67.4730   32.3740   50.5580 C   0  0  0  0  0  0  0  0  0  0  0  0
   66.3130   33.0920   50.2770 C   0  0  0  0  0  0  0  0  0  0  0  0
   65.0990   32.7740   50.9160 C   0  0  0  0  0  0  0  0  0  0  0  0
   63.9500   33.5240   50.6390 O   0  0  0  0  0  0  0  0  0  0  0  0
   63.2110   33.4760   49.4450 C   0  0  0  0  0  0  0  0  0  0  0  0
   61.9990   34.1740   49.2840 C   0  0  0  0  0  0  0  0  0  0  0  0
   61.3130   34.1210   48.0660 C   0  0  0  0  0  0  0  0  0  0  0  0
   61.8360   33.3860   46.9980 C   0  0  0  0  0  0  0  0  0  0  0  0
   63.0480   32.7060   47.1460 C   0  0  0  0  0  0  0  0  0  0  0  0
   63.7320   32.7560   48.3640 C   0  0  0  0  0  0  0  0  0  0  0  0
   62.6400   31.6450   51.9270 O   0  0  0  0  0  0  0  0  0  0  0  0
   58.0460   28.3080   46.9250 S   0  0  0  0  0  0  0  0  0  0  0  0
   57.5140   32.1770   43.3850 C   0  0  0  0  0  0  0  0  0  0  0  0
   58.5500   33.2570   43.7540 C   0  0  0  0  0  0  0  0  0  0  0  0
   56.2030   34.0520   44.4630 H   0  0  0  0  0  0  0  0  0  0  0  0
   56.5340   34.9900   45.8030 H   0  0  0  0  0  0  0  0  0  0  0  0
   58.9602   34.7389   45.2653 H   0  0  0  0  0  0  0  0  0  0  0  0
   57.2897   33.3901   46.9262 H   0  0  0  0  0  0  0  0  0  0  0  0
   59.0682   33.0103   46.7216 H   0  0  0  0  0  0  0  0  0  0  0  0
   57.2350   31.0808   46.6883 H   0  0  0  0  0  0  0  0  0  0  0  0
   58.6842   31.0620   45.6002 H   0  0  0  0  0  0  0  0  0  0  0  0
   55.9140   32.0924   44.8269 H   0  0  0  0  0  0  0  0  0  0  0  0
   60.2518   29.2760   44.2890 H   0  0  0  0  0  0  0  0  0  0  0  0
   61.5080   28.7030   46.4100 H   0  0  0  0  0  0  0  0  0  0  0  0
   59.7248   30.5243   48.5845 H   0  0  0  0  0  0  0  0  0  0  0  0
   60.8739   32.1947   50.0374 H   0  0  0  0  0  0  0  0  0  0  0  0
   61.7970   27.3241   50.6300 H   0  0  0  0  0  0  0  0  0  0  0  0
   62.3841   28.3226   53.2056 H   0  0  0  0  0  0  0  0  0  0  0  0
   63.8233   28.1947   52.0585 H   0  0  0  0  0  0  0  0  0  0  0  0
   63.3659   29.9997   54.2885 H   0  0  0  0  0  0  0  0  0  0  0  0
   64.8683   29.6128   53.2761 H   0  0  0  0  0  0  0  0  0  0  0  0
   63.8349   32.0039   53.5680 H   0  0  0  0  0  0  0  0  0  0  0  0
   66.2498   30.2219   52.8994 H   0  0  0  0  0  0  0  0  0  0  0  0
   68.3623   30.7740   51.7105 H   0  0  0  0  0  0  0  0  0  0  0  0
   68.4117   32.6227   50.0412 H   0  0  0  0  0  0  0  0  0  0  0  0
   66.3455   33.9157   49.5487 H   0  0  0  0  0  0  0  0  0  0  0  0
   61.5902   34.7628   50.1184 H   0  0  0  0  0  0  0  0  0  0  0  0
   60.3605   34.6585   47.9484 H   0  0  0  0  0  0  0  0  0  0  0  0
   61.2939   33.3429   46.0418 H   0  0  0  0  0  0  0  0  0  0  0  0
   63.4633   32.1319   46.3046 H   0  0  0  0  0  0  0  0  0  0  0  0
   64.6887   32.2244   48.4738 H   0  0  0  0  0  0  0  0  0  0  0  0
   56.7357   32.6409   42.7612 H   0  0  0  0  0  0  0  0  0  0  0  0
   58.0555   31.3792   42.8555 H   0  0  0  0  0  0  0  0  0  0  0  0
   58.6158   33.9820   42.9294 H   0  0  0  0  0  0  0  0  0  0  0  0
   59.5152   32.7573   43.9235 H   0  0  0  0  0  0  0  0  0  0  0  0
  1  2  1  0
  2  3  1  0
  3  4  1  0
  4  5  1  0
  5  6  1  0
  6  7  1  0
  7  8  2  0
  7  9  1  0
  9 10  2  0
 10 11  1  0
 11 12  2  0
 12 13  1  0
 13 14  1  0
 14 15  2  0
 15 16  1  0
 16 17  2  0
 17 18  1  0
 18 19  2  0
 18 20  1  0
 20 21  1  0
 21 22  1  0
 22 23  1  0
 23 24  2  0
 24 25  1  0
 25 26  2  0
 26 27  1  0
 27 28  2  0
 28 29  1  0
 29 30  1  0
 30 31  2  0
 31 32  1  0
 32 33  2  0
 33 34  1  0
 34 35  2  0
 22 36  1  0
 12 37  1  0
  5 38  1  0
 38 39  1  0
 39  2  1  0
 37  9  1  0
 19 14  1  0
 28 23  1  0
 35 30  1  0
 36 17  1  0
  1 40  1  0
  1 41  1  0
  2 42  1  1
  3 43  1  0
  3 44  1  0
  4 45  1  0
  4 46  1  0
  5 47  1  1
 10 48  1  0
 11 49  1  0
 15 50  1  0
 16 51  1  0
 19 52  1  0
 20 53  1  0
 20 54  1  0
 21 55  1  0
 21 56  1  0
 22 57  1  1
 24 58  1  0
 25 59  1  0
 26 60  1  0
 27 61  1  0
 31 62  1  0
 32 63  1  0
 33 64  1  0
 34 65  1  0
 35 66  1  0
 38 67  1  0
 38 68  1  0
 39 69  1  0
 39 70  1  0
M  CHG  2   6  -1  11   1
M  END
>  <UniqueID>  (73) 
66

>  <SMILES>  (73) 
NC1CCC([N-]C(=O)c2c[nH+]c(Oc3ccc4c(c3)CC[C@@H](c3ccccc3Oc3ccccc3)O4)s2)CC1

>  <Energy>  (73) 
132.9673815997304

>  <Genealogy>  (73) 
NC1CCC([N-]C(=O)c2c[nH+]c(Oc3ccc4c(c3)CCC(c3ccccc3Oc3ccccc3)O4)s2)CC1 (protonated)
NC1CCC([N-]C(=O)c2c[nH+]c(Oc3ccc4c(c3)CC[C@@H](c3ccccc3Oc3ccccc3)O4)s2)CC1 (chirality)
NC1CCC([N-]C(=O)c2c[nH+]c(Oc3ccc4c(c3)CC[C@@H](c3ccccc3Oc3ccccc3)O4)s2)CC1 (3D coordinates assigned)
NC1CCC([N-]C(=O)c2c[nH+]c(Oc3ccc4c(c3)CC[C@@H](c3ccccc3Oc3ccccc3)O4)s2)CC1 (nonaromatic ring conformer: 132.9673815997304 kcal/mol)

>  <smiles>  (73) 
NC1CCC(NC(=O)c2cnc(Oc3ccc4c(c3)CCC(c3ccccc3Oc3ccccc3)O4)s2)CC1

>  <score_type>  (73) 
oracle

>  <origin>  (73) 
adg

>  <m_score__min__energy>  (73) 
-10.34

>  <m_primary>  (73) 
energy

$$$$
73:0
     RDKit          3D

 49 52  0  0  0  0  0  0  0  0999 V2000
   56.2670   29.8340   42.2100 N   0  0  0  0  0  0  0  0  0  0  0  0
   56.8300   29.9100   43.3920 C   0  0  0  0  0  0  0  0  0  0  0  0
   57.1150   28.8030   44.0820 N   0  0  0  0  0  0  0  0  0  0  0  0
   57.7100   28.8250   45.3190 C   0  0  0  0  0  0  0  0  0  0  0  0
   57.9460   27.5750   45.9860 C   0  0  0  0  0  0  0  0  0  0  0  0
   58.8880   27.2160   46.7060 O   0  0  0  0  0  0  0  0  0  0  0  0
   56.9260   26.5600   45.8060 N   0  0  0  0  0  0  0  0  0  0  0  0
   57.0070   25.2570   46.4240 C   0  0  0  0  0  0  0  0  0  0  0  0
   56.9730   24.2260   45.3540 C   0  0  0  0  0  0  0  0  0  0  0  0
   55.9980   24.1420   44.3910 C   0  0  0  0  0  0  0  0  0  0  0  0
   56.0560   23.1560   43.3970 C   0  0  0  0  0  0  0  0  0  0  0  0
   57.1200   22.2610   43.4010 C   0  0  0  0  0  0  0  0  0  0  0  0
   58.1030   22.3400   44.3660 C   0  0  0  0  0  0  0  0  0  0  0  0
   58.0450   23.3230   45.3580 C   0  0  0  0  0  0  0  0  0  0  0  0
   57.9950   30.0750   45.8030 C   0  0  0  0  0  0  0  0  0  0  0  0
   58.5660   30.2550   47.0260 C   0  0  0  0  0  0  0  0  0  0  0  0
   58.8660   29.3000   47.7490 O   0  0  0  0  0  0  0  0  0  0  0  0
   58.8200   31.4850   47.4890 N   0  0  0  0  0  0  0  0  0  0  0  0
   58.5420   32.6290   46.8050 C   0  0  0  0  0  0  0  0  0  0  0  0
   58.8610   33.7990   47.4160 O   0  0  0  0  0  0  0  0  0  0  0  0
   59.9930   34.5930   47.4040 C   0  0  0  0  0  0  0  0  0  0  0  0
   61.2840   33.9400   47.6000 C   0  0  0  0  0  0  0  0  0  0  0  0
   62.2890   33.8350   46.6750 C   0  0  0  0  0  0  0  0  0  0  0  0
   63.5080   33.2370   46.9000 C   0  0  0  0  0  0  0  0  0  0  0  0
   63.7560   32.6990   48.1350 C   0  0  0  0  0  0  0  0  0  0  0  0
   62.7760   32.7790   49.1000 C   0  0  0  0  0  0  0  0  0  0  0  0
   61.5430   33.3890   48.8580 C   0  0  0  0  0  0  0  0  0  0  0  0
   60.2610   33.4410   50.2660 Br  0  0  0  0  0  0  0  0  0  0  0  0
   57.9660   32.4760   45.5720 C   0  0  0  0  0  0  0  0  0  0  0  0
   57.6930   31.2160   45.0730 C   0  0  0  0  0  0  0  0  0  0  0  0
   57.1210   31.1200   43.8890 N   0  0  0  0  0  0  0  0  0  0  0  0
   55.5990   29.0640   42.0470 H   0  0  0  0  0  0  0  0  0  0  0  0
   56.0900   26.7600   45.2100 H   0  0  0  0  0  0  0  0  0  0  0  0
   57.9458   25.1727   46.9911 H   0  0  0  0  0  0  0  0  0  0  0  0
   56.1622   25.1132   47.1137 H   0  0  0  0  0  0  0  0  0  0  0  0
   55.1619   24.8568   44.3998 H   0  0  0  0  0  0  0  0  0  0  0  0
   55.2733   23.0912   42.6269 H   0  0  0  0  0  0  0  0  0  0  0  0
   57.1787   21.4818   42.6268 H   0  0  0  0  0  0  0  0  0  0  0  0
   58.9383   21.6243   44.3546 H   0  0  0  0  0  0  0  0  0  0  0  0
   58.8273   23.3868   46.1287 H   0  0  0  0  0  0  0  0  0  0  0  0
   59.2680   31.5760   48.4470 H   0  0  0  0  0  0  0  0  0  0  0  0
   60.0270   35.1013   46.4291 H   0  0  0  0  0  0  0  0  0  0  0  0
   59.8795   35.2509   48.2783 H   0  0  0  0  0  0  0  0  0  0  0  0
   62.1080   34.2608   45.6770 H   0  0  0  0  0  0  0  0  0  0  0  0
   64.2669   33.1921   46.1050 H   0  0  0  0  0  0  0  0  0  0  0  0
   64.7185   32.2127   48.3520 H   0  0  0  0  0  0  0  0  0  0  0  0
   62.9709   32.3485   50.0933 H   0  0  0  0  0  0  0  0  0  0  0  0
   57.7181   33.3645   44.9727 H   0  0  0  0  0  0  0  0  0  0  0  0
   56.8780   31.9680   43.3100 H   0  0  0  0  0  0  0  0  0  0  0  0
  1  2  2  3
  2  3  1  0
  3  4  2  0
  4  5  1  0
  5  6  2  0
  5  7  1  0
  7  8  1  0
  8  9  1  0
  9 10  2  0
 10 11  1  0
 11 12  2  0
 12 13  1  0
 13 14  2  0
  4 15  1  0
 15 16  1  0
 16 17  2  0
 16 18  1  0
 18 19  1  0
 19 20  1  0
 20 21  1  0
 21 22  1  0
 22 23  2  0
 23 24  1  0
 24 25  2  0
 25 26  1  0
 26 27  2  0
 27 28  1  0
 19 29  2  0
 29 30  1  0
 30 31  1  0
 31  2  1  0
 14  9  1  0
 30 15  2  0
 27 22  1  0
  1 32  1  0
  7 33  1  0
  8 34  1  0
  8 35  1  0
 10 36  1  0
 11 37  1  0
 12 38  1  0
 13 39  1  0
 14 40  1  0
 18 41  1  0
 21 42  1  0
 21 43  1  0
 23 44  1  0
 24 45  1  0
 25 46  1  0
 26 47  1  0
 29 48  1  0
 31 49  1  0
M  END
>  <smiles>  (74) 
N=c1nc(C(=O)NCc2ccccc2)c2c(=O)[nH]c(OCc3ccccc3Br)cc2[nH]1

>  <score_type>  (74) 
oracle

>  <origin>  (74) 
adg

>  <m_score__min__energy>  (74) 
-8.9499999999999993

>  <m_primary>  (74) 
energy

$$$$
74:0
     RDKit          3D

 43 45  0  0  0  0  0  0  0  0999 V2000
   58.5160   22.6020   44.5440 C   0  0  0  0  0  0  0  0  0  0  0  0
   57.7890   22.7680   45.8730 C   0  0  0  0  0  0  0  0  0  0  0  0
   56.6490   23.6760   45.7190 N   0  0  0  0  0  0  0  0  0  0  0  0
   56.4960   24.9230   46.2130 C   0  0  0  0  0  0  0  0  0  0  0  0
   57.4330   25.6320   47.1540 C   0  0  0  0  0  0  0  0  0  0  0  0
   58.3440   26.5560   46.3920 C   0  0  0  0  0  0  0  0  0  0  0  0
   59.7120   26.6190   46.7000 C   0  0  0  0  0  0  0  0  0  0  0  0
   60.5480   27.5040   46.0170 C   0  0  0  0  0  0  0  0  0  0  0  0
   60.0270   28.3430   45.0290 C   0  0  0  0  0  0  0  0  0  0  0  0
   58.6560   28.3050   44.7150 C   0  0  0  0  0  0  0  0  0  0  0  0
   58.0840   29.1630   43.7130 N   0  0  0  0  0  0  0  0  0  0  0  0
   56.8990   30.3850   44.0540 S   0  0  0  0  0  0  0  0  0  0  0  0
   55.8350   29.8100   44.9460 O   0  0  0  0  0  0  0  0  0  0  0  0
   56.2680   30.8310   42.7650 O   0  0  0  0  0  0  0  0  0  0  0  0
   57.6560   31.7420   44.8810 C   0  0  0  0  0  0  0  0  0  0  0  0
   58.1480   31.5960   46.1880 C   0  0  0  0  0  0  0  0  0  0  0  0
   58.7360   32.6840   46.8410 C   0  0  0  0  0  0  0  0  0  0  0  0
   58.8380   33.9190   46.1940 C   0  0  0  0  0  0  0  0  0  0  0  0
   58.3530   34.0680   44.8910 C   0  0  0  0  0  0  0  0  0  0  0  0
   57.7650   32.9820   44.2360 C   0  0  0  0  0  0  0  0  0  0  0  0
   57.8250   27.4020   45.3980 C   0  0  0  0  0  0  0  0  0  0  0  0
   55.3040   25.4200   45.7270 C   0  0  0  0  0  0  0  0  0  0  0  0
   54.7740   26.6730   46.0060 O   0  0  0  0  0  0  0  0  0  0  0  0
   54.7060   24.5220   44.9200 N   0  0  0  0  0  0  0  0  0  0  0  0
   55.5630   23.4800   44.9390 C   0  0  0  0  0  0  0  0  0  0  0  0
   55.3650   22.4250   44.2790 O   0  0  0  0  0  0  0  0  0  0  0  0
   59.5727   22.3607   44.7317 H   0  0  0  0  0  0  0  0  0  0  0  0
   58.0501   21.7871   43.9705 H   0  0  0  0  0  0  0  0  0  0  0  0
   58.4500   23.5383   43.9705 H   0  0  0  0  0  0  0  0  0  0  0  0
   57.4278   21.7866   46.2141 H   0  0  0  0  0  0  0  0  0  0  0  0
   58.4859   23.1906   46.6118 H   0  0  0  0  0  0  0  0  0  0  0  0
   56.8459   26.2173   47.8771 H   0  0  0  0  0  0  0  0  0  0  0  0
   58.0437   24.8833   47.6798 H   0  0  0  0  0  0  0  0  0  0  0  0
   60.1273   25.9679   47.4833 H   0  0  0  0  0  0  0  0  0  0  0  0
   61.6207   27.5409   46.2576 H   0  0  0  0  0  0  0  0  0  0  0  0
   60.6919   29.0368   44.4938 H   0  0  0  0  0  0  0  0  0  0  0  0
   58.2970   28.9810   42.7070 H   0  0  0  0  0  0  0  0  0  0  0  0
   58.0709   30.6249   46.6988 H   0  0  0  0  0  0  0  0  0  0  0  0
   59.1189   32.5677   47.8656 H   0  0  0  0  0  0  0  0  0  0  0  0
   59.2999   34.7737   46.7100 H   0  0  0  0  0  0  0  0  0  0  0  0
   58.4341   35.0395   44.3815 H   0  0  0  0  0  0  0  0  0  0  0  0
   57.3862   33.1009   43.2101 H   0  0  0  0  0  0  0  0  0  0  0  0
   56.7540   27.3567   45.1514 H   0  0  0  0  0  0  0  0  0  0  0  0
  1  2  1  0
  2  3  1  0
  3  4  1  0
  4  5  1  0
  5  6  1  0
  6  7  2  0
  7  8  1  0
  8  9  2  0
  9 10  1  0
 10 11  1  0
 11 12  1  0
 12 13  2  0
 12 14  2  0
 12 15  1  0
 15 16  2  0
 16 17  1  0
 17 18  2  0
 18 19  1  0
 19 20  2  0
 10 21  2  0
  4 22  2  0
 22 23  1  0
 22 24  1  0
 24 25  1  0
 25 26  2  0
 25  3  1  0
 21  6  1  0
 20 15  1  0
  1 27  1  0
  1 28  1  0
  1 29  1  0
  2 30  1  0
  2 31  1  0
  5 32  1  0
  5 33  1  0
  7 34  1  0
  8 35  1  0
  9 36  1  0
 11 37  1  0
 16 38  1  0
 17 39  1  0
 18 40  1  0
 19 41  1  0
 20 42  1  0
 21 43  1  0
M  CHG  2  23  -1  24  -1
M  END
>  <UniqueID>  (75) 
67

>  <SMILES>  (75) 
CCn1c(Cc2cccc(NS(=O)(=O)c3ccccc3)c2)c([O-])[n-]c1=O

>  <Energy>  (75) 
75.14369737510806

>  <Genealogy>  (75) 
CCn1c(Cc2cccc(NS(=O)(=O)c3ccccc3)c2)c([O-])[n-]c1=O (protonated)
CCn1c(Cc2cccc(NS(=O)(=O)c3ccccc3)c2)c([O-])[n-]c1=O (3D coordinates assigned)
CCn1c(Cc2cccc(NS(=O)(=O)c3ccccc3)c2)c([O-])[n-]c1=O (optimized conformer: 75.14369737510806 kcal/mol)

>  <smiles>  (75) 
CCn1c(Cc2cccc(NS(=O)(=O)c3ccccc3)c2)c(O)[nH]c1=O

>  <score_type>  (75) 
oracle

>  <origin>  (75) 
adg

>  <m_score__min__energy>  (75) 
-15.369999999999999

>  <m_primary>  (75) 
energy

$$$$
75:0
     RDKit          3D

 53 55  0  0  0  0  0  0  0  0999 V2000
   52.4080   22.9010   46.2310 C   0  0  0  0  0  0  0  0  0  0  0  0
   52.7140   24.1920   45.4800 C   0  0  0  0  0  0  0  0  0  0  0  0
   54.1770   24.4990   45.5330 C   0  0  0  0  0  0  0  0  0  0  0  0
   55.1990   23.6030   45.2900 C   0  0  0  0  0  0  0  0  0  0  0  0
   56.3640   24.3330   45.4090 C   0  0  0  0  0  0  0  0  0  0  0  0
   57.7440   23.7920   45.2010 C   0  0  0  0  0  0  0  0  0  0  0  0
   55.9790   25.6300   45.7360 C   0  0  0  0  0  0  0  0  0  0  0  0
   56.8370   26.8040   45.9760 C   0  0  0  0  0  0  0  0  0  0  0  0
   57.4510   26.8910   47.0740 O   0  0  0  0  0  0  0  0  0  0  0  0
   57.0360   27.8040   44.9650 N   0  0  0  0  0  0  0  0  0  0  0  0
   57.4140   29.1620   45.2550 C   0  0  0  0  0  0  0  0  0  0  0  0
   58.2180   29.4320   46.3730 C   0  0  0  0  0  0  0  0  0  0  0  0
   58.6110   30.7420   46.6650 C   0  0  0  0  0  0  0  0  0  0  0  0
   58.2190   31.7970   45.8320 C   0  0  0  0  0  0  0  0  0  0  0  0
   58.7030   33.4460   46.2130 S   0  0  0  0  0  0  0  0  0  0  0  0
   59.5360   33.9880   45.0850 O   0  0  0  0  0  0  0  0  0  0  0  0
   57.4770   34.3000   46.3830 O   0  0  0  0  0  0  0  0  0  0  0  0
   59.6230   33.4280   47.6870 N   0  0  0  0  0  0  0  0  0  0  0  0
   60.8690   33.7810   47.8250 C   0  0  0  0  0  0  0  0  0  0  0  0
   61.4870   33.9180   49.2110 C   0  0  0  0  0  0  0  0  0  0  0  0
   62.9730   34.3050   49.2710 C   0  0  0  0  0  0  0  0  0  0  0  0
   63.8950   33.2250   48.6810 C   0  0  0  0  0  0  0  0  0  0  0  0
   63.4290   32.7230   47.3070 C   0  0  0  0  0  0  0  0  0  0  0  0
   62.9470   33.8300   46.3640 C   0  0  0  0  0  0  0  0  0  0  0  0
   61.5660   34.2060   46.6420 N   0  0  0  0  0  0  0  0  0  0  0  0
   57.4270   31.5330   44.7070 C   0  0  0  0  0  0  0  0  0  0  0  0
   57.0340   30.2230   44.4140 C   0  0  0  0  0  0  0  0  0  0  0  0
   54.6670   25.6910   45.7880 O   0  0  0  0  0  0  0  0  0  0  0  0
   52.4522   23.0876   47.3142 H   0  0  0  0  0  0  0  0  0  0  0  0
   51.4016   22.5491   45.9604 H   0  0  0  0  0  0  0  0  0  0  0  0
   53.1494   22.1348   45.9604 H   0  0  0  0  0  0  0  0  0  0  0  0
   52.4060   24.0808   44.4299 H   0  0  0  0  0  0  0  0  0  0  0  0
   52.1616   25.0168   45.9539 H   0  0  0  0  0  0  0  0  0  0  0  0
   55.1045   22.5333   45.0519 H   0  0  0  0  0  0  0  0  0  0  0  0
   58.2162   23.6069   46.1771 H   0  0  0  0  0  0  0  0  0  0  0  0
   57.6872   22.8496   44.6365 H   0  0  0  0  0  0  0  0  0  0  0  0
   58.3428   24.5220   44.6365 H   0  0  0  0  0  0  0  0  0  0  0  0
   57.0290   27.4980   43.9690 H   0  0  0  0  0  0  0  0  0  0  0  0
   58.5416   28.6070   47.0247 H   0  0  0  0  0  0  0  0  0  0  0  0
   59.2299   30.9442   47.5516 H   0  0  0  0  0  0  0  0  0  0  0  0
   60.9200   34.6888   49.7536 H   0  0  0  0  0  0  0  0  0  0  0  0
   61.4333   32.9114   49.6513 H   0  0  0  0  0  0  0  0  0  0  0  0
   63.1165   35.2371   48.7047 H   0  0  0  0  0  0  0  0  0  0  0  0
   63.2409   34.4258   50.3310 H   0  0  0  0  0  0  0  0  0  0  0  0
   64.9057   33.6463   48.5759 H   0  0  0  0  0  0  0  0  0  0  0  0
   63.8772   32.3662   49.3682 H   0  0  0  0  0  0  0  0  0  0  0  0
   64.2705   32.2026   46.8263 H   0  0  0  0  0  0  0  0  0  0  0  0
   62.5670   32.0639   47.4871 H   0  0  0  0  0  0  0  0  0  0  0  0
   63.5903   34.7131   46.4914 H   0  0  0  0  0  0  0  0  0  0  0  0
   63.0004   33.4517   45.3325 H   0  0  0  0  0  0  0  0  0  0  0  0
   60.9910   34.5260   45.8300 H   0  0  0  0  0  0  0  0  0  0  0  0
   57.1131   32.3589   44.0517 H   0  0  0  0  0  0  0  0  0  0  0  0
   56.4243   30.0216   43.5208 H   0  0  0  0  0  0  0  0  0  0  0  0
  1  2  1  0
  2  3  1  0
  3  4  2  0
  4  5  1  0
  5  6  1  0
  5  7  2  0
  7  8  1  0
  8  9  2  0
  8 10  1  0
 10 11  1  0
 11 12  2  0
 12 13  1  0
 13 14  2  0
 14 15  1  0
 15 16  2  0
 15 17  2  0
 15 18  1  0
 18 19  2  3
 19 20  1  0
 20 21  1  0
 21 22  1  0
 22 23  1  0
 23 24  1  0
 24 25  1  0
 14 26  1  0
 26 27  2  0
  7 28  1  0
 28  3  1  0
 27 11  1  0
 25 19  1  0
  1 29  1  0
  1 30  1  0
  1 31  1  0
  2 32  1  0
  2 33  1  0
  4 34  1  0
  6 35  1  0
  6 36  1  0
  6 37  1  0
 10 38  1  0
 12 39  1  0
 13 40  1  0
 20 41  1  0
 20 42  1  0
 21 43  1  0
 21 44  1  0
 22 45  1  0
 22 46  1  0
 23 47  1  0
 23 48  1  0
 24 49  1  0
 24 50  1  0
 25 51  1  0
 26 52  1  0
 27 53  1  0
M  END
>  <UniqueID>  (76) 
68

>  <SMILES>  (76) 
CCc1cc(C)c(C(=O)Nc2ccc(S(=O)(=O)N=C3CCCCCN3)cc2)o1

>  <Energy>  (76) 
89.22955896983613

>  <Genealogy>  (76) 
CCc1cc(C)c(C(=O)Nc2ccc(S(=O)(=O)N=C3CCCCCN3)cc2)o1 (3D coordinates assigned)
CCc1cc(C)c(C(=O)Nc2ccc(S(=O)(=O)N=C3CCCCCN3)cc2)o1 (nonaromatic ring conformer: 89.22955896983613 kcal/mol)

>  <smiles>  (76) 
CCc1cc(C)c(C(=O)Nc2ccc(S(=O)(=O)N=C3CCCCCN3)cc2)o1

>  <score_type>  (76) 
oracle

>  <origin>  (76) 
adg

>  <m_score__min__energy>  (76) 
-7.7400000000000002

>  <m_primary>  (76) 
energy

$$$$
76:0
     RDKit          3D

 42 44  0  0  0  0  0  0  0  0999 V2000
   55.5600   25.9290   46.0340 C   0  0  0  0  0  0  0  0  0  0  0  0
   56.3840   27.0260   45.5410 N   0  0  0  0  0  0  0  0  0  0  0  0
   55.9150   28.2290   45.2520 N   0  0  0  0  0  0  0  0  0  0  0  0
   56.9500   28.9760   44.8080 C   0  0  0  0  0  0  0  0  0  0  0  0
   56.8130   30.3880   44.4090 C   0  0  0  0  0  0  0  0  0  0  0  0
   55.7670   31.0150   44.7290 O   0  0  0  0  0  0  0  0  0  0  0  0
   57.8510   31.0570   43.6770 N   0  0  0  0  0  0  0  0  0  0  0  0
   57.7650   32.4840   43.3670 C   0  0  0  0  0  0  0  0  0  0  0  0
   58.1490   33.3090   44.5650 C   0  0  0  0  0  0  0  0  0  0  0  0
   57.4820   33.1310   45.7890 C   0  0  0  0  0  0  0  0  0  0  0  0
   57.8730   33.8620   46.9150 C   0  0  0  0  0  0  0  0  0  0  0  0
   58.9380   34.7640   46.8310 C   0  0  0  0  0  0  0  0  0  0  0  0
   59.6160   34.9340   45.6210 C   0  0  0  0  0  0  0  0  0  0  0  0
   59.2290   34.2060   44.4920 C   0  0  0  0  0  0  0  0  0  0  0  0
   58.1130   28.2210   44.8060 C   0  0  0  0  0  0  0  0  0  0  0  0
   57.7060   26.9900   45.2890 C   0  0  0  0  0  0  0  0  0  0  0  0
   58.4410   25.9270   45.4560 N   0  0  0  0  0  0  0  0  0  0  0  0
   59.6190   25.8350   46.2730 C   0  0  0  0  0  0  0  0  0  0  0  0
   60.3050   24.7790   46.2230 O   0  0  0  0  0  0  0  0  0  0  0  0
   60.0090   26.9110   47.2150 C   0  0  0  0  0  0  0  0  0  0  0  0
   60.0380   26.6650   48.5980 C   0  0  0  0  0  0  0  0  0  0  0  0
   60.4210   27.6720   49.4890 C   0  0  0  0  0  0  0  0  0  0  0  0
   60.7670   28.9380   49.0090 C   0  0  0  0  0  0  0  0  0  0  0  0
   61.2510   30.1990   50.1270 Cl  0  0  0  0  0  0  0  0  0  0  0  0
   60.7240   29.1980   47.6360 C   0  0  0  0  0  0  0  0  0  0  0  0
   60.3420   28.1930   46.7430 C   0  0  0  0  0  0  0  0  0  0  0  0
   55.5634   25.9335   47.1340 H   0  0  0  0  0  0  0  0  0  0  0  0
   54.5293   26.0523   45.6700 H   0  0  0  0  0  0  0  0  0  0  0  0
   55.9656   24.9735   45.6700 H   0  0  0  0  0  0  0  0  0  0  0  0
   58.6970   30.5230   43.3780 H   0  0  0  0  0  0  0  0  0  0  0  0
   58.4466   32.7152   42.5351 H   0  0  0  0  0  0  0  0  0  0  0  0
   56.7288   32.7248   43.0873 H   0  0  0  0  0  0  0  0  0  0  0  0
   56.6502   32.4148   45.8615 H   0  0  0  0  0  0  0  0  0  0  0  0
   57.3417   33.7272   47.8687 H   0  0  0  0  0  0  0  0  0  0  0  0
   59.2422   35.3399   47.7175 H   0  0  0  0  0  0  0  0  0  0  0  0
   60.4556   35.6418   45.5567 H   0  0  0  0  0  0  0  0  0  0  0  0
   59.7712   34.3354   43.5437 H   0  0  0  0  0  0  0  0  0  0  0  0
   59.1220   28.5284   44.4938 H   0  0  0  0  0  0  0  0  0  0  0  0
   59.7574   25.6733   48.9824 H   0  0  0  0  0  0  0  0  0  0  0  0
   60.4500   27.4675   50.5694 H   0  0  0  0  0  0  0  0  0  0  0  0
   60.9914   30.1957   47.2577 H   0  0  0  0  0  0  0  0  0  0  0  0
   60.3016   28.4062   45.6646 H   0  0  0  0  0  0  0  0  0  0  0  0
  1  2  1  0
  2  3  1  0
  3  4  1  0
  4  5  1  0
  5  6  2  0
  5  7  1  0
  7  8  1  0
  8  9  1  0
  9 10  2  0
 10 11  1  0
 11 12  2  0
 12 13  1  0
 13 14  2  0
  4 15  2  0
 15 16  1  0
 16 17  2  3
 17 18  1  0
 18 19  2  0
 18 20  1  0
 20 21  2  0
 21 22  1  0
 22 23  2  0
 23 24  1  0
 23 25  1  0
 25 26  2  0
 16  2  1  0
 26 20  1  0
 14  9  1  0
  1 27  1  0
  1 28  1  0
  1 29  1  0
  7 30  1  0
  8 31  1  0
  8 32  1  0
 10 33  1  0
 11 34  1  0
 12 35  1  0
 13 36  1  0
 14 37  1  0
 15 38  1  0
 21 39  1  0
 22 40  1  0
 25 41  1  0
 26 42  1  0
M  CHG  1   3  -1
M  END
>  <UniqueID>  (77) 
69

>  <SMILES>  (77) 
Cn1[n-]c(C(=O)NCc2ccccc2)cc1=NC(=O)c1ccc(Cl)cc1

>  <Energy>  (77) 
80.17560956346202

>  <Genealogy>  (77) 
Cn1[n-]c(C(=O)NCc2ccccc2)cc1=NC(=O)c1ccc(Cl)cc1 (protonated)
Cn1[n-]c(C(=O)NCc2ccccc2)cc1=NC(=O)c1ccc(Cl)cc1 (3D coordinates assigned)
Cn1[n-]c(C(=O)NCc2ccccc2)cc1=NC(=O)c1ccc(Cl)cc1 (optimized conformer: 80.17560956346202 kcal/mol)

>  <smiles>  (77) 
Cn1[nH]c(C(=O)NCc2ccccc2)cc1=NC(=O)c1ccc(Cl)cc1

>  <score_type>  (77) 
oracle

>  <origin>  (77) 
adg

>  <m_score__min__energy>  (77) 
-9.9600000000000009

>  <m_primary>  (77) 
energy

$$$$
77:0
     RDKit          3D

 18 18  0  0  0  0  0  0  0  0999 V2000
   55.1880   29.3410   44.9200 N   0  0  0  0  0  0  0  0  0  0  0  0
   56.4410   29.8390   44.4300 C   0  0  0  0  0  0  0  0  0  0  0  0
   57.0190   29.2450   43.2680 N   0  0  0  0  0  0  0  0  0  0  0  0
   57.0360   30.8590   44.9800 N   0  0  0  0  0  0  0  0  0  0  0  0
   57.7450   31.9000   44.2960 C   0  0  0  0  0  0  0  0  0  0  0  0
   58.0070   31.7570   43.0730 O   0  0  0  0  0  0  0  0  0  0  0  0
   58.2580   33.0820   45.0130 C   0  0  0  0  0  0  0  0  0  0  0  0
   58.1780   33.3000   46.3750 C   0  0  0  0  0  0  0  0  0  0  0  0
   58.7340   34.4930   46.6390 N   0  0  0  0  0  0  0  0  0  0  0  0
   59.1270   34.9620   45.4420 C   0  0  0  0  0  0  0  0  0  0  0  0
   59.6970   36.0750   45.2920 O   0  0  0  0  0  0  0  0  0  0  0  0
   58.8540   34.1340   44.4130 N   0  0  0  0  0  0  0  0  0  0  0  0
   54.6240   29.8600   45.6270 H   0  0  0  0  0  0  0  0  0  0  0  0
   54.7680   28.4850   44.4970 H   0  0  0  0  0  0  0  0  0  0  0  0
   57.9200   29.6060   42.8810 H   0  0  0  0  0  0  0  0  0  0  0  0
   56.5500   28.4430   42.7920 H   0  0  0  0  0  0  0  0  0  0  0  0
   57.7359   32.6155   47.1140 H   0  0  0  0  0  0  0  0  0  0  0  0
   58.8350   34.9530   47.5710 H   0  0  0  0  0  0  0  0  0  0  0  0
  1  2  1  0
  2  3  1  0
  2  4  2  3
  4  5  1  0
  5  6  2  0
  5  7  1  0
  7  8  2  0
  8  9  1  0
  9 10  1  0
 10 11  2  0
 10 12  1  0
 12  7  1  0
  1 13  1  0
  1 14  1  0
  3 15  1  0
  3 16  1  0
  8 17  1  0
  9 18  1  0
M  CHG  1  12  -1
M  END
>  <UniqueID>  (78) 
70

>  <SMILES>  (78) 
NC(N)=NC(=O)c1c[nH]c(=O)[n-]1

>  <Energy>  (78) 
49.754844909192826

>  <Genealogy>  (78) 
NC(N)=NC(=O)c1c[nH]c(=O)[n-]1 (protonated)
NC(N)=NC(=O)c1c[nH]c(=O)[n-]1 (3D coordinates assigned)
NC(N)=NC(=O)c1c[nH]c(=O)[n-]1 (optimized conformer: 49.754844909192826 kcal/mol)

>  <smiles>  (78) 
NC(N)=NC(=O)c1c[nH]c(=O)[nH]1

>  <score_type>  (78) 
oracle

>  <origin>  (78) 
adg

>  <m_score__min__energy>  (78) 
-7.04

>  <m_primary>  (78) 
energy

$$$$
78:0
     RDKit          3D

 53 55  0  0  0  0  0  0  0  0999 V2000
   60.5900   29.1080   51.8980 C   0  0  0  0  0  0  0  0  0  0  0  0
   61.4170   29.4350   50.6610 C   0  0  0  0  0  0  0  0  0  0  0  0
   61.2970   30.8160   50.3250 O   0  0  0  0  0  0  0  0  0  0  0  0
   60.8410   31.7970   51.2160 C   0  0  0  0  0  0  0  0  0  0  0  0
   61.6970   32.3650   52.1110 N   0  0  0  0  0  0  0  0  0  0  0  0
   61.2980   33.3280   52.9820 C   0  0  0  0  0  0  0  0  0  0  0  0
   59.9750   33.7630   52.9830 C   0  0  0  0  0  0  0  0  0  0  0  0
   59.0700   33.1990   52.0840 C   0  0  0  0  0  0  0  0  0  0  0  0
   59.4930   32.2100   51.1800 C   0  0  0  0  0  0  0  0  0  0  0  0
   58.5290   31.6130   50.2240 C   0  0  0  0  0  0  0  0  0  0  0  0
   57.9860   30.5080   50.4940 O   0  0  0  0  0  0  0  0  0  0  0  0
   58.1480   32.2910   49.0190 N   0  0  0  0  0  0  0  0  0  0  0  0
   59.0520   32.9540   48.1260 C   0  0  0  0  0  0  0  0  0  0  0  0
   58.5830   33.7750   47.0870 C   0  0  0  0  0  0  0  0  0  0  0  0
   59.4860   34.3980   46.2220 C   0  0  0  0  0  0  0  0  0  0  0  0
   60.8590   34.2020   46.3830 C   0  0  0  0  0  0  0  0  0  0  0  0
   61.3370   33.3910   47.4210 C   0  0  0  0  0  0  0  0  0  0  0  0
   63.0630   33.0850   47.5840 S   0  0  0  0  0  0  0  0  0  0  0  0
   63.7770   33.7330   46.4320 O   0  0  0  0  0  0  0  0  0  0  0  0
   63.3420   31.6070   47.5630 O   0  0  0  0  0  0  0  0  0  0  0  0
   63.6580   33.7580   49.0730 N   0  0  0  0  0  0  0  0  0  0  0  0
   64.3210   33.1050   49.9930 C   0  0  0  0  0  0  0  0  0  0  0  0
   65.3770   33.7550   50.8670 C   0  0  0  0  0  0  0  0  0  0  0  0
   66.7860   33.2130   50.5690 C   0  0  0  0  0  0  0  0  0  0  0  0
   67.1310   31.8760   51.2520 C   0  0  0  0  0  0  0  0  0  0  0  0
   66.1920   30.7140   50.8770 C   0  0  0  0  0  0  0  0  0  0  0  0
   64.6970   30.9110   51.2320 C   0  0  0  0  0  0  0  0  0  0  0  0
   63.9760   31.7320   50.2570 N   0  0  0  0  0  0  0  0  0  0  0  0
   60.4310   32.7890   48.3050 C   0  0  0  0  0  0  0  0  0  0  0  0
   61.1740   29.3389   52.8011 H   0  0  0  0  0  0  0  0  0  0  0  0
   59.6692   29.7097   51.8930 H   0  0  0  0  0  0  0  0  0  0  0  0
   60.3297   28.0393   51.8930 H   0  0  0  0  0  0  0  0  0  0  0  0
   62.4734   29.2025   50.8610 H   0  0  0  0  0  0  0  0  0  0  0  0
   61.0466   28.8325   49.8185 H   0  0  0  0  0  0  0  0  0  0  0  0
   62.0205   33.7646   53.6872 H   0  0  0  0  0  0  0  0  0  0  0  0
   59.6472   34.5433   53.6856 H   0  0  0  0  0  0  0  0  0  0  0  0
   58.0209   33.5298   52.0827 H   0  0  0  0  0  0  0  0  0  0  0  0
   57.5018   33.9278   46.9542 H   0  0  0  0  0  0  0  0  0  0  0  0
   59.1147   35.0440   45.4128 H   0  0  0  0  0  0  0  0  0  0  0  0
   61.5670   34.6852   45.6936 H   0  0  0  0  0  0  0  0  0  0  0  0
   63.4530   34.7710   49.2230 H   0  0  0  0  0  0  0  0  0  0  0  0
   65.3685   34.8401   50.6866 H   0  0  0  0  0  0  0  0  0  0  0  0
   65.1391   33.5239   51.9158 H   0  0  0  0  0  0  0  0  0  0  0  0
   66.8739   33.0726   49.4816 H   0  0  0  0  0  0  0  0  0  0  0  0
   67.4908   33.9541   50.9740 H   0  0  0  0  0  0  0  0  0  0  0  0
   68.1560   31.5971   50.9662 H   0  0  0  0  0  0  0  0  0  0  0  0
   67.0187   32.0361   52.3345 H   0  0  0  0  0  0  0  0  0  0  0  0
   66.2630   30.5606   49.7901 H   0  0  0  0  0  0  0  0  0  0  0  0
   66.5291   29.8541   51.4744 H   0  0  0  0  0  0  0  0  0  0  0  0
   64.2161   29.9229   51.2807 H   0  0  0  0  0  0  0  0  0  0  0  0
   64.6567   31.4381   52.1967 H   0  0  0  0  0  0  0  0  0  0  0  0
   63.2080   31.2810   49.7100 H   0  0  0  0  0  0  0  0  0  0  0  0
   60.8052   32.1837   49.1438 H   0  0  0  0  0  0  0  0  0  0  0  0
  1  2  1  0
  2  3  1  0
  3  4  1  0
  4  5  2  0
  5  6  1  0
  6  7  2  0
  7  8  1  0
  8  9  2  0
  9 10  1  0
 10 11  2  0
 10 12  1  0
 12 13  1  0
 13 14  2  0
 14 15  1  0
 15 16  2  0
 16 17  1  0
 17 18  1  0
 18 19  2  0
 18 20  2  0
 18 21  1  0
 21 22  2  3
 22 23  1  0
 23 24  1  0
 24 25  1  0
 25 26  1  0
 26 27  1  0
 27 28  1  0
 17 29  2  0
  9  4  1  0
 29 13  1  0
 28 22  1  0
  1 30  1  0
  1 31  1  0
  1 32  1  0
  2 33  1  0
  2 34  1  0
  6 35  1  0
  7 36  1  0
  8 37  1  0
 14 38  1  0
 15 39  1  0
 16 40  1  0
 21 41  1  0
 23 42  1  0
 23 43  1  0
 24 44  1  0
 24 45  1  0
 25 46  1  0
 25 47  1  0
 26 48  1  0
 26 49  1  0
 27 50  1  0
 27 51  1  0
 28 52  1  0
 29 53  1  0
M  CHG  2  12  -1  21   1
M  END
>  <UniqueID>  (79) 
71

>  <SMILES>  (79) 
CCOc1ncccc1C(=O)[N-]c1cccc(S(=O)(=O)[NH+]=C2CCCCCN2)c1

>  <Energy>  (79) 
65.13216524347604

>  <Genealogy>  (79) 
CCOc1ncccc1C(=O)[N-]c1cccc(S(=O)(=O)[NH+]=C2CCCCCN2)c1 (protonated)
CCOc1ncccc1C(=O)[N-]c1cccc(S(=O)(=O)[NH+]=C2CCCCCN2)c1 (3D coordinates assigned)
CCOc1ncccc1C(=O)[N-]c1cccc(S(=O)(=O)[NH+]=C2CCCCCN2)c1 (nonaromatic ring conformer: 65.13216524347604 kcal/mol)

>  <smiles>  (79) 
CCOc1ncccc1C(=O)Nc1cccc(S(=O)(=O)N=C2CCCCCN2)c1

>  <score_type>  (79) 
oracle

>  <origin>  (79) 
adg

>  <m_score__min__energy>  (79) 
-7.1200000000000001

>  <m_primary>  (79) 
energy

$$$$
79:0
     RDKit          3D

 37 38  0  0  0  0  0  0  0  0999 V2000
   56.7130   26.5430   46.2900 C   0  0  0  0  0  0  0  0  0  0  0  0
   58.0590   27.1550   45.9970 C   0  0  0  0  0  0  0  0  0  0  0  0
   59.1270   26.8030   46.8430 C   0  0  0  0  0  0  0  0  0  0  0  0
   60.3960   27.3510   46.6600 C   0  0  0  0  0  0  0  0  0  0  0  0
   60.6170   28.2710   45.6400 C   0  0  0  0  0  0  0  0  0  0  0  0
   59.5700   28.6510   44.8020 C   0  0  0  0  0  0  0  0  0  0  0  0
   58.2760   28.1140   44.9610 C   0  0  0  0  0  0  0  0  0  0  0  0
   57.1890   28.5900   43.9960 C   0  0  2  0  0  0  0  0  0  0  0  0
   57.3920   28.0530   42.6420 N   0  0  0  0  0  0  0  0  0  0  0  0
   57.0470   30.0940   44.0010 C   0  0  0  0  0  0  0  0  0  0  0  0
   57.0890   30.7380   42.9180 O   0  0  0  0  0  0  0  0  0  0  0  0
   56.7950   30.7780   45.2340 N   0  0  0  0  0  0  0  0  0  0  0  0
   57.8210   31.0380   46.2370 C   0  0  0  0  0  0  0  0  0  0  0  0
   58.4390   32.3930   46.0140 C   0  0  0  0  0  0  0  0  0  0  0  0
   57.8290   33.3160   45.1480 C   0  0  0  0  0  0  0  0  0  0  0  0
   58.3920   34.5810   44.9560 C   0  0  0  0  0  0  0  0  0  0  0  0
   59.5650   34.9350   45.6290 C   0  0  0  0  0  0  0  0  0  0  0  0
   60.1760   34.0250   46.4960 C   0  0  0  0  0  0  0  0  0  0  0  0
   61.3120   34.3750   47.1490 F   0  0  0  0  0  0  0  0  0  0  0  0
   59.6170   32.7570   46.6920 C   0  0  0  0  0  0  0  0  0  0  0  0
   60.2190   31.8870   47.5430 F   0  0  0  0  0  0  0  0  0  0  0  0
   56.5691   26.4776   47.3786 H   0  0  0  0  0  0  0  0  0  0  0  0
   55.9221   27.1700   45.8526 H   0  0  0  0  0  0  0  0  0  0  0  0
   56.6656   25.5348   45.8526 H   0  0  0  0  0  0  0  0  0  0  0  0
   58.9584   26.0858   47.6598 H   0  0  0  0  0  0  0  0  0  0  0  0
   61.2230   27.0557   47.3225 H   0  0  0  0  0  0  0  0  0  0  0  0
   61.6197   28.6992   45.4946 H   0  0  0  0  0  0  0  0  0  0  0  0
   59.7566   29.3829   44.0023 H   0  0  0  0  0  0  0  0  0  0  0  0
   56.2326   28.1855   44.3590 H   0  0  0  0  0  0  0  0  0  0  0  0
   58.3460   27.6440   42.5270 H   0  0  0  0  0  0  0  0  0  0  0  0
   57.2810   28.8210   41.9420 H   0  0  0  0  0  0  0  0  0  0  0  0
   56.6730   27.3210   42.4340 H   0  0  0  0  0  0  0  0  0  0  0  0
   57.3659   31.0071   47.2380 H   0  0  0  0  0  0  0  0  0  0  0  0
   58.6041   30.2699   46.1550 H   0  0  0  0  0  0  0  0  0  0  0  0
   56.9044   33.0420   44.6188 H   0  0  0  0  0  0  0  0  0  0  0  0
   57.9115   35.2986   44.2747 H   0  0  0  0  0  0  0  0  0  0  0  0
   60.0074   35.9304   45.4761 H   0  0  0  0  0  0  0  0  0  0  0  0
  1  2  1  0
  2  3  2  0
  3  4  1  0
  4  5  2  0
  5  6  1  0
  6  7  2  0
  7  8  1  0
  8  9  1  0
  8 10  1  0
 10 11  2  0
 10 12  1  0
 12 13  1  0
 13 14  1  0
 14 15  2  0
 15 16  1  0
 16 17  2  0
 17 18  1  0
 18 19  1  0
 18 20  2  0
 20 21  1  0
  7  2  1  0
 20 14  1  0
  1 22  1  0
  1 23  1  0
  1 24  1  0
  3 25  1  0
  4 26  1  0
  5 27  1  0
  6 28  1  0
  8 29  1  1
  9 30  1  0
  9 31  1  0
  9 32  1  0
 13 33  1  0
 13 34  1  0
 15 35  1  0
 16 36  1  0
 17 37  1  0
M  CHG  2   9   1  12  -1
M  END
>  <UniqueID>  (80) 
72

>  <SMILES>  (80) 
Cc1ccccc1[C@H]([NH3+])C(=O)[N-]Cc1cccc(F)c1F

>  <Energy>  (80) 
40.123315831671725

>  <Genealogy>  (80) 
Cc1ccccc1C([NH3+])C(=O)[N-]Cc1cccc(F)c1F (protonated)
Cc1ccccc1[C@H]([NH3+])C(=O)[N-]Cc1cccc(F)c1F (chirality)
Cc1ccccc1[C@H]([NH3+])C(=O)[N-]Cc1cccc(F)c1F (3D coordinates assigned)
Cc1ccccc1[C@H]([NH3+])C(=O)[N-]Cc1cccc(F)c1F (optimized conformer: 40.123315831671725 kcal/mol)

>  <smiles>  (80) 
Cc1ccccc1C(N)C(=O)NCc1cccc(F)c1F

>  <score_type>  (80) 
oracle

>  <origin>  (80) 
adg

>  <m_score__min__energy>  (80) 
-7.7199999999999998

>  <m_primary>  (80) 
energy

$$$$
80:0
     RDKit          3D

 39 41  0  0  0  0  0  0  0  0999 V2000
   56.6340   34.7280   44.8820 O   0  0  0  0  0  0  0  0  0  0  0  0
   57.4770   33.8040   45.0360 C   0  0  0  0  0  0  0  0  0  0  0  0
   57.5660   32.7830   44.0330 N   0  0  0  0  0  0  0  0  0  0  0  0
   57.6960   31.3760   44.2820 C   0  0  0  0  0  0  0  0  0  0  0  0
   56.6860   30.4680   43.9170 C   0  0  0  0  0  0  0  0  0  0  0  0
   56.8290   29.1080   44.1970 C   0  0  0  0  0  0  0  0  0  0  0  0
   57.9820   28.6350   44.8470 C   0  0  0  0  0  0  0  0  0  0  0  0
   58.1430   27.2490   45.1800 N   0  0  0  0  0  0  0  0  0  0  0  0
   57.2840   26.4870   46.0390 C   0  0  0  0  0  0  0  0  0  0  0  0
   57.1340   26.8610   47.2320 O   0  0  0  0  0  0  0  0  0  0  0  0
   56.5500   25.2920   45.5580 C   0  0  0  0  0  0  0  0  0  0  0  0
   57.2740   24.1620   45.1420 C   0  0  0  0  0  0  0  0  0  0  0  0
   56.6080   23.0370   44.6530 C   0  0  0  0  0  0  0  0  0  0  0  0
   55.2130   23.0220   44.5830 C   0  0  0  0  0  0  0  0  0  0  0  0
   54.4750   24.1260   45.0180 C   0  0  0  0  0  0  0  0  0  0  0  0
   53.0830   24.0760   44.9550 O   0  0  0  0  0  0  0  0  0  0  0  0
   55.1390   25.2620   45.5150 C   0  0  0  0  0  0  0  0  0  0  0  0
   54.3980   26.3410   45.9850 O   0  0  0  0  0  0  0  0  0  0  0  0
   59.0150   29.5300   45.1480 C   0  0  0  0  0  0  0  0  0  0  0  0
   58.8730   30.8930   44.8670 C   0  0  0  0  0  0  0  0  0  0  0  0
   58.3750   33.8280   46.2150 C   0  0  0  0  0  0  0  0  0  0  0  0
   59.5590   34.5890   46.2040 C   0  0  0  0  0  0  0  0  0  0  0  0
   60.4030   34.5980   47.3190 C   0  0  0  0  0  0  0  0  0  0  0  0
   60.0720   33.8570   48.4550 C   0  0  0  0  0  0  0  0  0  0  0  0
   58.8900   33.1110   48.4830 C   0  0  0  0  0  0  0  0  0  0  0  0
   58.5590   32.3790   49.6160 O   0  0  0  0  0  0  0  0  0  0  0  0
   58.0400   33.1010   47.3710 C   0  0  0  0  0  0  0  0  0  0  0  0
   55.7802   30.8308   43.4091 H   0  0  0  0  0  0  0  0  0  0  0  0
   56.0356   28.4031   43.9076 H   0  0  0  0  0  0  0  0  0  0  0  0
   58.3724   24.1639   45.2020 H   0  0  0  0  0  0  0  0  0  0  0  0
   57.1833   22.1598   44.3219 H   0  0  0  0  0  0  0  0  0  0  0  0
   54.6936   22.1382   44.1841 H   0  0  0  0  0  0  0  0  0  0  0  0
   52.5110   24.9110   44.9770 H   0  0  0  0  0  0  0  0  0  0  0  0
   59.9432   29.1598   45.6078 H   0  0  0  0  0  0  0  0  0  0  0  0
   59.6903   31.5891   45.1069 H   0  0  0  0  0  0  0  0  0  0  0  0
   59.8217   35.1796   45.3140 H   0  0  0  0  0  0  0  0  0  0  0  0
   61.3298   35.1903   47.3010 H   0  0  0  0  0  0  0  0  0  0  0  0
   60.7412   33.8601   49.3280 H   0  0  0  0  0  0  0  0  0  0  0  0
   57.1054   32.5216   47.4016 H   0  0  0  0  0  0  0  0  0  0  0  0
  1  2  2  0
  2  3  1  0
  3  4  1  0
  4  5  2  0
  5  6  1  0
  6  7  2  0
  7  8  1  0
  8  9  1  0
  9 10  2  0
  9 11  1  0
 11 12  2  0
 12 13  1  0
 13 14  2  0
 14 15  1  0
 15 16  1  0
 15 17  2  0
 17 18  1  0
  7 19  1  0
 19 20  2  0
  2 21  1  0
 21 22  2  0
 22 23  1  0
 23 24  2  0
 24 25  1  0
 25 26  1  0
 25 27  2  0
 20  4  1  0
 27 21  1  0
 17 11  1  0
  5 28  1  0
  6 29  1  0
 12 30  1  0
 13 31  1  0
 14 32  1  0
 16 33  1  0
 19 34  1  0
 20 35  1  0
 22 36  1  0
 23 37  1  0
 24 38  1  0
 27 39  1  0
M  CHG  4   3  -1   8  -1  18  -1  26  -1
M  END
>  <UniqueID>  (81) 
73

>  <SMILES>  (81) 
O=C([N-]c1ccc([N-]C(=O)c2cccc(O)c2[O-])cc1)c1cccc([O-])c1

>  <Energy>  (81) 
56.42301108374275

>  <Genealogy>  (81) 
O=C([N-]c1ccc([N-]C(=O)c2cccc(O)c2[O-])cc1)c1cccc([O-])c1 (protonated)
O=C([N-]c1ccc([N-]C(=O)c2cccc(O)c2[O-])cc1)c1cccc([O-])c1 (3D coordinates assigned)
O=C([N-]c1ccc([N-]C(=O)c2cccc(O)c2[O-])cc1)c1cccc([O-])c1 (optimized conformer: 56.42301108374275 kcal/mol)

>  <smiles>  (81) 
O=C(Nc1ccc(NC(=O)c2cccc(O)c2O)cc1)c1cccc(O)c1

>  <score_type>  (81) 
oracle

>  <origin>  (81) 
adg

>  <m_score__min__energy>  (81) 
-15.85

>  <m_primary>  (81) 
energy

$$$$
81:0
     RDKit          3D

 62 65  0  0  0  0  0  0  0  0999 V2000
   68.8910   34.1920   50.1710 C   0  0  0  0  0  0  0  0  0  0  0  0
   68.8640   34.3410   51.6360 N   0  0  0  0  0  0  0  0  0  0  0  0
   69.2610   33.0970   52.3280 C   0  0  0  0  0  0  0  0  0  0  0  0
   68.1950   31.9840   52.2190 C   0  0  0  0  0  0  0  0  0  0  0  0
   66.8710   32.5270   51.8530 N   0  0  0  0  0  0  0  0  0  0  0  0
   65.7820   31.5290   51.9360 C   0  0  0  0  0  0  0  0  0  0  0  0
   64.7370   31.6610   50.8460 C   0  0  0  0  0  0  0  0  0  0  0  0
   64.9670   32.4930   49.7390 C   0  0  0  0  0  0  0  0  0  0  0  0
   64.0010   32.6200   48.7370 C   0  0  0  0  0  0  0  0  0  0  0  0
   62.7870   31.9180   48.8220 C   0  0  0  0  0  0  0  0  0  0  0  0
   61.7680   32.0590   47.7520 C   0  0  0  0  0  0  0  0  0  0  0  0
   61.8180   31.3000   46.7460 O   0  0  0  0  0  0  0  0  0  0  0  0
   60.6980   33.0110   47.8760 N   0  0  0  0  0  0  0  0  0  0  0  0
   59.9140   33.4770   46.7640 C   0  0  0  0  0  0  0  0  0  0  0  0
   60.0040   34.8220   46.3730 C   0  0  0  0  0  0  0  0  0  0  0  0
   59.2550   35.2980   45.2950 C   0  0  0  0  0  0  0  0  0  0  0  0
   58.4220   34.4320   44.5840 C   0  0  0  0  0  0  0  0  0  0  0  0
   58.3520   33.0730   44.9310 C   0  0  0  0  0  0  0  0  0  0  0  0
   57.4560   32.1390   44.1590 C   0  0  0  0  0  0  0  0  0  0  0  0
   57.0010   31.0650   44.9860 O   0  0  0  0  0  0  0  0  0  0  0  0
   57.5400   29.7680   45.0020 C   0  0  0  0  0  0  0  0  0  0  0  0
   58.8370   29.4750   44.5500 C   0  0  0  0  0  0  0  0  0  0  0  0
   59.3000   28.1980   44.5860 N   0  0  0  0  0  0  0  0  0  0  0  0
   58.5440   27.1720   45.0550 C   0  0  0  0  0  0  0  0  0  0  0  0
   57.2410   27.4070   45.5240 C   0  0  0  0  0  0  0  0  0  0  0  0
   56.4050   26.2990   46.0400 C   0  0  0  0  0  0  0  0  0  0  0  0
   54.9850   26.4220   46.0770 N   0  0  0  0  0  0  0  0  0  0  0  0
   56.9400   25.2360   46.4540 O   0  0  0  0  0  0  0  0  0  0  0  0
   56.7500   28.7230   45.4910 C   0  0  0  0  0  0  0  0  0  0  0  0
   59.0930   32.6030   46.0280 C   0  0  0  0  0  0  0  0  0  0  0  0
   62.5490   31.1040   49.9430 C   0  0  0  0  0  0  0  0  0  0  0  0
   63.5140   30.9790   50.9460 C   0  0  0  0  0  0  0  0  0  0  0  0
   66.5820   33.7780   52.5690 C   0  0  0  0  0  0  0  0  0  0  0  0
   67.5710   34.8750   52.1250 C   0  0  0  0  0  0  0  0  0  0  0  0
   69.0817   33.1398   49.9129 H   0  0  0  0  0  0  0  0  0  0  0  0
   67.9220   34.5023   49.7530 H   0  0  0  0  0  0  0  0  0  0  0  0
   69.6895   34.8226   49.7530 H   0  0  0  0  0  0  0  0  0  0  0  0
   70.1979   32.7310   51.8827 H   0  0  0  0  0  0  0  0  0  0  0  0
   69.3819   33.3360   53.3949 H   0  0  0  0  0  0  0  0  0  0  0  0
   68.5096   31.2637   51.4495 H   0  0  0  0  0  0  0  0  0  0  0  0
   68.1057   31.4984   53.2020 H   0  0  0  0  0  0  0  0  0  0  0  0
   66.2272   30.5254   51.8679 H   0  0  0  0  0  0  0  0  0  0  0  0
   65.2663   31.7011   52.8923 H   0  0  0  0  0  0  0  0  0  0  0  0
   65.9132   33.0483   49.6597 H   0  0  0  0  0  0  0  0  0  0  0  0
   64.1928   33.2752   47.8745 H   0  0  0  0  0  0  0  0  0  0  0  0
   60.3930   33.2830   48.8370 H   0  0  0  0  0  0  0  0  0  0  0  0
   60.6695   35.5062   46.9198 H   0  0  0  0  0  0  0  0  0  0  0  0
   59.3213   36.3571   45.0054 H   0  0  0  0  0  0  0  0  0  0  0  0
   57.8180   34.8158   43.7486 H   0  0  0  0  0  0  0  0  0  0  0  0
   56.5860   32.7003   43.7874 H   0  0  0  0  0  0  0  0  0  0  0  0
   58.0292   31.7169   43.3204 H   0  0  0  0  0  0  0  0  0  0  0  0
   59.4795   30.2811   44.1660 H   0  0  0  0  0  0  0  0  0  0  0  0
   58.9542   26.1514   45.0677 H   0  0  0  0  0  0  0  0  0  0  0  0
   54.5210   27.0810   46.7410 H   0  0  0  0  0  0  0  0  0  0  0  0
   55.7331   28.9335   45.8538 H   0  0  0  0  0  0  0  0  0  0  0  0
   59.0308   31.5427   46.3140 H   0  0  0  0  0  0  0  0  0  0  0  0
   61.5962   30.5614   50.0314 H   0  0  0  0  0  0  0  0  0  0  0  0
   63.3139   30.3418   51.8200 H   0  0  0  0  0  0  0  0  0  0  0  0
   65.5546   34.0993   52.3426 H   0  0  0  0  0  0  0  0  0  0  0  0
   66.6881   33.6099   53.6509 H   0  0  0  0  0  0  0  0  0  0  0  0
   67.1058   35.4566   51.3155 H   0  0  0  0  0  0  0  0  0  0  0  0
   67.7889   35.4920   53.0092 H   0  0  0  0  0  0  0  0  0  0  0  0
  1  2  1  0
  2  3  1  0
  3  4  1  0
  4  5  1  0
  5  6  1  0
  6  7  1  0
  7  8  2  0
  8  9  1  0
  9 10  2  0
 10 11  1  0
 11 12  2  0
 11 13  1  0
 13 14  1  0
 14 15  2  0
 15 16  1  0
 16 17  2  0
 17 18  1  0
 18 19  1  0
 19 20  1  0
 20 21  1  0
 21 22  2  0
 22 23  1  0
 23 24  2  0
 24 25  1  0
 25 26  1  0
 26 27  1  0
 26 28  2  0
 25 29  2  0
 18 30  2  0
 10 31  1  0
 31 32  2  0
  5 33  1  0
 33 34  1  0
 34  2  1  0
 32  7  1  0
 30 14  1  0
 29 21  1  0
  1 35  1  0
  1 36  1  0
  1 37  1  0
  3 38  1  0
  3 39  1  0
  4 40  1  0
  4 41  1  0
  6 42  1  0
  6 43  1  0
  8 44  1  0
  9 45  1  0
 13 46  1  0
 15 47  1  0
 16 48  1  0
 17 49  1  0
 19 50  1  0
 19 51  1  0
 22 52  1  0
 24 53  1  0
 27 54  1  0
 29 55  1  0
 30 56  1  0
 31 57  1  0
 32 58  1  0
 33 59  1  0
 33 60  1  0
 34 61  1  0
 34 62  1  0
M  CHG  1  27  -1
M  END
>  <UniqueID>  (82) 
74

>  <SMILES>  (82) 
CN1CCN(Cc2ccc(C(=O)Nc3cccc(COc4cncc(C([NH-])=O)c4)c3)cc2)CC1

>  <Energy>  (82) 
84.95744321783785

>  <Genealogy>  (82) 
CN1CCN(Cc2ccc(C(=O)Nc3cccc(COc4cncc(C([NH-])=O)c4)c3)cc2)CC1 (protonated)
CN1CCN(Cc2ccc(C(=O)Nc3cccc(COc4cncc(C([NH-])=O)c4)c3)cc2)CC1 (3D coordinates assigned)
CN1CCN(Cc2ccc(C(=O)Nc3cccc(COc4cncc(C([NH-])=O)c4)c3)cc2)CC1 (nonaromatic ring conformer: 84.95744321783785 kcal/mol)

>  <smiles>  (82) 
CN1CCN(Cc2ccc(C(=O)Nc3cccc(COc4cncc(C(N)=O)c4)c3)cc2)CC1

>  <score_type>  (82) 
oracle

>  <origin>  (82) 
adg

>  <m_score__min__energy>  (82) 
-12.619999999999999

>  <m_primary>  (82) 
energy

$$$$
82:0
     RDKit          3D

 60 64  0  0  0  0  0  0  0  0999 V2000
   61.2950   30.1330   46.6230 O   0  0  0  0  0  0  0  0  0  0  0  0
   60.7530   29.8960   47.7380 C   0  0  0  0  0  0  0  0  0  0  0  0
   59.8470   28.7090   47.9140 C   0  0  0  0  0  0  0  0  0  0  0  0
   59.9580   27.4950   46.5490 S   0  0  0  0  0  0  0  0  0  0  0  0
   58.3520   27.8780   45.8350 C   0  0  0  0  0  0  0  0  0  0  0  0
   57.1620   27.1460   45.9390 C   0  0  0  0  0  0  0  0  0  0  0  0
   56.9720   25.8420   46.6660 C   0  0  0  0  0  0  0  0  0  0  0  0
   56.9660   24.6750   45.7060 C   0  0  0  0  0  0  0  0  0  0  0  0
   58.1860   24.0870   45.3300 C   0  0  0  0  0  0  0  0  0  0  0  0
   58.2090   22.9830   44.4710 C   0  0  0  0  0  0  0  0  0  0  0  0
   57.0140   22.4630   43.9700 C   0  0  0  0  0  0  0  0  0  0  0  0
   55.7950   23.0470   44.3220 C   0  0  0  0  0  0  0  0  0  0  0  0
   55.7600   24.1490   45.1860 C   0  0  0  0  0  0  0  0  0  0  0  0
   54.1940   24.8460   45.5820 Cl  0  0  0  0  0  0  0  0  0  0  0  0
   56.1480   27.8040   45.3220 N   0  0  0  0  0  0  0  0  0  0  0  0
   56.6770   28.9500   44.8620 C   0  0  0  0  0  0  0  0  0  0  0  0
   56.0070   29.9830   44.2050 C   0  0  0  0  0  0  0  0  0  0  0  0
   56.7480   31.1270   43.8520 C   0  0  0  0  0  0  0  0  0  0  0  0
   58.1250   31.2190   44.1730 C   0  0  0  0  0  0  0  0  0  0  0  0
   58.7700   30.1680   44.8490 C   0  0  0  0  0  0  0  0  0  0  0  0
   58.0160   29.0330   45.1610 C   0  0  0  0  0  0  0  0  0  0  0  0
   61.0030   30.7620   48.8580 N   0  0  0  0  0  0  0  0  0  0  0  0
   61.9830   31.8050   48.8180 C   0  0  0  0  0  0  0  0  0  0  0  0
   63.2740   31.5360   49.2940 C   0  0  0  0  0  0  0  0  0  0  0  0
   64.2510   32.5350   49.2880 C   0  0  0  0  0  0  0  0  0  0  0  0
   63.9500   33.8060   48.8000 C   0  0  0  0  0  0  0  0  0  0  0  0
   62.6720   34.0830   48.3100 C   0  0  0  0  0  0  0  0  0  0  0  0
   61.6810   33.0880   48.2990 C   0  0  0  0  0  0  0  0  0  0  0  0
   60.4060   33.3780   47.6980 N   0  0  0  0  0  0  0  0  0  0  0  0
   59.1690   32.9680   48.3810 C   0  0  0  0  0  0  0  0  0  0  0  0
   58.0300   32.7860   47.3740 C   0  0  0  0  0  0  0  0  0  0  0  0
   57.9410   33.9130   46.5160 O   0  0  0  0  0  0  0  0  0  0  0  0
   59.0800   33.9280   45.6700 C   0  0  0  0  0  0  0  0  0  0  0  0
   60.3570   34.2020   46.4820 C   0  0  0  0  0  0  0  0  0  0  0  0
   60.1156   28.2025   48.8528 H   0  0  0  0  0  0  0  0  0  0  0  0
   58.8149   29.0893   47.9248 H   0  0  0  0  0  0  0  0  0  0  0  0
   57.7933   25.7099   47.3858 H   0  0  0  0  0  0  0  0  0  0  0  0
   56.0020   25.8710   47.1840 H   0  0  0  0  0  0  0  0  0  0  0  0
   59.1309   24.4984   45.7145 H   0  0  0  0  0  0  0  0  0  0  0  0
   59.1687   22.5246   44.1903 H   0  0  0  0  0  0  0  0  0  0  0  0
   57.0326   21.5927   43.2975 H   0  0  0  0  0  0  0  0  0  0  0  0
   54.8566   22.6390   43.9182 H   0  0  0  0  0  0  0  0  0  0  0  0
   55.1480   27.5030   45.2520 H   0  0  0  0  0  0  0  0  0  0  0  0
   54.9350   29.9060   43.9706 H   0  0  0  0  0  0  0  0  0  0  0  0
   56.2542   31.9555   43.3231 H   0  0  0  0  0  0  0  0  0  0  0  0
   58.6930   32.1180   43.8917 H   0  0  0  0  0  0  0  0  0  0  0  0
   59.8330   30.2368   45.1233 H   0  0  0  0  0  0  0  0  0  0  0  0
   60.4030   30.6810   49.7080 H   0  0  0  0  0  0  0  0  0  0  0  0
   63.5191   30.5333   49.6742 H   0  0  0  0  0  0  0  0  0  0  0  0
   65.2598   32.3182   49.6691 H   0  0  0  0  0  0  0  0  0  0  0  0
   64.7201   34.5914   48.8010 H   0  0  0  0  0  0  0  0  0  0  0  0
   62.4397   35.0886   47.9296 H   0  0  0  0  0  0  0  0  0  0  0  0
   59.3438   32.0164   48.9044 H   0  0  0  0  0  0  0  0  0  0  0  0
   58.8848   33.7516   49.0988 H   0  0  0  0  0  0  0  0  0  0  0  0
   58.2202   31.8859   46.7709 H   0  0  0  0  0  0  0  0  0  0  0  0
   57.0827   32.6810   47.9232 H   0  0  0  0  0  0  0  0  0  0  0  0
   59.1719   32.9521   45.1709 H   0  0  0  0  0  0  0  0  0  0  0  0
   58.9564   34.7277   44.9249 H   0  0  0  0  0  0  0  0  0  0  0  0
   61.2337   33.9726   45.8586 H   0  0  0  0  0  0  0  0  0  0  0  0
   60.3570   35.2606   46.7808 H   0  0  0  0  0  0  0  0  0  0  0  0
  1  2  2  0
  2  3  1  0
  3  4  1  0
  4  5  1  0
  5  6  2  0
  6  7  1  0
  7  8  1  0
  8  9  2  0
  9 10  1  0
 10 11  2  0
 11 12  1  0
 12 13  2  0
 13 14  1  0
  6 15  1  0
 15 16  1  0
 16 17  2  0
 17 18  1  0
 18 19  2  0
 19 20  1  0
 20 21  2  0
  2 22  1  0
 22 23  1  0
 23 24  2  0
 24 25  1  0
 25 26  2  0
 26 27  1  0
 27 28  2  0
 28 29  1  0
 29 30  1  0
 30 31  1  0
 31 32  1  0
 32 33  1  0
 33 34  1  0
 21  5  1  0
 28 23  1  0
 34 29  1  0
 13  8  1  0
 21 16  1  0
  3 35  1  0
  3 36  1  0
  7 37  1  0
  7 38  1  0
  9 39  1  0
 10 40  1  0
 11 41  1  0
 12 42  1  0
 15 43  1  0
 17 44  1  0
 18 45  1  0
 19 46  1  0
 20 47  1  0
 22 48  1  0
 24 49  1  0
 25 50  1  0
 26 51  1  0
 27 52  1  0
 30 53  1  0
 30 54  1  0
 31 55  1  0
 31 56  1  0
 33 57  1  0
 33 58  1  0
 34 59  1  0
 34 60  1  0
M  END
>  <UniqueID>  (83) 
75

>  <SMILES>  (83) 
O=C(CSc1c(Cc2ccccc2Cl)[nH]c2ccccc12)Nc1ccccc1N1CCOCC1

>  <Energy>  (83) 
103.24561240832287

>  <Genealogy>  (83) 
O=C(CSc1c(Cc2ccccc2Cl)[nH]c2ccccc12)Nc1ccccc1N1CCOCC1 (3D coordinates assigned)
O=C(CSc1c(Cc2ccccc2Cl)[nH]c2ccccc12)Nc1ccccc1N1CCOCC1 (nonaromatic ring conformer: 103.24561240832287 kcal/mol)

>  <smiles>  (83) 
O=C(CSc1c(Cc2ccccc2Cl)[nH]c2ccccc12)Nc1ccccc1N1CCOCC1

>  <score_type>  (83) 
oracle

>  <origin>  (83) 
adg

>  <m_score__min__energy>  (83) 
-10.210000000000001

>  <m_primary>  (83) 
energy

$$$$
83:0
     RDKit          3D

 52 55  0  0  1  0  0  0  0  0999 V2000
   56.2000   25.1100   47.4650 O   0  0  0  0  0  0  0  0  0  0  0  0
   56.2890   25.3470   46.2350 C   0  0  0  0  0  0  0  0  0  0  0  0
   56.1190   26.6710   45.6930 N   0  0  0  0  0  0  0  0  0  0  0  0
   57.1150   27.4210   45.3670 C   0  0  0  0  0  0  0  0  0  0  0  0
   58.0300   27.9830   46.2240 C   0  0  0  0  0  0  0  0  0  0  0  0
   58.8900   28.7020   45.4400 C   0  0  0  0  0  0  0  0  0  0  0  0
   60.0620   29.4940   45.8660 C   0  0  0  0  0  0  0  0  0  0  0  0
   61.1450   29.3510   45.2450 O   0  0  0  0  0  0  0  0  0  0  0  0
   59.9360   30.3880   46.9600 N   0  0  0  0  0  0  0  0  0  0  0  0
   61.0020   31.1930   47.4440 C   0  0  0  0  0  0  0  0  0  0  0  0
   61.6160   30.8010   48.6230 C   0  0  0  0  0  0  0  0  0  0  0  0
   62.6420   31.5930   49.0880 C   0  0  0  0  0  0  0  0  0  0  0  0
   63.0710   32.7380   48.4350 C   0  0  0  0  0  0  0  0  0  0  0  0
   64.1780   33.4870   49.0650 C   0  0  0  0  0  0  0  0  0  0  0  0
   64.4770   32.9000   50.3500 N   0  0  0  0  0  0  0  0  0  0  0  0
   64.4930   33.9300   51.3930 C   0  0  0  0  0  0  0  0  0  0  0  0
   65.8960   34.1260   51.8870 C   0  0  0  0  0  0  0  0  0  0  0  0
   66.8400   34.2300   50.8900 O   0  0  0  0  0  0  0  0  0  0  0  0
   66.9180   33.0690   50.1190 C   0  0  0  0  0  0  0  0  0  0  0  0
   65.7400   32.1750   50.3510 C   0  0  0  0  0  0  0  0  0  0  0  0
   62.4330   33.0770   47.2800 C   0  0  0  0  0  0  0  0  0  0  0  0
   61.3870   32.3230   46.7500 C   0  0  0  0  0  0  0  0  0  0  0  0
   58.4660   28.5460   44.1670 N   0  0  0  0  0  0  0  0  0  0  0  0
   57.3980   27.7760   44.1200 N   0  0  0  0  0  0  0  0  0  0  0  0
   56.5730   24.3050   45.2380 C   0  0  0  0  0  0  0  0  0  0  0  0
   57.7460   23.5790   45.0690 C   0  0  0  0  0  0  0  0  0  0  0  0
   57.6400   22.7200   44.0630 N   0  0  0  0  0  0  0  0  0  0  0  0
   56.4010   22.8480   43.5330 C   0  0  0  0  0  0  0  0  0  0  0  0
   55.9300   22.0920   42.4420 O   0  0  0  0  0  0  0  0  0  0  0  0
   55.7310   23.8200   44.2450 C   0  0  0  0  0  0  0  0  0  0  0  0
   58.0641   27.8764   47.3183 H   0  0  0  0  0  0  0  0  0  0  0  0
   59.0160   30.4770   47.4520 H   0  0  0  0  0  0  0  0  0  0  0  0
   61.2978   29.8972   49.1634 H   0  0  0  0  0  0  0  0  0  0  0  0
   63.1452   31.3032   50.0223 H   0  0  0  0  0  0  0  0  0  0  0  0
   65.0688   33.4375   48.4216 H   0  0  0  0  0  0  0  0  0  0  0  0
   63.8842   34.5386   49.1982 H   0  0  0  0  0  0  0  0  0  0  0  0
   64.1155   34.8764   50.9784 H   0  0  0  0  0  0  0  0  0  0  0  0
   63.8529   33.6123   52.2292 H   0  0  0  0  0  0  0  0  0  0  0  0
   65.9245   35.0485   52.4855 H   0  0  0  0  0  0  0  0  0  0  0  0
   66.1521   33.2290   52.4700 H   0  0  0  0  0  0  0  0  0  0  0  0
   66.9508   33.3480   49.0555 H   0  0  0  0  0  0  0  0  0  0  0  0
   67.8276   32.5229   50.4094 H   0  0  0  0  0  0  0  0  0  0  0  0
   65.7113   31.4165   49.5548 H   0  0  0  0  0  0  0  0  0  0  0  0
   65.8601   31.7171   51.3439 H   0  0  0  0  0  0  0  0  0  0  0  0
   62.7561   33.9817   46.7442 H   0  0  0  0  0  0  0  0  0  0  0  0
   60.8876   32.6169   45.8150 H   0  0  0  0  0  0  0  0  0  0  0  0
   58.9400   28.9860   43.3560 H   0  0  0  0  0  0  0  0  0  0  0  0
   56.8890   27.5110   43.2340 H   0  0  0  0  0  0  0  0  0  0  0  0
   58.6463   23.7007   45.6892 H   0  0  0  0  0  0  0  0  0  0  0  0
   58.4030   22.0730   43.7600 H   0  0  0  0  0  0  0  0  0  0  0  0
   56.2890   22.3020   41.5050 H   0  0  0  0  0  0  0  0  0  0  0  0
   54.7004   24.1559   44.0579 H   0  0  0  0  0  0  0  0  0  0  0  0
  1  2  2  0
  2  3  1  0
  3  4  2  0
  4  5  1  0
  5  6  2  0
  6  7  1  0
  7  8  2  0
  7  9  1  0
  9 10  1  0
 10 11  2  0
 11 12  1  0
 12 13  2  0
 13 14  1  0
 14 15  1  0
 15 16  1  0
 16 17  1  0
 17 18  1  0
 18 19  1  0
 19 20  1  0
 13 21  1  0
 21 22  2  0
  6 23  1  0
 23 24  1  0
  2 25  1  0
 25 26  2  0
 26 27  1  0
 27 28  1  0
 28 29  1  0
 28 30  2  0
 24  4  1  0
 30 25  1  0
 22 10  1  0
 20 15  1  0
  5 31  1  0
  9 32  1  0
 11 33  1  0
 12 34  1  0
 14 35  1  0
 14 36  1  0
 16 37  1  0
 16 38  1  0
 17 39  1  0
 17 40  1  0
 19 41  1  0
 19 42  1  0
 20 43  1  0
 20 44  1  0
 21 45  1  0
 22 46  1  0
 23 47  1  0
 24 48  1  0
 26 49  1  0
 27 50  1  0
 29 51  1  0
 30 52  1  0
M  END
>  <smiles>  (84) 
O=C(N=c1cc(C(=O)Nc2ccc(CN3CCOCC3)cc2)[nH][nH]1)c1c[nH]c(O)c1

>  <score_type>  (84) 
oracle

>  <origin>  (84) 
adg

>  <m_score__min__energy>  (84) 
-8.8399999999999999

>  <m_primary>  (84) 
energy

$$$$
84:0
     RDKit          3D

 62 66  0  0  0  0  0  0  0  0999 V2000
   61.5340   33.8700   50.1500 C   0  0  0  0  0  0  0  0  0  0  0  0
   60.3510   33.3460   49.3750 C   0  0  0  0  0  0  0  0  0  0  0  0
   59.8720   34.0850   48.2790 C   0  0  0  0  0  0  0  0  0  0  0  0
   58.7810   33.6210   47.5210 C   0  0  0  0  0  0  0  0  0  0  0  0
   58.3640   34.2840   46.3210 N   0  0  0  0  0  0  0  0  0  0  0  0
   58.7280   33.9090   44.9910 C   0  0  0  0  0  0  0  0  0  0  0  0
   59.4260   34.6750   44.2770 O   0  0  0  0  0  0  0  0  0  0  0  0
   58.2430   32.6300   44.4550 C   0  0  0  0  0  0  0  0  0  0  0  0
   57.7080   32.4130   43.1980 C   0  0  0  0  0  0  0  0  0  0  0  0
   57.4500   31.0580   43.1300 C   0  0  0  0  0  0  0  0  0  0  0  0
   57.8540   30.5360   44.3490 C   0  0  0  0  0  0  0  0  0  0  0  0
   57.8460   29.1200   44.7590 C   0  0  0  0  0  0  0  0  0  0  0  0
   59.0220   28.3540   44.7390 C   0  0  0  0  0  0  0  0  0  0  0  0
   59.0030   27.0260   45.1780 C   0  0  0  0  0  0  0  0  0  0  0  0
   57.8090   26.4460   45.6150 C   0  0  0  0  0  0  0  0  0  0  0  0
   56.6270   27.1930   45.6370 C   0  0  0  0  0  0  0  0  0  0  0  0
   55.4150   26.5510   46.0560 N   0  0  0  0  0  0  0  0  0  0  0  0
   54.9410   25.2700   45.6230 C   0  0  0  0  0  0  0  0  0  0  0  0
   53.6950   25.0660   45.6040 O   0  0  0  0  0  0  0  0  0  0  0  0
   55.8630   24.2170   45.1260 C   0  0  0  0  0  0  0  0  0  0  0  0
   55.9350   23.9340   43.7490 C   0  0  0  0  0  0  0  0  0  0  0  0
   56.8360   22.9780   43.2650 C   0  0  0  0  0  0  0  0  0  0  0  0
   57.6760   22.2990   44.1490 C   0  0  0  0  0  0  0  0  0  0  0  0
   57.6090   22.5650   45.5200 C   0  0  0  0  0  0  0  0  0  0  0  0
   56.7110   23.5220   46.0090 C   0  0  0  0  0  0  0  0  0  0  0  0
   56.6470   28.5300   45.1970 C   0  0  0  0  0  0  0  0  0  0  0  0
   58.3110   31.5000   45.1150 O   0  0  0  0  0  0  0  0  0  0  0  0
   58.1530   32.4240   47.8810 C   0  0  0  0  0  0  0  0  0  0  0  0
   58.5980   31.6980   48.9850 C   0  0  0  0  0  0  0  0  0  0  0  0
   59.7050   32.1360   49.7290 C   0  0  0  0  0  0  0  0  0  0  0  0
   60.1980   31.2900   50.8400 C   0  0  0  0  0  0  0  0  0  0  0  0
   61.4550   30.6760   50.7160 C   0  0  0  0  0  0  0  0  0  0  0  0
   61.9600   29.8830   51.7500 C   0  0  0  0  0  0  0  0  0  0  0  0
   61.2160   29.7020   52.9180 C   0  0  0  0  0  0  0  0  0  0  0  0
   59.9600   30.3010   53.0510 C   0  0  0  0  0  0  0  0  0  0  0  0
   59.4310   31.0890   52.0160 C   0  0  0  0  0  0  0  0  0  0  0  0
   57.8070   31.7780   52.2020 S   0  0  0  0  0  0  0  0  0  0  0  0
   56.6740   30.8650   51.2730 N   0  0  0  0  0  0  0  0  0  0  0  0
   57.3840   31.7230   53.6410 O   0  0  0  0  0  0  0  0  0  0  0  0
   57.8080   33.2110   51.7450 O   0  0  0  0  0  0  0  0  0  0  0  0
   61.3343   33.7816   51.2281 H   0  0  0  0  0  0  0  0  0  0  0  0
   62.4290   33.2841   49.8936 H   0  0  0  0  0  0  0  0  0  0  0  0
   61.7015   34.9265   49.8936 H   0  0  0  0  0  0  0  0  0  0  0  0
   60.3553   35.0361   48.0112 H   0  0  0  0  0  0  0  0  0  0  0  0
   57.5259   33.1639   42.4151 H   0  0  0  0  0  0  0  0  0  0  0  0
   57.0141   30.5069   42.2836 H   0  0  0  0  0  0  0  0  0  0  0  0
   59.9607   28.7990   44.3773 H   0  0  0  0  0  0  0  0  0  0  0  0
   59.9314   26.4360   45.1793 H   0  0  0  0  0  0  0  0  0  0  0  0
   57.7989   25.3962   45.9434 H   0  0  0  0  0  0  0  0  0  0  0  0
   55.2778   24.4685   43.0473 H   0  0  0  0  0  0  0  0  0  0  0  0
   56.8819   22.7619   42.1874 H   0  0  0  0  0  0  0  0  0  0  0  0
   58.3905   21.5549   43.7672 H   0  0  0  0  0  0  0  0  0  0  0  0
   58.2637   22.0209   46.2167 H   0  0  0  0  0  0  0  0  0  0  0  0
   56.6681   23.7316   47.0880 H   0  0  0  0  0  0  0  0  0  0  0  0
   55.7173   29.1180   45.1958 H   0  0  0  0  0  0  0  0  0  0  0  0
   57.3029   32.0533   47.2895 H   0  0  0  0  0  0  0  0  0  0  0  0
   58.0771   30.7738   49.2756 H   0  0  0  0  0  0  0  0  0  0  0  0
   62.0457   30.8202   49.7993 H   0  0  0  0  0  0  0  0  0  0  0  0
   62.9433   29.4015   51.6440 H   0  0  0  0  0  0  0  0  0  0  0  0
   61.6195   29.0864   53.7355 H   0  0  0  0  0  0  0  0  0  0  0  0
   59.3809   30.1538   53.9746 H   0  0  0  0  0  0  0  0  0  0  0  0
   56.0380   31.5430   50.8020 H   0  0  0  0  0  0  0  0  0  0  0  0
  1  2  1  0
  2  3  2  0
  3  4  1  0
  4  5  1  0
  5  6  1  0
  6  7  2  0
  6  8  1  0
  8  9  2  0
  9 10  1  0
 10 11  2  0
 11 12  1  0
 12 13  2  0
 13 14  1  0
 14 15  2  0
 15 16  1  0
 16 17  1  0
 17 18  1  0
 18 19  2  0
 18 20  1  0
 20 21  2  0
 21 22  1  0
 22 23  2  0
 23 24  1  0
 24 25  2  0
 16 26  2  0
 11 27  1  0
  4 28  2  0
 28 29  1  0
 29 30  2  0
 30 31  1  0
 31 32  2  0
 32 33  1  0
 33 34  2  0
 34 35  1  0
 35 36  2  0
 36 37  1  0
 37 38  1  0
 37 39  2  0
 37 40  2  0
 30  2  1  0
 36 31  1  0
 27  8  1  0
 26 12  1  0
 25 20  1  0
  1 41  1  0
  1 42  1  0
  1 43  1  0
  3 44  1  0
  9 45  1  0
 10 46  1  0
 13 47  1  0
 14 48  1  0
 15 49  1  0
 21 50  1  0
 22 51  1  0
 23 52  1  0
 24 53  1  0
 25 54  1  0
 26 55  1  0
 28 56  1  0
 29 57  1  0
 32 58  1  0
 33 59  1  0
 34 60  1  0
 35 61  1  0
 38 62  1  0
M  CHG  3   5  -1  17  -1  38  -1
M  END
>  <UniqueID>  (85) 
76

>  <SMILES>  (85) 
Cc1cc([N-]C(=O)c2ccc(-c3cccc([N-]C(=O)c4ccccc4)c3)o2)ccc1-c1ccccc1S([NH-])(=O)=O

>  <Energy>  (85) 
113.89229232617183

>  <Genealogy>  (85) 
Cc1cc([N-]C(=O)c2ccc(-c3cccc([N-]C(=O)c4ccccc4)c3)o2)ccc1-c1ccccc1S([NH-])(=O)=O (protonated)
Cc1cc([N-]C(=O)c2ccc(-c3cccc([N-]C(=O)c4ccccc4)c3)o2)ccc1-c1ccccc1S([NH-])(=O)=O (3D coordinates assigned)
Cc1cc([N-]C(=O)c2ccc(-c3cccc([N-]C(=O)c4ccccc4)c3)o2)ccc1-c1ccccc1S([NH-])(=O)=O (optimized conformer: 113.89229232617183 kcal/mol)

>  <smiles>  (85) 
Cc1cc(NC(=O)c2ccc(-c3cccc(NC(=O)c4ccccc4)c3)o2)ccc1-c1ccccc1S(N)(=O)=O

>  <score_type>  (85) 
oracle

>  <origin>  (85) 
adg

>  <m_score__min__energy>  (85) 
-14.619999999999999

>  <m_primary>  (85) 
energy

$$$$
85:0
     RDKit          3D

 50 52  0  0  0  0  0  0  0  0999 V2000
   51.2250   32.2670   51.3400 N   0  0  0  0  0  0  0  0  0  0  0  0
   51.6210   30.5880   51.4310 S   0  0  0  0  0  0  0  0  0  0  0  0
   51.4670   29.9640   50.0710 O   0  0  0  0  0  0  0  0  0  0  0  0
   50.6860   29.9010   52.3860 O   0  0  0  0  0  0  0  0  0  0  0  0
   53.2770   30.4080   52.0000 C   0  0  0  0  0  0  0  0  0  0  0  0
   53.5460   29.5820   53.0970 C   0  0  0  0  0  0  0  0  0  0  0  0
   54.8580   29.4210   53.5500 C   0  0  0  0  0  0  0  0  0  0  0  0
   55.9070   30.0930   52.9180 C   0  0  0  0  0  0  0  0  0  0  0  0
   55.6460   30.9480   51.8320 C   0  0  0  0  0  0  0  0  0  0  0  0
   56.7090   31.6360   51.1510 N   0  0  0  0  0  0  0  0  0  0  0  0
   58.0790   31.6170   51.5850 C   0  0  0  0  0  0  0  0  0  0  0  0
   58.4310   30.9230   52.5770 O   0  0  0  0  0  0  0  0  0  0  0  0
   59.1110   32.4440   50.8700 C   0  0  0  0  0  0  0  0  0  0  0  0
   60.2000   31.6330   50.4260 O   0  0  0  0  0  0  0  0  0  0  0  0
   60.2420   30.9310   49.2100 C   0  0  0  0  0  0  0  0  0  0  0  0
   60.3430   31.5860   47.9670 C   0  0  0  0  0  0  0  0  0  0  0  0
   60.3120   30.8550   46.7790 C   0  0  0  0  0  0  0  0  0  0  0  0
   60.1840   29.4610   46.8100 C   0  0  0  0  0  0  0  0  0  0  0  0
   60.0380   28.5490   45.3060 S   0  0  0  0  0  0  0  0  0  0  0  0
   61.2940   28.7180   44.4980 O   0  0  0  0  0  0  0  0  0  0  0  0
   59.8800   27.0870   45.6230 O   0  0  0  0  0  0  0  0  0  0  0  0
   58.6690   29.0940   44.3620 N   0  0  0  0  0  0  0  0  0  0  0  0
   58.6840   30.5620   44.1750 C   0  0  0  0  0  0  0  0  0  0  0  0
   57.6590   31.2700   45.0800 C   0  0  0  0  0  0  0  0  0  0  0  0
   56.3250   30.8310   44.8660 O   0  0  0  0  0  0  0  0  0  0  0  0
   56.2220   29.4630   44.4900 C   0  0  0  0  0  0  0  0  0  0  0  0
   57.4080   28.5990   44.9480 C   0  0  0  0  0  0  0  0  0  0  0  0
   60.1330   28.8000   48.0450 C   0  0  0  0  0  0  0  0  0  0  0  0
   60.1620   29.5300   49.2380 C   0  0  0  0  0  0  0  0  0  0  0  0
   60.0490   28.6750   50.7690 Cl  0  0  0  0  0  0  0  0  0  0  0  0
   54.3280   31.0890   51.3690 C   0  0  0  0  0  0  0  0  0  0  0  0
   50.2910   32.3370   50.8790 H   0  0  0  0  0  0  0  0  0  0  0  0
   52.7224   29.0580   53.6041 H   0  0  0  0  0  0  0  0  0  0  0  0
   55.0654   28.7631   54.4068 H   0  0  0  0  0  0  0  0  0  0  0  0
   56.9396   29.9532   53.2704 H   0  0  0  0  0  0  0  0  0  0  0  0
   56.4430   32.3090   50.3970 H   0  0  0  0  0  0  0  0  0  0  0  0
   58.6442   32.9273   49.9991 H   0  0  0  0  0  0  0  0  0  0  0  0
   59.4993   33.1998   51.5685 H   0  0  0  0  0  0  0  0  0  0  0  0
   60.4469   32.6805   47.9328 H   0  0  0  0  0  0  0  0  0  0  0  0
   60.3885   31.3763   45.8134 H   0  0  0  0  0  0  0  0  0  0  0  0
   59.6891   30.9400   44.4136 H   0  0  0  0  0  0  0  0  0  0  0  0
   58.4168   30.7737   43.1292 H   0  0  0  0  0  0  0  0  0  0  0  0
   57.9266   31.0762   46.1292 H   0  0  0  0  0  0  0  0  0  0  0  0
   57.6932   32.3420   44.8356 H   0  0  0  0  0  0  0  0  0  0  0  0
   55.3027   29.0509   44.9316 H   0  0  0  0  0  0  0  0  0  0  0  0
   56.2126   29.4344   43.3904 H   0  0  0  0  0  0  0  0  0  0  0  0
   57.4801   28.6365   46.0450 H   0  0  0  0  0  0  0  0  0  0  0  0
   57.2433   27.5645   44.6123 H   0  0  0  0  0  0  0  0  0  0  0  0
   60.0699   27.7023   48.0762 H   0  0  0  0  0  0  0  0  0  0  0  0
   54.1185   31.7378   50.5058 H   0  0  0  0  0  0  0  0  0  0  0  0
  1  2  1  0
  2  3  2  0
  2  4  2  0
  2  5  1  0
  5  6  2  0
  6  7  1  0
  7  8  2  0
  8  9  1  0
  9 10  1  0
 10 11  1  0
 11 12  2  0
 11 13  1  0
 13 14  1  0
 14 15  1  0
 15 16  2  0
 16 17  1  0
 17 18  2  0
 18 19  1  0
 19 20  2  0
 19 21  2  0
 19 22  1  0
 22 23  1  0
 23 24  1  0
 24 25  1  0
 25 26  1  0
 26 27  1  0
 18 28  1  0
 28 29  2  0
 29 30  1  0
  9 31  2  0
 31  5  1  0
 29 15  1  0
 27 22  1  0
  1 32  1  0
  6 33  1  0
  7 34  1  0
  8 35  1  0
 10 36  1  0
 13 37  1  0
 13 38  1  0
 16 39  1  0
 17 40  1  0
 23 41  1  0
 23 42  1  0
 24 43  1  0
 24 44  1  0
 26 45  1  0
 26 46  1  0
 27 47  1  0
 27 48  1  0
 28 49  1  0
 31 50  1  0
M  CHG  1   1  -1
M  END
>  <UniqueID>  (86) 
77

>  <SMILES>  (86) 
[NH-]S(=O)(=O)c1cccc(NC(=O)COc2ccc(S(=O)(=O)N3CCOCC3)cc2Cl)c1

>  <Energy>  (86) 
63.048375890103245

>  <Genealogy>  (86) 
[NH-]S(=O)(=O)c1cccc(NC(=O)COc2ccc(S(=O)(=O)N3CCOCC3)cc2Cl)c1 (protonated)
[NH-]S(=O)(=O)c1cccc(NC(=O)COc2ccc(S(=O)(=O)N3CCOCC3)cc2Cl)c1 (3D coordinates assigned)
[NH-]S(=O)(=O)c1cccc(NC(=O)COc2ccc(S(=O)(=O)N3CCOCC3)cc2Cl)c1 (nonaromatic ring conformer: 63.048375890103245 kcal/mol)

>  <smiles>  (86) 
NS(=O)(=O)c1cccc(NC(=O)COc2ccc(S(=O)(=O)N3CCOCC3)cc2Cl)c1

>  <score_type>  (86) 
oracle

>  <origin>  (86) 
adg

>  <m_score__min__energy>  (86) 
-12.800000000000001

>  <m_primary>  (86) 
energy

$$$$
86:0
     RDKit          3D

 46 48  0  0  0  0  0  0  0  0999 V2000
   60.5447   29.5496   46.3173 H   0  0  0  0  0  0  0  0  0  0  0  0
   59.6920   30.1250   46.7070 C   0  0  0  0  0  0  0  0  0  0  0  0
   58.3390   29.7940   46.2160 C   0  0  0  0  0  0  0  0  0  0  0  0
   57.6530   30.7150   45.6970 O   0  0  0  0  0  0  0  0  0  0  0  0
   57.7480   28.4460   46.3860 C   0  0  0  0  0  0  0  0  0  0  0  0
   57.5405   28.1068   47.4116 H   0  0  0  0  0  0  0  0  0  0  0  0
   57.4470   27.6080   45.3820 C   0  0  0  0  0  0  0  0  0  0  0  0
   57.4342   28.0227   44.3632 H   0  0  0  0  0  0  0  0  0  0  0  0
   57.1310   26.1710   45.5360 C   0  0  0  0  0  0  0  0  0  0  0  0
   58.1430   25.1960   45.4470 C   0  0  0  0  0  0  0  0  0  0  0  0
   59.1771   25.4995   45.2267 H   0  0  0  0  0  0  0  0  0  0  0  0
   57.8410   23.8450   45.6370 C   0  0  0  0  0  0  0  0  0  0  0  0
   58.6335   23.0872   45.5494 H   0  0  0  0  0  0  0  0  0  0  0  0
   56.5340   23.4560   45.9380 C   0  0  0  0  0  0  0  0  0  0  0  0
   56.2971   22.3915   46.0815 H   0  0  0  0  0  0  0  0  0  0  0  0
   55.5280   24.4160   46.0570 C   0  0  0  0  0  0  0  0  0  0  0  0
   54.5011   24.1067   46.3015 H   0  0  0  0  0  0  0  0  0  0  0  0
   55.8220   25.7720   45.8660 C   0  0  0  0  0  0  0  0  0  0  0  0
   54.8070   26.7140   45.9960 O   0  0  0  0  0  0  0  0  0  0  0  0
   59.9330   31.0930   47.6050 C   0  0  0  0  0  0  0  0  0  0  0  0
   59.1298   31.3693   48.3039 H   0  0  0  0  0  0  0  0  0  0  0  0
   61.2310   31.8100   47.7020 C   0  0  0  0  0  0  0  0  0  0  0  0
   62.3970   31.2960   47.1000 C   0  0  0  0  0  0  0  0  0  0  0  0
   62.3476   30.3578   46.5279 H   0  0  0  0  0  0  0  0  0  0  0  0
   63.6140   31.9680   47.2240 C   0  0  0  0  0  0  0  0  0  0  0  0
   64.5166   31.5617   46.7442 H   0  0  0  0  0  0  0  0  0  0  0  0
   63.6880   33.1520   47.9540 C   0  0  0  0  0  0  0  0  0  0  0  0
   64.6479   33.6813   48.0460 H   0  0  0  0  0  0  0  0  0  0  0  0
   62.5460   33.6680   48.5690 C   0  0  0  0  0  0  0  0  0  0  0  0
   62.6119   34.6020   49.1464 H   0  0  0  0  0  0  0  0  0  0  0  0
   61.3100   33.0020   48.4560 C   0  0  0  0  0  0  0  0  0  0  0  0
   60.1420   33.5000   49.0630 O   0  0  0  0  0  0  0  0  0  0  0  0
   59.3780   34.6160   48.6030 C   0  0  0  0  0  0  0  0  0  0  0  0
   58.4885   34.7309   49.2398 H   0  0  0  0  0  0  0  0  0  0  0  0
   60.0057   35.5178   48.6548 H   0  0  0  0  0  0  0  0  0  0  0  0
   58.9400   34.4140   47.1740 C   0  0  0  0  0  0  0  0  0  0  0  0
   59.6740   35.0050   46.1310 C   0  0  0  0  0  0  0  0  0  0  0  0
   60.5683   35.6024   46.3619 H   0  0  0  0  0  0  0  0  0  0  0  0
   59.2740   34.8380   44.8020 C   0  0  0  0  0  0  0  0  0  0  0  0
   59.8580   35.2966   43.9904 H   0  0  0  0  0  0  0  0  0  0  0  0
   58.1330   34.0890   44.5040 C   0  0  0  0  0  0  0  0  0  0  0  0
   57.8218   33.9543   43.4576 H   0  0  0  0  0  0  0  0  0  0  0  0
   57.3870   33.5110   45.5340 C   0  0  0  0  0  0  0  0  0  0  0  0
   56.4865   32.9256   45.2966 H   0  0  0  0  0  0  0  0  0  0  0  0
   57.7810   33.6740   46.8660 C   0  0  0  0  0  0  0  0  0  0  0  0
   57.0350   33.1090   47.8490 F   0  0  0  0  0  0  0  0  0  0  0  0
  1  2  1  0
  2  3  1  0
  3  4  2  0
  3  5  1  0
  5  6  1  0
  5  7  2  0
  7  8  1  0
  7  9  1  0
  9 10  2  0
 10 11  1  0
 10 12  1  0
 12 13  1  0
 12 14  2  0
 14 15  1  0
 14 16  1  0
 16 17  1  0
 16 18  2  0
 18 19  1  0
  2 20  2  3
 20 21  1  0
 20 22  1  0
 22 23  2  0
 23 24  1  0
 23 25  1  0
 25 26  1  0
 25 27  2  0
 27 28  1  0
 27 29  1  0
 29 30  1  0
 29 31  2  0
 31 32  1  0
 32 33  1  0
 33 34  1  0
 33 35  1  0
 33 36  1  0
 36 37  2  0
 37 38  1  0
 37 39  1  0
 39 40  1  0
 39 41  2  0
 41 42  1  0
 41 43  1  0
 43 44  1  0
 43 45  2  0
 45 46  1  0
 18  9  1  0
 31 22  1  0
 45 36  1  0
M  CHG  1  19  -1
M  END
>  <UniqueID>  (87) 
78

>  <SMILES>  (87) 
O=C(C=Cc1ccccc1OCc1ccccc1F)/C=C\c1ccccc1[O-]

>  <Energy>  (87) 
61.455180816484535

>  <Genealogy>  (87) 
O=C(C=Cc1ccccc1[O-])C=Cc1ccccc1OCc1ccccc1F (protonated)
O=C(C=Cc1ccccc1OCc1ccccc1F)/C=C\c1ccccc1[O-] (cis-trans isomerization)
O=C(C=Cc1ccccc1OCc1ccccc1F)/C=C\c1ccccc1[O-] (3D coordinates assigned)
O=C(C=Cc1ccccc1OCc1ccccc1F)/C=C\c1ccccc1[O-] (optimized conformer: 61.455180816484535 kcal/mol)

>  <smiles>  (87) 
O=C(C=Cc1ccccc1O)C=Cc1ccccc1OCc1ccccc1F

>  <score_type>  (87) 
oracle

>  <origin>  (87) 
adg

>  <m_score__min__energy>  (87) 
-12.199999999999999

>  <m_primary>  (87) 
energy

$$$$
87:0
     RDKit          3D

 34 36  0  0  0  0  0  0  0  0999 V2000
   58.8800   29.9150   46.7330 O   0  0  0  0  0  0  0  0  0  0  0  0
   57.8630   30.0050   45.9920 C   0  0  0  0  0  0  0  0  0  0  0  0
   57.3760   31.2950   45.5830 N   0  0  0  0  0  0  0  0  0  0  0  0
   58.1110   32.5200   45.7520 C   0  0  0  0  0  0  0  0  0  0  0  0
   58.1870   33.4270   44.6860 C   0  0  0  0  0  0  0  0  0  0  0  0
   58.9100   34.6140   44.8190 C   0  0  0  0  0  0  0  0  0  0  0  0
   59.5770   34.9010   46.0120 C   0  0  0  0  0  0  0  0  0  0  0  0
   59.5350   33.9940   47.0850 C   0  0  0  0  0  0  0  0  0  0  0  0
   60.2570   34.2850   48.3440 C   0  0  0  0  0  0  0  0  0  0  0  0
   59.6230   34.5760   49.3930 O   0  0  0  0  0  0  0  0  0  0  0  0
   61.6450   34.2390   48.3870 O   0  0  0  0  0  0  0  0  0  0  0  0
   58.8050   32.8000   46.9430 C   0  0  0  0  0  0  0  0  0  0  0  0
   57.1670   28.7800   45.5580 C   0  0  0  0  0  0  0  0  0  0  0  0
   56.0200   28.8670   45.0440 O   0  0  0  0  0  0  0  0  0  0  0  0
   57.8100   27.4580   45.6400 C   0  0  0  0  0  0  0  0  0  0  0  0
   59.1680   27.2120   45.4640 C   0  0  0  0  0  0  0  0  0  0  0  0
   59.4380   25.9000   45.6330 N   0  0  0  0  0  0  0  0  0  0  0  0
   58.2610   25.3070   45.8970 C   0  0  0  0  0  0  0  0  0  0  0  0
   58.0390   23.9480   46.1140 C   0  0  0  0  0  0  0  0  0  0  0  0
   56.7170   23.5220   46.3290 C   0  0  0  0  0  0  0  0  0  0  0  0
   55.6540   24.4500   46.3040 C   0  0  0  0  0  0  0  0  0  0  0  0
   55.9040   25.8160   46.0740 C   0  0  0  0  0  0  0  0  0  0  0  0
   54.8480   26.7150   45.9940 O   0  0  0  0  0  0  0  0  0  0  0  0
   57.2340   26.2220   45.9010 C   0  0  0  0  0  0  0  0  0  0  0  0
   56.3910   31.3610   45.2380 H   0  0  0  0  0  0  0  0  0  0  0  0
   57.6741   33.2023   43.7392 H   0  0  0  0  0  0  0  0  0  0  0  0
   58.9544   35.3255   43.9813 H   0  0  0  0  0  0  0  0  0  0  0  0
   60.1381   35.8418   46.1125 H   0  0  0  0  0  0  0  0  0  0  0  0
   58.7766   32.0776   47.7721 H   0  0  0  0  0  0  0  0  0  0  0  0
   59.9174   27.9796   45.2210 H   0  0  0  0  0  0  0  0  0  0  0  0
   60.3740   25.4410   45.5620 H   0  0  0  0  0  0  0  0  0  0  0  0
   58.8731   23.2309   46.1169 H   0  0  0  0  0  0  0  0  0  0  0  0
   56.5095   22.4584   46.5180 H   0  0  0  0  0  0  0  0  0  0  0  0
   54.6226   24.1033   46.4654 H   0  0  0  0  0  0  0  0  0  0  0  0
  1  2  2  0
  2  3  1  0
  3  4  1  0
  4  5  2  0
  5  6  1  0
  6  7  2  0
  7  8  1  0
  8  9  1  0
  9 10  2  0
  9 11  1  0
  8 12  2  0
  2 13  1  0
 13 14  2  0
 13 15  1  0
 15 16  2  0
 16 17  1  0
 17 18  1  0
 18 19  2  0
 19 20  1  0
 20 21  2  0
 21 22  1  0
 22 23  1  0
 22 24  2  0
 12  4  1  0
 24 15  1  0
 24 18  1  0
  3 25  1  0
  5 26  1  0
  6 27  1  0
  7 28  1  0
 12 29  1  0
 16 30  1  0
 17 31  1  0
 19 32  1  0
 20 33  1  0
 21 34  1  0
M  CHG  2  11  -1  23  -1
M  END
>  <UniqueID>  (88) 
79

>  <SMILES>  (88) 
O=C(Nc1cccc(C(=O)[O-])c1)C(=O)c1c[nH]c2cccc([O-])c12

>  <Energy>  (88) 
79.64748534109573

>  <Genealogy>  (88) 
O=C(Nc1cccc(C(=O)[O-])c1)C(=O)c1c[nH]c2cccc([O-])c12 (protonated)
O=C(Nc1cccc(C(=O)[O-])c1)C(=O)c1c[nH]c2cccc([O-])c12 (3D coordinates assigned)
O=C(Nc1cccc(C(=O)[O-])c1)C(=O)c1c[nH]c2cccc([O-])c12 (optimized conformer: 79.64748534109573 kcal/mol)

>  <smiles>  (88) 
O=C(Nc1cccc(C(=O)O)c1)C(=O)c1c[nH]c2cccc(O)c12

>  <score_type>  (88) 
oracle

>  <origin>  (88) 
adg

>  <m_score__min__energy>  (88) 
-12.630000000000001

>  <m_primary>  (88) 
energy

$$$$
88:0
     RDKit          3D

 38 40  0  0  0  0  0  0  0  0999 V2000
   56.9630   20.4020   44.4640 N   0  0  0  0  0  0  0  0  0  0  0  0
   57.4180   21.7500   45.4460 S   0  0  0  0  0  0  0  0  0  0  0  0
   58.6270   22.4190   44.8520 O   0  0  0  0  0  0  0  0  0  0  0  0
   57.7650   21.2640   46.8260 O   0  0  0  0  0  0  0  0  0  0  0  0
   56.0890   22.9020   45.5250 C   0  0  0  0  0  0  0  0  0  0  0  0
   54.7660   22.4750   45.3500 C   0  0  0  0  0  0  0  0  0  0  0  0
   53.7210   23.4020   45.3810 C   0  0  0  0  0  0  0  0  0  0  0  0
   53.9900   24.7560   45.5930 C   0  0  0  0  0  0  0  0  0  0  0  0
   55.3060   25.1960   45.7860 C   0  0  0  0  0  0  0  0  0  0  0  0
   55.5410   26.5980   45.9760 N   0  0  0  0  0  0  0  0  0  0  0  0
   56.8170   27.2460   46.0550 C   0  0  0  0  0  0  0  0  0  0  0  0
   57.4490   27.2990   47.1450 O   0  0  0  0  0  0  0  0  0  0  0  0
   57.3520   27.9590   44.8540 C   0  0  0  0  0  0  0  0  0  0  0  0
   57.8940   29.2650   45.2430 N   0  0  0  0  0  0  0  0  0  0  0  0
   59.1180   29.3030   45.7750 N   0  0  0  0  0  0  0  0  0  0  0  0
   59.7210   30.4600   46.1430 C   0  0  0  0  0  0  0  0  0  0  0  0
   60.8760   30.4160   46.6420 O   0  0  0  0  0  0  0  0  0  0  0  0
   59.0490   31.6820   45.9600 C   0  0  0  0  0  0  0  0  0  0  0  0
   59.6220   32.9210   46.3240 C   0  0  0  0  0  0  0  0  0  0  0  0
   60.8600   32.9940   46.8770 F   0  0  0  0  0  0  0  0  0  0  0  0
   58.9150   34.1090   46.1180 C   0  0  0  0  0  0  0  0  0  0  0  0
   57.6410   34.0820   45.5520 C   0  0  0  0  0  0  0  0  0  0  0  0
   57.0600   32.8660   45.1880 C   0  0  0  0  0  0  0  0  0  0  0  0
   57.7560   31.6570   45.3870 C   0  0  0  0  0  0  0  0  0  0  0  0
   57.1900   30.4200   45.0280 C   0  0  0  0  0  0  0  0  0  0  0  0
   56.0400   30.3750   44.5070 O   0  0  0  0  0  0  0  0  0  0  0  0
   56.3580   24.2630   45.7320 C   0  0  0  0  0  0  0  0  0  0  0  0
   57.3750   19.5480   44.9060 H   0  0  0  0  0  0  0  0  0  0  0  0
   57.4370   20.5210   43.5420 H   0  0  0  0  0  0  0  0  0  0  0  0
   54.5498   21.4087   45.1880 H   0  0  0  0  0  0  0  0  0  0  0  0
   52.6838   23.0645   45.2381 H   0  0  0  0  0  0  0  0  0  0  0  0
   53.1633   25.4815   45.6085 H   0  0  0  0  0  0  0  0  0  0  0  0
   58.1503   27.3550   44.3980 H   0  0  0  0  0  0  0  0  0  0  0  0
   56.5364   28.1086   44.1312 H   0  0  0  0  0  0  0  0  0  0  0  0
   59.3662   35.0706   46.4040 H   0  0  0  0  0  0  0  0  0  0  0  0
   57.0921   35.0217   45.3918 H   0  0  0  0  0  0  0  0  0  0  0  0
   56.0539   32.8515   44.7436 H   0  0  0  0  0  0  0  0  0  0  0  0
   57.3972   24.6029   45.8528 H   0  0  0  0  0  0  0  0  0  0  0  0
  1  2  1  0
  2  3  2  0
  2  4  2  0
  2  5  1  0
  5  6  2  0
  6  7  1  0
  7  8  2  0
  8  9  1  0
  9 10  1  0
 10 11  1  0
 11 12  2  0
 11 13  1  0
 13 14  1  0
 14 15  1  0
 15 16  1  0
 16 17  2  0
 16 18  1  0
 18 19  2  0
 19 20  1  0
 19 21  1  0
 21 22  2  0
 22 23  1  0
 23 24  2  0
 24 25  1  0
 25 26  2  0
  9 27  2  0
 27  5  1  0
 25 14  1  0
 24 18  1  0
  1 28  1  0
  1 29  1  0
  6 30  1  0
  7 31  1  0
  8 32  1  0
 13 33  1  0
 13 34  1  0
 21 35  1  0
 22 36  1  0
 23 37  1  0
 27 38  1  0
M  CHG  2  10  -1  15  -1
M  END
>  <UniqueID>  (89) 
80

>  <SMILES>  (89) 
NS(=O)(=O)c1cccc([N-]C(=O)Cn2[n-]c(=O)c3c(F)cccc3c2=O)c1

>  <Energy>  (89) 
49.707139959565716

>  <Genealogy>  (89) 
NS(=O)(=O)c1cccc([N-]C(=O)Cn2[n-]c(=O)c3c(F)cccc3c2=O)c1 (protonated)
NS(=O)(=O)c1cccc([N-]C(=O)Cn2[n-]c(=O)c3c(F)cccc3c2=O)c1 (3D coordinates assigned)
NS(=O)(=O)c1cccc([N-]C(=O)Cn2[n-]c(=O)c3c(F)cccc3c2=O)c1 (optimized conformer: 49.707139959565716 kcal/mol)

>  <smiles>  (89) 
NS(=O)(=O)c1cccc(NC(=O)Cn2[nH]c(=O)c3c(F)cccc3c2=O)c1

>  <score_type>  (89) 
oracle

>  <origin>  (89) 
adg

>  <m_score__min__energy>  (89) 
-11.859999999999999

>  <m_primary>  (89) 
energy

$$$$
89:0
     RDKit          3D

 35 37  0  0  0  0  0  0  0  0999 V2000
   55.9930   24.5110   47.5180 O   0  0  0  0  0  0  0  0  0  0  0  0
   55.2950   24.6820   46.1980 S   0  0  0  0  0  0  0  0  0  0  0  0
   53.8700   24.2200   46.3100 O   0  0  0  0  0  0  0  0  0  0  0  0
   55.3270   26.3470   45.7180 N   0  0  0  0  0  0  0  0  0  0  0  0
   56.5000   27.1720   45.6750 C   0  0  0  0  0  0  0  0  0  0  0  0
   57.7650   26.6970   46.0570 C   0  0  0  0  0  0  0  0  0  0  0  0
   58.8490   27.5140   45.9950 N   0  0  0  0  0  0  0  0  0  0  0  0
   58.7650   28.7980   45.5550 C   0  0  0  0  0  0  0  0  0  0  0  0
   59.9870   29.6280   45.5500 C   0  0  0  0  0  0  0  0  0  0  0  0
   60.2940   30.5690   46.4590 C   0  0  0  0  0  0  0  0  0  0  0  0
   59.8580   31.9810   46.4110 C   0  0  0  0  0  0  0  0  0  0  0  0
   60.7110   33.0290   46.8090 C   0  0  0  0  0  0  0  0  0  0  0  0
   60.2620   34.3530   46.7780 C   0  0  0  0  0  0  0  0  0  0  0  0
   58.9570   34.6400   46.3720 C   0  0  0  0  0  0  0  0  0  0  0  0
   58.0950   33.6030   46.0060 C   0  0  0  0  0  0  0  0  0  0  0  0
   58.5400   32.2780   46.0340 C   0  0  0  0  0  0  0  0  0  0  0  0
   57.5110   29.3210   45.1980 C   0  0  0  0  0  0  0  0  0  0  0  0
   56.3830   28.5010   45.2490 C   0  0  0  0  0  0  0  0  0  0  0  0
   55.1450   29.0130   44.8800 O   0  0  0  0  0  0  0  0  0  0  0  0
   56.1190   23.7230   44.9850 C   0  0  0  0  0  0  0  0  0  0  0  0
   55.5340   23.3850   43.7710 C   0  0  0  0  0  0  0  0  0  0  0  0
   56.6540   22.4740   42.9110 S   0  0  0  0  0  0  0  0  0  0  0  0
   57.8260   22.5490   44.1130 C   0  0  0  0  0  0  0  0  0  0  0  0
   57.3850   23.2610   45.1730 N   0  0  0  0  0  0  0  0  0  0  0  0
   57.8788   25.6605   46.4074 H   0  0  0  0  0  0  0  0  0  0  0  0
   60.7057   29.4619   44.7340 H   0  0  0  0  0  0  0  0  0  0  0  0
   60.9216   30.2635   47.3091 H   0  0  0  0  0  0  0  0  0  0  0  0
   61.7341   32.8051   47.1454 H   0  0  0  0  0  0  0  0  0  0  0  0
   60.9375   35.1693   47.0737 H   0  0  0  0  0  0  0  0  0  0  0  0
   58.6076   35.6826   46.3403 H   0  0  0  0  0  0  0  0  0  0  0  0
   57.0644   33.8296   45.6953 H   0  0  0  0  0  0  0  0  0  0  0  0
   57.8530   31.4641   45.7590 H   0  0  0  0  0  0  0  0  0  0  0  0
   57.4188   30.3701   44.8803 H   0  0  0  0  0  0  0  0  0  0  0  0
   54.5241   23.6625   43.4348 H   0  0  0  0  0  0  0  0  0  0  0  0
   58.8192   22.0810   44.0457 H   0  0  0  0  0  0  0  0  0  0  0  0
  1  2  2  0
  2  3  2  0
  2  4  1  0
  4  5  1  0
  5  6  2  0
  6  7  1  0
  7  8  2  0
  8  9  1  0
  9 10  2  3
 10 11  1  0
 11 12  2  0
 12 13  1  0
 13 14  2  0
 14 15  1  0
 15 16  2  0
  8 17  1  0
 17 18  2  0
 18 19  1  0
  2 20  1  0
 20 21  2  0
 21 22  1  0
 22 23  1  0
 23 24  2  0
 18  5  1  0
 24 20  1  0
 16 11  1  0
  6 25  1  0
  9 26  1  0
 10 27  1  0
 12 28  1  0
 13 29  1  0
 14 30  1  0
 15 31  1  0
 16 32  1  0
 17 33  1  0
 21 34  1  0
 23 35  1  0
M  CHG  2   4  -1  19  -1
M  END
>  <UniqueID>  (90) 
81

>  <SMILES>  (90) 
O=S(=O)([N-]c1cnc(C=Cc2ccccc2)cc1[O-])c1cscn1

>  <Energy>  (90) 
81.14395163139828

>  <Genealogy>  (90) 
O=S(=O)([N-]c1cnc(C=Cc2ccccc2)cc1[O-])c1cscn1 (protonated)
O=S(=O)([N-]c1cnc(C=Cc2ccccc2)cc1[O-])c1cscn1 (3D coordinates assigned)
O=S(=O)([N-]c1cnc(C=Cc2ccccc2)cc1[O-])c1cscn1 (optimized conformer: 81.14395163139828 kcal/mol)

>  <smiles>  (90) 
O=S(=O)(Nc1cnc(C=Cc2ccccc2)cc1O)c1cscn1

>  <score_type>  (90) 
oracle

>  <origin>  (90) 
adg

>  <m_score__min__energy>  (90) 
-13.539999999999999

>  <m_primary>  (90) 
energy

$$$$
90:0
     RDKit          3D

 20 20  0  0  0  0  0  0  0  0999 V2000
   57.9290   26.4510   42.3590 N   0  0  0  0  0  0  0  0  0  0  0  0
   58.1630   27.0670   43.3980 N   0  0  0  0  0  0  0  0  0  0  0  0
   58.3970   27.6830   44.4390 N   0  0  0  0  0  0  0  0  0  0  0  0
   57.7760   27.2950   45.6980 C   0  0  0  0  0  0  0  0  0  0  0  0
   56.2910   27.4750   45.6230 C   0  0  0  0  0  0  0  0  0  0  0  0
   55.5330   26.5460   46.0120 O   0  0  0  0  0  0  0  0  0  0  0  0
   55.7560   28.7390   45.2110 N   0  0  0  0  0  0  0  0  0  0  0  0
   56.4530   29.7700   44.4980 C   0  0  0  0  0  0  0  0  0  0  0  0
   57.3980   30.5420   45.1880 C   0  0  0  0  0  0  0  0  0  0  0  0
   58.1130   31.5440   44.5250 C   0  0  0  0  0  0  0  0  0  0  0  0
   57.9010   31.7730   43.1630 C   0  0  0  0  0  0  0  0  0  0  0  0
   56.9780   30.9930   42.4610 C   0  0  0  0  0  0  0  0  0  0  0  0
   56.2600   29.9900   43.1200 C   0  0  0  0  0  0  0  0  0  0  0  0
   58.0034   26.2387   45.9043 H   0  0  0  0  0  0  0  0  0  0  0  0
   58.1730   27.9305   46.5033 H   0  0  0  0  0  0  0  0  0  0  0  0
   57.5781   30.3583   46.2575 H   0  0  0  0  0  0  0  0  0  0  0  0
   58.8440   32.1533   45.0768 H   0  0  0  0  0  0  0  0  0  0  0  0
   58.4597   32.5659   42.6442 H   0  0  0  0  0  0  0  0  0  0  0  0
   56.8158   31.1684   41.3873 H   0  0  0  0  0  0  0  0  0  0  0  0
   55.5427   29.3713   42.5609 H   0  0  0  0  0  0  0  0  0  0  0  0
  1  2  2  0
  2  3  2  0
  3  4  1  0
  4  5  1  0
  5  6  2  0
  5  7  1  0
  7  8  1  0
  8  9  2  0
  9 10  1  0
 10 11  2  0
 11 12  1  0
 12 13  2  0
 13  8  1  0
  4 14  1  0
  4 15  1  0
  9 16  1  0
 10 17  1  0
 11 18  1  0
 12 19  1  0
 13 20  1  0
M  CHG  3   1  -1   2   1   7  -1
M  END
>  <UniqueID>  (91) 
82

>  <SMILES>  (91) 
[N-]=[N+]=NCC(=O)[N-]c1ccccc1

>  <Energy>  (91) 
18.676469402216707

>  <Genealogy>  (91) 
[N-]=[N+]=NCC(=O)[N-]c1ccccc1 (protonated)
[N-]=[N+]=NCC(=O)[N-]c1ccccc1 (3D coordinates assigned)
[N-]=[N+]=NCC(=O)[N-]c1ccccc1 (optimized conformer: 18.676469402216707 kcal/mol)

>  <smiles>  (91) 
[N-]=[N+]=NCC(=O)Nc1ccccc1

>  <score_type>  (91) 
oracle

>  <origin>  (91) 
adg

>  <m_score__min__energy>  (91) 
-7.5599999999999996

>  <m_primary>  (91) 
energy

$$$$
91:0
     RDKit          3D

 47 49  0  0  0  0  0  0  0  0999 V2000
   60.7830   29.3980   46.6120 C   0  0  0  0  0  0  0  0  0  0  0  0
   59.4710   28.9480   45.9580 C   0  0  2  0  0  0  0  0  0  0  0  0
   59.3240   27.4090   46.0170 C   0  0  0  0  0  0  0  0  0  0  0  0
   58.3910   26.8610   44.9210 C   0  0  0  0  0  0  0  0  0  0  0  0
   57.3930   27.9270   44.4570 C   0  0  0  0  0  0  0  0  0  0  0  0
   58.0820   29.0940   43.8550 N   0  0  1  0  0  0  0  0  0  0  0  0
   57.0010   30.4680   43.8450 S   0  0  0  0  0  0  0  0  0  0  0  0
   55.7130   30.1130   44.5370 O   0  0  0  0  0  0  0  0  0  0  0  0
   56.6890   30.8650   42.4270 O   0  0  0  0  0  0  0  0  0  0  0  0
   57.7640   31.8350   44.6550 C   0  0  0  0  0  0  0  0  0  0  0  0
   57.8820   31.8650   46.0500 C   0  0  0  0  0  0  0  0  0  0  0  0
   58.5040   32.9470   46.6820 C   0  0  0  0  0  0  0  0  0  0  0  0
   59.0170   34.0150   45.9240 C   0  0  0  0  0  0  0  0  0  0  0  0
   59.6780   35.1620   46.5850 C   0  0  0  0  0  0  0  0  0  0  0  0
   59.7130   36.2870   46.0140 O   0  0  0  0  0  0  0  0  0  0  0  0
   60.3060   34.9800   47.8250 O   0  0  0  0  0  0  0  0  0  0  0  0
   61.4670   34.2200   48.0280 C   0  0  0  0  0  0  0  0  0  0  0  0
   62.2000   33.8090   46.9070 C   0  0  0  0  0  0  0  0  0  0  0  0
   63.3610   33.0450   47.0630 C   0  0  0  0  0  0  0  0  0  0  0  0
   63.7890   32.6760   48.3390 C   0  0  0  0  0  0  0  0  0  0  0  0
   63.0520   33.0590   49.4620 C   0  0  0  0  0  0  0  0  0  0  0  0
   61.8890   33.8230   49.3130 C   0  0  0  0  0  0  0  0  0  0  0  0
   61.1520   34.1200   50.4130 F   0  0  0  0  0  0  0  0  0  0  0  0
   58.8980   33.9760   44.5240 C   0  0  0  0  0  0  0  0  0  0  0  0
   58.2760   32.8930   43.8960 C   0  0  0  0  0  0  0  0  0  0  0  0
   59.3790   29.4420   44.5010 C   0  0  0  0  0  0  0  0  0  0  0  0
   60.6783   29.3621   47.7064 H   0  0  0  0  0  0  0  0  0  0  0  0
   61.5973   28.7278   46.2994 H   0  0  0  0  0  0  0  0  0  0  0  0
   61.0145   30.4269   46.2994 H   0  0  0  0  0  0  0  0  0  0  0  0
   58.6432   29.3977   46.5258 H   0  0  0  0  0  0  0  0  0  0  0  0
   60.3182   26.9551   45.8927 H   0  0  0  0  0  0  0  0  0  0  0  0
   58.8804   27.1537   46.9907 H   0  0  0  0  0  0  0  0  0  0  0  0
   58.9976   26.5394   44.0616 H   0  0  0  0  0  0  0  0  0  0  0  0
   57.8263   26.0135   45.3368 H   0  0  0  0  0  0  0  0  0  0  0  0
   56.7201   27.4842   43.7079 H   0  0  0  0  0  0  0  0  0  0  0  0
   56.8287   28.2754   45.3346 H   0  0  0  0  0  0  0  0  0  0  0  0
   58.2760   28.8660   42.8520 H   0  0  0  0  0  0  0  0  0  0  0  0
   57.4840   31.0344   46.6514 H   0  0  0  0  0  0  0  0  0  0  0  0
   58.5924   32.9626   47.7783 H   0  0  0  0  0  0  0  0  0  0  0  0
   61.8605   34.0887   45.8988 H   0  0  0  0  0  0  0  0  0  0  0  0
   63.9374   32.7346   46.1790 H   0  0  0  0  0  0  0  0  0  0  0  0
   64.7075   32.0830   48.4605 H   0  0  0  0  0  0  0  0  0  0  0  0
   63.3866   32.7593   50.4661 H   0  0  0  0  0  0  0  0  0  0  0  0
   59.2970   34.8032   43.9185 H   0  0  0  0  0  0  0  0  0  0  0  0
   58.1887   32.8725   42.7997 H   0  0  0  0  0  0  0  0  0  0  0  0
   60.1943   28.9836   43.9221 H   0  0  0  0  0  0  0  0  0  0  0  0
   59.4575   30.5391   44.5173 H   0  0  0  0  0  0  0  0  0  0  0  0
  1  2  1  0
  2  3  1  0
  3  4  1  0
  4  5  1  0
  5  6  1  0
  6  7  1  0
  7  8  2  0
  7  9  2  0
  7 10  1  0
 10 11  2  0
 11 12  1  0
 12 13  2  0
 13 14  1  0
 14 15  2  0
 14 16  1  0
 16 17  1  0
 17 18  2  0
 18 19  1  0
 19 20  2  0
 20 21  1  0
 21 22  2  0
 22 23  1  0
 13 24  1  0
 24 25  2  0
  6 26  1  0
 26  2  1  0
 25 10  1  0
 22 17  1  0
  1 27  1  0
  1 28  1  0
  1 29  1  0
  2 30  1  1
  3 31  1  0
  3 32  1  0
  4 33  1  0
  4 34  1  0
  5 35  1  0
  5 36  1  0
  6 37  1  6
 11 38  1  0
 12 39  1  0
 18 40  1  0
 19 41  1  0
 20 42  1  0
 21 43  1  0
 24 44  1  0
 25 45  1  0
 26 46  1  0
 26 47  1  0
M  CHG  1   6   1
M  END
>  <UniqueID>  (92) 
83

>  <SMILES>  (92) 
C[C@@H]1CCC[N@@H+](S(=O)(=O)c2ccc(C(=O)Oc3ccccc3F)cc2)C1

>  <Energy>  (92) 
58.25119264575142

>  <Genealogy>  (92) 
CC1CCC[NH+](S(=O)(=O)c2ccc(C(=O)Oc3ccccc3F)cc2)C1 (protonated)
C[C@@H]1CCC[N@@H+](S(=O)(=O)c2ccc(C(=O)Oc3ccccc3F)cc2)C1 (chirality)
C[C@@H]1CCC[N@@H+](S(=O)(=O)c2ccc(C(=O)Oc3ccccc3F)cc2)C1 (3D coordinates assigned)
C[C@@H]1CCC[N@@H+](S(=O)(=O)c2ccc(C(=O)Oc3ccccc3F)cc2)C1 (nonaromatic ring conformer: 58.25119264575142 kcal/mol)

>  <smiles>  (92) 
CC1CCCN(S(=O)(=O)c2ccc(C(=O)Oc3ccccc3F)cc2)C1

>  <score_type>  (92) 
oracle

>  <origin>  (92) 
adg

>  <m_score__min__energy>  (92) 
-8.2699999999999996

>  <m_primary>  (92) 
energy

$$$$
92:0
     RDKit          3D

 37 39  0  0  1  0  0  0  0  0999 V2000
   55.9100   31.2040   44.4360 O   0  0  0  0  0  0  0  0  0  0  0  0
   57.0390   30.8590   44.8470 C   0  0  0  0  0  0  0  0  0  0  0  0
   57.4130   29.5890   44.7620 N   0  0  0  0  0  0  0  0  0  0  0  0
   58.6330   29.1480   45.1920 C   0  0  0  0  0  0  0  0  0  0  0  0
   58.9040   27.7120   45.0030 C   0  0  0  0  0  0  0  0  0  0  0  0
   57.7100   26.9670   44.8110 N   0  0  0  0  0  0  0  0  0  0  0  0
   57.3220   25.7600   45.4300 C   0  0  0  0  0  0  0  0  0  0  0  0
   56.8600   25.6520   46.7120 C   0  0  0  0  0  0  0  0  0  0  0  0
   56.4790   24.4520   47.2430 C   0  0  0  0  0  0  0  0  0  0  0  0
   56.5510   23.3200   46.5000 C   0  0  0  0  0  0  0  0  0  0  0  0
   57.0100   23.3490   45.1910 C   0  0  0  0  0  0  0  0  0  0  0  0
   57.0500   22.0960   44.4850 C   0  0  0  0  0  0  0  0  0  0  0  0
   58.0080   21.1170   44.8610 O   0  0  0  0  0  0  0  0  0  0  0  0
   56.2970   21.7380   43.5170 N   0  0  0  0  0  0  0  0  0  0  0  0
   56.2630   20.4870   42.9940 O   0  0  0  0  0  0  0  0  0  0  0  0
   57.3800   24.5690   44.7000 C   0  0  0  0  0  0  0  0  0  0  0  0
   59.4430   30.0580   45.7080 N   0  0  0  0  0  0  0  0  0  0  0  0
   59.1110   31.3780   45.8200 C   0  0  0  0  0  0  0  0  0  0  0  0
   59.9980   32.2780   46.3660 C   0  0  0  0  0  0  0  0  0  0  0  0
   59.5950   33.6000   46.4490 C   0  0  0  0  0  0  0  0  0  0  0  0
   58.3570   34.0340   46.0090 C   0  0  0  0  0  0  0  0  0  0  0  0
   57.4620   33.1210   45.4570 C   0  0  0  0  0  0  0  0  0  0  0  0
   57.8860   31.8170   45.3880 C   0  0  0  0  0  0  0  0  0  0  0  0
   59.5479   27.5851   44.1202 H   0  0  0  0  0  0  0  0  0  0  0  0
   59.3970   27.3363   45.9117 H   0  0  0  0  0  0  0  0  0  0  0  0
   57.0200   27.3810   44.1020 H   0  0  0  0  0  0  0  0  0  0  0  0
   56.7930   26.5569   47.3339 H   0  0  0  0  0  0  0  0  0  0  0  0
   56.1119   24.4040   48.2788 H   0  0  0  0  0  0  0  0  0  0  0  0
   56.2401   22.3622   46.9427 H   0  0  0  0  0  0  0  0  0  0  0  0
   58.0930   20.2440   44.3570 H   0  0  0  0  0  0  0  0  0  0  0  0
   56.9580   19.8310   43.3850 H   0  0  0  0  0  0  0  0  0  0  0  0
   57.7470   24.6174   43.6642 H   0  0  0  0  0  0  0  0  0  0  0  0
   60.3890   29.8150   46.0410 H   0  0  0  0  0  0  0  0  0  0  0  0
   60.9886   31.9592   46.7226 H   0  0  0  0  0  0  0  0  0  0  0  0
   60.2879   34.3360   46.8828 H   0  0  0  0  0  0  0  0  0  0  0  0
   58.0810   35.0954   46.0948 H   0  0  0  0  0  0  0  0  0  0  0  0
   56.4693   33.4279   45.0959 H   0  0  0  0  0  0  0  0  0  0  0  0
  1  2  2  0
  2  3  1  0
  3  4  2  0
  4  5  1  0
  5  6  1  0
  6  7  1  0
  7  8  2  0
  8  9  1  0
  9 10  2  0
 10 11  1  0
 11 12  1  0
 12 13  1  0
 12 14  2  0
 14 15  1  0
 11 16  2  0
  4 17  1  0
 17 18  1  0
 18 19  2  0
 19 20  1  0
 20 21  2  0
 21 22  1  0
 22 23  2  0
 23  2  1  0
 16  7  1  0
 23 18  1  0
  5 24  1  0
  5 25  1  0
  6 26  1  0
  8 27  1  0
  9 28  1  0
 10 29  1  0
 13 30  1  0
 15 31  1  0
 16 32  1  0
 17 33  1  0
 19 34  1  0
 20 35  1  0
 21 36  1  0
 22 37  1  0
M  END
>  <smiles>  (93) 
O=c1nc(CNc2cccc(C(O)=NO)c2)[nH]c2ccccc12

>  <score_type>  (93) 
oracle

>  <origin>  (93) 
adg

>  <m_score__min__energy>  (93) 
-9.1699999999999999

>  <m_primary>  (93) 
energy

$$$$
93:0
     RDKit          3D

 65 68  0  0  0  0  0  0  0  0999 V2000
   62.9250   31.5880   49.0490 C   0  0  0  0  0  0  0  0  0  0  0  0
   62.1690   32.6570   49.8690 C   0  0  1  0  0  0  0  0  0  0  0  0
   63.1240   33.8660   50.1370 C   0  0  0  0  0  0  0  0  0  0  0  0
   64.5060   33.4640   50.6070 C   0  0  0  0  0  0  0  0  0  0  0  0
   64.8300   33.4900   51.9750 C   0  0  0  0  0  0  0  0  0  0  0  0
   66.1150   33.1430   52.4040 C   0  0  0  0  0  0  0  0  0  0  0  0
   67.0830   32.7530   51.4750 C   0  0  0  0  0  0  0  0  0  0  0  0
   66.7660   32.7060   50.1140 C   0  0  0  0  0  0  0  0  0  0  0  0
   65.4830   33.0550   49.6810 C   0  0  0  0  0  0  0  0  0  0  0  0
   60.9920   33.1260   49.1140 N   0  0  0  0  0  0  0  0  0  0  0  0
   61.0620   33.6810   47.7850 C   0  0  0  0  0  0  0  0  0  0  0  0
   62.1760   34.0250   47.3050 O   0  0  0  0  0  0  0  0  0  0  0  0
   59.8340   33.8760   46.9800 C   0  0  0  0  0  0  0  0  0  0  0  0
   58.5630   33.6160   47.5240 C   0  0  0  0  0  0  0  0  0  0  0  0
   57.4130   33.7950   46.7510 C   0  0  0  0  0  0  0  0  0  0  0  0
   57.5170   34.2290   45.4270 C   0  0  0  0  0  0  0  0  0  0  0  0
   58.7750   34.4790   44.8730 C   0  0  0  0  0  0  0  0  0  0  0  0
   59.9290   34.3010   45.6430 C   0  0  0  0  0  0  0  0  0  0  0  0
   61.7430   32.0160   51.1930 C   0  0  0  0  0  0  0  0  0  0  0  0
   62.1490   32.5200   52.2760 O   0  0  0  0  0  0  0  0  0  0  0  0
   60.9460   30.8220   51.2830 N   0  0  0  0  0  0  0  0  0  0  0  0
   61.1110   29.5640   50.5620 C   0  0  0  0  0  0  0  0  0  0  0  0
   60.3310   29.6290   49.2830 C   0  0  0  0  0  0  0  0  0  0  0  0
   59.2520   30.5190   49.1570 C   0  0  0  0  0  0  0  0  0  0  0  0
   58.5480   30.6090   47.9520 C   0  0  0  0  0  0  0  0  0  0  0  0
   58.9140   29.8100   46.8590 C   0  0  0  0  0  0  0  0  0  0  0  0
   58.1710   29.9080   45.5860 C   0  0  0  0  0  0  0  0  0  0  0  0
   58.2390   31.1130   44.8640 C   0  0  0  0  0  0  0  0  0  0  0  0
   57.5850   31.2410   43.6380 C   0  0  0  0  0  0  0  0  0  0  0  0
   56.8580   30.1720   43.1180 C   0  0  0  0  0  0  0  0  0  0  0  0
   56.7680   28.9730   43.8300 C   0  0  0  0  0  0  0  0  0  0  0  0
   57.4070   28.8300   45.0730 C   0  0  0  0  0  0  0  0  0  0  0  0
   57.2040   27.3120   45.9640 S   0  0  0  0  0  0  0  0  0  0  0  0
   55.5380   26.8520   45.9930 N   0  0  0  0  0  0  0  0  0  0  0  0
   57.9980   26.2250   45.2950 O   0  0  0  0  0  0  0  0  0  0  0  0
   57.6710   27.4780   47.3840 O   0  0  0  0  0  0  0  0  0  0  0  0
   60.0130   28.9440   46.9740 C   0  0  0  0  0  0  0  0  0  0  0  0
   60.7170   28.8560   48.1780 C   0  0  0  0  0  0  0  0  0  0  0  0
   63.4223   30.8848   49.7333 H   0  0  0  0  0  0  0  0  0  0  0  0
   62.2122   31.0404   48.4149 H   0  0  0  0  0  0  0  0  0  0  0  0
   63.6788   32.0776   48.4149 H   0  0  0  0  0  0  0  0  0  0  0  0
   63.2286   34.4383   49.2034 H   0  0  0  0  0  0  0  0  0  0  0  0
   62.6710   34.4573   50.9465 H   0  0  0  0  0  0  0  0  0  0  0  0
   64.0684   33.7849   52.7119 H   0  0  0  0  0  0  0  0  0  0  0  0
   66.3641   33.1772   53.4749 H   0  0  0  0  0  0  0  0  0  0  0  0
   68.0940   32.4831   51.8142 H   0  0  0  0  0  0  0  0  0  0  0  0
   67.5267   32.3942   49.3831 H   0  0  0  0  0  0  0  0  0  0  0  0
   65.2362   33.0095   48.6100 H   0  0  0  0  0  0  0  0  0  0  0  0
   60.0540   33.0680   49.5710 H   0  0  0  0  0  0  0  0  0  0  0  0
   58.4740   33.2697   48.5643 H   0  0  0  0  0  0  0  0  0  0  0  0
   56.4229   33.5937   47.1860 H   0  0  0  0  0  0  0  0  0  0  0  0
   56.6099   34.3736   44.8218 H   0  0  0  0  0  0  0  0  0  0  0  0
   58.8580   34.8164   43.8293 H   0  0  0  0  0  0  0  0  0  0  0  0
   60.9170   34.4947   45.1999 H   0  0  0  0  0  0  0  0  0  0  0  0
   62.1759   29.4047   50.3370 H   0  0  0  0  0  0  0  0  0  0  0  0
   60.7442   28.7307   51.1793 H   0  0  0  0  0  0  0  0  0  0  0  0
   58.9592   31.1484   50.0103 H   0  0  0  0  0  0  0  0  0  0  0  0
   57.7043   31.3089   47.8611 H   0  0  0  0  0  0  0  0  0  0  0  0
   58.8117   31.9605   45.2686 H   0  0  0  0  0  0  0  0  0  0  0  0
   57.6435   32.1877   43.0809 H   0  0  0  0  0  0  0  0  0  0  0  0
   56.3541   30.2721   42.1454 H   0  0  0  0  0  0  0  0  0  0  0  0
   56.1917   28.1337   43.4136 H   0  0  0  0  0  0  0  0  0  0  0  0
   55.1370   27.0950   45.0620 H   0  0  0  0  0  0  0  0  0  0  0  0
   60.3211   28.3324   46.1132 H   0  0  0  0  0  0  0  0  0  0  0  0
   61.5785   28.1769   48.2596 H   0  0  0  0  0  0  0  0  0  0  0  0
  1  2  1  0
  2  3  1  0
  3  4  1  0
  4  5  2  0
  5  6  1  0
  6  7  2  0
  7  8  1  0
  8  9  2  0
  2 10  1  6
 10 11  1  0
 11 12  2  0
 11 13  1  0
 13 14  2  0
 14 15  1  0
 15 16  2  0
 16 17  1  0
 17 18  2  0
  2 19  1  0
 19 20  2  0
 19 21  1  0
 21 22  1  0
 22 23  1  0
 23 24  2  0
 24 25  1  0
 25 26  2  0
 26 27  1  0
 27 28  2  0
 28 29  1  0
 29 30  2  0
 30 31  1  0
 31 32  2  0
 32 33  1  0
 33 34  1  0
 33 35  2  0
 33 36  2  0
 26 37  1  0
 37 38  2  0
  9  4  1  0
 18 13  1  0
 38 23  1  0
 32 27  1  0
  1 39  1  0
  1 40  1  0
  1 41  1  0
  3 42  1  0
  3 43  1  0
  5 44  1  0
  6 45  1  0
  7 46  1  0
  8 47  1  0
  9 48  1  0
 10 49  1  0
 14 50  1  0
 15 51  1  0
 16 52  1  0
 17 53  1  0
 18 54  1  0
 22 55  1  0
 22 56  1  0
 24 57  1  0
 25 58  1  0
 28 59  1  0
 29 60  1  0
 30 61  1  0
 31 62  1  0
 34 63  1  0
 37 64  1  0
 38 65  1  0
M  CHG  2  21  -1  34  -1
M  END
>  <UniqueID>  (94) 
84

>  <SMILES>  (94) 
C[C@@](Cc1ccccc1)(NC(=O)c1ccccc1)C(=O)[N-]Cc1ccc(-c2ccccc2S([NH-])(=O)=O)cc1

>  <Energy>  (94) 
78.7040508876957

>  <Genealogy>  (94) 
CC(Cc1ccccc1)(NC(=O)c1ccccc1)C(=O)[N-]Cc1ccc(-c2ccccc2S([NH-])(=O)=O)cc1 (protonated)
C[C@@](Cc1ccccc1)(NC(=O)c1ccccc1)C(=O)[N-]Cc1ccc(-c2ccccc2S([NH-])(=O)=O)cc1 (chirality)
C[C@@](Cc1ccccc1)(NC(=O)c1ccccc1)C(=O)[N-]Cc1ccc(-c2ccccc2S([NH-])(=O)=O)cc1 (3D coordinates assigned)
C[C@@](Cc1ccccc1)(NC(=O)c1ccccc1)C(=O)[N-]Cc1ccc(-c2ccccc2S([NH-])(=O)=O)cc1 (optimized conformer: 78.7040508876957 kcal/mol)

>  <smiles>  (94) 
CC(Cc1ccccc1)(NC(=O)c1ccccc1)C(=O)NCc1ccc(-c2ccccc2S(N)(=O)=O)cc1

>  <score_type>  (94) 
oracle

>  <origin>  (94) 
adg

>  <m_score__min__energy>  (94) 
-13.57

>  <m_primary>  (94) 
energy

$$$$
