0:0
     RDKit          3D

 41 43  0  0  0  0  0  0  0  0999 V2000
   58.0480   32.7000   49.0630 N   0  0  0  0  0  0  0  0  0  0  0  0
   58.3170   33.1090   47.7190 C   0  0  0  0  0  0  0  0  0  0  0  0
   58.9840   34.3170   47.4690 C   0  0  0  0  0  0  0  0  0  0  0  0
   59.2430   34.7180   46.1560 C   0  0  0  0  0  0  0  0  0  0  0  0
   58.8440   33.9140   45.0850 C   0  0  0  0  0  0  0  0  0  0  0  0
   58.1820   32.6990   45.3220 C   0  0  0  0  0  0  0  0  0  0  0  0
   57.7260   31.8390   44.1740 C   0  0  0  0  0  0  0  0  0  0  0  0
   56.5360   31.0840   44.5500 N   0  0  0  0  0  0  0  0  0  0  0  0
   56.5590   29.7110   44.9570 C   0  0  0  0  0  0  0  0  0  0  0  0
   55.5040   29.0230   44.8760 O   0  0  0  0  0  0  0  0  0  0  0  0
   57.8120   29.0850   45.4640 C   0  0  0  0  0  0  0  0  0  0  0  0
   58.1880   29.2770   46.8050 C   0  0  0  0  0  0  0  0  0  0  0  0
   59.3540   28.6950   47.3060 C   0  0  0  0  0  0  0  0  0  0  0  0
   59.8230   28.9340   49.0200 S   0  0  0  0  0  0  0  0  0  0  0  0
   60.6810   30.4690   48.6660 C   0  0  0  0  0  0  0  0  0  0  0  0
   61.0310   30.7890   47.3480 C   0  0  0  0  0  0  0  0  0  0  0  0
   61.6960   31.9890   47.0730 C   0  0  0  0  0  0  0  0  0  0  0  0
   62.0170   32.8670   48.1130 C   0  0  0  0  0  0  0  0  0  0  0  0
   61.6720   32.5460   49.4300 C   0  0  0  0  0  0  0  0  0  0  0  0
   61.0070   31.3470   49.7070 C   0  0  0  0  0  0  0  0  0  0  0  0
   60.1510   27.9290   46.4580 C   0  0  0  0  0  0  0  0  0  0  0  0
   59.7910   27.7470   45.1610 N   0  0  0  0  0  0  0  0  0  0  0  0
   58.6550   28.2970   44.6450 C   0  0  0  0  0  0  0  0  0  0  0  0
   58.3740   28.0930   43.4330 O   0  0  0  0  0  0  0  0  0  0  0  0
   57.9160   32.3040   46.6420 C   0  0  0  0  0  0  0  0  0  0  0  0
   58.8200   32.3840   49.6900 H   0  0  0  0  0  0  0  0  0  0  0  0
   57.0730   32.7080   49.4390 H   0  0  0  0  0  0  0  0  0  0  0  0
   59.3042   34.9507   48.3092 H   0  0  0  0  0  0  0  0  0  0  0  0
   59.7622   35.6687   45.9649 H   0  0  0  0  0  0  0  0  0  0  0  0
   59.0493   34.2342   44.0529 H   0  0  0  0  0  0  0  0  0  0  0  0
   57.4919   32.4797   43.3110 H   0  0  0  0  0  0  0  0  0  0  0  0
   58.5295   31.1346   43.9127 H   0  0  0  0  0  0  0  0  0  0  0  0
   57.5580   29.8911   47.4653 H   0  0  0  0  0  0  0  0  0  0  0  0
   60.7832   30.0972   46.5295 H   0  0  0  0  0  0  0  0  0  0  0  0
   61.9667   32.2421   46.0373 H   0  0  0  0  0  0  0  0  0  0  0  0
   62.5406   33.8096   47.8955 H   0  0  0  0  0  0  0  0  0  0  0  0
   61.9238   33.2368   50.2482 H   0  0  0  0  0  0  0  0  0  0  0  0
   60.7399   31.0936   50.7435 H   0  0  0  0  0  0  0  0  0  0  0  0
   61.0748   27.4701   46.8401 H   0  0  0  0  0  0  0  0  0  0  0  0
   60.4070   27.1670   44.5480 H   0  0  0  0  0  0  0  0  0  0  0  0
   57.3898   31.3572   46.8336 H   0  0  0  0  0  0  0  0  0  0  0  0
  1  2  1  0
  2  3  2  0
  3  4  1  0
  4  5  2  0
  5  6  1  0
  6  7  1  0
  7  8  1  0
  8  9  1  0
  9 10  2  0
  9 11  1  0
 11 12  2  0
 12 13  1  0
 13 14  1  0
 14 15  1  0
 15 16  2  0
 16 17  1  0
 17 18  2  0
 18 19  1  0
 19 20  2  0
 13 21  2  0
 21 22  1  0
 22 23  1  0
 23 24  2  0
  6 25  2  0
 25  2  1  0
 23 11  1  0
 20 15  1  0
  1 26  1  0
  1 27  1  0
  3 28  1  0
  4 29  1  0
  5 30  1  0
  7 31  1  0
  7 32  1  0
 12 33  1  0
 16 34  1  0
 17 35  1  0
 18 36  1  0
 19 37  1  0
 20 38  1  0
 21 39  1  0
 22 40  1  0
 25 41  1  0
M  CHG  1   8  -1
M  END
>  <UniqueID>  (1) 
1

>  <SMILES>  (1) 
Nc1cccc(C[N-]C(=O)c2cc(Sc3ccccc3)c[nH]c2=O)c1

>  <Energy>  (1) 
38.95219240665117

>  <Genealogy>  (1) 
Nc1cccc(C[N-]C(=O)c2cc(Sc3ccccc3)c[nH]c2=O)c1 (protonated)
Nc1cccc(C[N-]C(=O)c2cc(Sc3ccccc3)c[nH]c2=O)c1 (3D coordinates assigned)
Nc1cccc(C[N-]C(=O)c2cc(Sc3ccccc3)c[nH]c2=O)c1 (optimized conformer: 38.95219240665117 kcal/mol)

>  <smiles>  (1) 
Nc1cccc(CNC(=O)c2cc(Sc3ccccc3)c[nH]c2=O)c1

>  <score_type>  (1) 
oracle

>  <origin>  (1) 
adg

>  <m_score__min__energy>  (1) 
-10.220000000000001

>  <m_primary>  (1) 
energy

$$$$
1:0
     RDKit          3D

 43 45  0  0  0  0  0  0  0  0999 V2000
   55.8015   23.3423   43.7112 H   0  0  0  0  0  0  0  0  0  0  0  0
   56.0170   24.1980   44.3680 C   0  0  0  0  0  0  0  0  0  0  0  0
   57.4580   25.0690   44.4190 S   0  0  0  0  0  0  0  0  0  0  0  0
   56.9220   26.0940   45.6490 C   0  0  0  0  0  0  0  0  0  0  0  0
   57.5800   27.0910   46.1650 N   0  0  0  0  0  0  0  0  0  0  0  0
   57.6320   28.4340   45.6580 C   0  0  0  0  0  0  0  0  0  0  0  0
   56.5850   28.9760   44.8980 C   0  0  0  0  0  0  0  0  0  0  0  0
   55.6817   28.3779   44.7074 H   0  0  0  0  0  0  0  0  0  0  0  0
   56.6820   30.2720   44.3810 C   0  0  0  0  0  0  0  0  0  0  0  0
   55.8481   30.6916   43.7992 H   0  0  0  0  0  0  0  0  0  0  0  0
   57.8400   31.0440   44.6000 C   0  0  0  0  0  0  0  0  0  0  0  0
   57.9600   32.3870   44.0730 N   0  0  0  0  0  0  0  0  0  0  0  0
   57.7540   33.5100   44.9510 C   0  0  0  0  0  0  0  0  0  0  0  0
   56.8890   34.3760   44.6480 O   0  0  0  0  0  0  0  0  0  0  0  0
   58.5240   33.6540   46.2070 C   0  0  0  0  0  0  0  0  0  0  0  0
   59.6620   34.4790   46.2600 C   0  0  0  0  0  0  0  0  0  0  0  0
   59.9787   35.0321   45.3635 H   0  0  0  0  0  0  0  0  0  0  0  0
   60.3930   34.6000   47.4460 C   0  0  0  0  0  0  0  0  0  0  0  0
   61.2777   35.2527   47.4814 H   0  0  0  0  0  0  0  0  0  0  0  0
   60.0020   33.8940   48.5850 C   0  0  0  0  0  0  0  0  0  0  0  0
   60.5776   33.9927   49.5172 H   0  0  0  0  0  0  0  0  0  0  0  0
   58.8800   33.0620   48.5420 C   0  0  0  0  0  0  0  0  0  0  0  0
   58.5737   32.5052   49.4398 H   0  0  0  0  0  0  0  0  0  0  0  0
   58.1460   32.9370   47.3570 C   0  0  0  0  0  0  0  0  0  0  0  0
   57.2686   32.2744   47.3245 H   0  0  0  0  0  0  0  0  0  0  0  0
   58.1490   32.6390   42.6360 C   0  0  0  0  0  0  0  0  0  0  0  0
   59.1913   32.4157   42.3644 H   0  0  0  0  0  0  0  0  0  0  0  0
   57.9180   33.6944   42.4290 H   0  0  0  0  0  0  0  0  0  0  0  0
   57.2160   31.7610   41.8060 C   0  0  0  0  0  0  0  0  0  0  0  0
   56.5812   31.1637   42.4770 H   0  0  0  0  0  0  0  0  0  0  0  0
   56.5817   32.3974   41.1714 H   0  0  0  0  0  0  0  0  0  0  0  0
   57.8127   31.0893   41.1714 H   0  0  0  0  0  0  0  0  0  0  0  0
   58.9000   30.4780   45.3330 C   0  0  0  0  0  0  0  0  0  0  0  0
   59.8163   31.0620   45.5044 H   0  0  0  0  0  0  0  0  0  0  0  0
   58.8000   29.1820   45.8450 C   0  0  0  0  0  0  0  0  0  0  0  0
   59.6449   28.7466   46.3988 H   0  0  0  0  0  0  0  0  0  0  0  0
   55.6570   25.7970   46.0120 N   0  0  0  0  0  0  0  0  0  0  0  0
   55.1300   26.3120   46.7540 H   0  0  0  0  0  0  0  0  0  0  0  0
   55.1460   24.7520   45.3040 C   0  0  0  0  0  0  0  0  0  0  0  0
   53.7800   24.2040   45.5660 C   0  0  0  0  0  0  0  0  0  0  0  0
   53.6137   24.1373   46.6513 H   0  0  0  0  0  0  0  0  0  0  0  0
   53.0262   24.8693   45.1197 H   0  0  0  0  0  0  0  0  0  0  0  0
   53.6950   23.2022   45.1197 H   0  0  0  0  0  0  0  0  0  0  0  0
  1  2  1  0
  2  3  1  0
  3  4  1  0
  4  5  2  0
  5  6  1  0
  6  7  2  0
  7  8  1  0
  7  9  1  0
  9 10  1  0
  9 11  2  0
 11 12  1  0
 12 13  1  0
 13 14  2  0
 13 15  1  0
 15 16  2  0
 16 17  1  0
 16 18  1  0
 18 19  1  0
 18 20  2  0
 20 21  1  0
 20 22  1  0
 22 23  1  0
 22 24  2  0
 24 25  1  0
 12 26  1  0
 26 27  1  0
 26 28  1  0
 26 29  1  0
 29 30  1  0
 29 31  1  0
 29 32  1  0
 11 33  1  0
 33 34  1  0
 33 35  2  0
 35 36  1  0
  4 37  1  0
 37 38  1  0
 37 39  1  0
 39 40  1  0
 40 41  1  0
 40 42  1  0
 40 43  1  0
 39  2  2  0
 35  6  1  0
 24 15  1  0
M  END
>  <UniqueID>  (2) 
2

>  <SMILES>  (2) 
CCN(C(=O)c1ccccc1)c1ccc(/N=c2/[nH]c(C)cs2)cc1

>  <Energy>  (2) 
88.43038431262522

>  <Genealogy>  (2) 
CCN(C(=O)c1ccccc1)c1ccc(/N=c2/[nH]c(C)cs2)cc1 (cis-trans isomerization)
CCN(C(=O)c1ccccc1)c1ccc(/N=c2/[nH]c(C)cs2)cc1 (3D coordinates assigned)
CCN(C(=O)c1ccccc1)c1ccc(/N=c2/[nH]c(C)cs2)cc1 (optimized conformer: 88.43038431262522 kcal/mol)

>  <smiles>  (2) 
CCN(C(=O)c1ccccc1)c1ccc(N=c2[nH]c(C)cs2)cc1

>  <score_type>  (2) 
oracle

>  <origin>  (2) 
adg

>  <m_score__min__energy>  (2) 
-8.0999999999999996

>  <m_primary>  (2) 
energy

$$$$
2:0
     RDKit          3D

 42 43  0  0  0  0  0  0  0  0999 V2000
   57.4120   27.8280   42.5930 N   0  0  0  0  0  0  0  0  0  0  0  0
   58.1310   27.6660   43.5770 N   0  0  0  0  0  0  0  0  0  0  0  0
   58.8520   27.5050   44.5640 N   0  0  0  0  0  0  0  0  0  0  0  0
   59.2880   28.6220   45.4140 C   0  0  1  0  0  0  0  0  0  0  0  0
   60.8110   28.4740   45.6700 C   0  0  0  0  0  0  0  0  0  0  0  0
   61.2050   27.1270   45.6150 O   0  0  0  0  0  0  0  0  0  0  0  0
   58.9900   29.9760   44.7570 C   0  0  0  0  0  0  0  0  0  0  0  0
   58.1390   30.7130   45.7900 C   0  0  2  0  0  0  0  0  0  0  0  0
   58.5410   32.1300   45.9080 N   0  0  0  0  0  0  0  0  0  0  0  0
   59.7970   32.4190   46.3680 C   0  0  0  0  0  0  0  0  0  0  0  0
   60.2140   33.7410   46.5190 C   0  0  0  0  0  0  0  0  0  0  0  0
   61.4630   34.0200   46.9670 F   0  0  0  0  0  0  0  0  0  0  0  0
   59.3210   34.7600   46.2030 C   0  0  0  0  0  0  0  0  0  0  0  0
   59.6610   35.9660   46.3250 O   0  0  0  0  0  0  0  0  0  0  0  0
   58.0760   34.4510   45.7680 N   0  0  0  0  0  0  0  0  0  0  0  0
   57.6750   33.1600   45.6230 C   0  0  0  0  0  0  0  0  0  0  0  0
   56.5010   32.9290   45.2290 O   0  0  0  0  0  0  0  0  0  0  0  0
   58.2630   30.0510   47.0270 O   0  0  0  0  0  0  0  0  0  0  0  0
   58.4420   28.6940   46.7150 C   0  0  2  0  0  0  0  0  0  0  0  0
   59.0170   27.9350   47.9250 C   0  0  0  0  0  0  0  0  0  0  0  0
   59.5540   26.6770   47.5190 O   0  0  0  0  0  0  0  0  0  0  0  0
   58.8050   25.6850   46.8760 C   0  0  0  0  0  0  0  0  0  0  0  0
   59.2920   25.0280   45.9160 O   0  0  0  0  0  0  0  0  0  0  0  0
   57.3870   25.4460   47.2950 C   0  0  0  0  0  0  0  0  0  0  0  0
   56.4790   25.1980   46.0860 C   0  0  0  0  0  0  0  0  0  0  0  0
   55.4900   26.3080   45.9020 C   0  0  0  0  0  0  0  0  0  0  0  0
   55.8880   27.4750   45.6440 O   0  0  0  0  0  0  0  0  0  0  0  0
   54.1280   26.0450   45.9700 O   0  0  0  0  0  0  0  0  0  0  0  0
   61.3607   29.0405   44.9039 H   0  0  0  0  0  0  0  0  0  0  0  0
   61.0356   28.8627   46.6742 H   0  0  0  0  0  0  0  0  0  0  0  0
   60.3750   26.5880   45.5280 H   0  0  0  0  0  0  0  0  0  0  0  0
   59.9214   30.5253   44.5550 H   0  0  0  0  0  0  0  0  0  0  0  0
   58.4805   29.8716   43.7877 H   0  0  0  0  0  0  0  0  0  0  0  0
   57.0876   30.7054   45.4667 H   0  0  0  0  0  0  0  0  0  0  0  0
   60.4853   31.5993   46.6215 H   0  0  0  0  0  0  0  0  0  0  0  0
   57.4913   28.1801   46.5098 H   0  0  0  0  0  0  0  0  0  0  0  0
   59.8147   28.5375   48.3840 H   0  0  0  0  0  0  0  0  0  0  0  0
   58.2088   27.7585   48.6500 H   0  0  0  0  0  0  0  0  0  0  0  0
   57.3525   24.5663   47.9545 H   0  0  0  0  0  0  0  0  0  0  0  0
   57.0261   26.3429   47.8198 H   0  0  0  0  0  0  0  0  0  0  0  0
   57.1012   25.1208   45.1822 H   0  0  0  0  0  0  0  0  0  0  0  0
   55.9215   24.2659   46.2600 H   0  0  0  0  0  0  0  0  0  0  0  0
  1  2  2  0
  2  3  2  0
  3  4  1  0
  4  5  1  1
  5  6  1  0
  4  7  1  0
  7  8  1  0
  8  9  1  0
  9 10  1  0
 10 11  2  0
 11 12  1  0
 11 13  1  0
 13 14  2  0
 13 15  1  0
 15 16  1  0
 16 17  2  0
  8 18  1  0
 18 19  1  0
 19 20  1  0
 20 21  1  0
 21 22  1  0
 22 23  2  0
 22 24  1  0
 24 25  1  0
 25 26  1  0
 26 27  2  0
 26 28  1  0
 19  4  1  0
 16  9  1  0
  5 29  1  0
  5 30  1  0
  6 31  1  0
  7 32  1  0
  7 33  1  0
  8 34  1  6
 10 35  1  0
 19 36  1  6
 20 37  1  0
 20 38  1  0
 24 39  1  0
 24 40  1  0
 25 41  1  0
 25 42  1  0
M  CHG  4   1  -1   2   1  15  -1  28  -1
M  END
>  <UniqueID>  (3) 
3

>  <SMILES>  (3) 
[N-]=[N+]=N[C@@]1(CO)C[C@H](n2cc(F)c(=O)[n-]c2=O)OC1COC(=O)CCC(=O)[O-]

>  <Energy>  (3) 
44.31077589740783

>  <Genealogy>  (3) 
[N-]=[N+]=NC1(CO)CC(n2cc(F)c(=O)[n-]c2=O)OC1COC(=O)CCC(=O)[O-] (protonated)
[N-]=[N+]=N[C@@]1(CO)C[C@H](n2cc(F)c(=O)[n-]c2=O)OC1COC(=O)CCC(=O)[O-] (chirality)
[N-]=[N+]=N[C@@]1(CO)C[C@H](n2cc(F)c(=O)[n-]c2=O)OC1COC(=O)CCC(=O)[O-] (3D coordinates assigned)
[N-]=[N+]=N[C@@]1(CO)C[C@H](n2cc(F)c(=O)[n-]c2=O)OC1COC(=O)CCC(=O)[O-] (nonaromatic ring conformer: 44.31077589740783 kcal/mol)

>  <smiles>  (3) 
[N-]=[N+]=NC1(CO)CC(n2cc(F)c(=O)[nH]c2=O)OC1COC(=O)CCC(=O)O

>  <score_type>  (3) 
oracle

>  <origin>  (3) 
adg

>  <m_score__min__energy>  (3) 
-10.59

>  <m_primary>  (3) 
energy

$$$$
3:0
     RDKit          3D

 54 57  0  0  0  0  0  0  0  0999 V2000
   64.0353   32.0203   51.1225 H   0  0  0  0  0  0  0  0  0  0  0  0
   63.7380   32.5510   50.2060 C   0  0  0  0  0  0  0  0  0  0  0  0
   62.6090   33.3060   50.1360 N   0  0  0  0  0  0  0  0  0  0  0  0
   62.4520   33.8610   48.9160 C   0  0  0  0  0  0  0  0  0  0  0  0
   61.4350   34.6240   48.6330 N   0  0  0  0  0  0  0  0  0  0  0  0
   60.0450   34.2570   48.5790 C   0  0  0  0  0  0  0  0  0  0  0  0
   59.2980   34.4140   49.5830 O   0  0  0  0  0  0  0  0  0  0  0  0
   59.4840   33.6870   47.3320 C   0  0  0  0  0  0  0  0  0  0  0  0
   59.7400   34.3090   46.0790 C   0  0  0  0  0  0  0  0  0  0  0  0
   60.3597   35.2170   46.0401 H   0  0  0  0  0  0  0  0  0  0  0  0
   59.2110   33.7780   44.8890 C   0  0  0  0  0  0  0  0  0  0  0  0
   59.4064   34.2557   43.9176 H   0  0  0  0  0  0  0  0  0  0  0  0
   58.4300   32.6250   44.9810 C   0  0  0  0  0  0  0  0  0  0  0  0
   58.1820   32.0210   46.1760 C   0  0  0  0  0  0  0  0  0  0  0  0
   57.4160   30.9310   46.0030 N   0  0  0  0  0  0  0  0  0  0  0  0
   57.2190   30.8950   44.6590 C   0  0  0  0  0  0  0  0  0  0  0  0
   56.4280   29.8160   44.0320 C   0  0  0  0  0  0  0  0  0  0  0  0
   55.3080   29.5220   44.5330 O   0  0  0  0  0  0  0  0  0  0  0  0
   56.9640   28.9650   42.9140 C   0  0  0  0  0  0  0  0  0  0  0  0
   56.1209   28.5049   42.3779 H   0  0  0  0  0  0  0  0  0  0  0  0
   57.5502   29.6064   42.2395 H   0  0  0  0  0  0  0  0  0  0  0  0
   57.8830   27.8550   43.4490 C   0  0  0  0  0  0  0  0  0  0  0  0
   57.9046   27.0329   42.7185 H   0  0  0  0  0  0  0  0  0  0  0  0
   58.8815   28.2919   43.5977 H   0  0  0  0  0  0  0  0  0  0  0  0
   57.4120   27.2990   44.8020 C   0  0  0  0  0  0  0  0  0  0  0  0
   56.5105   27.8470   45.1135 H   0  0  0  0  0  0  0  0  0  0  0  0
   57.2088   26.2262   44.6688 H   0  0  0  0  0  0  0  0  0  0  0  0
   58.4760   27.4380   45.9000 C   0  0  0  0  0  0  0  0  0  0  0  0
   58.0032   27.8346   46.8106 H   0  0  0  0  0  0  0  0  0  0  0  0
   58.9123   26.4467   46.0921 H   0  0  0  0  0  0  0  0  0  0  0  0
   59.5970   28.3880   45.4630 C   0  0  0  0  0  0  0  0  0  0  0  0
   60.4152   27.8018   45.0191 H   0  0  0  0  0  0  0  0  0  0  0  0
   59.1935   29.0973   44.7253 H   0  0  0  0  0  0  0  0  0  0  0  0
   60.1250   29.1610   46.6410 C   0  0  0  0  0  0  0  0  0  0  0  0
   61.1320   30.1230   46.4630 C   0  0  0  0  0  0  0  0  0  0  0  0
   61.5555   30.2942   45.4623 H   0  0  0  0  0  0  0  0  0  0  0  0
   61.5990   30.8650   47.5540 C   0  0  0  0  0  0  0  0  0  0  0  0
   62.3940   31.6116   47.4109 H   0  0  0  0  0  0  0  0  0  0  0  0
   61.0560   30.6580   48.8250 C   0  0  0  0  0  0  0  0  0  0  0  0
   61.4258   31.2396   49.6823 H   0  0  0  0  0  0  0  0  0  0  0  0
   60.0430   29.7120   49.0070 C   0  0  0  0  0  0  0  0  0  0  0  0
   59.6142   29.5518   50.0073 H   0  0  0  0  0  0  0  0  0  0  0  0
   59.5740   28.9690   47.9190 C   0  0  0  0  0  0  0  0  0  0  0  0
   58.7708   28.2316   48.0644 H   0  0  0  0  0  0  0  0  0  0  0  0
   57.8120   31.9370   44.0040 N   0  0  0  0  0  0  0  0  0  0  0  0
   57.7690   32.2810   42.5840 C   0  0  0  0  0  0  0  0  0  0  0  0
   57.6333   33.3670   42.4738 H   0  0  0  0  0  0  0  0  0  0  0  0
   58.7119   31.9788   42.1048 H   0  0  0  0  0  0  0  0  0  0  0  0
   56.9295   31.7560   42.1048 H   0  0  0  0  0  0  0  0  0  0  0  0
   58.6870   32.5170   47.3750 C   0  0  0  0  0  0  0  0  0  0  0  0
   58.4728   32.0139   48.3295 H   0  0  0  0  0  0  0  0  0  0  0  0
   63.7110   33.4320   47.8760 S   0  0  0  0  0  0  0  0  0  0  0  0
   64.4900   32.4970   49.0380 C   0  0  0  0  0  0  0  0  0  0  0  0
   65.4288   31.9410   48.8981 H   0  0  0  0  0  0  0  0  0  0  0  0
  1  2  1  0
  2  3  1  0
  3  4  1  0
  4  5  2  0
  5  6  1  0
  6  7  2  0
  6  8  1  0
  8  9  2  0
  9 10  1  0
  9 11  1  0
 11 12  1  0
 11 13  2  0
 13 14  1  0
 14 15  1  0
 15 16  2  0
 16 17  1  0
 17 18  2  0
 17 19  1  0
 19 20  1  0
 19 21  1  0
 19 22  1  0
 22 23  1  0
 22 24  1  0
 22 25  1  0
 25 26  1  0
 25 27  1  0
 25 28  1  0
 28 29  1  0
 28 30  1  0
 28 31  1  0
 31 32  1  0
 31 33  1  0
 31 34  1  0
 34 35  2  0
 35 36  1  0
 35 37  1  0
 37 38  1  0
 37 39  2  0
 39 40  1  0
 39 41  1  0
 41 42  1  0
 41 43  2  0
 43 44  1  0
 16 45  1  0
 45 46  1  0
 46 47  1  0
 46 48  1  0
 46 49  1  0
 14 50  2  0
 50 51  1  0
  4 52  1  0
 52 53  1  0
 53 54  1  0
 53  2  2  0
 50  8  1  0
 45 13  1  0
 43 34  1  0
M  CHG  1   3  -1
M  END
>  <UniqueID>  (4) 
4

>  <SMILES>  (4) 
Cn1c(C(=O)CCCCCc2ccccc2)nc2cc(C(=O)/N=c3/[n-]ccs3)ccc21

>  <Energy>  (4) 
125.53898687229072

>  <Genealogy>  (4) 
Cn1c(C(=O)CCCCCc2ccccc2)nc2cc(C(=O)N=c3[n-]ccs3)ccc21 (protonated)
Cn1c(C(=O)CCCCCc2ccccc2)nc2cc(C(=O)/N=c3/[n-]ccs3)ccc21 (cis-trans isomerization)
Cn1c(C(=O)CCCCCc2ccccc2)nc2cc(C(=O)/N=c3/[n-]ccs3)ccc21 (3D coordinates assigned)
Cn1c(C(=O)CCCCCc2ccccc2)nc2cc(C(=O)/N=c3/[n-]ccs3)ccc21 (optimized conformer: 125.53898687229072 kcal/mol)

>  <smiles>  (4) 
Cn1c(C(=O)CCCCCc2ccccc2)nc2cc(C(=O)N=c3[nH]ccs3)ccc21

>  <score_type>  (4) 
oracle

>  <origin>  (4) 
adg

>  <m_score__min__energy>  (4) 
-11

>  <m_primary>  (4) 
energy

$$$$
4:0
     RDKit          3D

 46 48  0  0  0  0  0  0  0  0999 V2000
   62.2000   33.7820   49.8760 C   0  0  0  0  0  0  0  0  0  0  0  0
   60.9290   32.9890   50.0210 C   0  0  0  0  0  0  0  0  0  0  0  0
   60.9290   31.8310   50.8180 C   0  0  0  0  0  0  0  0  0  0  0  0
   59.7630   31.0840   50.9850 C   0  0  0  0  0  0  0  0  0  0  0  0
   58.5850   31.4780   50.3530 C   0  0  0  0  0  0  0  0  0  0  0  0
   58.5680   32.6200   49.5500 C   0  0  0  0  0  0  0  0  0  0  0  0
   59.7340   33.3910   49.3740 C   0  0  0  0  0  0  0  0  0  0  0  0
   59.7090   34.5650   48.5410 N   0  0  0  0  0  0  0  0  0  0  0  0
   60.0720   34.5250   46.8440 S   0  0  0  0  0  0  0  0  0  0  0  0
   59.6990   35.8400   46.2220 O   0  0  0  0  0  0  0  0  0  0  0  0
   61.5460   34.2950   46.6610 O   0  0  0  0  0  0  0  0  0  0  0  0
   59.1390   33.2490   46.0660 C   0  0  0  0  0  0  0  0  0  0  0  0
   59.4100   31.9010   46.3350 C   0  0  0  0  0  0  0  0  0  0  0  0
   58.6470   30.8970   45.7300 C   0  0  0  0  0  0  0  0  0  0  0  0
   57.6080   31.2340   44.8510 C   0  0  0  0  0  0  0  0  0  0  0  0
   56.6520   29.9750   44.0710 S   0  0  0  0  0  0  0  0  0  0  0  0
   55.2340   30.0200   44.5690 O   0  0  0  0  0  0  0  0  0  0  0  0
   56.6440   30.2130   42.5880 O   0  0  0  0  0  0  0  0  0  0  0  0
   57.3360   28.4110   44.3920 N   0  0  0  0  0  0  0  0  0  0  0  0
   56.9530   27.9650   45.7310 C   0  0  0  0  0  0  0  0  0  0  0  0
   57.3420   26.5000   45.9260 C   0  0  0  0  0  0  0  0  0  0  0  0
   56.1640   25.5940   45.7330 C   0  0  0  0  0  0  0  0  0  0  0  0
   56.2120   24.2430   45.4910 C   0  0  0  0  0  0  0  0  0  0  0  0
   54.9580   23.7670   45.4390 N   0  0  0  0  0  0  0  0  0  0  0  0
   54.1830   24.8500   45.6600 C   0  0  0  0  0  0  0  0  0  0  0  0
   54.8840   25.9880   45.8530 N   0  0  0  0  0  0  0  0  0  0  0  0
   57.3450   32.5820   44.5740 C   0  0  0  0  0  0  0  0  0  0  0  0
   58.1070   33.5850   45.1790 C   0  0  0  0  0  0  0  0  0  0  0  0
   62.5944   34.0281   50.8729 H   0  0  0  0  0  0  0  0  0  0  0  0
   62.9427   33.1868   49.3245 H   0  0  0  0  0  0  0  0  0  0  0  0
   61.9918   34.7107   49.3245 H   0  0  0  0  0  0  0  0  0  0  0  0
   61.8570   31.5111   51.3145 H   0  0  0  0  0  0  0  0  0  0  0  0
   59.7732   30.1831   51.6161 H   0  0  0  0  0  0  0  0  0  0  0  0
   57.6665   30.8878   50.4872 H   0  0  0  0  0  0  0  0  0  0  0  0
   57.6354   32.9206   49.0500 H   0  0  0  0  0  0  0  0  0  0  0  0
   59.3540   35.4700   48.9200 H   0  0  0  0  0  0  0  0  0  0  0  0
   60.2246   31.6317   47.0235 H   0  0  0  0  0  0  0  0  0  0  0  0
   58.8627   29.8399   45.9444 H   0  0  0  0  0  0  0  0  0  0  0  0
   57.4689   28.5817   46.4817 H   0  0  0  0  0  0  0  0  0  0  0  0
   55.8640   28.0677   45.8477 H   0  0  0  0  0  0  0  0  0  0  0  0
   58.1209   26.2357   45.1956 H   0  0  0  0  0  0  0  0  0  0  0  0
   57.7133   26.3730   46.9536 H   0  0  0  0  0  0  0  0  0  0  0  0
   57.1282   23.6483   45.3610 H   0  0  0  0  0  0  0  0  0  0  0  0
   53.0839   24.8094   45.6809 H   0  0  0  0  0  0  0  0  0  0  0  0
   56.5366   32.8515   43.8784 H   0  0  0  0  0  0  0  0  0  0  0  0
   57.8962   34.6418   44.9584 H   0  0  0  0  0  0  0  0  0  0  0  0
  1  2  1  0
  2  3  2  0
  3  4  1  0
  4  5  2  0
  5  6  1  0
  6  7  2  0
  7  8  1  0
  8  9  1  0
  9 10  2  0
  9 11  2  0
  9 12  1  0
 12 13  2  0
 13 14  1  0
 14 15  2  0
 15 16  1  0
 16 17  2  0
 16 18  2  0
 16 19  1  0
 19 20  1  0
 20 21  1  0
 21 22  1  0
 22 23  2  0
 23 24  1  0
 24 25  1  0
 25 26  2  0
 15 27  1  0
 27 28  2  0
  7  2  1  0
 28 12  1  0
 26 22  1  0
  1 29  1  0
  1 30  1  0
  1 31  1  0
  3 32  1  0
  4 33  1  0
  5 34  1  0
  6 35  1  0
  8 36  1  0
 13 37  1  0
 14 38  1  0
 20 39  1  0
 20 40  1  0
 21 41  1  0
 21 42  1  0
 23 43  1  0
 25 44  1  0
 27 45  1  0
 28 46  1  0
M  CHG  2  19  -1  24  -1
M  END
>  <UniqueID>  (5) 
5

>  <SMILES>  (5) 
Cc1ccccc1NS(=O)(=O)c1ccc(S(=O)(=O)[N-]CCc2c[n-]cn2)cc1

>  <Energy>  (5) 
74.3364524887686

>  <Genealogy>  (5) 
Cc1ccccc1NS(=O)(=O)c1ccc(S(=O)(=O)[N-]CCc2c[n-]cn2)cc1 (protonated)
Cc1ccccc1NS(=O)(=O)c1ccc(S(=O)(=O)[N-]CCc2c[n-]cn2)cc1 (3D coordinates assigned)
Cc1ccccc1NS(=O)(=O)c1ccc(S(=O)(=O)[N-]CCc2c[n-]cn2)cc1 (optimized conformer: 74.3364524887686 kcal/mol)

>  <smiles>  (5) 
Cc1ccccc1NS(=O)(=O)c1ccc(S(=O)(=O)NCCc2c[nH]cn2)cc1

>  <score_type>  (5) 
oracle

>  <origin>  (5) 
adg

>  <m_score__min__energy>  (5) 
-12.880000000000001

>  <m_primary>  (5) 
energy

$$$$
5:0
     RDKit          3D

 44 46  0  0  0  0  0  0  0  0999 V2000
   60.0950   34.1840   49.5960 C   0  0  0  0  0  0  0  0  0  0  0  0
   61.2280   33.9970   48.6210 C   0  0  0  0  0  0  0  0  0  0  0  0
   62.5300   33.8410   49.1290 C   0  0  0  0  0  0  0  0  0  0  0  0
   63.6180   33.6990   48.2670 C   0  0  0  0  0  0  0  0  0  0  0  0
   63.4220   33.7080   46.8870 C   0  0  0  0  0  0  0  0  0  0  0  0
   62.1350   33.8440   46.3640 C   0  0  0  0  0  0  0  0  0  0  0  0
   61.0250   33.9650   47.2170 C   0  0  0  0  0  0  0  0  0  0  0  0
   59.6810   34.0380   46.6070 C   0  0  0  0  0  0  0  0  0  0  0  0
   59.0710   35.1410   46.5930 O   0  0  0  0  0  0  0  0  0  0  0  0
   59.1000   32.8870   45.9740 N   0  0  0  0  0  0  0  0  0  0  0  0
   57.8540   32.9580   45.2150 C   0  0  0  0  0  0  0  0  0  0  0  0
   57.3810   31.5810   44.8710 C   0  0  0  0  0  0  0  0  0  0  0  0
   56.0860   31.2170   44.8700 N   0  0  0  0  0  0  0  0  0  0  0  0
   56.0480   29.9560   44.4770 N   0  0  0  0  0  0  0  0  0  0  0  0
   57.3240   29.5860   44.2530 C   0  0  0  0  0  0  0  0  0  0  0  0
   57.7250   28.2340   43.7600 C   0  0  0  0  0  0  0  0  0  0  0  0
   58.4740   27.2440   45.1040 S   0  0  0  0  0  0  0  0  0  0  0  0
   60.0130   28.2230   45.2810 C   0  0  0  0  0  0  0  0  0  0  0  0
   59.9810   29.1110   46.4960 C   0  0  0  0  0  0  0  0  0  0  0  0
   61.0310   30.0130   46.7450 C   0  0  0  0  0  0  0  0  0  0  0  0
   61.0160   30.8100   47.8950 C   0  0  0  0  0  0  0  0  0  0  0  0
   59.9510   30.7250   48.7940 C   0  0  0  0  0  0  0  0  0  0  0  0
   58.9080   29.8270   48.5570 C   0  0  0  0  0  0  0  0  0  0  0  0
   58.9270   29.0140   47.4200 C   0  0  0  0  0  0  0  0  0  0  0  0
   58.1980   30.5850   44.4740 N   0  0  0  0  0  0  0  0  0  0  0  0
   60.4815   34.1202   50.6239 H   0  0  0  0  0  0  0  0  0  0  0  0
   59.6343   35.1703   49.4380 H   0  0  0  0  0  0  0  0  0  0  0  0
   59.3418   33.3980   49.4380 H   0  0  0  0  0  0  0  0  0  0  0  0
   62.6924   33.8308   50.2169 H   0  0  0  0  0  0  0  0  0  0  0  0
   64.6317   33.5798   48.6770 H   0  0  0  0  0  0  0  0  0  0  0  0
   64.2826   33.6078   46.2093 H   0  0  0  0  0  0  0  0  0  0  0  0
   61.9884   33.8566   45.2739 H   0  0  0  0  0  0  0  0  0  0  0  0
   59.6610   32.0090   45.9030 H   0  0  0  0  0  0  0  0  0  0  0  0
   57.0880   33.4650   45.8202 H   0  0  0  0  0  0  0  0  0  0  0  0
   58.0304   33.5201   44.2860 H   0  0  0  0  0  0  0  0  0  0  0  0
   56.8351   27.7107   43.3803 H   0  0  0  0  0  0  0  0  0  0  0  0
   58.4687   28.3585   42.9591 H   0  0  0  0  0  0  0  0  0  0  0  0
   60.8648   27.5325   45.3683 H   0  0  0  0  0  0  0  0  0  0  0  0
   60.1104   28.8656   44.3935 H   0  0  0  0  0  0  0  0  0  0  0  0
   61.8663   30.0921   46.0337 H   0  0  0  0  0  0  0  0  0  0  0  0
   61.8454   31.5054   48.0913 H   0  0  0  0  0  0  0  0  0  0  0  0
   59.9335   31.3650   49.6885 H   0  0  0  0  0  0  0  0  0  0  0  0
   58.0700   29.7593   49.2663 H   0  0  0  0  0  0  0  0  0  0  0  0
   58.1127   28.2947   47.2478 H   0  0  0  0  0  0  0  0  0  0  0  0
  1  2  1  0
  2  3  2  0
  3  4  1  0
  4  5  2  0
  5  6  1  0
  6  7  2  0
  7  8  1  0
  8  9  2  0
  8 10  1  0
 10 11  1  0
 11 12  1  0
 12 13  2  0
 13 14  1  0
 14 15  1  0
 15 16  1  0
 16 17  1  0
 17 18  1  0
 18 19  1  0
 19 20  2  0
 20 21  1  0
 21 22  2  0
 22 23  1  0
 23 24  2  0
 15 25  2  0
  7  2  1  0
 25 12  1  0
 24 19  1  0
  1 26  1  0
  1 27  1  0
  1 28  1  0
  3 29  1  0
  4 30  1  0
  5 31  1  0
  6 32  1  0
 10 33  1  0
 11 34  1  0
 11 35  1  0
 16 36  1  0
 16 37  1  0
 18 38  1  0
 18 39  1  0
 20 40  1  0
 21 41  1  0
 22 42  1  0
 23 43  1  0
 24 44  1  0
M  CHG  1  14  -1
M  END
>  <UniqueID>  (6) 
6

>  <SMILES>  (6) 
Cc1ccccc1C(=O)NCc1n[n-]c(CSCc2ccccc2)n1

>  <Energy>  (6) 
72.12524575667291

>  <Genealogy>  (6) 
Cc1ccccc1C(=O)NCc1n[n-]c(CSCc2ccccc2)n1 (protonated)
Cc1ccccc1C(=O)NCc1n[n-]c(CSCc2ccccc2)n1 (3D coordinates assigned)
Cc1ccccc1C(=O)NCc1n[n-]c(CSCc2ccccc2)n1 (optimized conformer: 72.12524575667291 kcal/mol)

>  <smiles>  (6) 
Cc1ccccc1C(=O)NCc1n[nH]c(CSCc2ccccc2)n1

>  <score_type>  (6) 
oracle

>  <origin>  (6) 
adg

>  <m_score__min__energy>  (6) 
-10.32

>  <m_primary>  (6) 
energy

$$$$
6:0
     RDKit          3D

 47 50  0  0  0  0  0  0  0  0999 V2000
   55.3950   30.0190   53.3520 O   0  0  0  0  0  0  0  0  0  0  0  0
   55.1420   30.7900   52.3900 C   0  0  0  0  0  0  0  0  0  0  0  0
   56.2600   31.5910   51.7820 C   0  0  0  0  0  0  0  0  0  0  0  0
   57.8360   30.6660   51.8270 S   0  0  0  0  0  0  0  0  0  0  0  0
   58.2280   30.9270   50.1000 C   0  0  0  0  0  0  0  0  0  0  0  0
   58.5620   29.9230   49.2650 N   0  0  0  0  0  0  0  0  0  0  0  0
   58.7720   30.5370   48.0870 C   0  0  0  0  0  0  0  0  0  0  0  0
   59.0730   29.7970   46.8440 C   0  0  0  0  0  0  0  0  0  0  0  0
   58.0540   29.1660   46.1090 C   0  0  0  0  0  0  0  0  0  0  0  0
   58.3600   28.4540   44.9460 C   0  0  0  0  0  0  0  0  0  0  0  0
   59.6850   28.3530   44.5140 C   0  0  0  0  0  0  0  0  0  0  0  0
   60.7070   28.9570   45.2510 C   0  0  0  0  0  0  0  0  0  0  0  0
   60.4060   29.6700   46.4140 C   0  0  0  0  0  0  0  0  0  0  0  0
   58.5730   31.9020   48.2470 C   0  0  0  0  0  0  0  0  0  0  0  0
   58.7720   32.9810   47.2570 C   0  0  0  0  0  0  0  0  0  0  0  0
   57.9760   33.0600   46.0990 C   0  0  0  0  0  0  0  0  0  0  0  0
   58.1910   34.0770   45.1650 C   0  0  0  0  0  0  0  0  0  0  0  0
   59.2060   35.0130   45.3680 C   0  0  0  0  0  0  0  0  0  0  0  0
   60.0160   34.9290   46.5050 C   0  0  0  0  0  0  0  0  0  0  0  0
   59.8050   33.9140   47.4420 C   0  0  0  0  0  0  0  0  0  0  0  0
   58.2250   32.1450   49.5240 N   0  0  0  0  0  0  0  0  0  0  0  0
   53.7760   30.9510   51.9800 N   0  0  0  0  0  0  0  0  0  0  0  0
   52.6120   30.4650   52.6640 C   0  0  0  0  0  0  0  0  0  0  0  0
   52.7260   29.3860   53.5570 C   0  0  0  0  0  0  0  0  0  0  0  0
   51.6160   28.9260   54.2650 C   0  0  0  0  0  0  0  0  0  0  0  0
   50.3820   29.5510   54.1050 C   0  0  0  0  0  0  0  0  0  0  0  0
   50.2550   30.6430   53.2440 C   0  0  0  0  0  0  0  0  0  0  0  0
   51.3640   31.1220   52.5170 C   0  0  0  0  0  0  0  0  0  0  0  0
   51.1830   32.2870   51.6100 C   0  0  0  0  0  0  0  0  0  0  0  0
   51.5250   32.2090   50.4000 O   0  0  0  0  0  0  0  0  0  0  0  0
   50.6480   33.4840   52.0710 O   0  0  0  0  0  0  0  0  0  0  0  0
   56.0088   31.8213   50.7361 H   0  0  0  0  0  0  0  0  0  0  0  0
   56.3823   32.5162   52.3642 H   0  0  0  0  0  0  0  0  0  0  0  0
   57.0107   29.2331   46.4511 H   0  0  0  0  0  0  0  0  0  0  0  0
   57.5564   27.9723   44.3697 H   0  0  0  0  0  0  0  0  0  0  0  0
   59.9234   27.7984   43.5944 H   0  0  0  0  0  0  0  0  0  0  0  0
   61.7508   28.8709   44.9147 H   0  0  0  0  0  0  0  0  0  0  0  0
   61.2155   30.1344   46.9963 H   0  0  0  0  0  0  0  0  0  0  0  0
   57.1816   32.3184   45.9285 H   0  0  0  0  0  0  0  0  0  0  0  0
   57.5584   34.1399   44.2673 H   0  0  0  0  0  0  0  0  0  0  0  0
   59.3688   35.8162   44.6343 H   0  0  0  0  0  0  0  0  0  0  0  0
   60.8202   35.6629   46.6619 H   0  0  0  0  0  0  0  0  0  0  0  0
   60.4516   33.8455   48.3293 H   0  0  0  0  0  0  0  0  0  0  0  0
   53.7018   28.8987   53.6992 H   0  0  0  0  0  0  0  0  0  0  0  0
   51.7152   28.0703   54.9491 H   0  0  0  0  0  0  0  0  0  0  0  0
   49.5051   29.1836   54.6582 H   0  0  0  0  0  0  0  0  0  0  0  0
   49.2779   31.1355   53.1316 H   0  0  0  0  0  0  0  0  0  0  0  0
  1  2  2  0
  2  3  1  0
  3  4  1  0
  4  5  1  0
  5  6  2  0
  6  7  1  0
  7  8  1  0
  8  9  2  0
  9 10  1  0
 10 11  2  0
 11 12  1  0
 12 13  2  0
  7 14  2  0
 14 15  1  0
 15 16  2  0
 16 17  1  0
 17 18  2  0
 18 19  1  0
 19 20  2  0
 14 21  1  0
  2 22  1  0
 22 23  1  0
 23 24  2  0
 24 25  1  0
 25 26  2  0
 26 27  1  0
 27 28  2  0
 28 29  1  0
 29 30  2  0
 29 31  1  0
 21  5  1  0
 28 23  1  0
 13  8  1  0
 20 15  1  0
  3 32  1  0
  3 33  1  0
  9 34  1  0
 10 35  1  0
 11 36  1  0
 12 37  1  0
 13 38  1  0
 16 39  1  0
 17 40  1  0
 18 41  1  0
 19 42  1  0
 20 43  1  0
 24 44  1  0
 25 45  1  0
 26 46  1  0
 27 47  1  0
M  CHG  3  21  -1  22  -1  31  -1
M  END
>  <UniqueID>  (7) 
7

>  <SMILES>  (7) 
O=C(CSc1nc(-c2ccccc2)c(-c2ccccc2)[n-]1)[N-]c1ccccc1C(=O)[O-]

>  <Energy>  (7) 
91.94946704619416

>  <Genealogy>  (7) 
O=C(CSc1nc(-c2ccccc2)c(-c2ccccc2)[n-]1)[N-]c1ccccc1C(=O)[O-] (protonated)
O=C(CSc1nc(-c2ccccc2)c(-c2ccccc2)[n-]1)[N-]c1ccccc1C(=O)[O-] (3D coordinates assigned)
O=C(CSc1nc(-c2ccccc2)c(-c2ccccc2)[n-]1)[N-]c1ccccc1C(=O)[O-] (optimized conformer: 91.94946704619416 kcal/mol)

>  <smiles>  (7) 
O=C(CSc1nc(-c2ccccc2)c(-c2ccccc2)[nH]1)Nc1ccccc1C(=O)O

>  <score_type>  (7) 
oracle

>  <origin>  (7) 
adg

>  <m_score__min__energy>  (7) 
-15.44

>  <m_primary>  (7) 
energy

$$$$
7:0
     RDKit          3D

 38 40  0  0  0  0  0  0  0  0999 V2000
   53.6080   24.5310   44.3630 H   0  0  0  0  0  0  0  0  0  0  0  0
   54.4870   24.0280   44.3450 O   0  0  0  0  0  0  0  0  0  0  0  0
   55.6340   24.5220   44.9660 C   0  0  0  0  0  0  0  0  0  0  0  0
   56.8530   23.8640   44.7680 C   0  0  0  0  0  0  0  0  0  0  0  0
   56.8949   22.9695   44.1292 H   0  0  0  0  0  0  0  0  0  0  0  0
   58.0170   24.3380   45.3780 C   0  0  0  0  0  0  0  0  0  0  0  0
   58.9723   23.8182   45.2129 H   0  0  0  0  0  0  0  0  0  0  0  0
   57.9730   25.4750   46.2010 C   0  0  0  0  0  0  0  0  0  0  0  0
   59.2350   26.0090   46.8290 C   0  0  0  0  0  0  0  0  0  0  0  0
   59.9537   26.2564   46.0339 H   0  0  0  0  0  0  0  0  0  0  0  0
   59.6436   25.2365   47.4971 H   0  0  0  0  0  0  0  0  0  0  0  0
   58.9550   27.2720   47.6620 C   0  0  0  0  0  0  0  0  0  0  0  0
   59.5948   27.2564   48.5567 H   0  0  0  0  0  0  0  0  0  0  0  0
   57.8894   27.2698   47.9348 H   0  0  0  0  0  0  0  0  0  0  0  0
   59.2260   28.4960   46.9090 N   0  0  0  0  0  0  0  0  0  0  0  0
   58.4910   29.4270   46.3500 C   0  0  0  0  0  0  0  0  0  0  0  0
   57.3900   28.9470   45.6270 C   0  0  0  0  0  0  0  0  0  0  0  0
   57.1413   27.8762   45.6667 H   0  0  0  0  0  0  0  0  0  0  0  0
   56.6080   29.8030   44.8610 C   0  0  0  0  0  0  0  0  0  0  0  0
   55.7535   29.4067   44.2928 H   0  0  0  0  0  0  0  0  0  0  0  0
   56.8970   31.1220   44.8140 N   0  0  0  0  0  0  0  0  0  0  0  0
   57.9190   31.6630   45.5240 C   0  0  0  0  0  0  0  0  0  0  0  0
   58.1290   33.0430   45.4400 C   0  0  0  0  0  0  0  0  0  0  0  0
   57.4959   33.6509   44.7769 H   0  0  0  0  0  0  0  0  0  0  0  0
   59.1350   33.6570   46.1900 C   0  0  0  0  0  0  0  0  0  0  0  0
   59.3270   35.1430   46.1280 C   0  0  0  0  0  0  0  0  0  0  0  0
   59.3794   35.5489   47.1490 H   0  0  0  0  0  0  0  0  0  0  0  0
   60.2619   35.3700   45.5947 H   0  0  0  0  0  0  0  0  0  0  0  0
   58.4805   35.6002   45.5947 H   0  0  0  0  0  0  0  0  0  0  0  0
   59.8940   32.8840   47.0710 C   0  0  0  0  0  0  0  0  0  0  0  0
   60.6553   33.3671   47.7011 H   0  0  0  0  0  0  0  0  0  0  0  0
   59.6970   31.5030   47.1610 C   0  0  0  0  0  0  0  0  0  0  0  0
   60.2972   30.9180   47.8734 H   0  0  0  0  0  0  0  0  0  0  0  0
   58.7410   30.8430   46.3540 C   0  0  0  0  0  0  0  0  0  0  0  0
   56.7510   26.1400   46.3910 C   0  0  0  0  0  0  0  0  0  0  0  0
   56.7104   27.0391   47.0234 H   0  0  0  0  0  0  0  0  0  0  0  0
   55.5850   25.6660   45.7810 C   0  0  0  0  0  0  0  0  0  0  0  0
   54.3840   26.3360   45.9850 O   0  0  0  0  0  0  0  0  0  0  0  0
  1  2  1  0
  2  3  1  0
  3  4  2  0
  4  5  1  0
  4  6  1  0
  6  7  1  0
  6  8  2  0
  8  9  1  0
  9 10  1  0
  9 11  1  0
  9 12  1  0
 12 13  1  0
 12 14  1  0
 12 15  1  0
 15 16  2  0
 16 17  1  0
 17 18  1  0
 17 19  2  0
 19 20  1  0
 19 21  1  0
 21 22  1  0
 22 23  2  0
 23 24  1  0
 23 25  1  0
 25 26  1  0
 26 27  1  0
 26 28  1  0
 26 29  1  0
 25 30  2  0
 30 31  1  0
 30 32  1  0
 32 33  1  0
 32 34  2  0
  8 35  1  0
 35 36  1  0
 35 37  2  0
 37 38  1  0
 37  3  1  0
 34 16  1  0
 34 22  1  0
M  CHG  2  21  -1  38  -1
M  END
>  <UniqueID>  (8) 
8

>  <SMILES>  (8) 
Cc1ccc2/c(=N\CCc3ccc(O)c([O-])c3)cc[n-]c2c1

>  <Energy>  (8) 
58.22373444772889

>  <Genealogy>  (8) 
Cc1ccc2c(=NCCc3ccc(O)c([O-])c3)cc[n-]c2c1 (protonated)
Cc1ccc2/c(=N\CCc3ccc(O)c([O-])c3)cc[n-]c2c1 (cis-trans isomerization)
Cc1ccc2/c(=N\CCc3ccc(O)c([O-])c3)cc[n-]c2c1 (3D coordinates assigned)
Cc1ccc2/c(=N\CCc3ccc(O)c([O-])c3)cc[n-]c2c1 (optimized conformer: 58.22373444772889 kcal/mol)

>  <smiles>  (8) 
Cc1ccc2c(=NCCc3ccc(O)c(O)c3)cc[nH]c2c1

>  <score_type>  (8) 
oracle

>  <origin>  (8) 
adg

>  <m_score__min__energy>  (8) 
-12.390000000000001

>  <m_primary>  (8) 
energy

$$$$
8:0
     RDKit          3D

 39 41  0  0  0  0  0  0  0  0999 V2000
   55.2600   28.7500   45.6390 H   0  0  0  0  0  0  0  0  0  0  0  0
   55.1530   29.5060   44.9260 N   0  0  0  0  0  0  0  0  0  0  0  0
   56.7050   29.7390   44.2000 S   0  0  0  0  0  0  0  0  0  0  0  0
   57.5190   28.4840   44.3340 O   0  0  0  0  0  0  0  0  0  0  0  0
   56.5150   30.0580   42.7440 O   0  0  0  0  0  0  0  0  0  0  0  0
   57.5360   31.0630   45.0080 C   0  0  0  0  0  0  0  0  0  0  0  0
   56.8910   32.2970   45.1620 C   0  0  0  0  0  0  0  0  0  0  0  0
   55.8724   32.4357   44.7706 H   0  0  0  0  0  0  0  0  0  0  0  0
   57.5370   33.3520   45.8110 C   0  0  0  0  0  0  0  0  0  0  0  0
   57.0281   34.3205   45.9253 H   0  0  0  0  0  0  0  0  0  0  0  0
   58.8280   33.1790   46.3150 C   0  0  0  0  0  0  0  0  0  0  0  0
   59.3343   34.0135   46.8222 H   0  0  0  0  0  0  0  0  0  0  0  0
   59.4820   31.9450   46.1770 C   0  0  0  0  0  0  0  0  0  0  0  0
   60.8680   31.7610   46.7370 C   0  0  0  0  0  0  0  0  0  0  0  0
   61.3978   30.9980   46.1479 H   0  0  0  0  0  0  0  0  0  0  0  0
   61.4026   32.7209   46.6841 H   0  0  0  0  0  0  0  0  0  0  0  0
   60.8050   31.3320   48.1340 N   0  0  0  0  0  0  0  0  0  0  0  0
   60.6050   30.1090   48.5290 C   0  0  0  0  0  0  0  0  0  0  0  0
   59.8790   29.2330   47.7790 N   0  0  0  0  0  0  0  0  0  0  0  0
   59.6730   27.9460   48.1740 C   0  0  0  0  0  0  0  0  0  0  0  0
   58.8860   27.0280   47.3130 C   0  0  0  0  0  0  0  0  0  0  0  0
   59.4760   25.8940   46.7240 C   0  0  0  0  0  0  0  0  0  0  0  0
   60.5369   25.6714   46.9107 H   0  0  0  0  0  0  0  0  0  0  0  0
   58.7240   25.0490   45.9040 C   0  0  0  0  0  0  0  0  0  0  0  0
   59.1946   24.1632   45.4524 H   0  0  0  0  0  0  0  0  0  0  0  0
   57.3770   25.3240   45.6550 C   0  0  0  0  0  0  0  0  0  0  0  0
   56.6440   24.4730   44.8370 O   0  0  0  0  0  0  0  0  0  0  0  0
   56.7760   26.4560   46.2280 C   0  0  0  0  0  0  0  0  0  0  0  0
   55.4350   26.7540   45.9940 O   0  0  0  0  0  0  0  0  0  0  0  0
   55.1490   27.4800   45.3480 H   0  0  0  0  0  0  0  0  0  0  0  0
   57.5300   27.3010   47.0510 C   0  0  0  0  0  0  0  0  0  0  0  0
   57.0576   28.1882   47.4979 H   0  0  0  0  0  0  0  0  0  0  0  0
   60.2170   27.5250   49.4000 C   0  0  0  0  0  0  0  0  0  0  0  0
   60.0599   26.4941   49.7501 H   0  0  0  0  0  0  0  0  0  0  0  0
   60.9380   28.3990   50.1500 N   0  0  0  0  0  0  0  0  0  0  0  0
   61.1480   29.6760   49.7410 C   0  0  0  0  0  0  0  0  0  0  0  0
   61.7416   30.3652   50.3596 H   0  0  0  0  0  0  0  0  0  0  0  0
   58.8310   30.8890   45.5170 C   0  0  0  0  0  0  0  0  0  0  0  0
   59.3398   29.9209   45.3990 H   0  0  0  0  0  0  0  0  0  0  0  0
  1  2  1  0
  2  3  1  0
  3  4  2  0
  3  5  2  0
  3  6  1  0
  6  7  2  0
  7  8  1  0
  7  9  1  0
  9 10  1  0
  9 11  2  0
 11 12  1  0
 11 13  1  0
 13 14  1  0
 14 15  1  0
 14 16  1  0
 14 17  1  0
 17 18  2  0
 18 19  1  0
 19 20  1  0
 20 21  1  0
 21 22  2  0
 22 23  1  0
 22 24  1  0
 24 25  1  0
 24 26  2  0
 26 27  1  0
 26 28  1  0
 28 29  1  0
 29 30  1  0
 28 31  2  0
 31 32  1  0
 20 33  2  0
 33 34  1  0
 33 35  1  0
 35 36  2  0
 36 37  1  0
 13 38  2  0
 38 39  1  0
 38  6  1  0
 36 18  1  0
 31 21  1  0
M  CHG  3   2  -1  19  -1  27  -1
M  END
>  <UniqueID>  (9) 
9

>  <SMILES>  (9) 
[NH-]S(=O)(=O)c1cccc(C/N=c2/cncc(-c3ccc([O-])c(O)c3)[n-]2)c1

>  <Energy>  (9) 
44.53889398862526

>  <Genealogy>  (9) 
[NH-]S(=O)(=O)c1cccc(CN=c2cncc(-c3ccc([O-])c(O)c3)[n-]2)c1 (protonated)
[NH-]S(=O)(=O)c1cccc(C/N=c2/cncc(-c3ccc([O-])c(O)c3)[n-]2)c1 (cis-trans isomerization)
[NH-]S(=O)(=O)c1cccc(C/N=c2/cncc(-c3ccc([O-])c(O)c3)[n-]2)c1 (3D coordinates assigned)
[NH-]S(=O)(=O)c1cccc(C/N=c2/cncc(-c3ccc([O-])c(O)c3)[n-]2)c1 (optimized conformer: 44.53889398862526 kcal/mol)

>  <smiles>  (9) 
NS(=O)(=O)c1cccc(CN=c2cncc(-c3ccc(O)c(O)c3)[nH]2)c1

>  <score_type>  (9) 
oracle

>  <origin>  (9) 
adg

>  <m_score__min__energy>  (9) 
-14.31

>  <m_primary>  (9) 
energy

$$$$
9:0
     RDKit          3D

 46 48  0  0  0  0  0  0  0  0999 V2000
   58.7620   30.5080   53.1100 H   0  0  0  0  0  0  0  0  0  0  0  0
   59.6760   30.7310   52.7360 O   0  0  0  0  0  0  0  0  0  0  0  0
   59.9830   30.5690   51.3850 C   0  0  0  0  0  0  0  0  0  0  0  0
   61.2680   30.8860   50.9360 C   0  0  0  0  0  0  0  0  0  0  0  0
   62.0208   31.2561   51.6476 H   0  0  0  0  0  0  0  0  0  0  0  0
   61.6010   30.7350   49.5870 C   0  0  0  0  0  0  0  0  0  0  0  0
   62.6184   30.9780   49.2465 H   0  0  0  0  0  0  0  0  0  0  0  0
   60.6490   30.2760   48.6620 C   0  0  0  0  0  0  0  0  0  0  0  0
   61.0550   30.1230   47.2430 C   0  0  0  0  0  0  0  0  0  0  0  0
   61.7873   30.8341   46.8330 H   0  0  0  0  0  0  0  0  0  0  0  0
   60.5790   29.1660   46.4320 C   0  0  0  0  0  0  0  0  0  0  0  0
   61.2686   28.3946   46.0586 H   0  0  0  0  0  0  0  0  0  0  0  0
   59.1590   29.1130   46.0230 C   0  0  0  0  0  0  0  0  0  0  0  0
   58.5730   30.1740   45.4030 N   0  0  0  0  0  0  0  0  0  0  0  0
   57.2690   30.1680   45.0080 C   0  0  0  0  0  0  0  0  0  0  0  0
   56.6890   31.3510   44.3350 C   0  0  0  0  0  0  0  0  0  0  0  0
   55.6296   31.3269   44.0399 H   0  0  0  0  0  0  0  0  0  0  0  0
   57.4080   32.4510   44.0720 C   0  0  0  0  0  0  0  0  0  0  0  0
   57.9313   32.5186   43.1068 H   0  0  0  0  0  0  0  0  0  0  0  0
   57.5290   33.5770   45.0210 C   0  0  0  0  0  0  0  0  0  0  0  0
   56.7010   34.5220   44.9280 O   0  0  0  0  0  0  0  0  0  0  0  0
   58.5620   33.6330   46.0830 C   0  0  0  0  0  0  0  0  0  0  0  0
   58.2530   33.3070   47.4150 C   0  0  0  0  0  0  0  0  0  0  0  0
   57.2328   32.9898   47.6770 H   0  0  0  0  0  0  0  0  0  0  0  0
   59.2330   33.3830   48.4090 C   0  0  0  0  0  0  0  0  0  0  0  0
   58.9819   33.1162   49.4462 H   0  0  0  0  0  0  0  0  0  0  0  0
   60.5390   33.7990   48.0900 C   0  0  0  0  0  0  0  0  0  0  0  0
   61.5570   33.8890   49.0510 O   0  0  0  0  0  0  0  0  0  0  0  0
   62.9450   33.7410   48.7670 C   0  0  0  0  0  0  0  0  0  0  0  0
   63.5079   33.6810   49.7102 H   0  0  0  0  0  0  0  0  0  0  0  0
   63.1043   32.8208   48.1858 H   0  0  0  0  0  0  0  0  0  0  0  0
   63.2947   34.6069   48.1858 H   0  0  0  0  0  0  0  0  0  0  0  0
   60.8410   34.1410   46.7680 C   0  0  0  0  0  0  0  0  0  0  0  0
   61.8574   34.4728   46.5095 H   0  0  0  0  0  0  0  0  0  0  0  0
   59.8630   34.0650   45.7720 C   0  0  0  0  0  0  0  0  0  0  0  0
   60.1132   34.3451   44.7381 H   0  0  0  0  0  0  0  0  0  0  0  0
   56.4870   29.0230   45.2460 C   0  0  0  0  0  0  0  0  0  0  0  0
   55.1520   28.9690   44.8580 O   0  0  0  0  0  0  0  0  0  0  0  0
   57.0640   27.9200   45.8800 C   0  0  0  0  0  0  0  0  0  0  0  0
   56.4625   27.0189   46.0703 H   0  0  0  0  0  0  0  0  0  0  0  0
   58.4020   27.9600   46.2720 C   0  0  0  0  0  0  0  0  0  0  0  0
   58.8593   27.0937   46.7725 H   0  0  0  0  0  0  0  0  0  0  0  0
   59.3590   29.9430   49.1230 C   0  0  0  0  0  0  0  0  0  0  0  0
   58.6077   29.5625   48.4153 H   0  0  0  0  0  0  0  0  0  0  0  0
   59.0270   30.0930   50.4750 C   0  0  0  0  0  0  0  0  0  0  0  0
   57.7480   29.7600   50.9050 O   0  0  0  0  0  0  0  0  0  0  0  0
  1  2  1  0
  2  3  1  0
  3  4  2  0
  4  5  1  0
  4  6  1  0
  6  7  1  0
  6  8  2  0
  8  9  1  0
  9 10  1  0
  9 11  2  0
 11 12  1  0
 11 13  1  0
 13 14  2  0
 14 15  1  0
 15 16  1  0
 16 17  1  0
 16 18  2  0
 18 19  1  0
 18 20  1  0
 20 21  2  0
 20 22  1  0
 22 23  2  0
 23 24  1  0
 23 25  1  0
 25 26  1  0
 25 27  2  0
 27 28  1  0
 28 29  1  0
 29 30  1  0
 29 31  1  0
 29 32  1  0
 27 33  1  0
 33 34  1  0
 33 35  2  0
 35 36  1  0
 15 37  2  0
 37 38  1  0
 37 39  1  0
 39 40  1  0
 39 41  2  0
 41 42  1  0
  8 43  1  0
 43 44  1  0
 43 45  2  0
 45 46  1  0
 45  3  1  0
 41 13  1  0
 35 22  1  0
M  CHG  2  38  -1  46  -1
M  END
>  <UniqueID>  (10) 
10

>  <SMILES>  (10) 
COc1ccc(C(=O)/C=C/c2nc(/C=C/c3ccc(O)c([O-])c3)ccc2[O-])cc1

>  <Energy>  (10) 
56.0009166683312

>  <Genealogy>  (10) 
COc1ccc(C(=O)C=Cc2nc(C=Cc3ccc(O)c([O-])c3)ccc2[O-])cc1 (protonated)
COc1ccc(C(=O)/C=C/c2nc(/C=C/c3ccc(O)c([O-])c3)ccc2[O-])cc1 (cis-trans isomerization)
COc1ccc(C(=O)/C=C/c2nc(/C=C/c3ccc(O)c([O-])c3)ccc2[O-])cc1 (3D coordinates assigned)
COc1ccc(C(=O)/C=C/c2nc(/C=C/c3ccc(O)c([O-])c3)ccc2[O-])cc1 (optimized conformer: 56.0009166683312 kcal/mol)

>  <smiles>  (10) 
COc1ccc(C(=O)C=Cc2nc(C=Cc3ccc(O)c(O)c3)ccc2O)cc1

>  <score_type>  (10) 
oracle

>  <origin>  (10) 
adg

>  <m_score__min__energy>  (10) 
-13.77

>  <m_primary>  (10) 
energy

$$$$
10:0
     RDKit          3D

 43 45  0  0  1  0  0  0  0  0999 V2000
   65.5870   32.7900   49.7860 C   0  0  0  0  0  0  0  0  0  0  0  0
   64.1940   32.5450   49.7320 O   0  0  0  0  0  0  0  0  0  0  0  0
   63.4660   32.9640   48.6280 C   0  0  0  0  0  0  0  0  0  0  0  0
   62.0780   32.9290   48.6170 C   0  0  0  0  0  0  0  0  0  0  0  0
   61.3500   33.3510   47.5100 C   0  0  0  0  0  0  0  0  0  0  0  0
   60.0710   33.3300   47.4720 N   0  0  0  0  0  0  0  0  0  0  0  0
   59.1390   33.9720   46.2160 S   0  0  0  0  0  0  0  0  0  0  0  0
   57.9380   34.5780   46.9510 O   0  0  0  0  0  0  0  0  0  0  0  0
   59.6950   35.1660   45.5110 O   0  0  0  0  0  0  0  0  0  0  0  0
   58.4490   32.7910   45.1410 C   0  0  0  0  0  0  0  0  0  0  0  0
   58.4250   32.9780   43.7610 C   0  0  0  0  0  0  0  0  0  0  0  0
   57.8790   32.0450   42.9030 C   0  0  0  0  0  0  0  0  0  0  0  0
   57.3280   30.8720   43.3850 C   0  0  0  0  0  0  0  0  0  0  0  0
   57.3470   30.6730   44.7660 C   0  0  0  0  0  0  0  0  0  0  0  0
   56.7520   29.4090   45.2210 C   0  0  0  0  0  0  0  0  0  0  0  0
   55.6140   29.0400   44.7900 O   0  0  0  0  0  0  0  0  0  0  0  0
   57.5110   28.6510   46.1470 N   0  0  0  0  0  0  0  0  0  0  0  0
   57.7770   27.3990   46.0590 C   0  0  0  0  0  0  0  0  0  0  0  0
   59.0720   27.0270   46.0410 N   0  0  0  0  0  0  0  0  0  0  0  0
   59.3410   25.7200   45.9510 C   0  0  0  0  0  0  0  0  0  0  0  0
   58.3790   24.7370   45.8750 C   0  0  0  0  0  0  0  0  0  0  0  0
   57.0560   25.1710   45.8970 C   0  0  0  0  0  0  0  0  0  0  0  0
   56.7410   26.5200   45.9900 C   0  0  0  0  0  0  0  0  0  0  0  0
   55.4240   26.8940   46.0070 O   0  0  0  0  0  0  0  0  0  0  0  0
   57.8890   31.6010   45.6240 C   0  0  0  0  0  0  0  0  0  0  0  0
   62.0530   33.7920   46.4530 N   0  0  0  0  0  0  0  0  0  0  0  0
   63.3970   33.8370   46.4340 C   0  0  0  0  0  0  0  0  0  0  0  0
   64.0960   33.4240   47.5200 N   0  0  0  0  0  0  0  0  0  0  0  0
   65.9089   32.8466   50.8363 H   0  0  0  0  0  0  0  0  0  0  0  0
   66.1229   31.9723   49.2818 H   0  0  0  0  0  0  0  0  0  0  0  0
   65.8118   33.7415   49.2818 H   0  0  0  0  0  0  0  0  0  0  0  0
   61.5424   32.5592   49.5038 H   0  0  0  0  0  0  0  0  0  0  0  0
   58.8552   33.8993   43.3413 H   0  0  0  0  0  0  0  0  0  0  0  0
   57.8822   32.2373   41.8200 H   0  0  0  0  0  0  0  0  0  0  0  0
   56.8916   30.1246   42.7061 H   0  0  0  0  0  0  0  0  0  0  0  0
   59.8440   27.7390   46.0950 H   0  0  0  0  0  0  0  0  0  0  0  0
   60.3965   25.4106   45.9368 H   0  0  0  0  0  0  0  0  0  0  0  0
   58.6407   23.6711   45.8012 H   0  0  0  0  0  0  0  0  0  0  0  0
   56.2446   24.4305   45.8396 H   0  0  0  0  0  0  0  0  0  0  0  0
   55.1350   27.8790   45.9830 H   0  0  0  0  0  0  0  0  0  0  0  0
   57.8828   31.4059   46.7066 H   0  0  0  0  0  0  0  0  0  0  0  0
   61.5320   34.1140   45.6100 H   0  0  0  0  0  0  0  0  0  0  0  0
   63.9259   34.2065   45.5431 H   0  0  0  0  0  0  0  0  0  0  0  0
  1  2  1  0
  2  3  1  0
  3  4  2  0
  4  5  1  0
  5  6  2  0
  6  7  1  0
  7  8  2  0
  7  9  2  0
  7 10  1  0
 10 11  2  0
 11 12  1  0
 12 13  2  0
 13 14  1  0
 14 15  1  0
 15 16  2  0
 15 17  1  0
 17 18  2  0
 18 19  1  0
 19 20  1  0
 20 21  2  0
 21 22  1  0
 22 23  2  0
 23 24  1  0
 14 25  2  0
  5 26  1  0
 26 27  1  0
 27 28  2  0
 28  3  1  0
 25 10  1  0
 23 18  1  0
  1 29  1  0
  1 30  1  0
  1 31  1  0
  4 32  1  0
 11 33  1  0
 12 34  1  0
 13 35  1  0
 19 36  1  0
 20 37  1  0
 21 38  1  0
 22 39  1  0
 24 40  1  0
 25 41  1  0
 26 42  1  0
 27 43  1  0
M  END
>  <smiles>  (11) 
COc1cc(=NS(=O)(=O)c2cccc(C(=O)N=c3[nH]cccc3O)c2)[nH]cn1

>  <score_type>  (11) 
oracle

>  <origin>  (11) 
adg

>  <m_score__min__energy>  (11) 
-9.6199999999999992

>  <m_primary>  (11) 
energy

$$$$
11:0
     RDKit          3D

 56 59  0  0  0  0  0  0  0  0999 V2000
   57.0670   30.4640   43.5590 C   0  0  0  0  0  0  0  0  0  0  0  0
   57.7850   31.5770   44.2880 C   0  0  0  0  0  0  0  0  0  0  0  0
   57.9880   32.7700   43.5820 C   0  0  0  0  0  0  0  0  0  0  0  0
   58.6370   33.8430   44.1710 C   0  0  0  0  0  0  0  0  0  0  0  0
   59.0950   33.7540   45.4780 C   0  0  0  0  0  0  0  0  0  0  0  0
   58.9190   32.5750   46.2420 C   0  0  0  0  0  0  0  0  0  0  0  0
   58.2630   31.4630   45.6370 C   0  0  0  0  0  0  0  0  0  0  0  0
   58.1250   30.2860   46.4100 C   0  0  0  0  0  0  0  0  0  0  0  0
   57.5530   29.2710   45.9280 O   0  0  0  0  0  0  0  0  0  0  0  0
   58.6180   30.2270   47.6850 N   0  0  0  0  0  0  0  0  0  0  0  0
   58.5340   28.9540   48.4380 C   0  0  0  0  0  0  0  0  0  0  0  0
   59.1560   27.8350   47.6400 C   0  0  0  0  0  0  0  0  0  0  0  0
   60.5530   27.7150   47.5640 C   0  0  0  0  0  0  0  0  0  0  0  0
   61.1310   26.7100   46.7850 C   0  0  0  0  0  0  0  0  0  0  0  0
   60.3210   25.8220   46.0710 C   0  0  0  0  0  0  0  0  0  0  0  0
   58.9250   25.9250   46.1320 C   0  0  0  0  0  0  0  0  0  0  0  0
   58.1590   25.0100   45.3920 O   0  0  0  0  0  0  0  0  0  0  0  0
   56.8380   25.2430   44.8950 C   0  0  1  0  0  0  0  0  0  0  0  0
   56.3550   23.9950   44.1610 C   0  0  0  0  0  0  0  0  0  0  0  0
   55.9030   25.5600   46.0290 C   0  0  0  0  0  0  0  0  0  0  0  0
   55.8550   24.8070   47.0380 O   0  0  0  0  0  0  0  0  0  0  0  0
   55.1220   26.7090   45.9890 O   0  0  0  0  0  0  0  0  0  0  0  0
   58.3460   26.9380   46.9220 C   0  0  0  0  0  0  0  0  0  0  0  0
   59.2340   31.3140   48.2440 C   0  0  0  0  0  0  0  0  0  0  0  0
   59.6860   31.2300   49.4230 O   0  0  0  0  0  0  0  0  0  0  0  0
   59.3780   32.4860   47.5430 N   0  0  0  0  0  0  0  0  0  0  0  0
   60.0550   33.6340   48.2030 C   0  0  0  0  0  0  0  0  0  0  0  0
   61.5450   33.4010   48.3270 C   0  0  0  0  0  0  0  0  0  0  0  0
   62.1170   33.1240   49.5840 C   0  0  0  0  0  0  0  0  0  0  0  0
   63.4960   32.9280   49.7050 C   0  0  0  0  0  0  0  0  0  0  0  0
   64.3200   33.0200   48.5790 C   0  0  0  0  0  0  0  0  0  0  0  0
   63.7660   33.3190   47.3310 C   0  0  0  0  0  0  0  0  0  0  0  0
   62.3880   33.5180   47.2010 C   0  0  0  0  0  0  0  0  0  0  0  0
   61.8810   33.8270   45.9800 F   0  0  0  0  0  0  0  0  0  0  0  0
   56.6218   29.7739   44.2908 H   0  0  0  0  0  0  0  0  0  0  0  0
   56.2737   30.8911   42.9279 H   0  0  0  0  0  0  0  0  0  0  0  0
   57.7831   29.9173   42.9279 H   0  0  0  0  0  0  0  0  0  0  0  0
   57.6273   32.8559   42.5464 H   0  0  0  0  0  0  0  0  0  0  0  0
   58.7901   34.7704   43.5996 H   0  0  0  0  0  0  0  0  0  0  0  0
   59.6054   34.6174   45.9298 H   0  0  0  0  0  0  0  0  0  0  0  0
   59.0695   29.0606   49.3929 H   0  0  0  0  0  0  0  0  0  0  0  0
   57.4763   28.7167   48.6252 H   0  0  0  0  0  0  0  0  0  0  0  0
   61.1943   28.4148   48.1198 H   0  0  0  0  0  0  0  0  0  0  0  0
   62.2258   26.6170   46.7332 H   0  0  0  0  0  0  0  0  0  0  0  0
   60.7835   25.0358   45.4562 H   0  0  0  0  0  0  0  0  0  0  0  0
   56.8545   26.0992   44.2046 H   0  0  0  0  0  0  0  0  0  0  0  0
   56.0590   23.2301   44.8940 H   0  0  0  0  0  0  0  0  0  0  0  0
   55.4914   24.2519   43.5300 H   0  0  0  0  0  0  0  0  0  0  0  0
   57.1666   23.6036   43.5300 H   0  0  0  0  0  0  0  0  0  0  0  0
   57.2511   27.0277   46.9774 H   0  0  0  0  0  0  0  0  0  0  0  0
   59.8834   34.5418   47.6059 H   0  0  0  0  0  0  0  0  0  0  0  0
   59.6374   33.7465   49.2144 H   0  0  0  0  0  0  0  0  0  0  0  0
   61.4753   33.0615   50.4752 H   0  0  0  0  0  0  0  0  0  0  0  0
   63.9338   32.7009   50.6882 H   0  0  0  0  0  0  0  0  0  0  0  0
   65.4036   32.8572   48.6753 H   0  0  0  0  0  0  0  0  0  0  0  0
   64.4166   33.3981   46.4476 H   0  0  0  0  0  0  0  0  0  0  0  0
  1  2  1  0
  2  3  2  0
  3  4  1  0
  4  5  2  0
  5  6  1  0
  6  7  2  0
  7  8  1  0
  8  9  2  0
  8 10  1  0
 10 11  1  0
 11 12  1  0
 12 13  2  0
 13 14  1  0
 14 15  2  0
 15 16  1  0
 16 17  1  0
 17 18  1  0
 18 19  1  0
 18 20  1  0
 20 21  2  0
 20 22  1  0
 16 23  2  0
 10 24  1  0
 24 25  2  0
 24 26  1  0
 26 27  1  0
 27 28  1  0
 28 29  2  0
 29 30  1  0
 30 31  2  0
 31 32  1  0
 32 33  2  0
 33 34  1  0
  7  2  1  0
 23 12  1  0
 33 28  1  0
 26  6  1  0
  1 35  1  0
  1 36  1  0
  1 37  1  0
  3 38  1  0
  4 39  1  0
  5 40  1  0
 11 41  1  0
 11 42  1  0
 13 43  1  0
 14 44  1  0
 15 45  1  0
 18 46  1  6
 19 47  1  0
 19 48  1  0
 19 49  1  0
 23 50  1  0
 27 51  1  0
 27 52  1  0
 29 53  1  0
 30 54  1  0
 31 55  1  0
 32 56  1  0
M  CHG  1  22  -1
M  END
>  <UniqueID>  (12) 
11

>  <SMILES>  (12) 
Cc1cccc2c1c(=O)n(Cc1cccc(O[C@@H](C)C(=O)[O-])c1)c(=O)n2Cc1ccccc1F

>  <Energy>  (12) 
77.88033328624202

>  <Genealogy>  (12) 
Cc1cccc2c1c(=O)n(Cc1cccc(OC(C)C(=O)[O-])c1)c(=O)n2Cc1ccccc1F (protonated)
Cc1cccc2c1c(=O)n(Cc1cccc(O[C@@H](C)C(=O)[O-])c1)c(=O)n2Cc1ccccc1F (chirality)
Cc1cccc2c1c(=O)n(Cc1cccc(O[C@@H](C)C(=O)[O-])c1)c(=O)n2Cc1ccccc1F (3D coordinates assigned)
Cc1cccc2c1c(=O)n(Cc1cccc(O[C@@H](C)C(=O)[O-])c1)c(=O)n2Cc1ccccc1F (optimized conformer: 77.88033328624202 kcal/mol)

>  <smiles>  (12) 
Cc1cccc2c1c(=O)n(Cc1cccc(OC(C)C(=O)O)c1)c(=O)n2Cc1ccccc1F

>  <score_type>  (12) 
oracle

>  <origin>  (12) 
adg

>  <m_score__min__energy>  (12) 
-12.33

>  <m_primary>  (12) 
energy

$$$$
12:0
     RDKit          3D

 47 49  0  0  0  0  0  0  0  0999 V2000
   57.6320   32.0570   42.2120 C   0  0  0  0  0  0  0  0  0  0  0  0
   57.8880   32.3900   43.6120 N   0  0  0  0  0  0  0  0  0  0  0  0
   58.8890   33.1810   43.9640 N   0  0  0  0  0  0  0  0  0  0  0  0
   58.9350   33.2270   45.3100 C   0  0  0  0  0  0  0  0  0  0  0  0
   59.9400   33.9800   46.0750 C   0  0  0  0  0  0  0  0  0  0  0  0
   59.7020   35.1710   46.4120 O   0  0  0  0  0  0  0  0  0  0  0  0
   61.1790   33.3600   46.4480 N   0  0  0  0  0  0  0  0  0  0  0  0
   62.1080   33.9670   47.4010 C   0  0  0  0  0  0  0  0  0  0  0  0
   62.2430   33.1090   48.6660 C   0  0  0  0  0  0  0  0  0  0  0  0
   60.9670   32.3630   48.9640 C   0  0  0  0  0  0  0  0  0  0  0  0
   59.7890   33.0640   49.2600 C   0  0  0  0  0  0  0  0  0  0  0  0
   58.6280   32.3540   49.5730 C   0  0  0  0  0  0  0  0  0  0  0  0
   58.6440   30.9950   49.6000 N   0  0  0  0  0  0  0  0  0  0  0  0
   59.7740   30.2910   49.3270 C   0  0  0  0  0  0  0  0  0  0  0  0
   60.9570   30.9610   49.0060 C   0  0  0  0  0  0  0  0  0  0  0  0
   57.9380   32.4320   45.8430 C   0  0  0  0  0  0  0  0  0  0  0  0
   57.2840   31.9320   44.7390 C   0  0  0  0  0  0  0  0  0  0  0  0
   56.2830   31.0990   44.8240 N   0  0  0  0  0  0  0  0  0  0  0  0
   56.2050   29.7490   44.3570 C   0  0  0  0  0  0  0  0  0  0  0  0
   55.1420   29.0860   44.4900 O   0  0  0  0  0  0  0  0  0  0  0  0
   57.4270   29.0920   43.7980 C   0  0  0  0  0  0  0  0  0  0  0  0
   58.4260   28.8410   44.9010 C   0  0  0  0  0  0  0  0  0  0  0  0
   59.6200   29.5830   44.9220 C   0  0  0  0  0  0  0  0  0  0  0  0
   60.5860   29.3450   45.9030 C   0  0  0  0  0  0  0  0  0  0  0  0
   60.3750   28.3580   46.8670 C   0  0  0  0  0  0  0  0  0  0  0  0
   59.2000   27.6020   46.8510 C   0  0  0  0  0  0  0  0  0  0  0  0
   59.0180   26.6380   47.7870 F   0  0  0  0  0  0  0  0  0  0  0  0
   58.2240   27.8320   45.8700 C   0  0  0  0  0  0  0  0  0  0  0  0
   56.7770   26.8270   45.8690 Cl  0  0  0  0  0  0  0  0  0  0  0  0
   56.9624   31.1859   42.1588 H   0  0  0  0  0  0  0  0  0  0  0  0
   57.1584   32.9146   41.7118 H   0  0  0  0  0  0  0  0  0  0  0  0
   58.5825   31.8198   41.7118 H   0  0  0  0  0  0  0  0  0  0  0  0
   61.4310   32.4320   46.0380 H   0  0  0  0  0  0  0  0  0  0  0  0
   63.0956   34.0652   46.9267 H   0  0  0  0  0  0  0  0  0  0  0  0
   61.7168   34.9539   47.6891 H   0  0  0  0  0  0  0  0  0  0  0  0
   63.0564   32.3829   48.5207 H   0  0  0  0  0  0  0  0  0  0  0  0
   62.4607   33.7748   49.5141 H   0  0  0  0  0  0  0  0  0  0  0  0
   59.7796   34.1639   49.2457 H   0  0  0  0  0  0  0  0  0  0  0  0
   57.6977   32.8960   49.7984 H   0  0  0  0  0  0  0  0  0  0  0  0
   59.7570   29.1916   49.3589 H   0  0  0  0  0  0  0  0  0  0  0  0
   61.8737   30.3935   48.7878 H   0  0  0  0  0  0  0  0  0  0  0  0
   57.7178   32.2424   46.9039 H   0  0  0  0  0  0  0  0  0  0  0  0
   57.1467   28.1343   43.3351 H   0  0  0  0  0  0  0  0  0  0  0  0
   57.8795   29.7519   43.0431 H   0  0  0  0  0  0  0  0  0  0  0  0
   59.7950   30.3569   44.1602 H   0  0  0  0  0  0  0  0  0  0  0  0
   61.5136   29.9360   45.9156 H   0  0  0  0  0  0  0  0  0  0  0  0
   61.1351   28.1749   47.6408 H   0  0  0  0  0  0  0  0  0  0  0  0
  1  2  1  0
  2  3  1  0
  3  4  1  0
  4  5  1  0
  5  6  2  0
  5  7  1  0
  7  8  1  0
  8  9  1  0
  9 10  1  0
 10 11  2  0
 11 12  1  0
 12 13  2  0
 13 14  1  0
 14 15  2  0
  4 16  2  0
 16 17  1  0
 17 18  2  3
 18 19  1  0
 19 20  2  0
 19 21  1  0
 21 22  1  0
 22 23  2  0
 23 24  1  0
 24 25  2  0
 25 26  1  0
 26 27  1  0
 26 28  2  0
 28 29  1  0
 17  2  1  0
 28 22  1  0
 15 10  1  0
  1 30  1  0
  1 31  1  0
  1 32  1  0
  7 33  1  0
  8 34  1  0
  8 35  1  0
  9 36  1  0
  9 37  1  0
 11 38  1  0
 12 39  1  0
 14 40  1  0
 15 41  1  0
 16 42  1  0
 21 43  1  0
 21 44  1  0
 23 45  1  0
 24 46  1  0
 25 47  1  0
M  CHG  1   3  -1
M  END
>  <UniqueID>  (13) 
12

>  <SMILES>  (13) 
Cn1[n-]c(C(=O)NCCc2ccncc2)cc1=NC(=O)Cc1cccc(F)c1Cl

>  <Energy>  (13) 
84.46245569475157

>  <Genealogy>  (13) 
Cn1[n-]c(C(=O)NCCc2ccncc2)cc1=NC(=O)Cc1cccc(F)c1Cl (protonated)
Cn1[n-]c(C(=O)NCCc2ccncc2)cc1=NC(=O)Cc1cccc(F)c1Cl (3D coordinates assigned)
Cn1[n-]c(C(=O)NCCc2ccncc2)cc1=NC(=O)Cc1cccc(F)c1Cl (optimized conformer: 84.46245569475157 kcal/mol)

>  <smiles>  (13) 
Cn1[nH]c(C(=O)NCCc2ccncc2)cc1=NC(=O)Cc1cccc(F)c1Cl

>  <score_type>  (13) 
oracle

>  <origin>  (13) 
adg

>  <m_score__min__energy>  (13) 
-10.42

>  <m_primary>  (13) 
energy

$$$$
13:0
     RDKit          3D

 42 44  0  0  0  0  0  0  0  0999 V2000
   58.3760   24.9130   45.7580 O   0  0  0  0  0  0  0  0  0  0  0  0
   57.4790   25.4710   45.0700 C   0  0  0  0  0  0  0  0  0  0  0  0
   56.6450   24.6490   44.1360 C   0  0  0  0  0  0  0  0  0  0  0  0
   55.4460   24.1690   44.8220 N   0  0  0  0  0  0  0  0  0  0  0  0
   54.5320   24.9010   45.4780 C   0  0  0  0  0  0  0  0  0  0  0  0
   54.6080   26.2740   45.6720 O   0  0  0  0  0  0  0  0  0  0  0  0
   53.5140   24.0810   45.9080 C   0  0  0  0  0  0  0  0  0  0  0  0
   53.7750   22.8160   45.5150 N   0  0  0  0  0  0  0  0  0  0  0  0
   54.9510   22.9150   44.8570 C   0  0  0  0  0  0  0  0  0  0  0  0
   55.5230   21.9260   44.3260 O   0  0  0  0  0  0  0  0  0  0  0  0
   57.2050   26.8720   45.2220 N   0  0  0  0  0  0  0  0  0  0  0  0
   58.0080   27.7620   46.0170 C   0  0  0  0  0  0  0  0  0  0  0  0
   59.1070   27.2710   46.7430 C   0  0  0  0  0  0  0  0  0  0  0  0
   59.9420   28.1460   47.4430 C   0  0  0  0  0  0  0  0  0  0  0  0
   59.6960   29.5190   47.4180 C   0  0  0  0  0  0  0  0  0  0  0  0
   58.6150   30.0230   46.6910 C   0  0  0  0  0  0  0  0  0  0  0  0
   57.7690   29.1540   45.9860 C   0  0  0  0  0  0  0  0  0  0  0  0
   56.6300   29.7120   45.2340 C   0  0  0  0  0  0  0  0  0  0  0  0
   55.6860   28.9510   44.8950 O   0  0  0  0  0  0  0  0  0  0  0  0
   56.5870   31.0900   44.8480 N   0  0  0  0  0  0  0  0  0  0  0  0
   57.6600   31.7930   44.1500 C   0  0  0  0  0  0  0  0  0  0  0  0
   58.2320   32.8800   45.0220 C   0  0  0  0  0  0  0  0  0  0  0  0
   57.8750   32.9550   46.3790 C   0  0  0  0  0  0  0  0  0  0  0  0
   58.3560   33.9980   47.1770 C   0  0  0  0  0  0  0  0  0  0  0  0
   59.1950   34.9710   46.6260 C   0  0  0  0  0  0  0  0  0  0  0  0
   59.5620   34.8970   45.2810 C   0  0  0  0  0  0  0  0  0  0  0  0
   59.0880   33.8530   44.4810 C   0  0  0  0  0  0  0  0  0  0  0  0
   56.3489   25.2656   43.2745 H   0  0  0  0  0  0  0  0  0  0  0  0
   57.2337   23.7851   43.7937 H   0  0  0  0  0  0  0  0  0  0  0  0
   52.6310   24.4037   46.4791 H   0  0  0  0  0  0  0  0  0  0  0  0
   56.3300   27.2460   44.7940 H   0  0  0  0  0  0  0  0  0  0  0  0
   59.3112   26.1903   46.7602 H   0  0  0  0  0  0  0  0  0  0  0  0
   60.7949   27.7514   48.0148 H   0  0  0  0  0  0  0  0  0  0  0  0
   60.3539   30.2053   47.9713 H   0  0  0  0  0  0  0  0  0  0  0  0
   58.4262   31.1065   46.6712 H   0  0  0  0  0  0  0  0  0  0  0  0
   58.4555   31.0775   43.8945 H   0  0  0  0  0  0  0  0  0  0  0  0
   57.2517   32.2480   43.2355 H   0  0  0  0  0  0  0  0  0  0  0  0
   57.2149   32.1907   46.8152 H   0  0  0  0  0  0  0  0  0  0  0  0
   58.0740   34.0527   48.2388 H   0  0  0  0  0  0  0  0  0  0  0  0
   59.5662   35.7954   47.2525 H   0  0  0  0  0  0  0  0  0  0  0  0
   60.2252   35.6614   44.8500 H   0  0  0  0  0  0  0  0  0  0  0  0
   59.3866   33.7935   43.4240 H   0  0  0  0  0  0  0  0  0  0  0  0
  1  2  2  0
  2  3  1  0
  3  4  1  0
  4  5  1  0
  5  6  1  0
  5  7  2  0
  7  8  1  0
  8  9  1  0
  9 10  2  0
  2 11  1  0
 11 12  1  0
 12 13  2  0
 13 14  1  0
 14 15  2  0
 15 16  1  0
 16 17  2  0
 17 18  1  0
 18 19  2  0
 18 20  1  0
 20 21  1  0
 21 22  1  0
 22 23  2  0
 23 24  1  0
 24 25  2  0
 25 26  1  0
 26 27  2  0
  9  4  1  0
 17 12  1  0
 27 22  1  0
  3 28  1  0
  3 29  1  0
  7 30  1  0
 11 31  1  0
 13 32  1  0
 14 33  1  0
 15 34  1  0
 16 35  1  0
 21 36  1  0
 21 37  1  0
 23 38  1  0
 24 39  1  0
 25 40  1  0
 26 41  1  0
 27 42  1  0
M  CHG  3   6  -1   8  -1  20  -1
M  END
>  <UniqueID>  (14) 
13

>  <SMILES>  (14) 
O=C(Cn1c([O-])c[n-]c1=O)Nc1ccccc1C(=O)[N-]Cc1ccccc1

>  <Energy>  (14) 
79.27856645106934

>  <Genealogy>  (14) 
O=C(Cn1c([O-])c[n-]c1=O)Nc1ccccc1C(=O)[N-]Cc1ccccc1 (protonated)
O=C(Cn1c([O-])c[n-]c1=O)Nc1ccccc1C(=O)[N-]Cc1ccccc1 (3D coordinates assigned)
O=C(Cn1c([O-])c[n-]c1=O)Nc1ccccc1C(=O)[N-]Cc1ccccc1 (optimized conformer: 79.27856645106934 kcal/mol)

>  <smiles>  (14) 
O=C(Cn1c(O)c[nH]c1=O)Nc1ccccc1C(=O)NCc1ccccc1

>  <score_type>  (14) 
oracle

>  <origin>  (14) 
adg

>  <m_score__min__energy>  (14) 
-15.699999999999999

>  <m_primary>  (14) 
energy

$$$$
14:0
     RDKit          3D

 63 64  0  0  0  0  0  0  0  0999 V2000
   59.6720   35.7570   45.9930 C   0  0  0  0  0  0  0  0  0  0  0  0
   59.5180   34.3520   45.3960 C   0  0  0  0  0  0  0  0  0  0  0  0
   59.0040   33.3540   46.3660 N   0  0  1  0  0  0  0  0  0  0  0  0
   59.3820   33.5780   47.7880 C   0  0  0  0  0  0  0  0  0  0  0  0
   60.5200   32.7270   48.3040 C   0  0  0  0  0  0  0  0  0  0  0  0
   61.5060   32.5130   47.5480 O   0  0  0  0  0  0  0  0  0  0  0  0
   60.5460   32.2920   49.6690 N   0  0  0  0  0  0  0  0  0  0  0  0
   59.4440   32.2280   50.5880 C   0  0  0  0  0  0  0  0  0  0  0  0
   59.1980   33.3410   51.4010 C   0  0  0  0  0  0  0  0  0  0  0  0
   58.1270   33.3460   52.2950 C   0  0  0  0  0  0  0  0  0  0  0  0
   57.2830   32.2380   52.3770 C   0  0  0  0  0  0  0  0  0  0  0  0
   57.4900   31.1210   51.5550 C   0  0  0  0  0  0  0  0  0  0  0  0
   56.6010   30.0400   51.6680 O   0  0  0  0  0  0  0  0  0  0  0  0
   55.3570   30.0840   52.3590 C   0  0  0  0  0  0  0  0  0  0  0  0
   58.5710   31.1220   50.6510 C   0  0  0  0  0  0  0  0  0  0  0  0
   57.5650   33.2160   46.2100 C   0  0  0  0  0  0  0  0  0  0  0  0
   56.8130   33.5140   47.1290 O   0  0  0  0  0  0  0  0  0  0  0  0
   56.9660   32.7550   44.9060 C   0  0  0  0  0  0  0  0  0  0  0  0
   58.2120   31.9360   43.8450 S   0  0  0  0  0  0  0  0  0  0  0  0
   58.5180   30.5620   44.9710 C   0  0  0  0  0  0  0  0  0  0  0  0
   59.6530   30.6060   45.7200 N   0  0  0  0  0  0  0  0  0  0  0  0
   59.9430   29.6650   46.6530 C   0  0  0  0  0  0  0  0  0  0  0  0
   61.0210   29.7340   47.3010 O   0  0  0  0  0  0  0  0  0  0  0  0
   59.0450   28.6230   46.8940 C   0  0  0  0  0  0  0  0  0  0  0  0
   57.8590   28.5380   46.1450 C   0  0  0  0  0  0  0  0  0  0  0  0
   56.9450   27.4930   46.3520 O   0  0  0  0  0  0  0  0  0  0  0  0
   57.0980   26.1630   45.8490 C   0  0  0  0  0  0  0  0  0  0  0  0
   56.7700   25.1510   46.9490 C   0  0  0  0  0  0  0  0  0  0  0  0
   55.4630   24.5020   46.6940 N   0  0  0  0  0  0  0  0  0  0  0  0
   54.9810   24.8290   45.3370 C   0  0  0  0  0  0  0  0  0  0  0  0
   55.5820   23.0410   46.8290 C   0  0  0  0  0  0  0  0  0  0  0  0
   57.6010   29.4950   45.1380 C   0  0  0  0  0  0  0  0  0  0  0  0
   56.3840   29.3840   44.2970 C   0  0  0  0  0  0  0  0  0  0  0  0
   56.4710   29.3840   43.0410 O   0  0  0  0  0  0  0  0  0  0  0  0
   55.1300   29.3020   44.8840 O   0  0  0  0  0  0  0  0  0  0  0  0
   59.6648   35.6916   47.0910 H   0  0  0  0  0  0  0  0  0  0  0  0
   60.6236   36.1955   45.6580 H   0  0  0  0  0  0  0  0  0  0  0  0
   58.8380   36.3912   45.6580 H   0  0  0  0  0  0  0  0  0  0  0  0
   58.8185   34.4076   44.5489 H   0  0  0  0  0  0  0  0  0  0  0  0
   60.5195   34.0187   45.0862 H   0  0  0  0  0  0  0  0  0  0  0  0
   59.4390   32.4380   46.1020 H   0  0  0  0  0  0  0  0  0  0  0  0
   59.6716   34.6334   47.8988 H   0  0  0  0  0  0  0  0  0  0  0  0
   58.5007   33.2935   48.3817 H   0  0  0  0  0  0  0  0  0  0  0  0
   59.8557   34.2202   51.3342 H   0  0  0  0  0  0  0  0  0  0  0  0
   57.9481   34.2228   52.9347 H   0  0  0  0  0  0  0  0  0  0  0  0
   56.4478   32.2407   53.0928 H   0  0  0  0  0  0  0  0  0  0  0  0
   55.5397   30.0775   53.4437 H   0  0  0  0  0  0  0  0  0  0  0  0
   54.8168   31.0018   52.0836 H   0  0  0  0  0  0  0  0  0  0  0  0
   54.7533   29.2066   52.0836 H   0  0  0  0  0  0  0  0  0  0  0  0
   58.7346   30.2567   49.9918 H   0  0  0  0  0  0  0  0  0  0  0  0
   56.1542   32.0435   45.1177 H   0  0  0  0  0  0  0  0  0  0  0  0
   56.5851   33.6375   44.3711 H   0  0  0  0  0  0  0  0  0  0  0  0
   59.2651   27.8719   47.6669 H   0  0  0  0  0  0  0  0  0  0  0  0
   56.4152   26.0131   44.9997 H   0  0  0  0  0  0  0  0  0  0  0  0
   58.1373   26.0169   45.5197 H   0  0  0  0  0  0  0  0  0  0  0  0
   57.5555   24.3814   46.9769 H   0  0  0  0  0  0  0  0  0  0  0  0
   56.7187   25.6808   47.9116 H   0  0  0  0  0  0  0  0  0  0  0  0
   54.0727   25.4452   45.4091 H   0  0  0  0  0  0  0  0  0  0  0  0
   55.7599   25.3859   44.7955 H   0  0  0  0  0  0  0  0  0  0  0  0
   54.7514   23.8994   44.7955 H   0  0  0  0  0  0  0  0  0  0  0  0
   55.6039   22.7719   47.8953 H   0  0  0  0  0  0  0  0  0  0  0  0
   54.7203   22.5568   46.3463 H   0  0  0  0  0  0  0  0  0  0  0  0
   56.5107   22.7026   46.3463 H   0  0  0  0  0  0  0  0  0  0  0  0
  1  2  1  0
  2  3  1  0
  3  4  1  0
  4  5  1  0
  5  6  2  0
  5  7  1  0
  7  8  1  0
  8  9  2  0
  9 10  1  0
 10 11  2  0
 11 12  1  0
 12 13  1  0
 13 14  1  0
 12 15  2  0
  3 16  1  0
 16 17  2  0
 16 18  1  0
 18 19  1  0
 19 20  1  0
 20 21  1  0
 21 22  1  0
 22 23  2  0
 22 24  1  0
 24 25  2  0
 25 26  1  0
 26 27  1  0
 27 28  1  0
 28 29  1  0
 29 30  1  0
 29 31  1  0
 25 32  1  0
 32 33  1  0
 33 34  2  0
 33 35  1  0
 15  8  1  0
 32 20  2  0
  1 36  1  0
  1 37  1  0
  1 38  1  0
  2 39  1  0
  2 40  1  0
  3 41  1  6
  4 42  1  0
  4 43  1  0
  9 44  1  0
 10 45  1  0
 11 46  1  0
 14 47  1  0
 14 48  1  0
 14 49  1  0
 15 50  1  0
 18 51  1  0
 18 52  1  0
 24 53  1  0
 27 54  1  0
 27 55  1  0
 28 56  1  0
 28 57  1  0
 30 58  1  0
 30 59  1  0
 30 60  1  0
 31 61  1  0
 31 62  1  0
 31 63  1  0
M  CHG  4   3   1   7  -1  21  -1  35  -1
M  END
>  <UniqueID>  (15) 
14

>  <SMILES>  (15) 
CC[N@@H+](CC(=O)[N-]c1cccc(OC)c1)C(=O)CSc1[n-]c(=O)cc(OCCN(C)C)c1C(=O)[O-]

>  <Energy>  (15) 
72.93436543672343

>  <Genealogy>  (15) 
CC[NH+](CC(=O)[N-]c1cccc(OC)c1)C(=O)CSc1[n-]c(=O)cc(OCCN(C)C)c1C(=O)[O-] (protonated)
CC[N@@H+](CC(=O)[N-]c1cccc(OC)c1)C(=O)CSc1[n-]c(=O)cc(OCCN(C)C)c1C(=O)[O-] (chirality)
CC[N@@H+](CC(=O)[N-]c1cccc(OC)c1)C(=O)CSc1[n-]c(=O)cc(OCCN(C)C)c1C(=O)[O-] (3D coordinates assigned)
CC[N@@H+](CC(=O)[N-]c1cccc(OC)c1)C(=O)CSc1[n-]c(=O)cc(OCCN(C)C)c1C(=O)[O-] (optimized conformer: 72.93436543672343 kcal/mol)

>  <smiles>  (15) 
CCN(CC(=O)Nc1cccc(OC)c1)C(=O)CSc1[nH]c(=O)cc(OCCN(C)C)c1C(=O)O

>  <score_type>  (15) 
oracle

>  <origin>  (15) 
adg

>  <m_score__min__energy>  (15) 
-12.23

>  <m_primary>  (15) 
energy

$$$$
15:0
     RDKit          3D

 45 48  0  0  0  0  0  0  0  0999 V2000
   57.3950   28.2450   43.1850 O   0  0  0  0  0  0  0  0  0  0  0  0
   57.0190   29.0470   44.0820 C   0  0  0  0  0  0  0  0  0  0  0  0
   56.9440   30.4530   43.8120 N   0  0  0  0  0  0  0  0  0  0  0  0
   57.6040   31.4990   44.5390 C   0  0  0  0  0  0  0  0  0  0  0  0
   58.1270   32.5860   43.8260 C   0  0  0  0  0  0  0  0  0  0  0  0
   58.7900   33.6190   44.4950 C   0  0  0  0  0  0  0  0  0  0  0  0
   58.9470   33.5730   45.8850 C   0  0  0  0  0  0  0  0  0  0  0  0
   59.7650   34.8860   46.7340 S   0  0  0  0  0  0  0  0  0  0  0  0
   59.9290   36.0440   45.7900 O   0  0  0  0  0  0  0  0  0  0  0  0
   58.9040   35.3460   47.8770 O   0  0  0  0  0  0  0  0  0  0  0  0
   61.3380   34.4160   47.3460 N   0  0  0  0  0  0  0  0  0  0  0  0
   61.8570   33.1870   46.7090 C   0  0  0  0  0  0  0  0  0  0  0  0
   61.7060   31.9420   47.5990 C   0  0  0  0  0  0  0  0  0  0  0  0
   60.5810   32.0690   48.4360 O   0  0  0  0  0  0  0  0  0  0  0  0
   60.8220   33.0650   49.4120 C   0  0  0  0  0  0  0  0  0  0  0  0
   61.3840   34.3800   48.8190 C   0  0  0  0  0  0  0  0  0  0  0  0
   58.4580   32.4700   46.5980 C   0  0  0  0  0  0  0  0  0  0  0  0
   57.7940   31.4370   45.9320 C   0  0  0  0  0  0  0  0  0  0  0  0
   56.6690   28.5680   45.3870 N   0  0  0  0  0  0  0  0  0  0  0  0
   56.8910   27.2240   45.8450 C   0  0  0  0  0  0  0  0  0  0  0  0
   58.2210   26.7630   46.0190 C   0  0  0  0  0  0  0  0  0  0  0  0
   58.4780   25.4460   46.4430 C   0  0  0  0  0  0  0  0  0  0  0  0
   57.3860   24.6140   46.6690 C   0  0  0  0  0  0  0  0  0  0  0  0
   57.4000   23.3320   47.0610 N   0  0  0  0  0  0  0  0  0  0  0  0
   56.0760   23.0340   47.0970 C   0  0  0  0  0  0  0  0  0  0  0  0
   55.6510   21.8960   47.4270 O   0  0  0  0  0  0  0  0  0  0  0  0
   55.2440   24.0470   46.7510 N   0  0  0  0  0  0  0  0  0  0  0  0
   56.1070   25.0390   46.4850 C   0  0  0  0  0  0  0  0  0  0  0  0
   55.8100   26.3340   46.0670 C   0  0  0  0  0  0  0  0  0  0  0  0
   58.0151   32.6267   42.7325 H   0  0  0  0  0  0  0  0  0  0  0  0
   59.1900   34.4716   43.9266 H   0  0  0  0  0  0  0  0  0  0  0  0
   61.3059   33.0177   45.7722 H   0  0  0  0  0  0  0  0  0  0  0  0
   62.9320   33.3366   46.5303 H   0  0  0  0  0  0  0  0  0  0  0  0
   61.5848   31.0537   46.9616 H   0  0  0  0  0  0  0  0  0  0  0  0
   62.6054   31.8397   48.2241 H   0  0  0  0  0  0  0  0  0  0  0  0
   59.8742   33.2895   49.9232 H   0  0  0  0  0  0  0  0  0  0  0  0
   61.5812   32.6681   50.1020 H   0  0  0  0  0  0  0  0  0  0  0  0
   60.7915   35.2210   49.2084 H   0  0  0  0  0  0  0  0  0  0  0  0
   62.4409   34.4485   49.1160 H   0  0  0  0  0  0  0  0  0  0  0  0
   58.5978   32.4174   47.6878 H   0  0  0  0  0  0  0  0  0  0  0  0
   57.4183   30.5721   46.4984 H   0  0  0  0  0  0  0  0  0  0  0  0
   56.1380   29.2190   46.0100 H   0  0  0  0  0  0  0  0  0  0  0  0
   59.0621   27.4434   45.8200 H   0  0  0  0  0  0  0  0  0  0  0  0
   59.5071   25.0866   46.5907 H   0  0  0  0  0  0  0  0  0  0  0  0
   54.7694   26.6561   45.9139 H   0  0  0  0  0  0  0  0  0  0  0  0
  1  2  2  0
  2  3  1  0
  3  4  1  0
  4  5  2  0
  5  6  1  0
  6  7  2  0
  7  8  1  0
  8  9  2  0
  8 10  2  0
  8 11  1  0
 11 12  1  0
 12 13  1  0
 13 14  1  0
 14 15  1  0
 15 16  1  0
  7 17  1  0
 17 18  2  0
  2 19  1  0
 19 20  1  0
 20 21  2  0
 21 22  1  0
 22 23  2  0
 23 24  1  0
 24 25  1  0
 25 26  2  0
 25 27  1  0
 27 28  1  0
 28 29  2  0
 18  4  1  0
 29 20  1  0
 16 11  1  0
 28 23  1  0
  5 30  1  0
  6 31  1  0
 12 32  1  0
 12 33  1  0
 13 34  1  0
 13 35  1  0
 15 36  1  0
 15 37  1  0
 16 38  1  0
 16 39  1  0
 17 40  1  0
 18 41  1  0
 19 42  1  0
 21 43  1  0
 22 44  1  0
 29 45  1  0
M  CHG  3   3  -1  24  -1  27  -1
M  END
>  <UniqueID>  (16) 
15

>  <SMILES>  (16) 
O=C([N-]c1ccc(S(=O)(=O)N2CCOCC2)cc1)Nc1ccc2[n-]c(=O)[n-]c2c1

>  <Energy>  (16) 
101.1064820528565

>  <Genealogy>  (16) 
O=C([N-]c1ccc(S(=O)(=O)N2CCOCC2)cc1)Nc1ccc2[n-]c(=O)[n-]c2c1 (protonated)
O=C([N-]c1ccc(S(=O)(=O)N2CCOCC2)cc1)Nc1ccc2[n-]c(=O)[n-]c2c1 (3D coordinates assigned)
O=C([N-]c1ccc(S(=O)(=O)N2CCOCC2)cc1)Nc1ccc2[n-]c(=O)[n-]c2c1 (nonaromatic ring conformer: 101.1064820528565 kcal/mol)

>  <smiles>  (16) 
O=C(Nc1ccc(S(=O)(=O)N2CCOCC2)cc1)Nc1ccc2[nH]c(=O)[nH]c2c1

>  <score_type>  (16) 
oracle

>  <origin>  (16) 
adg

>  <m_score__min__energy>  (16) 
-13.09

>  <m_primary>  (16) 
energy

$$$$
16:0
     RDKit          3D

 41 42  0  0  0  0  0  0  0  0999 V2000
   61.0470   34.2160   49.0590 C   0  0  0  0  0  0  0  0  0  0  0  0
   59.7210   34.2680   48.4300 N   0  0  0  0  0  0  0  0  0  0  0  0
   58.9250   33.1030   48.8350 C   0  0  0  0  0  0  0  0  0  0  0  0
   59.8990   34.2730   46.6930 S   0  0  0  0  0  0  0  0  0  0  0  0
   59.4220   35.5880   46.1370 O   0  0  0  0  0  0  0  0  0  0  0  0
   61.3450   34.0840   46.3270 O   0  0  0  0  0  0  0  0  0  0  0  0
   58.9710   32.9500   45.9950 C   0  0  0  0  0  0  0  0  0  0  0  0
   59.4730   31.6400   45.9990 C   0  0  0  0  0  0  0  0  0  0  0  0
   58.7290   30.6000   45.4360 C   0  0  0  0  0  0  0  0  0  0  0  0
   57.4690   30.8550   44.8730 C   0  0  0  0  0  0  0  0  0  0  0  0
   56.6900   29.7450   44.2260 C   0  0  0  0  0  0  0  0  0  0  0  0
   56.1990   28.8410   45.2550 N   0  0  0  0  0  0  0  0  0  0  0  0
   57.0250   27.8600   45.8880 C   0  0  0  0  0  0  0  0  0  0  0  0
   57.9680   28.2190   46.6440 O   0  0  0  0  0  0  0  0  0  0  0  0
   56.7760   26.4290   45.6580 C   0  0  0  0  0  0  0  0  0  0  0  0
   57.7250   25.4670   45.3410 C   0  0  0  0  0  0  0  0  0  0  0  0
   57.1290   24.2610   45.2100 N   0  0  0  0  0  0  0  0  0  0  0  0
   57.7780   23.0170   44.8130 C   0  0  0  0  0  0  0  0  0  0  0  0
   55.8110   24.4460   45.4170 C   0  0  0  0  0  0  0  0  0  0  0  0
   54.8590   23.4330   45.3380 O   0  0  0  0  0  0  0  0  0  0  0  0
   55.5610   25.7690   45.7040 C   0  0  0  0  0  0  0  0  0  0  0  0
   54.3190   26.3290   45.9780 O   0  0  0  0  0  0  0  0  0  0  0  0
   56.9740   32.1670   44.8580 C   0  0  0  0  0  0  0  0  0  0  0  0
   57.7160   33.2070   45.4240 C   0  0  0  0  0  0  0  0  0  0  0  0
   60.9342   34.2204   50.1532 H   0  0  0  0  0  0  0  0  0  0  0  0
   61.5648   33.2969   48.7475 H   0  0  0  0  0  0  0  0  0  0  0  0
   61.6352   35.0918   48.7475 H   0  0  0  0  0  0  0  0  0  0  0  0
   58.8876   33.0483   49.9330 H   0  0  0  0  0  0  0  0  0  0  0  0
   57.9039   33.2006   48.4377 H   0  0  0  0  0  0  0  0  0  0  0  0
   59.3870   32.1872   48.4377 H   0  0  0  0  0  0  0  0  0  0  0  0
   60.4557   31.4309   46.4469 H   0  0  0  0  0  0  0  0  0  0  0  0
   59.1326   29.5767   45.4340 H   0  0  0  0  0  0  0  0  0  0  0  0
   55.8393   30.1676   43.6713 H   0  0  0  0  0  0  0  0  0  0  0  0
   57.3403   29.1943   43.5305 H   0  0  0  0  0  0  0  0  0  0  0  0
   58.8010   25.6576   45.2152 H   0  0  0  0  0  0  0  0  0  0  0  0
   58.0718   22.4539   45.7111 H   0  0  0  0  0  0  0  0  0  0  0  0
   57.0796   22.4139   44.2142 H   0  0  0  0  0  0  0  0  0  0  0  0
   58.6722   23.2448   44.2142 H   0  0  0  0  0  0  0  0  0  0  0  0
   53.8800   23.6230   45.5160 H   0  0  0  0  0  0  0  0  0  0  0  0
   55.9971   32.3784   44.3986 H   0  0  0  0  0  0  0  0  0  0  0  0
   57.3143   34.2310   45.4217 H   0  0  0  0  0  0  0  0  0  0  0  0
  1  2  1  0
  2  3  1  0
  2  4  1  0
  4  5  2  0
  4  6  2  0
  4  7  1  0
  7  8  2  0
  8  9  1  0
  9 10  2  0
 10 11  1  0
 11 12  1  0
 12 13  1  0
 13 14  2  0
 13 15  1  0
 15 16  2  0
 16 17  1  0
 17 18  1  0
 17 19  1  0
 19 20  1  0
 19 21  2  0
 21 22  1  0
 10 23  1  0
 23 24  2  0
 24  7  1  0
 21 15  1  0
  1 25  1  0
  1 26  1  0
  1 27  1  0
  3 28  1  0
  3 29  1  0
  3 30  1  0
  8 31  1  0
  9 32  1  0
 11 33  1  0
 11 34  1  0
 16 35  1  0
 18 36  1  0
 18 37  1  0
 18 38  1  0
 20 39  1  0
 23 40  1  0
 24 41  1  0
M  CHG  2  12  -1  22  -1
M  END
>  <UniqueID>  (17) 
16

>  <SMILES>  (17) 
CN(C)S(=O)(=O)c1ccc(C[N-]C(=O)c2cn(C)c(O)c2[O-])cc1

>  <Energy>  (17) 
62.894477975918

>  <Genealogy>  (17) 
CN(C)S(=O)(=O)c1ccc(C[N-]C(=O)c2cn(C)c(O)c2[O-])cc1 (protonated)
CN(C)S(=O)(=O)c1ccc(C[N-]C(=O)c2cn(C)c(O)c2[O-])cc1 (3D coordinates assigned)
CN(C)S(=O)(=O)c1ccc(C[N-]C(=O)c2cn(C)c(O)c2[O-])cc1 (optimized conformer: 62.894477975918 kcal/mol)

>  <smiles>  (17) 
CN(C)S(=O)(=O)c1ccc(CNC(=O)c2cn(C)c(O)c2O)cc1

>  <score_type>  (17) 
oracle

>  <origin>  (17) 
adg

>  <m_score__min__energy>  (17) 
-12.76

>  <m_primary>  (17) 
energy

$$$$
17:0
     RDKit          3D

 49 52  0  0  0  0  0  0  0  0999 V2000
   58.2870   35.1000   45.4530 H   0  0  0  0  0  0  0  0  0  0  0  0
   57.5410   34.5510   45.0430 O   0  0  0  0  0  0  0  0  0  0  0  0
   57.6850   33.1840   44.8130 C   0  0  0  0  0  0  0  0  0  0  0  0
   57.7410   32.7070   43.5000 C   0  0  0  0  0  0  0  0  0  0  0  0
   57.6732   33.4108   42.6573 H   0  0  0  0  0  0  0  0  0  0  0  0
   57.8830   31.3370   43.2550 C   0  0  0  0  0  0  0  0  0  0  0  0
   57.9409   30.9687   42.2201 H   0  0  0  0  0  0  0  0  0  0  0  0
   57.9520   30.4290   44.3260 C   0  0  0  0  0  0  0  0  0  0  0  0
   58.1320   28.9820   44.0970 C   0  0  0  0  0  0  0  0  0  0  0  0
   58.1153   28.6184   43.0590 H   0  0  0  0  0  0  0  0  0  0  0  0
   58.3150   28.0810   45.0770 C   0  0  0  0  0  0  0  0  0  0  0  0
   59.0610   28.4120   46.2380 N   0  0  0  0  0  0  0  0  0  0  0  0
   59.6580   29.2660   46.3080 H   0  0  0  0  0  0  0  0  0  0  0  0
   59.0090   27.3700   47.2000 C   0  0  0  0  0  0  0  0  0  0  0  0
   59.7220   27.3580   48.2890 N   0  0  0  0  0  0  0  0  0  0  0  0
   60.0280   28.4910   49.1140 C   0  0  0  0  0  0  0  0  0  0  0  0
   61.1210   28.4780   49.9960 C   0  0  0  0  0  0  0  0  0  0  0  0
   61.7378   27.5722   50.0908 H   0  0  0  0  0  0  0  0  0  0  0  0
   61.4280   29.6120   50.7540 C   0  0  0  0  0  0  0  0  0  0  0  0
   62.2695   29.5856   51.4619 H   0  0  0  0  0  0  0  0  0  0  0  0
   60.6660   30.7870   50.6160 C   0  0  0  0  0  0  0  0  0  0  0  0
   60.9300   31.9410   51.3690 O   0  0  0  0  0  0  0  0  0  0  0  0
   61.6810   33.0430   50.9350 C   0  0  0  0  0  0  0  0  0  0  0  0
   62.1070   33.8840   51.7720 O   0  0  0  0  0  0  0  0  0  0  0  0
   61.9970   33.1830   49.4900 C   0  0  0  0  0  0  0  0  0  0  0  0
   61.0220   33.7480   48.6440 C   0  0  0  0  0  0  0  0  0  0  0  0
   60.0561   34.0600   49.0679 H   0  0  0  0  0  0  0  0  0  0  0  0
   61.2590   33.9210   47.2690 C   0  0  0  0  0  0  0  0  0  0  0  0
   60.2550   34.5040   46.4160 N   0  0  0  0  0  0  0  0  0  0  0  0
   60.2410   34.2620   45.1910 O   0  0  0  0  0  0  0  0  0  0  0  0
   59.2950   35.3400   46.9380 O   0  0  0  0  0  0  0  0  0  0  0  0
   62.4920   33.5200   46.7370 C   0  0  0  0  0  0  0  0  0  0  0  0
   62.6929   33.6536   45.6638 H   0  0  0  0  0  0  0  0  0  0  0  0
   63.4660   32.9530   47.5580 C   0  0  0  0  0  0  0  0  0  0  0  0
   64.4272   32.6391   47.1249 H   0  0  0  0  0  0  0  0  0  0  0  0
   63.2340   32.7790   48.9270 C   0  0  0  0  0  0  0  0  0  0  0  0
   64.5120   32.0070   49.8620 Cl  0  0  0  0  0  0  0  0  0  0  0  0
   59.5850   30.8000   49.7240 C   0  0  0  0  0  0  0  0  0  0  0  0
   58.8130   31.9470   49.5820 O   0  0  0  0  0  0  0  0  0  0  0  0
   59.2790   29.6630   48.9660 C   0  0  0  0  0  0  0  0  0  0  0  0
   58.4446   29.6917   48.2499 H   0  0  0  0  0  0  0  0  0  0  0  0
   58.0160   25.9630   46.7390 S   0  0  0  0  0  0  0  0  0  0  0  0
   57.7130   26.7040   45.0880 C   0  0  0  0  0  0  0  0  0  0  0  0
   56.6309   26.7686   44.9011 H   0  0  0  0  0  0  0  0  0  0  0  0
   58.1676   26.0829   44.3021 H   0  0  0  0  0  0  0  0  0  0  0  0
   57.9250   30.9160   45.6410 C   0  0  0  0  0  0  0  0  0  0  0  0
   58.0175   30.2172   46.4854 H   0  0  0  0  0  0  0  0  0  0  0  0
   57.7810   32.2860   45.8840 C   0  0  0  0  0  0  0  0  0  0  0  0
   57.7431   32.6590   46.9181 H   0  0  0  0  0  0  0  0  0  0  0  0
  1  2  1  0
  2  3  1  0
  3  4  2  0
  4  5  1  0
  4  6  1  0
  6  7  1  0
  6  8  2  0
  8  9  1  0
  9 10  1  0
  9 11  2  0
 11 12  1  0
 12 13  1  0
 12 14  1  0
 14 15  2  3
 15 16  1  0
 16 17  2  0
 17 18  1  0
 17 19  1  0
 19 20  1  0
 19 21  2  0
 21 22  1  0
 22 23  1  0
 23 24  2  0
 23 25  1  0
 25 26  2  0
 26 27  1  0
 26 28  1  0
 28 29  1  0
 29 30  2  0
 29 31  1  0
 28 32  2  0
 32 33  1  0
 32 34  1  0
 34 35  1  0
 34 36  2  0
 36 37  1  0
 21 38  1  0
 38 39  1  0
 38 40  2  0
 40 41  1  0
 14 42  1  0
 42 43  1  0
 43 44  1  0
 43 45  1  0
  8 46  1  0
 46 47  1  0
 46 48  2  0
 48 49  1  0
 48  3  1  0
 43 11  1  0
 40 16  1  0
 36 25  1  0
M  CHG  3  29   1  31  -1  39  -1
M  END
>  <UniqueID>  (18) 
17

>  <SMILES>  (18) 
O=C(Oc1ccc(N=C2N/C(=C/c3ccc(O)cc3)CS2)cc1[O-])c1cc([N+](=O)[O-])ccc1Cl

>  <Energy>  (18) 
84.21277922248697

>  <Genealogy>  (18) 
O=C(Oc1ccc(N=C2NC(=Cc3ccc(O)cc3)CS2)cc1[O-])c1cc([N+](=O)[O-])ccc1Cl (protonated)
O=C(Oc1ccc(N=C2N/C(=C/c3ccc(O)cc3)CS2)cc1[O-])c1cc([N+](=O)[O-])ccc1Cl (cis-trans isomerization)
O=C(Oc1ccc(N=C2N/C(=C/c3ccc(O)cc3)CS2)cc1[O-])c1cc([N+](=O)[O-])ccc1Cl (3D coordinates assigned)
O=C(Oc1ccc(N=C2N/C(=C/c3ccc(O)cc3)CS2)cc1[O-])c1cc([N+](=O)[O-])ccc1Cl (nonaromatic ring conformer: 84.21277922248697 kcal/mol)

>  <smiles>  (18) 
O=C(Oc1ccc(N=C2NC(=Cc3ccc(O)cc3)CS2)cc1O)c1cc([N+](=O)[O-])ccc1Cl

>  <score_type>  (18) 
oracle

>  <origin>  (18) 
adg

>  <m_score__min__energy>  (18) 
-13.33

>  <m_primary>  (18) 
energy

$$$$
18:0
     RDKit          3D

 58 61  0  0  0  0  0  0  0  0999 V2000
   57.7670   25.8530   43.7870 C   0  0  0  0  0  0  0  0  0  0  0  0
   58.0860   27.2230   44.3930 C   0  0  0  0  0  0  0  0  0  0  0  0
   57.6460   28.3320   43.5300 N   0  0  0  0  0  0  0  0  0  0  0  0
   57.9130   29.6150   44.1360 C   0  0  0  0  0  0  0  0  0  0  0  0
   57.0690   30.7120   43.8890 C   0  0  0  0  0  0  0  0  0  0  0  0
   57.3210   31.9480   44.4900 C   0  0  0  0  0  0  0  0  0  0  0  0
   58.4170   32.1040   45.3500 C   0  0  0  0  0  0  0  0  0  0  0  0
   58.7580   33.6630   46.0920 S   0  0  0  0  0  0  0  0  0  0  0  0
   57.5940   34.5900   45.8790 O   0  0  0  0  0  0  0  0  0  0  0  0
   59.9740   34.2850   45.4640 O   0  0  0  0  0  0  0  0  0  0  0  0
   59.0300   33.4240   47.8130 C   0  0  0  0  0  0  0  0  0  0  0  0
   59.6260   34.4330   48.5810 C   0  0  0  0  0  0  0  0  0  0  0  0
   59.8790   34.2230   49.9400 C   0  0  0  0  0  0  0  0  0  0  0  0
   59.5470   33.0030   50.5350 C   0  0  0  0  0  0  0  0  0  0  0  0
   58.9530   31.9870   49.7720 C   0  0  0  0  0  0  0  0  0  0  0  0
   58.5700   30.4240   50.4930 S   0  0  0  0  0  0  0  0  0  0  0  0
   57.1960   30.5040   51.0940 O   0  0  0  0  0  0  0  0  0  0  0  0
   59.5450   30.1110   51.5940 O   0  0  0  0  0  0  0  0  0  0  0  0
   58.5940   29.1420   49.3150 N   0  0  0  0  0  0  0  0  0  0  0  0
   59.9490   28.6440   49.0560 C   0  0  0  0  0  0  0  0  0  0  0  0
   60.7230   29.5430   48.0800 C   0  0  0  0  0  0  0  0  0  0  0  0
   61.6260   30.5100   48.7940 C   0  0  0  0  0  0  0  0  0  0  0  0
   62.1080   30.3870   50.0960 C   0  0  0  0  0  0  0  0  0  0  0  0
   62.9250   31.4220   50.3970 N   0  0  0  0  0  0  0  0  0  0  0  0
   62.9730   32.1910   49.2960 C   0  0  0  0  0  0  0  0  0  0  0  0
   63.7020   33.3660   49.1210 C   0  0  0  0  0  0  0  0  0  0  0  0
   63.6260   34.0090   47.8720 C   0  0  0  0  0  0  0  0  0  0  0  0
   62.8360   33.4650   46.8360 C   0  0  0  0  0  0  0  0  0  0  0  0
   62.1130   32.2750   47.0390 C   0  0  0  0  0  0  0  0  0  0  0  0
   62.2000   31.6650   48.2920 C   0  0  0  0  0  0  0  0  0  0  0  0
   58.6970   32.2010   48.4110 C   0  0  0  0  0  0  0  0  0  0  0  0
   59.2650   31.0170   45.5940 C   0  0  0  0  0  0  0  0  0  0  0  0
   59.0150   29.7800   44.9940 C   0  0  0  0  0  0  0  0  0  0  0  0
   57.5976   25.1254   44.5944 H   0  0  0  0  0  0  0  0  0  0  0  0
   56.8624   25.9285   43.1657 H   0  0  0  0  0  0  0  0  0  0  0  0
   58.6119   25.5212   43.1657 H   0  0  0  0  0  0  0  0  0  0  0  0
   57.5769   27.3073   45.3644 H   0  0  0  0  0  0  0  0  0  0  0  0
   59.1780   27.2958   44.5040 H   0  0  0  0  0  0  0  0  0  0  0  0
   56.6270   28.2310   43.3100 H   0  0  0  0  0  0  0  0  0  0  0  0
   58.1630   28.2720   42.6220 H   0  0  0  0  0  0  0  0  0  0  0  0
   56.2048   30.5965   43.2183 H   0  0  0  0  0  0  0  0  0  0  0  0
   56.6572   32.8014   44.2876 H   0  0  0  0  0  0  0  0  0  0  0  0
   59.8953   35.3919   48.1141 H   0  0  0  0  0  0  0  0  0  0  0  0
   60.3403   35.0198   50.5420 H   0  0  0  0  0  0  0  0  0  0  0  0
   59.7518   32.8392   51.6033 H   0  0  0  0  0  0  0  0  0  0  0  0
   60.4980   28.6003   50.0082 H   0  0  0  0  0  0  0  0  0  0  0  0
   59.8600   27.6478   48.5980 H   0  0  0  0  0  0  0  0  0  0  0  0
   61.3338   28.9079   47.4216 H   0  0  0  0  0  0  0  0  0  0  0  0
   59.9897   30.1271   47.5046 H   0  0  0  0  0  0  0  0  0  0  0  0
   61.8590   29.5641   50.7821 H   0  0  0  0  0  0  0  0  0  0  0  0
   63.4230   31.5820   51.3010 H   0  0  0  0  0  0  0  0  0  0  0  0
   64.3177   33.7778   49.9342 H   0  0  0  0  0  0  0  0  0  0  0  0
   64.1852   34.9408   47.7016 H   0  0  0  0  0  0  0  0  0  0  0  0
   62.7853   33.9753   45.8628 H   0  0  0  0  0  0  0  0  0  0  0  0
   61.4993   31.8395   46.2367 H   0  0  0  0  0  0  0  0  0  0  0  0
   58.2327   31.4057   47.8094 H   0  0  0  0  0  0  0  0  0  0  0  0
   60.1316   31.1372   46.2608 H   0  0  0  0  0  0  0  0  0  0  0  0
   59.6842   28.9302   45.1940 H   0  0  0  0  0  0  0  0  0  0  0  0
  1  2  1  0
  2  3  1  0
  3  4  1  0
  4  5  2  0
  5  6  1  0
  6  7  2  0
  7  8  1  0
  8  9  2  0
  8 10  2  0
  8 11  1  0
 11 12  2  0
 12 13  1  0
 13 14  2  0
 14 15  1  0
 15 16  1  0
 16 17  2  0
 16 18  2  0
 16 19  1  0
 19 20  1  0
 20 21  1  0
 21 22  1  0
 22 23  2  0
 23 24  1  0
 24 25  1  0
 25 26  2  0
 26 27  1  0
 27 28  2  0
 28 29  1  0
 29 30  2  0
 15 31  2  0
  7 32  1  0
 32 33  2  0
 33  4  1  0
 31 11  1  0
 30 22  1  0
 30 25  1  0
  1 34  1  0
  1 35  1  0
  1 36  1  0
  2 37  1  0
  2 38  1  0
  3 39  1  0
  3 40  1  0
  5 41  1  0
  6 42  1  0
 12 43  1  0
 13 44  1  0
 14 45  1  0
 20 46  1  0
 20 47  1  0
 21 48  1  0
 21 49  1  0
 23 50  1  0
 24 51  1  0
 26 52  1  0
 27 53  1  0
 28 54  1  0
 29 55  1  0
 31 56  1  0
 32 57  1  0
 33 58  1  0
M  CHG  2   3   1  19  -1
M  END
>  <UniqueID>  (19) 
18

>  <SMILES>  (19) 
CC[NH2+]c1ccc(S(=O)(=O)c2cccc(S(=O)(=O)[N-]CCc3c[nH]c4ccccc34)c2)cc1

>  <Energy>  (19) 
93.03097634350915

>  <Genealogy>  (19) 
CC[NH2+]c1ccc(S(=O)(=O)c2cccc(S(=O)(=O)[N-]CCc3c[nH]c4ccccc34)c2)cc1 (protonated)
CC[NH2+]c1ccc(S(=O)(=O)c2cccc(S(=O)(=O)[N-]CCc3c[nH]c4ccccc34)c2)cc1 (3D coordinates assigned)
CC[NH2+]c1ccc(S(=O)(=O)c2cccc(S(=O)(=O)[N-]CCc3c[nH]c4ccccc34)c2)cc1 (optimized conformer: 93.03097634350915 kcal/mol)

>  <smiles>  (19) 
CCNc1ccc(S(=O)(=O)c2cccc(S(=O)(=O)NCCc3c[nH]c4ccccc34)c2)cc1

>  <score_type>  (19) 
oracle

>  <origin>  (19) 
adg

>  <m_score__min__energy>  (19) 
-9.9199999999999999

>  <m_primary>  (19) 
energy

$$$$
19:0
     RDKit          3D

 53 55  0  0  0  0  0  0  0  0999 V2000
   55.6370   19.4880   46.9600 N   0  0  0  0  0  0  0  0  0  0  0  0
   55.7460   20.6380   46.9290 C   0  0  0  0  0  0  0  0  0  0  0  0
   55.8800   22.0670   46.8840 C   0  0  0  0  0  0  0  0  0  0  0  0
   54.8480   22.8670   46.3900 C   0  0  0  0  0  0  0  0  0  0  0  0
   55.0090   24.2140   46.3570 N   0  0  0  0  0  0  0  0  0  0  0  0
   56.1410   24.8170   46.8060 C   0  0  0  0  0  0  0  0  0  0  0  0
   56.2180   26.1170   46.7290 N   0  0  0  0  0  0  0  0  0  0  0  0
   56.7180   26.9350   45.6620 C   0  0  0  0  0  0  0  0  0  0  0  0
   57.8530   26.7140   45.1590 O   0  0  0  0  0  0  0  0  0  0  0  0
   55.9990   28.1010   45.2470 N   0  0  0  0  0  0  0  0  0  0  0  0
   56.5720   29.3360   44.7930 C   0  0  0  0  0  0  0  0  0  0  0  0
   56.3670   29.8190   43.4860 C   0  0  0  0  0  0  0  0  0  0  0  0
   56.9620   31.0130   43.0720 C   0  0  0  0  0  0  0  0  0  0  0  0
   57.8000   31.7280   43.9430 C   0  0  0  0  0  0  0  0  0  0  0  0
   58.4560   33.0050   43.4920 C   0  0  0  0  0  0  0  0  0  0  0  0
   58.4650   34.0100   44.6040 C   0  0  0  0  0  0  0  0  0  0  0  0
   57.4070   34.6360   44.8820 O   0  0  0  0  0  0  0  0  0  0  0  0
   59.6590   34.2250   45.3710 N   0  0  0  0  0  0  0  0  0  0  0  0
   59.6660   34.9820   46.6200 C   0  0  0  0  0  0  0  0  0  0  0  0
   59.0470   34.1660   47.7490 C   0  0  0  0  0  0  0  0  0  0  0  0
   60.0040   33.1920   48.2570 N   0  0  0  0  0  0  0  0  0  0  0  0
   60.6470   32.2200   47.4290 C   0  0  0  0  0  0  0  0  0  0  0  0
   61.5620   32.5820   46.6400 O   0  0  0  0  0  0  0  0  0  0  0  0
   60.2630   30.7900   47.5240 C   0  0  0  0  0  0  0  0  0  0  0  0
   60.7350   29.8560   46.5840 C   0  0  0  0  0  0  0  0  0  0  0  0
   60.3710   28.5100   46.6780 C   0  0  0  0  0  0  0  0  0  0  0  0
   59.5190   28.0850   47.7070 C   0  0  0  0  0  0  0  0  0  0  0  0
   59.1460   26.7060   47.8050 N   0  0  0  0  0  0  0  0  0  0  0  0
   59.0380   29.0110   48.6410 C   0  0  0  0  0  0  0  0  0  0  0  0
   59.4070   30.3490   48.5500 C   0  0  0  0  0  0  0  0  0  0  0  0
   58.0300   31.2280   45.2360 C   0  0  0  0  0  0  0  0  0  0  0  0
   57.4200   30.0410   45.6550 C   0  0  0  0  0  0  0  0  0  0  0  0
   57.1830   24.0050   47.2960 C   0  0  0  0  0  0  0  0  0  0  0  0
   57.0220   22.6540   47.3220 N   0  0  0  0  0  0  0  0  0  0  0  0
   53.9139   22.4101   46.0312 H   0  0  0  0  0  0  0  0  0  0  0  0
   55.7344   29.2524   42.7869 H   0  0  0  0  0  0  0  0  0  0  0  0
   56.7731   31.3954   42.0580 H   0  0  0  0  0  0  0  0  0  0  0  0
   59.4914   32.7924   43.1874 H   0  0  0  0  0  0  0  0  0  0  0  0
   57.8890   33.4168   42.6441 H   0  0  0  0  0  0  0  0  0  0  0  0
   60.5330   33.7200   45.1030 H   0  0  0  0  0  0  0  0  0  0  0  0
   60.7038   35.2338   46.8837 H   0  0  0  0  0  0  0  0  0  0  0  0
   59.0740   35.8986   46.4809 H   0  0  0  0  0  0  0  0  0  0  0  0
   58.7509   34.8422   48.5645 H   0  0  0  0  0  0  0  0  0  0  0  0
   58.1668   33.6320   47.3616 H   0  0  0  0  0  0  0  0  0  0  0  0
   61.3954   30.1875   45.7691 H   0  0  0  0  0  0  0  0  0  0  0  0
   60.7529   27.7843   45.9449 H   0  0  0  0  0  0  0  0  0  0  0  0
   59.6350   26.0650   48.4680 H   0  0  0  0  0  0  0  0  0  0  0  0
   58.3690   26.3200   47.2230 H   0  0  0  0  0  0  0  0  0  0  0  0
   58.3675   28.6798   49.4477 H   0  0  0  0  0  0  0  0  0  0  0  0
   59.0256   31.0701   49.2880 H   0  0  0  0  0  0  0  0  0  0  0  0
   58.6938   31.7734   45.9229 H   0  0  0  0  0  0  0  0  0  0  0  0
   57.6081   29.6589   46.6692 H   0  0  0  0  0  0  0  0  0  0  0  0
   58.1185   24.4592   47.6544 H   0  0  0  0  0  0  0  0  0  0  0  0
  1  2  3  0
  2  3  1  0
  3  4  2  0
  4  5  1  0
  5  6  1  0
  6  7  2  3
  7  8  1  0
  8  9  2  0
  8 10  1  0
 10 11  1  0
 11 12  2  0
 12 13  1  0
 13 14  2  0
 14 15  1  0
 15 16  1  0
 16 17  2  0
 16 18  1  0
 18 19  1  0
 19 20  1  0
 20 21  1  0
 21 22  1  0
 22 23  2  0
 22 24  1  0
 24 25  2  0
 25 26  1  0
 26 27  2  0
 27 28  1  0
 27 29  1  0
 29 30  2  0
 14 31  1  0
 31 32  2  0
  6 33  1  0
 33 34  2  0
 34  3  1  0
 32 11  1  0
 30 24  1  0
  4 35  1  0
 12 36  1  0
 13 37  1  0
 15 38  1  0
 15 39  1  0
 18 40  1  0
 19 41  1  0
 19 42  1  0
 20 43  1  0
 20 44  1  0
 25 45  1  0
 26 46  1  0
 28 47  1  0
 28 48  1  0
 29 49  1  0
 30 50  1  0
 31 51  1  0
 32 52  1  0
 33 53  1  0
M  CHG  3   5  -1  10  -1  21  -1
M  END
>  <UniqueID>  (20) 
19

>  <SMILES>  (20) 
N#Cc1c[n-]c(=NC(=O)[N-]c2ccc(CC(=O)NCC[N-]C(=O)c3ccc(N)cc3)cc2)cn1

>  <Energy>  (20) 
53.14454488569342

>  <Genealogy>  (20) 
N#Cc1c[n-]c(=NC(=O)[N-]c2ccc(CC(=O)NCC[N-]C(=O)c3ccc(N)cc3)cc2)cn1 (protonated)
N#Cc1c[n-]c(=NC(=O)[N-]c2ccc(CC(=O)NCC[N-]C(=O)c3ccc(N)cc3)cc2)cn1 (3D coordinates assigned)
N#Cc1c[n-]c(=NC(=O)[N-]c2ccc(CC(=O)NCC[N-]C(=O)c3ccc(N)cc3)cc2)cn1 (optimized conformer: 53.14454488569342 kcal/mol)

>  <smiles>  (20) 
N#Cc1c[nH]c(=NC(=O)Nc2ccc(CC(=O)NCCNC(=O)c3ccc(N)cc3)cc2)cn1

>  <score_type>  (20) 
oracle

>  <origin>  (20) 
adg

>  <m_score__min__energy>  (20) 
-12.27

>  <m_primary>  (20) 
energy

$$$$
20:0
     RDKit          3D

 41 42  0  0  0  0  0  0  0  0999 V2000
   58.4980   34.6310   44.8500 C   0  0  0  0  0  0  0  0  0  0  0  0
   58.2280   33.3020   44.1500 C   0  0  0  0  0  0  0  0  0  0  0  0
   57.7140   32.3020   45.1000 N   0  0  0  0  0  0  0  0  0  0  0  0
   56.7260   31.3190   44.6360 C   0  0  0  0  0  0  0  0  0  0  0  0
   57.2920   29.9320   44.7100 C   0  0  0  0  0  0  0  0  0  0  0  0
   58.3550   29.6660   44.0880 O   0  0  0  0  0  0  0  0  0  0  0  0
   56.6190   28.9200   45.4750 N   0  0  0  0  0  0  0  0  0  0  0  0
   57.1890   27.6390   45.7970 C   0  0  0  0  0  0  0  0  0  0  0  0
   58.5830   27.4710   45.9120 C   0  0  0  0  0  0  0  0  0  0  0  0
   59.1210   26.2260   46.2550 C   0  0  0  0  0  0  0  0  0  0  0  0
   60.8580   26.0300   46.3960 Cl  0  0  0  0  0  0  0  0  0  0  0  0
   58.2740   25.1410   46.4960 C   0  0  0  0  0  0  0  0  0  0  0  0
   56.8900   25.3020   46.4030 C   0  0  0  0  0  0  0  0  0  0  0  0
   56.3460   26.5440   46.0600 C   0  0  0  0  0  0  0  0  0  0  0  0
   54.9640   26.6810   45.9720 O   0  0  0  0  0  0  0  0  0  0  0  0
   58.1970   32.2410   46.4600 C   0  0  0  0  0  0  0  0  0  0  0  0
   57.7030   33.0110   47.3300 O   0  0  0  0  0  0  0  0  0  0  0  0
   59.2540   31.2460   46.8740 C   0  0  0  0  0  0  0  0  0  0  0  0
   60.6140   31.8890   46.9720 C   0  0  0  0  0  0  0  0  0  0  0  0
   61.7240   31.1430   47.3940 C   0  0  0  0  0  0  0  0  0  0  0  0
   62.9690   31.7680   47.5070 C   0  0  0  0  0  0  0  0  0  0  0  0
   63.0970   33.0900   47.2190 N   0  0  0  0  0  0  0  0  0  0  0  0
   62.0350   33.8390   46.8190 C   0  0  0  0  0  0  0  0  0  0  0  0
   60.7730   33.2540   46.6930 C   0  0  0  0  0  0  0  0  0  0  0  0
   58.4682   34.4841   45.9397 H   0  0  0  0  0  0  0  0  0  0  0  0
   59.4904   35.0046   44.5574 H   0  0  0  0  0  0  0  0  0  0  0  0
   57.7301   35.3622   44.5574 H   0  0  0  0  0  0  0  0  0  0  0  0
   57.4844   33.4586   43.3547 H   0  0  0  0  0  0  0  0  0  0  0  0
   59.1724   32.9304   43.7258 H   0  0  0  0  0  0  0  0  0  0  0  0
   55.8298   31.3788   45.2710 H   0  0  0  0  0  0  0  0  0  0  0  0
   56.4652   31.5421   43.5909 H   0  0  0  0  0  0  0  0  0  0  0  0
   55.6270   29.1010   45.7490 H   0  0  0  0  0  0  0  0  0  0  0  0
   59.2529   28.3245   45.7309 H   0  0  0  0  0  0  0  0  0  0  0  0
   58.6973   24.1604   46.7589 H   0  0  0  0  0  0  0  0  0  0  0  0
   56.2248   24.4484   46.6003 H   0  0  0  0  0  0  0  0  0  0  0  0
   58.9855   30.8276   47.8552 H   0  0  0  0  0  0  0  0  0  0  0  0
   59.3012   30.4564   46.1096 H   0  0  0  0  0  0  0  0  0  0  0  0
   61.6157   30.0750   47.6340 H   0  0  0  0  0  0  0  0  0  0  0  0
   63.8468   31.1889   47.8296 H   0  0  0  0  0  0  0  0  0  0  0  0
   62.1700   34.9073   46.5943 H   0  0  0  0  0  0  0  0  0  0  0  0
   59.9105   33.8593   46.3774 H   0  0  0  0  0  0  0  0  0  0  0  0
  1  2  1  0
  2  3  1  0
  3  4  1  0
  4  5  1  0
  5  6  2  0
  5  7  1  0
  7  8  1  0
  8  9  2  0
  9 10  1  0
 10 11  1  0
 10 12  2  0
 12 13  1  0
 13 14  2  0
 14 15  1  0
  3 16  1  0
 16 17  2  0
 16 18  1  0
 18 19  1  0
 19 20  2  0
 20 21  1  0
 21 22  2  0
 22 23  1  0
 23 24  2  0
 14  8  1  0
 24 19  1  0
  1 25  1  0
  1 26  1  0
  1 27  1  0
  2 28  1  0
  2 29  1  0
  4 30  1  0
  4 31  1  0
  7 32  1  0
  9 33  1  0
 12 34  1  0
 13 35  1  0
 18 36  1  0
 18 37  1  0
 20 38  1  0
 21 39  1  0
 23 40  1  0
 24 41  1  0
M  CHG  1  15  -1
M  END
>  <UniqueID>  (21) 
20

>  <SMILES>  (21) 
CCN(CC(=O)Nc1cc(Cl)ccc1[O-])C(=O)Cc1ccncc1

>  <Energy>  (21) 
41.42009817901208

>  <Genealogy>  (21) 
CCN(CC(=O)Nc1cc(Cl)ccc1[O-])C(=O)Cc1ccncc1 (protonated)
CCN(CC(=O)Nc1cc(Cl)ccc1[O-])C(=O)Cc1ccncc1 (3D coordinates assigned)
CCN(CC(=O)Nc1cc(Cl)ccc1[O-])C(=O)Cc1ccncc1 (optimized conformer: 41.42009817901208 kcal/mol)

>  <smiles>  (21) 
CCN(CC(=O)Nc1cc(Cl)ccc1O)C(=O)Cc1ccncc1

>  <score_type>  (21) 
oracle

>  <origin>  (21) 
adg

>  <m_score__min__energy>  (21) 
-11.58

>  <m_primary>  (21) 
energy

$$$$
21:0
     RDKit          3D

 42 44  0  0  0  0  0  0  0  0999 V2000
   60.2390   34.5870   48.7800 C   0  0  0  0  0  0  0  0  0  0  0  0
   59.5130   33.9430   47.6360 C   0  0  0  0  0  0  0  0  0  0  0  0
   58.5240   32.9770   47.8810 C   0  0  0  0  0  0  0  0  0  0  0  0
   57.8270   32.3960   46.8160 C   0  0  0  0  0  0  0  0  0  0  0  0
   58.0980   32.7870   45.4950 C   0  0  0  0  0  0  0  0  0  0  0  0
   57.3910   32.1270   44.3430 C   0  0  0  0  0  0  0  0  0  0  0  0
   56.4600   31.1180   44.8390 N   0  0  0  0  0  0  0  0  0  0  0  0
   56.2920   29.8300   44.2370 C   0  0  0  0  0  0  0  0  0  0  0  0
   55.5780   29.6940   43.2070 O   0  0  0  0  0  0  0  0  0  0  0  0
   56.9360   28.6340   44.8530 C   0  0  0  0  0  0  0  0  0  0  0  0
   58.7280   28.6680   44.5010 S   0  0  0  0  0  0  0  0  0  0  0  0
   59.2400   28.5970   46.2210 C   0  0  0  0  0  0  0  0  0  0  0  0
   58.8770   27.6500   47.1760 C   0  0  0  0  0  0  0  0  0  0  0  0
   57.9180   26.5220   46.9690 C   0  0  0  0  0  0  0  0  0  0  0  0
   59.4320   27.9460   48.3750 N   0  0  0  0  0  0  0  0  0  0  0  0
   60.1580   29.0620   48.1770 C   0  0  0  0  0  0  0  0  0  0  0  0
   60.9100   29.7590   49.1210 C   0  0  0  0  0  0  0  0  0  0  0  0
   61.5840   30.9200   48.6980 C   0  0  0  0  0  0  0  0  0  0  0  0
   61.4890   31.3540   47.3570 C   0  0  0  0  0  0  0  0  0  0  0  0
   60.7190   30.6340   46.4260 C   0  0  0  0  0  0  0  0  0  0  0  0
   60.0660   29.4870   46.8750 C   0  0  0  0  0  0  0  0  0  0  0  0
   59.0730   33.7670   45.2550 C   0  0  0  0  0  0  0  0  0  0  0  0
   59.7720   34.3450   46.3180 C   0  0  0  0  0  0  0  0  0  0  0  0
   59.8248   34.2196   49.7305 H   0  0  0  0  0  0  0  0  0  0  0  0
   61.3083   34.3349   48.7242 H   0  0  0  0  0  0  0  0  0  0  0  0
   60.1163   35.6787   48.7242 H   0  0  0  0  0  0  0  0  0  0  0  0
   58.2963   32.6758   48.9142 H   0  0  0  0  0  0  0  0  0  0  0  0
   57.0634   31.6295   47.0145 H   0  0  0  0  0  0  0  0  0  0  0  0
   56.8353   32.8865   43.7736 H   0  0  0  0  0  0  0  0  0  0  0  0
   58.1348   31.6428   43.6931 H   0  0  0  0  0  0  0  0  0  0  0  0
   56.7745   28.6487   45.9410 H   0  0  0  0  0  0  0  0  0  0  0  0
   56.4942   27.7187   44.4322 H   0  0  0  0  0  0  0  0  0  0  0  0
   57.5898   26.1359   47.9453 H   0  0  0  0  0  0  0  0  0  0  0  0
   57.0450   26.8818   46.4047 H   0  0  0  0  0  0  0  0  0  0  0  0
   58.4136   25.7183   46.4047 H   0  0  0  0  0  0  0  0  0  0  0  0
   59.3090   27.4250   49.2720 H   0  0  0  0  0  0  0  0  0  0  0  0
   60.9747   29.4129   50.1631 H   0  0  0  0  0  0  0  0  0  0  0  0
   62.1886   31.4931   49.4163 H   0  0  0  0  0  0  0  0  0  0  0  0
   62.0215   32.2623   47.0384 H   0  0  0  0  0  0  0  0  0  0  0  0
   60.6349   30.9643   45.3801 H   0  0  0  0  0  0  0  0  0  0  0  0
   59.2885   34.0823   44.2234 H   0  0  0  0  0  0  0  0  0  0  0  0
   60.5285   35.1186   46.1199 H   0  0  0  0  0  0  0  0  0  0  0  0
  1  2  1  0
  2  3  2  0
  3  4  1  0
  4  5  2  0
  5  6  1  0
  6  7  1  0
  7  8  1  0
  8  9  2  0
  8 10  1  0
 10 11  1  0
 11 12  1  0
 12 13  2  0
 13 14  1  0
 13 15  1  0
 15 16  1  0
 16 17  2  0
 17 18  1  0
 18 19  2  0
 19 20  1  0
 20 21  2  0
  5 22  1  0
 22 23  2  0
 23  2  1  0
 21 12  1  0
 21 16  1  0
  1 24  1  0
  1 25  1  0
  1 26  1  0
  3 27  1  0
  4 28  1  0
  6 29  1  0
  6 30  1  0
 10 31  1  0
 10 32  1  0
 14 33  1  0
 14 34  1  0
 14 35  1  0
 15 36  1  0
 17 37  1  0
 18 38  1  0
 19 39  1  0
 20 40  1  0
 22 41  1  0
 23 42  1  0
M  CHG  1   7  -1
M  END
>  <UniqueID>  (22) 
21

>  <SMILES>  (22) 
Cc1ccc(C[N-]C(=O)CSc2c(C)[nH]c3ccccc23)cc1

>  <Energy>  (22) 
67.40372268926457

>  <Genealogy>  (22) 
Cc1ccc(C[N-]C(=O)CSc2c(C)[nH]c3ccccc23)cc1 (protonated)
Cc1ccc(C[N-]C(=O)CSc2c(C)[nH]c3ccccc23)cc1 (3D coordinates assigned)
Cc1ccc(C[N-]C(=O)CSc2c(C)[nH]c3ccccc23)cc1 (optimized conformer: 67.40372268926457 kcal/mol)

>  <smiles>  (22) 
Cc1ccc(CNC(=O)CSc2c(C)[nH]c3ccccc23)cc1

>  <score_type>  (22) 
oracle

>  <origin>  (22) 
adg

>  <m_score__min__energy>  (22) 
-9.6699999999999999

>  <m_primary>  (22) 
energy

$$$$
22:0
     RDKit          3D

 39 40  0  0  0  0  0  0  0  0999 V2000
   54.7650   26.3210   45.9930 N   0  0  0  0  0  0  0  0  0  0  0  0
   56.2860   25.5360   46.2310 S   0  0  0  0  0  0  0  0  0  0  0  0
   56.2830   24.8260   47.5560 O   0  0  0  0  0  0  0  0  0  0  0  0
   56.5030   24.5250   45.1420 O   0  0  0  0  0  0  0  0  0  0  0  0
   57.5740   26.7340   46.1970 C   0  0  0  0  0  0  0  0  0  0  0  0
   57.7120   27.5870   45.0940 C   0  0  0  0  0  0  0  0  0  0  0  0
   58.7140   28.5620   45.0800 C   0  0  0  0  0  0  0  0  0  0  0  0
   59.5840   28.6990   46.1730 C   0  0  0  0  0  0  0  0  0  0  0  0
   60.6130   29.8000   46.1940 C   0  0  0  0  0  0  0  0  0  0  0  0
   61.0710   30.1260   47.6210 C   0  0  0  0  0  0  0  0  0  0  0  0
   62.0820   31.1870   47.6240 N   0  0  0  0  0  0  0  0  0  0  0  0
   61.8060   32.5920   47.4600 C   0  0  0  0  0  0  0  0  0  0  0  0
   63.0130   33.5680   46.9260 S   0  0  0  0  0  0  0  0  0  0  0  0
   60.5600   33.1800   47.8860 N   0  0  0  0  0  0  0  0  0  0  0  0
   59.7200   33.4290   46.7400 C   0  0  0  0  0  0  0  0  0  0  0  0
   59.7080   34.6970   46.1290 C   0  0  0  0  0  0  0  0  0  0  0  0
   58.8760   34.9460   45.0340 C   0  0  0  0  0  0  0  0  0  0  0  0
   58.0470   33.9350   44.5390 C   0  0  0  0  0  0  0  0  0  0  0  0
   58.0460   32.6740   45.1410 C   0  0  0  0  0  0  0  0  0  0  0  0
   57.0020   31.4080   44.5220 Cl  0  0  0  0  0  0  0  0  0  0  0  0
   58.8780   32.4200   46.2370 C   0  0  0  0  0  0  0  0  0  0  0  0
   59.4450   27.8410   47.2760 C   0  0  0  0  0  0  0  0  0  0  0  0
   58.4430   26.8670   47.2880 C   0  0  0  0  0  0  0  0  0  0  0  0
   54.7010   27.0840   46.7030 H   0  0  0  0  0  0  0  0  0  0  0  0
   57.0300   27.4893   44.2365 H   0  0  0  0  0  0  0  0  0  0  0  0
   58.8210   29.2247   44.2086 H   0  0  0  0  0  0  0  0  0  0  0  0
   61.4855   29.4829   45.6039 H   0  0  0  0  0  0  0  0  0  0  0  0
   60.1542   30.7043   45.7677 H   0  0  0  0  0  0  0  0  0  0  0  0
   60.2026   30.4563   48.2099 H   0  0  0  0  0  0  0  0  0  0  0  0
   61.5154   29.2203   48.0595 H   0  0  0  0  0  0  0  0  0  0  0  0
   63.0770   30.8770   47.5480 H   0  0  0  0  0  0  0  0  0  0  0  0
   60.0780   32.5280   48.5480 H   0  0  0  0  0  0  0  0  0  0  0  0
   60.7120   34.0650   48.4150 H   0  0  0  0  0  0  0  0  0  0  0  0
   60.3572   35.4965   46.5156 H   0  0  0  0  0  0  0  0  0  0  0  0
   58.8734   35.9391   44.5609 H   0  0  0  0  0  0  0  0  0  0  0  0
   57.3952   34.1323   43.6752 H   0  0  0  0  0  0  0  0  0  0  0  0
   58.8738   31.4260   46.7080 H   0  0  0  0  0  0  0  0  0  0  0  0
   60.1273   27.9360   48.1336 H   0  0  0  0  0  0  0  0  0  0  0  0
   58.3361   26.2019   48.1576 H   0  0  0  0  0  0  0  0  0  0  0  0
  1  2  1  0
  2  3  2  0
  2  4  2  0
  2  5  1  0
  5  6  2  0
  6  7  1  0
  7  8  2  0
  8  9  1  0
  9 10  1  0
 10 11  1  0
 11 12  1  0
 12 13  2  0
 12 14  1  0
 14 15  1  0
 15 16  2  0
 16 17  1  0
 17 18  2  0
 18 19  1  0
 19 20  1  0
 19 21  2  0
  8 22  1  0
 22 23  2  0
 23  5  1  0
 21 15  1  0
  1 24  1  0
  6 25  1  0
  7 26  1  0
  9 27  1  0
  9 28  1  0
 10 29  1  0
 10 30  1  0
 11 31  1  0
 14 32  1  0
 14 33  1  0
 16 34  1  0
 17 35  1  0
 18 36  1  0
 21 37  1  0
 22 38  1  0
 23 39  1  0
M  CHG  2   1  -1  14   1
M  END
>  <UniqueID>  (23) 
22

>  <SMILES>  (23) 
[NH-]S(=O)(=O)c1ccc(CCNC(=S)[NH2+]c2cccc(Cl)c2)cc1

>  <Energy>  (23) 
36.218892356669066

>  <Genealogy>  (23) 
[NH-]S(=O)(=O)c1ccc(CCNC(=S)[NH2+]c2cccc(Cl)c2)cc1 (protonated)
[NH-]S(=O)(=O)c1ccc(CCNC(=S)[NH2+]c2cccc(Cl)c2)cc1 (3D coordinates assigned)
[NH-]S(=O)(=O)c1ccc(CCNC(=S)[NH2+]c2cccc(Cl)c2)cc1 (optimized conformer: 36.218892356669066 kcal/mol)

>  <smiles>  (23) 
NS(=O)(=O)c1ccc(CCNC(=S)Nc2cccc(Cl)c2)cc1

>  <score_type>  (23) 
oracle

>  <origin>  (23) 
adg

>  <m_score__min__energy>  (23) 
-9.9399999999999995

>  <m_primary>  (23) 
energy

$$$$
23:0
     RDKit          3D

 49 51  0  0  0  0  0  0  0  0999 V2000
   51.3790   32.3060   51.1110 N   0  0  0  0  0  0  0  0  0  0  0  0
   51.7810   30.6440   51.3560 S   0  0  0  0  0  0  0  0  0  0  0  0
   51.7850   29.9290   50.0330 O   0  0  0  0  0  0  0  0  0  0  0  0
   50.7520   30.0050   52.2460 O   0  0  0  0  0  0  0  0  0  0  0  0
   53.3700   30.5260   52.1060 C   0  0  0  0  0  0  0  0  0  0  0  0
   53.5490   29.7380   53.2500 C   0  0  0  0  0  0  0  0  0  0  0  0
   54.8080   29.6460   53.8490 C   0  0  0  0  0  0  0  0  0  0  0  0
   55.8910   30.3530   53.3190 C   0  0  0  0  0  0  0  0  0  0  0  0
   55.7180   31.1710   52.1880 C   0  0  0  0  0  0  0  0  0  0  0  0
   56.8190   31.8940   51.6100 N   0  0  0  0  0  0  0  0  0  0  0  0
   57.9820   32.3100   52.3410 C   0  0  0  0  0  0  0  0  0  0  0  0
   58.0040   32.2590   53.6010 O   0  0  0  0  0  0  0  0  0  0  0  0
   59.1510   32.9020   51.6100 C   0  0  0  0  0  0  0  0  0  0  0  0
   58.9010   32.9210   50.1680 N   0  0  0  0  0  0  0  0  0  0  0  0
   58.9370   31.7400   49.3450 C   0  0  0  0  0  0  0  0  0  0  0  0
   58.4710   30.4950   49.8130 C   0  0  0  0  0  0  0  0  0  0  0  0
   58.5170   29.3680   48.9880 C   0  0  0  0  0  0  0  0  0  0  0  0
   59.0170   29.4660   47.6830 C   0  0  0  0  0  0  0  0  0  0  0  0
   59.0720   28.2740   46.8110 C   0  0  0  0  0  0  0  0  0  0  0  0
   59.9460   27.2320   47.1600 C   0  0  0  0  0  0  0  0  0  0  0  0
   60.0150   26.0740   46.3830 C   0  0  0  0  0  0  0  0  0  0  0  0
   59.2150   25.9460   45.2480 C   0  0  0  0  0  0  0  0  0  0  0  0
   58.3510   26.9790   44.8800 C   0  0  0  0  0  0  0  0  0  0  0  0
   58.2750   28.1550   45.6440 C   0  0  0  0  0  0  0  0  0  0  0  0
   57.2070   29.4590   45.0970 S   0  0  0  0  0  0  0  0  0  0  0  0
   55.5580   28.9440   45.1560 N   0  0  0  0  0  0  0  0  0  0  0  0
   57.3600   30.6560   45.9930 O   0  0  0  0  0  0  0  0  0  0  0  0
   57.5680   29.8520   43.6920 O   0  0  0  0  0  0  0  0  0  0  0  0
   59.5000   30.6970   47.2200 C   0  0  0  0  0  0  0  0  0  0  0  0
   59.4560   31.8260   48.0430 C   0  0  0  0  0  0  0  0  0  0  0  0
   54.4560   31.2390   51.5790 C   0  0  0  0  0  0  0  0  0  0  0  0
   50.3570   32.3430   50.8910 H   0  0  0  0  0  0  0  0  0  0  0  0
   52.6964   29.1903   53.6779 H   0  0  0  0  0  0  0  0  0  0  0  0
   54.9472   29.0157   54.7397 H   0  0  0  0  0  0  0  0  0  0  0  0
   56.8824   30.2693   53.7882 H   0  0  0  0  0  0  0  0  0  0  0  0
   56.7290   32.2170   50.6190 H   0  0  0  0  0  0  0  0  0  0  0  0
   59.3140   33.9313   51.9622 H   0  0  0  0  0  0  0  0  0  0  0  0
   60.0412   32.2867   51.8075 H   0  0  0  0  0  0  0  0  0  0  0  0
   58.6760   33.8340   49.7080 H   0  0  0  0  0  0  0  0  0  0  0  0
   58.0689   30.4099   50.8333 H   0  0  0  0  0  0  0  0  0  0  0  0
   58.1587   28.3988   49.3653 H   0  0  0  0  0  0  0  0  0  0  0  0
   60.5814   27.3288   48.0527 H   0  0  0  0  0  0  0  0  0  0  0  0
   60.7009   25.2621   46.6664 H   0  0  0  0  0  0  0  0  0  0  0  0
   59.2648   25.0296   44.6416 H   0  0  0  0  0  0  0  0  0  0  0  0
   57.7237   26.8708   43.9829 H   0  0  0  0  0  0  0  0  0  0  0  0
   55.5650   27.9000   45.2100 H   0  0  0  0  0  0  0  0  0  0  0  0
   59.9156   30.7753   46.2045 H   0  0  0  0  0  0  0  0  0  0  0  0
   59.8310   32.7896   47.6677 H   0  0  0  0  0  0  0  0  0  0  0  0
   54.3173   31.8573   50.6799 H   0  0  0  0  0  0  0  0  0  0  0  0
  1  2  1  0
  2  3  2  0
  2  4  2  0
  2  5  1  0
  5  6  2  0
  6  7  1  0
  7  8  2  0
  8  9  1  0
  9 10  1  0
 10 11  1  0
 11 12  2  0
 11 13  1  0
 13 14  1  0
 14 15  1  0
 15 16  2  0
 16 17  1  0
 17 18  2  0
 18 19  1  0
 19 20  2  0
 20 21  1  0
 21 22  2  0
 22 23  1  0
 23 24  2  0
 24 25  1  0
 25 26  1  0
 25 27  2  0
 25 28  2  0
 18 29  1  0
 29 30  2  0
  9 31  2  0
 31  5  1  0
 30 15  1  0
 24 19  1  0
  1 32  1  0
  6 33  1  0
  7 34  1  0
  8 35  1  0
 10 36  1  0
 13 37  1  0
 13 38  1  0
 14 39  1  0
 16 40  1  0
 17 41  1  0
 20 42  1  0
 21 43  1  0
 22 44  1  0
 23 45  1  0
 26 46  1  0
 29 47  1  0
 30 48  1  0
 31 49  1  0
M  CHG  2   1  -1  26  -1
M  END
>  <UniqueID>  (24) 
23

>  <SMILES>  (24) 
[NH-]S(=O)(=O)c1cccc(NC(=O)CNc2ccc(-c3ccccc3S([NH-])(=O)=O)cc2)c1

>  <Energy>  (24) 
61.4425905702077

>  <Genealogy>  (24) 
[NH-]S(=O)(=O)c1cccc(NC(=O)CNc2ccc(-c3ccccc3S([NH-])(=O)=O)cc2)c1 (protonated)
[NH-]S(=O)(=O)c1cccc(NC(=O)CNc2ccc(-c3ccccc3S([NH-])(=O)=O)cc2)c1 (3D coordinates assigned)
[NH-]S(=O)(=O)c1cccc(NC(=O)CNc2ccc(-c3ccccc3S([NH-])(=O)=O)cc2)c1 (optimized conformer: 61.4425905702077 kcal/mol)

>  <smiles>  (24) 
NS(=O)(=O)c1cccc(NC(=O)CNc2ccc(-c3ccccc3S(N)(=O)=O)cc2)c1

>  <score_type>  (24) 
oracle

>  <origin>  (24) 
adg

>  <m_score__min__energy>  (24) 
-14.52

>  <m_primary>  (24) 
energy

$$$$
24:0
     RDKit          3D

 17 17  0  0  0  0  0  0  0  0999 V2000
   53.5260   29.1790   54.0850 C   0  0  0  0  0  0  0  0  0  0  0  0
   53.1630   29.3660   52.6720 N   0  0  0  0  0  0  0  0  0  0  0  0
   54.2180   30.0830   51.9270 C   0  0  0  0  0  0  0  0  0  0  0  0
   53.5460   31.2140   51.2480 C   0  0  0  0  0  0  0  0  0  0  0  0
   52.2770   31.2650   51.5830 C   0  0  0  0  0  0  0  0  0  0  0  0
   51.3200   32.2730   51.1000 C   0  0  0  0  0  0  0  0  0  0  0  0
   51.0300   32.3490   49.8760 O   0  0  0  0  0  0  0  0  0  0  0  0
   50.7270   33.1530   51.9970 O   0  0  0  0  0  0  0  0  0  0  0  0
   51.9350   30.1740   52.5260 C   0  0  0  0  0  0  0  0  0  0  0  0
   52.7308   29.5887   54.7252 H   0  0  0  0  0  0  0  0  0  0  0  0
   53.6480   28.1058   54.2933 H   0  0  0  0  0  0  0  0  0  0  0  0
   54.4707   29.7027   54.2933 H   0  0  0  0  0  0  0  0  0  0  0  0
   54.9874   30.4561   52.6190 H   0  0  0  0  0  0  0  0  0  0  0  0
   54.7195   29.4219   51.2049 H   0  0  0  0  0  0  0  0  0  0  0  0
   54.0407   31.9142   50.5588 H   0  0  0  0  0  0  0  0  0  0  0  0
   51.6324   30.5895   53.4985 H   0  0  0  0  0  0  0  0  0  0  0  0
   51.0945   29.5685   52.1558 H   0  0  0  0  0  0  0  0  0  0  0  0
  1  2  1  0
  2  3  1  0
  3  4  1  0
  4  5  2  0
  5  6  1  0
  6  7  2  0
  6  8  1  0
  5  9  1  0
  9  2  1  0
  1 10  1  0
  1 11  1  0
  1 12  1  0
  3 13  1  0
  3 14  1  0
  4 15  1  0
  9 16  1  0
  9 17  1  0
M  CHG  1   8  -1
M  END
>  <UniqueID>  (25) 
24

>  <SMILES>  (25) 
CN1CC=C(C(=O)[O-])C1

>  <Energy>  (25) 
20.342248196875783

>  <Genealogy>  (25) 
CN1CC=C(C(=O)[O-])C1 (protonated)
CN1CC=C(C(=O)[O-])C1 (3D coordinates assigned)
CN1CC=C(C(=O)[O-])C1 (nonaromatic ring conformer: 20.342248196875783 kcal/mol)

>  <smiles>  (25) 
CN1CC=C(C(=O)O)C1

>  <score_type>  (25) 
oracle

>  <origin>  (25) 
adg

>  <m_score__min__energy>  (25) 
-8.1099999999999994

>  <m_primary>  (25) 
energy

$$$$
25:0
     RDKit          3D

 58 61  0  0  0  0  0  0  0  0999 V2000
   58.2370   30.5130   45.8680 H   0  0  0  0  0  0  0  0  0  0  0  0
   59.1430   30.9590   45.7890 O   0  0  0  0  0  0  0  0  0  0  0  0
   59.2900   32.3420   45.9160 C   0  0  0  0  0  0  0  0  0  0  0  0
   60.0050   32.8740   46.9980 C   0  0  0  0  0  0  0  0  0  0  0  0
   60.4658   32.1994   47.7346 H   0  0  0  0  0  0  0  0  0  0  0  0
   60.1350   34.2580   47.1450 C   0  0  0  0  0  0  0  0  0  0  0  0
   60.7004   34.6698   47.9939 H   0  0  0  0  0  0  0  0  0  0  0  0
   59.5470   35.1190   46.2140 C   0  0  0  0  0  0  0  0  0  0  0  0
   59.6650   36.4620   46.3640 F   0  0  0  0  0  0  0  0  0  0  0  0
   58.8360   34.5990   45.1310 C   0  0  0  0  0  0  0  0  0  0  0  0
   58.3687   35.2808   44.4052 H   0  0  0  0  0  0  0  0  0  0  0  0
   58.7140   33.2080   44.9630 C   0  0  0  0  0  0  0  0  0  0  0  0
   57.9170   32.6650   43.8000 C   0  0  0  0  0  0  0  0  0  0  0  0
   58.6047   32.4410   42.9712 H   0  0  0  0  0  0  0  0  0  0  0  0
   57.1786   33.4261   43.5076 H   0  0  0  0  0  0  0  0  0  0  0  0
   57.1700   31.4050   44.1690 C   0  0  0  0  0  0  0  0  0  0  0  0
   56.1220   31.4850   44.8660 O   0  0  0  0  0  0  0  0  0  0  0  0
   57.6160   30.0990   43.7620 N   0  0  0  0  0  0  0  0  0  0  0  0
   57.4600   28.9760   44.4010 C   0  0  0  0  0  0  0  0  0  0  0  0
   56.7850   28.8420   45.5670 N   0  0  0  0  0  0  0  0  0  0  0  0
   56.7350   27.5800   45.9940 N   0  0  0  0  0  0  0  0  0  0  0  0
   57.3610   26.7100   45.1660 C   0  0  0  0  0  0  0  0  0  0  0  0
   57.4400   25.2360   45.4210 C   0  0  0  0  0  0  0  0  0  0  0  0
   56.4315   24.8588   45.6459 H   0  0  0  0  0  0  0  0  0  0  0  0
   57.8500   24.7543   44.5211 H   0  0  0  0  0  0  0  0  0  0  0  0
   58.3660   24.9120   46.6000 C   0  0  0  0  0  0  0  0  0  0  0  0
   57.9657   25.3842   47.5093 H   0  0  0  0  0  0  0  0  0  0  0  0
   58.4105   23.8188   46.7139 H   0  0  0  0  0  0  0  0  0  0  0  0
   60.0670   25.5300   46.3070 S   0  0  0  0  0  0  0  0  0  0  0  0
   60.0520   26.8490   47.5780 C   0  0  0  0  0  0  0  0  0  0  0  0
   59.3175   26.5869   48.3538 H   0  0  0  0  0  0  0  0  0  0  0  0
   61.0647   26.9266   48.0004 H   0  0  0  0  0  0  0  0  0  0  0  0
   59.6800   28.2110   46.9840 C   0  0  0  0  0  0  0  0  0  0  0  0
   60.4723   28.5245   46.2883 H   0  0  0  0  0  0  0  0  0  0  0  0
   58.7164   28.1058   46.4639 H   0  0  0  0  0  0  0  0  0  0  0  0
   59.5250   29.2560   48.0450 C   0  0  0  0  0  0  0  0  0  0  0  0
   58.5320   30.1750   48.0490 N   0  0  0  0  0  0  0  0  0  0  0  0
   58.6070   31.0310   49.0660 N   0  0  0  0  0  0  0  0  0  0  0  0
   59.6580   30.7970   49.8790 C   0  0  0  0  0  0  0  0  0  0  0  0
   59.9190   31.5550   50.9020 N   0  0  0  0  0  0  0  0  0  0  0  0
   60.4980   32.8660   50.8650 C   0  0  0  0  0  0  0  0  0  0  0  0
   59.7430   33.8630   51.0340 O   0  0  0  0  0  0  0  0  0  0  0  0
   61.9920   33.0640   50.8610 C   0  0  0  0  0  0  0  0  0  0  0  0
   62.2248   34.0382   51.3156 H   0  0  0  0  0  0  0  0  0  0  0  0
   62.4506   32.2451   51.4346 H   0  0  0  0  0  0  0  0  0  0  0  0
   62.5490   33.0310   49.4610 C   0  0  0  0  0  0  0  0  0  0  0  0
   62.9300   34.2200   48.8140 C   0  0  0  0  0  0  0  0  0  0  0  0
   62.8102   35.1857   49.3269 H   0  0  0  0  0  0  0  0  0  0  0  0
   63.4610   34.1790   47.5200 C   0  0  0  0  0  0  0  0  0  0  0  0
   63.7521   35.1122   47.0157 H   0  0  0  0  0  0  0  0  0  0  0  0
   63.6220   32.9520   46.8670 C   0  0  0  0  0  0  0  0  0  0  0  0
   64.0387   32.9220   45.8494 H   0  0  0  0  0  0  0  0  0  0  0  0
   63.2540   31.7640   47.5060 C   0  0  0  0  0  0  0  0  0  0  0  0
   63.3826   30.8002   46.9916 H   0  0  0  0  0  0  0  0  0  0  0  0
   62.7220   31.8010   48.8000 C   0  0  0  0  0  0  0  0  0  0  0  0
   62.4379   30.8646   49.3024 H   0  0  0  0  0  0  0  0  0  0  0  0
   60.5820   29.4890   49.3360 S   0  0  0  0  0  0  0  0  0  0  0  0
   58.0240   27.4990   43.8270 S   0  0  0  0  0  0  0  0  0  0  0  0
  1  2  1  0
  2  3  1  0
  3  4  2  0
  4  5  1  0
  4  6  1  0
  6  7  1  0
  6  8  2  0
  8  9  1  0
  8 10  1  0
 10 11  1  0
 10 12  2  0
 12 13  1  0
 13 14  1  0
 13 15  1  0
 13 16  1  0
 16 17  2  0
 16 18  1  0
 18 19  2  3
 19 20  1  0
 20 21  1  0
 21 22  2  0
 22 23  1  0
 23 24  1  0
 23 25  1  0
 23 26  1  0
 26 27  1  0
 26 28  1  0
 26 29  1  0
 29 30  1  0
 30 31  1  0
 30 32  1  0
 30 33  1  0
 33 34  1  0
 33 35  1  0
 33 36  1  0
 36 37  2  0
 37 38  1  0
 38 39  1  0
 39 40  2  0
 40 41  1  0
 41 42  2  0
 41 43  1  0
 43 44  1  0
 43 45  1  0
 43 46  1  0
 46 47  2  0
 47 48  1  0
 47 49  1  0
 49 50  1  0
 49 51  2  0
 51 52  1  0
 51 53  1  0
 53 54  1  0
 53 55  2  0
 55 56  1  0
 39 57  1  0
 22 58  1  0
 12  3  1  0
 58 19  1  0
 57 36  1  0
 55 46  1  0
M  CHG  2  20  -1  38  -1
M  END
>  <UniqueID>  (26) 
25

>  <SMILES>  (26) 
O=C(Cc1cc(F)ccc1O)N=c1[n-]nc(CCSCCc2n[n-]/c(=N/C(=O)Cc3ccccc3)s2)s1

>  <Energy>  (26) 
133.67575806559444

>  <Genealogy>  (26) 
O=C(Cc1ccccc1)N=c1[n-]nc(CCSCCc2n[n-]c(=NC(=O)Cc3cc(F)ccc3O)s2)s1 (protonated)
O=C(Cc1cc(F)ccc1O)N=c1[n-]nc(CCSCCc2n[n-]/c(=N/C(=O)Cc3ccccc3)s2)s1 (cis-trans isomerization)
O=C(Cc1cc(F)ccc1O)N=c1[n-]nc(CCSCCc2n[n-]/c(=N/C(=O)Cc3ccccc3)s2)s1 (3D coordinates assigned)
O=C(Cc1cc(F)ccc1O)N=c1[n-]nc(CCSCCc2n[n-]/c(=N/C(=O)Cc3ccccc3)s2)s1 (optimized conformer: 133.67575806559444 kcal/mol)

>  <smiles>  (26) 
O=C(Cc1ccccc1)N=c1[nH]nc(CCSCCc2n[nH]c(=NC(=O)Cc3cc(F)ccc3O)s2)s1

>  <score_type>  (26) 
oracle

>  <origin>  (26) 
adg

>  <m_score__min__energy>  (26) 
-12.869999999999999

>  <m_primary>  (26) 
energy

$$$$
26:0
     RDKit          3D

 44 46  0  0  0  0  0  0  0  0999 V2000
   53.8360   26.5700   46.3880 H   0  0  0  0  0  0  0  0  0  0  0  0
   54.5720   25.9660   45.9590 N   0  0  0  0  0  0  0  0  0  0  0  0
   55.8310   26.2060   46.1350 C   0  0  0  0  0  0  0  0  0  0  0  0
   56.3690   27.3820   45.7130 N   0  0  0  0  0  0  0  0  0  0  0  0
   57.6850   27.6840   45.8820 C   0  0  0  0  0  0  0  0  0  0  0  0
   58.1810   29.0140   45.3940 C   0  0  0  0  0  0  0  0  0  0  0  0
   58.4200   29.6548   46.2555 H   0  0  0  0  0  0  0  0  0  0  0  0
   59.0848   28.8671   44.7844 H   0  0  0  0  0  0  0  0  0  0  0  0
   57.4017   29.4948   44.7844 H   0  0  0  0  0  0  0  0  0  0  0  0
   58.5440   26.7390   46.4920 C   0  0  0  0  0  0  0  0  0  0  0  0
   60.0080   27.0140   46.7280 C   0  0  0  0  0  0  0  0  0  0  0  0
   60.5231   26.0716   46.9658 H   0  0  0  0  0  0  0  0  0  0  0  0
   60.4458   27.4563   45.8210 H   0  0  0  0  0  0  0  0  0  0  0  0
   60.1620   27.9470   47.8440 N   0  0  0  0  0  0  0  0  0  0  0  0
   60.0080   27.5800   48.8100 H   0  0  0  0  0  0  0  0  0  0  0  0
   60.6650   29.2820   47.6870 C   0  0  0  0  0  0  0  0  0  0  0  0
   60.8760   29.7540   46.5370 O   0  0  0  0  0  0  0  0  0  0  0  0
   60.9380   30.1330   48.8910 C   0  0  0  0  0  0  0  0  0  0  0  0
   61.7625   29.6889   49.4680 H   0  0  0  0  0  0  0  0  0  0  0  0
   61.2097   31.1448   48.5556 H   0  0  0  0  0  0  0  0  0  0  0  0
   59.7360   30.2220   49.7500 N   0  0  0  0  0  0  0  0  0  0  0  0
   58.8590   31.2840   49.6440 C   0  0  0  0  0  0  0  0  0  0  0  0
   59.0520   32.3810   48.6690 C   0  0  0  0  0  0  0  0  0  0  0  0
   58.4910   32.2810   47.3860 C   0  0  0  0  0  0  0  0  0  0  0  0
   57.8983   31.3950   47.1144 H   0  0  0  0  0  0  0  0  0  0  0  0
   58.6830   33.3030   46.4530 C   0  0  0  0  0  0  0  0  0  0  0  0
   58.2441   33.2178   45.4480 H   0  0  0  0  0  0  0  0  0  0  0  0
   59.4310   34.4330   46.7930 C   0  0  0  0  0  0  0  0  0  0  0  0
   59.6460   35.7260   45.6280 Cl  0  0  0  0  0  0  0  0  0  0  0  0
   60.0160   34.5260   48.0610 C   0  0  0  0  0  0  0  0  0  0  0  0
   60.6157   35.4093   48.3259 H   0  0  0  0  0  0  0  0  0  0  0  0
   59.8390   33.4970   48.9920 C   0  0  0  0  0  0  0  0  0  0  0  0
   60.3181   33.5629   49.9800 H   0  0  0  0  0  0  0  0  0  0  0  0
   57.7580   31.3700   50.5050 C   0  0  0  0  0  0  0  0  0  0  0  0
   57.0546   32.2123   50.4288 H   0  0  0  0  0  0  0  0  0  0  0  0
   57.5670   30.3770   51.4560 C   0  0  0  0  0  0  0  0  0  0  0  0
   56.5820   30.4280   52.2390 O   0  0  0  0  0  0  0  0  0  0  0  0
   58.4470   29.3540   51.5450 N   0  0  0  0  0  0  0  0  0  0  0  0
   59.5210   29.2670   50.7180 C   0  0  0  0  0  0  0  0  0  0  0  0
   60.3150   28.2990   50.8620 O   0  0  0  0  0  0  0  0  0  0  0  0
   57.9950   25.5330   46.9500 C   0  0  0  0  0  0  0  0  0  0  0  0
   58.6376   24.7963   47.4543 H   0  0  0  0  0  0  0  0  0  0  0  0
   56.6390   25.2620   46.7700 C   0  0  0  0  0  0  0  0  0  0  0  0
   56.2104   24.3132   47.1252 H   0  0  0  0  0  0  0  0  0  0  0  0
  1  2  1  0
  2  3  2  0
  3  4  1  0
  4  5  1  0
  5  6  1  0
  6  7  1  0
  6  8  1  0
  6  9  1  0
  5 10  2  0
 10 11  1  0
 11 12  1  0
 11 13  1  0
 11 14  1  0
 14 15  1  0
 14 16  1  0
 16 17  2  0
 16 18  1  0
 18 19  1  0
 18 20  1  0
 18 21  1  0
 21 22  1  0
 22 23  1  0
 23 24  2  0
 24 25  1  0
 24 26  1  0
 26 27  1  0
 26 28  2  0
 28 29  1  0
 28 30  1  0
 30 31  1  0
 30 32  2  0
 32 33  1  0
 22 34  2  0
 34 35  1  0
 34 36  1  0
 36 37  2  0
 36 38  1  0
 38 39  1  0
 39 40  2  0
 10 41  1  0
 41 42  1  0
 41 43  2  0
 43 44  1  0
 43  3  1  0
 39 21  1  0
 32 23  1  0
M  CHG  2   4  -1  38  -1
M  END
>  <UniqueID>  (27) 
26

>  <SMILES>  (27) 
[H]/N=c1/ccc(CNC(=O)Cn2c(-c3ccc(Cl)cc3)cc(=O)[n-]c2=O)c(C)[n-]1

>  <Energy>  (27) 
51.472081850365065

>  <Genealogy>  (27) 
Cc1[n-]c(=N)ccc1CNC(=O)Cn1c(-c2ccc(Cl)cc2)cc(=O)[n-]c1=O (protonated)
[H]/N=c1/ccc(CNC(=O)Cn2c(-c3ccc(Cl)cc3)cc(=O)[n-]c2=O)c(C)[n-]1 (cis-trans isomerization)
[H]/N=c1/ccc(CNC(=O)Cn2c(-c3ccc(Cl)cc3)cc(=O)[n-]c2=O)c(C)[n-]1 (3D coordinates assigned)
[H]/N=c1/ccc(CNC(=O)Cn2c(-c3ccc(Cl)cc3)cc(=O)[n-]c2=O)c(C)[n-]1 (optimized conformer: 51.472081850365065 kcal/mol)

>  <smiles>  (27) 
Cc1[nH]c(=N)ccc1CNC(=O)Cn1c(-c2ccc(Cl)cc2)cc(=O)[nH]c1=O

>  <score_type>  (27) 
oracle

>  <origin>  (27) 
adg

>  <m_score__min__energy>  (27) 
-12.1

>  <m_primary>  (27) 
energy

$$$$
27:0
     RDKit          3D

 36 38  0  0  0  0  0  0  0  0999 V2000
   57.1050   31.9400   52.7470 O   0  0  0  0  0  0  0  0  0  0  0  0
   56.7910   30.9550   52.0230 C   0  0  0  0  0  0  0  0  0  0  0  0
   57.6260   30.5880   50.9170 N   0  0  0  0  0  0  0  0  0  0  0  0
   58.4520   31.4850   50.1620 C   0  0  0  0  0  0  0  0  0  0  0  0
   58.8470   32.6910   50.7570 C   0  0  0  0  0  0  0  0  0  0  0  0
   59.6590   33.5910   50.0600 C   0  0  0  0  0  0  0  0  0  0  0  0
   60.0990   33.2830   48.7710 C   0  0  0  0  0  0  0  0  0  0  0  0
   59.7380   32.0680   48.1810 C   0  0  0  0  0  0  0  0  0  0  0  0
   58.9300   31.1600   48.8750 C   0  0  0  0  0  0  0  0  0  0  0  0
   58.6430   29.9310   48.2930 O   0  0  0  0  0  0  0  0  0  0  0  0
   55.5910   30.1490   52.3500 C   0  0  0  0  0  0  0  0  0  0  0  0
   55.7030   28.9970   53.1500 C   0  0  0  0  0  0  0  0  0  0  0  0
   54.5730   28.2360   53.4550 C   0  0  0  0  0  0  0  0  0  0  0  0
   53.3200   28.6100   52.9680 C   0  0  0  0  0  0  0  0  0  0  0  0
   53.1850   29.7590   52.1730 C   0  0  0  0  0  0  0  0  0  0  0  0
   51.8380   30.1470   51.6200 C   0  0  0  0  0  0  0  0  0  0  0  0
   51.2840   31.3440   52.3590 C   0  0  0  0  0  0  0  0  0  0  0  0
   51.0270   32.5530   51.6870 C   0  0  0  0  0  0  0  0  0  0  0  0
   51.2390   32.6670   50.3180 O   0  0  0  0  0  0  0  0  0  0  0  0
   50.5620   33.6270   52.3750 N   0  0  0  0  0  0  0  0  0  0  0  0
   50.3410   33.5630   53.7120 C   0  0  0  0  0  0  0  0  0  0  0  0
   49.9100   34.5720   54.3270 O   0  0  0  0  0  0  0  0  0  0  0  0
   50.5870   32.4120   54.3870 N   0  0  0  0  0  0  0  0  0  0  0  0
   51.0530   31.3080   53.7470 C   0  0  0  0  0  0  0  0  0  0  0  0
   51.2690   30.2590   54.4110 O   0  0  0  0  0  0  0  0  0  0  0  0
   54.3240   30.5220   51.8650 C   0  0  0  0  0  0  0  0  0  0  0  0
   58.5163   32.9309   51.7783 H   0  0  0  0  0  0  0  0  0  0  0  0
   59.9515   34.5427   50.5276 H   0  0  0  0  0  0  0  0  0  0  0  0
   60.7295   33.9962   48.2199 H   0  0  0  0  0  0  0  0  0  0  0  0
   60.0903   31.8248   47.1677 H   0  0  0  0  0  0  0  0  0  0  0  0
   56.6869   28.6941   53.5375 H   0  0  0  0  0  0  0  0  0  0  0  0
   54.6709   27.3375   54.0820 H   0  0  0  0  0  0  0  0  0  0  0  0
   52.4350   28.0024   53.2079 H   0  0  0  0  0  0  0  0  0  0  0  0
   51.9433   30.3972   50.5540 H   0  0  0  0  0  0  0  0  0  0  0  0
   51.1460   29.3012   51.7458 H   0  0  0  0  0  0  0  0  0  0  0  0
   54.2241   31.4204   51.2381 H   0  0  0  0  0  0  0  0  0  0  0  0
  1  2  2  0
  2  3  1  0
  3  4  1  0
  4  5  2  0
  5  6  1  0
  6  7  2  0
  7  8  1  0
  8  9  2  0
  9 10  1  0
  2 11  1  0
 11 12  2  0
 12 13  1  0
 13 14  2  0
 14 15  1  0
 15 16  1  0
 16 17  1  0
 17 18  2  0
 18 19  1  0
 18 20  1  0
 20 21  1  0
 21 22  2  0
 21 23  1  0
 23 24  1  0
 24 25  2  0
 15 26  2  0
  9  4  1  0
 26 11  1  0
 24 17  1  0
  5 27  1  0
  6 28  1  0
  7 29  1  0
  8 30  1  0
 12 31  1  0
 13 32  1  0
 14 33  1  0
 16 34  1  0
 16 35  1  0
 26 36  1  0
M  CHG  5   3  -1  10  -1  19  -1  20  -1  23  -1
M  END
>  <UniqueID>  (28) 
27

>  <SMILES>  (28) 
O=C([N-]c1ccccc1[O-])c1cccc(Cc2c([O-])[n-]c(=O)[n-]c2=O)c1

>  <Energy>  (28) 
47.282039814959845

>  <Genealogy>  (28) 
O=C([N-]c1ccccc1[O-])c1cccc(Cc2c([O-])[n-]c(=O)[n-]c2=O)c1 (protonated)
O=C([N-]c1ccccc1[O-])c1cccc(Cc2c([O-])[n-]c(=O)[n-]c2=O)c1 (3D coordinates assigned)
O=C([N-]c1ccccc1[O-])c1cccc(Cc2c([O-])[n-]c(=O)[n-]c2=O)c1 (optimized conformer: 47.282039814959845 kcal/mol)

>  <smiles>  (28) 
O=C(Nc1ccccc1O)c1cccc(Cc2c(O)[nH]c(=O)[nH]c2=O)c1

>  <score_type>  (28) 
oracle

>  <origin>  (28) 
adg

>  <m_score__min__energy>  (28) 
-19.199999999999999

>  <m_primary>  (28) 
energy

$$$$
28:0
     RDKit          3D

 40 41  0  0  0  0  0  0  0  0999 V2000
   58.0530   34.5210   44.8770 C   0  0  0  0  0  0  0  0  0  0  0  0
   57.4500   33.3460   45.6330 C   0  0  0  0  0  0  0  0  0  0  0  0
   58.5130   32.3670   46.0810 C   0  0  0  0  0  0  0  0  0  0  0  0
   59.7170   32.8660   46.6000 C   0  0  0  0  0  0  0  0  0  0  0  0
   60.7550   32.0010   46.9310 C   0  0  0  0  0  0  0  0  0  0  0  0
   60.6200   30.6310   46.7170 C   0  0  0  0  0  0  0  0  0  0  0  0
   59.4180   30.0950   46.2210 C   0  0  0  0  0  0  0  0  0  0  0  0
   59.3960   28.6240   45.8550 C   0  0  0  0  0  0  0  0  0  0  0  0
   60.7030   28.2050   45.1870 C   0  0  0  0  0  0  0  0  0  0  0  0
   58.3210   30.9680   45.9750 C   0  0  0  0  0  0  0  0  0  0  0  0
   57.0440   30.4880   45.5220 N   0  0  0  0  0  0  0  0  0  0  0  0
   56.7510   29.3200   44.7430 C   0  0  0  0  0  0  0  0  0  0  0  0
   57.1450   29.2860   43.5480 O   0  0  0  0  0  0  0  0  0  0  0  0
   56.0130   28.1970   45.2490 N   0  0  0  0  0  0  0  0  0  0  0  0
   56.5110   27.0820   46.0520 C   0  0  0  0  0  0  0  0  0  0  0  0
   55.7050   25.8450   45.8160 C   0  0  0  0  0  0  0  0  0  0  0  0
   54.3650   25.8700   45.6580 N   0  0  0  0  0  0  0  0  0  0  0  0
   54.0360   24.5710   45.5660 C   0  0  0  0  0  0  0  0  0  0  0  0
   52.6560   24.0750   45.2960 C   0  0  0  0  0  0  0  0  0  0  0  0
   55.1660   23.7970   45.6660 C   0  0  0  0  0  0  0  0  0  0  0  0
   56.2290   24.6000   45.8420 N   0  0  0  0  0  0  0  0  0  0  0  0
   58.4335   35.2625   45.5949 H   0  0  0  0  0  0  0  0  0  0  0  0
   58.8797   34.1649   44.2448 H   0  0  0  0  0  0  0  0  0  0  0  0
   57.2816   34.9850   44.2448 H   0  0  0  0  0  0  0  0  0  0  0  0
   56.9188   33.7259   46.5182 H   0  0  0  0  0  0  0  0  0  0  0  0
   56.7605   32.8194   44.9568 H   0  0  0  0  0  0  0  0  0  0  0  0
   59.8412   33.9491   46.7463 H   0  0  0  0  0  0  0  0  0  0  0  0
   61.6848   32.3998   47.3628 H   0  0  0  0  0  0  0  0  0  0  0  0
   61.4635   29.9606   46.9386 H   0  0  0  0  0  0  0  0  0  0  0  0
   59.2523   28.0285   46.7686 H   0  0  0  0  0  0  0  0  0  0  0  0
   58.5711   28.4519   45.1480 H   0  0  0  0  0  0  0  0  0  0  0  0
   61.4491   27.9658   45.9591 H   0  0  0  0  0  0  0  0  0  0  0  0
   60.5267   27.3184   44.5603 H   0  0  0  0  0  0  0  0  0  0  0  0
   61.0750   29.0289   44.5603 H   0  0  0  0  0  0  0  0  0  0  0  0
   57.5589   26.8848   45.7817 H   0  0  0  0  0  0  0  0  0  0  0  0
   56.4298   27.3538   47.1148 H   0  0  0  0  0  0  0  0  0  0  0  0
   52.1399   23.8895   46.2496 H   0  0  0  0  0  0  0  0  0  0  0  0
   52.1012   24.8300   44.7196 H   0  0  0  0  0  0  0  0  0  0  0  0
   52.7088   23.1396   44.7196 H   0  0  0  0  0  0  0  0  0  0  0  0
   55.1961   22.6988   45.6110 H   0  0  0  0  0  0  0  0  0  0  0  0
  1  2  1  0
  2  3  1  0
  3  4  2  0
  4  5  1  0
  5  6  2  0
  6  7  1  0
  7  8  1  0
  8  9  1  0
  7 10  2  0
 10 11  1  0
 11 12  1  0
 12 13  2  0
 12 14  1  0
 14 15  1  0
 15 16  1  0
 16 17  2  0
 17 18  1  0
 18 19  1  0
 18 20  2  0
 20 21  1  0
 10  3  1  0
 21 16  1  0
  1 22  1  0
  1 23  1  0
  1 24  1  0
  2 25  1  0
  2 26  1  0
  4 27  1  0
  5 28  1  0
  6 29  1  0
  8 30  1  0
  8 31  1  0
  9 32  1  0
  9 33  1  0
  9 34  1  0
 15 35  1  0
 15 36  1  0
 19 37  1  0
 19 38  1  0
 19 39  1  0
 20 40  1  0
M  CHG  3  11  -1  14  -1  21  -1
M  END
>  <UniqueID>  (29) 
28

>  <SMILES>  (29) 
CCc1cccc(CC)c1[N-]C(=O)[N-]Cc1nc(C)c[n-]1

>  <Energy>  (29) 
68.90229310642323

>  <Genealogy>  (29) 
CCc1cccc(CC)c1[N-]C(=O)[N-]Cc1nc(C)c[n-]1 (protonated)
CCc1cccc(CC)c1[N-]C(=O)[N-]Cc1nc(C)c[n-]1 (3D coordinates assigned)
CCc1cccc(CC)c1[N-]C(=O)[N-]Cc1nc(C)c[n-]1 (optimized conformer: 68.90229310642323 kcal/mol)

>  <smiles>  (29) 
CCc1cccc(CC)c1NC(=O)NCc1nc(C)c[nH]1

>  <score_type>  (29) 
oracle

>  <origin>  (29) 
adg

>  <m_score__min__energy>  (29) 
-12.640000000000001

>  <m_primary>  (29) 
energy

$$$$
29:0
     RDKit          3D

 48 51  0  0  0  0  0  0  0  0999 V2000
   60.0610   32.5310   46.2860 O   0  0  0  0  0  0  0  0  0  0  0  0
   59.4510   33.3610   47.0140 C   0  0  0  0  0  0  0  0  0  0  0  0
   59.9250   33.6190   48.4100 C   0  0  0  0  0  0  0  0  0  0  0  0
   59.3090   32.6370   49.3690 C   0  0  0  0  0  0  0  0  0  0  0  0
   59.2480   31.2730   49.0400 C   0  0  0  0  0  0  0  0  0  0  0  0
   58.6520   30.3630   49.9180 C   0  0  0  0  0  0  0  0  0  0  0  0
   58.0900   30.8030   51.1280 C   0  0  0  0  0  0  0  0  0  0  0  0
   57.4690   29.8280   52.0540 C   0  0  0  0  0  0  0  0  0  0  0  0
   58.2080   28.9780   52.6230 O   0  0  0  0  0  0  0  0  0  0  0  0
   56.0520   29.8280   52.3270 N   0  0  0  0  0  0  0  0  0  0  0  0
   55.4120   28.6580   52.9500 C   0  0  0  0  0  0  0  0  0  0  0  0
   54.3790   29.1010   53.9810 C   0  0  0  0  0  0  0  0  0  0  0  0
   53.3880   30.0270   53.3420 C   0  0  0  0  0  0  0  0  0  0  0  0
   52.0460   30.0270   53.7560 C   0  0  0  0  0  0  0  0  0  0  0  0
   51.1300   30.9090   53.1740 C   0  0  0  0  0  0  0  0  0  0  0  0
   51.5520   31.8080   52.1910 C   0  0  0  0  0  0  0  0  0  0  0  0
   50.6410   32.6900   51.6210 O   0  0  0  0  0  0  0  0  0  0  0  0
   52.8900   31.8260   51.7870 C   0  0  0  0  0  0  0  0  0  0  0  0
   53.8150   30.9340   52.3530 C   0  0  0  0  0  0  0  0  0  0  0  0
   55.2690   31.0180   51.9490 C   0  0  0  0  0  0  0  0  0  0  0  0
   58.1630   32.1660   51.4610 C   0  0  0  0  0  0  0  0  0  0  0  0
   58.7580   33.0770   50.5830 C   0  0  0  0  0  0  0  0  0  0  0  0
   58.2950   34.0460   46.5200 N   0  0  0  0  0  0  0  0  0  0  0  0
   57.9300   34.1000   45.1070 C   0  0  0  0  0  0  0  0  0  0  0  0
   57.5280   32.7420   44.6210 C   0  0  0  0  0  0  0  0  0  0  0  0
   58.0570   32.0800   43.5320 C   0  0  0  0  0  0  0  0  0  0  0  0
   57.3790   30.8810   43.5180 C   0  0  0  0  0  0  0  0  0  0  0  0
   56.5330   30.8680   44.5240 O   0  0  0  0  0  0  0  0  0  0  0  0
   56.5950   31.9720   45.2100 N   0  0  0  0  0  0  0  0  0  0  0  0
   61.0199   33.5192   48.4441 H   0  0  0  0  0  0  0  0  0  0  0  0
   59.6260   34.6361   48.7035 H   0  0  0  0  0  0  0  0  0  0  0  0
   59.6707   30.9195   48.0880 H   0  0  0  0  0  0  0  0  0  0  0  0
   58.6229   29.2942   49.6594 H   0  0  0  0  0  0  0  0  0  0  0  0
   54.9141   28.0606   52.1721 H   0  0  0  0  0  0  0  0  0  0  0  0
   56.1830   28.0567   53.4540 H   0  0  0  0  0  0  0  0  0  0  0  0
   53.8533   28.2182   54.3737 H   0  0  0  0  0  0  0  0  0  0  0  0
   54.8882   29.6254   54.8030 H   0  0  0  0  0  0  0  0  0  0  0  0
   51.7143   29.3310   54.5406 H   0  0  0  0  0  0  0  0  0  0  0  0
   50.0765   30.8951   53.4903 H   0  0  0  0  0  0  0  0  0  0  0  0
   53.2203   32.5432   51.0211 H   0  0  0  0  0  0  0  0  0  0  0  0
   55.3209   31.1368   50.8567 H   0  0  0  0  0  0  0  0  0  0  0  0
   55.7048   31.8758   52.4822 H   0  0  0  0  0  0  0  0  0  0  0  0
   57.7498   32.5183   52.4176 H   0  0  0  0  0  0  0  0  0  0  0  0
   58.7946   34.1447   50.8450 H   0  0  0  0  0  0  0  0  0  0  0  0
   57.0882   34.7959   44.9761 H   0  0  0  0  0  0  0  0  0  0  0  0
   58.7983   34.4448   44.5264 H   0  0  0  0  0  0  0  0  0  0  0  0
   58.8366   32.4279   42.8383 H   0  0  0  0  0  0  0  0  0  0  0  0
   57.5216   30.0707   42.7878 H   0  0  0  0  0  0  0  0  0  0  0  0
  1  2  2  0
  2  3  1  0
  3  4  1  0
  4  5  2  0
  5  6  1  0
  6  7  2  0
  7  8  1  0
  8  9  2  0
  8 10  1  0
 10 11  1  0
 11 12  1  0
 12 13  1  0
 13 14  2  0
 14 15  1  0
 15 16  2  0
 16 17  1  0
 16 18  1  0
 18 19  2  0
 19 20  1  0
  7 21  1  0
 21 22  2  0
  2 23  1  0
 23 24  1  0
 24 25  1  0
 25 26  1  0
 26 27  2  0
 27 28  1  0
 28 29  1  0
 22  4  1  0
 29 25  2  0
 20 10  1  0
 19 13  1  0
  3 30  1  0
  3 31  1  0
  5 32  1  0
  6 33  1  0
 11 34  1  0
 11 35  1  0
 12 36  1  0
 12 37  1  0
 14 38  1  0
 15 39  1  0
 18 40  1  0
 20 41  1  0
 20 42  1  0
 21 43  1  0
 22 44  1  0
 24 45  1  0
 24 46  1  0
 26 47  1  0
 27 48  1  0
M  CHG  2  17  -1  23  -1
M  END
>  <UniqueID>  (30) 
29

>  <SMILES>  (30) 
O=C(Cc1ccc(C(=O)N2CCc3ccc([O-])cc3C2)cc1)[N-]Cc1ccon1

>  <Energy>  (30) 
84.49042314832873

>  <Genealogy>  (30) 
O=C(Cc1ccc(C(=O)N2CCc3ccc([O-])cc3C2)cc1)[N-]Cc1ccon1 (protonated)
O=C(Cc1ccc(C(=O)N2CCc3ccc([O-])cc3C2)cc1)[N-]Cc1ccon1 (3D coordinates assigned)
O=C(Cc1ccc(C(=O)N2CCc3ccc([O-])cc3C2)cc1)[N-]Cc1ccon1 (nonaromatic ring conformer: 84.49042314832873 kcal/mol)

>  <smiles>  (30) 
O=C(Cc1ccc(C(=O)N2CCc3ccc(O)cc3C2)cc1)NCc1ccon1

>  <score_type>  (30) 
oracle

>  <origin>  (30) 
adg

>  <m_score__min__energy>  (30) 
-13.9

>  <m_primary>  (30) 
energy

$$$$
30:0
     RDKit          3D

 21 21  0  0  0  0  0  0  0  0999 V2000
   58.9820   27.9200   44.5570 C   0  0  0  0  0  0  0  0  0  0  0  0
   57.9950   26.8330   44.1300 C   0  0  0  0  0  0  0  0  0  0  0  0
   57.5880   25.9200   45.2940 C   0  0  0  0  0  0  0  0  0  0  0  0
   56.5340   24.9150   44.8840 C   0  0  0  0  0  0  0  0  0  0  0  0
   56.9200   23.7690   44.1780 C   0  0  0  0  0  0  0  0  0  0  0  0
   55.9470   22.8390   43.8270 C   0  0  0  0  0  0  0  0  0  0  0  0
   56.2630   21.8010   43.1910 O   0  0  0  0  0  0  0  0  0  0  0  0
   54.6550   23.0530   44.1740 N   0  0  0  0  0  0  0  0  0  0  0  0
   54.2800   24.1620   44.8630 C   0  0  0  0  0  0  0  0  0  0  0  0
   52.6940   24.3330   45.2410 S   0  0  0  0  0  0  0  0  0  0  0  0
   55.2190   25.0980   45.2250 N   0  0  0  0  0  0  0  0  0  0  0  0
   54.8720   26.2370   45.9310 O   0  0  0  0  0  0  0  0  0  0  0  0
   59.0240   27.9662   45.6552 H   0  0  0  0  0  0  0  0  0  0  0  0
   59.9810   27.6841   44.1615 H   0  0  0  0  0  0  0  0  0  0  0  0
   58.6511   28.8916   44.1615 H   0  0  0  0  0  0  0  0  0  0  0  0
   57.0920   27.3148   43.7270 H   0  0  0  0  0  0  0  0  0  0  0  0
   58.4919   26.2086   43.3729 H   0  0  0  0  0  0  0  0  0  0  0  0
   58.4773   25.3777   45.6478 H   0  0  0  0  0  0  0  0  0  0  0  0
   57.1646   26.5513   46.0891 H   0  0  0  0  0  0  0  0  0  0  0  0
   57.9735   23.6071   43.9059 H   0  0  0  0  0  0  0  0  0  0  0  0
   54.0050   26.3310   46.4440 H   0  0  0  0  0  0  0  0  0  0  0  0
  1  2  1  0
  2  3  1  0
  3  4  1  0
  4  5  2  0
  5  6  1  0
  6  7  2  0
  6  8  1  0
  8  9  1  0
  9 10  2  0
  9 11  1  0
 11 12  1  0
 11  4  1  0
  1 13  1  0
  1 14  1  0
  1 15  1  0
  2 16  1  0
  2 17  1  0
  3 18  1  0
  3 19  1  0
  5 20  1  0
 12 21  1  0
M  CHG  1   8  -1
M  END
>  <UniqueID>  (31) 
30

>  <SMILES>  (31) 
CCCc1cc(=O)[n-]c(=S)n1O

>  <Energy>  (31) 
18.415836284815253

>  <Genealogy>  (31) 
CCCc1cc(=O)[n-]c(=S)n1O (protonated)
CCCc1cc(=O)[n-]c(=S)n1O (3D coordinates assigned)
CCCc1cc(=O)[n-]c(=S)n1O (optimized conformer: 18.415836284815253 kcal/mol)

>  <smiles>  (31) 
CCCc1cc(=O)[nH]c(=S)n1O

>  <score_type>  (31) 
oracle

>  <origin>  (31) 
adg

>  <m_score__min__energy>  (31) 
-7.5899999999999999

>  <m_primary>  (31) 
energy

$$$$
31:0
     RDKit          3D

 62 65  0  0  0  0  0  0  0  0999 V2000
   63.8700   29.9320   52.2830 O   0  0  0  0  0  0  0  0  0  0  0  0
   62.8890   30.1220   51.5140 C   0  0  0  0  0  0  0  0  0  0  0  0
   62.0540   28.9690   51.0420 C   0  0  0  0  0  0  0  0  0  0  0  0
   61.1550   29.3620   49.9570 N   0  0  0  0  0  0  0  0  0  0  0  0
   60.5660   28.4040   49.0630 C   0  0  0  0  0  0  0  0  0  0  0  0
   60.6810   27.1710   49.3080 O   0  0  0  0  0  0  0  0  0  0  0  0
   59.7980   28.8380   47.8690 C   0  0  0  0  0  0  0  0  0  0  0  0
   60.2000   29.9540   47.1120 C   0  0  0  0  0  0  0  0  0  0  0  0
   59.4640   30.3530   45.9940 C   0  0  0  0  0  0  0  0  0  0  0  0
   58.3250   29.6400   45.6050 C   0  0  0  0  0  0  0  0  0  0  0  0
   57.4050   30.1620   44.1960 S   0  0  0  0  0  0  0  0  0  0  0  0
   57.0850   28.9840   43.3180 O   0  0  0  0  0  0  0  0  0  0  0  0
   56.1200   30.7870   44.6610 O   0  0  0  0  0  0  0  0  0  0  0  0
   58.3120   31.3370   43.2880 N   0  0  0  0  0  0  0  0  0  0  0  0
   57.7080   32.6670   43.3900 C   0  0  0  0  0  0  0  0  0  0  0  0
   58.1310   33.3390   44.6670 C   0  0  0  0  0  0  0  0  0  0  0  0
   59.2010   34.2500   44.6750 C   0  0  0  0  0  0  0  0  0  0  0  0
   59.5800   34.8810   45.8640 C   0  0  0  0  0  0  0  0  0  0  0  0
   58.8940   34.6070   47.0510 C   0  0  0  0  0  0  0  0  0  0  0  0
   57.8310   33.6990   47.0510 C   0  0  0  0  0  0  0  0  0  0  0  0
   57.4490   33.0670   45.8640 C   0  0  0  0  0  0  0  0  0  0  0  0
   57.9240   28.5200   46.3460 C   0  0  0  0  0  0  0  0  0  0  0  0
   58.6570   28.1190   47.4660 C   0  0  0  0  0  0  0  0  0  0  0  0
   62.5010   31.4500   51.1480 N   0  0  0  0  0  0  0  0  0  0  0  0
   62.5600   32.0170   49.8310 C   0  0  0  0  0  0  0  0  0  0  0  0
   63.7460   31.9870   49.0730 C   0  0  0  0  0  0  0  0  0  0  0  0
   63.7720   32.5310   47.7840 C   0  0  0  0  0  0  0  0  0  0  0  0
   62.6190   33.0990   47.2380 C   0  0  0  0  0  0  0  0  0  0  0  0
   61.4320   33.1150   47.9750 C   0  0  0  0  0  0  0  0  0  0  0  0
   61.3940   32.5660   49.2640 C   0  0  0  0  0  0  0  0  0  0  0  0
   60.1670   32.6050   50.0050 N   0  0  0  0  0  0  0  0  0  0  0  0
   59.0490   31.7660   49.5760 C   0  0  0  0  0  0  0  0  0  0  0  0
   58.1170   31.5090   50.7620 C   0  0  0  0  0  0  0  0  0  0  0  0
   57.7480   32.7250   51.3850 O   0  0  0  0  0  0  0  0  0  0  0  0
   58.8890   33.3370   51.9580 C   0  0  0  0  0  0  0  0  0  0  0  0
   59.8890   33.7490   50.8730 C   0  0  0  0  0  0  0  0  0  0  0  0
   62.7194   28.1703   50.6823 H   0  0  0  0  0  0  0  0  0  0  0  0
   61.4413   28.6203   51.8864 H   0  0  0  0  0  0  0  0  0  0  0  0
   60.9290   30.3750   49.8600 H   0  0  0  0  0  0  0  0  0  0  0  0
   61.0999   30.5159   47.4027 H   0  0  0  0  0  0  0  0  0  0  0  0
   59.7819   31.2332   45.4159 H   0  0  0  0  0  0  0  0  0  0  0  0
   58.0313   33.2783   42.5346 H   0  0  0  0  0  0  0  0  0  0  0  0
   56.6130   32.5624   43.3879 H   0  0  0  0  0  0  0  0  0  0  0  0
   59.7424   34.4675   43.7425 H   0  0  0  0  0  0  0  0  0  0  0  0
   60.4183   35.5933   45.8654 H   0  0  0  0  0  0  0  0  0  0  0  0
   59.1908   35.1060   47.9853 H   0  0  0  0  0  0  0  0  0  0  0  0
   57.2944   33.4815   47.9863 H   0  0  0  0  0  0  0  0  0  0  0  0
   56.6113   32.3541   45.8677 H   0  0  0  0  0  0  0  0  0  0  0  0
   57.0295   27.9549   46.0450 H   0  0  0  0  0  0  0  0  0  0  0  0
   58.3398   27.2342   48.0374 H   0  0  0  0  0  0  0  0  0  0  0  0
   64.6552   31.5344   49.4954 H   0  0  0  0  0  0  0  0  0  0  0  0
   64.7034   32.5112   47.1991 H   0  0  0  0  0  0  0  0  0  0  0  0
   62.6452   33.5337   46.2279 H   0  0  0  0  0  0  0  0  0  0  0  0
   60.5241   33.5601   47.5420 H   0  0  0  0  0  0  0  0  0  0  0  0
   58.4925   32.2778   48.7770 H   0  0  0  0  0  0  0  0  0  0  0  0
   59.4347   30.8071   49.1994 H   0  0  0  0  0  0  0  0  0  0  0  0
   57.2110   30.9978   50.4043 H   0  0  0  0  0  0  0  0  0  0  0  0
   58.6456   30.8833   51.4962 H   0  0  0  0  0  0  0  0  0  0  0  0
   58.5759   34.2307   52.5177 H   0  0  0  0  0  0  0  0  0  0  0  0
   59.3759   32.6149   52.6299 H   0  0  0  0  0  0  0  0  0  0  0  0
   59.4637   34.5682   50.2747 H   0  0  0  0  0  0  0  0  0  0  0  0
   60.8236   34.0861   51.3452 H   0  0  0  0  0  0  0  0  0  0  0  0
  1  2  2  0
  2  3  1  0
  3  4  1  0
  4  5  1  0
  5  6  2  0
  5  7  1  0
  7  8  2  0
  8  9  1  0
  9 10  2  0
 10 11  1  0
 11 12  2  0
 11 13  2  0
 11 14  1  0
 14 15  1  0
 15 16  1  0
 16 17  2  0
 17 18  1  0
 18 19  2  0
 19 20  1  0
 20 21  2  0
 10 22  1  0
 22 23  2  0
  2 24  1  0
 24 25  1  0
 25 26  2  0
 26 27  1  0
 27 28  2  0
 28 29  1  0
 29 30  2  0
 30 31  1  0
 31 32  1  0
 32 33  1  0
 33 34  1  0
 34 35  1  0
 35 36  1  0
 23  7  1  0
 30 25  1  0
 36 31  1  0
 21 16  1  0
  3 37  1  0
  3 38  1  0
  4 39  1  0
  8 40  1  0
  9 41  1  0
 15 42  1  0
 15 43  1  0
 17 44  1  0
 18 45  1  0
 19 46  1  0
 20 47  1  0
 21 48  1  0
 22 49  1  0
 23 50  1  0
 26 51  1  0
 27 52  1  0
 28 53  1  0
 29 54  1  0
 32 55  1  0
 32 56  1  0
 33 57  1  0
 33 58  1  0
 35 59  1  0
 35 60  1  0
 36 61  1  0
 36 62  1  0
M  CHG  2  14  -1  24  -1
M  END
>  <UniqueID>  (32) 
31

>  <SMILES>  (32) 
O=C(CNC(=O)c1ccc(S(=O)(=O)[N-]Cc2ccccc2)cc1)[N-]c1ccccc1N1CCOCC1

>  <Energy>  (32) 
75.1243213831276

>  <Genealogy>  (32) 
O=C(CNC(=O)c1ccc(S(=O)(=O)[N-]Cc2ccccc2)cc1)[N-]c1ccccc1N1CCOCC1 (protonated)
O=C(CNC(=O)c1ccc(S(=O)(=O)[N-]Cc2ccccc2)cc1)[N-]c1ccccc1N1CCOCC1 (3D coordinates assigned)
O=C(CNC(=O)c1ccc(S(=O)(=O)[N-]Cc2ccccc2)cc1)[N-]c1ccccc1N1CCOCC1 (nonaromatic ring conformer: 75.1243213831276 kcal/mol)

>  <smiles>  (32) 
O=C(CNC(=O)c1ccc(S(=O)(=O)NCc2ccccc2)cc1)Nc1ccccc1N1CCOCC1

>  <score_type>  (32) 
oracle

>  <origin>  (32) 
adg

>  <m_score__min__energy>  (32) 
-11.92

>  <m_primary>  (32) 
energy

$$$$
32:0
     RDKit          3D

 40 43  0  0  0  0  0  0  0  0999 V2000
   57.2134   29.7891   43.0554 H   0  0  0  0  0  0  0  0  0  0  0  0
   57.0330   29.9720   44.1250 C   0  0  0  0  0  0  0  0  0  0  0  0
   57.5940   31.2030   44.7160 C   0  0  0  0  0  0  0  0  0  0  0  0
   57.7380   31.3980   45.9970 N   0  0  0  0  0  0  0  0  0  0  0  0
   58.3700   32.6710   46.1420 C   0  0  0  0  0  0  0  0  0  0  0  0
   58.6550   33.3300   47.3370 C   0  0  0  0  0  0  0  0  0  0  0  0
   58.4398   32.8599   48.3079 H   0  0  0  0  0  0  0  0  0  0  0  0
   59.2260   34.6140   47.2650 C   0  0  0  0  0  0  0  0  0  0  0  0
   59.4712   35.1550   48.1909 H   0  0  0  0  0  0  0  0  0  0  0  0
   59.4870   35.2140   46.0120 C   0  0  0  0  0  0  0  0  0  0  0  0
   59.9306   36.2196   45.9685 H   0  0  0  0  0  0  0  0  0  0  0  0
   59.1820   34.5310   44.8200 C   0  0  0  0  0  0  0  0  0  0  0  0
   59.3704   34.9884   43.8375 H   0  0  0  0  0  0  0  0  0  0  0  0
   58.6330   33.2550   44.9280 C   0  0  0  0  0  0  0  0  0  0  0  0
   58.1480   32.3190   43.9440 C   0  0  0  0  0  0  0  0  0  0  0  0
   58.1930   32.4350   42.6900 O   0  0  0  0  0  0  0  0  0  0  0  0
   56.3190   29.0620   44.8020 C   0  0  0  0  0  0  0  0  0  0  0  0
   55.2479   29.2556   44.9610 H   0  0  0  0  0  0  0  0  0  0  0  0
   56.8890   27.8170   45.3450 C   0  0  0  0  0  0  0  0  0  0  0  0
   56.1720   26.7870   45.9100 C   0  0  0  0  0  0  0  0  0  0  0  0
   54.7880   26.7140   46.0170 O   0  0  0  0  0  0  0  0  0  0  0  0
   57.0140   25.8460   46.3630 N   0  0  0  0  0  0  0  0  0  0  0  0
   56.7740   24.9530   46.8470 H   0  0  0  0  0  0  0  0  0  0  0  0
   58.2390   26.3340   46.0860 C   0  0  0  0  0  0  0  0  0  0  0  0
   59.3010   25.7450   46.4180 O   0  0  0  0  0  0  0  0  0  0  0  0
   58.2070   27.5260   45.4410 N   0  0  0  0  0  0  0  0  0  0  0  0
   59.3350   28.4320   45.1810 C   0  0  0  0  0  0  0  0  0  0  0  0
   60.1960   27.8406   44.8360 H   0  0  0  0  0  0  0  0  0  0  0  0
   59.0249   29.1572   44.4143 H   0  0  0  0  0  0  0  0  0  0  0  0
   59.7300   29.1950   46.4210 C   0  0  0  0  0  0  0  0  0  0  0  0
   60.7830   30.1230   46.3740 C   0  0  0  0  0  0  0  0  0  0  0  0
   61.3029   30.3125   45.4233 H   0  0  0  0  0  0  0  0  0  0  0  0
   61.1740   30.8070   47.5280 C   0  0  0  0  0  0  0  0  0  0  0  0
   62.0017   31.5302   47.4842 H   0  0  0  0  0  0  0  0  0  0  0  0
   60.5140   30.5730   48.7390 C   0  0  0  0  0  0  0  0  0  0  0  0
   60.8256   31.1087   49.6478 H   0  0  0  0  0  0  0  0  0  0  0  0
   59.4580   29.6580   48.7940 C   0  0  0  0  0  0  0  0  0  0  0  0
   58.9348   29.4785   49.7448 H   0  0  0  0  0  0  0  0  0  0  0  0
   59.0670   28.9710   47.6400 C   0  0  0  0  0  0  0  0  0  0  0  0
   58.2362   28.2516   47.6867 H   0  0  0  0  0  0  0  0  0  0  0  0
  1  2  1  0
  2  3  1  0
  3  4  2  0
  4  5  1  0
  5  6  2  0
  6  7  1  0
  6  8  1  0
  8  9  1  0
  8 10  2  0
 10 11  1  0
 10 12  1  0
 12 13  1  0
 12 14  2  0
 14 15  1  0
 15 16  2  0
  2 17  2  0
 17 18  1  0
 17 19  1  0
 19 20  2  0
 20 21  1  0
 20 22  1  0
 22 23  1  0
 22 24  1  0
 24 25  2  0
 24 26  1  0
 26 27  1  0
 27 28  1  0
 27 29  1  0
 27 30  1  0
 30 31  2  0
 31 32  1  0
 31 33  1  0
 33 34  1  0
 33 35  2  0
 35 36  1  0
 35 37  1  0
 37 38  1  0
 37 39  2  0
 39 40  1  0
 15  3  1  0
 26 19  1  0
 39 30  1  0
 14  5  1  0
M  CHG  1  21  -1
M  END
>  <UniqueID>  (33) 
32

>  <SMILES>  (33) 
O=C1C(/C=C\c2c([O-])[nH]c(=O)n2Cc2ccccc2)=Nc2ccccc21

>  <Energy>  (33) 
117.57374548517822

>  <Genealogy>  (33) 
O=C1C(C=Cc2c([O-])[nH]c(=O)n2Cc2ccccc2)=Nc2ccccc21 (protonated)
O=C1C(/C=C\c2c([O-])[nH]c(=O)n2Cc2ccccc2)=Nc2ccccc21 (cis-trans isomerization)
O=C1C(/C=C\c2c([O-])[nH]c(=O)n2Cc2ccccc2)=Nc2ccccc21 (3D coordinates assigned)
O=C1C(/C=C\c2c([O-])[nH]c(=O)n2Cc2ccccc2)=Nc2ccccc21 (nonaromatic ring conformer: 117.57374548517822 kcal/mol)

>  <smiles>  (33) 
O=C1C(C=Cc2c(O)[nH]c(=O)n2Cc2ccccc2)=Nc2ccccc21

>  <score_type>  (33) 
oracle

>  <origin>  (33) 
adg

>  <m_score__min__energy>  (33) 
-12.52

>  <m_primary>  (33) 
energy

$$$$
33:0
     RDKit          3D

 61 63  0  0  0  0  0  0  0  0999 V2000
   62.1400   33.5180   46.4860 C   0  0  0  0  0  0  0  0  0  0  0  0
   62.1200   32.4250   47.3980 O   0  0  0  0  0  0  0  0  0  0  0  0
   62.9740   32.2970   48.5060 C   0  0  0  0  0  0  0  0  0  0  0  0
   64.0080   33.2230   48.7520 C   0  0  0  0  0  0  0  0  0  0  0  0
   64.8490   33.0710   49.8570 C   0  0  0  0  0  0  0  0  0  0  0  0
   64.6720   31.9970   50.7280 C   0  0  0  0  0  0  0  0  0  0  0  0
   63.6540   31.0720   50.4980 C   0  0  0  0  0  0  0  0  0  0  0  0
   62.7950   31.2140   49.3950 C   0  0  0  0  0  0  0  0  0  0  0  0
   61.7230   30.1790   49.1710 C   0  0  0  0  0  0  0  0  0  0  0  0
   60.6280   30.3700   50.1150 N   0  0  0  0  0  0  0  0  0  0  0  0
   59.2450   30.2160   49.7740 C   0  0  0  0  0  0  0  0  0  0  0  0
   58.9040   29.9400   48.5930 O   0  0  0  0  0  0  0  0  0  0  0  0
   58.1970   30.3890   50.8260 C   0  0  0  0  0  0  0  0  0  0  0  0
   57.7110   32.1430   50.9900 S   0  0  0  0  0  0  0  0  0  0  0  0
   59.3240   32.7100   51.5590 C   0  0  0  0  0  0  0  0  0  0  0  0
   59.6930   32.4520   52.8870 C   0  0  0  0  0  0  0  0  0  0  0  0
   60.9540   32.8280   53.3550 C   0  0  0  0  0  0  0  0  0  0  0  0
   61.8540   33.4660   52.5020 C   0  0  0  0  0  0  0  0  0  0  0  0
   61.4920   33.7440   51.1820 C   0  0  0  0  0  0  0  0  0  0  0  0
   60.2220   33.3830   50.7000 C   0  0  0  0  0  0  0  0  0  0  0  0
   59.8460   33.7350   49.3170 C   0  0  0  0  0  0  0  0  0  0  0  0
   59.6760   34.9470   49.0150 O   0  0  0  0  0  0  0  0  0  0  0  0
   59.7310   32.7110   48.3170 N   0  0  0  0  0  0  0  0  0  0  0  0
   58.9950   32.8350   47.0850 C   0  0  0  0  0  0  0  0  0  0  0  0
   58.5600   34.0810   46.5940 C   0  0  0  0  0  0  0  0  0  0  0  0
   57.7820   34.1500   45.4350 C   0  0  0  0  0  0  0  0  0  0  0  0
   57.4020   32.9820   44.7720 C   0  0  0  0  0  0  0  0  0  0  0  0
   57.7980   31.7340   45.2660 C   0  0  0  0  0  0  0  0  0  0  0  0
   57.2480   30.2510   44.4850 S   0  0  0  0  0  0  0  0  0  0  0  0
   57.2780   30.4370   42.9930 O   0  0  0  0  0  0  0  0  0  0  0  0
   55.8270   29.9740   44.8910 O   0  0  0  0  0  0  0  0  0  0  0  0
   58.2580   28.8920   44.9160 N   0  0  0  0  0  0  0  0  0  0  0  0
   59.6720   29.2640   44.7910 C   0  0  0  0  0  0  0  0  0  0  0  0
   57.9580   27.7500   44.0420 C   0  0  0  0  0  0  0  0  0  0  0  0
   58.5980   31.6660   46.4150 C   0  0  0  0  0  0  0  0  0  0  0  0
   62.1573   34.4638   47.0475 H   0  0  0  0  0  0  0  0  0  0  0  0
   63.0371   33.4510   45.8529 H   0  0  0  0  0  0  0  0  0  0  0  0
   61.2411   33.4838   45.8529 H   0  0  0  0  0  0  0  0  0  0  0  0
   64.1538   34.0722   48.0682 H   0  0  0  0  0  0  0  0  0  0  0  0
   65.6522   33.7999   50.0402 H   0  0  0  0  0  0  0  0  0  0  0  0
   65.3357   31.8791   51.5972 H   0  0  0  0  0  0  0  0  0  0  0  0
   63.5223   30.2239   51.1860 H   0  0  0  0  0  0  0  0  0  0  0  0
   61.3376   30.2723   48.1449 H   0  0  0  0  0  0  0  0  0  0  0  0
   62.1549   29.1788   49.3226 H   0  0  0  0  0  0  0  0  0  0  0  0
   57.3123   29.7953   50.5525 H   0  0  0  0  0  0  0  0  0  0  0  0
   58.6088   30.0496   51.7879 H   0  0  0  0  0  0  0  0  0  0  0  0
   58.9854   31.9507   53.5638 H   0  0  0  0  0  0  0  0  0  0  0  0
   61.2375   32.6207   54.3974 H   0  0  0  0  0  0  0  0  0  0  0  0
   62.8509   33.7509   52.8694 H   0  0  0  0  0  0  0  0  0  0  0  0
   62.2060   34.2491   50.5148 H   0  0  0  0  0  0  0  0  0  0  0  0
   60.1690   31.7840   48.5220 H   0  0  0  0  0  0  0  0  0  0  0  0
   58.8338   35.0045   47.1252 H   0  0  0  0  0  0  0  0  0  0  0  0
   57.4678   35.1289   45.0437 H   0  0  0  0  0  0  0  0  0  0  0  0
   56.7903   33.0426   43.8598 H   0  0  0  0  0  0  0  0  0  0  0  0
   60.1107   29.3794   45.7931 H   0  0  0  0  0  0  0  0  0  0  0  0
   60.2111   28.4771   44.2431 H   0  0  0  0  0  0  0  0  0  0  0  0
   59.7541   30.2143   44.2431 H   0  0  0  0  0  0  0  0  0  0  0  0
   57.7264   26.8682   44.6574 H   0  0  0  0  0  0  0  0  0  0  0  0
   57.0928   27.9915   43.4071 H   0  0  0  0  0  0  0  0  0  0  0  0
   58.8302   27.5351   43.4071 H   0  0  0  0  0  0  0  0  0  0  0  0
   58.9187   30.6854   46.7966 H   0  0  0  0  0  0  0  0  0  0  0  0
  1  2  1  0
  2  3  1  0
  3  4  2  0
  4  5  1  0
  5  6  2  0
  6  7  1  0
  7  8  2  0
  8  9  1  0
  9 10  1  0
 10 11  1  0
 11 12  2  0
 11 13  1  0
 13 14  1  0
 14 15  1  0
 15 16  2  0
 16 17  1  0
 17 18  2  0
 18 19  1  0
 19 20  2  0
 20 21  1  0
 21 22  2  0
 21 23  1  0
 23 24  1  0
 24 25  2  0
 25 26  1  0
 26 27  2  0
 27 28  1  0
 28 29  1  0
 29 30  2  0
 29 31  2  0
 29 32  1  0
 32 33  1  0
 32 34  1  0
 28 35  2  0
  8  3  1  0
 20 15  1  0
 35 24  1  0
  1 36  1  0
  1 37  1  0
  1 38  1  0
  4 39  1  0
  5 40  1  0
  6 41  1  0
  7 42  1  0
  9 43  1  0
  9 44  1  0
 13 45  1  0
 13 46  1  0
 16 47  1  0
 17 48  1  0
 18 49  1  0
 19 50  1  0
 23 51  1  0
 25 52  1  0
 26 53  1  0
 27 54  1  0
 33 55  1  0
 33 56  1  0
 33 57  1  0
 34 58  1  0
 34 59  1  0
 34 60  1  0
 35 61  1  0
M  CHG  1  10  -1
M  END
>  <UniqueID>  (34) 
33

>  <SMILES>  (34) 
COc1ccccc1C[N-]C(=O)CSc1ccccc1C(=O)Nc1cccc(S(=O)(=O)N(C)C)c1

>  <Energy>  (34) 
56.13525489328766

>  <Genealogy>  (34) 
COc1ccccc1C[N-]C(=O)CSc1ccccc1C(=O)Nc1cccc(S(=O)(=O)N(C)C)c1 (protonated)
COc1ccccc1C[N-]C(=O)CSc1ccccc1C(=O)Nc1cccc(S(=O)(=O)N(C)C)c1 (3D coordinates assigned)
COc1ccccc1C[N-]C(=O)CSc1ccccc1C(=O)Nc1cccc(S(=O)(=O)N(C)C)c1 (optimized conformer: 56.13525489328766 kcal/mol)

>  <smiles>  (34) 
COc1ccccc1CNC(=O)CSc1ccccc1C(=O)Nc1cccc(S(=O)(=O)N(C)C)c1

>  <score_type>  (34) 
oracle

>  <origin>  (34) 
adg

>  <m_score__min__energy>  (34) 
-11.26

>  <m_primary>  (34) 
energy

$$$$
34:0
     RDKit          3D

 46 48  0  0  0  0  0  0  0  0999 V2000
   60.9400   26.7430   47.6690 O   0  0  0  0  0  0  0  0  0  0  0  0
   60.3090   27.8200   47.8310 C   0  0  0  0  0  0  0  0  0  0  0  0
   60.9000   28.8420   48.6450 N   0  0  0  0  0  0  0  0  0  0  0  0
   60.1900   29.7630   49.4830 C   0  0  0  0  0  0  0  0  0  0  0  0
   60.8310   30.9360   49.8990 C   0  0  0  0  0  0  0  0  0  0  0  0
   60.1720   31.8430   50.7340 C   0  0  0  0  0  0  0  0  0  0  0  0
   58.8740   31.5720   51.1760 C   0  0  0  0  0  0  0  0  0  0  0  0
   58.2330   30.3880   50.7880 C   0  0  0  0  0  0  0  0  0  0  0  0
   56.9530   30.0920   51.2480 O   0  0  0  0  0  0  0  0  0  0  0  0
   58.8890   29.4880   49.9400 C   0  0  0  0  0  0  0  0  0  0  0  0
   59.0270   28.0360   47.1090 C   0  0  0  0  0  0  0  0  0  0  0  0
   58.7870   29.2570   46.4530 C   0  0  0  0  0  0  0  0  0  0  0  0
   57.6160   29.4600   45.7090 C   0  0  0  0  0  0  0  0  0  0  0  0
   57.3410   31.0250   44.9350 S   0  0  0  0  0  0  0  0  0  0  0  0
   55.9630   31.0810   44.3330 O   0  0  0  0  0  0  0  0  0  0  0  0
   58.3400   31.2140   43.8280 O   0  0  0  0  0  0  0  0  0  0  0  0
   57.5730   32.2860   46.1120 N   0  0  0  0  0  0  0  0  0  0  0  0
   57.5500   33.6190   45.5070 C   0  0  0  0  0  0  0  0  0  0  0  0
   58.9770   34.0690   45.1900 C   0  0  0  0  0  0  0  0  0  0  0  0
   59.8270   34.0810   46.4340 C   0  0  0  0  0  0  0  0  0  0  0  0
   61.1930   33.7560   46.3610 C   0  0  0  0  0  0  0  0  0  0  0  0
   61.9930   33.8080   47.5050 C   0  0  0  0  0  0  0  0  0  0  0  0
   61.4390   34.1890   48.7300 C   0  0  0  0  0  0  0  0  0  0  0  0
   60.0850   34.5250   48.8100 C   0  0  0  0  0  0  0  0  0  0  0  0
   59.2820   34.4780   47.6660 C   0  0  0  0  0  0  0  0  0  0  0  0
   56.6720   28.4240   45.6130 C   0  0  0  0  0  0  0  0  0  0  0  0
   55.5090   28.5840   44.8700 O   0  0  0  0  0  0  0  0  0  0  0  0
   56.8970   27.2110   46.2690 C   0  0  0  0  0  0  0  0  0  0  0  0
   58.0630   27.0130   47.0150 C   0  0  0  0  0  0  0  0  0  0  0  0
   58.2450   25.7970   47.6650 O   0  0  0  0  0  0  0  0  0  0  0  0
   61.8587   31.1451   49.5671 H   0  0  0  0  0  0  0  0  0  0  0  0
   60.6754   32.7708   51.0435 H   0  0  0  0  0  0  0  0  0  0  0  0
   58.3551   32.2890   51.8292 H   0  0  0  0  0  0  0  0  0  0  0  0
   56.7140   29.1720   51.5960 H   0  0  0  0  0  0  0  0  0  0  0  0
   58.3843   28.5612   49.6297 H   0  0  0  0  0  0  0  0  0  0  0  0
   59.5297   30.0653   46.5248 H   0  0  0  0  0  0  0  0  0  0  0  0
   56.9619   33.5882   44.5779 H   0  0  0  0  0  0  0  0  0  0  0  0
   57.0932   34.3297   46.2115 H   0  0  0  0  0  0  0  0  0  0  0  0
   59.4189   33.3761   44.4588 H   0  0  0  0  0  0  0  0  0  0  0  0
   58.9404   35.0891   44.7800 H   0  0  0  0  0  0  0  0  0  0  0  0
   61.6341   33.4592   45.3980 H   0  0  0  0  0  0  0  0  0  0  0  0
   63.0601   33.5488   47.4415 H   0  0  0  0  0  0  0  0  0  0  0  0
   62.0687   34.2244   49.6312 H   0  0  0  0  0  0  0  0  0  0  0  0
   59.6501   34.8269   49.7742 H   0  0  0  0  0  0  0  0  0  0  0  0
   58.2190   34.7532   47.7314 H   0  0  0  0  0  0  0  0  0  0  0  0
   56.1511   26.4056   46.1980 H   0  0  0  0  0  0  0  0  0  0  0  0
  1  2  2  0
  2  3  1  0
  3  4  1  0
  4  5  2  0
  5  6  1  0
  6  7  2  0
  7  8  1  0
  8  9  1  0
  8 10  2  0
  2 11  1  0
 11 12  2  0
 12 13  1  0
 13 14  1  0
 14 15  2  0
 14 16  2  0
 14 17  1  0
 17 18  1  0
 18 19  1  0
 19 20  1  0
 20 21  2  0
 21 22  1  0
 22 23  2  0
 23 24  1  0
 24 25  2  0
 13 26  2  0
 26 27  1  0
 26 28  1  0
 28 29  2  0
 29 30  1  0
 10  4  1  0
 29 11  1  0
 25 20  1  0
  5 31  1  0
  6 32  1  0
  7 33  1  0
  9 34  1  0
 10 35  1  0
 12 36  1  0
 18 37  1  0
 18 38  1  0
 19 39  1  0
 19 40  1  0
 21 41  1  0
 22 42  1  0
 23 43  1  0
 24 44  1  0
 25 45  1  0
 28 46  1  0
M  CHG  4   3  -1  17  -1  27  -1  30  -1
M  END
>  <UniqueID>  (35) 
34

>  <SMILES>  (35) 
O=C([N-]c1cccc(O)c1)c1cc(S(=O)(=O)[N-]CCc2ccccc2)c([O-])cc1[O-]

>  <Energy>  (35) 
50.492133594411165

>  <Genealogy>  (35) 
O=C([N-]c1cccc(O)c1)c1cc(S(=O)(=O)[N-]CCc2ccccc2)c([O-])cc1[O-] (protonated)
O=C([N-]c1cccc(O)c1)c1cc(S(=O)(=O)[N-]CCc2ccccc2)c([O-])cc1[O-] (3D coordinates assigned)
O=C([N-]c1cccc(O)c1)c1cc(S(=O)(=O)[N-]CCc2ccccc2)c([O-])cc1[O-] (optimized conformer: 50.492133594411165 kcal/mol)

>  <smiles>  (35) 
O=C(Nc1cccc(O)c1)c1cc(S(=O)(=O)NCCc2ccccc2)c(O)cc1O

>  <score_type>  (35) 
oracle

>  <origin>  (35) 
adg

>  <m_score__min__energy>  (35) 
-15.58

>  <m_primary>  (35) 
energy

$$$$
35:0
     RDKit          3D

 47 51  0  0  0  0  0  0  0  0999 V2000
   59.3877   27.4641   45.4529 H   0  0  0  0  0  0  0  0  0  0  0  0
   58.4340   27.9450   45.7160 C   0  0  0  0  0  0  0  0  0  0  0  0
   57.2580   27.0670   45.8780 C   0  0  0  0  0  0  0  0  0  0  0  0
   57.2720   25.8300   46.4060 N   0  0  0  0  0  0  0  0  0  0  0  0
   55.9690   25.4800   46.4250 C   0  0  0  0  0  0  0  0  0  0  0  0
   55.5730   24.3630   46.8490 O   0  0  0  0  0  0  0  0  0  0  0  0
   55.1220   26.4250   45.9640 N   0  0  0  0  0  0  0  0  0  0  0  0
   55.9550   27.4250   45.6320 C   0  0  0  0  0  0  0  0  0  0  0  0
   55.5300   28.6430   45.1160 O   0  0  0  0  0  0  0  0  0  0  0  0
   58.4400   29.2790   45.8620 C   0  0  0  0  0  0  0  0  0  0  0  0
   58.4600   30.2050   44.8170 C   0  0  0  0  0  0  0  0  0  0  0  0
   58.4454   29.9463   43.7480 H   0  0  0  0  0  0  0  0  0  0  0  0
   58.5000   31.4670   45.3070 N   0  0  0  0  0  0  0  0  0  0  0  0
   58.5090   31.3610   46.6250 N   0  0  0  0  0  0  0  0  0  0  0  0
   58.5950   32.3600   47.5360 C   0  0  0  0  0  0  0  0  0  0  0  0
   58.6530   33.6000   47.1550 N   0  0  0  0  0  0  0  0  0  0  0  0
   59.7290   34.1340   46.3250 C   0  0  0  0  0  0  0  0  0  0  0  0
   60.5181   33.4335   46.6361 H   0  0  0  0  0  0  0  0  0  0  0  0
   59.6540   35.6340   46.1190 C   0  0  0  0  0  0  0  0  0  0  0  0
   58.8966   36.2259   46.6538 H   0  0  0  0  0  0  0  0  0  0  0  0
   60.3657   36.4684   46.2048 H   0  0  0  0  0  0  0  0  0  0  0  0
   59.2330   34.6870   45.0040 C   0  0  0  0  0  0  0  0  0  0  0  0
   58.1711   34.5941   44.7324 H   0  0  0  0  0  0  0  0  0  0  0  0
   59.5140   34.5527   43.9490 H   0  0  0  0  0  0  0  0  0  0  0  0
   58.6460   32.0210   48.8560 N   0  0  0  0  0  0  0  0  0  0  0  0
   58.6350   30.7080   49.2340 C   0  0  0  0  0  0  0  0  0  0  0  0
   58.7740   30.2830   50.9670 S   0  0  0  0  0  0  0  0  0  0  0  0
   60.5680   29.9320   50.8940 C   0  0  0  0  0  0  0  0  0  0  0  0
   60.7233   28.9451   50.4336 H   0  0  0  0  0  0  0  0  0  0  0  0
   60.9706   29.9465   51.9176 H   0  0  0  0  0  0  0  0  0  0  0  0
   61.2870   30.9740   50.0800 C   0  0  0  0  0  0  0  0  0  0  0  0
   61.8000   30.6580   48.8130 C   0  0  0  0  0  0  0  0  0  0  0  0
   61.7352   29.6256   48.4390 H   0  0  0  0  0  0  0  0  0  0  0  0
   62.3930   31.6470   48.0230 C   0  0  0  0  0  0  0  0  0  0  0  0
   62.7892   31.3903   47.0295 H   0  0  0  0  0  0  0  0  0  0  0  0
   62.4850   32.9700   48.4940 C   0  0  0  0  0  0  0  0  0  0  0  0
   63.0530   34.0010   47.7320 O   0  0  0  0  0  0  0  0  0  0  0  0
   63.3340   33.9090   46.3400 C   0  0  0  0  0  0  0  0  0  0  0  0
   64.3705   33.5696   46.1968 H   0  0  0  0  0  0  0  0  0  0  0  0
   62.6449   33.1896   45.8736 H   0  0  0  0  0  0  0  0  0  0  0  0
   63.2038   34.8967   45.8736 H   0  0  0  0  0  0  0  0  0  0  0  0
   61.9870   33.2790   49.7660 C   0  0  0  0  0  0  0  0  0  0  0  0
   62.0675   34.3070   50.1489 H   0  0  0  0  0  0  0  0  0  0  0  0
   61.3880   32.2900   50.5530 C   0  0  0  0  0  0  0  0  0  0  0  0
   60.9943   32.5459   51.5477 H   0  0  0  0  0  0  0  0  0  0  0  0
   58.5610   29.7200   48.2970 N   0  0  0  0  0  0  0  0  0  0  0  0
   58.4770   30.0770   46.9940 C   0  0  0  0  0  0  0  0  0  0  0  0
  1  2  1  0
  2  3  1  0
  3  4  1  0
  4  5  1  0
  5  6  2  0
  5  7  1  0
  7  8  1  0
  8  9  1  0
  2 10  2  3
 10 11  1  0
 11 12  1  0
 11 13  2  0
 13 14  1  0
 14 15  1  0
 15 16  2  0
 16 17  1  0
 17 18  1  0
 17 19  1  0
 19 20  1  0
 19 21  1  0
 19 22  1  0
 22 23  1  0
 22 24  1  0
 15 25  1  0
 25 26  2  0
 26 27  1  0
 27 28  1  0
 28 29  1  0
 28 30  1  0
 28 31  1  0
 31 32  2  0
 32 33  1  0
 32 34  1  0
 34 35  1  0
 34 36  2  0
 36 37  1  0
 37 38  1  0
 38 39  1  0
 38 40  1  0
 38 41  1  0
 36 42  1  0
 42 43  1  0
 42 44  2  0
 44 45  1  0
 26 46  1  0
 46 47  2  0
  8  3  2  0
 47 10  1  0
 47 14  1  0
 22 17  1  0
 44 31  1  0
M  CHG  3   4  -1   7  -1   9  -1
M  END
>  <UniqueID>  (36) 
35

>  <SMILES>  (36) 
COc1ccc(CSc2n/c(=N\C3CC3)n3ncc(=Cc4[n-]c(=O)[n-]c4[O-])c3n2)cc1

>  <Energy>  (36) 
381.884610104634

>  <Genealogy>  (36) 
COc1ccc(CSc2nc(=NC3CC3)n3ncc(=Cc4[n-]c(=O)[n-]c4[O-])c3n2)cc1 (protonated)
COc1ccc(CSc2n/c(=N\C3CC3)n3ncc(=Cc4[n-]c(=O)[n-]c4[O-])c3n2)cc1 (cis-trans isomerization)
COc1ccc(CSc2n/c(=N\C3CC3)n3ncc(=Cc4[n-]c(=O)[n-]c4[O-])c3n2)cc1 (3D coordinates assigned)
COc1ccc(CSc2n/c(=N\C3CC3)n3ncc(=Cc4[n-]c(=O)[n-]c4[O-])c3n2)cc1 (nonaromatic ring conformer: 381.884610104634 kcal/mol)

>  <smiles>  (36) 
COc1ccc(CSc2nc(=NC3CC3)n3ncc(=Cc4[nH]c(=O)[nH]c4O)c3n2)cc1

>  <score_type>  (36) 
oracle

>  <origin>  (36) 
adg

>  <m_score__min__energy>  (36) 
-17.149999999999999

>  <m_primary>  (36) 
energy

$$$$
36:0
     RDKit          3D

 51 53  0  0  0  0  0  0  0  0999 V2000
   57.9160   32.5810   53.2050 C   0  0  0  0  0  0  0  0  0  0  0  0
   57.1750   31.7630   52.1810 C   0  0  0  0  0  0  0  0  0  0  0  0
   57.5040   31.9060   50.8830 C   0  0  0  0  0  0  0  0  0  0  0  0
   58.4290   31.0180   50.1390 C   0  0  0  0  0  0  0  0  0  0  0  0
   58.7160   29.7460   50.6390 C   0  0  0  0  0  0  0  0  0  0  0  0
   58.0780   29.2750   51.7840 O   0  0  0  0  0  0  0  0  0  0  0  0
   59.6190   28.9590   50.0030 N   0  0  0  0  0  0  0  0  0  0  0  0
   60.2730   29.3800   48.8920 C   0  0  0  0  0  0  0  0  0  0  0  0
   61.0990   28.6010   48.3430 O   0  0  0  0  0  0  0  0  0  0  0  0
   60.0370   30.6320   48.3800 N   0  0  0  0  0  0  0  0  0  0  0  0
   60.7440   31.0910   47.1650 C   0  0  0  0  0  0  0  0  0  0  0  0
   60.6170   30.0690   46.0270 C   0  0  0  0  0  0  0  0  0  0  0  0
   59.1770   29.7770   45.7010 C   0  0  0  0  0  0  0  0  0  0  0  0
   58.6170   28.5290   46.0240 C   0  0  0  0  0  0  0  0  0  0  0  0
   57.2690   28.2710   45.7520 C   0  0  0  0  0  0  0  0  0  0  0  0
   56.4710   29.2580   45.1650 C   0  0  0  0  0  0  0  0  0  0  0  0
   55.1320   28.9990   44.8970 O   0  0  0  0  0  0  0  0  0  0  0  0
   57.0180   30.5050   44.8540 C   0  0  0  0  0  0  0  0  0  0  0  0
   58.3650   30.7660   45.1230 C   0  0  0  0  0  0  0  0  0  0  0  0
   59.1250   31.4550   48.9960 C   0  0  0  0  0  0  0  0  0  0  0  0
   58.9230   32.6200   48.5530 O   0  0  0  0  0  0  0  0  0  0  0  0
   56.2210   30.7340   52.6570 C   0  0  0  0  0  0  0  0  0  0  0  0
   56.2090   30.4120   53.8770 O   0  0  0  0  0  0  0  0  0  0  0  0
   55.3570   30.0650   51.7310 N   0  0  0  0  0  0  0  0  0  0  0  0
   54.0770   29.4740   52.1060 C   0  0  0  0  0  0  0  0  0  0  0  0
   53.0060   30.5320   52.1600 C   0  0  0  0  0  0  0  0  0  0  0  0
   52.3380   30.7910   53.3670 C   0  0  0  0  0  0  0  0  0  0  0  0
   51.3570   31.7850   53.4290 C   0  0  0  0  0  0  0  0  0  0  0  0
   51.0370   32.5280   52.2880 C   0  0  0  0  0  0  0  0  0  0  0  0
   50.0610   33.5150   52.3580 O   0  0  0  0  0  0  0  0  0  0  0  0
   51.7030   32.2770   51.0820 C   0  0  0  0  0  0  0  0  0  0  0  0
   51.3900   33.0150   49.9470 O   0  0  0  0  0  0  0  0  0  0  0  0
   52.6850   31.2830   51.0180 C   0  0  0  0  0  0  0  0  0  0  0  0
   57.6229   32.2574   54.2147 H   0  0  0  0  0  0  0  0  0  0  0  0
   58.9989   32.4386   53.0742 H   0  0  0  0  0  0  0  0  0  0  0  0
   57.6676   33.6446   53.0742 H   0  0  0  0  0  0  0  0  0  0  0  0
   57.0523   32.7450   50.3334 H   0  0  0  0  0  0  0  0  0  0  0  0
   58.0590   29.8260   52.6320 H   0  0  0  0  0  0  0  0  0  0  0  0
   60.3104   32.0475   46.8378 H   0  0  0  0  0  0  0  0  0  0  0  0
   61.8103   31.2101   47.4076 H   0  0  0  0  0  0  0  0  0  0  0  0
   61.1115   30.4705   45.1302 H   0  0  0  0  0  0  0  0  0  0  0  0
   61.0924   29.1319   46.3523 H   0  0  0  0  0  0  0  0  0  0  0  0
   59.2403   27.7528   46.4920 H   0  0  0  0  0  0  0  0  0  0  0  0
   56.8364   27.2906   46.0002 H   0  0  0  0  0  0  0  0  0  0  0  0
   56.3883   31.2826   44.3969 H   0  0  0  0  0  0  0  0  0  0  0  0
   58.7907   31.7509   44.8806 H   0  0  0  0  0  0  0  0  0  0  0  0
   53.7975   28.7129   51.3626 H   0  0  0  0  0  0  0  0  0  0  0  0
   54.1742   29.0134   53.1002 H   0  0  0  0  0  0  0  0  0  0  0  0
   52.5872   30.2099   54.2671 H   0  0  0  0  0  0  0  0  0  0  0  0
   50.8357   31.9832   54.3771 H   0  0  0  0  0  0  0  0  0  0  0  0
   53.2076   31.0890   50.0697 H   0  0  0  0  0  0  0  0  0  0  0  0
  1  2  1  0
  2  3  2  3
  3  4  1  0
  4  5  2  0
  5  6  1  0
  5  7  1  0
  7  8  1  0
  8  9  2  0
  8 10  1  0
 10 11  1  0
 11 12  1  0
 12 13  1  0
 13 14  2  0
 14 15  1  0
 15 16  2  0
 16 17  1  0
 16 18  1  0
 18 19  2  0
 10 20  1  0
 20 21  2  0
  2 22  1  0
 22 23  2  0
 22 24  1  0
 24 25  1  0
 25 26  1  0
 26 27  2  0
 27 28  1  0
 28 29  2  0
 29 30  1  0
 29 31  1  0
 31 32  1  0
 31 33  2  0
 20  4  1  0
 33 26  1  0
 19 13  1  0
  1 34  1  0
  1 35  1  0
  1 36  1  0
  3 37  1  0
  6 38  1  0
 11 39  1  0
 11 40  1  0
 12 41  1  0
 12 42  1  0
 14 43  1  0
 15 44  1  0
 18 45  1  0
 19 46  1  0
 25 47  1  0
 25 48  1  0
 27 49  1  0
 28 50  1  0
 33 51  1  0
M  CHG  5   7  -1  17  -1  24  -1  30  -1  32  -1
M  END
>  <UniqueID>  (37) 
36

>  <SMILES>  (37) 
CC(=Cc1c(O)[n-]c(=O)n(CCc2ccc([O-])cc2)c1=O)C(=O)[N-]Cc1ccc([O-])c([O-])c1

>  <Energy>  (37) 
60.76859714237279

>  <Genealogy>  (37) 
CC(=Cc1c(O)[n-]c(=O)n(CCc2ccc([O-])cc2)c1=O)C(=O)[N-]Cc1ccc([O-])c([O-])c1 (protonated)
CC(=Cc1c(O)[n-]c(=O)n(CCc2ccc([O-])cc2)c1=O)C(=O)[N-]Cc1ccc([O-])c([O-])c1 (3D coordinates assigned)
CC(=Cc1c(O)[n-]c(=O)n(CCc2ccc([O-])cc2)c1=O)C(=O)[N-]Cc1ccc([O-])c([O-])c1 (optimized conformer: 60.76859714237279 kcal/mol)

>  <smiles>  (37) 
CC(=Cc1c(O)[nH]c(=O)n(CCc2ccc(O)cc2)c1=O)C(=O)NCc1ccc(O)c(O)c1

>  <score_type>  (37) 
oracle

>  <origin>  (37) 
adg

>  <m_score__min__energy>  (37) 
-22.649999999999999

>  <m_primary>  (37) 
energy

$$$$
37:0
     RDKit          3D

 34 36  0  0  0  0  0  0  0  0999 V2000
   61.0150   29.3440   45.2950 O   0  0  0  0  0  0  0  0  0  0  0  0
   60.0970   29.6530   46.0990 C   0  0  0  0  0  0  0  0  0  0  0  0
   60.4140   30.4390   47.2550 N   0  0  0  0  0  0  0  0  0  0  0  0
   59.5010   31.3710   47.9150 C   0  0  0  0  0  0  0  0  0  0  0  0
   59.1600   32.5330   47.0120 C   0  0  0  0  0  0  0  0  0  0  0  0
   57.8250   32.7320   46.6150 C   0  0  0  0  0  0  0  0  0  0  0  0
   57.4930   33.7640   45.7350 C   0  0  0  0  0  0  0  0  0  0  0  0
   58.4850   34.6170   45.2510 C   0  0  0  0  0  0  0  0  0  0  0  0
   59.8110   34.4470   45.6550 C   0  0  0  0  0  0  0  0  0  0  0  0
   60.1560   33.4140   46.5350 C   0  0  0  0  0  0  0  0  0  0  0  0
   61.8430   33.2510   47.0120 Cl  0  0  0  0  0  0  0  0  0  0  0  0
   58.7160   29.2180   45.8160 C   0  0  0  0  0  0  0  0  0  0  0  0
   57.8610   30.0990   45.1490 C   0  0  0  0  0  0  0  0  0  0  0  0
   56.5610   29.7030   44.8350 C   0  0  0  0  0  0  0  0  0  0  0  0
   55.7930   30.5010   44.2340 O   0  0  0  0  0  0  0  0  0  0  0  0
   56.1210   28.4590   45.1710 N   0  0  0  0  0  0  0  0  0  0  0  0
   56.9260   27.5650   45.8170 C   0  0  0  0  0  0  0  0  0  0  0  0
   56.4560   26.2750   46.1240 C   0  0  0  0  0  0  0  0  0  0  0  0
   55.1930   25.9020   45.7970 F   0  0  0  0  0  0  0  0  0  0  0  0
   57.2920   25.3550   46.7600 C   0  0  0  0  0  0  0  0  0  0  0  0
   58.5980   25.7080   47.1000 C   0  0  0  0  0  0  0  0  0  0  0  0
   59.0790   26.9850   46.8080 C   0  0  0  0  0  0  0  0  0  0  0  0
   58.2530   27.9300   46.1650 C   0  0  0  0  0  0  0  0  0  0  0  0
   58.5754   30.8392   48.1805 H   0  0  0  0  0  0  0  0  0  0  0  0
   59.9949   31.7633   48.8162 H   0  0  0  0  0  0  0  0  0  0  0  0
   57.0365   32.0693   47.0010 H   0  0  0  0  0  0  0  0  0  0  0  0
   56.4476   33.9046   45.4229 H   0  0  0  0  0  0  0  0  0  0  0  0
   58.2227   35.4239   44.5509 H   0  0  0  0  0  0  0  0  0  0  0  0
   60.5887   35.1284   45.2798 H   0  0  0  0  0  0  0  0  0  0  0  0
   58.2127   31.1037   44.8718 H   0  0  0  0  0  0  0  0  0  0  0  0
   55.1440   28.1930   44.9140 H   0  0  0  0  0  0  0  0  0  0  0  0
   56.9189   24.3470   46.9940 H   0  0  0  0  0  0  0  0  0  0  0  0
   59.2509   24.9774   47.5999 H   0  0  0  0  0  0  0  0  0  0  0  0
   60.1094   27.2563   47.0812 H   0  0  0  0  0  0  0  0  0  0  0  0
  1  2  2  0
  2  3  1  0
  3  4  1  0
  4  5  1  0
  5  6  2  0
  6  7  1  0
  7  8  2  0
  8  9  1  0
  9 10  2  0
 10 11  1  0
  2 12  1  0
 12 13  2  0
 13 14  1  0
 14 15  2  0
 14 16  1  0
 16 17  1  0
 17 18  2  0
 18 19  1  0
 18 20  1  0
 20 21  2  0
 21 22  1  0
 22 23  2  0
 10  5  1  0
 23 12  1  0
 23 17  1  0
  4 24  1  0
  4 25  1  0
  6 26  1  0
  7 27  1  0
  8 28  1  0
  9 29  1  0
 13 30  1  0
 16 31  1  0
 20 32  1  0
 21 33  1  0
 22 34  1  0
M  CHG  1   3  -1
M  END
>  <UniqueID>  (38) 
37

>  <SMILES>  (38) 
O=C([N-]Cc1ccccc1Cl)c1cc(=O)[nH]c2c(F)cccc12

>  <Energy>  (38) 
44.60990019602595

>  <Genealogy>  (38) 
O=C([N-]Cc1ccccc1Cl)c1cc(=O)[nH]c2c(F)cccc12 (protonated)
O=C([N-]Cc1ccccc1Cl)c1cc(=O)[nH]c2c(F)cccc12 (3D coordinates assigned)
O=C([N-]Cc1ccccc1Cl)c1cc(=O)[nH]c2c(F)cccc12 (optimized conformer: 44.60990019602595 kcal/mol)

>  <smiles>  (38) 
O=C(NCc1ccccc1Cl)c1cc(=O)[nH]c2c(F)cccc12

>  <score_type>  (38) 
oracle

>  <origin>  (38) 
adg

>  <m_score__min__energy>  (38) 
-9.0999999999999996

>  <m_primary>  (38) 
energy

$$$$
38:0
     RDKit          3D

 36 37  0  0  0  0  0  0  0  0999 V2000
   58.2430   26.1570   47.8620 O   0  0  0  0  0  0  0  0  0  0  0  0
   58.5520   26.5280   46.7390 C   0  0  0  0  0  0  0  0  0  0  0  0
   58.8450   27.9830   46.4920 C   0  0  0  0  0  0  0  0  0  0  0  0
   57.5510   28.8030   46.4870 C   0  0  0  0  0  0  0  0  0  0  0  0
   57.4620   29.6460   45.2360 C   0  0  0  0  0  0  0  0  0  0  0  0
   56.2650   29.6990   44.4930 C   0  0  0  0  0  0  0  0  0  0  0  0
   55.1530   28.9600   44.8850 O   0  0  0  0  0  0  0  0  0  0  0  0
   56.1790   30.5020   43.3510 C   0  0  0  0  0  0  0  0  0  0  0  0
   57.2750   31.2650   42.9450 C   0  0  0  0  0  0  0  0  0  0  0  0
   58.4600   31.2350   43.6820 C   0  0  0  0  0  0  0  0  0  0  0  0
   58.5600   30.4350   44.8290 C   0  0  0  0  0  0  0  0  0  0  0  0
   59.7440   30.4260   45.5680 O   0  0  0  0  0  0  0  0  0  0  0  0
   58.6160   25.5270   45.6150 C   0  0  0  0  0  0  0  0  0  0  0  0
   57.4200   25.6330   44.7000 C   0  0  0  0  0  0  0  0  0  0  0  0
   57.4540   26.4440   43.7350 O   0  0  0  0  0  0  0  0  0  0  0  0
   56.2360   24.7500   44.8720 C   0  0  0  0  0  0  0  0  0  0  0  0
   56.2580   23.4280   44.3840 C   0  0  0  0  0  0  0  0  0  0  0  0
   55.1440   22.5960   44.5320 C   0  0  0  0  0  0  0  0  0  0  0  0
   53.9950   23.0690   45.1660 C   0  0  0  0  0  0  0  0  0  0  0  0
   52.8890   22.2410   45.3110 O   0  0  0  0  0  0  0  0  0  0  0  0
   53.9570   24.3780   45.6540 C   0  0  0  0  0  0  0  0  0  0  0  0
   55.0670   25.2180   45.5130 C   0  0  0  0  0  0  0  0  0  0  0  0
   55.0000   26.5080   46.0260 O   0  0  0  0  0  0  0  0  0  0  0  0
   59.5069   28.3579   47.2865 H   0  0  0  0  0  0  0  0  0  0  0  0
   59.3313   28.0840   45.5105 H   0  0  0  0  0  0  0  0  0  0  0  0
   56.6897   28.1199   46.5249 H   0  0  0  0  0  0  0  0  0  0  0  0
   57.5479   29.4672   47.3639 H   0  0  0  0  0  0  0  0  0  0  0  0
   55.2448   30.5323   42.7711 H   0  0  0  0  0  0  0  0  0  0  0  0
   57.2048   31.8908   42.0431 H   0  0  0  0  0  0  0  0  0  0  0  0
   59.3195   31.8419   43.3613 H   0  0  0  0  0  0  0  0  0  0  0  0
   60.5220   29.8290   45.3170 H   0  0  0  0  0  0  0  0  0  0  0  0
   59.5294   25.7076   45.0292 H   0  0  0  0  0  0  0  0  0  0  0  0
   58.6209   24.5190   46.0553 H   0  0  0  0  0  0  0  0  0  0  0  0
   57.1597   23.0473   43.8821 H   0  0  0  0  0  0  0  0  0  0  0  0
   55.1738   21.5658   44.1475 H   0  0  0  0  0  0  0  0  0  0  0  0
   53.0493   24.7500   46.1517 H   0  0  0  0  0  0  0  0  0  0  0  0
  1  2  2  0
  2  3  1  0
  3  4  1  0
  4  5  1  0
  5  6  2  0
  6  7  1  0
  6  8  1  0
  8  9  2  0
  9 10  1  0
 10 11  2  0
 11 12  1  0
  2 13  1  0
 13 14  1  0
 14 15  2  0
 14 16  1  0
 16 17  2  0
 17 18  1  0
 18 19  2  0
 19 20  1  0
 19 21  1  0
 21 22  2  0
 22 23  1  0
 11  5  1  0
 22 16  1  0
  3 24  1  0
  3 25  1  0
  4 26  1  0
  4 27  1  0
  8 28  1  0
  9 29  1  0
 10 30  1  0
 12 31  1  0
 13 32  1  0
 13 33  1  0
 17 34  1  0
 18 35  1  0
 21 36  1  0
M  CHG  3   7  -1  20  -1  23  -1
M  END
>  <UniqueID>  (39) 
38

>  <SMILES>  (39) 
O=C(CCc1c([O-])cccc1O)CC(=O)c1ccc([O-])cc1[O-]

>  <Energy>  (39) 
36.35616099271364

>  <Genealogy>  (39) 
O=C(CCc1c([O-])cccc1O)CC(=O)c1ccc([O-])cc1[O-] (protonated)
O=C(CCc1c([O-])cccc1O)CC(=O)c1ccc([O-])cc1[O-] (3D coordinates assigned)
O=C(CCc1c([O-])cccc1O)CC(=O)c1ccc([O-])cc1[O-] (optimized conformer: 36.35616099271364 kcal/mol)

>  <smiles>  (39) 
O=C(CCc1c(O)cccc1O)CC(=O)c1ccc(O)cc1O

>  <score_type>  (39) 
oracle

>  <origin>  (39) 
adg

>  <m_score__min__energy>  (39) 
-15.09

>  <m_primary>  (39) 
energy

$$$$
39:0
     RDKit          3D

 51 55  0  0  1  0  0  0  0  0999 V2000
   55.2220   20.3270   49.7310 C   0  0  0  0  0  0  0  0  0  0  0  0
   55.7770   21.4510   49.0050 N   0  0  0  0  0  0  0  0  0  0  0  0
   57.0370   21.5990   48.5810 N   0  0  0  0  0  0  0  0  0  0  0  0
   57.1770   22.7470   47.9570 N   0  0  0  0  0  0  0  0  0  0  0  0
   55.9660   23.3310   47.9930 C   0  0  0  0  0  0  0  0  0  0  0  0
   55.6310   24.4760   47.5010 N   0  0  0  0  0  0  0  0  0  0  0  0
   55.4950   24.7030   46.1050 C   0  0  0  0  0  0  0  0  0  0  0  0
   54.7350   25.5890   45.6200 O   0  0  0  0  0  0  0  0  0  0  0  0
   56.3020   23.8340   45.2290 C   0  0  0  0  0  0  0  0  0  0  0  0
   55.6540   22.9060   44.4350 C   0  0  0  0  0  0  0  0  0  0  0  0
   56.3840   22.0630   43.5930 C   0  0  0  0  0  0  0  0  0  0  0  0
   57.7560   22.1470   43.5430 C   0  0  0  0  0  0  0  0  0  0  0  0
   58.3790   23.0920   44.3550 C   0  0  0  0  0  0  0  0  0  0  0  0
   57.6620   23.9240   45.1870 C   0  0  0  0  0  0  0  0  0  0  0  0
   58.5220   25.1280   46.2160 S   0  0  0  0  0  0  0  0  0  0  0  0
   58.2270   26.7460   45.5240 C   0  0  0  0  0  0  0  0  0  0  0  0
   59.2460   27.4680   44.9470 C   0  0  0  0  0  0  0  0  0  0  0  0
   59.0520   28.7180   44.4060 C   0  0  0  0  0  0  0  0  0  0  0  0
   57.8270   29.3140   44.4110 C   0  0  0  0  0  0  0  0  0  0  0  0
   57.3590   30.5050   43.9630 C   0  0  0  0  0  0  0  0  0  0  0  0
   57.9540   31.6300   43.2960 C   0  0  0  0  0  0  0  0  0  0  0  0
   57.8920   32.8980   43.5780 C   0  0  0  0  0  0  0  0  0  0  0  0
   58.3720   33.4860   44.8480 C   0  0  0  0  0  0  0  0  0  0  0  0
   59.2620   34.5160   44.9060 C   0  0  0  0  0  0  0  0  0  0  0  0
   59.6580   35.0080   46.1570 C   0  0  0  0  0  0  0  0  0  0  0  0
   59.1750   34.4850   47.3340 C   0  0  0  0  0  0  0  0  0  0  0  0
   58.2650   33.4300   47.2260 C   0  0  0  0  0  0  0  0  0  0  0  0
   57.9150   32.9920   46.0130 N   0  0  0  0  0  0  0  0  0  0  0  0
   56.0230   30.4830   44.2840 N   0  0  0  0  0  0  0  0  0  0  0  0
   55.7220   29.3500   44.8870 N   0  0  0  0  0  0  0  0  0  0  0  0
   56.7940   28.5680   45.0030 C   0  0  0  0  0  0  0  0  0  0  0  0
   56.9790   27.3350   45.5390 C   0  0  0  0  0  0  0  0  0  0  0  0
   55.1010   22.5280   48.6430 N   0  0  0  0  0  0  0  0  0  0  0  0
   55.3116   20.5085   50.8122 H   0  0  0  0  0  0  0  0  0  0  0  0
   54.1611   20.2071   49.4660 H   0  0  0  0  0  0  0  0  0  0  0  0
   55.7718   19.4118   49.4660 H   0  0  0  0  0  0  0  0  0  0  0  0
   54.5570   22.8308   44.4663 H   0  0  0  0  0  0  0  0  0  0  0  0
   55.8582   21.3276   42.9663 H   0  0  0  0  0  0  0  0  0  0  0  0
   58.3419   21.4897   42.8836 H   0  0  0  0  0  0  0  0  0  0  0  0
   59.4755   23.1765   44.3313 H   0  0  0  0  0  0  0  0  0  0  0  0
   60.2542   27.0292   44.9170 H   0  0  0  0  0  0  0  0  0  0  0  0
   59.9058   29.2484   43.9591 H   0  0  0  0  0  0  0  0  0  0  0  0
   58.5552   31.3799   42.4094 H   0  0  0  0  0  0  0  0  0  0  0  0
   57.4566   33.5739   42.8273 H   0  0  0  0  0  0  0  0  0  0  0  0
   59.6649   34.9561   43.9819 H   0  0  0  0  0  0  0  0  0  0  0  0
   60.3778   35.8387   46.1991 H   0  0  0  0  0  0  0  0  0  0  0  0
   59.4896   34.8779   48.3121 H   0  0  0  0  0  0  0  0  0  0  0  0
   57.8418   32.9656   48.1289 H   0  0  0  0  0  0  0  0  0  0  0  0
   55.3030   31.2170   44.1080 H   0  0  0  0  0  0  0  0  0  0  0  0
   56.1285   26.8015   45.9884 H   0  0  0  0  0  0  0  0  0  0  0  0
   54.0720   22.6990   48.8390 H   0  0  0  0  0  0  0  0  0  0  0  0
  1  2  1  0
  2  3  1  0
  3  4  2  0
  4  5  1  0
  5  6  2  0
  6  7  1  0
  7  8  2  0
  7  9  1  0
  9 10  2  0
 10 11  1  0
 11 12  2  0
 12 13  1  0
 13 14  2  0
 14 15  1  0
 15 16  1  0
 16 17  1  0
 17 18  2  0
 18 19  1  0
 19 20  2  0
 20 21  1  0
 21 22  2  0
 22 23  1  0
 23 24  2  0
 24 25  1  0
 25 26  2  0
 26 27  1  0
 27 28  2  0
 20 29  1  0
 29 30  1  0
 30 31  2  0
 31 32  1  0
  5 33  1  0
 33  2  1  0
 14  9  1  0
 32 16  2  0
 31 19  1  0
 28 23  1  0
  1 34  1  0
  1 35  1  0
  1 36  1  0
 10 37  1  0
 11 38  1  0
 12 39  1  0
 13 40  1  0
 17 41  1  0
 18 42  1  0
 21 43  1  0
 22 44  1  0
 24 45  1  0
 25 46  1  0
 26 47  1  0
 27 48  1  0
 29 49  1  0
 32 50  1  0
 33 51  1  0
M  END
>  <smiles>  (40) 
Cn1nnc(=NC(=O)c2ccccc2Sc2ccc3c(C=Cc4ccccn4)[nH]nc3c2)[nH]1

>  <score_type>  (40) 
oracle

>  <origin>  (40) 
adg

>  <m_score__min__energy>  (40) 
-10.93

>  <m_primary>  (40) 
energy

$$$$
40:0
     RDKit          3D

 35 37  0  0  0  0  0  0  0  0999 V2000
   54.7770   27.0890   45.9690 H   0  0  0  0  0  0  0  0  0  0  0  0
   55.7830   26.9950   46.0260 O   0  0  0  0  0  0  0  0  0  0  0  0
   56.6660   27.9310   45.4790 C   0  0  0  0  0  0  0  0  0  0  0  0
   56.1420   28.9610   44.6860 C   0  0  0  0  0  0  0  0  0  0  0  0
   54.7690   29.0580   44.4880 O   0  0  0  0  0  0  0  0  0  0  0  0
   56.9940   29.8890   44.0810 C   0  0  0  0  0  0  0  0  0  0  0  0
   56.5752   30.6970   43.4631 H   0  0  0  0  0  0  0  0  0  0  0  0
   58.3750   29.7930   44.2590 C   0  0  0  0  0  0  0  0  0  0  0  0
   59.0435   30.5182   43.7719 H   0  0  0  0  0  0  0  0  0  0  0  0
   58.9090   28.7770   45.0550 C   0  0  0  0  0  0  0  0  0  0  0  0
   59.9986   28.7015   45.1856 H   0  0  0  0  0  0  0  0  0  0  0  0
   58.0650   27.8510   45.6900 C   0  0  0  0  0  0  0  0  0  0  0  0
   58.6710   26.8180   46.5570 C   0  0  0  0  0  0  0  0  0  0  0  0
   58.6540   25.6190   46.1710 O   0  0  0  0  0  0  0  0  0  0  0  0
   59.2680   27.1220   47.8280 N   0  0  0  0  0  0  0  0  0  0  0  0
   59.3960   28.3020   48.3620 C   0  0  0  0  0  0  0  0  0  0  0  0
   58.5510   28.8190   49.2820 N   0  0  0  0  0  0  0  0  0  0  0  0
   58.9140   30.0780   49.6410 C   0  0  0  0  0  0  0  0  0  0  0  0
   58.3516   30.6709   50.3774 H   0  0  0  0  0  0  0  0  0  0  0  0
   60.0540   30.5580   49.0030 C   0  0  0  0  0  0  0  0  0  0  0  0
   60.6250   31.9320   49.1480 C   0  0  0  0  0  0  0  0  0  0  0  0
   60.2622   32.3798   50.0849 H   0  0  0  0  0  0  0  0  0  0  0  0
   61.7229   31.8658   49.1656 H   0  0  0  0  0  0  0  0  0  0  0  0
   60.2020   32.7920   47.9890 C   0  0  0  0  0  0  0  0  0  0  0  0
   61.0820   33.7500   47.4580 C   0  0  0  0  0  0  0  0  0  0  0  0
   62.0740   33.8928   47.9113 H   0  0  0  0  0  0  0  0  0  0  0  0
   60.7030   34.5220   46.3570 C   0  0  0  0  0  0  0  0  0  0  0  0
   61.3928   35.2767   45.9514 H   0  0  0  0  0  0  0  0  0  0  0  0
   59.4470   34.3360   45.7700 C   0  0  0  0  0  0  0  0  0  0  0  0
   59.1489   34.9455   44.9041 H   0  0  0  0  0  0  0  0  0  0  0  0
   58.5700   33.3750   46.2840 C   0  0  0  0  0  0  0  0  0  0  0  0
   56.9990   33.1360   45.5400 Cl  0  0  0  0  0  0  0  0  0  0  0  0
   58.9470   32.6020   47.3870 C   0  0  0  0  0  0  0  0  0  0  0  0
   58.2581   31.8423   47.7847 H   0  0  0  0  0  0  0  0  0  0  0  0
   60.6120   29.3810   47.9360 S   0  0  0  0  0  0  0  0  0  0  0  0
  1  2  1  0
  2  3  1  0
  3  4  2  0
  4  5  1  0
  4  6  1  0
  6  7  1  0
  6  8  2  0
  8  9  1  0
  8 10  1  0
 10 11  1  0
 10 12  2  0
 12 13  1  0
 13 14  2  0
 13 15  1  0
 15 16  2  0
 16 17  1  0
 17 18  1  0
 18 19  1  0
 18 20  2  0
 20 21  1  0
 21 22  1  0
 21 23  1  0
 21 24  1  0
 24 25  2  0
 25 26  1  0
 25 27  1  0
 27 28  1  0
 27 29  2  0
 29 30  1  0
 29 31  1  0
 31 32  1  0
 31 33  2  0
 33 34  1  0
 20 35  1  0
 12  3  1  0
 35 16  1  0
 33 24  1  0
M  CHG  2   5  -1  17  -1
M  END
>  <UniqueID>  (41) 
39

>  <SMILES>  (41) 
O=C(/N=c1\[n-]cc(Cc2cccc(Cl)c2)s1)c1cccc([O-])c1O

>  <Energy>  (41) 
75.73895075226302

>  <Genealogy>  (41) 
O=C(N=c1[n-]cc(Cc2cccc(Cl)c2)s1)c1cccc([O-])c1O (protonated)
O=C(/N=c1\[n-]cc(Cc2cccc(Cl)c2)s1)c1cccc([O-])c1O (cis-trans isomerization)
O=C(/N=c1\[n-]cc(Cc2cccc(Cl)c2)s1)c1cccc([O-])c1O (3D coordinates assigned)
O=C(/N=c1\[n-]cc(Cc2cccc(Cl)c2)s1)c1cccc([O-])c1O (optimized conformer: 75.73895075226302 kcal/mol)

>  <smiles>  (41) 
O=C(N=c1[nH]cc(Cc2cccc(Cl)c2)s1)c1cccc(O)c1O

>  <score_type>  (41) 
oracle

>  <origin>  (41) 
adg

>  <m_score__min__energy>  (41) 
-14.34

>  <m_primary>  (41) 
energy

$$$$
41:0
     RDKit          3D

 47 49  0  0  0  0  0  0  0  0999 V2000
   61.1070   26.6980   47.5070 C   0  0  0  0  0  0  0  0  0  0  0  0
   59.6750   26.4920   47.1080 C   0  0  0  0  0  0  0  0  0  0  0  0
   59.2940   25.2630   46.6630 N   0  0  0  0  0  0  0  0  0  0  0  0
   58.0150   24.9880   46.2910 C   0  0  0  0  0  0  0  0  0  0  0  0
   57.7230   23.8300   45.8920 O   0  0  0  0  0  0  0  0  0  0  0  0
   57.0380   25.9920   46.3550 C   0  0  0  0  0  0  0  0  0  0  0  0
   55.6740   25.7290   45.9690 C   0  0  0  0  0  0  0  0  0  0  0  0
   54.5780   25.5190   45.6590 N   0  0  0  0  0  0  0  0  0  0  0  0
   57.4020   27.2660   46.7980 C   0  0  0  0  0  0  0  0  0  0  0  0
   58.7230   27.5310   47.1900 C   0  0  0  0  0  0  0  0  0  0  0  0
   59.0870   28.8840   47.6600 C   0  0  0  0  0  0  0  0  0  0  0  0
   58.4350   29.4060   48.6020 O   0  0  0  0  0  0  0  0  0  0  0  0
   60.1520   29.6290   47.0580 N   0  0  0  0  0  0  0  0  0  0  0  0
   60.3290   29.7880   45.6180 C   0  0  0  0  0  0  0  0  0  0  0  0
   58.9900   29.7850   44.9130 C   0  0  0  0  0  0  0  0  0  0  0  0
   58.6270   28.6590   44.1490 C   0  0  0  0  0  0  0  0  0  0  0  0
   57.3890   28.5990   43.5080 C   0  0  0  0  0  0  0  0  0  0  0  0
   56.5000   29.6670   43.6040 C   0  0  0  0  0  0  0  0  0  0  0  0
   56.8540   30.8090   44.3240 C   0  0  0  0  0  0  0  0  0  0  0  0
   58.1010   30.8930   44.9660 C   0  0  0  0  0  0  0  0  0  0  0  0
   58.4520   32.1540   45.6550 C   0  0  0  0  0  0  0  0  0  0  0  0
   58.4020   33.2440   45.0220 O   0  0  0  0  0  0  0  0  0  0  0  0
   58.8290   32.1420   47.0400 N   0  0  0  0  0  0  0  0  0  0  0  0
   59.4680   33.2870   47.6820 C   0  0  0  0  0  0  0  0  0  0  0  0
   60.9580   33.1650   47.5630 C   0  0  0  0  0  0  0  0  0  0  0  0
   61.6840   34.0150   46.7160 C   0  0  0  0  0  0  0  0  0  0  0  0
   63.0640   33.8430   46.5940 C   0  0  0  0  0  0  0  0  0  0  0  0
   63.7040   32.8270   47.3050 C   0  0  0  0  0  0  0  0  0  0  0  0
   62.9480   31.9900   48.1300 C   0  0  0  0  0  0  0  0  0  0  0  0
   61.6050   32.1730   48.2360 N   0  0  0  0  0  0  0  0  0  0  0  0
   61.1839   26.7091   48.6042 H   0  0  0  0  0  0  0  0  0  0  0  0
   61.7212   25.8790   47.1046 H   0  0  0  0  0  0  0  0  0  0  0  0
   61.4654   27.6570   47.1046 H   0  0  0  0  0  0  0  0  0  0  0  0
   56.6484   28.0662   46.8398 H   0  0  0  0  0  0  0  0  0  0  0  0
   60.8398   30.7418   45.4197 H   0  0  0  0  0  0  0  0  0  0  0  0
   60.9306   28.9483   45.2399 H   0  0  0  0  0  0  0  0  0  0  0  0
   59.3280   27.8164   44.0564 H   0  0  0  0  0  0  0  0  0  0  0  0
   57.1147   27.7068   42.9259 H   0  0  0  0  0  0  0  0  0  0  0  0
   55.5179   29.6103   43.1118 H   0  0  0  0  0  0  0  0  0  0  0  0
   56.1499   31.6516   44.3895 H   0  0  0  0  0  0  0  0  0  0  0  0
   58.8390   31.2320   47.5520 H   0  0  0  0  0  0  0  0  0  0  0  0
   59.1364   34.2138   47.1911 H   0  0  0  0  0  0  0  0  0  0  0  0
   59.1878   33.3124   48.7454 H   0  0  0  0  0  0  0  0  0  0  0  0
   61.1712   34.8092   46.1535 H   0  0  0  0  0  0  0  0  0  0  0  0
   63.6460   34.5074   45.9384 H   0  0  0  0  0  0  0  0  0  0  0  0
   64.7914   32.6866   47.2170 H   0  0  0  0  0  0  0  0  0  0  0  0
   63.4394   31.1832   48.6936 H   0  0  0  0  0  0  0  0  0  0  0  0
  1  2  1  0
  2  3  1  0
  3  4  1  0
  4  5  2  0
  4  6  1  0
  6  7  1  0
  7  8  3  0
  6  9  2  0
  9 10  1  0
 10 11  1  0
 11 12  2  0
 11 13  1  0
 13 14  1  0
 14 15  1  0
 15 16  2  0
 16 17  1  0
 17 18  2  0
 18 19  1  0
 19 20  2  0
 20 21  1  0
 21 22  2  0
 21 23  1  0
 23 24  1  0
 24 25  1  0
 25 26  2  0
 26 27  1  0
 27 28  2  0
 28 29  1  0
 29 30  2  0
 10  2  2  0
 20 15  1  0
 30 25  1  0
  1 31  1  0
  1 32  1  0
  1 33  1  0
  9 34  1  0
 14 35  1  0
 14 36  1  0
 16 37  1  0
 17 38  1  0
 18 39  1  0
 19 40  1  0
 23 41  1  0
 24 42  1  0
 24 43  1  0
 26 44  1  0
 27 45  1  0
 28 46  1  0
 29 47  1  0
M  CHG  2   3  -1  13  -1
M  END
>  <UniqueID>  (42) 
40

>  <SMILES>  (42) 
Cc1[n-]c(=O)c(C#N)cc1C(=O)[N-]Cc1ccccc1C(=O)NCc1ccccn1

>  <Energy>  (42) 
57.90954715686126

>  <Genealogy>  (42) 
Cc1[n-]c(=O)c(C#N)cc1C(=O)[N-]Cc1ccccc1C(=O)NCc1ccccn1 (protonated)
Cc1[n-]c(=O)c(C#N)cc1C(=O)[N-]Cc1ccccc1C(=O)NCc1ccccn1 (3D coordinates assigned)
Cc1[n-]c(=O)c(C#N)cc1C(=O)[N-]Cc1ccccc1C(=O)NCc1ccccn1 (optimized conformer: 57.90954715686126 kcal/mol)

>  <smiles>  (42) 
Cc1[nH]c(=O)c(C#N)cc1C(=O)NCc1ccccc1C(=O)NCc1ccccn1

>  <score_type>  (42) 
oracle

>  <origin>  (42) 
adg

>  <m_score__min__energy>  (42) 
-11.970000000000001

>  <m_primary>  (42) 
energy

$$$$
42:0
     RDKit          3D

 53 55  0  0  0  0  0  0  0  0999 V2000
   55.4080   30.9220   52.3250 C   0  0  0  0  0  0  0  0  0  0  0  0
   56.5310   31.9470   52.4220 C   0  0  0  0  0  0  0  0  0  0  0  0
   57.9120   31.5010   51.3770 S   0  0  0  0  0  0  0  0  0  0  0  0
   57.7960   32.2500   50.0780 O   0  0  0  0  0  0  0  0  0  0  0  0
   57.8500   30.0280   51.0880 O   0  0  0  0  0  0  0  0  0  0  0  0
   59.4950   31.8700   52.1360 C   0  0  0  0  0  0  0  0  0  0  0  0
   59.6910   33.3680   52.3770 C   0  0  0  0  0  0  0  0  0  0  0  0
   60.9280   33.8310   51.7510 N   0  0  0  0  0  0  0  0  0  0  0  0
   61.3740   33.3970   50.6080 C   0  0  0  0  0  0  0  0  0  0  0  0
   60.4920   33.0530   49.6270 N   0  0  0  0  0  0  0  0  0  0  0  0
   60.8740   32.6120   48.4000 C   0  0  0  0  0  0  0  0  0  0  0  0
   59.8330   32.2610   47.4000 C   0  0  0  0  0  0  0  0  0  0  0  0
   58.7610   33.1420   47.1690 C   0  0  0  0  0  0  0  0  0  0  0  0
   57.7790   32.8350   46.2240 C   0  0  0  0  0  0  0  0  0  0  0  0
   57.8480   31.6490   45.4850 C   0  0  0  0  0  0  0  0  0  0  0  0
   56.8160   31.3790   44.5260 N   0  0  0  0  0  0  0  0  0  0  0  0
   56.3000   29.8070   44.0050 S   0  0  0  0  0  0  0  0  0  0  0  0
   57.6530   28.6530   44.1020 C   0  0  0  0  0  0  0  0  0  0  0  0
   55.8450   29.8970   42.5760 O   0  0  0  0  0  0  0  0  0  0  0  0
   55.1490   29.3380   44.8500 O   0  0  0  0  0  0  0  0  0  0  0  0
   58.9210   30.7680   45.7030 C   0  0  0  0  0  0  0  0  0  0  0  0
   59.9050   31.0730   46.6480 C   0  0  0  0  0  0  0  0  0  0  0  0
   62.2420   32.4870   48.1190 C   0  0  0  0  0  0  0  0  0  0  0  0
   63.1880   32.8270   49.0930 C   0  0  0  0  0  0  0  0  0  0  0  0
   64.5150   32.7040   48.8220 N   0  0  0  0  0  0  0  0  0  0  0  0
   65.4550   33.0240   49.7470 C   0  0  0  0  0  0  0  0  0  0  0  0
   65.0910   33.4780   50.9800 N   0  0  0  0  0  0  0  0  0  0  0  0
   66.1320   33.7950   51.9680 C   0  0  0  0  0  0  0  0  0  0  0  0
   63.7670   33.5980   51.3100 C   0  0  0  0  0  0  0  0  0  0  0  0
   63.4490   33.9810   52.4700 O   0  0  0  0  0  0  0  0  0  0  0  0
   62.7660   33.2860   50.3590 C   0  0  0  0  0  0  0  0  0  0  0  0
   55.0890   30.6308   53.3366 H   0  0  0  0  0  0  0  0  0  0  0  0
   54.5566   31.3609   51.7842 H   0  0  0  0  0  0  0  0  0  0  0  0
   55.7676   30.0342   51.7842 H   0  0  0  0  0  0  0  0  0  0  0  0
   56.1474   32.9292   52.1086 H   0  0  0  0  0  0  0  0  0  0  0  0
   56.8813   31.9797   53.4642 H   0  0  0  0  0  0  0  0  0  0  0  0
   59.5546   31.3461   53.1014 H   0  0  0  0  0  0  0  0  0  0  0  0
   60.2839   31.5351   51.4464 H   0  0  0  0  0  0  0  0  0  0  0  0
   58.8405   33.9178   51.9476 H   0  0  0  0  0  0  0  0  0  0  0  0
   59.7520   33.5484   53.4604 H   0  0  0  0  0  0  0  0  0  0  0  0
   58.6953   34.0813   47.7377 H   0  0  0  0  0  0  0  0  0  0  0  0
   56.9440   33.5320   46.0594 H   0  0  0  0  0  0  0  0  0  0  0  0
   57.8886   28.4521   45.1575 H   0  0  0  0  0  0  0  0  0  0  0  0
   57.3702   27.7137   43.6042 H   0  0  0  0  0  0  0  0  0  0  0  0
   58.5359   29.0804   43.6042 H   0  0  0  0  0  0  0  0  0  0  0  0
   58.9870   29.8333   45.1269 H   0  0  0  0  0  0  0  0  0  0  0  0
   60.7433   30.3784   46.8055 H   0  0  0  0  0  0  0  0  0  0  0  0
   62.5712   32.1224   47.1348 H   0  0  0  0  0  0  0  0  0  0  0  0
   64.8350   32.3600   47.8880 H   0  0  0  0  0  0  0  0  0  0  0  0
   66.5213   32.9160   49.4995 H   0  0  0  0  0  0  0  0  0  0  0  0
   65.7248   33.6710   52.9823 H   0  0  0  0  0  0  0  0  0  0  0  0
   66.9868   33.1164   51.8306 H   0  0  0  0  0  0  0  0  0  0  0  0
   66.4635   34.8348   51.8306 H   0  0  0  0  0  0  0  0  0  0  0  0
  1  2  1  0
  2  3  1  0
  3  4  2  0
  3  5  2  0
  3  6  1  0
  6  7  1  0
  7  8  1  0
  8  9  2  3
  9 10  1  0
 10 11  1  0
 11 12  1  0
 12 13  2  0
 13 14  1  0
 14 15  2  0
 15 16  1  0
 16 17  1  0
 17 18  1  0
 17 19  2  0
 17 20  2  0
 15 21  1  0
 21 22  2  0
 11 23  2  0
 23 24  1  0
 24 25  1  0
 25 26  2  0
 26 27  1  0
 27 28  1  0
 27 29  1  0
 29 30  2  0
 29 31  1  0
 31  9  1  0
 22 12  1  0
 31 24  2  0
  1 32  1  0
  1 33  1  0
  1 34  1  0
  2 35  1  0
  2 36  1  0
  6 37  1  0
  6 38  1  0
  7 39  1  0
  7 40  1  0
 13 41  1  0
 14 42  1  0
 18 43  1  0
 18 44  1  0
 18 45  1  0
 21 46  1  0
 22 47  1  0
 23 48  1  0
 25 49  1  0
 26 50  1  0
 28 51  1  0
 28 52  1  0
 28 53  1  0
M  CHG  3  10  -1  16  -1  25   1
M  END
>  <UniqueID>  (43) 
41

>  <SMILES>  (43) 
CCS(=O)(=O)CCN=c1[n-]c(-c2ccc([N-]S(C)(=O)=O)cc2)cc2[nH+]cn(C)c(=O)c12

>  <Energy>  (43) 
53.614274993403924

>  <Genealogy>  (43) 
CCS(=O)(=O)CCN=c1[n-]c(-c2ccc([N-]S(C)(=O)=O)cc2)cc2[nH+]cn(C)c(=O)c12 (protonated)
CCS(=O)(=O)CCN=c1[n-]c(-c2ccc([N-]S(C)(=O)=O)cc2)cc2[nH+]cn(C)c(=O)c12 (3D coordinates assigned)
CCS(=O)(=O)CCN=c1[n-]c(-c2ccc([N-]S(C)(=O)=O)cc2)cc2[nH+]cn(C)c(=O)c12 (optimized conformer: 53.614274993403924 kcal/mol)

>  <smiles>  (43) 
CCS(=O)(=O)CCN=c1[nH]c(-c2ccc(NS(C)(=O)=O)cc2)cc2ncn(C)c(=O)c12

>  <score_type>  (43) 
oracle

>  <origin>  (43) 
adg

>  <m_score__min__energy>  (43) 
-10.029999999999999

>  <m_primary>  (43) 
energy

$$$$
43:0
     RDKit          3D

 36 37  0  0  0  0  0  0  0  0999 V2000
   56.8940   20.5140   45.4610 C   0  0  0  0  0  0  0  0  0  0  0  0
   56.6810   21.6070   44.4660 C   0  0  0  0  0  0  0  0  0  0  0  0
   55.8970   21.4740   43.3750 N   0  0  0  0  0  0  0  0  0  0  0  0
   55.8840   22.6260   42.7680 O   0  0  0  0  0  0  0  0  0  0  0  0
   56.6160   23.5010   43.4130 C   0  0  0  0  0  0  0  0  0  0  0  0
   56.7750   24.7230   43.0140 N   0  0  0  0  0  0  0  0  0  0  0  0
   57.1700   22.9040   44.5340 C   0  0  0  0  0  0  0  0  0  0  0  0
   57.9900   23.5030   45.6080 C   0  0  0  0  0  0  0  0  0  0  0  0
   59.2390   23.3360   45.6150 O   0  0  0  0  0  0  0  0  0  0  0  0
   57.3680   24.1970   46.6460 O   0  0  0  0  0  0  0  0  0  0  0  0
   57.5310   25.5960   46.8640 C   0  0  0  0  0  0  0  0  0  0  0  0
   56.5920   26.3600   45.9740 C   0  0  0  0  0  0  0  0  0  0  0  0
   55.3530   26.2720   46.1760 O   0  0  0  0  0  0  0  0  0  0  0  0
   57.0630   27.1990   44.9060 N   0  0  0  0  0  0  0  0  0  0  0  0
   57.3450   28.6000   45.0130 C   0  0  0  0  0  0  0  0  0  0  0  0
   58.1900   29.1000   46.0170 C   0  0  0  0  0  0  0  0  0  0  0  0
   58.3640   30.4780   46.1680 C   0  0  0  0  0  0  0  0  0  0  0  0
   57.7110   31.3690   45.3070 C   0  0  0  0  0  0  0  0  0  0  0  0
   57.8910   33.1060   45.5280 S   0  0  0  0  0  0  0  0  0  0  0  0
   57.3830   33.5450   47.1210 N   0  0  0  0  0  0  0  0  0  0  0  0
   57.0550   33.8360   44.5150 O   0  0  0  0  0  0  0  0  0  0  0  0
   59.3300   33.4960   45.3350 O   0  0  0  0  0  0  0  0  0  0  0  0
   56.9210   30.8690   44.2620 C   0  0  0  0  0  0  0  0  0  0  0  0
   56.7460   29.4900   44.1130 C   0  0  0  0  0  0  0  0  0  0  0  0
   56.8141   20.9239   46.4787 H   0  0  0  0  0  0  0  0  0  0  0  0
   56.1308   19.7347   45.3186 H   0  0  0  0  0  0  0  0  0  0  0  0
   57.8939   20.0783   45.3186 H   0  0  0  0  0  0  0  0  0  0  0  0
   56.5820   25.5500   43.6160 H   0  0  0  0  0  0  0  0  0  0  0  0
   57.3099   25.8304   47.9158 H   0  0  0  0  0  0  0  0  0  0  0  0
   58.5673   25.8826   46.6316 H   0  0  0  0  0  0  0  0  0  0  0  0
   58.7167   28.4044   46.6868 H   0  0  0  0  0  0  0  0  0  0  0  0
   59.0158   30.8643   46.9655 H   0  0  0  0  0  0  0  0  0  0  0  0
   56.3930   33.8670   47.0480 H   0  0  0  0  0  0  0  0  0  0  0  0
   57.9490   34.3760   47.4040 H   0  0  0  0  0  0  0  0  0  0  0  0
   56.4381   31.5630   43.5583 H   0  0  0  0  0  0  0  0  0  0  0  0
   56.1348   29.1022   43.2847 H   0  0  0  0  0  0  0  0  0  0  0  0
  1  2  1  0
  2  3  1  0
  3  4  1  0
  4  5  1  0
  5  6  2  3
  5  7  1  0
  7  8  1  0
  8  9  2  0
  8 10  1  0
 10 11  1  0
 11 12  1  0
 12 13  2  0
 12 14  1  0
 14 15  1  0
 15 16  2  0
 16 17  1  0
 17 18  2  0
 18 19  1  0
 19 20  1  0
 19 21  2  0
 19 22  2  0
 18 23  1  0
 23 24  2  0
  7  2  2  0
 24 15  1  0
  1 25  1  0
  1 26  1  0
  1 27  1  0
  6 28  1  0
 11 29  1  0
 11 30  1  0
 16 31  1  0
 17 32  1  0
 20 33  1  0
 20 34  1  0
 23 35  1  0
 24 36  1  0
M  CHG  2   3  -1  14  -1
M  END
>  <UniqueID>  (44) 
42

>  <SMILES>  (44) 
Cc1[n-]oc(=N)c1C(=O)OCC(=O)[N-]c1ccc(S(N)(=O)=O)cc1

>  <Energy>  (44) 
67.68870149150945

>  <Genealogy>  (44) 
Cc1[n-]oc(=N)c1C(=O)OCC(=O)[N-]c1ccc(S(N)(=O)=O)cc1 (protonated)
Cc1[n-]oc(=N)c1C(=O)OCC(=O)[N-]c1ccc(S(N)(=O)=O)cc1 (3D coordinates assigned)
Cc1[n-]oc(=N)c1C(=O)OCC(=O)[N-]c1ccc(S(N)(=O)=O)cc1 (optimized conformer: 67.68870149150945 kcal/mol)

>  <smiles>  (44) 
Cc1[nH]oc(=N)c1C(=O)OCC(=O)Nc1ccc(S(N)(=O)=O)cc1

>  <score_type>  (44) 
oracle

>  <origin>  (44) 
adg

>  <m_score__min__energy>  (44) 
-10.59

>  <m_primary>  (44) 
energy

$$$$
44:0
     RDKit          3D

 48 51  0  0  0  0  0  0  0  0999 V2000
   54.2047   28.2605   52.9863 H   0  0  0  0  0  0  0  0  0  0  0  0
   54.3780   29.3300   52.7960 C   0  0  0  0  0  0  0  0  0  0  0  0
   55.6480   29.7660   52.7530 C   0  0  0  0  0  0  0  0  0  0  0  0
   57.1000   28.6970   52.8110 S   0  0  0  0  0  0  0  0  0  0  0  0
   58.0240   30.0230   52.0010 C   0  0  0  0  0  0  0  0  0  0  0  0
   59.2160   29.8870   51.4920 N   0  0  0  0  0  0  0  0  0  0  0  0
   60.0080   29.6730   52.1400 H   0  0  0  0  0  0  0  0  0  0  0  0
   59.5140   29.9040   50.0850 C   0  0  0  0  0  0  0  0  0  0  0  0
   60.8300   30.0740   49.6140 C   0  0  0  0  0  0  0  0  0  0  0  0
   61.6537   30.2145   50.3294 H   0  0  0  0  0  0  0  0  0  0  0  0
   61.0950   30.0650   48.2390 C   0  0  0  0  0  0  0  0  0  0  0  0
   62.1205   30.2336   47.8785 H   0  0  0  0  0  0  0  0  0  0  0  0
   60.0590   29.8420   47.3180 C   0  0  0  0  0  0  0  0  0  0  0  0
   60.3360   29.8430   45.8620 C   0  0  0  0  0  0  0  0  0  0  0  0
   61.3800   29.2870   45.4290 O   0  0  0  0  0  0  0  0  0  0  0  0
   59.4810   30.5290   44.9380 N   0  0  0  0  0  0  0  0  0  0  0  0
   58.8000   31.7660   45.2010 C   0  0  0  0  0  0  0  0  0  0  0  0
   59.5140   32.9410   45.5080 C   0  0  0  0  0  0  0  0  0  0  0  0
   60.6137   32.9237   45.5289 H   0  0  0  0  0  0  0  0  0  0  0  0
   58.8320   34.1280   45.7860 C   0  0  0  0  0  0  0  0  0  0  0  0
   59.3954   35.0435   46.0194 H   0  0  0  0  0  0  0  0  0  0  0  0
   57.4330   34.1540   45.7680 C   0  0  0  0  0  0  0  0  0  0  0  0
   56.8978   35.0908   45.9825 H   0  0  0  0  0  0  0  0  0  0  0  0
   56.7140   32.9880   45.4770 C   0  0  0  0  0  0  0  0  0  0  0  0
   55.6142   33.0088   45.4667 H   0  0  0  0  0  0  0  0  0  0  0  0
   57.3940   31.7950   45.1990 C   0  0  0  0  0  0  0  0  0  0  0  0
   56.6690   30.6420   44.9160 O   0  0  0  0  0  0  0  0  0  0  0  0
   58.7530   29.6370   47.7940 C   0  0  0  0  0  0  0  0  0  0  0  0
   57.9344   29.4548   47.0822 H   0  0  0  0  0  0  0  0  0  0  0  0
   58.4870   29.6630   49.1660 C   0  0  0  0  0  0  0  0  0  0  0  0
   57.4617   29.4926   49.5261 H   0  0  0  0  0  0  0  0  0  0  0  0
   57.3470   31.2750   51.9590 N   0  0  0  0  0  0  0  0  0  0  0  0
   57.7550   32.1620   51.5900 H   0  0  0  0  0  0  0  0  0  0  0  0
   56.0020   31.1290   52.3770 C   0  0  0  0  0  0  0  0  0  0  0  0
   55.1930   32.0950   52.3780 O   0  0  0  0  0  0  0  0  0  0  0  0
   53.2000   30.2010   52.6030 C   0  0  0  0  0  0  0  0  0  0  0  0
   52.5510   30.8100   53.6880 C   0  0  0  0  0  0  0  0  0  0  0  0
   52.9060   30.6255   54.7127 H   0  0  0  0  0  0  0  0  0  0  0  0
   51.4580   31.6480   53.4720 C   0  0  0  0  0  0  0  0  0  0  0  0
   50.9495   32.1141   54.3288 H   0  0  0  0  0  0  0  0  0  0  0  0
   51.0040   31.9000   52.1750 C   0  0  0  0  0  0  0  0  0  0  0  0
   49.9000   32.7270   52.0000 O   0  0  0  0  0  0  0  0  0  0  0  0
   51.6560   31.3140   51.0660 C   0  0  0  0  0  0  0  0  0  0  0  0
   51.2100   31.5460   49.7150 N   0  0  0  0  0  0  0  0  0  0  0  0
   50.9890   32.6990   49.2950 O   0  0  0  0  0  0  0  0  0  0  0  0
   51.0480   30.4900   48.8500 O   0  0  0  0  0  0  0  0  0  0  0  0
   52.7620   30.4740   51.2980 C   0  0  0  0  0  0  0  0  0  0  0  0
   53.2904   30.0253   50.4439 H   0  0  0  0  0  0  0  0  0  0  0  0
  1  2  1  0
  2  3  2  0
  3  4  1  0
  4  5  1  0
  5  6  2  3
  6  7  1  0
  6  8  1  0
  8  9  2  0
  9 10  1  0
  9 11  1  0
 11 12  1  0
 11 13  2  0
 13 14  1  0
 14 15  2  0
 14 16  1  0
 16 17  1  0
 17 18  2  0
 18 19  1  0
 18 20  1  0
 20 21  1  0
 20 22  2  0
 22 23  1  0
 22 24  1  0
 24 25  1  0
 24 26  2  0
 26 27  1  0
 13 28  1  0
 28 29  1  0
 28 30  2  0
 30 31  1  0
  5 32  1  0
 32 33  1  0
 32 34  1  0
 34 35  2  0
  2 36  1  0
 36 37  2  0
 37 38  1  0
 37 39  1  0
 39 40  1  0
 39 41  2  0
 41 42  1  0
 41 43  1  0
 43 44  1  0
 44 45  2  0
 44 46  1  0
 43 47  2  0
 47 48  1  0
 34  3  1  0
 47 36  1  0
 30  8  1  0
 26 17  1  0
M  CHG  6   6   1  16  -1  27  -1  42  -1  44   1  46  -1
M  END
>  <UniqueID>  (45) 
43

>  <SMILES>  (45) 
O=C1NC(=[NH+]c2ccc(C(=O)[N-]c3ccccc3[O-])cc2)S/C1=C\c1ccc([O-])c([N+](=O)[O-])c1

>  <Energy>  (45) 
94.96391856566038

>  <Genealogy>  (45) 
O=C1NC(=[NH+]c2ccc(C(=O)[N-]c3ccccc3[O-])cc2)SC1=Cc1ccc([O-])c([N+](=O)[O-])c1 (protonated)
O=C1NC(=[NH+]c2ccc(C(=O)[N-]c3ccccc3[O-])cc2)S/C1=C\c1ccc([O-])c([N+](=O)[O-])c1 (cis-trans isomerization)
O=C1NC(=[NH+]c2ccc(C(=O)[N-]c3ccccc3[O-])cc2)S/C1=C\c1ccc([O-])c([N+](=O)[O-])c1 (3D coordinates assigned)
O=C1NC(=[NH+]c2ccc(C(=O)[N-]c3ccccc3[O-])cc2)S/C1=C\c1ccc([O-])c([N+](=O)[O-])c1 (nonaromatic ring conformer: 94.96391856566038 kcal/mol)

>  <smiles>  (45) 
O=C1NC(=Nc2ccc(C(=O)Nc3ccccc3O)cc2)SC1=Cc1ccc(O)c([N+](=O)[O-])c1

>  <score_type>  (45) 
oracle

>  <origin>  (45) 
adg

>  <m_score__min__energy>  (45) 
-15.31

>  <m_primary>  (45) 
energy

$$$$
45:0
     RDKit          3D

 20 20  0  0  0  0  0  0  0  0999 V2000
   54.5230   26.0520   45.9280 N   0  0  0  0  0  0  0  0  0  0  0  0
   55.8880   25.9790   46.3310 C   0  0  0  0  0  0  0  0  0  0  0  0
   56.2660   25.0560   47.1010 O   0  0  0  0  0  0  0  0  0  0  0  0
   56.8730   26.9840   45.8220 C   0  0  0  0  0  0  0  0  0  0  0  0
   56.1790   28.1240   45.2230 N   0  0  0  0  0  0  0  0  0  0  0  0
   56.8050   29.3770   44.8840 C   0  0  0  0  0  0  0  0  0  0  0  0
   57.7710   29.9720   45.7220 C   0  0  0  0  0  0  0  0  0  0  0  0
   58.3630   31.1890   45.3700 C   0  0  0  0  0  0  0  0  0  0  0  0
   58.0030   31.8260   44.1810 C   0  0  0  0  0  0  0  0  0  0  0  0
   58.5780   33.0060   43.8410 F   0  0  0  0  0  0  0  0  0  0  0  0
   57.0490   31.2470   43.3400 C   0  0  0  0  0  0  0  0  0  0  0  0
   56.4520   30.0300   43.6870 C   0  0  0  0  0  0  0  0  0  0  0  0
   55.5280   29.4910   42.8540 F   0  0  0  0  0  0  0  0  0  0  0  0
   53.8620   26.7140   46.3930 H   0  0  0  0  0  0  0  0  0  0  0  0
   57.4945   27.3372   46.6580 H   0  0  0  0  0  0  0  0  0  0  0  0
   57.5027   26.5083   45.0557 H   0  0  0  0  0  0  0  0  0  0  0  0
   55.1560   28.0060   45.0380 H   0  0  0  0  0  0  0  0  0  0  0  0
   58.0609   29.4750   46.6595 H   0  0  0  0  0  0  0  0  0  0  0  0
   59.1141   31.6455   46.0315 H   0  0  0  0  0  0  0  0  0  0  0  0
   56.7667   31.7492   42.4029 H   0  0  0  0  0  0  0  0  0  0  0  0
  1  2  1  0
  2  3  2  0
  2  4  1  0
  4  5  1  0
  5  6  1  0
  6  7  2  0
  7  8  1  0
  8  9  2  0
  9 10  1  0
  9 11  1  0
 11 12  2  0
 12 13  1  0
 12  6  1  0
  1 14  1  0
  4 15  1  0
  4 16  1  0
  5 17  1  0
  7 18  1  0
  8 19  1  0
 11 20  1  0
M  CHG  1   1  -1
M  END
>  <UniqueID>  (46) 
44

>  <SMILES>  (46) 
[NH-]C(=O)CNc1ccc(F)cc1F

>  <Energy>  (46) 
17.085511159467433

>  <Genealogy>  (46) 
[NH-]C(=O)CNc1ccc(F)cc1F (protonated)
[NH-]C(=O)CNc1ccc(F)cc1F (3D coordinates assigned)
[NH-]C(=O)CNc1ccc(F)cc1F (optimized conformer: 17.085511159467433 kcal/mol)

>  <smiles>  (46) 
NC(=O)CNc1ccc(F)cc1F

>  <score_type>  (46) 
oracle

>  <origin>  (46) 
adg

>  <m_score__min__energy>  (46) 
-8.7599999999999998

>  <m_primary>  (46) 
energy

$$$$
46:0
     RDKit          3D

 58 60  0  0  0  0  0  0  0  0999 V2000
   58.5610   33.3870   52.2470 C   0  0  0  0  0  0  0  0  0  0  0  0
   59.7040   33.2890   50.8850 S   0  0  0  0  0  0  0  0  0  0  0  0
   59.6420   34.5730   50.1080 O   0  0  0  0  0  0  0  0  0  0  0  0
   59.3110   32.1520   49.9820 O   0  0  0  0  0  0  0  0  0  0  0  0
   61.3250   33.0680   51.4800 N   0  0  0  0  0  0  0  0  0  0  0  0
   61.9980   31.9570   50.8010 C   0  0  0  0  0  0  0  0  0  0  0  0
   63.3230   32.4300   50.1990 C   0  0  0  0  0  0  0  0  0  0  0  0
   63.0940   33.2010   48.8910 C   0  0  0  0  0  0  0  0  0  0  0  0
   61.6960   33.0960   48.4420 N   0  0  0  0  0  0  0  0  0  0  0  0
   61.3130   34.1730   47.5110 C   0  0  0  0  0  0  0  0  0  0  0  0
   59.9610   33.8890   46.9370 C   0  0  0  0  0  0  0  0  0  0  0  0
   58.7540   34.3270   47.4450 C   0  0  0  0  0  0  0  0  0  0  0  0
   57.7890   33.8280   46.5970 C   0  0  0  0  0  0  0  0  0  0  0  0
   58.4700   33.1090   45.6280 C   0  0  0  0  0  0  0  0  0  0  0  0
   57.8930   32.3610   44.4960 C   0  0  0  0  0  0  0  0  0  0  0  0
   58.1780   32.6850   43.1600 C   0  0  0  0  0  0  0  0  0  0  0  0
   57.5860   31.9460   42.1360 C   0  0  0  0  0  0  0  0  0  0  0  0
   56.7140   30.9000   42.4430 C   0  0  0  0  0  0  0  0  0  0  0  0
   56.4390   30.6020   43.7870 C   0  0  0  0  0  0  0  0  0  0  0  0
   55.5150   29.5000   44.1410 C   0  0  0  0  0  0  0  0  0  0  0  0
   54.4590   29.3510   43.4710 O   0  0  0  0  0  0  0  0  0  0  0  0
   55.7630   28.5840   45.2200 N   0  0  0  0  0  0  0  0  0  0  0  0
   56.9030   27.6810   45.3870 C   0  0  0  0  0  0  0  0  0  0  0  0
   58.2010   28.2940   44.8430 C   0  0  0  0  0  0  0  0  0  0  0  0
   58.9850   28.9860   45.9270 C   0  0  0  0  0  0  0  0  0  0  0  0
   58.5090   28.9960   47.2480 C   0  0  0  0  0  0  0  0  0  0  0  0
   59.2260   29.6530   48.2510 C   0  0  0  0  0  0  0  0  0  0  0  0
   60.4190   30.3120   47.9420 C   0  0  0  0  0  0  0  0  0  0  0  0
   60.8940   30.3180   46.6270 C   0  0  0  0  0  0  0  0  0  0  0  0
   60.1780   29.6620   45.6200 C   0  0  0  0  0  0  0  0  0  0  0  0
   57.0450   31.3310   44.7630 N   0  0  0  0  0  0  0  0  0  0  0  0
   59.7620   33.1670   45.8600 O   0  0  0  0  0  0  0  0  0  0  0  0
   59.1160   33.3394   53.1956 H   0  0  0  0  0  0  0  0  0  0  0  0
   58.0072   34.3359   52.1934 H   0  0  0  0  0  0  0  0  0  0  0  0
   57.8538   32.5462   52.1934 H   0  0  0  0  0  0  0  0  0  0  0  0
   62.1947   31.1536   51.5262 H   0  0  0  0  0  0  0  0  0  0  0  0
   61.3500   31.5843   49.9940 H   0  0  0  0  0  0  0  0  0  0  0  0
   63.8299   33.0885   50.9197 H   0  0  0  0  0  0  0  0  0  0  0  0
   63.9411   31.5470   49.9795 H   0  0  0  0  0  0  0  0  0  0  0  0
   63.3390   34.2611   49.0531 H   0  0  0  0  0  0  0  0  0  0  0  0
   63.7400   32.7647   48.1149 H   0  0  0  0  0  0  0  0  0  0  0  0
   61.0960   33.1860   49.2950 H   0  0  0  0  0  0  0  0  0  0  0  0
   61.2866   35.1307   48.0514 H   0  0  0  0  0  0  0  0  0  0  0  0
   62.0496   34.2278   46.6959 H   0  0  0  0  0  0  0  0  0  0  0  0
   58.5956   34.9457   48.3406 H   0  0  0  0  0  0  0  0  0  0  0  0
   56.7011   33.9712   46.6737 H   0  0  0  0  0  0  0  0  0  0  0  0
   58.8616   33.5136   42.9232 H   0  0  0  0  0  0  0  0  0  0  0  0
   57.8064   32.1875   41.0857 H   0  0  0  0  0  0  0  0  0  0  0  0
   56.2461   30.3140   41.6382 H   0  0  0  0  0  0  0  0  0  0  0  0
   57.0326   27.4656   46.4579 H   0  0  0  0  0  0  0  0  0  0  0  0
   56.6960   26.7610   44.8206 H   0  0  0  0  0  0  0  0  0  0  0  0
   58.8197   27.4939   44.4105 H   0  0  0  0  0  0  0  0  0  0  0  0
   57.9352   29.0411   44.0806 H   0  0  0  0  0  0  0  0  0  0  0  0
   57.5670   28.4841   47.4943 H   0  0  0  0  0  0  0  0  0  0  0  0
   58.8511   29.6516   49.2851 H   0  0  0  0  0  0  0  0  0  0  0  0
   60.9843   30.8260   48.7333 H   0  0  0  0  0  0  0  0  0  0  0  0
   61.8317   30.8391   46.3840 H   0  0  0  0  0  0  0  0  0  0  0  0
   60.5500   29.6754   44.5849 H   0  0  0  0  0  0  0  0  0  0  0  0
  1  2  1  0
  2  3  2  0
  2  4  2  0
  2  5  1  0
  5  6  1  0
  6  7  1  0
  7  8  1  0
  8  9  1  0
  9 10  1  0
 10 11  1  0
 11 12  2  0
 12 13  1  0
 13 14  2  0
 14 15  1  0
 15 16  2  0
 16 17  1  0
 17 18  2  0
 18 19  1  0
 19 20  1  0
 20 21  2  0
 20 22  1  0
 22 23  1  0
 23 24  1  0
 24 25  1  0
 25 26  2  0
 26 27  1  0
 27 28  2  0
 28 29  1  0
 29 30  2  0
 19 31  2  0
 14 32  1  0
 32 11  1  0
 31 15  1  0
 30 25  1  0
  1 33  1  0
  1 34  1  0
  1 35  1  0
  6 36  1  0
  6 37  1  0
  7 38  1  0
  7 39  1  0
  8 40  1  0
  8 41  1  0
  9 42  1  0
 10 43  1  0
 10 44  1  0
 12 45  1  0
 13 46  1  0
 16 47  1  0
 17 48  1  0
 18 49  1  0
 23 50  1  0
 23 51  1  0
 24 52  1  0
 24 53  1  0
 26 54  1  0
 27 55  1  0
 28 56  1  0
 29 57  1  0
 30 58  1  0
M  CHG  2   5  -1  22  -1
M  END
>  <UniqueID>  (47) 
45

>  <SMILES>  (47) 
CS(=O)(=O)[N-]CCCNCc1ccc(-c2cccc(C(=O)[N-]CCc3ccccc3)n2)o1

>  <Energy>  (47) 
75.8291783030424

>  <Genealogy>  (47) 
CS(=O)(=O)[N-]CCCNCc1ccc(-c2cccc(C(=O)[N-]CCc3ccccc3)n2)o1 (protonated)
CS(=O)(=O)[N-]CCCNCc1ccc(-c2cccc(C(=O)[N-]CCc3ccccc3)n2)o1 (3D coordinates assigned)
CS(=O)(=O)[N-]CCCNCc1ccc(-c2cccc(C(=O)[N-]CCc3ccccc3)n2)o1 (optimized conformer: 75.8291783030424 kcal/mol)

>  <smiles>  (47) 
CS(=O)(=O)NCCCNCc1ccc(-c2cccc(C(=O)NCCc3ccccc3)n2)o1

>  <score_type>  (47) 
oracle

>  <origin>  (47) 
adg

>  <m_score__min__energy>  (47) 
-12.880000000000001

>  <m_primary>  (47) 
energy

$$$$
47:0
     RDKit          3D

 37 38  0  0  0  0  0  0  0  0999 V2000
   57.9250   27.8010   47.4660 N   0  0  0  0  0  0  0  0  0  0  0  0
   57.6980   26.5800   46.7630 C   0  0  0  0  0  0  0  0  0  0  0  0
   58.3360   25.5440   47.0890 O   0  0  0  0  0  0  0  0  0  0  0  0
   56.6990   26.5220   45.6480 C   0  0  0  0  0  0  0  0  0  0  0  0
   55.8960   27.7410   45.6150 N   0  0  0  0  0  0  0  0  0  0  0  0
   56.2100   28.9390   44.8940 C   0  0  0  0  0  0  0  0  0  0  0  0
   55.4990   29.9610   45.0880 O   0  0  0  0  0  0  0  0  0  0  0  0
   57.3930   29.0330   43.9650 C   0  0  0  0  0  0  0  0  0  0  0  0
   58.6930   29.0540   44.7350 C   0  0  0  0  0  0  0  0  0  0  0  0
   59.6000   27.9920   44.5720 C   0  0  0  0  0  0  0  0  0  0  0  0
   60.8140   27.9820   45.2590 C   0  0  0  0  0  0  0  0  0  0  0  0
   61.1370   29.0260   46.1240 C   0  0  0  0  0  0  0  0  0  0  0  0
   60.2430   30.0830   46.3090 C   0  0  0  0  0  0  0  0  0  0  0  0
   59.0150   30.1130   45.6220 C   0  0  0  0  0  0  0  0  0  0  0  0
   58.0870   31.1940   45.8440 N   0  0  0  0  0  0  0  0  0  0  0  0
   58.4860   32.5710   45.9230 C   0  0  0  0  0  0  0  0  0  0  0  0
   58.7640   33.1490   47.1760 C   0  0  0  0  0  0  0  0  0  0  0  0
   58.6700   32.1980   48.6530 Cl  0  0  0  0  0  0  0  0  0  0  0  0
   59.1510   34.4900   47.2610 C   0  0  0  0  0  0  0  0  0  0  0  0
   59.2510   35.2670   46.1050 C   0  0  0  0  0  0  0  0  0  0  0  0
   58.9580   34.7090   44.8590 C   0  0  0  0  0  0  0  0  0  0  0  0
   58.5700   33.3690   44.7600 C   0  0  0  0  0  0  0  0  0  0  0  0
   58.1330   32.7380   43.1760 Cl  0  0  0  0  0  0  0  0  0  0  0  0
   57.3980   28.6660   47.2130 H   0  0  0  0  0  0  0  0  0  0  0  0
   58.6220   27.8410   48.2430 H   0  0  0  0  0  0  0  0  0  0  0  0
   57.2307   26.4131   44.6912 H   0  0  0  0  0  0  0  0  0  0  0  0
   56.0328   25.6623   45.8124 H   0  0  0  0  0  0  0  0  0  0  0  0
   57.3895   28.1639   43.2907 H   0  0  0  0  0  0  0  0  0  0  0  0
   57.3124   29.9688   43.3925 H   0  0  0  0  0  0  0  0  0  0  0  0
   59.3498   27.1610   43.8961 H   0  0  0  0  0  0  0  0  0  0  0  0
   61.5178   27.1485   45.1178 H   0  0  0  0  0  0  0  0  0  0  0  0
   62.0968   29.0175   46.6614 H   0  0  0  0  0  0  0  0  0  0  0  0
   60.5013   30.9002   46.9985 H   0  0  0  0  0  0  0  0  0  0  0  0
   57.0980   30.9660   46.0840 H   0  0  0  0  0  0  0  0  0  0  0  0
   59.3774   34.9342   48.2415 H   0  0  0  0  0  0  0  0  0  0  0  0
   59.5610   36.3200   46.1761 H   0  0  0  0  0  0  0  0  0  0  0  0
   59.0327   35.3260   43.9514 H   0  0  0  0  0  0  0  0  0  0  0  0
  1  2  1  0
  2  3  2  0
  2  4  1  0
  4  5  1  0
  5  6  1  0
  6  7  2  0
  6  8  1  0
  8  9  1  0
  9 10  2  0
 10 11  1  0
 11 12  2  0
 12 13  1  0
 13 14  2  0
 14 15  1  0
 15 16  1  0
 16 17  2  0
 17 18  1  0
 17 19  1  0
 19 20  2  0
 20 21  1  0
 21 22  2  0
 22 23  1  0
 14  9  1  0
 22 16  1  0
  1 24  1  0
  1 25  1  0
  4 26  1  0
  4 27  1  0
  8 28  1  0
  8 29  1  0
 10 30  1  0
 11 31  1  0
 12 32  1  0
 13 33  1  0
 15 34  1  0
 19 35  1  0
 20 36  1  0
 21 37  1  0
M  CHG  1   5  -1
M  END
>  <UniqueID>  (48) 
46

>  <SMILES>  (48) 
NC(=O)C[N-]C(=O)Cc1ccccc1Nc1c(Cl)cccc1Cl

>  <Energy>  (48) 
41.92484326368711

>  <Genealogy>  (48) 
NC(=O)C[N-]C(=O)Cc1ccccc1Nc1c(Cl)cccc1Cl (protonated)
NC(=O)C[N-]C(=O)Cc1ccccc1Nc1c(Cl)cccc1Cl (3D coordinates assigned)
NC(=O)C[N-]C(=O)Cc1ccccc1Nc1c(Cl)cccc1Cl (optimized conformer: 41.92484326368711 kcal/mol)

>  <smiles>  (48) 
NC(=O)CNC(=O)Cc1ccccc1Nc1c(Cl)cccc1Cl

>  <score_type>  (48) 
oracle

>  <origin>  (48) 
adg

>  <m_score__min__energy>  (48) 
-9.7400000000000002

>  <m_primary>  (48) 
energy

$$$$
48:0
     RDKit          3D

 40 43  0  0  1  0  0  0  0  0999 V2000
   56.8440   22.7490   46.3630 C   0  0  0  0  0  0  0  0  0  0  0  0
   56.2330   24.0330   46.7210 C   0  0  0  0  0  0  0  0  0  0  0  0
   55.0180   24.2390   46.4870 O   0  0  0  0  0  0  0  0  0  0  0  0
   56.9490   25.0520   47.3180 O   0  0  0  0  0  0  0  0  0  0  0  0
   57.3420   26.1550   46.6300 C   0  0  0  0  0  0  0  0  0  0  0  0
   58.6930   26.4720   46.5970 C   0  0  0  0  0  0  0  0  0  0  0  0
   59.1350   27.5850   45.9090 C   0  0  0  0  0  0  0  0  0  0  0  0
   58.2790   28.4350   45.2240 C   0  0  0  0  0  0  0  0  0  0  0  0
   58.8440   29.5570   44.5010 C   0  0  0  0  0  0  0  0  0  0  0  0
   58.4480   30.8060   44.6040 C   0  0  0  0  0  0  0  0  0  0  0  0
   57.7470   31.6100   43.6020 C   0  0  0  0  0  0  0  0  0  0  0  0
   58.0210   33.0250   43.9810 C   0  0  0  0  0  0  0  0  0  0  0  0
   58.4540   32.9710   45.4010 C   0  0  0  0  0  0  0  0  0  0  0  0
   58.6210   34.0080   46.2920 C   0  0  0  0  0  0  0  0  0  0  0  0
   59.0470   33.7530   47.5840 C   0  0  0  0  0  0  0  0  0  0  0  0
   59.2910   34.5350   48.6410 N   0  0  0  0  0  0  0  0  0  0  0  0
   59.6860   33.7250   49.6450 C   0  0  0  0  0  0  0  0  0  0  0  0
   59.9970   34.1620   50.8020 O   0  0  0  0  0  0  0  0  0  0  0  0
   59.6920   32.4380   49.2280 N   0  0  0  0  0  0  0  0  0  0  0  0
   59.2930   32.4400   47.9300 C   0  0  0  0  0  0  0  0  0  0  0  0
   59.1170   31.4610   47.0310 N   0  0  0  0  0  0  0  0  0  0  0  0
   58.7060   31.6430   45.7660 C   0  0  0  0  0  0  0  0  0  0  0  0
   56.9420   28.1200   45.2570 C   0  0  0  0  0  0  0  0  0  0  0  0
   56.5000   27.0090   45.9450 C   0  0  0  0  0  0  0  0  0  0  0  0
   55.1420   26.7190   45.9600 O   0  0  0  0  0  0  0  0  0  0  0  0
   57.1056   22.1993   47.2792 H   0  0  0  0  0  0  0  0  0  0  0  0
   56.1314   22.1563   45.7706 H   0  0  0  0  0  0  0  0  0  0  0  0
   57.7534   22.9282   45.7706 H   0  0  0  0  0  0  0  0  0  0  0  0
   59.4169   25.8320   47.1227 H   0  0  0  0  0  0  0  0  0  0  0  0
   60.2123   27.8071   45.9040 H   0  0  0  0  0  0  0  0  0  0  0  0
   59.6726   29.3457   43.8090 H   0  0  0  0  0  0  0  0  0  0  0  0
   58.1356   31.3974   42.5951 H   0  0  0  0  0  0  0  0  0  0  0  0
   56.6694   31.3906   43.5769 H   0  0  0  0  0  0  0  0  0  0  0  0
   58.8180   33.4458   43.3504 H   0  0  0  0  0  0  0  0  0  0  0  0
   57.1372   33.6656   43.8447 H   0  0  0  0  0  0  0  0  0  0  0  0
   58.4153   35.0414   45.9760 H   0  0  0  0  0  0  0  0  0  0  0  0
   59.1760   35.5760   48.6230 H   0  0  0  0  0  0  0  0  0  0  0  0
   59.9610   31.5940   49.8100 H   0  0  0  0  0  0  0  0  0  0  0  0
   56.2180   28.7591   44.7304 H   0  0  0  0  0  0  0  0  0  0  0  0
   54.7660   25.8810   46.3910 H   0  0  0  0  0  0  0  0  0  0  0  0
  1  2  1  0
  2  3  2  0
  2  4  1  0
  4  5  1  0
  5  6  2  0
  6  7  1  0
  7  8  2  0
  8  9  1  0
  9 10  2  0
 10 11  1  0
 11 12  1  0
 12 13  1  0
 13 14  2  0
 14 15  1  0
 15 16  1  0
 16 17  1  0
 17 18  2  0
 17 19  1  0
 19 20  1  0
 20 21  1  0
 21 22  2  0
  8 23  1  0
 23 24  2  0
 24 25  1  0
 24  5  1  0
 22 10  1  0
 22 13  1  0
 20 15  2  0
  1 26  1  0
  1 27  1  0
  1 28  1  0
  6 29  1  0
  7 30  1  0
  9 31  1  0
 11 32  1  0
 11 33  1  0
 12 34  1  0
 12 35  1  0
 14 36  1  0
 16 37  1  0
 19 38  1  0
 23 39  1  0
 25 40  1  0
M  END
>  <smiles>  (49) 
CC(=O)Oc1ccc(C=C2CCc3cc4[nH]c(=O)[nH]c4nc32)cc1O

>  <score_type>  (49) 
oracle

>  <origin>  (49) 
adg

>  <m_score__min__energy>  (49) 
-9.1999999999999993

>  <m_primary>  (49) 
energy

$$$$
49:0
     RDKit          3D

 41 42  0  0  0  0  0  0  0  0999 V2000
   60.6160   33.8190   50.6930 C   0  0  0  0  0  0  0  0  0  0  0  0
   61.8190   33.4920   49.8480 C   0  0  0  0  0  0  0  0  0  0  0  0
   63.1070   33.7180   50.3730 C   0  0  0  0  0  0  0  0  0  0  0  0
   63.2710   34.1720   51.6420 F   0  0  0  0  0  0  0  0  0  0  0  0
   64.2410   33.4930   49.5890 C   0  0  0  0  0  0  0  0  0  0  0  0
   64.1090   33.0450   48.2760 C   0  0  0  0  0  0  0  0  0  0  0  0
   62.8430   32.7910   47.7500 C   0  0  0  0  0  0  0  0  0  0  0  0
   61.6910   32.9680   48.5320 C   0  0  0  0  0  0  0  0  0  0  0  0
   60.4190   32.6230   47.9530 N   0  0  0  0  0  0  0  0  0  0  0  0
   59.7630   33.3610   46.9060 C   0  0  0  0  0  0  0  0  0  0  0  0
   60.2860   34.6140   46.5530 C   0  0  0  0  0  0  0  0  0  0  0  0
   59.6440   35.4130   45.6050 C   0  0  0  0  0  0  0  0  0  0  0  0
   58.4770   34.9630   44.9900 C   0  0  0  0  0  0  0  0  0  0  0  0
   57.9570   33.7070   45.3060 C   0  0  0  0  0  0  0  0  0  0  0  0
   58.6010   32.8820   46.2430 C   0  0  0  0  0  0  0  0  0  0  0  0
   58.0710   31.5210   46.4610 C   0  0  0  0  0  0  0  0  0  0  0  0
   58.4320   30.8570   47.4690 O   0  0  0  0  0  0  0  0  0  0  0  0
   57.1660   30.9510   45.5080 N   0  0  0  0  0  0  0  0  0  0  0  0
   57.5830   30.3320   44.2540 C   0  0  0  0  0  0  0  0  0  0  0  0
   56.5470   29.3120   43.7810 C   0  0  0  0  0  0  0  0  0  0  0  0
   55.7240   28.8710   44.9050 N   0  0  0  0  0  0  0  0  0  0  0  0
   56.3910   27.4270   45.6030 S   0  0  0  0  0  0  0  0  0  0  0  0
   55.1180   26.3430   46.0390 N   0  0  0  0  0  0  0  0  0  0  0  0
   57.2760   26.7600   44.5880 O   0  0  0  0  0  0  0  0  0  0  0  0
   57.2090   27.7620   46.8220 O   0  0  0  0  0  0  0  0  0  0  0  0
   60.8846   33.7460   51.7572 H   0  0  0  0  0  0  0  0  0  0  0  0
   60.2779   34.8416   50.4695 H   0  0  0  0  0  0  0  0  0  0  0  0
   59.8068   33.1082   50.4695 H   0  0  0  0  0  0  0  0  0  0  0  0
   65.2419   33.6701   50.0096 H   0  0  0  0  0  0  0  0  0  0  0  0
   65.0036   32.8918   47.6546 H   0  0  0  0  0  0  0  0  0  0  0  0
   62.7459   32.4477   46.7095 H   0  0  0  0  0  0  0  0  0  0  0  0
   59.9320   31.7750   48.3240 H   0  0  0  0  0  0  0  0  0  0  0  0
   61.2117   34.9707   47.0282 H   0  0  0  0  0  0  0  0  0  0  0  0
   60.0592   36.3975   45.3435 H   0  0  0  0  0  0  0  0  0  0  0  0
   57.9645   35.5995   44.2536 H   0  0  0  0  0  0  0  0  0  0  0  0
   57.0348   33.3600   44.8170 H   0  0  0  0  0  0  0  0  0  0  0  0
   57.6970   31.1123   43.4871 H   0  0  0  0  0  0  0  0  0  0  0  0
   58.5391   29.8133   44.4178 H   0  0  0  0  0  0  0  0  0  0  0  0
   55.9031   29.7748   43.0186 H   0  0  0  0  0  0  0  0  0  0  0  0
   57.0681   28.4422   43.3544 H   0  0  0  0  0  0  0  0  0  0  0  0
   54.4180   26.3490   45.2610 H   0  0  0  0  0  0  0  0  0  0  0  0
  1  2  1  0
  2  3  2  0
  3  4  1  0
  3  5  1  0
  5  6  2  0
  6  7  1  0
  7  8  2  0
  8  9  1  0
  9 10  1  0
 10 11  2  0
 11 12  1  0
 12 13  2  0
 13 14  1  0
 14 15  2  0
 15 16  1  0
 16 17  2  0
 16 18  1  0
 18 19  1  0
 19 20  1  0
 20 21  1  0
 21 22  1  0
 22 23  1  0
 22 24  2  0
 22 25  2  0
  8  2  1  0
 15 10  1  0
  1 26  1  0
  1 27  1  0
  1 28  1  0
  5 29  1  0
  6 30  1  0
  7 31  1  0
  9 32  1  0
 11 33  1  0
 12 34  1  0
 13 35  1  0
 14 36  1  0
 19 37  1  0
 19 38  1  0
 20 39  1  0
 20 40  1  0
 23 41  1  0
M  CHG  3  18  -1  21  -1  23  -1
M  END
>  <UniqueID>  (50) 
47

>  <SMILES>  (50) 
Cc1c(F)cccc1Nc1ccccc1C(=O)[N-]CC[N-]S([NH-])(=O)=O

>  <Energy>  (50) 
47.49104546606885

>  <Genealogy>  (50) 
Cc1c(F)cccc1Nc1ccccc1C(=O)[N-]CC[N-]S([NH-])(=O)=O (protonated)
Cc1c(F)cccc1Nc1ccccc1C(=O)[N-]CC[N-]S([NH-])(=O)=O (3D coordinates assigned)
Cc1c(F)cccc1Nc1ccccc1C(=O)[N-]CC[N-]S([NH-])(=O)=O (optimized conformer: 47.49104546606885 kcal/mol)

>  <smiles>  (50) 
Cc1c(F)cccc1Nc1ccccc1C(=O)NCCNS(N)(=O)=O

>  <score_type>  (50) 
oracle

>  <origin>  (50) 
adg

>  <m_score__min__energy>  (50) 
-14.08

>  <m_primary>  (50) 
energy

$$$$
50:0
     RDKit          3D

 53 56  0  0  0  0  0  0  0  0999 V2000
   59.3540   33.8240   45.1770 C   0  0  0  0  0  0  0  0  0  0  0  0
   59.7030   34.5030   46.7830 S   0  0  0  0  0  0  0  0  0  0  0  0
   59.6330   36.0030   46.7180 O   0  0  0  0  0  0  0  0  0  0  0  0
   58.6820   34.0150   47.7720 O   0  0  0  0  0  0  0  0  0  0  0  0
   61.3090   33.9960   47.2960 C   0  0  0  0  0  0  0  0  0  0  0  0
   62.3520   33.8910   46.3650 C   0  0  0  0  0  0  0  0  0  0  0  0
   63.6190   33.4670   46.7750 C   0  0  0  0  0  0  0  0  0  0  0  0
   63.8510   33.1450   48.1160 C   0  0  0  0  0  0  0  0  0  0  0  0
   62.8160   33.2530   49.0580 C   0  0  0  0  0  0  0  0  0  0  0  0
   63.0540   32.8620   50.4930 C   0  0  0  0  0  0  0  0  0  0  0  0
   62.1560   31.7600   50.8800 N   0  0  0  0  0  0  0  0  0  0  0  0
   62.3000   30.5920   49.9940 C   0  0  0  0  0  0  0  0  0  0  0  0
   61.1800   30.5070   48.9820 C   0  0  0  0  0  0  0  0  0  0  0  0
   59.8590   30.3350   49.4210 C   0  0  0  0  0  0  0  0  0  0  0  0
   58.8080   30.2800   48.5010 C   0  0  0  0  0  0  0  0  0  0  0  0
   59.0630   30.3830   47.1240 C   0  0  0  0  0  0  0  0  0  0  0  0
   57.9610   30.3410   46.1380 C   0  0  0  0  0  0  0  0  0  0  0  0
   57.4180   31.4540   45.6000 N   0  0  0  0  0  0  0  0  0  0  0  0
   56.4320   31.0690   44.8030 N   0  0  0  0  0  0  0  0  0  0  0  0
   56.3940   29.7280   44.8690 C   0  0  0  0  0  0  0  0  0  0  0  0
   55.5880   29.0250   44.2020 O   0  0  0  0  0  0  0  0  0  0  0  0
   57.3330   29.2270   45.6930 N   0  0  0  0  0  0  0  0  0  0  0  0
   57.6610   27.8420   45.9010 C   0  0  0  0  0  0  0  0  0  0  0  0
   56.6460   26.8850   46.0650 C   0  0  0  0  0  0  0  0  0  0  0  0
   56.9710   25.5400   46.2660 C   0  0  0  0  0  0  0  0  0  0  0  0
   58.3090   25.1420   46.3120 C   0  0  0  0  0  0  0  0  0  0  0  0
   59.3250   26.0880   46.1600 C   0  0  0  0  0  0  0  0  0  0  0  0
   59.0050   27.4350   45.9590 C   0  0  0  0  0  0  0  0  0  0  0  0
   60.3810   30.5800   46.6860 C   0  0  0  0  0  0  0  0  0  0  0  0
   61.4350   30.6380   47.6050 C   0  0  0  0  0  0  0  0  0  0  0  0
   62.6990   30.8270   47.1490 F   0  0  0  0  0  0  0  0  0  0  0  0
   61.5410   33.6660   48.6380 C   0  0  0  0  0  0  0  0  0  0  0  0
   58.8539   32.8509   45.2911 H   0  0  0  0  0  0  0  0  0  0  0  0
   58.6973   34.5111   44.6232 H   0  0  0  0  0  0  0  0  0  0  0  0
   60.2949   33.6899   44.6232 H   0  0  0  0  0  0  0  0  0  0  0  0
   62.1727   34.1429   45.3094 H   0  0  0  0  0  0  0  0  0  0  0  0
   64.4350   33.3864   46.0418 H   0  0  0  0  0  0  0  0  0  0  0  0
   64.8481   32.8059   48.4337 H   0  0  0  0  0  0  0  0  0  0  0  0
   64.0983   32.5375   50.6120 H   0  0  0  0  0  0  0  0  0  0  0  0
   62.8525   33.7301   51.1378 H   0  0  0  0  0  0  0  0  0  0  0  0
   62.3920   31.4580   51.8540 H   0  0  0  0  0  0  0  0  0  0  0  0
   61.1620   32.0910   50.8720 H   0  0  0  0  0  0  0  0  0  0  0  0
   63.2576   30.6686   49.4582 H   0  0  0  0  0  0  0  0  0  0  0  0
   62.2640   29.6864   50.6173 H   0  0  0  0  0  0  0  0  0  0  0  0
   59.6486   30.2427   50.4967 H   0  0  0  0  0  0  0  0  0  0  0  0
   57.7750   30.1553   48.8579 H   0  0  0  0  0  0  0  0  0  0  0  0
   55.5910   27.1950   46.0352 H   0  0  0  0  0  0  0  0  0  0  0  0
   56.1717   24.7942   46.3881 H   0  0  0  0  0  0  0  0  0  0  0  0
   58.5626   24.0831   46.4680 H   0  0  0  0  0  0  0  0  0  0  0  0
   60.3784   25.7736   46.1984 H   0  0  0  0  0  0  0  0  0  0  0  0
   59.8081   28.1782   45.8460 H   0  0  0  0  0  0  0  0  0  0  0  0
   60.5879   30.6898   45.6112 H   0  0  0  0  0  0  0  0  0  0  0  0
   60.7197   33.7308   49.3668 H   0  0  0  0  0  0  0  0  0  0  0  0
  1  2  1  0
  2  3  2  0
  2  4  2  0
  2  5  1  0
  5  6  2  0
  6  7  1  0
  7  8  2  0
  8  9  1  0
  9 10  1  0
 10 11  1  0
 11 12  1  0
 12 13  1  0
 13 14  2  0
 14 15  1  0
 15 16  2  0
 16 17  1  0
 17 18  2  0
 18 19  1  0
 19 20  1  0
 20 21  2  0
 20 22  1  0
 22 23  1  0
 23 24  2  0
 24 25  1  0
 25 26  2  0
 26 27  1  0
 27 28  2  0
 16 29  1  0
 29 30  2  0
 30 31  1  0
  9 32  2  0
 32  5  1  0
 30 13  1  0
 22 17  1  0
 28 23  1  0
  1 33  1  0
  1 34  1  0
  1 35  1  0
  6 36  1  0
  7 37  1  0
  8 38  1  0
 10 39  1  0
 10 40  1  0
 11 41  1  0
 11 42  1  0
 12 43  1  0
 12 44  1  0
 14 45  1  0
 15 46  1  0
 24 47  1  0
 25 48  1  0
 26 49  1  0
 27 50  1  0
 28 51  1  0
 29 52  1  0
 32 53  1  0
M  CHG  2  11   1  19  -1
M  END
>  <UniqueID>  (51) 
48

>  <SMILES>  (51) 
CS(=O)(=O)c1cccc(C[NH2+]Cc2ccc(-c3n[n-]c(=O)n3-c3ccccc3)cc2F)c1

>  <Energy>  (51) 
99.37522349002012

>  <Genealogy>  (51) 
CS(=O)(=O)c1cccc(C[NH2+]Cc2ccc(-c3n[n-]c(=O)n3-c3ccccc3)cc2F)c1 (protonated)
CS(=O)(=O)c1cccc(C[NH2+]Cc2ccc(-c3n[n-]c(=O)n3-c3ccccc3)cc2F)c1 (3D coordinates assigned)
CS(=O)(=O)c1cccc(C[NH2+]Cc2ccc(-c3n[n-]c(=O)n3-c3ccccc3)cc2F)c1 (optimized conformer: 99.37522349002012 kcal/mol)

>  <smiles>  (51) 
CS(=O)(=O)c1cccc(CNCc2ccc(-c3n[nH]c(=O)n3-c3ccccc3)cc2F)c1

>  <score_type>  (51) 
oracle

>  <origin>  (51) 
adg

>  <m_score__min__energy>  (51) 
-9.8000000000000007

>  <m_primary>  (51) 
energy

$$$$
51:0
     RDKit          3D

 54 57  0  0  0  0  0  0  0  0999 V2000
   55.1550   27.8330   45.9920 H   0  0  0  0  0  0  0  0  0  0  0  0
   55.1870   26.8210   46.0270 O   0  0  0  0  0  0  0  0  0  0  0  0
   56.3970   26.1270   45.9930 C   0  0  0  0  0  0  0  0  0  0  0  0
   56.4110   24.7280   45.9060 C   0  0  0  0  0  0  0  0  0  0  0  0
   55.4644   24.1693   45.8630 H   0  0  0  0  0  0  0  0  0  0  0  0
   57.6280   24.0450   45.8740 C   0  0  0  0  0  0  0  0  0  0  0  0
   57.6477   22.9472   45.8070 H   0  0  0  0  0  0  0  0  0  0  0  0
   58.8200   24.7700   45.9280 C   0  0  0  0  0  0  0  0  0  0  0  0
   59.7854   24.2434   45.9017 H   0  0  0  0  0  0  0  0  0  0  0  0
   58.7880   26.1260   46.0130 N   0  0  0  0  0  0  0  0  0  0  0  0
   57.6150   26.8200   46.0470 C   0  0  0  0  0  0  0  0  0  0  0  0
   57.6140   28.1170   46.1310 N   0  0  0  0  0  0  0  0  0  0  0  0
   57.0530   29.1650   44.8670 S   0  0  0  0  0  0  0  0  0  0  0  0
   57.5420   28.6670   43.5350 O   0  0  0  0  0  0  0  0  0  0  0  0
   55.5500   29.1980   44.8600 O   0  0  0  0  0  0  0  0  0  0  0  0
   57.6760   30.7860   45.1530 C   0  0  0  0  0  0  0  0  0  0  0  0
   57.8870   31.6570   44.0810 C   0  0  0  0  0  0  0  0  0  0  0  0
   57.6649   31.3279   43.0552 H   0  0  0  0  0  0  0  0  0  0  0  0
   58.3790   32.9440   44.3080 C   0  0  0  0  0  0  0  0  0  0  0  0
   58.5374   33.6238   43.4578 H   0  0  0  0  0  0  0  0  0  0  0  0
   58.6740   33.3800   45.6110 C   0  0  0  0  0  0  0  0  0  0  0  0
   59.2330   34.7640   45.8070 C   0  0  0  0  0  0  0  0  0  0  0  0
   59.3186   34.9759   46.8830 H   0  0  0  0  0  0  0  0  0  0  0  0
   60.2272   34.8273   45.3406 H   0  0  0  0  0  0  0  0  0  0  0  0
   58.5617   35.5001   45.3406 H   0  0  0  0  0  0  0  0  0  0  0  0
   58.4400   32.5070   46.7040 C   0  0  0  0  0  0  0  0  0  0  0  0
   58.7080   32.9080   48.1080 C   0  0  0  0  0  0  0  0  0  0  0  0
   57.8370   32.7050   48.9950 O   0  0  0  0  0  0  0  0  0  0  0  0
   59.9770   33.4490   48.5020 N   0  0  0  0  0  0  0  0  0  0  0  0
   61.2380   33.1500   47.8860 C   0  0  0  0  0  0  0  0  0  0  0  0
   62.0550   34.1800   47.3860 C   0  0  0  0  0  0  0  0  0  0  0  0
   61.7086   35.2231   47.4306 H   0  0  0  0  0  0  0  0  0  0  0  0
   63.3040   33.8860   46.8330 C   0  0  0  0  0  0  0  0  0  0  0  0
   63.9328   34.6955   46.4337 H   0  0  0  0  0  0  0  0  0  0  0  0
   63.7540   32.5660   46.7870 C   0  0  0  0  0  0  0  0  0  0  0  0
   64.7376   32.3362   46.3514 H   0  0  0  0  0  0  0  0  0  0  0  0
   62.9580   31.5360   47.2930 C   0  0  0  0  0  0  0  0  0  0  0  0
   63.3198   30.4978   47.2590 H   0  0  0  0  0  0  0  0  0  0  0  0
   61.6980   31.8190   47.8450 C   0  0  0  0  0  0  0  0  0  0  0  0
   60.8750   30.7450   48.3280 N   0  0  0  0  0  0  0  0  0  0  0  0
   60.4940   29.6090   47.5080 C   0  0  0  0  0  0  0  0  0  0  0  0
   59.9189   29.9423   46.6316 H   0  0  0  0  0  0  0  0  0  0  0  0
   61.3716   29.0668   47.1260 H   0  0  0  0  0  0  0  0  0  0  0  0
   59.6340   28.7330   48.4080 C   0  0  0  0  0  0  0  0  0  0  0  0
   58.5680   28.8795   48.1794 H   0  0  0  0  0  0  0  0  0  0  0  0
   59.8536   27.6651   48.2620 H   0  0  0  0  0  0  0  0  0  0  0  0
   59.9370   29.1780   49.8370 C   0  0  0  0  0  0  0  0  0  0  0  0
   59.0162   29.1855   50.4387 H   0  0  0  0  0  0  0  0  0  0  0  0
   60.6431   28.4947   50.3315 H   0  0  0  0  0  0  0  0  0  0  0  0
   60.5080   30.5870   49.7240 C   0  0  0  0  0  0  0  0  0  0  0  0
   59.7514   31.3327   50.0095 H   0  0  0  0  0  0  0  0  0  0  0  0
   61.3696   30.7334   50.3920 H   0  0  0  0  0  0  0  0  0  0  0  0
   57.9350   31.2180   46.4570 C   0  0  0  0  0  0  0  0  0  0  0  0
   57.7411   30.5403   47.3015 H   0  0  0  0  0  0  0  0  0  0  0  0
  1  2  1  0
  2  3  1  0
  3  4  2  0
  4  5  1  0
  4  6  1  0
  6  7  1  0
  6  8  2  0
  8  9  1  0
  8 10  1  0
 10 11  1  0
 11 12  2  0
 12 13  1  0
 13 14  2  0
 13 15  2  0
 13 16  1  0
 16 17  2  0
 17 18  1  0
 17 19  1  0
 19 20  1  0
 19 21  2  0
 21 22  1  0
 22 23  1  0
 22 24  1  0
 22 25  1  0
 21 26  1  0
 26 27  1  0
 27 28  2  0
 27 29  1  0
 29 30  1  0
 30 31  2  0
 31 32  1  0
 31 33  1  0
 33 34  1  0
 33 35  2  0
 35 36  1  0
 35 37  1  0
 37 38  1  0
 37 39  2  0
 39 40  1  0
 40 41  1  0
 41 42  1  0
 41 43  1  0
 41 44  1  0
 44 45  1  0
 44 46  1  0
 44 47  1  0
 47 48  1  0
 47 49  1  0
 47 50  1  0
 50 51  1  0
 50 52  1  0
 26 53  2  0
 53 54  1  0
 11  3  1  0
 53 16  1  0
 39 30  1  0
 50 40  1  0
M  CHG  2  10  -1  29  -1
M  END
>  <UniqueID>  (52) 
49

>  <SMILES>  (52) 
Cc1ccc(S(=O)(=O)/N=c2\[n-]cccc2O)cc1C(=O)[N-]c1ccccc1N1CCCC1

>  <Energy>  (52) 
74.77536593376924

>  <Genealogy>  (52) 
Cc1ccc(S(=O)(=O)N=c2[n-]cccc2O)cc1C(=O)[N-]c1ccccc1N1CCCC1 (protonated)
Cc1ccc(S(=O)(=O)/N=c2\[n-]cccc2O)cc1C(=O)[N-]c1ccccc1N1CCCC1 (cis-trans isomerization)
Cc1ccc(S(=O)(=O)/N=c2\[n-]cccc2O)cc1C(=O)[N-]c1ccccc1N1CCCC1 (3D coordinates assigned)
Cc1ccc(S(=O)(=O)/N=c2\[n-]cccc2O)cc1C(=O)[N-]c1ccccc1N1CCCC1 (nonaromatic ring conformer: 74.77536593376924 kcal/mol)

>  <smiles>  (52) 
Cc1ccc(S(=O)(=O)N=c2[nH]cccc2O)cc1C(=O)Nc1ccccc1N1CCCC1

>  <score_type>  (52) 
oracle

>  <origin>  (52) 
adg

>  <m_score__min__energy>  (52) 
-13.06

>  <m_primary>  (52) 
energy

$$$$
52:0
     RDKit          3D

 48 51  0  0  0  0  0  0  0  0999 V2000
   58.3440   34.1570   46.7500 O   0  0  0  0  0  0  0  0  0  0  0  0
   58.5130   33.0790   46.1180 C   0  0  0  0  0  0  0  0  0  0  0  0
   57.3880   32.4050   45.4320 C   0  0  0  0  0  0  0  0  0  0  0  0
   57.4750   31.3210   44.6430 C   0  0  0  0  0  0  0  0  0  0  0  0
   57.5420   29.9180   45.1100 C   0  0  0  0  0  0  0  0  0  0  0  0
   56.3630   29.1570   45.1930 C   0  0  0  0  0  0  0  0  0  0  0  0
   55.1350   29.7290   44.8750 O   0  0  0  0  0  0  0  0  0  0  0  0
   56.4040   27.8870   45.5810 O   0  0  0  0  0  0  0  0  0  0  0  0
   57.5360   27.2650   45.8930 C   0  0  0  0  0  0  0  0  0  0  0  0
   57.4980   25.9280   46.3030 C   0  0  0  0  0  0  0  0  0  0  0  0
   58.6820   25.2600   46.6300 C   0  0  0  0  0  0  0  0  0  0  0  0
   59.9080   25.9230   46.5460 C   0  0  0  0  0  0  0  0  0  0  0  0
   59.9590   27.2600   46.1350 C   0  0  0  0  0  0  0  0  0  0  0  0
   58.7720   27.9430   45.8070 C   0  0  0  0  0  0  0  0  0  0  0  0
   58.7680   29.2850   45.3870 C   0  0  0  0  0  0  0  0  0  0  0  0
   59.8530   29.9140   45.2460 O   0  0  0  0  0  0  0  0  0  0  0  0
   59.8230   32.5080   46.0230 N   0  0  0  0  0  0  0  0  0  0  0  0
   60.8410   32.7830   46.9890 C   0  0  0  0  0  0  0  0  0  0  0  0
   61.9630   33.5270   46.6020 C   0  0  0  0  0  0  0  0  0  0  0  0
   62.9760   33.8070   47.5230 C   0  0  0  0  0  0  0  0  0  0  0  0
   62.8780   33.3370   48.8350 C   0  0  0  0  0  0  0  0  0  0  0  0
   61.7690   32.5850   49.2280 C   0  0  0  0  0  0  0  0  0  0  0  0
   60.7370   32.2980   48.3150 C   0  0  0  0  0  0  0  0  0  0  0  0
   59.6230   31.4820   48.7340 N   0  0  0  0  0  0  0  0  0  0  0  0
   58.5230   32.0540   49.5200 C   0  0  0  0  0  0  0  0  0  0  0  0
   58.2780   31.2200   50.8000 C   0  0  0  0  0  0  0  0  0  0  0  0
   58.8700   29.9270   50.7760 O   0  0  0  0  0  0  0  0  0  0  0  0
   58.7170   29.3280   49.5050 C   0  0  0  0  0  0  0  0  0  0  0  0
   59.6320   30.0320   48.4980 C   0  0  0  0  0  0  0  0  0  0  0  0
   56.3855   32.8321   45.5824 H   0  0  0  0  0  0  0  0  0  0  0  0
   57.4985   31.4907   43.5564 H   0  0  0  0  0  0  0  0  0  0  0  0
   56.5346   25.4011   46.3683 H   0  0  0  0  0  0  0  0  0  0  0  0
   58.6476   24.2094   46.9543 H   0  0  0  0  0  0  0  0  0  0  0  0
   60.8367   25.3929   46.8037 H   0  0  0  0  0  0  0  0  0  0  0  0
   60.9272   27.7777   46.0681 H   0  0  0  0  0  0  0  0  0  0  0  0
   60.0300   31.8090   45.2760 H   0  0  0  0  0  0  0  0  0  0  0  0
   62.0471   33.8927   45.5680 H   0  0  0  0  0  0  0  0  0  0  0  0
   63.8511   34.3979   47.2148 H   0  0  0  0  0  0  0  0  0  0  0  0
   63.6754   33.5596   49.5593 H   0  0  0  0  0  0  0  0  0  0  0  0
   61.7013   32.2133   50.2611 H   0  0  0  0  0  0  0  0  0  0  0  0
   58.7796   33.0853   49.8039 H   0  0  0  0  0  0  0  0  0  0  0  0
   57.6080   32.0442   48.9095 H   0  0  0  0  0  0  0  0  0  0  0  0
   58.6916   31.7729   51.6563 H   0  0  0  0  0  0  0  0  0  0  0  0
   57.1911   31.0685   50.8751 H   0  0  0  0  0  0  0  0  0  0  0  0
   58.9881   28.2637   49.5657 H   0  0  0  0  0  0  0  0  0  0  0  0
   57.6707   29.4206   49.1784 H   0  0  0  0  0  0  0  0  0  0  0  0
   60.6579   29.6515   48.6110 H   0  0  0  0  0  0  0  0  0  0  0  0
   59.2678   29.8312   47.4796 H   0  0  0  0  0  0  0  0  0  0  0  0
  1  2  2  0
  2  3  1  0
  3  4  2  3
  4  5  1  0
  5  6  2  0
  6  7  1  0
  6  8  1  0
  8  9  1  0
  9 10  2  0
 10 11  1  0
 11 12  2  0
 12 13  1  0
 13 14  2  0
 14 15  1  0
 15 16  2  0
  2 17  1  0
 17 18  1  0
 18 19  2  0
 19 20  1  0
 20 21  2  0
 21 22  1  0
 22 23  2  0
 23 24  1  0
 24 25  1  0
 25 26  1  0
 26 27  1  0
 27 28  1  0
 28 29  1  0
 15  5  1  0
 23 18  1  0
 29 24  1  0
 14  9  1  0
  3 30  1  0
  4 31  1  0
 10 32  1  0
 11 33  1  0
 12 34  1  0
 13 35  1  0
 17 36  1  0
 19 37  1  0
 20 38  1  0
 21 39  1  0
 22 40  1  0
 25 41  1  0
 25 42  1  0
 26 43  1  0
 26 44  1  0
 28 45  1  0
 28 46  1  0
 29 47  1  0
 29 48  1  0
M  CHG  1   7  -1
M  END
>  <UniqueID>  (53) 
50

>  <SMILES>  (53) 
O=C(C=Cc1c([O-])oc2ccccc2c1=O)Nc1ccccc1N1CCOCC1

>  <Energy>  (53) 
84.80998649033495

>  <Genealogy>  (53) 
O=C(C=Cc1c([O-])oc2ccccc2c1=O)Nc1ccccc1N1CCOCC1 (protonated)
O=C(C=Cc1c([O-])oc2ccccc2c1=O)Nc1ccccc1N1CCOCC1 (3D coordinates assigned)
O=C(C=Cc1c([O-])oc2ccccc2c1=O)Nc1ccccc1N1CCOCC1 (nonaromatic ring conformer: 84.80998649033495 kcal/mol)

>  <smiles>  (53) 
O=C(C=Cc1c(O)oc2ccccc2c1=O)Nc1ccccc1N1CCOCC1

>  <score_type>  (53) 
oracle

>  <origin>  (53) 
adg

>  <m_score__min__energy>  (53) 
-11.02

>  <m_primary>  (53) 
energy

$$$$
53:0
     RDKit          3D

 37 39  0  0  0  0  0  0  0  0999 V2000
   57.7030   25.3120   47.6950 O   0  0  0  0  0  0  0  0  0  0  0  0
   57.9720   26.0860   46.7380 C   0  0  0  0  0  0  0  0  0  0  0  0
   59.2150   26.0050   46.1210 O   0  0  0  0  0  0  0  0  0  0  0  0
   56.9770   27.0590   46.2560 C   0  0  0  0  0  0  0  0  0  0  0  0
   55.7620   26.7350   46.2440 O   0  0  0  0  0  0  0  0  0  0  0  0
   57.3720   28.4010   45.7810 C   0  0  0  0  0  0  0  0  0  0  0  0
   56.4900   29.2790   45.1230 C   0  0  0  0  0  0  0  0  0  0  0  0
   55.1570   28.9780   44.8740 O   0  0  0  0  0  0  0  0  0  0  0  0
   57.0520   30.4930   44.7540 C   0  0  0  0  0  0  0  0  0  0  0  0
   58.6560   30.4920   45.2440 S   0  0  0  0  0  0  0  0  0  0  0  0
   58.6440   28.9580   45.9460 C   0  0  0  0  0  0  0  0  0  0  0  0
   59.8040   28.3130   46.5000 N   0  0  0  0  0  0  0  0  0  0  0  0
   60.4280   29.1800   47.4700 C   0  0  0  0  0  0  0  0  0  0  0  0
   61.0400   30.3790   47.0660 C   0  0  0  0  0  0  0  0  0  0  0  0
   61.6670   31.2030   48.0030 C   0  0  0  0  0  0  0  0  0  0  0  0
   61.6980   30.8480   49.3560 C   0  0  0  0  0  0  0  0  0  0  0  0
   62.3510   31.7020   50.2570 O   0  0  0  0  0  0  0  0  0  0  0  0
   63.7410   31.8120   50.3910 C   0  0  0  0  0  0  0  0  0  0  0  0
   64.3920   30.9970   51.3260 C   0  0  0  0  0  0  0  0  0  0  0  0
   65.7770   31.0800   51.4930 C   0  0  0  0  0  0  0  0  0  0  0  0
   66.5220   31.9710   50.7190 C   0  0  0  0  0  0  0  0  0  0  0  0
   65.8860   32.7710   49.7650 C   0  0  0  0  0  0  0  0  0  0  0  0
   64.4980   32.6920   49.5900 C   0  0  0  0  0  0  0  0  0  0  0  0
   63.7500   33.6480   48.3150 Cl  0  0  0  0  0  0  0  0  0  0  0  0
   61.1060   29.6380   49.7630 C   0  0  0  0  0  0  0  0  0  0  0  0
   60.4740   28.8140   48.8280 C   0  0  0  0  0  0  0  0  0  0  0  0
   56.5360   31.3122   44.2318 H   0  0  0  0  0  0  0  0  0  0  0  0
   59.5570   27.4010   46.9440 H   0  0  0  0  0  0  0  0  0  0  0  0
   60.4710   28.1050   45.7210 H   0  0  0  0  0  0  0  0  0  0  0  0
   61.0250   30.6701   46.0053 H   0  0  0  0  0  0  0  0  0  0  0  0
   62.1408   32.1397   47.6744 H   0  0  0  0  0  0  0  0  0  0  0  0
   63.8097   30.2876   51.9323 H   0  0  0  0  0  0  0  0  0  0  0  0
   66.2803   30.4427   52.2349 H   0  0  0  0  0  0  0  0  0  0  0  0
   67.6105   32.0439   50.8597 H   0  0  0  0  0  0  0  0  0  0  0  0
   66.4773   33.4649   49.1496 H   0  0  0  0  0  0  0  0  0  0  0  0
   61.1409   29.3397   50.8212 H   0  0  0  0  0  0  0  0  0  0  0  0
   60.0091   27.8725   49.1559 H   0  0  0  0  0  0  0  0  0  0  0  0
  1  2  2  0
  2  3  1  0
  2  4  1  0
  4  5  2  0
  4  6  1  0
  6  7  1  0
  7  8  1  0
  7  9  2  0
  9 10  1  0
 10 11  1  0
 11 12  1  0
 12 13  1  0
 13 14  2  0
 14 15  1  0
 15 16  2  0
 16 17  1  0
 17 18  1  0
 18 19  2  0
 19 20  1  0
 20 21  2  0
 21 22  1  0
 22 23  2  0
 23 24  1  0
 16 25  1  0
 25 26  2  0
 11  6  2  0
 26 13  1  0
 23 18  1  0
  9 27  1  0
 12 28  1  0
 12 29  1  0
 14 30  1  0
 15 31  1  0
 19 32  1  0
 20 33  1  0
 21 34  1  0
 22 35  1  0
 25 36  1  0
 26 37  1  0
M  CHG  3   3  -1   8  -1  12   1
M  END
>  <UniqueID>  (54) 
51

>  <SMILES>  (54) 
O=C([O-])C(=O)c1c([O-])csc1[NH2+]c1ccc(Oc2ccccc2Cl)cc1

>  <Energy>  (54) 
82.10493423108404

>  <Genealogy>  (54) 
O=C([O-])C(=O)c1c([O-])csc1[NH2+]c1ccc(Oc2ccccc2Cl)cc1 (protonated)
O=C([O-])C(=O)c1c([O-])csc1[NH2+]c1ccc(Oc2ccccc2Cl)cc1 (3D coordinates assigned)
O=C([O-])C(=O)c1c([O-])csc1[NH2+]c1ccc(Oc2ccccc2Cl)cc1 (optimized conformer: 82.10493423108404 kcal/mol)

>  <smiles>  (54) 
O=C(O)C(=O)c1c(O)csc1Nc1ccc(Oc2ccccc2Cl)cc1

>  <score_type>  (54) 
oracle

>  <origin>  (54) 
adg

>  <m_score__min__energy>  (54) 
-12.6

>  <m_primary>  (54) 
energy

$$$$
54:0
     RDKit          3D

 26 27  0  0  0  0  0  0  0  0999 V2000
   54.7590   28.9520   45.5820 H   0  0  0  0  0  0  0  0  0  0  0  0
   55.5200   28.8220   44.9260 O   0  0  0  0  0  0  0  0  0  0  0  0
   56.7600   28.3530   45.3520 C   0  0  0  0  0  0  0  0  0  0  0  0
   56.8160   27.2630   46.1550 N   0  0  0  0  0  0  0  0  0  0  0  0
   57.9930   26.7880   46.6330 C   0  0  0  0  0  0  0  0  0  0  0  0
   57.9790   25.7760   47.3860 O   0  0  0  0  0  0  0  0  0  0  0  0
   59.1730   27.4050   46.3060 N   0  0  0  0  0  0  0  0  0  0  0  0
   60.4430   26.9100   46.8630 C   0  0  0  0  0  0  0  0  0  0  0  0
   60.3937   26.9292   47.9617 H   0  0  0  0  0  0  0  0  0  0  0  0
   60.6158   25.8787   46.5217 H   0  0  0  0  0  0  0  0  0  0  0  0
   61.2682   27.5523   46.5217 H   0  0  0  0  0  0  0  0  0  0  0  0
   59.1570   28.5280   45.5180 C   0  0  0  0  0  0  0  0  0  0  0  0
   60.2350   29.1300   45.2510 O   0  0  0  0  0  0  0  0  0  0  0  0
   57.9460   29.0150   44.9920 C   0  0  0  0  0  0  0  0  0  0  0  0
   57.9430   30.2250   44.1320 C   0  0  0  0  0  0  0  0  0  0  0  0
   58.5350   30.2168   43.2049 H   0  0  0  0  0  0  0  0  0  0  0  0
   57.2470   31.3260   44.4420 C   0  0  0  0  0  0  0  0  0  0  0  0
   56.1733   31.3505   44.2042 H   0  0  0  0  0  0  0  0  0  0  0  0
   57.8500   32.5080   45.0870 C   0  0  0  0  0  0  0  0  0  0  0  0
   57.8870   32.7490   46.7500 S   0  0  0  0  0  0  0  0  0  0  0  0
   58.6980   34.2200   46.7150 C   0  0  0  0  0  0  0  0  0  0  0  0
   58.9785   34.8230   47.5912 H   0  0  0  0  0  0  0  0  0  0  0  0
   58.9530   34.5430   45.3890 C   0  0  0  0  0  0  0  0  0  0  0  0
   59.4754   35.4616   45.0837 H   0  0  0  0  0  0  0  0  0  0  0  0
   58.4830   33.5900   44.4760 C   0  0  0  0  0  0  0  0  0  0  0  0
   58.6014   33.6856   43.3866 H   0  0  0  0  0  0  0  0  0  0  0  0
  1  2  1  0
  2  3  1  0
  3  4  1  0
  4  5  1  0
  5  6  2  0
  5  7  1  0
  7  8  1  0
  8  9  1  0
  8 10  1  0
  8 11  1  0
  7 12  1  0
 12 13  2  0
 12 14  1  0
 14 15  1  0
 15 16  1  0
 15 17  2  0
 17 18  1  0
 17 19  1  0
 19 20  1  0
 20 21  1  0
 21 22  1  0
 21 23  2  0
 23 24  1  0
 23 25  1  0
 25 26  1  0
 14  3  2  0
 25 19  2  0
M  CHG  1   4  -1
M  END
>  <UniqueID>  (55) 
52

>  <SMILES>  (55) 
Cn1c(=O)[n-]c(O)c(/C=C/c2cccs2)c1=O

>  <Energy>  (55) 
61.47539887569777

>  <Genealogy>  (55) 
Cn1c(=O)[n-]c(O)c(C=Cc2cccs2)c1=O (protonated)
Cn1c(=O)[n-]c(O)c(/C=C/c2cccs2)c1=O (cis-trans isomerization)
Cn1c(=O)[n-]c(O)c(/C=C/c2cccs2)c1=O (3D coordinates assigned)
Cn1c(=O)[n-]c(O)c(/C=C/c2cccs2)c1=O (optimized conformer: 61.47539887569777 kcal/mol)

>  <smiles>  (55) 
Cn1c(=O)[nH]c(O)c(C=Cc2cccs2)c1=O

>  <score_type>  (55) 
oracle

>  <origin>  (55) 
adg

>  <m_score__min__energy>  (55) 
-8.7400000000000002

>  <m_primary>  (55) 
energy

$$$$
55:0
     RDKit          3D

 62 66  0  0  0  0  0  0  0  0999 V2000
   58.6560   31.0680   46.8760 O   0  0  0  0  0  0  0  0  0  0  0  0
   59.4570   30.1790   46.4820 C   0  0  0  0  0  0  0  0  0  0  0  0
   60.8700   30.3600   46.6690 N   0  0  0  0  0  0  0  0  0  0  0  0
   61.4220   31.5480   47.3270 C   0  0  0  0  0  0  0  0  0  0  0  0
   62.9540   31.5800   47.1690 C   0  0  0  0  0  0  0  0  0  0  0  0
   63.5460   33.0060   47.1250 C   0  0  0  0  0  0  0  0  0  0  0  0
   62.7370   34.0080   47.8520 N   0  0  0  0  0  0  0  0  0  0  0  0
   63.1080   34.2460   49.2650 C   0  0  0  0  0  0  0  0  0  0  0  0
   63.9140   33.1230   49.8760 C   0  0  0  0  0  0  0  0  0  0  0  0
   65.3200   33.1420   49.8280 C   0  0  0  0  0  0  0  0  0  0  0  0
   66.0620   32.1120   50.4180 C   0  0  0  0  0  0  0  0  0  0  0  0
   65.4070   31.0480   51.0430 C   0  0  0  0  0  0  0  0  0  0  0  0
   64.0090   31.0030   51.0640 C   0  0  0  0  0  0  0  0  0  0  0  0
   63.2650   32.0310   50.4770 C   0  0  0  0  0  0  0  0  0  0  0  0
   61.2860   34.0460   47.5470 C   0  0  0  0  0  0  0  0  0  0  0  0
   60.7950   32.8220   46.7560 C   0  0  0  0  0  0  0  0  0  0  0  0
   58.9370   28.9570   45.8310 C   0  0  0  0  0  0  0  0  0  0  0  0
   59.2500   28.6590   44.4940 C   0  0  0  0  0  0  0  0  0  0  0  0
   58.7480   27.4940   43.9090 C   0  0  0  0  0  0  0  0  0  0  0  0
   57.9260   26.6380   44.6490 C   0  0  0  0  0  0  0  0  0  0  0  0
   57.4000   25.4640   44.0900 C   0  0  0  0  0  0  0  0  0  0  0  0
   56.5540   24.6350   44.8500 C   0  0  0  0  0  0  0  0  0  0  0  0
   56.0090   23.4490   44.3360 O   0  0  0  0  0  0  0  0  0  0  0  0
   55.1680   22.5720   45.0340 C   0  0  0  0  0  0  0  0  0  0  0  0
   55.6760   21.3420   45.4650 C   0  0  0  0  0  0  0  0  0  0  0  0
   54.8530   20.4720   46.1820 C   0  0  0  0  0  0  0  0  0  0  0  0
   53.5210   20.8240   46.4550 C   0  0  0  0  0  0  0  0  0  0  0  0
   52.6260   19.9230   47.2670 C   0  0  0  0  0  0  0  0  0  0  0  0
   53.3930   18.9470   47.8720 F   0  0  0  0  0  0  0  0  0  0  0  0
   51.6730   19.3160   46.4710 F   0  0  0  0  0  0  0  0  0  0  0  0
   51.9750   20.6540   48.2440 F   0  0  0  0  0  0  0  0  0  0  0  0
   53.0600   22.0810   46.0280 C   0  0  0  0  0  0  0  0  0  0  0  0
   53.8840   22.9130   45.3370 N   0  0  0  0  0  0  0  0  0  0  0  0
   56.2740   24.9750   46.1790 C   0  0  0  0  0  0  0  0  0  0  0  0
   56.8030   26.1380   46.7450 C   0  0  0  0  0  0  0  0  0  0  0  0
   57.6240   26.9750   45.9860 C   0  0  0  0  0  0  0  0  0  0  0  0
   58.1370   28.1080   46.5340 N   0  0  0  0  0  0  0  0  0  0  0  0
   61.5270   29.6160   46.3370 H   0  0  0  0  0  0  0  0  0  0  0  0
   61.1805   31.4984   48.3990 H   0  0  0  0  0  0  0  0  0  0  0  0
   63.4017   31.0446   48.0193 H   0  0  0  0  0  0  0  0  0  0  0  0
   63.1867   31.1063   46.2039 H   0  0  0  0  0  0  0  0  0  0  0  0
   64.5503   32.9791   47.5731 H   0  0  0  0  0  0  0  0  0  0  0  0
   63.5658   33.3135   46.0690 H   0  0  0  0  0  0  0  0  0  0  0  0
   63.7030   35.1697   49.3175 H   0  0  0  0  0  0  0  0  0  0  0  0
   62.1711   34.3189   49.8368 H   0  0  0  0  0  0  0  0  0  0  0  0
   65.8390   33.9707   49.3241 H   0  0  0  0  0  0  0  0  0  0  0  0
   67.1613   32.1404   50.3895 H   0  0  0  0  0  0  0  0  0  0  0  0
   65.9904   30.2458   51.5185 H   0  0  0  0  0  0  0  0  0  0  0  0
   63.4941   30.1573   51.5432 H   0  0  0  0  0  0  0  0  0  0  0  0
   62.1660   31.9848   50.4857 H   0  0  0  0  0  0  0  0  0  0  0  0
   60.7315   34.0931   48.4959 H   0  0  0  0  0  0  0  0  0  0  0  0
   61.1099   34.9308   46.9177 H   0  0  0  0  0  0  0  0  0  0  0  0
   59.6996   32.7547   46.8307 H   0  0  0  0  0  0  0  0  0  0  0  0
   61.0895   32.9298   45.7017 H   0  0  0  0  0  0  0  0  0  0  0  0
   59.8873   29.3399   43.9107 H   0  0  0  0  0  0  0  0  0  0  0  0
   58.9992   27.2499   42.8663 H   0  0  0  0  0  0  0  0  0  0  0  0
   57.6496   25.1904   43.0542 H   0  0  0  0  0  0  0  0  0  0  0  0
   56.7160   21.0625   45.2406 H   0  0  0  0  0  0  0  0  0  0  0  0
   55.2487   19.5080   46.5342 H   0  0  0  0  0  0  0  0  0  0  0  0
   52.0295   22.3927   46.2535 H   0  0  0  0  0  0  0  0  0  0  0  0
   55.6306   24.3195   46.7842 H   0  0  0  0  0  0  0  0  0  0  0  0
   56.5725   26.3946   47.7895 H   0  0  0  0  0  0  0  0  0  0  0  0
  1  2  2  0
  2  3  1  0
  3  4  1  0
  4  5  1  0
  5  6  1  0
  6  7  1  0
  7  8  1  0
  8  9  1  0
  9 10  2  0
 10 11  1  0
 11 12  2  0
 12 13  1  0
 13 14  2  0
  7 15  1  0
 15 16  1  0
  2 17  1  0
 17 18  2  0
 18 19  1  0
 19 20  2  0
 20 21  1  0
 21 22  2  0
 22 23  1  0
 23 24  1  0
 24 25  2  0
 25 26  1  0
 26 27  2  0
 27 28  1  0
 28 29  1  0
 28 30  1  0
 28 31  1  0
 27 32  1  0
 32 33  2  0
 22 34  1  0
 34 35  2  0
 35 36  1  0
 36 37  2  0
 16  4  1  0
 37 17  1  0
 14  9  1  0
 36 20  1  0
 33 24  1  0
  3 38  1  0
  4 39  1  0
  5 40  1  0
  5 41  1  0
  6 42  1  0
  6 43  1  0
  8 44  1  0
  8 45  1  0
 10 46  1  0
 11 47  1  0
 12 48  1  0
 13 49  1  0
 14 50  1  0
 15 51  1  0
 15 52  1  0
 16 53  1  0
 16 54  1  0
 18 55  1  0
 19 56  1  0
 21 57  1  0
 25 58  1  0
 26 59  1  0
 32 60  1  0
 34 61  1  0
 35 62  1  0
M  END
>  <UniqueID>  (56) 
53

>  <SMILES>  (56) 
O=C(NC1CCN(Cc2ccccc2)CC1)c1ccc2cc(Oc3ccc(C(F)(F)F)cn3)ccc2n1

>  <Energy>  (56) 
87.37621804977296

>  <Genealogy>  (56) 
O=C(NC1CCN(Cc2ccccc2)CC1)c1ccc2cc(Oc3ccc(C(F)(F)F)cn3)ccc2n1 (3D coordinates assigned)
O=C(NC1CCN(Cc2ccccc2)CC1)c1ccc2cc(Oc3ccc(C(F)(F)F)cn3)ccc2n1 (nonaromatic ring conformer: 87.37621804977296 kcal/mol)

>  <smiles>  (56) 
O=C(NC1CCN(Cc2ccccc2)CC1)c1ccc2cc(Oc3ccc(C(F)(F)F)cn3)ccc2n1

>  <score_type>  (56) 
oracle

>  <origin>  (56) 
adg

>  <m_score__min__energy>  (56) 
-7

>  <m_primary>  (56) 
energy

$$$$
56:0
     RDKit          3D

 59 62  0  0  0  0  0  0  0  0999 V2000
   60.4400   27.3420   50.0980 O   0  0  0  0  0  0  0  0  0  0  0  0
   60.0810   28.0900   49.1510 C   0  0  0  0  0  0  0  0  0  0  0  0
   60.2430   27.6220   47.8040 N   0  0  0  0  0  0  0  0  0  0  0  0
   59.2050   27.1270   46.9420 C   0  0  0  0  0  0  0  0  0  0  0  0
   59.1990   25.7950   46.4940 C   0  0  0  0  0  0  0  0  0  0  0  0
   58.1730   25.3360   45.6720 C   0  0  0  0  0  0  0  0  0  0  0  0
   57.1630   26.2050   45.2600 C   0  0  0  0  0  0  0  0  0  0  0  0
   57.1780   27.5510   45.6460 C   0  0  0  0  0  0  0  0  0  0  0  0
   56.1220   28.3930   45.1560 N   0  0  0  0  0  0  0  0  0  0  0  0
   56.2840   29.7410   44.0770 S   0  0  0  0  0  0  0  0  0  0  0  0
   55.9450   29.3230   42.6740 O   0  0  0  0  0  0  0  0  0  0  0  0
   55.3750   30.8550   44.5140 O   0  0  0  0  0  0  0  0  0  0  0  0
   57.9670   30.3290   44.1390 C   0  0  0  0  0  0  0  0  0  0  0  0
   58.0180   31.7090   44.7360 C   0  0  0  0  0  0  0  0  0  0  0  0
   58.3550   32.8140   43.9370 C   0  0  0  0  0  0  0  0  0  0  0  0
   58.4200   34.0940   44.4970 C   0  0  0  0  0  0  0  0  0  0  0  0
   58.1620   34.2770   45.8590 C   0  0  0  0  0  0  0  0  0  0  0  0
   57.8420   33.1800   46.6630 C   0  0  0  0  0  0  0  0  0  0  0  0
   57.7730   31.9000   46.1050 C   0  0  0  0  0  0  0  0  0  0  0  0
   58.2010   28.0080   46.5080 C   0  0  0  0  0  0  0  0  0  0  0  0
   58.2190   29.3190   46.9680 O   0  0  0  0  0  0  0  0  0  0  0  0
   59.5950   29.4570   49.4480 C   0  0  0  0  0  0  0  0  0  0  0  0
   58.6450   29.6260   50.4720 C   0  0  0  0  0  0  0  0  0  0  0  0
   58.1210   30.8930   50.7710 C   0  0  0  0  0  0  0  0  0  0  0  0
   57.1510   31.0490   51.8230 N   0  0  0  0  0  0  0  0  0  0  0  0
   57.1820   32.0460   52.5760 O   0  0  0  0  0  0  0  0  0  0  0  0
   56.1700   30.1030   52.0180 O   0  0  0  0  0  0  0  0  0  0  0  0
   58.5550   31.9990   50.0270 C   0  0  0  0  0  0  0  0  0  0  0  0
   59.4970   31.8460   49.0090 C   0  0  0  0  0  0  0  0  0  0  0  0
   60.0310   30.5810   48.7050 C   0  0  0  0  0  0  0  0  0  0  0  0
   61.0520   30.4420   47.6950 N   0  0  0  0  0  0  0  0  0  0  0  0
   61.7830   31.5670   47.1110 C   0  0  0  0  0  0  0  0  0  0  0  0
   62.4590   32.3780   48.1860 C   0  0  0  0  0  0  0  0  0  0  0  0
   62.0600   33.7050   48.4200 C   0  0  0  0  0  0  0  0  0  0  0  0
   62.6750   34.4560   49.4280 C   0  0  0  0  0  0  0  0  0  0  0  0
   63.6930   33.8920   50.2020 C   0  0  0  0  0  0  0  0  0  0  0  0
   64.0980   32.5740   49.9700 C   0  0  0  0  0  0  0  0  0  0  0  0
   63.4850   31.8180   48.9650 C   0  0  0  0  0  0  0  0  0  0  0  0
   60.0078   25.1124   46.7938 H   0  0  0  0  0  0  0  0  0  0  0  0
   58.1591   24.2853   45.3468 H   0  0  0  0  0  0  0  0  0  0  0  0
   56.3466   25.8294   44.6256 H   0  0  0  0  0  0  0  0  0  0  0  0
   58.5677   29.6446   44.7560 H   0  0  0  0  0  0  0  0  0  0  0  0
   58.3698   30.3673   43.1161 H   0  0  0  0  0  0  0  0  0  0  0  0
   58.5685   32.6722   42.8673 H   0  0  0  0  0  0  0  0  0  0  0  0
   58.6744   34.9578   43.8652 H   0  0  0  0  0  0  0  0  0  0  0  0
   58.2110   35.2846   46.2975 H   0  0  0  0  0  0  0  0  0  0  0  0
   57.6443   33.3235   47.7355 H   0  0  0  0  0  0  0  0  0  0  0  0
   57.5254   31.0381   46.7420 H   0  0  0  0  0  0  0  0  0  0  0  0
   58.3077   28.7512   51.0473 H   0  0  0  0  0  0  0  0  0  0  0  0
   58.1490   32.9972   50.2478 H   0  0  0  0  0  0  0  0  0  0  0  0
   59.8261   32.7261   48.4370 H   0  0  0  0  0  0  0  0  0  0  0  0
   61.2780   29.4920   47.3250 H   0  0  0  0  0  0  0  0  0  0  0  0
   62.5443   31.1817   46.4168 H   0  0  0  0  0  0  0  0  0  0  0  0
   61.0707   32.2124   46.5761 H   0  0  0  0  0  0  0  0  0  0  0  0
   61.2627   34.1542   47.8096 H   0  0  0  0  0  0  0  0  0  0  0  0
   62.3565   35.4927   49.6116 H   0  0  0  0  0  0  0  0  0  0  0  0
   64.1753   34.4847   50.9933 H   0  0  0  0  0  0  0  0  0  0  0  0
   64.8999   32.1308   50.5787 H   0  0  0  0  0  0  0  0  0  0  0  0
   63.8075   30.7820   48.7843 H   0  0  0  0  0  0  0  0  0  0  0  0
  1  2  2  0
  2  3  1  0
  3  4  1  0
  4  5  2  0
  5  6  1  0
  6  7  2  0
  7  8  1  0
  8  9  1  0
  9 10  1  0
 10 11  2  0
 10 12  2  0
 10 13  1  0
 13 14  1  0
 14 15  2  0
 15 16  1  0
 16 17  2  0
 17 18  1  0
 18 19  2  0
  8 20  2  0
 20 21  1  0
  2 22  1  0
 22 23  2  0
 23 24  1  0
 24 25  1  0
 25 26  2  0
 25 27  1  0
 24 28  2  0
 28 29  1  0
 29 30  2  0
 30 31  1  0
 31 32  1  0
 32 33  1  0
 33 34  2  0
 34 35  1  0
 35 36  2  0
 36 37  1  0
 37 38  2  0
 20  4  1  0
 30 22  1  0
 38 33  1  0
 19 14  1  0
  5 39  1  0
  6 40  1  0
  7 41  1  0
 13 42  1  0
 13 43  1  0
 15 44  1  0
 16 45  1  0
 17 46  1  0
 18 47  1  0
 19 48  1  0
 23 49  1  0
 28 50  1  0
 29 51  1  0
 31 52  1  0
 32 53  1  0
 32 54  1  0
 34 55  1  0
 35 56  1  0
 36 57  1  0
 37 58  1  0
 38 59  1  0
M  CHG  5   3  -1   9  -1  21  -1  25   1  27  -1
M  END
>  <UniqueID>  (57) 
54

>  <SMILES>  (57) 
O=C([N-]c1cccc([N-]S(=O)(=O)Cc2ccccc2)c1[O-])c1cc([N+](=O)[O-])ccc1NCc1ccccc1

>  <Energy>  (57) 
76.0890250120044

>  <Genealogy>  (57) 
O=C([N-]c1cccc([N-]S(=O)(=O)Cc2ccccc2)c1[O-])c1cc([N+](=O)[O-])ccc1NCc1ccccc1 (protonated)
O=C([N-]c1cccc([N-]S(=O)(=O)Cc2ccccc2)c1[O-])c1cc([N+](=O)[O-])ccc1NCc1ccccc1 (3D coordinates assigned)
O=C([N-]c1cccc([N-]S(=O)(=O)Cc2ccccc2)c1[O-])c1cc([N+](=O)[O-])ccc1NCc1ccccc1 (optimized conformer: 76.0890250120044 kcal/mol)

>  <smiles>  (57) 
O=C(Nc1cccc(NS(=O)(=O)Cc2ccccc2)c1O)c1cc([N+](=O)[O-])ccc1NCc1ccccc1

>  <score_type>  (57) 
oracle

>  <origin>  (57) 
adg

>  <m_score__min__energy>  (57) 
-17.109999999999999

>  <m_primary>  (57) 
energy

$$$$
57:0
     RDKit          3D

 34 36  0  0  0  0  0  0  0  0999 V2000
   57.1254   20.9109   43.3130 H   0  0  0  0  0  0  0  0  0  0  0  0
   57.0240   21.9200   43.7390 C   0  0  0  0  0  0  0  0  0  0  0  0
   55.8910   22.6380   43.5220 N   0  0  0  0  0  0  0  0  0  0  0  0
   55.7250   23.8860   44.0350 C   0  0  0  0  0  0  0  0  0  0  0  0
   54.7976   24.4420   43.8328 H   0  0  0  0  0  0  0  0  0  0  0  0
   56.7320   24.4690   44.8220 C   0  0  0  0  0  0  0  0  0  0  0  0
   56.5600   25.8350   45.3750 C   0  0  0  0  0  0  0  0  0  0  0  0
   55.5060   26.1200   46.0020 O   0  0  0  0  0  0  0  0  0  0  0  0
   57.5310   26.8690   45.1600 N   0  0  0  0  0  0  0  0  0  0  0  0
   57.2650   28.1120   44.8830 C   0  0  0  0  0  0  0  0  0  0  0  0
   58.3990   29.3420   44.6410 S   0  0  0  0  0  0  0  0  0  0  0  0
   57.2100   30.5150   44.4090 C   0  0  0  0  0  0  0  0  0  0  0  0
   57.4660   31.9730   44.2020 C   0  0  0  0  0  0  0  0  0  0  0  0
   58.0528   32.1124   43.2821 H   0  0  0  0  0  0  0  0  0  0  0  0
   56.5037   32.4988   44.1153 H   0  0  0  0  0  0  0  0  0  0  0  0
   58.2300   32.5340   45.3690 C   0  0  0  0  0  0  0  0  0  0  0  0
   59.0390   33.6710   45.2070 C   0  0  0  0  0  0  0  0  0  0  0  0
   59.0908   34.1714   44.2288 H   0  0  0  0  0  0  0  0  0  0  0  0
   59.7780   34.1690   46.2830 C   0  0  0  0  0  0  0  0  0  0  0  0
   60.4025   35.0651   46.1524 H   0  0  0  0  0  0  0  0  0  0  0  0
   59.7250   33.5300   47.5260 C   0  0  0  0  0  0  0  0  0  0  0  0
   60.7390   34.2090   48.9950 Br  0  0  0  0  0  0  0  0  0  0  0  0
   58.9330   32.3890   47.6910 C   0  0  0  0  0  0  0  0  0  0  0  0
   58.8940   31.8843   48.6676 H   0  0  0  0  0  0  0  0  0  0  0  0
   58.1910   31.8890   46.6170 C   0  0  0  0  0  0  0  0  0  0  0  0
   57.5745   30.9876   46.7491 H   0  0  0  0  0  0  0  0  0  0  0  0
   55.9600   29.9190   44.5580 C   0  0  0  0  0  0  0  0  0  0  0  0
   55.0179   30.4806   44.4738 H   0  0  0  0  0  0  0  0  0  0  0  0
   56.0020   28.5860   44.8160 N   0  0  0  0  0  0  0  0  0  0  0  0
   55.1500   28.0000   44.9590 H   0  0  0  0  0  0  0  0  0  0  0  0
   57.9140   23.7410   45.0410 C   0  0  0  0  0  0  0  0  0  0  0  0
   58.7265   24.1802   45.6385 H   0  0  0  0  0  0  0  0  0  0  0  0
   58.0590   22.4620   44.5020 C   0  0  0  0  0  0  0  0  0  0  0  0
   58.9801   21.8867   44.6769 H   0  0  0  0  0  0  0  0  0  0  0  0
  1  2  1  0
  2  3  2  0
  3  4  1  0
  4  5  1  0
  4  6  2  0
  6  7  1  0
  7  8  2  0
  7  9  1  0
  9 10  2  0
 10 11  1  0
 11 12  1  0
 12 13  1  0
 13 14  1  0
 13 15  1  0
 13 16  1  0
 16 17  2  0
 17 18  1  0
 17 19  1  0
 19 20  1  0
 19 21  2  0
 21 22  1  0
 21 23  1  0
 23 24  1  0
 23 25  2  0
 25 26  1  0
 12 27  2  0
 27 28  1  0
 27 29  1  0
 29 30  1  0
  6 31  1  0
 31 32  1  0
 31 33  2  0
 33 34  1  0
 33  2  1  0
 29 10  1  0
 25 16  1  0
M  END
>  <UniqueID>  (58) 
55

>  <SMILES>  (58) 
O=C(/N=c1/[nH]cc(Cc2ccc(Br)cc2)s1)c1cccnc1

>  <Energy>  (58) 
73.69143761087247

>  <Genealogy>  (58) 
O=C(/N=c1/[nH]cc(Cc2ccc(Br)cc2)s1)c1cccnc1 (cis-trans isomerization)
O=C(/N=c1/[nH]cc(Cc2ccc(Br)cc2)s1)c1cccnc1 (3D coordinates assigned)
O=C(/N=c1/[nH]cc(Cc2ccc(Br)cc2)s1)c1cccnc1 (optimized conformer: 73.69143761087247 kcal/mol)

>  <smiles>  (58) 
O=C(N=c1[nH]cc(Cc2ccc(Br)cc2)s1)c1cccnc1

>  <score_type>  (58) 
oracle

>  <origin>  (58) 
adg

>  <m_score__min__energy>  (58) 
-8.9700000000000006

>  <m_primary>  (58) 
energy

$$$$
58:0
     RDKit          3D

 58 61  0  0  0  0  0  0  0  0999 V2000
   60.6360   26.5600   49.2600 O   0  0  0  0  0  0  0  0  0  0  0  0
   60.3810   27.5180   48.4830 C   0  0  0  0  0  0  0  0  0  0  0  0
   60.2920   27.2570   47.0770 N   0  0  0  0  0  0  0  0  0  0  0  0
   60.3440   28.2650   46.0250 C   0  0  0  0  0  0  0  0  0  0  0  0
   58.9460   28.6020   45.5940 C   0  0  0  0  0  0  0  0  0  0  0  0
   58.6780   29.8320   44.9690 C   0  0  0  0  0  0  0  0  0  0  0  0
   57.3710   30.1630   44.5910 C   0  0  0  0  0  0  0  0  0  0  0  0
   56.3160   29.2760   44.8410 C   0  0  0  0  0  0  0  0  0  0  0  0
   55.0240   29.6250   44.4410 O   0  0  0  0  0  0  0  0  0  0  0  0
   56.5730   28.0530   45.4870 C   0  0  0  0  0  0  0  0  0  0  0  0
   55.5340   27.1650   45.7550 O   0  0  0  0  0  0  0  0  0  0  0  0
   57.8810   27.7220   45.8670 C   0  0  0  0  0  0  0  0  0  0  0  0
   60.1190   28.8480   49.0590 C   0  0  0  0  0  0  0  0  0  0  0  0
   60.8830   29.9660   48.6980 C   0  0  0  0  0  0  0  0  0  0  0  0
   60.5900   31.2180   49.2640 C   0  0  0  0  0  0  0  0  0  0  0  0
   61.3010   32.3840   48.9390 O   0  0  0  0  0  0  0  0  0  0  0  0
   61.8330   32.6980   47.6510 C   0  0  0  0  0  0  0  0  0  0  0  0
   60.7070   32.8840   46.6300 C   0  0  0  0  0  0  0  0  0  0  0  0
   59.6940   33.8290   47.1550 N   0  0  0  0  0  0  0  0  0  0  0  0
   58.4080   33.1640   47.4700 C   0  0  0  0  0  0  0  0  0  0  0  0
   57.4250   33.1850   46.2800 C   0  0  0  0  0  0  0  0  0  0  0  0
   58.1230   33.2870   45.0570 O   0  0  0  0  0  0  0  0  0  0  0  0
   58.7500   34.5550   44.9560 C   0  0  0  0  0  0  0  0  0  0  0  0
   59.4810   34.9780   46.2510 C   0  0  0  0  0  0  0  0  0  0  0  0
   59.5480   31.3200   50.1890 C   0  0  0  0  0  0  0  0  0  0  0  0
   58.8320   30.1720   50.5740 C   0  0  0  0  0  0  0  0  0  0  0  0
   57.7420   30.2290   51.5840 C   0  0  0  0  0  0  0  0  0  0  0  0
   57.6680   29.2970   52.6400 C   0  0  0  0  0  0  0  0  0  0  0  0
   56.6290   29.3660   53.5750 C   0  0  0  0  0  0  0  0  0  0  0  0
   55.6470   30.3540   53.4630 C   0  0  0  0  0  0  0  0  0  0  0  0
   54.6190   30.4190   54.3940 O   0  0  0  0  0  0  0  0  0  0  0  0
   55.7010   31.2740   52.4130 C   0  0  0  0  0  0  0  0  0  0  0  0
   56.7370   31.2120   51.4770 C   0  0  0  0  0  0  0  0  0  0  0  0
   59.1390   28.9790   49.9930 N   0  0  0  0  0  0  0  0  0  0  0  0
   60.8394   29.1699   46.4068 H   0  0  0  0  0  0  0  0  0  0  0  0
   60.9110   27.8746   45.1671 H   0  0  0  0  0  0  0  0  0  0  0  0
   59.4990   30.5381   44.7758 H   0  0  0  0  0  0  0  0  0  0  0  0
   57.1717   31.1245   44.0952 H   0  0  0  0  0  0  0  0  0  0  0  0
   54.2510   28.9700   44.4940 H   0  0  0  0  0  0  0  0  0  0  0  0
   58.0767   26.7695   46.3813 H   0  0  0  0  0  0  0  0  0  0  0  0
   61.7067   29.8639   47.9762 H   0  0  0  0  0  0  0  0  0  0  0  0
   62.4164   33.6281   47.7184 H   0  0  0  0  0  0  0  0  0  0  0  0
   62.4748   31.8675   47.3218 H   0  0  0  0  0  0  0  0  0  0  0  0
   61.1264   33.2830   45.6946 H   0  0  0  0  0  0  0  0  0  0  0  0
   60.2284   31.9118   46.4411 H   0  0  0  0  0  0  0  0  0  0  0  0
   58.6094   32.1176   47.7428 H   0  0  0  0  0  0  0  0  0  0  0  0
   57.9408   33.7153   48.2994 H   0  0  0  0  0  0  0  0  0  0  0  0
   56.8352   32.2565   46.2826 H   0  0  0  0  0  0  0  0  0  0  0  0
   56.7637   34.0580   46.3833 H   0  0  0  0  0  0  0  0  0  0  0  0
   59.4832   34.5182   44.1368 H   0  0  0  0  0  0  0  0  0  0  0  0
   57.9593   35.2967   44.7699 H   0  0  0  0  0  0  0  0  0  0  0  0
   60.4575   35.4090   45.9852 H   0  0  0  0  0  0  0  0  0  0  0  0
   58.8552   35.7161   46.7741 H   0  0  0  0  0  0  0  0  0  0  0  0
   59.2871   32.2993   50.6168 H   0  0  0  0  0  0  0  0  0  0  0  0
   58.4320   28.5107   52.7293 H   0  0  0  0  0  0  0  0  0  0  0  0
   56.5852   28.6404   54.4006 H   0  0  0  0  0  0  0  0  0  0  0  0
   54.9259   32.0493   52.3227 H   0  0  0  0  0  0  0  0  0  0  0  0
   56.7686   31.9363   50.6498 H   0  0  0  0  0  0  0  0  0  0  0  0
  1  2  2  0
  2  3  1  0
  3  4  1  0
  4  5  1  0
  5  6  2  0
  6  7  1  0
  7  8  2  0
  8  9  1  0
  8 10  1  0
 10 11  1  0
 10 12  2  0
  2 13  1  0
 13 14  2  0
 14 15  1  0
 15 16  1  0
 16 17  1  0
 17 18  1  0
 18 19  1  0
 19 20  1  0
 20 21  1  0
 21 22  1  0
 22 23  1  0
 23 24  1  0
 15 25  2  0
 25 26  1  0
 26 27  1  0
 27 28  2  0
 28 29  1  0
 29 30  2  0
 30 31  1  0
 30 32  1  0
 32 33  2  0
 26 34  2  0
 12  5  1  0
 34 13  1  0
 24 19  1  0
 33 27  1  0
  4 35  1  0
  4 36  1  0
  6 37  1  0
  7 38  1  0
  9 39  1  0
 12 40  1  0
 14 41  1  0
 17 42  1  0
 17 43  1  0
 18 44  1  0
 18 45  1  0
 20 46  1  0
 20 47  1  0
 21 48  1  0
 21 49  1  0
 23 50  1  0
 23 51  1  0
 24 52  1  0
 24 53  1  0
 25 54  1  0
 28 55  1  0
 29 56  1  0
 32 57  1  0
 33 58  1  0
M  CHG  3   3  -1  11  -1  31  -1
M  END
>  <UniqueID>  (59) 
56

>  <SMILES>  (59) 
O=C([N-]Cc1ccc(O)c([O-])c1)c1cc(OCCN2CCOCC2)cc(-c2ccc([O-])cc2)n1

>  <Energy>  (59) 
80.1248701797908

>  <Genealogy>  (59) 
O=C([N-]Cc1ccc(O)c([O-])c1)c1cc(OCCN2CCOCC2)cc(-c2ccc([O-])cc2)n1 (protonated)
O=C([N-]Cc1ccc(O)c([O-])c1)c1cc(OCCN2CCOCC2)cc(-c2ccc([O-])cc2)n1 (3D coordinates assigned)
O=C([N-]Cc1ccc(O)c([O-])c1)c1cc(OCCN2CCOCC2)cc(-c2ccc([O-])cc2)n1 (nonaromatic ring conformer: 80.1248701797908 kcal/mol)

>  <smiles>  (59) 
O=C(NCc1ccc(O)c(O)c1)c1cc(OCCN2CCOCC2)cc(-c2ccc(O)cc2)n1

>  <score_type>  (59) 
oracle

>  <origin>  (59) 
adg

>  <m_score__min__energy>  (59) 
-14.83

>  <m_primary>  (59) 
energy

$$$$
59:0
     RDKit          3D

 30 32  0  0  0  0  0  0  0  0999 V2000
   60.4570   26.5920   46.9360 C   0  0  0  0  0  0  0  0  0  0  0  0
   59.9010   27.6690   47.8600 C   0  0  0  0  0  0  0  0  0  0  0  0
   59.2640   28.7700   47.0660 C   0  0  0  0  0  0  0  0  0  0  0  0
   59.6940   30.0550   47.0610 N   0  0  0  0  0  0  0  0  0  0  0  0
   58.8710   30.7930   46.3190 N   0  0  0  0  0  0  0  0  0  0  0  0
   59.0080   32.2100   46.1030 C   0  0  0  0  0  0  0  0  0  0  0  0
   59.8560   32.9710   46.9270 C   0  0  0  0  0  0  0  0  0  0  0  0
   59.9960   34.3460   46.7190 C   0  0  0  0  0  0  0  0  0  0  0  0
   59.2980   34.9730   45.6850 C   0  0  0  0  0  0  0  0  0  0  0  0
   58.4590   34.2250   44.8550 C   0  0  0  0  0  0  0  0  0  0  0  0
   58.3140   32.8490   45.0610 C   0  0  0  0  0  0  0  0  0  0  0  0
   57.9020   29.9750   45.8600 C   0  0  0  0  0  0  0  0  0  0  0  0
   56.8130   30.3150   45.1270 N   0  0  0  0  0  0  0  0  0  0  0  0
   55.9130   29.3370   44.8110 C   0  0  0  0  0  0  0  0  0  0  0  0
   54.9000   29.6190   44.1210 O   0  0  0  0  0  0  0  0  0  0  0  0
   56.1040   28.0500   45.2450 N   0  0  0  0  0  0  0  0  0  0  0  0
   57.1880   27.7080   46.0010 C   0  0  0  0  0  0  0  0  0  0  0  0
   57.3380   26.5240   46.4030 O   0  0  0  0  0  0  0  0  0  0  0  0
   58.1060   28.7050   46.3110 C   0  0  0  0  0  0  0  0  0  0  0  0
   60.8792   25.7742   47.5385 H   0  0  0  0  0  0  0  0  0  0  0  0
   59.6485   26.2002   46.3013 H   0  0  0  0  0  0  0  0  0  0  0  0
   61.2446   27.0242   46.3013 H   0  0  0  0  0  0  0  0  0  0  0  0
   59.1480   27.2210   48.5251 H   0  0  0  0  0  0  0  0  0  0  0  0
   60.7280   28.0908   48.4500 H   0  0  0  0  0  0  0  0  0  0  0  0
   60.5410   30.4160   47.5560 H   0  0  0  0  0  0  0  0  0  0  0  0
   60.4123   32.4814   47.7399 H   0  0  0  0  0  0  0  0  0  0  0  0
   60.6574   34.9353   47.3712 H   0  0  0  0  0  0  0  0  0  0  0  0
   59.4086   36.0555   45.5239 H   0  0  0  0  0  0  0  0  0  0  0  0
   57.9118   34.7188   44.0385 H   0  0  0  0  0  0  0  0  0  0  0  0
   57.6534   32.2640   44.4041 H   0  0  0  0  0  0  0  0  0  0  0  0
  1  2  1  0
  2  3  1  0
  3  4  2  0
  4  5  1  0
  5  6  1  0
  6  7  2  0
  7  8  1  0
  8  9  2  0
  9 10  1  0
 10 11  2  0
  5 12  1  0
 12 13  1  0
 13 14  1  0
 14 15  2  0
 14 16  1  0
 16 17  1  0
 17 18  2  0
 17 19  1  0
 19  3  1  0
 11  6  1  0
 19 12  2  0
  1 20  1  0
  1 21  1  0
  1 22  1  0
  2 23  1  0
  2 24  1  0
  4 25  1  0
  7 26  1  0
  8 27  1  0
  9 28  1  0
 10 29  1  0
 11 30  1  0
M  CHG  3   4   1  13  -1  16  -1
M  END
>  <UniqueID>  (60) 
57

>  <SMILES>  (60) 
CCc1[nH+]n(-c2ccccc2)c2[n-]c(=O)[n-]c(=O)c12

>  <Energy>  (60) 
76.78555836614544

>  <Genealogy>  (60) 
CCc1[nH+]n(-c2ccccc2)c2[n-]c(=O)[n-]c(=O)c12 (protonated)
CCc1[nH+]n(-c2ccccc2)c2[n-]c(=O)[n-]c(=O)c12 (3D coordinates assigned)
CCc1[nH+]n(-c2ccccc2)c2[n-]c(=O)[n-]c(=O)c12 (optimized conformer: 76.78555836614544 kcal/mol)

>  <smiles>  (60) 
CCc1nn(-c2ccccc2)c2[nH]c(=O)[nH]c(=O)c12

>  <score_type>  (60) 
oracle

>  <origin>  (60) 
adg

>  <m_score__min__energy>  (60) 
-8.6400000000000006

>  <m_primary>  (60) 
energy

$$$$
60:0
     RDKit          3D

 32 33  0  0  0  0  0  0  0  0999 V2000
   55.1250   29.3310   44.7400 N   0  0  0  0  0  0  0  0  0  0  0  0
   56.2800   29.8060   44.0510 C   0  0  0  0  0  0  0  0  0  0  0  0
   56.5420   29.3490   42.9050 O   0  0  0  0  0  0  0  0  0  0  0  0
   57.1630   30.8230   44.6710 C   0  0  0  0  0  0  0  0  0  0  0  0
   57.4000   32.0500   44.0360 C   0  0  0  0  0  0  0  0  0  0  0  0
   58.2410   32.9910   44.6270 C   0  0  0  0  0  0  0  0  0  0  0  0
   58.8380   32.7060   45.8540 C   0  0  0  0  0  0  0  0  0  0  0  0
   58.5970   31.5160   46.4820 N   0  0  0  0  0  0  0  0  0  0  0  0
   59.2600   31.2210   47.7580 C   0  0  0  0  0  0  0  0  0  0  0  0
   60.1880   30.0590   47.5970 C   0  0  0  0  0  0  0  0  0  0  0  0
   61.3500   30.2510   47.1450 O   0  0  0  0  0  0  0  0  0  0  0  0
   59.7530   28.7530   48.0040 N   0  0  0  0  0  0  0  0  0  0  0  0
   59.2510   27.8380   47.2300 C   0  0  0  0  0  0  0  0  0  0  0  0
   58.3490   26.9130   47.6260 N   0  0  0  0  0  0  0  0  0  0  0  0
   58.0080   26.0820   46.6040 C   0  0  0  0  0  0  0  0  0  0  0  0
   56.9940   24.9960   46.7780 C   0  0  0  0  0  0  0  0  0  0  0  0
   55.6740   25.4360   46.2310 C   0  0  0  0  0  0  0  0  0  0  0  0
   54.7620   24.5930   46.0210 O   0  0  0  0  0  0  0  0  0  0  0  0
   55.4320   26.7840   45.9980 O   0  0  0  0  0  0  0  0  0  0  0  0
   58.6290   26.3560   45.3850 C   0  0  0  0  0  0  0  0  0  0  0  0
   59.6510   27.6750   45.6090 S   0  0  0  0  0  0  0  0  0  0  0  0
   57.7860   30.5770   45.9070 C   0  0  0  0  0  0  0  0  0  0  0  0
   55.2110   28.8450   45.6600 H   0  0  0  0  0  0  0  0  0  0  0  0
   56.9217   32.2703   43.0702 H   0  0  0  0  0  0  0  0  0  0  0  0
   58.4325   33.9526   44.1284 H   0  0  0  0  0  0  0  0  0  0  0  0
   59.5076   33.4438   46.3201 H   0  0  0  0  0  0  0  0  0  0  0  0
   59.8328   32.1021   48.0829 H   0  0  0  0  0  0  0  0  0  0  0  0
   58.4980   30.9722   48.5113 H   0  0  0  0  0  0  0  0  0  0  0  0
   57.3287   24.0958   46.2416 H   0  0  0  0  0  0  0  0  0  0  0  0
   56.8844   24.7729   47.8495 H   0  0  0  0  0  0  0  0  0  0  0  0
   58.4776   25.8072   44.4438 H   0  0  0  0  0  0  0  0  0  0  0  0
   57.6190   29.6173   46.4179 H   0  0  0  0  0  0  0  0  0  0  0  0
  1  2  1  0
  2  3  2  0
  2  4  1  0
  4  5  2  0
  5  6  1  0
  6  7  2  0
  7  8  1  0
  8  9  1  0
  9 10  1  0
 10 11  2  0
 10 12  1  0
 12 13  2  3
 13 14  1  0
 14 15  1  0
 15 16  1  0
 16 17  1  0
 17 18  2  0
 17 19  1  0
 15 20  2  0
 20 21  1  0
  8 22  2  0
 22  4  1  0
 21 13  1  0
  1 23  1  0
  5 24  1  0
  6 25  1  0
  7 26  1  0
  9 27  1  0
  9 28  1  0
 16 29  1  0
 16 30  1  0
 20 31  1  0
 22 32  1  0
M  CHG  4   1  -1   8   1  14  -1  19  -1
M  END
>  <UniqueID>  (61) 
58

>  <SMILES>  (61) 
[NH-]C(=O)c1ccc[n+](CC(=O)N=c2[n-]c(CC(=O)[O-])cs2)c1

>  <Energy>  (61) 
60.910349064071504

>  <Genealogy>  (61) 
[NH-]C(=O)c1ccc[n+](CC(=O)N=c2[n-]c(CC(=O)[O-])cs2)c1 (protonated)
[NH-]C(=O)c1ccc[n+](CC(=O)N=c2[n-]c(CC(=O)[O-])cs2)c1 (3D coordinates assigned)
[NH-]C(=O)c1ccc[n+](CC(=O)N=c2[n-]c(CC(=O)[O-])cs2)c1 (optimized conformer: 60.910349064071504 kcal/mol)

>  <smiles>  (61) 
NC(=O)c1ccc[n+](CC(=O)N=c2[nH]c(CC(=O)O)cs2)c1

>  <score_type>  (61) 
oracle

>  <origin>  (61) 
adg

>  <m_score__min__energy>  (61) 
-12.289999999999999

>  <m_primary>  (61) 
energy

$$$$
61:0
     RDKit          3D

 24 25  0  0  0  0  0  0  0  0999 V2000
   55.5310   29.7080   44.4280 C   0  0  0  0  0  0  0  0  0  0  0  0
   56.7940   29.3010   45.1520 C   0  0  0  0  0  0  0  0  0  0  0  0
   57.9170   30.1700   45.2300 C   0  0  0  0  0  0  0  0  0  0  0  0
   57.9150   31.7910   44.5040 S   0  0  0  0  0  0  0  0  0  0  0  0
   58.0140   31.6910   42.7790 N   0  0  0  0  0  0  0  0  0  0  0  0
   59.1010   32.5740   44.9930 O   0  0  0  0  0  0  0  0  0  0  0  0
   56.6670   32.5260   44.9050 O   0  0  0  0  0  0  0  0  0  0  0  0
   59.0770   29.7440   45.8990 C   0  0  0  0  0  0  0  0  0  0  0  0
   59.1540   28.4730   46.4670 C   0  0  0  0  0  0  0  0  0  0  0  0
   58.0730   27.6000   46.3690 C   0  0  0  0  0  0  0  0  0  0  0  0
   58.1510   26.3530   46.9030 N   0  0  0  0  0  0  0  0  0  0  0  0
   57.1150   25.4790   46.8130 C   0  0  0  0  0  0  0  0  0  0  0  0
   57.2180   24.3310   47.3200 O   0  0  0  0  0  0  0  0  0  0  0  0
   55.9420   25.8700   46.1550 C   0  0  0  0  0  0  0  0  0  0  0  0
   54.9660   25.0810   46.0540 O   0  0  0  0  0  0  0  0  0  0  0  0
   55.8610   27.1170   45.6220 N   0  0  0  0  0  0  0  0  0  0  0  0
   56.8930   28.0030   45.7090 C   0  0  0  0  0  0  0  0  0  0  0  0
   54.7519   29.9591   45.1628 H   0  0  0  0  0  0  0  0  0  0  0  0
   55.7365   30.5854   43.7972 H   0  0  0  0  0  0  0  0  0  0  0  0
   55.1856   28.8757   43.7972 H   0  0  0  0  0  0  0  0  0  0  0  0
   57.0820   31.9550   42.3890 H   0  0  0  0  0  0  0  0  0  0  0  0
   58.1800   30.6900   42.5320 H   0  0  0  0  0  0  0  0  0  0  0  0
   59.9381   30.4242   45.9758 H   0  0  0  0  0  0  0  0  0  0  0  0
   60.0682   28.1597   46.9924 H   0  0  0  0  0  0  0  0  0  0  0  0
  1  2  1  0
  2  3  2  0
  3  4  1  0
  4  5  1  0
  4  6  2  0
  4  7  2  0
  3  8  1  0
  8  9  2  0
  9 10  1  0
 10 11  1  0
 11 12  1  0
 12 13  2  0
 12 14  1  0
 14 15  2  0
 14 16  1  0
 16 17  1  0
 17  2  1  0
 17 10  2  0
  1 18  1  0
  1 19  1  0
  1 20  1  0
  5 21  1  0
  5 22  1  0
  8 23  1  0
  9 24  1  0
M  CHG  2  11  -1  16  -1
M  END
>  <UniqueID>  (62) 
59

>  <SMILES>  (62) 
Cc1c(S(N)(=O)=O)ccc2[n-]c(=O)c(=O)[n-]c12

>  <Energy>  (62) 
31.8070227971532

>  <Genealogy>  (62) 
Cc1c(S(N)(=O)=O)ccc2[n-]c(=O)c(=O)[n-]c12 (protonated)
Cc1c(S(N)(=O)=O)ccc2[n-]c(=O)c(=O)[n-]c12 (3D coordinates assigned)
Cc1c(S(N)(=O)=O)ccc2[n-]c(=O)c(=O)[n-]c12 (optimized conformer: 31.8070227971532 kcal/mol)

>  <smiles>  (62) 
Cc1c(S(N)(=O)=O)ccc2[nH]c(=O)c(=O)[nH]c12

>  <score_type>  (62) 
oracle

>  <origin>  (62) 
adg

>  <m_score__min__energy>  (62) 
-9.6199999999999992

>  <m_primary>  (62) 
energy

$$$$
62:0
     RDKit          3D

 30 31  0  0  0  0  0  0  0  0999 V2000
   56.1560   29.9210   45.0230 O   0  0  0  0  0  0  0  0  0  0  0  0
   57.2210   29.6070   44.4260 C   0  0  0  0  0  0  0  0  0  0  0  0
   57.7020   28.1900   44.4750 C   0  0  0  0  0  0  0  0  0  0  0  0
   57.9250   27.6370   46.2000 S   0  0  0  0  0  0  0  0  0  0  0  0
   56.6620   26.3600   46.1190 C   0  0  0  0  0  0  0  0  0  0  0  0
   55.3560   26.7110   45.9910 N   0  0  0  0  0  0  0  0  0  0  0  0
   54.3980   25.7850   45.9260 N   0  0  0  0  0  0  0  0  0  0  0  0
   54.7030   24.4640   45.9870 C   0  0  0  0  0  0  0  0  0  0  0  0
   53.7890   23.6010   45.9210 O   0  0  0  0  0  0  0  0  0  0  0  0
   55.9950   24.0770   46.1260 N   0  0  0  0  0  0  0  0  0  0  0  0
   56.9870   25.0020   46.1970 C   0  0  0  0  0  0  0  0  0  0  0  0
   58.1800   24.6310   46.3390 O   0  0  0  0  0  0  0  0  0  0  0  0
   57.9590   30.5920   43.6900 N   0  0  0  0  0  0  0  0  0  0  0  0
   57.5260   31.9830   43.5900 C   0  0  0  0  0  0  0  0  0  0  0  0
   58.0540   32.7770   44.7540 C   0  0  0  0  0  0  0  0  0  0  0  0
   57.7540   32.3980   46.0730 C   0  0  0  0  0  0  0  0  0  0  0  0
   58.2230   33.1600   47.1480 C   0  0  0  0  0  0  0  0  0  0  0  0
   58.9890   34.3050   46.9140 C   0  0  0  0  0  0  0  0  0  0  0  0
   59.2880   34.6900   45.6050 C   0  0  0  0  0  0  0  0  0  0  0  0
   58.8190   33.9330   44.5270 C   0  0  0  0  0  0  0  0  0  0  0  0
   56.9630   27.5416   43.9816 H   0  0  0  0  0  0  0  0  0  0  0  0
   58.6714   28.1299   43.9586 H   0  0  0  0  0  0  0  0  0  0  0  0
   58.8470   30.3110   43.2160 H   0  0  0  0  0  0  0  0  0  0  0  0
   57.9065   32.4154   42.6528 H   0  0  0  0  0  0  0  0  0  0  0  0
   56.4266   32.0182   43.6010 H   0  0  0  0  0  0  0  0  0  0  0  0
   57.1484   31.4992   46.2610 H   0  0  0  0  0  0  0  0  0  0  0  0
   57.9885   32.8575   48.1792 H   0  0  0  0  0  0  0  0  0  0  0  0
   59.3566   34.9033   47.7607 H   0  0  0  0  0  0  0  0  0  0  0  0
   59.8933   35.5900   45.4219 H   0  0  0  0  0  0  0  0  0  0  0  0
   59.0500   34.2439   43.4974 H   0  0  0  0  0  0  0  0  0  0  0  0
  1  2  2  0
  2  3  1  0
  3  4  1  0
  4  5  1  0
  5  6  2  0
  6  7  1  0
  7  8  1  0
  8  9  2  0
  8 10  1  0
 10 11  1  0
 11 12  2  0
  2 13  1  0
 13 14  1  0
 14 15  1  0
 15 16  2  0
 16 17  1  0
 17 18  2  0
 18 19  1  0
 19 20  2  0
 11  5  1  0
 20 15  1  0
  3 21  1  0
  3 22  1  0
 13 23  1  0
 14 24  1  0
 14 25  1  0
 16 26  1  0
 17 27  1  0
 18 28  1  0
 19 29  1  0
 20 30  1  0
M  CHG  2   7  -1  10  -1
M  END
>  <UniqueID>  (63) 
60

>  <SMILES>  (63) 
O=C(CSc1n[n-]c(=O)[n-]c1=O)NCc1ccccc1

>  <Energy>  (63) 
24.09372454398044

>  <Genealogy>  (63) 
O=C(CSc1n[n-]c(=O)[n-]c1=O)NCc1ccccc1 (protonated)
O=C(CSc1n[n-]c(=O)[n-]c1=O)NCc1ccccc1 (3D coordinates assigned)
O=C(CSc1n[n-]c(=O)[n-]c1=O)NCc1ccccc1 (optimized conformer: 24.09372454398044 kcal/mol)

>  <smiles>  (63) 
O=C(CSc1n[nH]c(=O)[nH]c1=O)NCc1ccccc1

>  <score_type>  (63) 
oracle

>  <origin>  (63) 
adg

>  <m_score__min__energy>  (63) 
-12.029999999999999

>  <m_primary>  (63) 
energy

$$$$
63:0
     RDKit          3D

 64 67  0  0  0  0  0  0  0  0999 V2000
   54.2760   25.9640   45.9830 O   0  0  0  0  0  0  0  0  0  0  0  0
   55.5290   25.8750   45.8830 C   0  0  0  0  0  0  0  0  0  0  0  0
   56.3580   27.0400   46.0000 N   0  0  0  0  0  0  0  0  0  0  0  0
   57.7560   27.0780   46.3340 C   0  0  0  0  0  0  0  0  0  0  0  0
   58.7140   26.3030   45.6560 C   0  0  0  0  0  0  0  0  0  0  0  0
   60.0620   26.3720   46.0220 C   0  0  0  0  0  0  0  0  0  0  0  0
   60.4680   27.2300   47.0460 C   0  0  0  0  0  0  0  0  0  0  0  0
   59.5270   28.0320   47.7120 C   0  0  0  0  0  0  0  0  0  0  0  0
   59.9680   28.9350   48.8340 C   0  0  0  0  0  0  0  0  0  0  0  0
   59.7440   30.3500   48.4800 N   0  0  0  0  0  0  0  0  0  0  0  0
   61.0100   31.0960   48.3630 C   0  0  0  0  0  0  0  0  0  0  0  0
   60.7570   32.4400   47.6590 C   0  0  0  0  0  0  0  0  0  0  0  0
   59.3830   33.0600   48.0160 C   0  0  0  0  0  0  0  0  0  0  0  0
   58.3630   32.8450   46.9200 C   0  0  0  0  0  0  0  0  0  0  0  0
   57.6420   33.8030   46.5330 O   0  0  0  0  0  0  0  0  0  0  0  0
   58.2200   31.5540   46.3160 N   0  0  0  0  0  0  0  0  0  0  0  0
   57.4870   31.3620   45.0590 C   0  0  0  0  0  0  0  0  0  0  0  0
   57.9950   32.3640   43.9900 C   0  0  0  0  0  0  0  0  0  0  0  0
   57.8410   31.8530   42.5420 C   0  0  0  0  0  0  0  0  0  0  0  0
   56.6460   30.9090   42.4030 C   0  0  0  0  0  0  0  0  0  0  0  0
   56.8080   29.6560   43.2890 C   0  0  0  0  0  0  0  0  0  0  0  0
   57.6260   29.9110   44.5700 C   0  0  0  0  0  0  0  0  0  0  0  0
   58.8590   32.5430   49.3700 C   0  0  0  0  0  0  0  0  0  0  0  0
   58.8390   30.9980   49.4610 C   0  0  0  0  0  0  0  0  0  0  0  0
   58.1750   27.9610   47.3400 C   0  0  0  0  0  0  0  0  0  0  0  0
   56.1390   24.5710   45.5830 C   0  0  0  0  0  0  0  0  0  0  0  0
   56.0620   23.9080   44.3700 C   0  0  0  0  0  0  0  0  0  0  0  0
   56.7530   22.7220   44.5440 C   0  0  0  0  0  0  0  0  0  0  0  0
   57.0170   21.6790   43.5040 C   0  0  0  0  0  0  0  0  0  0  0  0
   58.3760   21.4620   43.3770 F   0  0  0  0  0  0  0  0  0  0  0  0
   56.5120   22.0890   42.2840 F   0  0  0  0  0  0  0  0  0  0  0  0
   56.4000   20.4980   43.8730 F   0  0  0  0  0  0  0  0  0  0  0  0
   57.2380   22.7220   45.8410 C   0  0  0  0  0  0  0  0  0  0  0  0
   56.8570   23.8500   46.4680 N   0  0  0  0  0  0  0  0  0  0  0  0
   58.4020   25.6405   44.8352 H   0  0  0  0  0  0  0  0  0  0  0  0
   60.8043   25.7488   45.5018 H   0  0  0  0  0  0  0  0  0  0  0  0
   61.5290   27.2779   47.3322 H   0  0  0  0  0  0  0  0  0  0  0  0
   59.3927   28.6935   49.7399 H   0  0  0  0  0  0  0  0  0  0  0  0
   61.0422   28.7798   49.0130 H   0  0  0  0  0  0  0  0  0  0  0  0
   61.4197   31.2806   49.3670 H   0  0  0  0  0  0  0  0  0  0  0  0
   61.7274   30.5057   47.7740 H   0  0  0  0  0  0  0  0  0  0  0  0
   61.5476   33.1453   47.9550 H   0  0  0  0  0  0  0  0  0  0  0  0
   60.7613   32.2503   46.5755 H   0  0  0  0  0  0  0  0  0  0  0  0
   59.5404   34.1446   48.1105 H   0  0  0  0  0  0  0  0  0  0  0  0
   58.6540   30.7270   46.7900 H   0  0  0  0  0  0  0  0  0  0  0  0
   56.4187   31.5562   45.2348 H   0  0  0  0  0  0  0  0  0  0  0  0
   57.4249   33.2993   44.0912 H   0  0  0  0  0  0  0  0  0  0  0  0
   59.0708   32.5085   44.1685 H   0  0  0  0  0  0  0  0  0  0  0  0
   57.6956   32.7140   41.8730 H   0  0  0  0  0  0  0  0  0  0  0  0
   58.7518   31.2973   42.2743 H   0  0  0  0  0  0  0  0  0  0  0  0
   55.7322   31.4429   42.7028 H   0  0  0  0  0  0  0  0  0  0  0  0
   56.5837   30.5838   41.3540 H   0  0  0  0  0  0  0  0  0  0  0  0
   55.8074   29.3030   43.5792 H   0  0  0  0  0  0  0  0  0  0  0  0
   57.3580   28.9097   42.6969 H   0  0  0  0  0  0  0  0  0  0  0  0
   57.2699   29.2337   45.3602 H   0  0  0  0  0  0  0  0  0  0  0  0
   58.6861   29.7287   44.3398 H   0  0  0  0  0  0  0  0  0  0  0  0
   59.5073   32.9328   50.1686 H   0  0  0  0  0  0  0  0  0  0  0  0
   57.8213   32.8922   49.4761 H   0  0  0  0  0  0  0  0  0  0  0  0
   59.1496   30.7020   50.4739 H   0  0  0  0  0  0  0  0  0  0  0  0
   57.8148   30.6672   49.2338 H   0  0  0  0  0  0  0  0  0  0  0  0
   57.4373   28.6040   47.8423 H   0  0  0  0  0  0  0  0  0  0  0  0
   55.5558   24.2530   43.4563 H   0  0  0  0  0  0  0  0  0  0  0  0
   57.8432   21.9211   46.2907 H   0  0  0  0  0  0  0  0  0  0  0  0
   57.0830   24.1100   47.4540 H   0  0  0  0  0  0  0  0  0  0  0  0
  1  2  2  0
  2  3  1  0
  3  4  1  0
  4  5  2  0
  5  6  1  0
  6  7  2  0
  7  8  1  0
  8  9  1  0
  9 10  1  0
 10 11  1  0
 11 12  1  0
 12 13  1  0
 13 14  1  0
 14 15  2  0
 14 16  1  0
 16 17  1  0
 17 18  1  0
 18 19  1  0
 19 20  1  0
 20 21  1  0
 21 22  1  0
 13 23  1  0
 23 24  1  0
  8 25  2  0
  2 26  1  0
 26 27  2  0
 27 28  1  0
 28 29  1  0
 29 30  1  0
 29 31  1  0
 29 32  1  0
 28 33  2  0
 33 34  1  0
 25  4  1  0
 34 26  1  0
 24 10  1  0
 22 17  1  0
  5 35  1  0
  6 36  1  0
  7 37  1  0
  9 38  1  0
  9 39  1  0
 11 40  1  0
 11 41  1  0
 12 42  1  0
 12 43  1  0
 13 44  1  0
 16 45  1  0
 17 46  1  0
 18 47  1  0
 18 48  1  0
 19 49  1  0
 19 50  1  0
 20 51  1  0
 20 52  1  0
 21 53  1  0
 21 54  1  0
 22 55  1  0
 22 56  1  0
 23 57  1  0
 23 58  1  0
 24 59  1  0
 24 60  1  0
 25 61  1  0
 27 62  1  0
 33 63  1  0
 34 64  1  0
M  CHG  1   3  -1
M  END
>  <UniqueID>  (64) 
61

>  <SMILES>  (64) 
O=C([N-]c1cccc(CN2CCC(C(=O)NC3CCCCC3)CC2)c1)c1cc(C(F)(F)F)c[nH]1

>  <Energy>  (64) 
99.36934835200117

>  <Genealogy>  (64) 
O=C([N-]c1cccc(CN2CCC(C(=O)NC3CCCCC3)CC2)c1)c1cc(C(F)(F)F)c[nH]1 (protonated)
O=C([N-]c1cccc(CN2CCC(C(=O)NC3CCCCC3)CC2)c1)c1cc(C(F)(F)F)c[nH]1 (3D coordinates assigned)
O=C([N-]c1cccc(CN2CCC(C(=O)NC3CCCCC3)CC2)c1)c1cc(C(F)(F)F)c[nH]1 (nonaromatic ring conformer: 99.36934835200117 kcal/mol)

>  <smiles>  (64) 
O=C(Nc1cccc(CN2CCC(C(=O)NC3CCCCC3)CC2)c1)c1cc(C(F)(F)F)c[nH]1

>  <score_type>  (64) 
oracle

>  <origin>  (64) 
adg

>  <m_score__min__energy>  (64) 
-11.359999999999999

>  <m_primary>  (64) 
energy

$$$$
64:0
     RDKit          3D

 51 53  0  0  1  0  0  0  0  0999 V2000
   67.0660   34.9400   52.0040 C   0  0  0  0  0  0  0  0  0  0  0  0
   67.1340   34.2470   50.8310 O   0  0  0  0  0  0  0  0  0  0  0  0
   67.7380   33.0260   50.8480 C   0  0  0  0  0  0  0  0  0  0  0  0
   66.9060   31.8580   51.2390 C   0  0  0  0  0  0  0  0  0  0  0  0
   65.5890   32.1260   51.5950 O   0  0  0  0  0  0  0  0  0  0  0  0
   64.6170   32.6370   50.7760 C   0  0  0  0  0  0  0  0  0  0  0  0
   63.4310   33.1520   51.2770 C   0  0  0  0  0  0  0  0  0  0  0  0
   62.4990   33.6490   50.3850 C   0  0  0  0  0  0  0  0  0  0  0  0
   62.7440   33.6310   49.0370 C   0  0  0  0  0  0  0  0  0  0  0  0
   61.8190   34.1240   48.1500 C   0  0  0  0  0  0  0  0  0  0  0  0
   60.6890   34.6210   48.5530 N   0  0  0  0  0  0  0  0  0  0  0  0
   59.5500   33.8530   48.9400 C   0  0  0  0  0  0  0  0  0  0  0  0
   58.8650   33.2110   47.7860 C   0  0  0  0  0  0  0  0  0  0  0  0
   57.7860   32.5820   47.8820 O   0  0  0  0  0  0  0  0  0  0  0  0
   59.4690   33.3170   46.5060 N   0  0  0  0  0  0  0  0  0  0  0  0
   58.7600   32.6760   45.4250 C   0  0  0  0  0  0  0  0  0  0  0  0
   58.5260   33.3160   44.2280 C   0  0  0  0  0  0  0  0  0  0  0  0
   57.8560   32.7400   43.1750 C   0  0  0  0  0  0  0  0  0  0  0  0
   57.4020   31.4370   43.3560 C   0  0  0  0  0  0  0  0  0  0  0  0
   57.6100   30.7520   44.5370 C   0  0  0  0  0  0  0  0  0  0  0  0
   57.0320   29.1100   44.7540 S   0  0  0  0  0  0  0  0  0  0  0  0
   57.5610   28.1870   43.3920 N   0  0  0  0  0  0  0  0  0  0  0  0
   57.6550   28.5420   46.0090 O   0  0  0  0  0  0  0  0  0  0  0  0
   55.5360   29.0430   44.8730 O   0  0  0  0  0  0  0  0  0  0  0  0
   58.2950   31.3810   45.5740 C   0  0  0  0  0  0  0  0  0  0  0  0
   62.0100   34.1310   46.8080 N   0  0  0  0  0  0  0  0  0  0  0  0
   63.1840   33.6180   46.3520 C   0  0  0  0  0  0  0  0  0  0  0  0
   64.1140   33.1240   47.2190 N   0  0  0  0  0  0  0  0  0  0  0  0
   63.9240   33.1170   48.5440 C   0  0  0  0  0  0  0  0  0  0  0  0
   64.8730   32.6140   49.4030 C   0  0  0  0  0  0  0  0  0  0  0  0
   67.1348   34.2387   52.8487 H   0  0  0  0  0  0  0  0  0  0  0  0
   67.8980   35.6578   52.0546 H   0  0  0  0  0  0  0  0  0  0  0  0
   66.1103   35.4823   52.0546 H   0  0  0  0  0  0  0  0  0  0  0  0
   68.1222   32.8335   49.8354 H   0  0  0  0  0  0  0  0  0  0  0  0
   68.5045   33.1016   51.6334 H   0  0  0  0  0  0  0  0  0  0  0  0
   66.8870   31.1613   50.3880 H   0  0  0  0  0  0  0  0  0  0  0  0
   67.3773   31.4560   52.1480 H   0  0  0  0  0  0  0  0  0  0  0  0
   63.2362   33.1648   52.3595 H   0  0  0  0  0  0  0  0  0  0  0  0
   61.5517   34.0628   50.7610 H   0  0  0  0  0  0  0  0  0  0  0  0
   59.8771   33.0664   49.6358 H   0  0  0  0  0  0  0  0  0  0  0  0
   58.8316   34.5416   49.4087 H   0  0  0  0  0  0  0  0  0  0  0  0
   60.3700   33.8230   46.3290 H   0  0  0  0  0  0  0  0  0  0  0  0
   58.8958   34.3450   44.1081 H   0  0  0  0  0  0  0  0  0  0  0  0
   57.6867   33.2834   42.2337 H   0  0  0  0  0  0  0  0  0  0  0  0
   56.8630   30.9393   42.5364 H   0  0  0  0  0  0  0  0  0  0  0  0
   56.7640   27.6270   42.9780 H   0  0  0  0  0  0  0  0  0  0  0  0
   57.9540   28.7950   42.6400 H   0  0  0  0  0  0  0  0  0  0  0  0
   58.4677   30.8444   46.5186 H   0  0  0  0  0  0  0  0  0  0  0  0
   63.3861   33.6012   45.2709 H   0  0  0  0  0  0  0  0  0  0  0  0
   64.9760   32.7540   46.7770 H   0  0  0  0  0  0  0  0  0  0  0  0
   65.8163   32.2012   49.0159 H   0  0  0  0  0  0  0  0  0  0  0  0
  1  2  1  0
  2  3  1  0
  3  4  1  0
  4  5  1  0
  5  6  1  0
  6  7  2  0
  7  8  1  0
  8  9  2  0
  9 10  1  0
 10 11  2  0
 11 12  1  0
 12 13  1  0
 13 14  2  0
 13 15  1  0
 15 16  1  0
 16 17  2  0
 17 18  1  0
 18 19  2  0
 19 20  1  0
 20 21  1  0
 21 22  1  0
 21 23  2  0
 21 24  2  0
 20 25  2  0
 10 26  1  0
 26 27  2  0
 27 28  1  0
 28 29  1  0
 29 30  2  0
 30  6  1  0
 29  9  1  0
 25 16  1  0
  1 31  1  0
  1 32  1  0
  1 33  1  0
  3 34  1  0
  3 35  1  0
  4 36  1  0
  4 37  1  0
  7 38  1  0
  8 39  1  0
 12 40  1  0
 12 41  1  0
 15 42  1  0
 17 43  1  0
 18 44  1  0
 19 45  1  0
 22 46  1  0
 22 47  1  0
 25 48  1  0
 27 49  1  0
 28 50  1  0
 30 51  1  0
M  END
>  <smiles>  (65) 
COCCOc1ccc2c(=NCC(=O)Nc3cccc(S(N)(=O)=O)c3)nc[nH]c2c1

>  <score_type>  (65) 
oracle

>  <origin>  (65) 
adg

>  <m_score__min__energy>  (65) 
-8.4800000000000004

>  <m_primary>  (65) 
energy

$$$$
65:0
     RDKit          3D

 41 43  0  0  0  0  0  0  0  0999 V2000
   57.1090   31.0290   42.9250 O   0  0  0  0  0  0  0  0  0  0  0  0
   57.0670   31.0010   44.1860 C   0  0  0  0  0  0  0  0  0  0  0  0
   56.4070   29.9150   44.8530 N   0  0  0  0  0  0  0  0  0  0  0  0
   56.8060   28.6830   45.0100 C   0  0  0  0  0  0  0  0  0  0  0  0
   55.9480   27.8180   45.6210 N   0  0  0  0  0  0  0  0  0  0  0  0
   56.2480   26.5090   45.8310 C   0  0  0  0  0  0  0  0  0  0  0  0
   57.4780   26.0020   45.4180 C   0  0  0  0  0  0  0  0  0  0  0  0
   58.3990   26.8570   44.8140 C   0  0  0  0  0  0  0  0  0  0  0  0
   58.0870   28.2090   44.6200 C   0  0  0  0  0  0  0  0  0  0  0  0
   59.0600   29.0590   44.0950 O   0  0  0  0  0  0  0  0  0  0  0  0
   57.6010   32.1410   44.9690 C   0  0  0  0  0  0  0  0  0  0  0  0
   57.3800   33.4640   44.5460 C   0  0  0  0  0  0  0  0  0  0  0  0
   57.8970   34.5350   45.2780 C   0  0  0  0  0  0  0  0  0  0  0  0
   58.6410   34.3020   46.4360 C   0  0  0  0  0  0  0  0  0  0  0  0
   58.8720   32.9910   46.8700 C   0  0  0  0  0  0  0  0  0  0  0  0
   59.8260   32.6910   48.3270 S   0  0  0  0  0  0  0  0  0  0  0  0
   59.1880   33.3980   49.4910 O   0  0  0  0  0  0  0  0  0  0  0  0
   59.8220   31.2160   48.6210 O   0  0  0  0  0  0  0  0  0  0  0  0
   61.4730   33.2400   48.1480 N   0  0  0  0  0  0  0  0  0  0  0  0
   62.4140   32.2140   48.6210 C   0  0  0  0  0  0  0  0  0  0  0  0
   63.8630   32.7300   48.4860 C   0  0  0  0  0  0  0  0  0  0  0  0
   63.9360   33.9530   47.7720 O   0  0  0  0  0  0  0  0  0  0  0  0
   63.2640   33.8250   46.5330 C   0  0  0  0  0  0  0  0  0  0  0  0
   61.7560   33.5790   46.7430 C   0  0  0  0  0  0  0  0  0  0  0  0
   58.3490   31.9140   46.1390 C   0  0  0  0  0  0  0  0  0  0  0  0
   55.5198   25.8503   46.3269 H   0  0  0  0  0  0  0  0  0  0  0  0
   57.7199   24.9393   45.5667 H   0  0  0  0  0  0  0  0  0  0  0  0
   59.3751   26.4682   44.4883 H   0  0  0  0  0  0  0  0  0  0  0  0
   58.8370   29.7550   43.3910 H   0  0  0  0  0  0  0  0  0  0  0  0
   56.7966   33.6562   43.6334 H   0  0  0  0  0  0  0  0  0  0  0  0
   57.7172   35.5665   44.9407 H   0  0  0  0  0  0  0  0  0  0  0  0
   59.0463   35.1495   47.0083 H   0  0  0  0  0  0  0  0  0  0  0  0
   62.2047   31.9855   49.6765 H   0  0  0  0  0  0  0  0  0  0  0  0
   62.2946   31.3046   48.0138 H   0  0  0  0  0  0  0  0  0  0  0  0
   64.2789   32.8831   49.4928 H   0  0  0  0  0  0  0  0  0  0  0  0
   64.4362   31.9781   47.9237 H   0  0  0  0  0  0  0  0  0  0  0  0
   63.4000   34.7498   45.9532 H   0  0  0  0  0  0  0  0  0  0  0  0
   63.6868   32.9649   45.9931 H   0  0  0  0  0  0  0  0  0  0  0  0
   61.2008   34.4893   46.4726 H   0  0  0  0  0  0  0  0  0  0  0  0
   61.4437   32.7375   46.1071 H   0  0  0  0  0  0  0  0  0  0  0  0
   58.5250   30.8841   46.4831 H   0  0  0  0  0  0  0  0  0  0  0  0
  1  2  2  0
  2  3  1  0
  3  4  2  3
  4  5  1  0
  5  6  1  0
  6  7  2  0
  7  8  1  0
  8  9  2  0
  9 10  1  0
  2 11  1  0
 11 12  2  0
 12 13  1  0
 13 14  2  0
 14 15  1  0
 15 16  1  0
 16 17  2  0
 16 18  2  0
 16 19  1  0
 19 20  1  0
 20 21  1  0
 21 22  1  0
 22 23  1  0
 23 24  1  0
 15 25  2  0
  9  4  1  0
 25 11  1  0
 24 19  1  0
  6 26  1  0
  7 27  1  0
  8 28  1  0
 10 29  1  0
 12 30  1  0
 13 31  1  0
 14 32  1  0
 20 33  1  0
 20 34  1  0
 21 35  1  0
 21 36  1  0
 23 37  1  0
 23 38  1  0
 24 39  1  0
 24 40  1  0
 25 41  1  0
M  CHG  1   5  -1
M  END
>  <UniqueID>  (66) 
62

>  <SMILES>  (66) 
O=C(N=c1[n-]cccc1O)c1cccc(S(=O)(=O)N2CCOCC2)c1

>  <Energy>  (66) 
62.55311661575544

>  <Genealogy>  (66) 
O=C(N=c1[n-]cccc1O)c1cccc(S(=O)(=O)N2CCOCC2)c1 (protonated)
O=C(N=c1[n-]cccc1O)c1cccc(S(=O)(=O)N2CCOCC2)c1 (3D coordinates assigned)
O=C(N=c1[n-]cccc1O)c1cccc(S(=O)(=O)N2CCOCC2)c1 (nonaromatic ring conformer: 62.55311661575544 kcal/mol)

>  <smiles>  (66) 
O=C(N=c1[nH]cccc1O)c1cccc(S(=O)(=O)N2CCOCC2)c1

>  <score_type>  (66) 
oracle

>  <origin>  (66) 
adg

>  <m_score__min__energy>  (66) 
-11.09

>  <m_primary>  (66) 
energy

$$$$
66:0
     RDKit          3D

 51 53  0  0  1  0  0  0  0  0999 V2000
   63.3730   34.2080   46.6970 C   0  0  0  0  0  0  0  0  0  0  0  0
   62.1920   33.3360   46.8820 C   0  0  0  0  0  0  0  0  0  0  0  0
   60.9750   33.8190   46.4200 C   0  0  0  0  0  0  0  0  0  0  0  0
   59.8780   33.0320   46.5810 C   0  0  0  0  0  0  0  0  0  0  0  0
   59.9720   31.7770   47.1920 C   0  0  0  0  0  0  0  0  0  0  0  0
   58.7360   31.0630   47.2960 N   0  0  0  0  0  0  0  0  0  0  0  0
   58.6670   29.7900   47.0560 C   0  0  0  0  0  0  0  0  0  0  0  0
   59.4880   29.0200   47.8250 N   0  0  0  0  0  0  0  0  0  0  0  0
   59.4930   27.6850   47.6460 C   0  0  0  0  0  0  0  0  0  0  0  0
   60.3800   26.7880   48.4690 C   0  0  0  0  0  0  0  0  0  0  0  0
   58.6890   27.1190   46.7080 N   0  0  0  0  0  0  0  0  0  0  0  0
   57.8660   27.8790   45.9340 C   0  0  0  0  0  0  0  0  0  0  0  0
   57.0370   27.2370   44.9440 N   0  0  0  0  0  0  0  0  0  0  0  0
   57.0080   25.7890   44.9940 C   0  0  0  0  0  0  0  0  0  0  0  0
   56.4190   25.2270   46.2490 C   0  0  0  0  0  0  0  0  0  0  0  0
   57.3270   24.5220   47.0960 N   0  0  0  0  0  0  0  0  0  0  0  0
   56.6760   23.8280   48.1540 C   0  0  0  0  0  0  0  0  0  0  0  0
   56.2760   22.4060   47.8260 C   0  0  0  0  0  0  0  0  0  0  0  0
   57.2580   21.7060   47.1660 O   0  0  0  0  0  0  0  0  0  0  0  0
   57.5300   22.3520   45.9750 C   0  0  0  0  0  0  0  0  0  0  0  0
   58.1930   23.6730   46.3000 C   0  0  0  0  0  0  0  0  0  0  0  0
   57.8400   29.2510   46.0960 C   0  0  0  0  0  0  0  0  0  0  0  0
   57.0090   30.0770   45.3260 N   0  0  0  0  0  0  0  0  0  0  0  0
   57.4260   31.2230   45.0050 O   0  0  0  0  0  0  0  0  0  0  0  0
   55.7450   29.7130   44.8910 O   0  0  0  0  0  0  0  0  0  0  0  0
   61.1680   31.2780   47.6570 C   0  0  0  0  0  0  0  0  0  0  0  0
   62.2850   32.0840   47.4910 C   0  0  0  0  0  0  0  0  0  0  0  0
   63.7700   34.5011   47.6801 H   0  0  0  0  0  0  0  0  0  0  0  0
   64.1470   33.6630   46.1367 H   0  0  0  0  0  0  0  0  0  0  0  0
   63.0800   35.1081   46.1367 H   0  0  0  0  0  0  0  0  0  0  0  0
   60.9008   34.8058   45.9396 H   0  0  0  0  0  0  0  0  0  0  0  0
   58.9001   33.3881   46.2248 H   0  0  0  0  0  0  0  0  0  0  0  0
   60.1975   26.9726   49.5379 H   0  0  0  0  0  0  0  0  0  0  0  0
   60.1565   25.7367   48.2351 H   0  0  0  0  0  0  0  0  0  0  0  0
   61.4338   26.9997   48.2351 H   0  0  0  0  0  0  0  0  0  0  0  0
   58.7400   26.0840   46.6220 H   0  0  0  0  0  0  0  0  0  0  0  0
   56.5220   27.8170   44.2740 H   0  0  0  0  0  0  0  0  0  0  0  0
   56.4133   25.4269   44.1424 H   0  0  0  0  0  0  0  0  0  0  0  0
   58.0546   25.4521   44.9594 H   0  0  0  0  0  0  0  0  0  0  0  0
   55.9957   26.0616   46.8272 H   0  0  0  0  0  0  0  0  0  0  0  0
   55.6732   24.4861   45.9253 H   0  0  0  0  0  0  0  0  0  0  0  0
   57.3577   23.8017   49.0169 H   0  0  0  0  0  0  0  0  0  0  0  0
   55.7428   24.3744   48.3558 H   0  0  0  0  0  0  0  0  0  0  0  0
   56.0445   21.8824   48.7653 H   0  0  0  0  0  0  0  0  0  0  0  0
   55.4049   22.4575   47.1563 H   0  0  0  0  0  0  0  0  0  0  0  0
   58.2049   21.7364   45.3622 H   0  0  0  0  0  0  0  0  0  0  0  0
   56.6009   22.5195   45.4104 H   0  0  0  0  0  0  0  0  0  0  0  0
   59.1185   23.4795   46.8622 H   0  0  0  0  0  0  0  0  0  0  0  0
   58.4098   24.1917   45.3545 H   0  0  0  0  0  0  0  0  0  0  0  0
   61.2346   30.2900   48.1360 H   0  0  0  0  0  0  0  0  0  0  0  0
   63.2635   31.7289   47.8466 H   0  0  0  0  0  0  0  0  0  0  0  0
  1  2  1  0
  2  3  2  0
  3  4  1  0
  4  5  2  0
  5  6  1  0
  6  7  2  0
  7  8  1  0
  8  9  2  0
  9 10  1  0
  9 11  1  0
 11 12  1  0
 12 13  1  0
 13 14  1  0
 14 15  1  0
 15 16  1  0
 16 17  1  0
 17 18  1  0
 18 19  1  0
 19 20  1  0
 20 21  1  0
 12 22  2  0
 22 23  1  0
 23 24  2  0
 23 25  1  0
  5 26  1  0
 26 27  2  0
 27  2  1  0
 22  7  1  0
 21 16  1  0
  1 28  1  0
  1 29  1  0
  1 30  1  0
  3 31  1  0
  4 32  1  0
 10 33  1  0
 10 34  1  0
 10 35  1  0
 11 36  1  0
 13 37  1  0
 14 38  1  0
 14 39  1  0
 15 40  1  0
 15 41  1  0
 17 42  1  0
 17 43  1  0
 18 44  1  0
 18 45  1  0
 20 46  1  0
 20 47  1  0
 21 48  1  0
 21 49  1  0
 26 50  1  0
 27 51  1  0
M  CHG  2  23   1  25  -1
M  END
>  <smiles>  (67) 
Cc1ccc(N=c2nc(C)[nH]c(NCCN3CCOCC3)c2[N+](=O)[O-])cc1

>  <score_type>  (67) 
oracle

>  <origin>  (67) 
adg

>  <m_score__min__energy>  (67) 
-8.6099999999999994

>  <m_primary>  (67) 
energy

$$$$
67:0
     RDKit          3D

 44 46  0  0  0  0  0  0  0  0999 V2000
   56.1660   22.5110   43.8770 C   0  0  0  0  0  0  0  0  0  0  0  0
   56.5160   23.7330   44.6850 C   0  0  0  0  0  0  0  0  0  0  0  0
   55.5130   24.6710   44.9810 C   0  0  0  0  0  0  0  0  0  0  0  0
   55.8090   25.8200   45.7190 C   0  0  0  0  0  0  0  0  0  0  0  0
   54.7880   26.7150   46.0250 O   0  0  0  0  0  0  0  0  0  0  0  0
   57.1190   26.0590   46.1530 C   0  0  0  0  0  0  0  0  0  0  0  0
   57.5210   27.5290   47.1060 S   0  0  0  0  0  0  0  0  0  0  0  0
   57.5140   28.6330   45.6800 C   0  0  0  0  0  0  0  0  0  0  0  0
   56.2990   28.7930   44.9960 C   0  0  0  0  0  0  0  0  0  0  0  0
   56.2150   29.6210   43.8770 C   0  0  0  0  0  0  0  0  0  0  0  0
   57.3400   30.3160   43.4380 C   0  0  0  0  0  0  0  0  0  0  0  0
   58.5510   30.1880   44.1200 C   0  0  0  0  0  0  0  0  0  0  0  0
   58.6540   29.3640   45.2530 C   0  0  0  0  0  0  0  0  0  0  0  0
   60.2270   29.2870   46.0680 S   0  0  0  0  0  0  0  0  0  0  0  0
   60.3200   27.9990   46.8360 O   0  0  0  0  0  0  0  0  0  0  0  0
   61.3130   29.3270   45.0290 O   0  0  0  0  0  0  0  0  0  0  0  0
   60.4510   30.6350   47.1350 N   0  0  0  0  0  0  0  0  0  0  0  0
   59.9800   31.9690   46.8980 C   0  0  0  0  0  0  0  0  0  0  0  0
   60.8580   33.0600   46.7630 C   0  0  0  0  0  0  0  0  0  0  0  0
   60.3550   34.3390   46.5070 C   0  0  0  0  0  0  0  0  0  0  0  0
   58.9780   34.5410   46.3880 C   0  0  0  0  0  0  0  0  0  0  0  0
   58.0970   33.4650   46.5290 C   0  0  0  0  0  0  0  0  0  0  0  0
   56.7250   33.6830   46.4060 O   0  0  0  0  0  0  0  0  0  0  0  0
   58.5990   32.1820   46.7860 C   0  0  0  0  0  0  0  0  0  0  0  0
   58.1160   25.1170   45.8870 C   0  0  0  0  0  0  0  0  0  0  0  0
   57.8380   23.9640   45.1350 C   0  0  0  0  0  0  0  0  0  0  0  0
   58.9460   22.9810   44.8550 C   0  0  0  0  0  0  0  0  0  0  0  0
   55.9276   21.6787   44.5555 H   0  0  0  0  0  0  0  0  0  0  0  0
   55.2940   22.7282   43.2427 H   0  0  0  0  0  0  0  0  0  0  0  0
   57.0208   22.2336   43.2427 H   0  0  0  0  0  0  0  0  0  0  0  0
   54.4852   24.4994   44.6286 H   0  0  0  0  0  0  0  0  0  0  0  0
   55.4031   28.2594   45.3464 H   0  0  0  0  0  0  0  0  0  0  0  0
   55.2603   29.7255   43.3408 H   0  0  0  0  0  0  0  0  0  0  0  0
   57.2737   30.9661   42.5532 H   0  0  0  0  0  0  0  0  0  0  0  0
   59.4350   30.7388   43.7662 H   0  0  0  0  0  0  0  0  0  0  0  0
   61.9430   32.9063   46.8591 H   0  0  0  0  0  0  0  0  0  0  0  0
   61.0454   35.1885   46.3990 H   0  0  0  0  0  0  0  0  0  0  0  0
   58.5864   35.5483   46.1830 H   0  0  0  0  0  0  0  0  0  0  0  0
   56.1440   33.8740   47.2150 H   0  0  0  0  0  0  0  0  0  0  0  0
   57.9047   31.3365   46.9006 H   0  0  0  0  0  0  0  0  0  0  0  0
   59.1333   25.2808   46.2721 H   0  0  0  0  0  0  0  0  0  0  0  0
   59.3596   22.6141   45.8059 H   0  0  0  0  0  0  0  0  0  0  0  0
   58.5474   22.1340   44.2774 H   0  0  0  0  0  0  0  0  0  0  0  0
   59.7395   23.4777   44.2774 H   0  0  0  0  0  0  0  0  0  0  0  0
  1  2  1  0
  2  3  2  0
  3  4  1  0
  4  5  1  0
  4  6  2  0
  6  7  1  0
  7  8  1  0
  8  9  2  0
  9 10  1  0
 10 11  2  0
 11 12  1  0
 12 13  2  0
 13 14  1  0
 14 15  2  0
 14 16  2  0
 14 17  1  0
 17 18  1  0
 18 19  2  0
 19 20  1  0
 20 21  2  0
 21 22  1  0
 22 23  1  0
 22 24  2  0
  6 25  1  0
 25 26  2  0
 26 27  1  0
 26  2  1  0
 13  8  1  0
 24 18  1  0
  1 28  1  0
  1 29  1  0
  1 30  1  0
  3 31  1  0
  9 32  1  0
 10 33  1  0
 11 34  1  0
 12 35  1  0
 19 36  1  0
 20 37  1  0
 21 38  1  0
 23 39  1  0
 24 40  1  0
 25 41  1  0
 27 42  1  0
 27 43  1  0
 27 44  1  0
M  CHG  2   5  -1  17  -1
M  END
>  <UniqueID>  (68) 
63

>  <SMILES>  (68) 
Cc1cc([O-])c(Sc2ccccc2S(=O)(=O)[N-]c2cccc(O)c2)cc1C

>  <Energy>  (68) 
49.31399836218267

>  <Genealogy>  (68) 
Cc1cc([O-])c(Sc2ccccc2S(=O)(=O)[N-]c2cccc(O)c2)cc1C (protonated)
Cc1cc([O-])c(Sc2ccccc2S(=O)(=O)[N-]c2cccc(O)c2)cc1C (3D coordinates assigned)
Cc1cc([O-])c(Sc2ccccc2S(=O)(=O)[N-]c2cccc(O)c2)cc1C (optimized conformer: 49.31399836218267 kcal/mol)

>  <smiles>  (68) 
Cc1cc(O)c(Sc2ccccc2S(=O)(=O)Nc2cccc(O)c2)cc1C

>  <score_type>  (68) 
oracle

>  <origin>  (68) 
adg

>  <m_score__min__energy>  (68) 
-13.470000000000001

>  <m_primary>  (68) 
energy

$$$$
68:0
     RDKit          3D

 53 54  0  0  0  0  0  0  0  0999 V2000
   55.5940   31.2180   44.6000 O   0  0  0  0  0  0  0  0  0  0  0  0
   55.9350   30.0670   44.2170 C   0  0  0  0  0  0  0  0  0  0  0  0
   56.8180   29.9170   43.0140 C   0  0  0  0  0  0  0  0  0  0  0  0
   57.0170   31.2470   42.2740 C   0  0  0  0  0  0  0  0  0  0  0  0
   57.9990   32.2210   42.9550 C   0  0  0  0  0  0  0  0  0  0  0  0
   58.5000   31.7490   44.3390 C   0  0  0  0  0  0  0  0  0  0  0  0
   57.8680   32.5300   45.5080 C   0  0  0  0  0  0  0  0  0  0  0  0
   57.8830   34.0580   45.3050 C   0  0  0  0  0  0  0  0  0  0  0  0
   59.2830   34.6600   45.0690 C   0  0  0  0  0  0  0  0  0  0  0  0
   60.1190   34.7860   46.3570 C   0  0  0  0  0  0  0  0  0  0  0  0
   59.2510   34.8830   47.6250 C   0  0  0  0  0  0  0  0  0  0  0  0
   59.9980   34.5400   48.9280 C   0  0  0  0  0  0  0  0  0  0  0  0
   59.2970   33.0750   49.7740 S   0  0  0  0  0  0  0  0  0  0  0  0
   59.8840   31.8580   48.5890 C   0  0  0  0  0  0  0  0  0  0  0  0
   61.1880   31.9490   48.0790 C   0  0  0  0  0  0  0  0  0  0  0  0
   61.6360   31.0260   47.1280 C   0  0  0  0  0  0  0  0  0  0  0  0
   60.7800   30.0140   46.6770 C   0  0  0  0  0  0  0  0  0  0  0  0
   59.4750   29.9260   47.1760 C   0  0  0  0  0  0  0  0  0  0  0  0
   59.0240   30.8530   48.1230 C   0  0  0  0  0  0  0  0  0  0  0  0
   55.5120   28.8970   44.9290 N   0  0  0  0  0  0  0  0  0  0  0  0
   56.3680   27.8800   45.4590 C   0  0  0  0  0  0  0  0  0  0  0  0
   57.7340   27.9370   45.6660 C   0  0  0  0  0  0  0  0  0  0  0  0
   58.0580   26.7340   46.2730 C   0  0  0  0  0  0  0  0  0  0  0  0
   56.9730   26.0030   46.4360 O   0  0  0  0  0  0  0  0  0  0  0  0
   55.9490   26.6750   45.9630 C   0  0  0  0  0  0  0  0  0  0  0  0
   54.6370   26.2130   45.9780 O   0  0  0  0  0  0  0  0  0  0  0  0
   57.7996   29.5417   43.3391 H   0  0  0  0  0  0  0  0  0  0  0  0
   56.3310   29.2141   42.3221 H   0  0  0  0  0  0  0  0  0  0  0  0
   57.3978   31.0250   41.2662 H   0  0  0  0  0  0  0  0  0  0  0  0
   56.0377   31.7479   42.2652 H   0  0  0  0  0  0  0  0  0  0  0  0
   58.8713   32.3480   42.2970 H   0  0  0  0  0  0  0  0  0  0  0  0
   57.4503   33.1600   43.1202 H   0  0  0  0  0  0  0  0  0  0  0  0
   58.2538   30.6833   44.4559 H   0  0  0  0  0  0  0  0  0  0  0  0
   59.5850   31.9266   44.3737 H   0  0  0  0  0  0  0  0  0  0  0  0
   56.8235   32.2038   45.6205 H   0  0  0  0  0  0  0  0  0  0  0  0
   58.4702   32.3163   46.4034 H   0  0  0  0  0  0  0  0  0  0  0  0
   57.2562   34.2945   44.4325 H   0  0  0  0  0  0  0  0  0  0  0  0
   57.5065   34.5005   46.2390 H   0  0  0  0  0  0  0  0  0  0  0  0
   59.8257   34.0146   44.3626 H   0  0  0  0  0  0  0  0  0  0  0  0
   59.1375   35.6767   44.6751 H   0  0  0  0  0  0  0  0  0  0  0  0
   60.7683   33.9022   46.4424 H   0  0  0  0  0  0  0  0  0  0  0  0
   60.7025   35.7156   46.2833 H   0  0  0  0  0  0  0  0  0  0  0  0
   58.8713   35.9122   47.7055 H   0  0  0  0  0  0  0  0  0  0  0  0
   58.4471   34.1401   47.5160 H   0  0  0  0  0  0  0  0  0  0  0  0
   61.0521   34.3375   48.6874 H   0  0  0  0  0  0  0  0  0  0  0  0
   59.8958   35.3989   49.6076 H   0  0  0  0  0  0  0  0  0  0  0  0
   61.8593   32.7476   48.4276 H   0  0  0  0  0  0  0  0  0  0  0  0
   62.6609   31.0953   46.7345 H   0  0  0  0  0  0  0  0  0  0  0  0
   61.1331   29.2877   45.9302 H   0  0  0  0  0  0  0  0  0  0  0  0
   58.8041   29.1285   46.8240 H   0  0  0  0  0  0  0  0  0  0  0  0
   57.9932   30.7931   48.5023 H   0  0  0  0  0  0  0  0  0  0  0  0
   58.4162   28.7596   45.4052 H   0  0  0  0  0  0  0  0  0  0  0  0
   59.0721   26.4331   46.5747 H   0  0  0  0  0  0  0  0  0  0  0  0
  1  2  2  0
  2  3  1  0
  3  4  1  0
  4  5  1  0
  5  6  1  0
  6  7  1  0
  7  8  1  0
  8  9  1  0
  9 10  1  0
 10 11  1  0
 11 12  1  0
 12 13  1  0
 13 14  1  0
 14 15  2  0
 15 16  1  0
 16 17  2  0
 17 18  1  0
 18 19  2  0
  2 20  1  0
 20 21  1  0
 21 22  1  0
 22 23  2  0
 23 24  1  0
 24 25  1  0
 25 26  1  0
 19 14  1  0
 25 21  2  0
  3 27  1  0
  3 28  1  0
  4 29  1  0
  4 30  1  0
  5 31  1  0
  5 32  1  0
  6 33  1  0
  6 34  1  0
  7 35  1  0
  7 36  1  0
  8 37  1  0
  8 38  1  0
  9 39  1  0
  9 40  1  0
 10 41  1  0
 10 42  1  0
 11 43  1  0
 11 44  1  0
 12 45  1  0
 12 46  1  0
 15 47  1  0
 16 48  1  0
 17 49  1  0
 18 50  1  0
 19 51  1  0
 22 52  1  0
 23 53  1  0
M  CHG  2  20  -1  26  -1
M  END
>  <UniqueID>  (69) 
64

>  <SMILES>  (69) 
O=C(CCCCCCCCCCSc1ccccc1)[N-]c1ccoc1[O-]

>  <Energy>  (69) 
68.41866023376815

>  <Genealogy>  (69) 
O=C(CCCCCCCCCCSc1ccccc1)[N-]c1ccoc1[O-] (protonated)
O=C(CCCCCCCCCCSc1ccccc1)[N-]c1ccoc1[O-] (3D coordinates assigned)
O=C(CCCCCCCCCCSc1ccccc1)[N-]c1ccoc1[O-] (optimized conformer: 68.41866023376815 kcal/mol)

>  <smiles>  (69) 
O=C(CCCCCCCCCCSc1ccccc1)Nc1ccoc1O

>  <score_type>  (69) 
oracle

>  <origin>  (69) 
adg

>  <m_score__min__energy>  (69) 
-13.289999999999999

>  <m_primary>  (69) 
energy

$$$$
69:0
     RDKit          3D

 51 54  0  0  0  0  0  0  0  0999 V2000
   58.5320   31.6190   47.7880 C   0  0  0  0  0  0  0  0  0  0  0  0
   58.5360   32.7070   46.7420 C   0  0  0  0  0  0  0  0  0  0  0  0
   59.2380   33.9100   46.9890 C   0  0  0  0  0  0  0  0  0  0  0  0
   60.0260   34.2250   48.5320 Cl  0  0  0  0  0  0  0  0  0  0  0  0
   59.3200   34.8920   45.9970 C   0  0  0  0  0  0  0  0  0  0  0  0
   58.7130   34.6950   44.7590 C   0  0  0  0  0  0  0  0  0  0  0  0
   57.9870   33.5310   44.5140 C   0  0  0  0  0  0  0  0  0  0  0  0
   57.8540   32.5510   45.5050 C   0  0  0  0  0  0  0  0  0  0  0  0
   57.0230   31.4170   45.2190 N   0  0  0  0  0  0  0  0  0  0  0  0
   57.3640   30.3210   44.3550 C   0  0  0  0  0  0  0  0  0  0  0  0
   57.2720   30.4850   43.1100 O   0  0  0  0  0  0  0  0  0  0  0  0
   57.8150   29.0130   44.8820 C   0  0  0  0  0  0  0  0  0  0  0  0
   57.7700   27.8580   44.0830 C   0  0  0  0  0  0  0  0  0  0  0  0
   58.1370   26.6180   44.6120 C   0  0  0  0  0  0  0  0  0  0  0  0
   58.5720   26.5150   45.9410 C   0  0  0  0  0  0  0  0  0  0  0  0
   58.8850   25.1680   46.5390 C   0  0  0  0  0  0  0  0  0  0  0  0
   58.0700   24.0910   45.8580 C   0  0  0  0  0  0  0  0  0  0  0  0
   58.6870   22.9660   45.2940 C   0  0  0  0  0  0  0  0  0  0  0  0
   60.0730   22.8320   45.3090 O   0  0  0  0  0  0  0  0  0  0  0  0
   57.9310   21.9940   44.7270 N   0  0  0  0  0  0  0  0  0  0  0  0
   56.5780   22.0710   44.6950 C   0  0  0  0  0  0  0  0  0  0  0  0
   55.9260   21.1440   44.1420 O   0  0  0  0  0  0  0  0  0  0  0  0
   55.9350   23.1470   45.2480 N   0  0  0  0  0  0  0  0  0  0  0  0
   54.4930   23.2140   45.2350 C   0  0  0  0  0  0  0  0  0  0  0  0
   53.7540   22.7850   46.3500 C   0  0  0  0  0  0  0  0  0  0  0  0
   52.3570   22.8620   46.3410 C   0  0  0  0  0  0  0  0  0  0  0  0
   51.6910   23.3630   45.2210 C   0  0  0  0  0  0  0  0  0  0  0  0
   52.4180   23.7880   44.1050 C   0  0  0  0  0  0  0  0  0  0  0  0
   53.8140   23.7140   44.1110 C   0  0  0  0  0  0  0  0  0  0  0  0
   56.6630   24.1560   45.8280 C   0  0  0  0  0  0  0  0  0  0  0  0
   56.0740   25.1420   46.3520 O   0  0  0  0  0  0  0  0  0  0  0  0
   58.6580   27.6740   46.7280 C   0  0  0  0  0  0  0  0  0  0  0  0
   58.2900   28.9150   46.1990 C   0  0  0  0  0  0  0  0  0  0  0  0
   58.5337   32.0734   48.7897 H   0  0  0  0  0  0  0  0  0  0  0  0
   57.6316   30.9986   47.6683 H   0  0  0  0  0  0  0  0  0  0  0  0
   59.4278   30.9920   47.6683 H   0  0  0  0  0  0  0  0  0  0  0  0
   59.8670   35.8255   46.1955 H   0  0  0  0  0  0  0  0  0  0  0  0
   58.8068   35.4593   43.9735 H   0  0  0  0  0  0  0  0  0  0  0  0
   57.5138   33.3807   43.5324 H   0  0  0  0  0  0  0  0  0  0  0  0
   57.4439   27.9305   43.0349 H   0  0  0  0  0  0  0  0  0  0  0  0
   58.0844   25.7176   43.9824 H   0  0  0  0  0  0  0  0  0  0  0  0
   59.9554   24.9517   46.4067 H   0  0  0  0  0  0  0  0  0  0  0  0
   58.6342   25.1841   47.6099 H   0  0  0  0  0  0  0  0  0  0  0  0
   60.5850   22.6110   44.4630 H   0  0  0  0  0  0  0  0  0  0  0  0
   54.2754   22.3872   47.2331 H   0  0  0  0  0  0  0  0  0  0  0  0
   51.7827   22.5274   47.2175 H   0  0  0  0  0  0  0  0  0  0  0  0
   50.5927   23.4235   45.2166 H   0  0  0  0  0  0  0  0  0  0  0  0
   51.8917   24.1805   43.2224 H   0  0  0  0  0  0  0  0  0  0  0  0
   54.3836   24.0488   43.2316 H   0  0  0  0  0  0  0  0  0  0  0  0
   59.0165   27.6058   47.7657 H   0  0  0  0  0  0  0  0  0  0  0  0
   58.3733   29.8199   46.8188 H   0  0  0  0  0  0  0  0  0  0  0  0
  1  2  1  0
  2  3  2  0
  3  4  1  0
  3  5  1  0
  5  6  2  0
  6  7  1  0
  7  8  2  0
  8  9  1  0
  9 10  1  0
 10 11  2  0
 10 12  1  0
 12 13  2  0
 13 14  1  0
 14 15  2  0
 15 16  1  0
 16 17  1  0
 17 18  2  0
 18 19  1  0
 18 20  1  0
 20 21  1  0
 21 22  2  0
 21 23  1  0
 23 24  1  0
 24 25  2  0
 25 26  1  0
 26 27  2  0
 27 28  1  0
 28 29  2  0
 23 30  1  0
 30 31  2  0
 15 32  1  0
 32 33  2  0
  8  2  1  0
 33 12  1  0
 30 17  1  0
 29 24  1  0
  1 34  1  0
  1 35  1  0
  1 36  1  0
  5 37  1  0
  6 38  1  0
  7 39  1  0
 13 40  1  0
 14 41  1  0
 16 42  1  0
 16 43  1  0
 19 44  1  0
 25 45  1  0
 26 46  1  0
 27 47  1  0
 28 48  1  0
 29 49  1  0
 32 50  1  0
 33 51  1  0
M  CHG  2   9  -1  20  -1
M  END
>  <UniqueID>  (70) 
65

>  <SMILES>  (70) 
Cc1c(Cl)cccc1[N-]C(=O)c1ccc(Cc2c(O)[n-]c(=O)n(-c3ccccc3)c2=O)cc1

>  <Energy>  (70) 
75.97061574032566

>  <Genealogy>  (70) 
Cc1c(Cl)cccc1[N-]C(=O)c1ccc(Cc2c(O)[n-]c(=O)n(-c3ccccc3)c2=O)cc1 (protonated)
Cc1c(Cl)cccc1[N-]C(=O)c1ccc(Cc2c(O)[n-]c(=O)n(-c3ccccc3)c2=O)cc1 (3D coordinates assigned)
Cc1c(Cl)cccc1[N-]C(=O)c1ccc(Cc2c(O)[n-]c(=O)n(-c3ccccc3)c2=O)cc1 (optimized conformer: 75.97061574032566 kcal/mol)

>  <smiles>  (70) 
Cc1c(Cl)cccc1NC(=O)c1ccc(Cc2c(O)[nH]c(=O)n(-c3ccccc3)c2=O)cc1

>  <score_type>  (70) 
oracle

>  <origin>  (70) 
adg

>  <m_score__min__energy>  (70) 
-12.24

>  <m_primary>  (70) 
energy

$$$$
70:0
     RDKit          3D

 44 45  0  0  0  0  0  0  0  0999 V2000
   60.6790   34.4380   48.6250 C   0  0  0  0  0  0  0  0  0  0  0  0
   59.9980   34.8280   47.4370 O   0  0  0  0  0  0  0  0  0  0  0  0
   59.1750   33.9790   46.6820 C   0  0  0  0  0  0  0  0  0  0  0  0
   58.5350   34.5040   45.5530 C   0  0  0  0  0  0  0  0  0  0  0  0
   57.7030   33.7000   44.7690 C   0  0  0  0  0  0  0  0  0  0  0  0
   57.4870   32.3540   45.1150 C   0  0  0  0  0  0  0  0  0  0  0  0
   56.6680   31.5050   44.3540 O   0  0  0  0  0  0  0  0  0  0  0  0
   56.5940   30.1130   44.4890 C   0  0  0  0  0  0  0  0  0  0  0  0
   55.5270   29.5600   44.8760 O   0  0  0  0  0  0  0  0  0  0  0  0
   57.7560   29.3260   44.1960 N   0  0  0  0  0  0  0  0  0  0  0  0
   57.8760   27.9210   44.4780 C   0  0  0  0  0  0  0  0  0  0  0  0
   58.0440   27.4970   45.8040 C   0  0  0  0  0  0  0  0  0  0  0  0
   58.1450   26.1370   46.1070 C   0  0  0  0  0  0  0  0  0  0  0  0
   58.0610   25.1790   45.0880 C   0  0  0  0  0  0  0  0  0  0  0  0
   58.2350   23.4650   45.4550 S   0  0  0  0  0  0  0  0  0  0  0  0
   57.6380   22.6380   44.3500 O   0  0  0  0  0  0  0  0  0  0  0  0
   59.6960   23.1320   45.5590 O   0  0  0  0  0  0  0  0  0  0  0  0
   57.4550   23.0790   46.9620 N   0  0  0  0  0  0  0  0  0  0  0  0
   56.2630   23.9050   47.1710 C   0  0  0  0  0  0  0  0  0  0  0  0
   55.0500   23.2580   46.4940 C   0  0  0  0  0  0  0  0  0  0  0  0
   54.5410   24.0840   45.3120 C   0  0  0  0  0  0  0  0  0  0  0  0
   52.7750   23.9230   45.1180 Cl  0  0  0  0  0  0  0  0  0  0  0  0
   57.8700   25.5950   43.7650 C   0  0  0  0  0  0  0  0  0  0  0  0
   57.7700   26.9560   43.4600 C   0  0  0  0  0  0  0  0  0  0  0  0
   58.1410   31.8240   46.2320 C   0  0  0  0  0  0  0  0  0  0  0  0
   58.9740   32.6270   47.0160 C   0  0  0  0  0  0  0  0  0  0  0  0
   60.1035   34.7676   49.5026 H   0  0  0  0  0  0  0  0  0  0  0  0
   60.7835   33.3432   48.6451 H   0  0  0  0  0  0  0  0  0  0  0  0
   61.6762   34.9019   48.6451 H   0  0  0  0  0  0  0  0  0  0  0  0
   58.6883   35.5586   45.2805 H   0  0  0  0  0  0  0  0  0  0  0  0
   57.2152   34.1216   43.8778 H   0  0  0  0  0  0  0  0  0  0  0  0
   58.5240   29.7900   43.6600 H   0  0  0  0  0  0  0  0  0  0  0  0
   58.0967   28.2413   46.6122 H   0  0  0  0  0  0  0  0  0  0  0  0
   58.2910   25.8171   47.1493 H   0  0  0  0  0  0  0  0  0  0  0  0
   56.0703   23.9996   48.2498 H   0  0  0  0  0  0  0  0  0  0  0  0
   56.4324   24.8997   46.7329 H   0  0  0  0  0  0  0  0  0  0  0  0
   55.3369   22.2598   46.1315 H   0  0  0  0  0  0  0  0  0  0  0  0
   54.2410   23.1962   47.2368 H   0  0  0  0  0  0  0  0  0  0  0  0
   54.7873   25.1424   45.4825 H   0  0  0  0  0  0  0  0  0  0  0  0
   55.0251   23.7132   44.3965 H   0  0  0  0  0  0  0  0  0  0  0  0
   57.7982   24.8474   42.9613 H   0  0  0  0  0  0  0  0  0  0  0  0
   57.6077   27.2734   42.4194 H   0  0  0  0  0  0  0  0  0  0  0  0
   57.9984   30.7657   46.4958 H   0  0  0  0  0  0  0  0  0  0  0  0
   59.4745   32.2003   47.8977 H   0  0  0  0  0  0  0  0  0  0  0  0
  1  2  1  0
  2  3  1  0
  3  4  2  0
  4  5  1  0
  5  6  2  0
  6  7  1  0
  7  8  1  0
  8  9  2  0
  8 10  1  0
 10 11  1  0
 11 12  2  0
 12 13  1  0
 13 14  2  0
 14 15  1  0
 15 16  2  0
 15 17  2  0
 15 18  1  0
 18 19  1  0
 19 20  1  0
 20 21  1  0
 21 22  1  0
 14 23  1  0
 23 24  2  0
  6 25  1  0
 25 26  2  0
 26  3  1  0
 24 11  1  0
  1 27  1  0
  1 28  1  0
  1 29  1  0
  4 30  1  0
  5 31  1  0
 10 32  1  0
 12 33  1  0
 13 34  1  0
 19 35  1  0
 19 36  1  0
 20 37  1  0
 20 38  1  0
 21 39  1  0
 21 40  1  0
 23 41  1  0
 24 42  1  0
 25 43  1  0
 26 44  1  0
M  CHG  1  18  -1
M  END
>  <UniqueID>  (71) 
66

>  <SMILES>  (71) 
COc1ccc(OC(=O)Nc2ccc(S(=O)(=O)[N-]CCCCl)cc2)cc1

>  <Energy>  (71) 
46.17891187351654

>  <Genealogy>  (71) 
COc1ccc(OC(=O)Nc2ccc(S(=O)(=O)[N-]CCCCl)cc2)cc1 (protonated)
COc1ccc(OC(=O)Nc2ccc(S(=O)(=O)[N-]CCCCl)cc2)cc1 (3D coordinates assigned)
COc1ccc(OC(=O)Nc2ccc(S(=O)(=O)[N-]CCCCl)cc2)cc1 (optimized conformer: 46.17891187351654 kcal/mol)

>  <smiles>  (71) 
COc1ccc(OC(=O)Nc2ccc(S(=O)(=O)NCCCCl)cc2)cc1

>  <score_type>  (71) 
oracle

>  <origin>  (71) 
adg

>  <m_score__min__energy>  (71) 
-8.6799999999999997

>  <m_primary>  (71) 
energy

$$$$
71:0
     RDKit          3D

 66 69  0  0  0  0  0  0  0  0999 V2000
   60.3690   30.4180   48.6510 O   0  0  0  0  0  0  0  0  0  0  0  0
   59.3200   31.1160   48.6820 C   0  0  0  0  0  0  0  0  0  0  0  0
   58.9560   31.8270   49.9510 C   0  0  0  0  0  0  0  0  0  0  0  0
   59.9700   32.8120   50.3210 N   0  0  0  0  0  0  0  0  0  0  0  0
   60.3450   33.9080   49.4810 C   0  0  0  0  0  0  0  0  0  0  0  0
   59.5690   34.8960   49.3440 O   0  0  0  0  0  0  0  0  0  0  0  0
   61.6300   33.8410   48.7000 C   0  0  0  0  0  0  0  0  0  0  0  0
   62.4840   32.6240   49.1560 C   0  0  0  0  0  0  0  0  0  0  0  0
   63.2230   31.9220   47.9950 C   0  0  0  0  0  0  0  0  0  0  0  0
   63.7720   32.9350   46.9820 C   0  0  0  0  0  0  0  0  0  0  0  0
   62.6660   33.8380   46.3860 C   0  0  0  0  0  0  0  0  0  0  0  0
   61.3520   33.8150   47.1850 C   0  0  0  0  0  0  0  0  0  0  0  0
   58.4270   31.1360   47.5610 N   0  0  0  0  0  0  0  0  0  0  0  0
   58.2810   32.1880   46.5930 C   0  0  0  0  0  0  0  0  0  0  0  0
   58.1440   33.5330   46.9860 C   0  0  0  0  0  0  0  0  0  0  0  0
   58.0550   34.5410   46.0200 C   0  0  0  0  0  0  0  0  0  0  0  0
   58.1000   34.2200   44.6630 C   0  0  0  0  0  0  0  0  0  0  0  0
   58.2080   32.8840   44.2640 C   0  0  0  0  0  0  0  0  0  0  0  0
   58.2730   31.8640   45.2200 C   0  0  0  0  0  0  0  0  0  0  0  0
   58.3730   30.5350   44.7900 O   0  0  0  0  0  0  0  0  0  0  0  0
   57.4670   29.5440   45.1830 C   0  0  0  0  0  0  0  0  0  0  0  0
   56.2410   29.6830   44.9230 O   0  0  0  0  0  0  0  0  0  0  0  0
   57.9430   28.3540   45.9160 C   0  0  0  0  0  0  0  0  0  0  0  0
   59.0590   28.4290   46.7670 C   0  0  0  0  0  0  0  0  0  0  0  0
   59.5460   27.2800   47.3980 C   0  0  0  0  0  0  0  0  0  0  0  0
   58.9310   26.0460   47.1780 C   0  0  0  0  0  0  0  0  0  0  0  0
   57.8210   25.9560   46.3250 C   0  0  0  0  0  0  0  0  0  0  0  0
   57.0430   24.4030   46.0350 S   0  0  0  0  0  0  0  0  0  0  0  0
   55.5530   24.6060   46.0300 O   0  0  0  0  0  0  0  0  0  0  0  0
   57.3690   23.4710   47.1710 O   0  0  0  0  0  0  0  0  0  0  0  0
   57.5310   23.6610   44.5240 N   0  0  0  0  0  0  0  0  0  0  0  0
   57.7330   22.2000   44.6180 C   0  0  0  0  0  0  0  0  0  0  0  0
   56.4730   21.3940   44.2550 C   0  0  0  0  0  0  0  0  0  0  0  0
   55.9510   21.8080   43.0120 O   0  0  0  0  0  0  0  0  0  0  0  0
   55.5190   23.1480   43.1200 C   0  0  0  0  0  0  0  0  0  0  0  0
   56.7140   24.0810   43.3700 C   0  0  0  0  0  0  0  0  0  0  0  0
   57.3190   27.1140   45.7150 C   0  0  0  0  0  0  0  0  0  0  0  0
   57.9934   32.3403   49.8100 H   0  0  0  0  0  0  0  0  0  0  0  0
   58.8872   31.0819   50.7573 H   0  0  0  0  0  0  0  0  0  0  0  0
   62.2140   34.7501   48.9063 H   0  0  0  0  0  0  0  0  0  0  0  0
   63.2312   32.9754   49.8828 H   0  0  0  0  0  0  0  0  0  0  0  0
   61.7926   31.8881   49.5923 H   0  0  0  0  0  0  0  0  0  0  0  0
   64.0599   31.3380   48.4055 H   0  0  0  0  0  0  0  0  0  0  0  0
   62.5065   31.2688   47.4754 H   0  0  0  0  0  0  0  0  0  0  0  0
   64.5131   33.5720   47.4869 H   0  0  0  0  0  0  0  0  0  0  0  0
   64.2221   32.3681   46.1538 H   0  0  0  0  0  0  0  0  0  0  0  0
   63.0387   34.8726   46.3602 H   0  0  0  0  0  0  0  0  0  0  0  0
   62.4390   33.4486   45.3826 H   0  0  0  0  0  0  0  0  0  0  0  0
   60.7502   34.6950   46.9140 H   0  0  0  0  0  0  0  0  0  0  0  0
   60.8093   32.8893   46.9429 H   0  0  0  0  0  0  0  0  0  0  0  0
   58.1069   33.7917   48.0545 H   0  0  0  0  0  0  0  0  0  0  0  0
   57.9491   35.5906   46.3315 H   0  0  0  0  0  0  0  0  0  0  0  0
   58.0505   35.0176   43.9071 H   0  0  0  0  0  0  0  0  0  0  0  0
   58.2420   32.6336   43.1934 H   0  0  0  0  0  0  0  0  0  0  0  0
   59.5523   29.3973   46.9377 H   0  0  0  0  0  0  0  0  0  0  0  0
   60.4151   27.3485   48.0688 H   0  0  0  0  0  0  0  0  0  0  0  0
   59.3173   25.1434   47.6741 H   0  0  0  0  0  0  0  0  0  0  0  0
   58.5426   21.9132   43.9308 H   0  0  0  0  0  0  0  0  0  0  0  0
   57.9813   21.9689   45.6644 H   0  0  0  0  0  0  0  0  0  0  0  0
   56.7322   20.3264   44.1991 H   0  0  0  0  0  0  0  0  0  0  0  0
   55.7114   21.5647   45.0302 H   0  0  0  0  0  0  0  0  0  0  0  0
   55.0186   23.4433   42.1860 H   0  0  0  0  0  0  0  0  0  0  0  0
   54.8213   23.2294   43.9665 H   0  0  0  0  0  0  0  0  0  0  0  0
   57.3496   24.0874   42.4722 H   0  0  0  0  0  0  0  0  0  0  0  0
   56.3143   25.0815   43.5918 H   0  0  0  0  0  0  0  0  0  0  0  0
   56.4280   27.0497   45.0731 H   0  0  0  0  0  0  0  0  0  0  0  0
  1  2  2  0
  2  3  1  0
  3  4  1  0
  4  5  1  0
  5  6  2  0
  5  7  1  0
  7  8  1  0
  8  9  1  0
  9 10  1  0
 10 11  1  0
 11 12  1  0
  2 13  1  0
 13 14  1  0
 14 15  2  0
 15 16  1  0
 16 17  2  0
 17 18  1  0
 18 19  2  0
 19 20  1  0
 20 21  1  0
 21 22  2  0
 21 23  1  0
 23 24  2  0
 24 25  1  0
 25 26  2  0
 26 27  1  0
 27 28  1  0
 28 29  2  0
 28 30  2  0
 28 31  1  0
 31 32  1  0
 32 33  1  0
 33 34  1  0
 34 35  1  0
 35 36  1  0
 27 37  2  0
 12  7  1  0
 19 14  1  0
 37 23  1  0
 36 31  1  0
  3 38  1  0
  3 39  1  0
  7 40  1  0
  8 41  1  0
  8 42  1  0
  9 43  1  0
  9 44  1  0
 10 45  1  0
 10 46  1  0
 11 47  1  0
 11 48  1  0
 12 49  1  0
 12 50  1  0
 15 51  1  0
 16 52  1  0
 17 53  1  0
 18 54  1  0
 24 55  1  0
 25 56  1  0
 26 57  1  0
 32 58  1  0
 32 59  1  0
 33 60  1  0
 33 61  1  0
 35 62  1  0
 35 63  1  0
 36 64  1  0
 36 65  1  0
 37 66  1  0
M  CHG  2   4  -1  13  -1
M  END
>  <UniqueID>  (72) 
67

>  <SMILES>  (72) 
O=C(C[N-]C(=O)C1CCCCC1)[N-]c1ccccc1OC(=O)c1cccc(S(=O)(=O)N2CCOCC2)c1

>  <Energy>  (72) 
79.38307628817836

>  <Genealogy>  (72) 
O=C(C[N-]C(=O)C1CCCCC1)[N-]c1ccccc1OC(=O)c1cccc(S(=O)(=O)N2CCOCC2)c1 (protonated)
O=C(C[N-]C(=O)C1CCCCC1)[N-]c1ccccc1OC(=O)c1cccc(S(=O)(=O)N2CCOCC2)c1 (3D coordinates assigned)
O=C(C[N-]C(=O)C1CCCCC1)[N-]c1ccccc1OC(=O)c1cccc(S(=O)(=O)N2CCOCC2)c1 (nonaromatic ring conformer: 79.38307628817836 kcal/mol)

>  <smiles>  (72) 
O=C(CNC(=O)C1CCCCC1)Nc1ccccc1OC(=O)c1cccc(S(=O)(=O)N2CCOCC2)c1

>  <score_type>  (72) 
oracle

>  <origin>  (72) 
adg

>  <m_score__min__energy>  (72) 
-15.380000000000001

>  <m_primary>  (72) 
energy

$$$$
72:0
     RDKit          3D

 61 64  0  0  0  0  0  0  0  0999 V2000
   55.3810   28.9830   44.8880 O   0  0  0  0  0  0  0  0  0  0  0  0
   56.3310   29.6560   44.4120 C   0  0  0  0  0  0  0  0  0  0  0  0
   57.4970   28.9450   43.7960 C   0  0  0  0  0  0  0  0  0  0  0  0
   58.4400   28.4620   44.8650 C   0  0  0  0  0  0  0  0  0  0  0  0
   59.8260   28.6400   44.7150 C   0  0  0  0  0  0  0  0  0  0  0  0
   60.7000   28.2430   45.7330 C   0  0  0  0  0  0  0  0  0  0  0  0
   60.1990   27.6660   46.9020 C   0  0  0  0  0  0  0  0  0  0  0  0
   58.8220   27.4850   47.0610 C   0  0  0  0  0  0  0  0  0  0  0  0
   57.9430   27.8870   46.0510 C   0  0  0  0  0  0  0  0  0  0  0  0
   56.2700   31.0940   44.3580 N   0  0  0  0  0  0  0  0  0  0  0  0
   57.1470   31.9600   44.7860 C   0  0  0  0  0  0  0  0  0  0  0  0
   57.8160   32.8620   43.9330 C   0  0  0  0  0  0  0  0  0  0  0  0
   58.7060   33.7870   44.4750 C   0  0  0  0  0  0  0  0  0  0  0  0
   58.9290   33.8300   45.8510 C   0  0  0  0  0  0  0  0  0  0  0  0
   60.0240   35.0590   46.4790 Cl  0  0  0  0  0  0  0  0  0  0  0  0
   58.2470   32.9190   46.6850 C   0  0  0  0  0  0  0  0  0  0  0  0
   58.3840   32.9410   48.1940 C   0  0  0  0  0  0  0  0  0  0  0  0
   59.2810   31.8980   48.7470 N   0  0  0  0  0  0  0  0  0  0  0  0
   58.5810   30.6260   49.0240 C   0  0  0  0  0  0  0  0  0  0  0  0
   59.4500   29.7370   49.9330 C   0  0  0  0  0  0  0  0  0  0  0  0
   60.8790   29.9510   49.6660 N   0  0  0  0  0  0  0  0  0  0  0  0
   61.8570   29.5690   50.6520 C   0  0  0  0  0  0  0  0  0  0  0  0
   61.5250   28.8150   51.6060 O   0  0  0  0  0  0  0  0  0  0  0  0
   63.2040   30.0490   50.5550 N   0  0  0  0  0  0  0  0  0  0  0  0
   63.6260   31.3840   50.9710 C   0  0  0  0  0  0  0  0  0  0  0  0
   63.4180   32.3890   49.8670 C   0  0  0  0  0  0  0  0  0  0  0  0
   64.0290   32.1960   48.6160 C   0  0  0  0  0  0  0  0  0  0  0  0
   63.7970   33.1000   47.5730 C   0  0  0  0  0  0  0  0  0  0  0  0
   62.9490   34.1960   47.7690 C   0  0  0  0  0  0  0  0  0  0  0  0
   62.3350   34.3900   49.0100 C   0  0  0  0  0  0  0  0  0  0  0  0
   62.5730   33.4960   50.0590 C   0  0  0  0  0  0  0  0  0  0  0  0
   61.2880   30.4260   48.3350 C   0  0  0  0  0  0  0  0  0  0  0  0
   60.4780   31.6730   47.9010 C   0  0  0  0  0  0  0  0  0  0  0  0
   57.3800   32.0290   46.1260 N   0  0  0  0  0  0  0  0  0  0  0  0
   57.1321   28.0832   43.2180 H   0  0  0  0  0  0  0  0  0  0  0  0
   58.0327   29.6428   43.1357 H   0  0  0  0  0  0  0  0  0  0  0  0
   60.2247   29.0925   43.7951 H   0  0  0  0  0  0  0  0  0  0  0  0
   61.7840   28.3857   45.6123 H   0  0  0  0  0  0  0  0  0  0  0  0
   60.8894   27.3533   47.6993 H   0  0  0  0  0  0  0  0  0  0  0  0
   58.4301   27.0263   47.9808 H   0  0  0  0  0  0  0  0  0  0  0  0
   56.8591   27.7538   46.1829 H   0  0  0  0  0  0  0  0  0  0  0  0
   57.6366   32.8355   42.8481 H   0  0  0  0  0  0  0  0  0  0  0  0
   59.2361   34.4878   43.8133 H   0  0  0  0  0  0  0  0  0  0  0  0
   58.7788   33.9246   48.4885 H   0  0  0  0  0  0  0  0  0  0  0  0
   57.3823   32.7390   48.6012 H   0  0  0  0  0  0  0  0  0  0  0  0
   59.6180   32.2810   49.6640 H   0  0  0  0  0  0  0  0  0  0  0  0
   57.6254   30.8373   49.5262 H   0  0  0  0  0  0  0  0  0  0  0  0
   58.3943   30.1012   48.0755 H   0  0  0  0  0  0  0  0  0  0  0  0
   59.2395   29.9826   50.9844 H   0  0  0  0  0  0  0  0  0  0  0  0
   59.2085   28.6835   49.7283 H   0  0  0  0  0  0  0  0  0  0  0  0
   63.0382   31.6888   51.8494 H   0  0  0  0  0  0  0  0  0  0  0  0
   64.6981   31.3507   51.2149 H   0  0  0  0  0  0  0  0  0  0  0  0
   64.6912   31.3323   48.4563 H   0  0  0  0  0  0  0  0  0  0  0  0
   64.2821   32.9488   46.5974 H   0  0  0  0  0  0  0  0  0  0  0  0
   62.7658   34.9041   46.9474 H   0  0  0  0  0  0  0  0  0  0  0  0
   61.6632   35.2477   49.1617 H   0  0  0  0  0  0  0  0  0  0  0  0
   62.0975   33.6596   51.0373 H   0  0  0  0  0  0  0  0  0  0  0  0
   62.3565   30.6858   48.3615 H   0  0  0  0  0  0  0  0  0  0  0  0
   61.0972   29.6219   47.6090 H   0  0  0  0  0  0  0  0  0  0  0  0
   61.1289   32.5572   47.9691 H   0  0  0  0  0  0  0  0  0  0  0  0
   60.1310   31.5032   46.8711 H   0  0  0  0  0  0  0  0  0  0  0  0
  1  2  2  0
  2  3  1  0
  3  4  1  0
  4  5  2  0
  5  6  1  0
  6  7  2  0
  7  8  1  0
  8  9  2  0
  2 10  1  0
 10 11  2  3
 11 12  1  0
 12 13  2  0
 13 14  1  0
 14 15  1  0
 14 16  2  0
 16 17  1  0
 17 18  1  0
 18 19  1  0
 19 20  1  0
 20 21  1  0
 21 22  1  0
 22 23  2  0
 22 24  1  0
 24 25  1  0
 25 26  1  0
 26 27  2  0
 27 28  1  0
 28 29  2  0
 29 30  1  0
 30 31  2  0
 21 32  1  0
 32 33  1  0
 16 34  1  0
  9  4  1  0
 34 11  1  0
 33 18  1  0
 31 26  1  0
  3 35  1  0
  3 36  1  0
  5 37  1  0
  6 38  1  0
  7 39  1  0
  8 40  1  0
  9 41  1  0
 12 42  1  0
 13 43  1  0
 17 44  1  0
 17 45  1  0
 18 46  1  0
 19 47  1  0
 19 48  1  0
 20 49  1  0
 20 50  1  0
 25 51  1  0
 25 52  1  0
 27 53  1  0
 28 54  1  0
 29 55  1  0
 30 56  1  0
 31 57  1  0
 32 58  1  0
 32 59  1  0
 33 60  1  0
 33 61  1  0
M  CHG  3  18   1  24  -1  34  -1
M  END
>  <UniqueID>  (73) 
68

>  <SMILES>  (73) 
O=C(Cc1ccccc1)N=c1ccc(Cl)c(C[NH+]2CCN(C(=O)[N-]Cc3ccccc3)CC2)[n-]1

>  <Energy>  (73) 
79.83110048898119

>  <Genealogy>  (73) 
O=C(Cc1ccccc1)N=c1ccc(Cl)c(C[NH+]2CCN(C(=O)[N-]Cc3ccccc3)CC2)[n-]1 (protonated)
O=C(Cc1ccccc1)N=c1ccc(Cl)c(C[NH+]2CCN(C(=O)[N-]Cc3ccccc3)CC2)[n-]1 (3D coordinates assigned)
O=C(Cc1ccccc1)N=c1ccc(Cl)c(C[NH+]2CCN(C(=O)[N-]Cc3ccccc3)CC2)[n-]1 (nonaromatic ring conformer: 79.83110048898119 kcal/mol)

>  <smiles>  (73) 
O=C(Cc1ccccc1)N=c1ccc(Cl)c(CN2CCN(C(=O)NCc3ccccc3)CC2)[nH]1

>  <score_type>  (73) 
oracle

>  <origin>  (73) 
adg

>  <m_score__min__energy>  (73) 
-10.73

>  <m_primary>  (73) 
energy

$$$$
73:0
     RDKit          3D

 47 49  0  0  0  0  0  0  0  0999 V2000
   57.4680   29.3030   46.5590 H   0  0  0  0  0  0  0  0  0  0  0  0
   57.7720   30.1240   47.0720 O   0  0  0  0  0  0  0  0  0  0  0  0
   59.1100   30.5140   47.1020 C   0  0  0  0  0  0  0  0  0  0  0  0
   59.4710   31.7550   47.6480 C   0  0  0  0  0  0  0  0  0  0  0  0
   58.6921   32.4163   48.0554 H   0  0  0  0  0  0  0  0  0  0  0  0
   60.8190   32.1650   47.6810 C   0  0  0  0  0  0  0  0  0  0  0  0
   61.1930   33.4500   48.2380 N   0  0  0  0  0  0  0  0  0  0  0  0
   60.1680   34.3600   48.7660 C   0  0  0  0  0  0  0  0  0  0  0  0
   60.1909   34.3397   49.8656 H   0  0  0  0  0  0  0  0  0  0  0  0
   60.3690   35.3826   48.4139 H   0  0  0  0  0  0  0  0  0  0  0  0
   59.1764   34.0393   48.4139 H   0  0  0  0  0  0  0  0  0  0  0  0
   62.6020   33.8570   48.2810 C   0  0  0  0  0  0  0  0  0  0  0  0
   62.9249   33.9503   49.3284 H   0  0  0  0  0  0  0  0  0  0  0  0
   63.2180   33.1001   47.7734 H   0  0  0  0  0  0  0  0  0  0  0  0
   62.7195   34.8258   47.7734 H   0  0  0  0  0  0  0  0  0  0  0  0
   61.7940   31.3040   47.1430 C   0  0  0  0  0  0  0  0  0  0  0  0
   62.8513   31.6073   47.1529 H   0  0  0  0  0  0  0  0  0  0  0  0
   61.4360   30.0700   46.5970 C   0  0  0  0  0  0  0  0  0  0  0  0
   62.2109   29.4163   46.1700 H   0  0  0  0  0  0  0  0  0  0  0  0
   60.0930   29.6570   46.5890 C   0  0  0  0  0  0  0  0  0  0  0  0
   59.6920   28.4110   45.9960 N   0  0  0  0  0  0  0  0  0  0  0  0
   58.8370   27.4300   46.5970 C   0  0  0  0  0  0  0  0  0  0  0  0
   58.2670   27.6620   47.6980 O   0  0  0  0  0  0  0  0  0  0  0  0
   58.6120   26.1220   45.9100 C   0  0  0  0  0  0  0  0  0  0  0  0
   57.7810   25.5918   46.3982 H   0  0  0  0  0  0  0  0  0  0  0  0
   59.5283   25.5168   45.9745 H   0  0  0  0  0  0  0  0  0  0  0  0
   58.2010   26.4050   44.1540 S   0  0  0  0  0  0  0  0  0  0  0  0
   57.3650   27.9630   44.4380 C   0  0  0  0  0  0  0  0  0  0  0  0
   56.2340   28.0790   45.1660 N   0  0  0  0  0  0  0  0  0  0  0  0
   55.7870   29.3310   45.2460 N   0  0  0  0  0  0  0  0  0  0  0  0
   56.5670   30.2140   44.5890 C   0  0  0  0  0  0  0  0  0  0  0  0
   56.2810   31.4820   44.5350 N   0  0  0  0  0  0  0  0  0  0  0  0
   57.1790   32.5590   44.8520 C   0  0  0  0  0  0  0  0  0  0  0  0
   57.1130   33.2000   46.1030 C   0  0  0  0  0  0  0  0  0  0  0  0
   56.3856   32.8584   46.8542 H   0  0  0  0  0  0  0  0  0  0  0  0
   57.9640   34.2660   46.3970 C   0  0  0  0  0  0  0  0  0  0  0  0
   57.9142   34.7535   47.3818 H   0  0  0  0  0  0  0  0  0  0  0  0
   58.8780   34.7140   45.4430 C   0  0  0  0  0  0  0  0  0  0  0  0
   59.5551   35.5477   45.6805 H   0  0  0  0  0  0  0  0  0  0  0  0
   58.9350   34.1060   44.1870 C   0  0  0  0  0  0  0  0  0  0  0  0
   59.6602   34.4615   43.4401 H   0  0  0  0  0  0  0  0  0  0  0  0
   58.0710   33.0420   43.8710 C   0  0  0  0  0  0  0  0  0  0  0  0
   58.1660   32.3810   42.5240 C   0  0  0  0  0  0  0  0  0  0  0  0
   58.3214   31.3001   42.6561 H   0  0  0  0  0  0  0  0  0  0  0  0
   57.2341   32.5519   41.9652 H   0  0  0  0  0  0  0  0  0  0  0  0
   59.0121   32.8074   41.9652 H   0  0  0  0  0  0  0  0  0  0  0  0
   57.8660   29.4480   43.8250 S   0  0  0  0  0  0  0  0  0  0  0  0
  1  2  1  0
  2  3  1  0
  3  4  2  0
  4  5  1  0
  4  6  1  0
  6  7  1  0
  7  8  1  0
  8  9  1  0
  8 10  1  0
  8 11  1  0
  7 12  1  0
 12 13  1  0
 12 14  1  0
 12 15  1  0
  6 16  2  0
 16 17  1  0
 16 18  1  0
 18 19  1  0
 18 20  2  0
 20 21  1  0
 21 22  1  0
 22 23  2  0
 22 24  1  0
 24 25  1  0
 24 26  1  0
 24 27  1  0
 27 28  1  0
 28 29  2  0
 29 30  1  0
 30 31  1  0
 31 32  2  0
 32 33  1  0
 33 34  2  0
 34 35  1  0
 34 36  1  0
 36 37  1  0
 36 38  2  0
 38 39  1  0
 38 40  1  0
 40 41  1  0
 40 42  2  0
 42 43  1  0
 43 44  1  0
 43 45  1  0
 43 46  1  0
 31 47  1  0
 20  3  1  0
 47 28  1  0
 42 33  1  0
M  CHG  2  21  -1  30  -1
M  END
>  <UniqueID>  (74) 
69

>  <SMILES>  (74) 
Cc1ccccc1/N=c1/[n-]nc(SCC(=O)[N-]c2ccc(N(C)C)cc2O)s1

>  <Energy>  (74) 
87.51634313607812

>  <Genealogy>  (74) 
Cc1ccccc1N=c1[n-]nc(SCC(=O)[N-]c2ccc(N(C)C)cc2O)s1 (protonated)
Cc1ccccc1/N=c1/[n-]nc(SCC(=O)[N-]c2ccc(N(C)C)cc2O)s1 (cis-trans isomerization)
Cc1ccccc1/N=c1/[n-]nc(SCC(=O)[N-]c2ccc(N(C)C)cc2O)s1 (3D coordinates assigned)
Cc1ccccc1/N=c1/[n-]nc(SCC(=O)[N-]c2ccc(N(C)C)cc2O)s1 (optimized conformer: 87.51634313607812 kcal/mol)

>  <smiles>  (74) 
Cc1ccccc1N=c1[nH]nc(SCC(=O)Nc2ccc(N(C)C)cc2O)s1

>  <score_type>  (74) 
oracle

>  <origin>  (74) 
adg

>  <m_score__min__energy>  (74) 
-12.529999999999999

>  <m_primary>  (74) 
energy

$$$$
74:0
     RDKit          3D

 38 40  0  0  1  0  0  0  0  0999 V2000
   60.7160   33.6120   50.2790 C   0  0  0  0  0  0  0  0  0  0  0  0
   61.2000   32.6610   49.2050 C   0  0  0  0  0  0  0  0  0  0  0  0
   62.4670   32.8760   48.6470 C   0  0  0  0  0  0  0  0  0  0  0  0
   62.6370   31.5200   47.4150 S   0  0  0  0  0  0  0  0  0  0  0  0
   61.0010   30.8520   47.8090 C   0  0  0  0  0  0  0  0  0  0  0  0
   60.5300   29.8200   47.2210 N   0  0  0  0  0  0  0  0  0  0  0  0
   59.7370   28.9130   47.9740 C   0  0  0  0  0  0  0  0  0  0  0  0
   59.0180   29.4070   48.9010 O   0  0  0  0  0  0  0  0  0  0  0  0
   59.6960   27.4650   47.7510 C   0  0  0  0  0  0  0  0  0  0  0  0
   58.8110   26.9750   46.2540 S   0  0  0  0  0  0  0  0  0  0  0  0
   58.3300   28.4830   45.4170 C   0  0  0  0  0  0  0  0  0  0  0  0
   57.7290   29.5760   45.9180 N   0  0  0  0  0  0  0  0  0  0  0  0
   57.5540   30.4700   44.9340 C   0  0  0  0  0  0  0  0  0  0  0  0
   57.0320   31.6400   44.9410 N   0  0  0  0  0  0  0  0  0  0  0  0
   57.8080   32.7460   45.3870 C   0  0  0  0  0  0  0  0  0  0  0  0
   58.0290   33.8120   44.5350 C   0  0  0  0  0  0  0  0  0  0  0  0
   58.7590   34.9080   44.8820 C   0  0  0  0  0  0  0  0  0  0  0  0
   59.3110   34.9600   46.1600 C   0  0  0  0  0  0  0  0  0  0  0  0
   59.1190   33.9120   47.0560 C   0  0  0  0  0  0  0  0  0  0  0  0
   58.3650   32.8160   46.6500 C   0  0  0  0  0  0  0  0  0  0  0  0
   58.1440   31.7530   47.5000 O   0  0  0  0  0  0  0  0  0  0  0  0
   58.0640   29.8920   43.8250 N   0  0  0  0  0  0  0  0  0  0  0  0
   58.5370   28.6880   44.1030 N   0  0  0  0  0  0  0  0  0  0  0  0
   60.5250   31.6490   48.7520 N   0  0  0  0  0  0  0  0  0  0  0  0
   60.9325   33.1866   51.2701 H   0  0  0  0  0  0  0  0  0  0  0  0
   61.2324   34.5775   50.1736 H   0  0  0  0  0  0  0  0  0  0  0  0
   59.6315   33.7628   50.1736 H   0  0  0  0  0  0  0  0  0  0  0  0
   63.1901   33.6690   48.8886 H   0  0  0  0  0  0  0  0  0  0  0  0
   60.7301   27.0973   47.6772 H   0  0  0  0  0  0  0  0  0  0  0  0
   59.1499   27.0282   48.6001 H   0  0  0  0  0  0  0  0  0  0  0  0
   57.5932   33.7730   43.5258 H   0  0  0  0  0  0  0  0  0  0  0  0
   58.9093   35.7328   44.1699 H   0  0  0  0  0  0  0  0  0  0  0  0
   59.9032   35.8359   46.4635 H   0  0  0  0  0  0  0  0  0  0  0  0
   59.5550   33.9499   48.0652 H   0  0  0  0  0  0  0  0  0  0  0  0
   58.6140   30.8530   47.4100 H   0  0  0  0  0  0  0  0  0  0  0  0
   58.1040   30.2930   42.8620 H   0  0  0  0  0  0  0  0  0  0  0  0
   58.9910   28.0150   43.4220 H   0  0  0  0  0  0  0  0  0  0  0  0
   59.5310   31.4300   49.1470 H   0  0  0  0  0  0  0  0  0  0  0  0
  1  2  1  0
  2  3  2  0
  3  4  1  0
  4  5  1  0
  5  6  2  0
  6  7  1  0
  7  8  2  0
  7  9  1  0
  9 10  1  0
 10 11  1  0
 11 12  2  0
 12 13  1  0
 13 14  2  0
 14 15  1  0
 15 16  2  0
 16 17  1  0
 17 18  2  0
 18 19  1  0
 19 20  2  0
 20 21  1  0
 13 22  1  0
 22 23  1  0
  5 24  1  0
 24  2  1  0
 23 11  1  0
 20 15  1  0
  1 25  1  0
  1 26  1  0
  1 27  1  0
  3 28  1  0
  9 29  1  0
  9 30  1  0
 16 31  1  0
 17 32  1  0
 18 33  1  0
 19 34  1  0
 21 35  1  0
 22 36  1  0
 23 37  1  0
 24 38  1  0
M  END
>  <smiles>  (75) 
Cc1csc(=NC(=O)CSc2nc(=Nc3ccccc3O)[nH][nH]2)[nH]1

>  <score_type>  (75) 
oracle

>  <origin>  (75) 
adg

>  <m_score__min__energy>  (75) 
-9.3000000000000007

>  <m_primary>  (75) 
energy

$$$$
75:0
     RDKit          3D

 34 36  0  0  0  0  0  0  0  0999 V2000
   57.7855   32.9977   43.1377 H   0  0  0  0  0  0  0  0  0  0  0  0
   57.5600   32.1170   43.7570 C   0  0  0  0  0  0  0  0  0  0  0  0
   56.6330   30.7930   43.2880 S   0  0  0  0  0  0  0  0  0  0  0  0
   56.8310   30.0070   44.7530 C   0  0  0  0  0  0  0  0  0  0  0  0
   56.2820   28.8630   45.0370 N   0  0  0  0  0  0  0  0  0  0  0  0
   56.9460   27.7060   45.5750 C   0  0  0  0  0  0  0  0  0  0  0  0
   58.3500   27.5850   45.5760 C   0  0  0  0  0  0  0  0  0  0  0  0
   58.9704   28.4004   45.1757 H   0  0  0  0  0  0  0  0  0  0  0  0
   58.9580   26.4320   46.0840 C   0  0  0  0  0  0  0  0  0  0  0  0
   60.0549   26.3501   46.0974 H   0  0  0  0  0  0  0  0  0  0  0  0
   58.1750   25.3850   46.5740 C   0  0  0  0  0  0  0  0  0  0  0  0
   58.6554   24.4825   46.9799 H   0  0  0  0  0  0  0  0  0  0  0  0
   56.7820   25.4830   46.5490 C   0  0  0  0  0  0  0  0  0  0  0  0
   56.1668   24.6533   46.9272 H   0  0  0  0  0  0  0  0  0  0  0  0
   56.1670   26.6340   46.0440 C   0  0  0  0  0  0  0  0  0  0  0  0
   54.7800   26.7140   46.0170 O   0  0  0  0  0  0  0  0  0  0  0  0
   57.5780   30.7280   45.6150 N   0  0  0  0  0  0  0  0  0  0  0  0
   57.9950   31.9050   45.0710 C   0  0  0  0  0  0  0  0  0  0  0  0
   58.8470   32.8500   45.8400 C   0  0  0  0  0  0  0  0  0  0  0  0
   58.4500   34.1820   46.0710 C   0  0  0  0  0  0  0  0  0  0  0  0
   57.4867   34.5402   45.6788 H   0  0  0  0  0  0  0  0  0  0  0  0
   59.2700   35.0510   46.7940 C   0  0  0  0  0  0  0  0  0  0  0  0
   58.9509   36.0896   46.9655 H   0  0  0  0  0  0  0  0  0  0  0  0
   60.4930   34.6070   47.3000 C   0  0  0  0  0  0  0  0  0  0  0  0
   61.1378   35.2979   47.8630 H   0  0  0  0  0  0  0  0  0  0  0  0
   60.9000   33.2840   47.0920 C   0  0  0  0  0  0  0  0  0  0  0  0
   62.4480   32.7260   47.7180 S   0  0  0  0  0  0  0  0  0  0  0  0
   62.5000   31.2240   47.6770 O   0  0  0  0  0  0  0  0  0  0  0  0
   62.6140   33.1750   49.1430 O   0  0  0  0  0  0  0  0  0  0  0  0
   63.7260   33.3740   46.7510 N   0  0  0  0  0  0  0  0  0  0  0  0
   64.5220   32.7000   46.8070 H   0  0  0  0  0  0  0  0  0  0  0  0
   63.3940   33.3670   45.7610 H   0  0  0  0  0  0  0  0  0  0  0  0
   60.0800   32.4120   46.3600 C   0  0  0  0  0  0  0  0  0  0  0  0
   60.4040   31.3746   46.1905 H   0  0  0  0  0  0  0  0  0  0  0  0
  1  2  1  0
  2  3  1  0
  3  4  1  0
  4  5  2  0
  5  6  1  0
  6  7  2  0
  7  8  1  0
  7  9  1  0
  9 10  1  0
  9 11  2  0
 11 12  1  0
 11 13  1  0
 13 14  1  0
 13 15  2  0
 15 16  1  0
  4 17  1  0
 17 18  1  0
 18 19  1  0
 19 20  2  0
 20 21  1  0
 20 22  1  0
 22 23  1  0
 22 24  2  0
 24 25  1  0
 24 26  1  0
 26 27  1  0
 27 28  2  0
 27 29  2  0
 27 30  1  0
 30 31  1  0
 30 32  1  0
 26 33  2  0
 33 34  1  0
 18  2  2  0
 33 19  1  0
 15  6  1  0
M  CHG  2  16  -1  17  -1
M  END
>  <UniqueID>  (76) 
70

>  <SMILES>  (76) 
NS(=O)(=O)c1cccc(-c2cs/c(=N/c3ccccc3[O-])[n-]2)c1

>  <Energy>  (76) 
73.35466199226327

>  <Genealogy>  (76) 
NS(=O)(=O)c1cccc(-c2csc(=Nc3ccccc3[O-])[n-]2)c1 (protonated)
NS(=O)(=O)c1cccc(-c2cs/c(=N/c3ccccc3[O-])[n-]2)c1 (cis-trans isomerization)
NS(=O)(=O)c1cccc(-c2cs/c(=N/c3ccccc3[O-])[n-]2)c1 (3D coordinates assigned)
NS(=O)(=O)c1cccc(-c2cs/c(=N/c3ccccc3[O-])[n-]2)c1 (optimized conformer: 73.35466199226327 kcal/mol)

>  <smiles>  (76) 
NS(=O)(=O)c1cccc(-c2csc(=Nc3ccccc3O)[nH]2)c1

>  <score_type>  (76) 
oracle

>  <origin>  (76) 
adg

>  <m_score__min__energy>  (76) 
-14.880000000000001

>  <m_primary>  (76) 
energy

$$$$
76:0
     RDKit          3D

 49 52  0  0  0  0  0  0  0  0999 V2000
   57.0060   33.9130   45.3730 C   0  0  0  0  0  0  0  0  0  0  0  0
   58.0580   32.8970   45.4930 N   0  0  0  0  0  0  0  0  0  0  0  0
   59.3490   33.2910   46.0770 C   0  0  0  0  0  0  0  0  0  0  0  0
   59.3500   33.1460   47.5770 C   0  0  0  0  0  0  0  0  0  0  0  0
   59.7170   34.1900   48.4210 C   0  0  0  0  0  0  0  0  0  0  0  0
   59.5380   33.6750   50.0110 S   0  0  0  0  0  0  0  0  0  0  0  0
   58.9830   32.1310   49.6460 C   0  0  0  0  0  0  0  0  0  0  0  0
   58.6220   31.1110   50.6390 C   0  0  0  0  0  0  0  0  0  0  0  0
   59.4860   30.3390   51.3910 C   0  0  0  0  0  0  0  0  0  0  0  0
   58.7460   29.5310   52.1710 N   0  0  0  0  0  0  0  0  0  0  0  0
   57.4680   29.8490   51.8670 C   0  0  0  0  0  0  0  0  0  0  0  0
   56.4150   29.2850   52.3860 N   0  0  0  0  0  0  0  0  0  0  0  0
   55.1380   29.9030   52.6010 C   0  0  0  0  0  0  0  0  0  0  0  0
   54.4310   29.6130   53.7740 C   0  0  0  0  0  0  0  0  0  0  0  0
   53.1640   30.1650   53.9910 C   0  0  0  0  0  0  0  0  0  0  0  0
   52.5790   30.9910   53.0230 C   0  0  0  0  0  0  0  0  0  0  0  0
   50.9900   31.6910   53.3100 S   0  0  0  0  0  0  0  0  0  0  0  0
   50.5710   32.7190   51.9850 N   0  0  0  0  0  0  0  0  0  0  0  0
   51.0130   32.4880   54.5820 O   0  0  0  0  0  0  0  0  0  0  0  0
   49.9620   30.6010   53.4390 O   0  0  0  0  0  0  0  0  0  0  0  0
   53.2710   31.2600   51.8330 C   0  0  0  0  0  0  0  0  0  0  0  0
   54.5380   30.7080   51.6160 C   0  0  0  0  0  0  0  0  0  0  0  0
   57.3890   30.7840   50.9510 O   0  0  0  0  0  0  0  0  0  0  0  0
   58.9280   31.9940   48.2650 C   0  0  0  0  0  0  0  0  0  0  0  0
   57.8310   31.5520   45.0010 C   0  0  0  0  0  0  0  0  0  0  0  0
   58.7270   30.5100   45.3170 C   0  0  0  0  0  0  0  0  0  0  0  0
   58.5020   29.2110   44.8500 C   0  0  0  0  0  0  0  0  0  0  0  0
   57.3810   28.9320   44.0680 C   0  0  0  0  0  0  0  0  0  0  0  0
   56.4820   29.9490   43.7500 C   0  0  0  0  0  0  0  0  0  0  0  0
   56.7010   31.2520   44.2110 C   0  0  0  0  0  0  0  0  0  0  0  0
   56.6821   34.2258   46.3766 H   0  0  0  0  0  0  0  0  0  0  0  0
   57.3976   34.7835   44.8262 H   0  0  0  0  0  0  0  0  0  0  0  0
   56.1497   33.4914   44.8262 H   0  0  0  0  0  0  0  0  0  0  0  0
   60.1400   32.6526   45.6567 H   0  0  0  0  0  0  0  0  0  0  0  0
   59.5261   34.3493   45.8348 H   0  0  0  0  0  0  0  0  0  0  0  0
   60.0651   35.1834   48.1018 H   0  0  0  0  0  0  0  0  0  0  0  0
   60.5848   30.3781   51.3578 H   0  0  0  0  0  0  0  0  0  0  0  0
   59.1060   28.7980   52.8200 H   0  0  0  0  0  0  0  0  0  0  0  0
   54.8742   28.9474   54.5293 H   0  0  0  0  0  0  0  0  0  0  0  0
   52.6252   29.9495   54.9255 H   0  0  0  0  0  0  0  0  0  0  0  0
   51.4650   33.0920   51.5920 H   0  0  0  0  0  0  0  0  0  0  0  0
   52.8162   31.9068   51.0683 H   0  0  0  0  0  0  0  0  0  0  0  0
   55.0669   30.9042   50.6717 H   0  0  0  0  0  0  0  0  0  0  0  0
   58.5888   31.0774   47.7603 H   0  0  0  0  0  0  0  0  0  0  0  0
   59.6111   30.7208   45.9366 H   0  0  0  0  0  0  0  0  0  0  0  0
   59.2106   28.4076   45.0999 H   0  0  0  0  0  0  0  0  0  0  0  0
   57.2064   27.9094   43.7022 H   0  0  0  0  0  0  0  0  0  0  0  0
   55.5977   29.7265   43.1348 H   0  0  0  0  0  0  0  0  0  0  0  0
   55.9867   32.0485   43.9555 H   0  0  0  0  0  0  0  0  0  0  0  0
  1  2  1  0
  2  3  1  0
  3  4  1  0
  4  5  2  0
  5  6  1  0
  6  7  1  0
  7  8  1  0
  8  9  2  0
  9 10  1  0
 10 11  1  0
 11 12  2  3
 12 13  1  0
 13 14  2  0
 14 15  1  0
 15 16  2  0
 16 17  1  0
 17 18  1  0
 17 19  2  0
 17 20  2  0
 16 21  1  0
 21 22  2  0
 11 23  1  0
  7 24  2  0
  2 25  1  0
 25 26  2  0
 26 27  1  0
 27 28  2  0
 28 29  1  0
 29 30  2  0
 24  4  1  0
 30 25  1  0
 23  8  1  0
 22 13  1  0
  1 31  1  0
  1 32  1  0
  1 33  1  0
  3 34  1  0
  3 35  1  0
  5 36  1  0
  9 37  1  0
 10 38  1  0
 14 39  1  0
 15 40  1  0
 18 41  1  0
 21 42  1  0
 22 43  1  0
 24 44  1  0
 26 45  1  0
 27 46  1  0
 28 47  1  0
 29 48  1  0
 30 49  1  0
M  CHG  1  18  -1
M  END
>  <UniqueID>  (77) 
71

>  <SMILES>  (77) 
CN(Cc1csc(-c2c[nH]c(=Nc3ccc(S([NH-])(=O)=O)cc3)o2)c1)c1ccccc1

>  <Energy>  (77) 
118.92792755257864

>  <Genealogy>  (77) 
CN(Cc1csc(-c2c[nH]c(=Nc3ccc(S([NH-])(=O)=O)cc3)o2)c1)c1ccccc1 (protonated)
CN(Cc1csc(-c2c[nH]c(=Nc3ccc(S([NH-])(=O)=O)cc3)o2)c1)c1ccccc1 (3D coordinates assigned)
CN(Cc1csc(-c2c[nH]c(=Nc3ccc(S([NH-])(=O)=O)cc3)o2)c1)c1ccccc1 (optimized conformer: 118.92792755257864 kcal/mol)

>  <smiles>  (77) 
CN(Cc1csc(-c2c[nH]c(=Nc3ccc(S(N)(=O)=O)cc3)o2)c1)c1ccccc1

>  <score_type>  (77) 
oracle

>  <origin>  (77) 
adg

>  <m_score__min__energy>  (77) 
-11.550000000000001

>  <m_primary>  (77) 
energy

$$$$
77:0
     RDKit          3D

 40 42  0  0  0  0  0  0  0  0999 V2000
   63.6490   25.3630   53.0540 C   0  0  0  0  0  0  0  0  0  0  0  0
   63.0030   26.5030   52.4950 O   0  0  0  0  0  0  0  0  0  0  0  0
   61.6740   26.8680   52.7530 C   0  0  0  0  0  0  0  0  0  0  0  0
   60.7250   25.9560   53.2560 C   0  0  0  0  0  0  0  0  0  0  0  0
   59.4110   26.3690   53.4970 C   0  0  0  0  0  0  0  0  0  0  0  0
   59.0220   27.6950   53.2440 C   0  0  0  0  0  0  0  0  0  0  0  0
   57.6700   28.1170   53.4940 N   0  0  0  0  0  0  0  0  0  0  0  0
   56.8790   27.7470   54.5240 C   0  0  0  0  0  0  0  0  0  0  0  0
   57.2620   26.8550   55.5200 O   0  0  0  0  0  0  0  0  0  0  0  0
   55.6400   28.3480   54.4480 C   0  0  0  0  0  0  0  0  0  0  0  0
   55.6710   29.1290   53.3000 C   0  0  0  0  0  0  0  0  0  0  0  0
   54.6050   29.9830   52.8310 N   0  0  0  0  0  0  0  0  0  0  0  0
   54.8910   31.2490   52.1500 C   0  0  0  0  0  0  0  0  0  0  0  0
   53.2390   29.6090   53.0650 C   0  0  0  0  0  0  0  0  0  0  0  0
   52.9610   28.4180   53.3700 O   0  0  0  0  0  0  0  0  0  0  0  0
   52.1550   30.6430   53.0580 C   0  0  0  0  0  0  0  0  0  0  0  0
   51.7760   30.9590   51.6440 C   0  0  0  0  0  0  0  0  0  0  0  0
   51.9730   30.1270   50.6060 N   0  0  0  0  0  0  0  0  0  0  0  0
   51.4010   30.7820   49.5720 C   0  0  0  0  0  0  0  0  0  0  0  0
   51.3860   30.3190   48.4020 O   0  0  0  0  0  0  0  0  0  0  0  0
   50.8410   31.9700   49.8900 N   0  0  0  0  0  0  0  0  0  0  0  0
   51.0810   32.0630   51.2080 C   0  0  0  0  0  0  0  0  0  0  0  0
   50.6640   33.1270   51.9970 O   0  0  0  0  0  0  0  0  0  0  0  0
   56.9340   28.9680   52.7470 C   0  0  0  0  0  0  0  0  0  0  0  0
   57.4110   29.6030   51.6060 O   0  0  0  0  0  0  0  0  0  0  0  0
   59.9710   28.6010   52.7440 C   0  0  0  0  0  0  0  0  0  0  0  0
   61.2840   28.1870   52.5010 C   0  0  0  0  0  0  0  0  0  0  0  0
   63.6146   25.4236   54.1518 H   0  0  0  0  0  0  0  0  0  0  0  0
   63.1342   24.4498   52.7209 H   0  0  0  0  0  0  0  0  0  0  0  0
   64.6970   25.3353   52.7209 H   0  0  0  0  0  0  0  0  0  0  0  0
   61.0188   24.9157   53.4598 H   0  0  0  0  0  0  0  0  0  0  0  0
   58.6760   25.6499   53.8878 H   0  0  0  0  0  0  0  0  0  0  0  0
   54.8015   28.2327   55.1506 H   0  0  0  0  0  0  0  0  0  0  0  0
   55.0687   32.0357   52.8980 H   0  0  0  0  0  0  0  0  0  0  0  0
   55.7855   31.1328   51.5205 H   0  0  0  0  0  0  0  0  0  0  0  0
   54.0334   31.5286   51.5205 H   0  0  0  0  0  0  0  0  0  0  0  0
   51.2764   30.2569   53.5956 H   0  0  0  0  0  0  0  0  0  0  0  0
   52.5160   31.5562   53.5538 H   0  0  0  0  0  0  0  0  0  0  0  0
   59.6797   29.6424   52.5424 H   0  0  0  0  0  0  0  0  0  0  0  0
   62.0177   28.9060   52.1076 H   0  0  0  0  0  0  0  0  0  0  0  0
  1  2  1  0
  2  3  1  0
  3  4  2  0
  4  5  1  0
  5  6  2  0
  6  7  1  0
  7  8  1  0
  8  9  1  0
  8 10  2  0
 10 11  1  0
 11 12  1  0
 12 13  1  0
 12 14  1  0
 14 15  2  0
 14 16  1  0
 16 17  1  0
 17 18  1  0
 18 19  1  0
 19 20  2  0
 19 21  1  0
 21 22  1  0
 22 23  1  0
 11 24  2  0
 24 25  1  0
  6 26  1  0
 26 27  2  0
 27  3  1  0
 24  7  1  0
 22 17  2  0
  1 28  1  0
  1 29  1  0
  1 30  1  0
  4 31  1  0
  5 32  1  0
 10 33  1  0
 13 34  1  0
 13 35  1  0
 13 36  1  0
 16 37  1  0
 16 38  1  0
 26 39  1  0
 27 40  1  0
M  CHG  5   9  -1  18  -1  21  -1  23  -1  25  -1
M  END
>  <UniqueID>  (78) 
72

>  <SMILES>  (78) 
COc1ccc(-n2c([O-])cc(N(C)C(=O)Cc3[n-]c(=O)[n-]c3[O-])c2[O-])cc1

>  <Energy>  (78) 
109.19386708976293

>  <Genealogy>  (78) 
COc1ccc(-n2c([O-])cc(N(C)C(=O)Cc3[n-]c(=O)[n-]c3[O-])c2[O-])cc1 (protonated)
COc1ccc(-n2c([O-])cc(N(C)C(=O)Cc3[n-]c(=O)[n-]c3[O-])c2[O-])cc1 (3D coordinates assigned)
COc1ccc(-n2c([O-])cc(N(C)C(=O)Cc3[n-]c(=O)[n-]c3[O-])c2[O-])cc1 (optimized conformer: 109.19386708976293 kcal/mol)

>  <smiles>  (78) 
COc1ccc(-n2c(O)cc(N(C)C(=O)Cc3[nH]c(=O)[nH]c3O)c2O)cc1

>  <score_type>  (78) 
oracle

>  <origin>  (78) 
adg

>  <m_score__min__energy>  (78) 
-17.870000000000001

>  <m_primary>  (78) 
energy

$$$$
78:0
     RDKit          3D

 42 44  0  0  0  0  0  0  0  0999 V2000
   54.9360   29.2760   44.0990 O   0  0  0  0  0  0  0  0  0  0  0  0
   55.9370   29.7040   44.7360 C   0  0  0  0  0  0  0  0  0  0  0  0
   56.5580   28.9140   45.7600 N   0  0  0  0  0  0  0  0  0  0  0  0
   57.0900   27.7320   45.6230 C   0  0  0  0  0  0  0  0  0  0  0  0
   58.4200   27.5790   45.3660 N   0  0  0  0  0  0  0  0  0  0  0  0
   58.9950   26.3540   45.2340 C   0  0  0  0  0  0  0  0  0  0  0  0
   58.2210   25.2020   45.3670 C   0  0  0  0  0  0  0  0  0  0  0  0
   56.8550   25.3240   45.6250 C   0  0  0  0  0  0  0  0  0  0  0  0
   56.2800   26.5920   45.7500 C   0  0  0  0  0  0  0  0  0  0  0  0
   54.9180   26.7120   46.0060 O   0  0  0  0  0  0  0  0  0  0  0  0
   56.4880   30.9840   44.4210 N   0  0  0  0  0  0  0  0  0  0  0  0
   58.1690   31.3430   44.6320 S   0  0  0  0  0  0  0  0  0  0  0  0
   58.9920   30.2120   44.0840 O   0  0  0  0  0  0  0  0  0  0  0  0
   58.5090   32.6020   43.8850 O   0  0  0  0  0  0  0  0  0  0  0  0
   58.4890   31.5850   46.3450 C   0  0  0  0  0  0  0  0  0  0  0  0
   58.1790   32.8010   46.9700 C   0  0  0  0  0  0  0  0  0  0  0  0
   58.5270   33.0120   48.3070 C   0  0  0  0  0  0  0  0  0  0  0  0
   59.1940   32.0120   49.0320 C   0  0  0  0  0  0  0  0  0  0  0  0
   59.6700   32.2840   50.4330 C   0  0  0  0  0  0  0  0  0  0  0  0
   60.5980   33.8570   50.5190 S   0  0  0  0  0  0  0  0  0  0  0  0
   61.7150   33.4660   49.1660 C   0  0  0  0  0  0  0  0  0  0  0  0
   62.7190   32.5070   49.3390 C   0  0  0  0  0  0  0  0  0  0  0  0
   63.5750   32.1910   48.2800 C   0  0  0  0  0  0  0  0  0  0  0  0
   63.4330   32.8350   47.0480 C   0  0  0  0  0  0  0  0  0  0  0  0
   62.4370   33.8000   46.8760 C   0  0  0  0  0  0  0  0  0  0  0  0
   61.5840   34.1220   47.9350 C   0  0  0  0  0  0  0  0  0  0  0  0
   59.4820   30.7860   48.4090 C   0  0  0  0  0  0  0  0  0  0  0  0
   59.1320   30.5770   47.0730 C   0  0  0  0  0  0  0  0  0  0  0  0
   60.0713   26.2718   45.0222 H   0  0  0  0  0  0  0  0  0  0  0  0
   58.6820   24.2080   45.2696 H   0  0  0  0  0  0  0  0  0  0  0  0
   56.2317   24.4237   45.7298 H   0  0  0  0  0  0  0  0  0  0  0  0
   57.6606   33.5909   46.4067 H   0  0  0  0  0  0  0  0  0  0  0  0
   58.2770   33.9663   48.7936 H   0  0  0  0  0  0  0  0  0  0  0  0
   58.7996   32.3433   51.1030 H   0  0  0  0  0  0  0  0  0  0  0  0
   60.3390   31.4664   50.7397 H   0  0  0  0  0  0  0  0  0  0  0  0
   62.8348   32.0014   50.3090 H   0  0  0  0  0  0  0  0  0  0  0  0
   64.3616   31.4343   48.4167 H   0  0  0  0  0  0  0  0  0  0  0  0
   64.1047   32.5825   46.2143 H   0  0  0  0  0  0  0  0  0  0  0  0
   62.3243   34.3066   45.9061 H   0  0  0  0  0  0  0  0  0  0  0  0
   60.8090   34.8912   47.8020 H   0  0  0  0  0  0  0  0  0  0  0  0
   59.9848   29.9881   48.9752 H   0  0  0  0  0  0  0  0  0  0  0  0
   59.3628   29.6157   46.5907 H   0  0  0  0  0  0  0  0  0  0  0  0
  1  2  2  0
  2  3  1  0
  3  4  2  3
  4  5  1  0
  5  6  1  0
  6  7  2  0
  7  8  1  0
  8  9  2  0
  9 10  1  0
  2 11  1  0
 11 12  1  0
 12 13  2  0
 12 14  2  0
 12 15  1  0
 15 16  2  0
 16 17  1  0
 17 18  2  0
 18 19  1  0
 19 20  1  0
 20 21  1  0
 21 22  2  0
 22 23  1  0
 23 24  2  0
 24 25  1  0
 25 26  2  0
 18 27  1  0
 27 28  2  0
  9  4  1  0
 28 15  1  0
 26 21  1  0
  6 29  1  0
  7 30  1  0
  8 31  1  0
 16 32  1  0
 17 33  1  0
 19 34  1  0
 19 35  1  0
 22 36  1  0
 23 37  1  0
 24 38  1  0
 25 39  1  0
 26 40  1  0
 27 41  1  0
 28 42  1  0
M  CHG  3   5  -1  10  -1  11  -1
M  END
>  <UniqueID>  (79) 
73

>  <SMILES>  (79) 
O=C(N=c1[n-]cccc1[O-])[N-]S(=O)(=O)c1ccc(CSc2ccccc2)cc1

>  <Energy>  (79) 
43.2629911642774

>  <Genealogy>  (79) 
O=C(N=c1[n-]cccc1[O-])[N-]S(=O)(=O)c1ccc(CSc2ccccc2)cc1 (protonated)
O=C(N=c1[n-]cccc1[O-])[N-]S(=O)(=O)c1ccc(CSc2ccccc2)cc1 (3D coordinates assigned)
O=C(N=c1[n-]cccc1[O-])[N-]S(=O)(=O)c1ccc(CSc2ccccc2)cc1 (optimized conformer: 43.2629911642774 kcal/mol)

>  <smiles>  (79) 
O=C(N=c1[nH]cccc1O)NS(=O)(=O)c1ccc(CSc2ccccc2)cc1

>  <score_type>  (79) 
oracle

>  <origin>  (79) 
adg

>  <m_score__min__energy>  (79) 
-15.51

>  <m_primary>  (79) 
energy

$$$$
79:0
     RDKit          3D

 47 50  0  0  0  0  0  0  0  0999 V2000
   54.7730   26.9680   46.5830 H   0  0  0  0  0  0  0  0  0  0  0  0
   55.5860   26.8310   45.9410 N   0  0  0  0  0  0  0  0  0  0  0  0
   56.2540   27.8330   45.4730 C   0  0  0  0  0  0  0  0  0  0  0  0
   57.6100   27.7740   45.4170 N   0  0  0  0  0  0  0  0  0  0  0  0
   58.3390   28.8150   44.9340 C   0  0  0  0  0  0  0  0  0  0  0  0
   60.1240   28.6910   44.8790 S   0  0  0  0  0  0  0  0  0  0  0  0
   60.2860   28.7850   46.6700 C   0  0  0  0  0  0  0  0  0  0  0  0
   60.0380   29.9850   47.2560 N   0  0  0  0  0  0  0  0  0  0  0  0
   60.1470   30.1670   48.5940 C   0  0  0  0  0  0  0  0  0  0  0  0
   59.8390   31.4490   49.1690 N   0  0  0  0  0  0  0  0  0  0  0  0
   60.6680   31.7980   49.7050 H   0  0  0  0  0  0  0  0  0  0  0  0
   59.0460   31.3630   49.8490 H   0  0  0  0  0  0  0  0  0  0  0  0
   59.5030   32.3760   48.1190 C   0  0  0  0  0  0  0  0  0  0  0  0
   60.4880   33.2160   47.5680 C   0  0  0  0  0  0  0  0  0  0  0  0
   61.5151   33.1857   47.9606 H   0  0  0  0  0  0  0  0  0  0  0  0
   60.1680   34.0890   46.5240 C   0  0  0  0  0  0  0  0  0  0  0  0
   60.9417   34.7470   46.1016 H   0  0  0  0  0  0  0  0  0  0  0  0
   58.8660   34.1270   46.0160 C   0  0  0  0  0  0  0  0  0  0  0  0
   58.6150   34.8166   45.1966 H   0  0  0  0  0  0  0  0  0  0  0  0
   57.8830   33.2880   46.5500 C   0  0  0  0  0  0  0  0  0  0  0  0
   56.8593   33.3172   46.1485 H   0  0  0  0  0  0  0  0  0  0  0  0
   58.1980   32.4130   47.5920 C   0  0  0  0  0  0  0  0  0  0  0  0
   57.4228   31.7496   48.0029 H   0  0  0  0  0  0  0  0  0  0  0  0
   60.5070   29.0880   49.3980 C   0  0  0  0  0  0  0  0  0  0  0  0
   60.5990   29.2101   50.4873 H   0  0  0  0  0  0  0  0  0  0  0  0
   60.7490   27.8510   48.8020 C   0  0  0  0  0  0  0  0  0  0  0  0
   61.0680   26.8780   49.5400 O   0  0  0  0  0  0  0  0  0  0  0  0
   60.6350   27.6980   47.4400 N   0  0  0  0  0  0  0  0  0  0  0  0
   60.8230   26.3660   46.8250 C   0  0  0  0  0  0  0  0  0  0  0  0
   61.2499   26.4906   45.8189 H   0  0  0  0  0  0  0  0  0  0  0  0
   61.5023   25.7779   47.4596 H   0  0  0  0  0  0  0  0  0  0  0  0
   59.5080   25.6340   46.7170 C   0  0  0  0  0  0  0  0  0  0  0  0
   59.2740   24.7440   45.6530 C   0  0  0  0  0  0  0  0  0  0  0  0
   60.0546   24.5777   44.8960 H   0  0  0  0  0  0  0  0  0  0  0  0
   58.0530   24.0700   45.5540 C   0  0  0  0  0  0  0  0  0  0  0  0
   57.8731   23.3802   44.7163 H   0  0  0  0  0  0  0  0  0  0  0  0
   57.0610   24.2710   46.5170 C   0  0  0  0  0  0  0  0  0  0  0  0
   56.1008   23.7405   46.4362 H   0  0  0  0  0  0  0  0  0  0  0  0
   57.2880   25.1450   47.5820 C   0  0  0  0  0  0  0  0  0  0  0  0
   56.5070   25.3014   48.3406 H   0  0  0  0  0  0  0  0  0  0  0  0
   58.5080   25.8220   47.6850 C   0  0  0  0  0  0  0  0  0  0  0  0
   58.6849   26.5052   48.5287 H   0  0  0  0  0  0  0  0  0  0  0  0
   57.6880   29.9610   44.4740 C   0  0  0  0  0  0  0  0  0  0  0  0
   58.2603   30.8100   44.0719 H   0  0  0  0  0  0  0  0  0  0  0  0
   56.2940   30.0050   44.5360 C   0  0  0  0  0  0  0  0  0  0  0  0
   55.6730   31.0220   44.1290 O   0  0  0  0  0  0  0  0  0  0  0  0
   55.6050   28.9460   45.0340 N   0  0  0  0  0  0  0  0  0  0  0  0
  1  2  1  0
  2  3  2  0
  3  4  1  0
  4  5  1  0
  5  6  1  0
  6  7  1  0
  7  8  2  0
  8  9  1  0
  9 10  1  0
 10 11  1  0
 10 12  1  0
 10 13  1  0
 13 14  2  0
 14 15  1  0
 14 16  1  0
 16 17  1  0
 16 18  2  0
 18 19  1  0
 18 20  1  0
 20 21  1  0
 20 22  2  0
 22 23  1  0
  9 24  2  0
 24 25  1  0
 24 26  1  0
 26 27  2  0
 26 28  1  0
 28 29  1  0
 29 30  1  0
 29 31  1  0
 29 32  1  0
 32 33  2  0
 33 34  1  0
 33 35  1  0
 35 36  1  0
 35 37  2  0
 37 38  1  0
 37 39  1  0
 39 40  1  0
 39 41  2  0
 41 42  1  0
  5 43  2  0
 43 44  1  0
 43 45  1  0
 45 46  2  0
 45 47  1  0
 47  3  1  0
 28  7  1  0
 41 32  1  0
 22 13  1  0
M  CHG  3   4  -1  10   1  47  -1
M  END
>  <UniqueID>  (80) 
74

>  <SMILES>  (80) 
[H]/N=c1/[n-]c(Sc2nc([NH2+]c3ccccc3)cc(=O)n2Cc2ccccc2)cc(=O)[n-]1

>  <Energy>  (80) 
54.32041428247926

>  <Genealogy>  (80) 
N=c1[n-]c(Sc2nc([NH2+]c3ccccc3)cc(=O)n2Cc2ccccc2)cc(=O)[n-]1 (protonated)
[H]/N=c1/[n-]c(Sc2nc([NH2+]c3ccccc3)cc(=O)n2Cc2ccccc2)cc(=O)[n-]1 (cis-trans isomerization)
[H]/N=c1/[n-]c(Sc2nc([NH2+]c3ccccc3)cc(=O)n2Cc2ccccc2)cc(=O)[n-]1 (3D coordinates assigned)
[H]/N=c1/[n-]c(Sc2nc([NH2+]c3ccccc3)cc(=O)n2Cc2ccccc2)cc(=O)[n-]1 (optimized conformer: 54.32041428247926 kcal/mol)

>  <smiles>  (80) 
N=c1[nH]c(Sc2nc(Nc3ccccc3)cc(=O)n2Cc2ccccc2)cc(=O)[nH]1

>  <score_type>  (80) 
oracle

>  <origin>  (80) 
adg

>  <m_score__min__energy>  (80) 
-10.859999999999999

>  <m_primary>  (80) 
energy

$$$$
80:0
     RDKit          3D

 43 45  0  0  0  0  0  0  0  0999 V2000
   55.4460   26.6410   46.1600 O   0  0  0  0  0  0  0  0  0  0  0  0
   56.2530   27.4250   45.5910 C   0  0  0  0  0  0  0  0  0  0  0  0
   57.6220   26.9440   45.2270 C   0  0  0  0  0  0  0  0  0  0  0  0
   58.6380   27.8670   45.7570 N   0  0  0  0  0  0  0  0  0  0  0  0
   59.4000   28.5870   44.8760 C   0  0  0  0  0  0  0  0  0  0  0  0
   60.3560   29.4950   45.3340 C   0  0  0  0  0  0  0  0  0  0  0  0
   60.5260   29.6920   46.7080 C   0  0  0  0  0  0  0  0  0  0  0  0
   61.5280   30.6130   47.1720 N   0  0  0  0  0  0  0  0  0  0  0  0
   61.2280   31.8380   47.8640 C   0  0  0  0  0  0  0  0  0  0  0  0
   60.0880   32.3640   47.7350 O   0  0  0  0  0  0  0  0  0  0  0  0
   62.2550   32.5160   48.6880 C   0  0  0  0  0  0  0  0  0  0  0  0
   63.6010   32.1110   48.6570 C   0  0  0  0  0  0  0  0  0  0  0  0
   64.5490   32.7620   49.4490 C   0  0  0  0  0  0  0  0  0  0  0  0
   64.1470   33.8140   50.2730 C   0  0  0  0  0  0  0  0  0  0  0  0
   62.8430   34.1930   50.3040 N   0  0  0  0  0  0  0  0  0  0  0  0
   61.8990   33.5750   49.5440 C   0  0  0  0  0  0  0  0  0  0  0  0
   59.7460   28.9450   47.6000 C   0  0  0  0  0  0  0  0  0  0  0  0
   58.7960   28.0410   47.1090 C   0  0  0  0  0  0  0  0  0  0  0  0
   58.0930   27.3910   47.9290 O   0  0  0  0  0  0  0  0  0  0  0  0
   55.8530   28.7550   45.2460 N   0  0  0  0  0  0  0  0  0  0  0  0
   56.0990   29.3570   43.9400 C   0  0  0  0  0  0  0  0  0  0  0  0
   56.8510   30.6450   44.0940 C   0  0  0  0  0  0  0  0  0  0  0  0
   57.3510   31.3180   42.9690 C   0  0  0  0  0  0  0  0  0  0  0  0
   58.0670   32.5030   43.1430 C   0  0  0  0  0  0  0  0  0  0  0  0
   58.2830   33.0030   44.4290 C   0  0  0  0  0  0  0  0  0  0  0  0
   57.7760   32.3040   45.5260 C   0  0  0  0  0  0  0  0  0  0  0  0
   57.0800   31.1500   45.3380 N   0  0  0  0  0  0  0  0  0  0  0  0
   57.7816   25.9428   45.6538 H   0  0  0  0  0  0  0  0  0  0  0  0
   57.7099   26.9013   44.1313 H   0  0  0  0  0  0  0  0  0  0  0  0
   59.2569   28.4481   43.7942 H   0  0  0  0  0  0  0  0  0  0  0  0
   60.9740   30.0541   44.6161 H   0  0  0  0  0  0  0  0  0  0  0  0
   62.5200   30.4390   46.8920 H   0  0  0  0  0  0  0  0  0  0  0  0
   63.9083   31.2787   48.0068 H   0  0  0  0  0  0  0  0  0  0  0  0
   65.6031   32.4484   49.4236 H   0  0  0  0  0  0  0  0  0  0  0  0
   64.8864   34.3365   50.8977 H   0  0  0  0  0  0  0  0  0  0  0  0
   60.8511   33.9050   49.5988 H   0  0  0  0  0  0  0  0  0  0  0  0
   59.8796   29.0684   48.6849 H   0  0  0  0  0  0  0  0  0  0  0  0
   56.6910   28.6624   43.3259 H   0  0  0  0  0  0  0  0  0  0  0  0
   55.1342   29.5620   43.4531 H   0  0  0  0  0  0  0  0  0  0  0  0
   57.1802   30.9154   41.9597 H   0  0  0  0  0  0  0  0  0  0  0  0
   58.4606   33.0424   42.2688 H   0  0  0  0  0  0  0  0  0  0  0  0
   58.8460   33.9366   44.5758 H   0  0  0  0  0  0  0  0  0  0  0  0
   57.9395   32.6869   46.5442 H   0  0  0  0  0  0  0  0  0  0  0  0
  1  2  2  0
  2  3  1  0
  3  4  1  0
  4  5  1  0
  5  6  2  0
  6  7  1  0
  7  8  1  0
  8  9  1  0
  9 10  2  0
  9 11  1  0
 11 12  2  0
 12 13  1  0
 13 14  2  0
 14 15  1  0
 15 16  2  0
  7 17  2  0
 17 18  1  0
 18 19  2  0
  2 20  1  0
 20 21  1  0
 21 22  1  0
 22 23  2  0
 23 24  1  0
 24 25  2  0
 25 26  1  0
 26 27  2  0
 18  4  1  0
 27 22  1  0
 16 11  1  0
  3 28  1  0
  3 29  1  0
  5 30  1  0
  6 31  1  0
  8 32  1  0
 12 33  1  0
 13 34  1  0
 14 35  1  0
 16 36  1  0
 17 37  1  0
 21 38  1  0
 21 39  1  0
 23 40  1  0
 24 41  1  0
 25 42  1  0
 26 43  1  0
M  CHG  1  20  -1
M  END
>  <UniqueID>  (81) 
75

>  <SMILES>  (81) 
O=C(Cn1ccc(NC(=O)c2cccnc2)cc1=O)[N-]Cc1ccccn1

>  <Energy>  (81) 
51.02599368091959

>  <Genealogy>  (81) 
O=C(Cn1ccc(NC(=O)c2cccnc2)cc1=O)[N-]Cc1ccccn1 (protonated)
O=C(Cn1ccc(NC(=O)c2cccnc2)cc1=O)[N-]Cc1ccccn1 (3D coordinates assigned)
O=C(Cn1ccc(NC(=O)c2cccnc2)cc1=O)[N-]Cc1ccccn1 (optimized conformer: 51.02599368091959 kcal/mol)

>  <smiles>  (81) 
O=C(Cn1ccc(NC(=O)c2cccnc2)cc1=O)NCc1ccccn1

>  <score_type>  (81) 
oracle

>  <origin>  (81) 
adg

>  <m_score__min__energy>  (81) 
-10.15

>  <m_primary>  (81) 
energy

$$$$
81:0
     RDKit          3D

 44 46  0  0  1  0  0  0  0  0999 V2000
   55.4960   30.4030   43.8810 N   0  0  0  0  0  0  0  0  0  0  0  0
   56.2180   29.7140   44.4690 C   0  0  0  0  0  0  0  0  0  0  0  0
   57.1230   28.8720   45.2150 C   0  0  0  0  0  0  0  0  0  0  0  0
   57.8410   29.4000   46.2310 N   0  0  0  0  0  0  0  0  0  0  0  0
   58.7040   28.6570   46.9650 C   0  0  0  0  0  0  0  0  0  0  0  0
   59.3840   29.1530   47.9260 N   0  0  0  0  0  0  0  0  0  0  0  0
   60.7680   29.5660   47.7940 C   0  0  0  0  0  0  0  0  0  0  0  0
   60.7080   31.0330   47.4600 C   0  0  0  0  0  0  0  0  0  0  0  0
   61.7410   31.8920   47.7820 C   0  0  0  0  0  0  0  0  0  0  0  0
   61.6430   33.2370   47.4550 C   0  0  0  0  0  0  0  0  0  0  0  0
   60.5250   33.7520   46.8060 C   0  0  0  0  0  0  0  0  0  0  0  0
   59.4940   32.8950   46.4830 C   0  0  0  0  0  0  0  0  0  0  0  0
   58.0380   33.4140   45.6710 S   0  0  0  0  0  0  0  0  0  0  0  0
   57.5710   32.1590   44.5760 N   0  0  0  0  0  0  0  0  0  0  0  0
   56.9510   33.6990   46.6710 O   0  0  0  0  0  0  0  0  0  0  0  0
   58.3450   34.6430   44.8420 O   0  0  0  0  0  0  0  0  0  0  0  0
   59.6150   31.5730   46.8180 C   0  0  0  0  0  0  0  0  0  0  0  0
   58.8430   27.3210   46.6500 C   0  0  0  0  0  0  0  0  0  0  0  0
   59.5850   26.3410   47.1600 N   0  0  0  0  0  0  0  0  0  0  0  0
   59.3290   25.2160   46.4640 C   0  0  0  0  0  0  0  0  0  0  0  0
   58.4260   25.4390   45.5000 N   0  0  0  0  0  0  0  0  0  0  0  0
   57.8340   24.5700   44.5250 C   0  0  0  0  0  0  0  0  0  0  0  0
   56.3440   24.6330   44.4590 C   0  0  0  0  0  0  0  0  0  0  0  0
   55.7170   24.8080   45.8080 C   0  0  0  0  0  0  0  0  0  0  0  0
   55.0800   26.0170   45.9750 O   0  0  0  0  0  0  0  0  0  0  0  0
   58.1220   26.7620   45.6190 C   0  0  0  0  0  0  0  0  0  0  0  0
   57.2890   27.5660   44.9430 N   0  0  0  0  0  0  0  0  0  0  0  0
   61.3105   29.4064   48.7375 H   0  0  0  0  0  0  0  0  0  0  0  0
   61.2992   28.9886   47.0230 H   0  0  0  0  0  0  0  0  0  0  0  0
   62.6366   31.5117   48.2950 H   0  0  0  0  0  0  0  0  0  0  0  0
   62.4704   33.9135   47.7155 H   0  0  0  0  0  0  0  0  0  0  0  0
   60.4648   34.8214   46.5556 H   0  0  0  0  0  0  0  0  0  0  0  0
   56.5700   32.2720   44.3350 H   0  0  0  0  0  0  0  0  0  0  0  0
   57.7310   31.2230   44.9740 H   0  0  0  0  0  0  0  0  0  0  0  0
   58.7860   30.8984   46.5578 H   0  0  0  0  0  0  0  0  0  0  0  0
   59.8000   24.2418   46.6616 H   0  0  0  0  0  0  0  0  0  0  0  0
   58.2329   24.8413   43.5365 H   0  0  0  0  0  0  0  0  0  0  0  0
   58.0894   23.5435   44.8266 H   0  0  0  0  0  0  0  0  0  0  0  0
   56.0547   25.4823   43.8227 H   0  0  0  0  0  0  0  0  0  0  0  0
   55.9871   23.6781   44.0459 H   0  0  0  0  0  0  0  0  0  0  0  0
   54.9795   24.0050   45.9538 H   0  0  0  0  0  0  0  0  0  0  0  0
   56.5321   24.7722   46.5458 H   0  0  0  0  0  0  0  0  0  0  0  0
   55.1310   26.3660   46.8950 H   0  0  0  0  0  0  0  0  0  0  0  0
   56.7030   27.1980   44.1350 H   0  0  0  0  0  0  0  0  0  0  0  0
  1  2  3  0
  2  3  1  0
  3  4  2  0
  4  5  1  0
  5  6  2  0
  6  7  1  0
  7  8  1  0
  8  9  2  0
  9 10  1  0
 10 11  2  0
 11 12  1  0
 12 13  1  0
 13 14  1  0
 13 15  2  0
 13 16  2  0
 12 17  2  0
  5 18  1  0
 18 19  1  0
 19 20  2  0
 20 21  1  0
 21 22  1  0
 22 23  1  0
 23 24  1  0
 24 25  1  0
 21 26  1  0
 26 27  1  0
 27  3  1  0
 17  8  1  0
 26 18  2  0
  7 28  1  0
  7 29  1  0
  9 30  1  0
 10 31  1  0
 11 32  1  0
 14 33  1  0
 14 34  1  0
 17 35  1  0
 20 36  1  0
 22 37  1  0
 22 38  1  0
 23 39  1  0
 23 40  1  0
 24 41  1  0
 24 42  1  0
 25 43  1  0
 27 44  1  0
M  END
>  <smiles>  (82) 
N#Cc1nc(=NCc2cccc(S(N)(=O)=O)c2)c2ncn(CCCO)c2[nH]1

>  <score_type>  (82) 
oracle

>  <origin>  (82) 
adg

>  <m_score__min__energy>  (82) 
-8.9600000000000009

>  <m_primary>  (82) 
energy

$$$$
82:0
     RDKit          3D

 38 39  0  0  0  0  0  0  0  0999 V2000
   55.9150   26.8250   45.4330 H   0  0  0  0  0  0  0  0  0  0  0  0
   56.3880   27.7030   45.6040 O   0  0  0  0  0  0  0  0  0  0  0  0
   57.7490   27.7980   45.9000 C   0  0  0  0  0  0  0  0  0  0  0  0
   58.3960   29.0500   45.7990 C   0  0  0  0  0  0  0  0  0  0  0  0
   57.6930   30.2690   45.5130 N   0  0  0  0  0  0  0  0  0  0  0  0
   56.7850   30.6200   44.0750 S   0  0  0  0  0  0  0  0  0  0  0  0
   56.8780   29.4400   43.1490 O   0  0  0  0  0  0  0  0  0  0  0  0
   55.3410   30.8380   44.4290 O   0  0  0  0  0  0  0  0  0  0  0  0
   57.4320   32.0680   43.2360 C   0  0  0  0  0  0  0  0  0  0  0  0
   56.5874   32.6443   42.8305 H   0  0  0  0  0  0  0  0  0  0  0  0
   58.1070   31.7137   42.4430 H   0  0  0  0  0  0  0  0  0  0  0  0
   58.2490   32.9820   44.1580 C   0  0  0  0  0  0  0  0  0  0  0  0
   58.7735   33.7249   43.5392 H   0  0  0  0  0  0  0  0  0  0  0  0
   58.9490   32.3433   44.7166 H   0  0  0  0  0  0  0  0  0  0  0  0
   57.3900   33.7220   45.1830 C   0  0  0  0  0  0  0  0  0  0  0  0
   57.7109   33.4456   46.1982 H   0  0  0  0  0  0  0  0  0  0  0  0
   57.5067   34.8070   45.0442 H   0  0  0  0  0  0  0  0  0  0  0  0
   56.3343   33.4460   45.0442 H   0  0  0  0  0  0  0  0  0  0  0  0
   59.7870   29.1200   45.9380 C   0  0  0  0  0  0  0  0  0  0  0  0
   60.2979   30.0867   45.8180 H   0  0  0  0  0  0  0  0  0  0  0  0
   60.5320   27.9770   46.2270 C   0  0  0  0  0  0  0  0  0  0  0  0
   61.6253   28.0448   46.3280 H   0  0  0  0  0  0  0  0  0  0  0  0
   59.8930   26.7490   46.3880 C   0  0  0  0  0  0  0  0  0  0  0  0
   60.4844   25.8527   46.6265 H   0  0  0  0  0  0  0  0  0  0  0  0
   58.5010   26.6480   46.2480 C   0  0  0  0  0  0  0  0  0  0  0  0
   57.8590   25.3340   46.4730 C   0  0  0  0  0  0  0  0  0  0  0  0
   58.4920   24.2850   46.1800 O   0  0  0  0  0  0  0  0  0  0  0  0
   56.5220   25.2140   46.9850 N   0  0  0  0  0  0  0  0  0  0  0  0
   55.5930   24.4170   46.5380 C   0  0  0  0  0  0  0  0  0  0  0  0
   55.6810   23.0660   46.7110 N   0  0  0  0  0  0  0  0  0  0  0  0
   54.7340   22.2150   46.2350 C   0  0  0  0  0  0  0  0  0  0  0  0
   54.8412   21.1313   46.3899 H   0  0  0  0  0  0  0  0  0  0  0  0
   53.6260   22.7150   45.5500 C   0  0  0  0  0  0  0  0  0  0  0  0
   52.8507   22.0323   45.1720 H   0  0  0  0  0  0  0  0  0  0  0  0
   53.5130   24.0920   45.3500 C   0  0  0  0  0  0  0  0  0  0  0  0
   52.6469   24.5004   44.8087 H   0  0  0  0  0  0  0  0  0  0  0  0
   54.5010   24.9510   45.8380 C   0  0  0  0  0  0  0  0  0  0  0  0
   54.3900   26.3210   45.6320 O   0  0  0  0  0  0  0  0  0  0  0  0
  1  2  1  0
  2  3  1  0
  3  4  2  0
  4  5  1  0
  5  6  1  0
  6  7  2  0
  6  8  2  0
  6  9  1  0
  9 10  1  0
  9 11  1  0
  9 12  1  0
 12 13  1  0
 12 14  1  0
 12 15  1  0
 15 16  1  0
 15 17  1  0
 15 18  1  0
  4 19  1  0
 19 20  1  0
 19 21  2  0
 21 22  1  0
 21 23  1  0
 23 24  1  0
 23 25  2  0
 25 26  1  0
 26 27  2  0
 26 28  1  0
 28 29  2  0
 29 30  1  0
 30 31  1  0
 31 32  1  0
 31 33  2  0
 33 34  1  0
 33 35  1  0
 35 36  1  0
 35 37  2  0
 37 38  1  0
 25  3  1  0
 37 29  1  0
M  CHG  3   5  -1  30  -1  38  -1
M  END
>  <UniqueID>  (83) 
76

>  <SMILES>  (83) 
CCCS(=O)(=O)[N-]c1cccc(C(=O)/N=c2\[n-]cccc2[O-])c1O

>  <Energy>  (83) 
46.361126292238346

>  <Genealogy>  (83) 
CCCS(=O)(=O)[N-]c1cccc(C(=O)N=c2[n-]cccc2[O-])c1O (protonated)
CCCS(=O)(=O)[N-]c1cccc(C(=O)/N=c2\[n-]cccc2[O-])c1O (cis-trans isomerization)
CCCS(=O)(=O)[N-]c1cccc(C(=O)/N=c2\[n-]cccc2[O-])c1O (3D coordinates assigned)
CCCS(=O)(=O)[N-]c1cccc(C(=O)/N=c2\[n-]cccc2[O-])c1O (optimized conformer: 46.361126292238346 kcal/mol)

>  <smiles>  (83) 
CCCS(=O)(=O)Nc1cccc(C(=O)N=c2[nH]cccc2O)c1O

>  <score_type>  (83) 
oracle

>  <origin>  (83) 
adg

>  <m_score__min__energy>  (83) 
-14.52

>  <m_primary>  (83) 
energy

$$$$
83:0
     RDKit          3D

 36 37  0  0  1  0  0  0  0  0999 V2000
   58.2750   29.2630   46.3610 C   0  0  0  0  0  0  0  0  0  0  0  0
   57.3140   30.1170   45.8230 O   0  0  0  0  0  0  0  0  0  0  0  0
   57.3390   30.7300   44.5960 C   0  0  0  0  0  0  0  0  0  0  0  0
   56.6330   30.2380   43.5100 C   0  0  0  0  0  0  0  0  0  0  0  0
   56.6520   30.8470   42.2700 C   0  0  0  0  0  0  0  0  0  0  0  0
   57.4030   31.9920   42.1030 C   0  0  0  0  0  0  0  0  0  0  0  0
   58.1290   32.5210   43.1720 C   0  0  0  0  0  0  0  0  0  0  0  0
   58.0920   31.8910   44.4010 C   0  0  0  0  0  0  0  0  0  0  0  0
   58.8080   32.3760   45.5310 N   0  0  0  0  0  0  0  0  0  0  0  0
   59.2620   33.7290   45.5600 C   0  0  0  0  0  0  0  0  0  0  0  0
   59.0600   34.5400   44.6160 O   0  0  0  0  0  0  0  0  0  0  0  0
   59.9720   34.2050   46.6890 N   0  0  0  0  0  0  0  0  0  0  0  0
   60.6660   33.4180   47.4050 C   0  0  0  0  0  0  0  0  0  0  0  0
   62.0390   33.6070   47.4180 C   0  0  0  0  0  0  0  0  0  0  0  0
   62.8870   32.8120   48.1580 C   0  0  0  0  0  0  0  0  0  0  0  0
   64.2830   33.0050   48.1720 N   0  0  0  0  0  0  0  0  0  0  0  0
   65.0720   33.0860   49.3870 C   0  0  0  0  0  0  0  0  0  0  0  0
   64.7820   31.9580   50.2700 C   0  0  0  0  0  0  0  0  0  0  0  0
   64.5440   31.0630   50.9740 N   0  0  0  0  0  0  0  0  0  0  0  0
   62.3000   31.8260   48.8810 N   0  0  0  0  0  0  0  0  0  0  0  0
   60.9650   31.6600   48.8530 C   0  0  0  0  0  0  0  0  0  0  0  0
   60.1350   32.4300   48.1340 N   0  0  0  0  0  0  0  0  0  0  0  0
   58.2286   29.3043   47.4592 H   0  0  0  0  0  0  0  0  0  0  0  0
   58.0809   28.2340   46.0242 H   0  0  0  0  0  0  0  0  0  0  0  0
   59.2741   29.5767   46.0242 H   0  0  0  0  0  0  0  0  0  0  0  0
   56.0329   29.3254   43.6404 H   0  0  0  0  0  0  0  0  0  0  0  0
   56.0785   30.4263   41.4309 H   0  0  0  0  0  0  0  0  0  0  0  0
   57.4300   32.4907   41.1229 H   0  0  0  0  0  0  0  0  0  0  0  0
   58.7270   33.4342   43.0364 H   0  0  0  0  0  0  0  0  0  0  0  0
   59.0140   31.7590   46.3560 H   0  0  0  0  0  0  0  0  0  0  0  0
   62.4674   34.4215   46.8155 H   0  0  0  0  0  0  0  0  0  0  0  0
   64.7750   33.0930   47.2550 H   0  0  0  0  0  0  0  0  0  0  0  0
   66.1402   33.0735   49.1249 H   0  0  0  0  0  0  0  0  0  0  0  0
   64.8174   34.0189   49.9113 H   0  0  0  0  0  0  0  0  0  0  0  0
   62.9330   31.2230   49.4410 H   0  0  0  0  0  0  0  0  0  0  0  0
   60.5301   30.8473   49.4534 H   0  0  0  0  0  0  0  0  0  0  0  0
  1  2  1  0
  2  3  1  0
  3  4  2  0
  4  5  1  0
  5  6  2  0
  6  7  1  0
  7  8  2  0
  8  9  1  0
  9 10  1  0
 10 11  2  0
 10 12  1  0
 12 13  2  0
 13 14  1  0
 14 15  2  0
 15 16  1  0
 16 17  1  0
 17 18  1  0
 18 19  3  0
 15 20  1  0
 20 21  1  0
 21 22  2  0
  8  3  1  0
 22 13  1  0
  1 23  1  0
  1 24  1  0
  1 25  1  0
  4 26  1  0
  5 27  1  0
  6 28  1  0
  7 29  1  0
  9 30  1  0
 14 31  1  0
 16 32  1  0
 17 33  1  0
 17 34  1  0
 20 35  1  0
 21 36  1  0
M  END
>  <smiles>  (84) 
COc1ccccc1NC(=O)N=c1cc(NCC#N)[nH]cn1

>  <score_type>  (84) 
oracle

>  <origin>  (84) 
adg

>  <m_score__min__energy>  (84) 
-6.4800000000000004

>  <m_primary>  (84) 
energy

$$$$
84:0
     RDKit          3D

 31 33  0  0  0  0  0  0  0  0999 V2000
   61.8211   30.5415   46.8213 H   0  0  0  0  0  0  0  0  0  0  0  0
   60.8390   30.2840   46.3980 C   0  0  0  0  0  0  0  0  0  0  0  0
   60.4570   28.8620   45.5840 S   0  0  0  0  0  0  0  0  0  0  0  0
   58.8560   29.3210   45.3190 C   0  0  0  0  0  0  0  0  0  0  0  0
   57.9400   28.6320   44.7010 N   0  0  0  0  0  0  0  0  0  0  0  0
   56.7770   28.0000   45.2670 C   0  0  0  0  0  0  0  0  0  0  0  0
   55.6600   28.5830   45.2430 O   0  0  0  0  0  0  0  0  0  0  0  0
   56.9020   26.6520   45.8840 C   0  0  0  0  0  0  0  0  0  0  0  0
   58.1810   26.1250   46.1560 C   0  0  0  0  0  0  0  0  0  0  0  0
   59.0761   26.7155   45.9108 H   0  0  0  0  0  0  0  0  0  0  0  0
   58.3240   24.8600   46.7340 C   0  0  0  0  0  0  0  0  0  0  0  0
   59.3284   24.4612   46.9394 H   0  0  0  0  0  0  0  0  0  0  0  0
   57.1960   24.1020   47.0510 C   0  0  0  0  0  0  0  0  0  0  0  0
   57.3430   22.8460   47.6260 O   0  0  0  0  0  0  0  0  0  0  0  0
   55.9220   24.6070   46.7900 C   0  0  0  0  0  0  0  0  0  0  0  0
   55.0347   24.0075   47.0415 H   0  0  0  0  0  0  0  0  0  0  0  0
   55.7650   25.8720   46.2100 C   0  0  0  0  0  0  0  0  0  0  0  0
   54.4770   26.3360   45.9680 O   0  0  0  0  0  0  0  0  0  0  0  0
   58.6010   30.5380   45.8370 N   0  0  0  0  0  0  0  0  0  0  0  0
   59.6940   31.0800   46.4430 C   0  0  0  0  0  0  0  0  0  0  0  0
   59.6610   32.4250   47.0700 C   0  0  0  0  0  0  0  0  0  0  0  0
   60.1230   32.5800   48.3930 C   0  0  0  0  0  0  0  0  0  0  0  0
   60.4860   31.7035   48.9497 H   0  0  0  0  0  0  0  0  0  0  0  0
   60.1240   33.8360   49.0030 C   0  0  0  0  0  0  0  0  0  0  0  0
   60.4888   33.9439   50.0351 H   0  0  0  0  0  0  0  0  0  0  0  0
   59.6640   34.9540   48.3080 C   0  0  0  0  0  0  0  0  0  0  0  0
   59.6699   35.9428   48.7899 H   0  0  0  0  0  0  0  0  0  0  0  0
   59.1960   34.8170   47.0000 C   0  0  0  0  0  0  0  0  0  0  0  0
   58.8292   35.7000   46.4562 H   0  0  0  0  0  0  0  0  0  0  0  0
   59.1900   33.5640   46.3750 C   0  0  0  0  0  0  0  0  0  0  0  0
   58.5200   33.4670   44.7480 Cl  0  0  0  0  0  0  0  0  0  0  0  0
  1  2  1  0
  2  3  1  0
  3  4  1  0
  4  5  2  0
  5  6  1  0
  6  7  2  0
  6  8  1  0
  8  9  2  0
  9 10  1  0
  9 11  1  0
 11 12  1  0
 11 13  2  0
 13 14  1  0
 13 15  1  0
 15 16  1  0
 15 17  2  0
 17 18  1  0
  4 19  1  0
 19 20  1  0
 20 21  1  0
 21 22  2  0
 22 23  1  0
 22 24  1  0
 24 25  1  0
 24 26  2  0
 26 27  1  0
 26 28  1  0
 28 29  1  0
 28 30  2  0
 30 31  1  0
 20  2  2  0
 30 21  1  0
 17  8  1  0
M  CHG  3  14  -1  18  -1  19  -1
M  END
>  <UniqueID>  (85) 
77

>  <SMILES>  (85) 
O=C(/N=c1/[n-]c(-c2ccccc2Cl)cs1)c1ccc([O-])cc1[O-]

>  <Energy>  (85) 
75.88478156859584

>  <Genealogy>  (85) 
O=C(N=c1[n-]c(-c2ccccc2Cl)cs1)c1ccc([O-])cc1[O-] (protonated)
O=C(/N=c1/[n-]c(-c2ccccc2Cl)cs1)c1ccc([O-])cc1[O-] (cis-trans isomerization)
O=C(/N=c1/[n-]c(-c2ccccc2Cl)cs1)c1ccc([O-])cc1[O-] (3D coordinates assigned)
O=C(/N=c1/[n-]c(-c2ccccc2Cl)cs1)c1ccc([O-])cc1[O-] (optimized conformer: 75.88478156859584 kcal/mol)

>  <smiles>  (85) 
O=C(N=c1[nH]c(-c2ccccc2Cl)cs1)c1ccc(O)cc1O

>  <score_type>  (85) 
oracle

>  <origin>  (85) 
adg

>  <m_score__min__energy>  (85) 
-15.67

>  <m_primary>  (85) 
energy

$$$$
85:0
     RDKit          3D

 45 48  0  0  0  0  0  0  0  0999 V2000
   57.3360   33.8280   44.4840 O   0  0  0  0  0  0  0  0  0  0  0  0
   57.1600   32.7400   45.0930 C   0  0  0  0  0  0  0  0  0  0  0  0
   56.6630   31.5270   44.3500 C   0  0  0  0  0  0  0  0  0  0  0  0
   57.1850   30.2920   44.9360 N   0  0  0  0  0  0  0  0  0  0  0  0
   56.4930   29.1590   45.1830 C   0  0  0  0  0  0  0  0  0  0  0  0
   55.1480   28.9810   44.8740 O   0  0  0  0  0  0  0  0  0  0  0  0
   57.3020   28.2210   45.7910 C   0  0  0  0  0  0  0  0  0  0  0  0
   58.5290   28.8220   45.9710 C   0  0  0  0  0  0  0  0  0  0  0  0
   58.4310   30.0890   45.4200 C   0  0  0  0  0  0  0  0  0  0  0  0
   59.4510   31.0370   45.3630 O   0  0  0  0  0  0  0  0  0  0  0  0
   59.7190   28.1320   46.5650 C   0  0  0  0  0  0  0  0  0  0  0  0
   59.2740   26.8930   47.3710 C   0  0  0  0  0  0  0  0  0  0  0  0
   58.2300   26.0530   46.6040 C   0  0  0  0  0  0  0  0  0  0  0  0
   56.9490   26.8630   46.3140 C   0  0  0  0  0  0  0  0  0  0  0  0
   57.4250   32.6890   46.4990 N   0  0  0  0  0  0  0  0  0  0  0  0
   58.1600   33.7150   47.2280 C   0  0  0  0  0  0  0  0  0  0  0  0
   59.4730   33.1540   47.6880 C   0  0  0  0  0  0  0  0  0  0  0  0
   59.5160   31.9240   48.3880 C   0  0  0  0  0  0  0  0  0  0  0  0
   60.7460   31.3770   48.7880 C   0  0  0  0  0  0  0  0  0  0  0  0
   61.9110   32.0690   48.4690 C   0  0  0  0  0  0  0  0  0  0  0  0
   61.8820   33.2480   47.7850 C   0  0  0  0  0  0  0  0  0  0  0  0
   60.6770   33.8190   47.3720 C   0  0  0  0  0  0  0  0  0  0  0  0
   63.2660   33.7490   47.5780 C   0  0  0  0  0  0  0  0  0  0  0  0
   64.1250   32.6590   48.2670 C   0  0  0  0  0  0  0  0  0  0  0  0
   63.2020   31.6920   48.7680 O   0  0  0  0  0  0  0  0  0  0  0  0
   55.5640   31.5067   44.3921 H   0  0  0  0  0  0  0  0  0  0  0  0
   57.0121   31.5912   43.3089 H   0  0  0  0  0  0  0  0  0  0  0  0
   59.2760   32.0090   45.5880 H   0  0  0  0  0  0  0  0  0  0  0  0
   60.3954   27.8155   45.7573 H   0  0  0  0  0  0  0  0  0  0  0  0
   60.2371   28.8298   47.2392 H   0  0  0  0  0  0  0  0  0  0  0  0
   60.1546   26.2662   47.5751 H   0  0  0  0  0  0  0  0  0  0  0  0
   58.8111   27.2421   48.3058 H   0  0  0  0  0  0  0  0  0  0  0  0
   58.6679   25.7243   45.6499 H   0  0  0  0  0  0  0  0  0  0  0  0
   57.9566   25.1904   47.2295 H   0  0  0  0  0  0  0  0  0  0  0  0
   56.3448   26.3309   45.5645 H   0  0  0  0  0  0  0  0  0  0  0  0
   56.3771   26.9756   47.2469 H   0  0  0  0  0  0  0  0  0  0  0  0
   58.3398   34.5766   46.5682 H   0  0  0  0  0  0  0  0  0  0  0  0
   57.5726   34.0388   48.0999 H   0  0  0  0  0  0  0  0  0  0  0  0
   58.5805   31.3938   48.6199 H   0  0  0  0  0  0  0  0  0  0  0  0
   60.7878   30.4260   49.3393 H   0  0  0  0  0  0  0  0  0  0  0  0
   60.6661   34.7662   46.8127 H   0  0  0  0  0  0  0  0  0  0  0  0
   63.5050   33.8251   46.5070 H   0  0  0  0  0  0  0  0  0  0  0  0
   63.4317   34.7583   47.9829 H   0  0  0  0  0  0  0  0  0  0  0  0
   64.8087   32.1950   47.5409 H   0  0  0  0  0  0  0  0  0  0  0  0
   64.7439   33.0817   49.0722 H   0  0  0  0  0  0  0  0  0  0  0  0
  1  2  2  0
  2  3  1  0
  3  4  1  0
  4  5  1  0
  5  6  1  0
  5  7  2  0
  7  8  1  0
  8  9  2  0
  9 10  1  0
  8 11  1  0
 11 12  1  0
 12 13  1  0
 13 14  1  0
  2 15  1  0
 15 16  1  0
 16 17  1  0
 17 18  2  0
 18 19  1  0
 19 20  2  0
 20 21  1  0
 21 22  2  0
 21 23  1  0
 23 24  1  0
 24 25  1  0
  9  4  1  0
 22 17  1  0
 14  7  1  0
 25 20  1  0
  3 26  1  0
  3 27  1  0
 10 28  1  0
 11 29  1  0
 11 30  1  0
 12 31  1  0
 12 32  1  0
 13 33  1  0
 13 34  1  0
 14 35  1  0
 14 36  1  0
 16 37  1  0
 16 38  1  0
 18 39  1  0
 19 40  1  0
 22 41  1  0
 23 42  1  0
 23 43  1  0
 24 44  1  0
 24 45  1  0
M  CHG  2   6  -1  15  -1
M  END
>  <UniqueID>  (86) 
78

>  <SMILES>  (86) 
O=C(Cn1c([O-])c2c(c1O)CCCC2)[N-]Cc1ccc2c(c1)CCO2

>  <Energy>  (86) 
88.00880462086775

>  <Genealogy>  (86) 
O=C(Cn1c([O-])c2c(c1O)CCCC2)[N-]Cc1ccc2c(c1)CCO2 (protonated)
O=C(Cn1c([O-])c2c(c1O)CCCC2)[N-]Cc1ccc2c(c1)CCO2 (3D coordinates assigned)
O=C(Cn1c([O-])c2c(c1O)CCCC2)[N-]Cc1ccc2c(c1)CCO2 (nonaromatic ring conformer: 88.00880462086775 kcal/mol)

>  <smiles>  (86) 
O=C(Cn1c(O)c2c(c1O)CCCC2)NCc1ccc2c(c1)CCO2

>  <score_type>  (86) 
oracle

>  <origin>  (86) 
adg

>  <m_score__min__energy>  (86) 
-12.630000000000001

>  <m_primary>  (86) 
energy

$$$$
86:0
     RDKit          3D

 42 44  0  0  0  0  0  0  0  0999 V2000
   57.6250   23.6490   47.9280 O   0  0  0  0  0  0  0  0  0  0  0  0
   57.2030   24.6030   47.2230 C   0  0  0  0  0  0  0  0  0  0  0  0
   55.9060   24.9790   47.2110 N   0  0  0  0  0  0  0  0  0  0  0  0
   55.9060   26.0030   46.3430 C   0  0  0  0  0  0  0  0  0  0  0  0
   54.7690   26.7150   45.9870 O   0  0  0  0  0  0  0  0  0  0  0  0
   57.1770   26.2240   45.8680 C   0  0  0  0  0  0  0  0  0  0  0  0
   57.5840   27.2270   44.8340 C   0  0  0  0  0  0  0  0  0  0  0  0
   58.5090   28.2470   45.4370 C   0  0  0  0  0  0  0  0  0  0  0  0
   59.8910   28.0120   45.4870 C   0  0  0  0  0  0  0  0  0  0  0  0
   60.7420   28.9510   46.0740 C   0  0  0  0  0  0  0  0  0  0  0  0
   60.2230   30.1300   46.6160 C   0  0  0  0  0  0  0  0  0  0  0  0
   58.8410   30.3800   46.5710 C   0  0  0  0  0  0  0  0  0  0  0  0
   58.2770   31.5820   47.1170 N   0  0  0  0  0  0  0  0  0  0  0  0
   58.0870   33.0480   46.2060 S   0  0  0  0  0  0  0  0  0  0  0  0
   56.6300   33.3810   46.0490 O   0  0  0  0  0  0  0  0  0  0  0  0
   58.7120   32.8750   44.8500 O   0  0  0  0  0  0  0  0  0  0  0  0
   58.9050   34.3860   47.0720 C   0  0  0  0  0  0  0  0  0  0  0  0
   60.2790   34.7220   46.4720 C   0  0  0  0  0  0  0  0  0  0  0  0
   61.3770   33.8410   47.0130 C   0  0  0  0  0  0  0  0  0  0  0  0
   61.1470   33.0390   48.1440 C   0  0  0  0  0  0  0  0  0  0  0  0
   62.1750   32.2460   48.6650 C   0  0  0  0  0  0  0  0  0  0  0  0
   63.4350   32.2450   48.0610 C   0  0  0  0  0  0  0  0  0  0  0  0
   63.6710   33.0380   46.9350 C   0  0  0  0  0  0  0  0  0  0  0  0
   62.6480   33.8350   46.4120 C   0  0  0  0  0  0  0  0  0  0  0  0
   57.9890   29.4210   46.0020 C   0  0  0  0  0  0  0  0  0  0  0  0
   58.0120   25.3240   46.4170 N   0  0  0  0  0  0  0  0  0  0  0  0
   58.0991   26.7112   44.0102 H   0  0  0  0  0  0  0  0  0  0  0  0
   56.6859   27.7364   44.4545 H   0  0  0  0  0  0  0  0  0  0  0  0
   60.3056   27.0857   45.0627 H   0  0  0  0  0  0  0  0  0  0  0  0
   61.8250   28.7619   46.1099 H   0  0  0  0  0  0  0  0  0  0  0  0
   60.8983   30.8644   47.0792 H   0  0  0  0  0  0  0  0  0  0  0  0
   57.8200   31.5440   48.0550 H   0  0  0  0  0  0  0  0  0  0  0  0
   58.2685   35.2816   47.0193 H   0  0  0  0  0  0  0  0  0  0  0  0
   59.0640   34.0635   48.1116 H   0  0  0  0  0  0  0  0  0  0  0  0
   60.2285   34.5927   45.3808 H   0  0  0  0  0  0  0  0  0  0  0  0
   60.5182   35.7602   46.7458 H   0  0  0  0  0  0  0  0  0  0  0  0
   60.1558   33.0348   48.6209 H   0  0  0  0  0  0  0  0  0  0  0  0
   61.9910   31.6220   49.5520 H   0  0  0  0  0  0  0  0  0  0  0  0
   64.2413   31.6198   48.4720 H   0  0  0  0  0  0  0  0  0  0  0  0
   64.6629   33.0353   46.4594 H   0  0  0  0  0  0  0  0  0  0  0  0
   62.8384   34.4597   45.5269 H   0  0  0  0  0  0  0  0  0  0  0  0
   56.9023   29.5916   45.9990 H   0  0  0  0  0  0  0  0  0  0  0  0
  1  2  2  0
  2  3  1  0
  3  4  1  0
  4  5  1  0
  4  6  2  0
  6  7  1  0
  7  8  1  0
  8  9  2  0
  9 10  1  0
 10 11  2  0
 11 12  1  0
 12 13  1  0
 13 14  1  0
 14 15  2  0
 14 16  2  0
 14 17  1  0
 17 18  1  0
 18 19  1  0
 19 20  2  0
 20 21  1  0
 21 22  2  0
 22 23  1  0
 23 24  2  0
 12 25  2  0
  6 26  1  0
 26  2  1  0
 25  8  1  0
 24 19  1  0
  7 27  1  0
  7 28  1  0
  9 29  1  0
 10 30  1  0
 11 31  1  0
 13 32  1  0
 17 33  1  0
 17 34  1  0
 18 35  1  0
 18 36  1  0
 20 37  1  0
 21 38  1  0
 22 39  1  0
 23 40  1  0
 24 41  1  0
 25 42  1  0
M  CHG  3   3  -1   5  -1  26  -1
M  END
>  <UniqueID>  (87) 
79

>  <SMILES>  (87) 
O=c1[n-]c([O-])c(Cc2cccc(NS(=O)(=O)CCc3ccccc3)c2)[n-]1

>  <Energy>  (87) 
66.22809958746575

>  <Genealogy>  (87) 
O=c1[n-]c([O-])c(Cc2cccc(NS(=O)(=O)CCc3ccccc3)c2)[n-]1 (protonated)
O=c1[n-]c([O-])c(Cc2cccc(NS(=O)(=O)CCc3ccccc3)c2)[n-]1 (3D coordinates assigned)
O=c1[n-]c([O-])c(Cc2cccc(NS(=O)(=O)CCc3ccccc3)c2)[n-]1 (optimized conformer: 66.22809958746575 kcal/mol)

>  <smiles>  (87) 
O=c1[nH]c(O)c(Cc2cccc(NS(=O)(=O)CCc3ccccc3)c2)[nH]1

>  <score_type>  (87) 
oracle

>  <origin>  (87) 
adg

>  <m_score__min__energy>  (87) 
-17.899999999999999

>  <m_primary>  (87) 
energy

$$$$
87:0
     RDKit          3D

 38 40  0  0  0  0  0  0  0  0999 V2000
   58.7584   32.5792   42.8539 H   0  0  0  0  0  0  0  0  0  0  0  0
   58.3360   32.5230   43.8680 C   0  0  0  0  0  0  0  0  0  0  0  0
   58.4800   33.5850   44.6750 C   0  0  0  0  0  0  0  0  0  0  0  0
   58.4274   34.5908   44.2328 H   0  0  0  0  0  0  0  0  0  0  0  0
   58.7060   33.4660   46.1300 C   0  0  0  0  0  0  0  0  0  0  0  0
   58.1320   32.5290   46.9950 C   0  0  0  0  0  0  0  0  0  0  0  0
   57.4180   31.7319   46.7406 H   0  0  0  0  0  0  0  0  0  0  0  0
   58.6560   32.8220   48.2360 C   0  0  0  0  0  0  0  0  0  0  0  0
   58.4450   32.2170   49.4720 C   0  0  0  0  0  0  0  0  0  0  0  0
   57.7652   31.3580   49.5719 H   0  0  0  0  0  0  0  0  0  0  0  0
   59.1300   32.7380   50.5980 C   0  0  0  0  0  0  0  0  0  0  0  0
   58.9720   32.1740   51.9120 N   0  0  0  0  0  0  0  0  0  0  0  0
   59.7370   32.3040   52.6120 H   0  0  0  0  0  0  0  0  0  0  0  0
   57.5440   31.3570   52.4680 S   0  0  0  0  0  0  0  0  0  0  0  0
   56.3500   32.2580   52.3340 O   0  0  0  0  0  0  0  0  0  0  0  0
   57.3240   30.1360   51.6210 O   0  0  0  0  0  0  0  0  0  0  0  0
   57.7500   30.8420   54.1600 C   0  0  0  0  0  0  0  0  0  0  0  0
   57.4264   31.6510   54.8315 H   0  0  0  0  0  0  0  0  0  0  0  0
   57.1415   29.9449   54.3469 H   0  0  0  0  0  0  0  0  0  0  0  0
   58.8093   30.6120   54.3469 H   0  0  0  0  0  0  0  0  0  0  0  0
   60.0070   33.8400   50.4270 C   0  0  0  0  0  0  0  0  0  0  0  0
   60.5466   34.2428   51.2968 H   0  0  0  0  0  0  0  0  0  0  0  0
   60.1970   34.4250   49.1630 C   0  0  0  0  0  0  0  0  0  0  0  0
   60.8747   35.2812   49.0303 H   0  0  0  0  0  0  0  0  0  0  0  0
   59.5010   33.8870   48.0850 C   0  0  0  0  0  0  0  0  0  0  0  0
   59.5410   34.2910   46.8050 N   0  0  0  0  0  0  0  0  0  0  0  0
   60.1040   35.0780   46.4120 H   0  0  0  0  0  0  0  0  0  0  0  0
   57.6380   31.2770   44.2690 C   0  0  0  0  0  0  0  0  0  0  0  0
   56.2410   31.2100   44.1220 C   0  0  0  0  0  0  0  0  0  0  0  0
   55.6948   32.0707   43.7088 H   0  0  0  0  0  0  0  0  0  0  0  0
   55.5400   30.0600   44.4960 C   0  0  0  0  0  0  0  0  0  0  0  0
   54.4483   30.0165   44.3679 H   0  0  0  0  0  0  0  0  0  0  0  0
   56.2230   28.9660   45.0320 C   0  0  0  0  0  0  0  0  0  0  0  0
   55.5250   27.8240   45.4030 O   0  0  0  0  0  0  0  0  0  0  0  0
   57.6090   29.0240   45.2000 C   0  0  0  0  0  0  0  0  0  0  0  0
   58.1464   28.1645   45.6272 H   0  0  0  0  0  0  0  0  0  0  0  0
   58.3150   30.1730   44.8260 C   0  0  0  0  0  0  0  0  0  0  0  0
   59.4050   30.2150   44.9675 H   0  0  0  0  0  0  0  0  0  0  0  0
  1  2  1  0
  2  3  2  0
  3  4  1  0
  3  5  1  0
  5  6  2  0
  6  7  1  0
  6  8  1  0
  8  9  2  0
  9 10  1  0
  9 11  1  0
 11 12  1  0
 12 13  1  0
 12 14  1  0
 14 15  2  0
 14 16  2  0
 14 17  1  0
 17 18  1  0
 17 19  1  0
 17 20  1  0
 11 21  2  0
 21 22  1  0
 21 23  1  0
 23 24  1  0
 23 25  2  0
 25 26  1  0
 26 27  1  0
  2 28  1  0
 28 29  2  0
 29 30  1  0
 29 31  1  0
 31 32  1  0
 31 33  2  0
 33 34  1  0
 33 35  1  0
 35 36  1  0
 35 37  2  0
 37 38  1  0
 26  5  1  0
 37 28  1  0
 25  8  1  0
M  CHG  1  34  -1
M  END
>  <UniqueID>  (88) 
80

>  <SMILES>  (88) 
CS(=O)(=O)Nc1ccc2[nH]c(/C=C/c3ccc([O-])cc3)cc2c1

>  <Energy>  (88) 
74.00649911801497

>  <Genealogy>  (88) 
CS(=O)(=O)Nc1ccc2[nH]c(C=Cc3ccc([O-])cc3)cc2c1 (protonated)
CS(=O)(=O)Nc1ccc2[nH]c(/C=C/c3ccc([O-])cc3)cc2c1 (cis-trans isomerization)
CS(=O)(=O)Nc1ccc2[nH]c(/C=C/c3ccc([O-])cc3)cc2c1 (3D coordinates assigned)
CS(=O)(=O)Nc1ccc2[nH]c(/C=C/c3ccc([O-])cc3)cc2c1 (optimized conformer: 74.00649911801497 kcal/mol)

>  <smiles>  (88) 
CS(=O)(=O)Nc1ccc2[nH]c(C=Cc3ccc(O)cc3)cc2c1

>  <score_type>  (88) 
oracle

>  <origin>  (88) 
adg

>  <m_score__min__energy>  (88) 
-11.220000000000001

>  <m_primary>  (88) 
energy

$$$$
88:0
     RDKit          3D

 40 42  0  0  0  0  0  0  0  0999 V2000
   55.6250   29.8880   44.6740 O   0  0  0  0  0  0  0  0  0  0  0  0
   56.6360   30.6290   44.5420 C   0  0  0  0  0  0  0  0  0  0  0  0
   57.9390   30.0320   44.1170 C   0  0  0  0  0  0  0  0  0  0  0  0
   58.9470   29.5770   45.5690 S   0  0  0  0  0  0  0  0  0  0  0  0
   58.1480   27.9930   45.8120 C   0  0  0  0  0  0  0  0  0  0  0  0
   58.8980   26.8730   45.9730 N   0  0  0  0  0  0  0  0  0  0  0  0
   58.3160   25.6580   46.1460 C   0  0  0  0  0  0  0  0  0  0  0  0
   59.0480   24.6420   46.2850 O   0  0  0  0  0  0  0  0  0  0  0  0
   56.9130   25.5460   46.1650 C   0  0  0  0  0  0  0  0  0  0  0  0
   56.2340   24.2020   46.3040 C   0  0  0  0  0  0  0  0  0  0  0  0
   56.5190   23.3410   45.1010 C   0  0  0  0  0  0  0  0  0  0  0  0
   57.4100   22.2590   45.1970 C   0  0  0  0  0  0  0  0  0  0  0  0
   57.6460   21.4390   44.0870 C   0  0  0  0  0  0  0  0  0  0  0  0
   56.9910   21.6910   42.8790 C   0  0  0  0  0  0  0  0  0  0  0  0
   56.0990   22.7610   42.7770 C   0  0  0  0  0  0  0  0  0  0  0  0
   55.8610   23.5830   43.8830 C   0  0  0  0  0  0  0  0  0  0  0  0
   56.1630   26.7230   45.9980 C   0  0  0  0  0  0  0  0  0  0  0  0
   54.7730   26.6900   46.0030 O   0  0  0  0  0  0  0  0  0  0  0  0
   56.7940   27.9130   45.8300 N   0  0  0  0  0  0  0  0  0  0  0  0
   56.5760   32.0210   44.8770 N   0  0  0  0  0  0  0  0  0  0  0  0
   57.5700   32.7710   45.5890 C   0  0  0  0  0  0  0  0  0  0  0  0
   58.0320   32.2780   46.8160 C   0  0  0  0  0  0  0  0  0  0  0  0
   59.0120   32.9710   47.5350 C   0  0  0  0  0  0  0  0  0  0  0  0
   59.5490   34.1550   47.0240 C   0  0  0  0  0  0  0  0  0  0  0  0
   59.1140   34.6430   45.7870 C   0  0  0  0  0  0  0  0  0  0  0  0
   59.6630   35.8100   45.2710 O   0  0  0  0  0  0  0  0  0  0  0  0
   58.1320   33.9530   45.0680 C   0  0  0  0  0  0  0  0  0  0  0  0
   57.7443   29.1312   43.5165 H   0  0  0  0  0  0  0  0  0  0  0  0
   58.4909   30.7757   43.5234 H   0  0  0  0  0  0  0  0  0  0  0  0
   56.6093   23.6983   47.2070 H   0  0  0  0  0  0  0  0  0  0  0  0
   55.1478   24.3580   46.3811 H   0  0  0  0  0  0  0  0  0  0  0  0
   57.9242   22.0553   46.1479 H   0  0  0  0  0  0  0  0  0  0  0  0
   58.3477   20.5956   44.1661 H   0  0  0  0  0  0  0  0  0  0  0  0
   57.1779   21.0463   42.0076 H   0  0  0  0  0  0  0  0  0  0  0  0
   55.5831   22.9573   41.8255 H   0  0  0  0  0  0  0  0  0  0  0  0
   55.1555   24.4228   43.7993 H   0  0  0  0  0  0  0  0  0  0  0  0
   57.6215   31.3396   47.2171 H   0  0  0  0  0  0  0  0  0  0  0  0
   59.3600   32.5831   48.5037 H   0  0  0  0  0  0  0  0  0  0  0  0
   60.3135   34.7034   47.5939 H   0  0  0  0  0  0  0  0  0  0  0  0
   57.7975   34.3349   44.0922 H   0  0  0  0  0  0  0  0  0  0  0  0
  1  2  2  0
  2  3  1  0
  3  4  1  0
  4  5  1  0
  5  6  2  0
  6  7  1  0
  7  8  2  0
  7  9  1  0
  9 10  1  0
 10 11  1  0
 11 12  2  0
 12 13  1  0
 13 14  2  0
 14 15  1  0
 15 16  2  0
  9 17  2  0
 17 18  1  0
 17 19  1  0
  2 20  1  0
 20 21  1  0
 21 22  2  0
 22 23  1  0
 23 24  2  0
 24 25  1  0
 25 26  1  0
 25 27  2  0
 19  5  1  0
 27 21  1  0
 16 11  1  0
  3 28  1  0
  3 29  1  0
 10 30  1  0
 10 31  1  0
 12 32  1  0
 13 33  1  0
 14 34  1  0
 15 35  1  0
 16 36  1  0
 22 37  1  0
 23 38  1  0
 24 39  1  0
 27 40  1  0
M  CHG  4  18  -1  19  -1  20  -1  26  -1
M  END
>  <UniqueID>  (89) 
81

>  <SMILES>  (89) 
O=C(CSc1nc(=O)c(Cc2ccccc2)c([O-])[n-]1)[N-]c1cccc([O-])c1

>  <Energy>  (89) 
42.73028382334042

>  <Genealogy>  (89) 
O=C(CSc1nc(=O)c(Cc2ccccc2)c([O-])[n-]1)[N-]c1cccc([O-])c1 (protonated)
O=C(CSc1nc(=O)c(Cc2ccccc2)c([O-])[n-]1)[N-]c1cccc([O-])c1 (3D coordinates assigned)
O=C(CSc1nc(=O)c(Cc2ccccc2)c([O-])[n-]1)[N-]c1cccc([O-])c1 (optimized conformer: 42.73028382334042 kcal/mol)

>  <smiles>  (89) 
O=C(CSc1nc(=O)c(Cc2ccccc2)c(O)[nH]1)Nc1cccc(O)c1

>  <score_type>  (89) 
oracle

>  <origin>  (89) 
adg

>  <m_score__min__energy>  (89) 
-16.399999999999999

>  <m_primary>  (89) 
energy

$$$$
89:0
     RDKit          3D

 55 56  0  0  0  0  0  0  0  0999 V2000
   56.3890   22.1630   41.2830 H   0  0  0  0  0  0  0  0  0  0  0  0
   56.2720   21.7790   42.2490 N   0  0  0  0  0  0  0  0  0  0  0  0
   56.2350   22.5360   43.2990 C   0  0  0  0  0  0  0  0  0  0  0  0
   55.0390   22.9860   43.7510 N   0  0  0  0  0  0  0  0  0  0  0  0
   54.9200   23.7800   44.8490 C   0  0  0  0  0  0  0  0  0  0  0  0
   53.5430   24.2250   45.2490 C   0  0  0  0  0  0  0  0  0  0  0  0
   53.4696   24.2487   46.3463 H   0  0  0  0  0  0  0  0  0  0  0  0
   53.3514   25.2308   44.8469 H   0  0  0  0  0  0  0  0  0  0  0  0
   52.7991   23.5215   44.8469 H   0  0  0  0  0  0  0  0  0  0  0  0
   56.0780   24.1460   45.5830 C   0  0  0  0  0  0  0  0  0  0  0  0
   55.9670   25.0310   46.8070 C   0  0  0  0  0  0  0  0  0  0  0  0
   55.0349   24.8001   47.3436 H   0  0  0  0  0  0  0  0  0  0  0  0
   56.8255   24.8499   47.4705 H   0  0  0  0  0  0  0  0  0  0  0  0
   55.9570   26.4300   46.3940 N   0  0  0  0  0  0  0  0  0  0  0  0
   57.1250   27.2070   46.1110 C   0  0  0  0  0  0  0  0  0  0  0  0
   57.6840   27.8280   47.0540 O   0  0  0  0  0  0  0  0  0  0  0  0
   57.6900   27.3300   44.7200 C   0  0  0  0  0  0  0  0  0  0  0  0
   58.2336   26.4056   44.4749 H   0  0  0  0  0  0  0  0  0  0  0  0
   56.8518   27.4955   44.0272 H   0  0  0  0  0  0  0  0  0  0  0  0
   58.6520   28.5190   44.5910 C   0  0  0  0  0  0  0  0  0  0  0  0
   59.4586   28.4053   45.3303 H   0  0  0  0  0  0  0  0  0  0  0  0
   59.0505   28.5245   43.5657 H   0  0  0  0  0  0  0  0  0  0  0  0
   57.9560   29.8360   44.8280 C   0  0  0  0  0  0  0  0  0  0  0  0
   56.9070   30.3660   44.0920 C   0  0  0  0  0  0  0  0  0  0  0  0
   56.2100   29.7220   42.9380 C   0  0  0  0  0  0  0  0  0  0  0  0
   55.4506   29.0204   43.3135 H   0  0  0  0  0  0  0  0  0  0  0  0
   55.7236   30.4954   42.3254 H   0  0  0  0  0  0  0  0  0  0  0  0
   56.9426   29.1761   42.3254 H   0  0  0  0  0  0  0  0  0  0  0  0
   56.6400   31.6150   44.5160 N   0  0  0  0  0  0  0  0  0  0  0  0
   57.4730   31.8970   45.5060 N   0  0  0  0  0  0  0  0  0  0  0  0
   57.4960   33.2070   46.1640 C   0  0  0  0  0  0  0  0  0  0  0  0
   56.5030   33.4123   46.5904 H   0  0  0  0  0  0  0  0  0  0  0  0
   58.2600   33.1872   46.9551 H   0  0  0  0  0  0  0  0  0  0  0  0
   57.8540   34.3200   45.1680 C   0  0  0  0  0  0  0  0  0  0  0  0
   57.7445   33.9227   44.1481 H   0  0  0  0  0  0  0  0  0  0  0  0
   57.1724   35.1607   45.3644 H   0  0  0  0  0  0  0  0  0  0  0  0
   59.2870   34.8530   45.3310 C   0  0  0  0  0  0  0  0  0  0  0  0
   59.9795   34.1597   44.8313 H   0  0  0  0  0  0  0  0  0  0  0  0
   59.3219   35.8564   44.8815 H   0  0  0  0  0  0  0  0  0  0  0  0
   59.7020   34.9880   46.7960 C   0  0  0  0  0  0  0  0  0  0  0  0
   58.8564   34.7129   47.4435 H   0  0  0  0  0  0  0  0  0  0  0  0
   60.5520   34.3200   46.9994 H   0  0  0  0  0  0  0  0  0  0  0  0
   59.9963   36.0282   46.9994 H   0  0  0  0  0  0  0  0  0  0  0  0
   58.2860   30.8370   45.7330 C   0  0  0  0  0  0  0  0  0  0  0  0
   59.4150   30.8090   46.7240 C   0  0  0  0  0  0  0  0  0  0  0  0
   59.0067   30.8191   47.7454 H   0  0  0  0  0  0  0  0  0  0  0  0
   60.0102   29.8958   46.5761 H   0  0  0  0  0  0  0  0  0  0  0  0
   60.0547   31.6916   46.5761 H   0  0  0  0  0  0  0  0  0  0  0  0
   57.3430   23.7190   45.1010 C   0  0  0  0  0  0  0  0  0  0  0  0
   58.6260   24.1090   45.7880 C   0  0  0  0  0  0  0  0  0  0  0  0
   58.4858   24.0664   46.8782 H   0  0  0  0  0  0  0  0  0  0  0  0
   59.4257   23.4134   45.4937 H   0  0  0  0  0  0  0  0  0  0  0  0
   58.9032   25.1320   45.4937 H   0  0  0  0  0  0  0  0  0  0  0  0
   57.4090   22.8980   43.9660 C   0  0  0  0  0  0  0  0  0  0  0  0
   58.3829   22.5395   43.6012 H   0  0  0  0  0  0  0  0  0  0  0  0
  1  2  1  0
  2  3  2  0
  3  4  1  0
  4  5  1  0
  5  6  1  0
  6  7  1  0
  6  8  1  0
  6  9  1  0
  5 10  2  0
 10 11  1  0
 11 12  1  0
 11 13  1  0
 11 14  1  0
 14 15  1  0
 15 16  2  0
 15 17  1  0
 17 18  1  0
 17 19  1  0
 17 20  1  0
 20 21  1  0
 20 22  1  0
 20 23  1  0
 23 24  1  0
 24 25  1  0
 25 26  1  0
 25 27  1  0
 25 28  1  0
 24 29  2  0
 29 30  1  0
 30 31  1  0
 31 32  1  0
 31 33  1  0
 31 34  1  0
 34 35  1  0
 34 36  1  0
 34 37  1  0
 37 38  1  0
 37 39  1  0
 37 40  1  0
 40 41  1  0
 40 42  1  0
 40 43  1  0
 30 44  1  0
 44 45  1  0
 45 46  1  0
 45 47  1  0
 45 48  1  0
 10 49  1  0
 49 50  1  0
 50 51  1  0
 50 52  1  0
 50 53  1  0
 49 54  2  0
 54 55  1  0
 54  3  1  0
 44 23  2  0
M  CHG  2   4  -1  14  -1
M  END
>  <UniqueID>  (90) 
82

>  <SMILES>  (90) 
[H]/N=c1\cc(C)c(C[N-]C(=O)CCc2c(C)nn(CCCC)c2C)c(C)[n-]1

>  <Energy>  (90) 
71.48499213217914

>  <Genealogy>  (90) 
CCCCn1nc(C)c(CCC(=O)[N-]Cc2c(C)cc(=N)[n-]c2C)c1C (protonated)
[H]/N=c1\cc(C)c(C[N-]C(=O)CCc2c(C)nn(CCCC)c2C)c(C)[n-]1 (cis-trans isomerization)
[H]/N=c1\cc(C)c(C[N-]C(=O)CCc2c(C)nn(CCCC)c2C)c(C)[n-]1 (3D coordinates assigned)
[H]/N=c1\cc(C)c(C[N-]C(=O)CCc2c(C)nn(CCCC)c2C)c(C)[n-]1 (optimized conformer: 71.48499213217914 kcal/mol)

>  <smiles>  (90) 
CCCCn1nc(C)c(CCC(=O)NCc2c(C)cc(=N)[nH]c2C)c1C

>  <score_type>  (90) 
oracle

>  <origin>  (90) 
adg

>  <m_score__min__energy>  (90) 
-12.51

>  <m_primary>  (90) 
energy

$$$$
90:0
     RDKit          3D

 28 29  0  0  0  0  0  0  0  0999 V2000
   58.4950   29.6970   43.1990 H   0  0  0  0  0  0  0  0  0  0  0  0
   58.1980   29.8070   44.1620 O   0  0  0  0  0  0  0  0  0  0  0  0
   57.9140   28.7070   44.9710 C   0  0  0  0  0  0  0  0  0  0  0  0
   56.5900   28.2610   45.1030 C   0  0  0  0  0  0  0  0  0  0  0  0
   55.7765   28.8044   44.6000 H   0  0  0  0  0  0  0  0  0  0  0  0
   56.3000   27.1290   45.8710 C   0  0  0  0  0  0  0  0  0  0  0  0
   54.9880   26.6930   45.9980 O   0  0  0  0  0  0  0  0  0  0  0  0
   57.3330   26.4340   46.5060 C   0  0  0  0  0  0  0  0  0  0  0  0
   57.1062   25.5379   47.1023 H   0  0  0  0  0  0  0  0  0  0  0  0
   58.6530   26.8750   46.3850 C   0  0  0  0  0  0  0  0  0  0  0  0
   59.4634   26.3161   46.8757 H   0  0  0  0  0  0  0  0  0  0  0  0
   58.9510   28.0270   45.6410 C   0  0  0  0  0  0  0  0  0  0  0  0
   60.3610   28.4610   45.5360 C   0  0  0  0  0  0  0  0  0  0  0  0
   60.9443   28.1128   44.6708 H   0  0  0  0  0  0  0  0  0  0  0  0
   60.9560   29.2300   46.4040 N   0  0  0  0  0  0  0  0  0  0  0  0
   60.6340   30.5930   46.7280 C   0  0  0  0  0  0  0  0  0  0  0  0
   59.3080   31.0580   46.7380 C   0  0  0  0  0  0  0  0  0  0  0  0
   58.4869   30.3755   46.4737 H   0  0  0  0  0  0  0  0  0  0  0  0
   59.0270   32.3830   47.0820 C   0  0  0  0  0  0  0  0  0  0  0  0
   57.9872   32.7416   47.0686 H   0  0  0  0  0  0  0  0  0  0  0  0
   60.0630   33.2610   47.4450 C   0  0  0  0  0  0  0  0  0  0  0  0
   59.7700   34.6260   47.7970 N   0  0  0  0  0  0  0  0  0  0  0  0
   59.6510   34.9630   48.9930 O   0  0  0  0  0  0  0  0  0  0  0  0
   59.6210   35.5840   46.8200 O   0  0  0  0  0  0  0  0  0  0  0  0
   61.3850   32.7800   47.4690 C   0  0  0  0  0  0  0  0  0  0  0  0
   62.2054   33.4516   47.7622 H   0  0  0  0  0  0  0  0  0  0  0  0
   61.6630   31.4550   47.1230 C   0  0  0  0  0  0  0  0  0  0  0  0
   62.6988   31.0868   47.1615 H   0  0  0  0  0  0  0  0  0  0  0  0
  1  2  1  0
  2  3  1  0
  3  4  2  0
  4  5  1  0
  4  6  1  0
  6  7  1  0
  6  8  2  0
  8  9  1  0
  8 10  1  0
 10 11  1  0
 10 12  2  0
 12 13  1  0
 13 14  1  0
 13 15  2  0
 15 16  1  0
 16 17  2  0
 17 18  1  0
 17 19  1  0
 19 20  1  0
 19 21  2  0
 21 22  1  0
 22 23  2  0
 22 24  1  0
 21 25  1  0
 25 26  1  0
 25 27  2  0
 27 28  1  0
 12  3  1  0
 27 16  1  0
M  CHG  3   7  -1  22   1  24  -1
M  END
>  <UniqueID>  (91) 
83

>  <SMILES>  (91) 
O=[N+]([O-])c1ccc(/N=C\c2ccc([O-])cc2O)cc1

>  <Energy>  (91) 
42.04508728005834

>  <Genealogy>  (91) 
O=[N+]([O-])c1ccc(N=Cc2ccc([O-])cc2O)cc1 (protonated)
O=[N+]([O-])c1ccc(/N=C\c2ccc([O-])cc2O)cc1 (cis-trans isomerization)
O=[N+]([O-])c1ccc(/N=C\c2ccc([O-])cc2O)cc1 (3D coordinates assigned)
O=[N+]([O-])c1ccc(/N=C\c2ccc([O-])cc2O)cc1 (optimized conformer: 42.04508728005834 kcal/mol)

>  <smiles>  (91) 
O=[N+]([O-])c1ccc(N=Cc2ccc(O)cc2O)cc1

>  <score_type>  (91) 
oracle

>  <origin>  (91) 
adg

>  <m_score__min__energy>  (91) 
-9.4700000000000006

>  <m_primary>  (91) 
energy

$$$$
91:0
     RDKit          3D

 48 51  0  0  0  0  0  0  0  0999 V2000
   60.2530   28.1730   46.3770 C   0  0  0  0  0  0  0  0  0  0  0  0
   59.2140   28.8580   45.8740 C   0  0  0  0  0  0  0  0  0  0  0  0
   58.0280   28.3310   45.3360 C   0  0  0  0  0  0  0  0  0  0  0  0
   57.6820   27.0680   45.0190 C   0  0  0  0  0  0  0  0  0  0  0  0
   57.1970   26.0480   45.9640 C   0  0  0  0  0  0  0  0  0  0  0  0
   57.9390   25.0310   46.4410 N   0  0  0  0  0  0  0  0  0  0  0  0
   57.0460   24.2940   47.1360 C   0  0  0  0  0  0  0  0  0  0  0  0
   57.3680   23.2470   47.7550 O   0  0  0  0  0  0  0  0  0  0  0  0
   55.7800   24.7620   47.1070 N   0  0  0  0  0  0  0  0  0  0  0  0
   55.8920   25.8640   46.3480 C   0  0  0  0  0  0  0  0  0  0  0  0
   54.8220   26.6820   46.0090 O   0  0  0  0  0  0  0  0  0  0  0  0
   57.1830   29.4100   45.1300 C   0  0  0  0  0  0  0  0  0  0  0  0
   57.8860   30.5430   45.4850 C   0  0  0  0  0  0  0  0  0  0  0  0
   57.3590   31.9420   45.3870 C   0  0  0  0  0  0  0  0  0  0  0  0
   59.1200   30.2120   45.9240 N   0  0  0  0  0  0  0  0  0  0  0  0
   60.0950   31.1390   46.4310 C   0  0  0  0  0  0  0  0  0  0  0  0
   59.8790   32.5180   46.3160 C   0  0  0  0  0  0  0  0  0  0  0  0
   60.8160   33.4240   46.8230 C   0  0  0  0  0  0  0  0  0  0  0  0
   61.9770   32.9570   47.4670 C   0  0  0  0  0  0  0  0  0  0  0  0
   62.9510   33.8250   47.9800 O   0  0  0  0  0  0  0  0  0  0  0  0
   63.7390   33.5800   49.1120 C   0  0  0  0  0  0  0  0  0  0  0  0
   63.4940   34.1660   50.2030 O   0  0  0  0  0  0  0  0  0  0  0  0
   64.7650   32.5820   49.0410 N   0  0  0  0  0  0  0  0  0  0  0  0
   65.7520   32.3630   50.0640 C   0  0  0  0  0  0  0  0  0  0  0  0
   66.9170   33.1520   50.1360 C   0  0  0  0  0  0  0  0  0  0  0  0
   67.8760   32.9070   51.1220 C   0  0  0  0  0  0  0  0  0  0  0  0
   67.6920   31.8670   52.0360 C   0  0  0  0  0  0  0  0  0  0  0  0
   66.5500   31.0660   51.9620 C   0  0  0  0  0  0  0  0  0  0  0  0
   65.5870   31.3060   50.9760 C   0  0  0  0  0  0  0  0  0  0  0  0
   64.4840   30.5180   50.9200 F   0  0  0  0  0  0  0  0  0  0  0  0
   62.1950   31.5770   47.5670 C   0  0  0  0  0  0  0  0  0  0  0  0
   61.2560   30.6730   47.0610 C   0  0  0  0  0  0  0  0  0  0  0  0
   61.1282   28.7112   46.7699 H   0  0  0  0  0  0  0  0  0  0  0  0
   60.2293   27.0734   46.3963 H   0  0  0  0  0  0  0  0  0  0  0  0
   57.7694   26.7732   43.9628 H   0  0  0  0  0  0  0  0  0  0  0  0
   56.1496   29.3707   44.7552 H   0  0  0  0  0  0  0  0  0  0  0  0
   57.2061   32.3479   46.3979 H   0  0  0  0  0  0  0  0  0  0  0  0
   58.0825   32.5693   44.8456 H   0  0  0  0  0  0  0  0  0  0  0  0
   56.4015   31.9360   44.8456 H   0  0  0  0  0  0  0  0  0  0  0  0
   58.9680   32.8902   45.8246 H   0  0  0  0  0  0  0  0  0  0  0  0
   60.6450   34.5055   46.7181 H   0  0  0  0  0  0  0  0  0  0  0  0
   64.7460   31.9370   48.2200 H   0  0  0  0  0  0  0  0  0  0  0  0
   67.0724   33.9654   49.4119 H   0  0  0  0  0  0  0  0  0  0  0  0
   68.7778   33.5344   51.1786 H   0  0  0  0  0  0  0  0  0  0  0  0
   68.4464   31.6787   52.8141 H   0  0  0  0  0  0  0  0  0  0  0  0
   66.4077   30.2451   52.6802 H   0  0  0  0  0  0  0  0  0  0  0  0
   63.1110   31.2019   48.0468 H   0  0  0  0  0  0  0  0  0  0  0  0
   61.4298   29.5912   47.1581 H   0  0  0  0  0  0  0  0  0  0  0  0
  1  2  2  0
  2  3  1  0
  3  4  2  3
  4  5  1  0
  5  6  1  0
  6  7  1  0
  7  8  2  0
  7  9  1  0
  9 10  1  0
 10 11  1  0
  3 12  1  0
 12 13  2  0
 13 14  1  0
 13 15  1  0
 15 16  1  0
 16 17  2  0
 17 18  1  0
 18 19  2  0
 19 20  1  0
 20 21  1  0
 21 22  2  0
 21 23  1  0
 23 24  1  0
 24 25  2  0
 25 26  1  0
 26 27  2  0
 27 28  1  0
 28 29  2  0
 29 30  1  0
 19 31  1  0
 31 32  2  0
 15  2  1  0
 32 16  1  0
 10  5  2  0
 29 24  1  0
  1 33  1  0
  1 34  1  0
  4 35  1  0
 12 36  1  0
 14 37  1  0
 14 38  1  0
 14 39  1  0
 17 40  1  0
 18 41  1  0
 23 42  1  0
 25 43  1  0
 26 44  1  0
 27 45  1  0
 28 46  1  0
 31 47  1  0
 32 48  1  0
M  CHG  3   6  -1   9  -1  11  -1
M  END
>  <UniqueID>  (92) 
84

>  <SMILES>  (92) 
C=c1c(=Cc2[n-]c(=O)[n-]c2[O-])cc(C)n1-c1ccc(OC(=O)Nc2ccccc2F)cc1

>  <Energy>  (92) 
135.69426459982063

>  <Genealogy>  (92) 
C=c1c(=Cc2[n-]c(=O)[n-]c2[O-])cc(C)n1-c1ccc(OC(=O)Nc2ccccc2F)cc1 (protonated)
C=c1c(=Cc2[n-]c(=O)[n-]c2[O-])cc(C)n1-c1ccc(OC(=O)Nc2ccccc2F)cc1 (3D coordinates assigned)
C=c1c(=Cc2[n-]c(=O)[n-]c2[O-])cc(C)n1-c1ccc(OC(=O)Nc2ccccc2F)cc1 (optimized conformer: 135.69426459982063 kcal/mol)

>  <smiles>  (92) 
C=c1c(=Cc2[nH]c(=O)[nH]c2O)cc(C)n1-c1ccc(OC(=O)Nc2ccccc2F)cc1

>  <score_type>  (92) 
oracle

>  <origin>  (92) 
adg

>  <m_score__min__energy>  (92) 
-15.960000000000001

>  <m_primary>  (92) 
energy

$$$$
92:0
     RDKit          3D

 48 50  0  0  0  0  0  0  0  0999 V2000
   58.7310   33.7110   44.4090 C   0  0  0  0  0  0  0  0  0  0  0  0
   58.2260   32.3070   44.6170 C   0  0  0  0  0  0  0  0  0  0  0  0
   57.7590   31.5830   43.5080 C   0  0  0  0  0  0  0  0  0  0  0  0
   57.2920   30.2770   43.6550 C   0  0  0  0  0  0  0  0  0  0  0  0
   57.2750   29.6680   44.9170 C   0  0  0  0  0  0  0  0  0  0  0  0
   56.8190   28.3150   45.0920 N   0  0  0  0  0  0  0  0  0  0  0  0
   57.6190   27.2650   45.6650 C   0  0  0  0  0  0  0  0  0  0  0  0
   58.7980   27.4980   46.0470 O   0  0  0  0  0  0  0  0  0  0  0  0
   57.0730   25.9000   45.8240 C   0  0  0  0  0  0  0  0  0  0  0  0
   57.9420   24.8000   45.7790 C   0  0  0  0  0  0  0  0  0  0  0  0
   57.4460   23.5050   45.9380 C   0  0  0  0  0  0  0  0  0  0  0  0
   56.0770   23.3170   46.1300 C   0  0  0  0  0  0  0  0  0  0  0  0
   55.6120   22.1570   46.2800 O   0  0  0  0  0  0  0  0  0  0  0  0
   55.2400   24.3880   46.1490 N   0  0  0  0  0  0  0  0  0  0  0  0
   55.6950   25.6610   45.9960 C   0  0  0  0  0  0  0  0  0  0  0  0
   54.7790   26.7070   45.9810 O   0  0  0  0  0  0  0  0  0  0  0  0
   57.7760   30.3690   46.0210 C   0  0  0  0  0  0  0  0  0  0  0  0
   58.2550   31.6830   45.8890 C   0  0  0  0  0  0  0  0  0  0  0  0
   58.8660   32.5200   47.3260 S   0  0  0  0  0  0  0  0  0  0  0  0
   58.2670   33.8970   47.3960 O   0  0  0  0  0  0  0  0  0  0  0  0
   58.4940   31.7280   48.5490 O   0  0  0  0  0  0  0  0  0  0  0  0
   60.5910   32.6630   47.2380 N   0  0  0  0  0  0  0  0  0  0  0  0
   61.4560   33.0900   48.3020 C   0  0  0  0  0  0  0  0  0  0  0  0
   60.9570   33.8330   49.3870 C   0  0  0  0  0  0  0  0  0  0  0  0
   61.7970   34.2180   50.4290 C   0  0  0  0  0  0  0  0  0  0  0  0
   63.1430   33.8610   50.4120 C   0  0  0  0  0  0  0  0  0  0  0  0
   63.6710   33.1140   49.3470 C   0  0  0  0  0  0  0  0  0  0  0  0
   65.1320   32.7460   49.3740 C   0  0  0  0  0  0  0  0  0  0  0  0
   62.8310   32.7500   48.2620 C   0  0  0  0  0  0  0  0  0  0  0  0
   63.3810   31.9440   47.1060 C   0  0  0  0  0  0  0  0  0  0  0  0
   58.9024   34.1875   45.3855 H   0  0  0  0  0  0  0  0  0  0  0  0
   59.6748   33.6814   43.8448 H   0  0  0  0  0  0  0  0  0  0  0  0
   57.9845   34.2893   43.8448 H   0  0  0  0  0  0  0  0  0  0  0  0
   57.7615   32.0510   42.5125 H   0  0  0  0  0  0  0  0  0  0  0  0
   56.9349   29.7217   42.7751 H   0  0  0  0  0  0  0  0  0  0  0  0
   55.8670   28.0820   44.7310 H   0  0  0  0  0  0  0  0  0  0  0  0
   59.0185   24.9584   45.6178 H   0  0  0  0  0  0  0  0  0  0  0  0
   58.1273   22.6418   45.9122 H   0  0  0  0  0  0  0  0  0  0  0  0
   57.7948   29.8828   47.0075 H   0  0  0  0  0  0  0  0  0  0  0  0
   59.8934   34.1126   49.4128 H   0  0  0  0  0  0  0  0  0  0  0  0
   61.3961   34.8058   51.2679 H   0  0  0  0  0  0  0  0  0  0  0  0
   63.7985   34.1671   51.2406 H   0  0  0  0  0  0  0  0  0  0  0  0
   65.4695   32.6610   50.4175 H   0  0  0  0  0  0  0  0  0  0  0  0
   65.2771   31.7832   48.8621 H   0  0  0  0  0  0  0  0  0  0  0  0
   65.7159   33.5251   48.8621 H   0  0  0  0  0  0  0  0  0  0  0  0
   63.9610   31.0940   47.4948 H   0  0  0  0  0  0  0  0  0  0  0  0
   62.5491   31.5697   46.4913 H   0  0  0  0  0  0  0  0  0  0  0  0
   64.0328   32.5822   46.4913 H   0  0  0  0  0  0  0  0  0  0  0  0
  1  2  1  0
  2  3  2  0
  3  4  1  0
  4  5  2  0
  5  6  1  0
  6  7  1  0
  7  8  2  0
  7  9  1  0
  9 10  1  0
 10 11  2  0
 11 12  1  0
 12 13  2  0
 12 14  1  0
 14 15  1  0
 15 16  1  0
  5 17  1  0
 17 18  2  0
 18 19  1  0
 19 20  2  0
 19 21  2  0
 19 22  1  0
 22 23  1  0
 23 24  2  0
 24 25  1  0
 25 26  2  0
 26 27  1  0
 27 28  1  0
 27 29  2  0
 29 30  1  0
 18  2  1  0
 29 23  1  0
 15  9  2  0
  1 31  1  0
  1 32  1  0
  1 33  1  0
  3 34  1  0
  4 35  1  0
  6 36  1  0
 10 37  1  0
 11 38  1  0
 17 39  1  0
 24 40  1  0
 25 41  1  0
 26 42  1  0
 28 43  1  0
 28 44  1  0
 28 45  1  0
 30 46  1  0
 30 47  1  0
 30 48  1  0
M  CHG  3  14  -1  16  -1  22  -1
M  END
>  <UniqueID>  (93) 
85

>  <SMILES>  (93) 
Cc1ccc(NC(=O)c2ccc(=O)[n-]c2[O-])cc1S(=O)(=O)[N-]c1cccc(C)c1C

>  <Energy>  (93) 
67.60336463542463

>  <Genealogy>  (93) 
Cc1ccc(NC(=O)c2ccc(=O)[n-]c2[O-])cc1S(=O)(=O)[N-]c1cccc(C)c1C (protonated)
Cc1ccc(NC(=O)c2ccc(=O)[n-]c2[O-])cc1S(=O)(=O)[N-]c1cccc(C)c1C (3D coordinates assigned)
Cc1ccc(NC(=O)c2ccc(=O)[n-]c2[O-])cc1S(=O)(=O)[N-]c1cccc(C)c1C (optimized conformer: 67.60336463542463 kcal/mol)

>  <smiles>  (93) 
Cc1ccc(NC(=O)c2ccc(=O)[nH]c2O)cc1S(=O)(=O)Nc1cccc(C)c1C

>  <score_type>  (93) 
oracle

>  <origin>  (93) 
adg

>  <m_score__min__energy>  (93) 
-16.27

>  <m_primary>  (93) 
energy

$$$$
93:0
     RDKit          3D

 37 39  0  0  0  0  0  0  0  0999 V2000
   64.5190   33.1960   49.2150 C   0  0  0  0  0  0  0  0  0  0  0  0
   63.2380   33.4070   48.4620 C   0  0  0  0  0  0  0  0  0  0  0  0
   63.2560   33.5810   47.0700 C   0  0  0  0  0  0  0  0  0  0  0  0
   62.0680   33.8190   46.3730 C   0  0  0  0  0  0  0  0  0  0  0  0
   60.8510   33.9000   47.0630 C   0  0  0  0  0  0  0  0  0  0  0  0
   59.3520   34.2340   46.2000 S   0  0  0  0  0  0  0  0  0  0  0  0
   59.5720   35.4050   45.2860 O   0  0  0  0  0  0  0  0  0  0  0  0
   58.2450   34.5640   47.1620 O   0  0  0  0  0  0  0  0  0  0  0  0
   58.8910   32.8490   45.2600 N   0  0  0  0  0  0  0  0  0  0  0  0
   58.9730   31.4940   45.7360 C   0  0  0  0  0  0  0  0  0  0  0  0
   60.1250   31.0810   46.4240 C   0  0  0  0  0  0  0  0  0  0  0  0
   60.2320   29.7800   46.9160 C   0  0  0  0  0  0  0  0  0  0  0  0
   59.1910   28.8670   46.7240 C   0  0  0  0  0  0  0  0  0  0  0  0
   59.3030   27.6050   47.2100 N   0  0  0  0  0  0  0  0  0  0  0  0
   58.3190   26.6830   47.0510 C   0  0  0  0  0  0  0  0  0  0  0  0
   57.1360   27.0060   46.3680 C   0  0  0  0  0  0  0  0  0  0  0  0
   56.0800   25.9700   46.2130 C   0  0  0  0  0  0  0  0  0  0  0  0
   56.3590   24.7430   46.2810 O   0  0  0  0  0  0  0  0  0  0  0  0
   54.7600   26.3420   45.9910 O   0  0  0  0  0  0  0  0  0  0  0  0
   56.9940   28.3140   45.8500 C   0  0  0  0  0  0  0  0  0  0  0  0
   55.9440   28.6430   45.2310 O   0  0  0  0  0  0  0  0  0  0  0  0
   58.0280   29.2560   46.0270 C   0  0  0  0  0  0  0  0  0  0  0  0
   57.9310   30.5690   45.5290 C   0  0  0  0  0  0  0  0  0  0  0  0
   60.8320   33.7390   48.4550 C   0  0  0  0  0  0  0  0  0  0  0  0
   62.0200   33.5020   49.1520 C   0  0  0  0  0  0  0  0  0  0  0  0
   64.3185   33.2290   50.2961 H   0  0  0  0  0  0  0  0  0  0  0  0
   64.9427   32.2160   48.9504 H   0  0  0  0  0  0  0  0  0  0  0  0
   65.2346   33.9884   48.9504 H   0  0  0  0  0  0  0  0  0  0  0  0
   64.2098   33.5299   46.5244 H   0  0  0  0  0  0  0  0  0  0  0  0
   62.0884   33.9430   45.2802 H   0  0  0  0  0  0  0  0  0  0  0  0
   58.6390   33.0210   44.2600 H   0  0  0  0  0  0  0  0  0  0  0  0
   60.9516   31.7905   46.5767 H   0  0  0  0  0  0  0  0  0  0  0  0
   61.1387   29.4715   47.4570 H   0  0  0  0  0  0  0  0  0  0  0  0
   58.4504   25.6712   47.4622 H   0  0  0  0  0  0  0  0  0  0  0  0
   57.0329   30.8757   44.9728 H   0  0  0  0  0  0  0  0  0  0  0  0
   59.8789   33.7994   49.0009 H   0  0  0  0  0  0  0  0  0  0  0  0
   62.0000   33.3895   50.2460 H   0  0  0  0  0  0  0  0  0  0  0  0
  1  2  1  0
  2  3  2  0
  3  4  1  0
  4  5  2  0
  5  6  1  0
  6  7  2  0
  6  8  2  0
  6  9  1  0
  9 10  1  0
 10 11  2  0
 11 12  1  0
 12 13  2  0
 13 14  1  0
 14 15  1  0
 15 16  2  0
 16 17  1  0
 17 18  2  0
 17 19  1  0
 16 20  1  0
 20 21  2  0
 20 22  1  0
 22 23  2  0
  5 24  1  0
 24 25  2  0
 25  2  1  0
 23 10  1  0
 22 13  1  0
  1 26  1  0
  1 27  1  0
  1 28  1  0
  3 29  1  0
  4 30  1  0
  9 31  1  0
 11 32  1  0
 12 33  1  0
 15 34  1  0
 23 35  1  0
 24 36  1  0
 25 37  1  0
M  CHG  2  14  -1  19  -1
M  END
>  <UniqueID>  (94) 
86

>  <SMILES>  (94) 
Cc1ccc(S(=O)(=O)Nc2ccc3[n-]cc(C(=O)[O-])c(=O)c3c2)cc1

>  <Energy>  (94) 
48.54731173599106

>  <Genealogy>  (94) 
Cc1ccc(S(=O)(=O)Nc2ccc3[n-]cc(C(=O)[O-])c(=O)c3c2)cc1 (protonated)
Cc1ccc(S(=O)(=O)Nc2ccc3[n-]cc(C(=O)[O-])c(=O)c3c2)cc1 (3D coordinates assigned)
Cc1ccc(S(=O)(=O)Nc2ccc3[n-]cc(C(=O)[O-])c(=O)c3c2)cc1 (optimized conformer: 48.54731173599106 kcal/mol)

>  <smiles>  (94) 
Cc1ccc(S(=O)(=O)Nc2ccc3[nH]cc(C(=O)O)c(=O)c3c2)cc1

>  <score_type>  (94) 
oracle

>  <origin>  (94) 
adg

>  <m_score__min__energy>  (94) 
-12.27

>  <m_primary>  (94) 
energy

$$$$
94:0
     RDKit          3D

 39 42  0  0  0  0  0  0  0  0999 V2000
   57.2930   31.0950   52.0900 C   0  0  0  0  0  0  0  0  0  0  0  0
   58.1690   30.5410   51.1140 O   0  0  0  0  0  0  0  0  0  0  0  0
   58.9070   31.2930   50.1860 C   0  0  0  0  0  0  0  0  0  0  0  0
   58.6580   31.2340   48.8020 C   0  0  0  0  0  0  0  0  0  0  0  0
   59.4330   31.9850   47.8910 C   0  0  0  0  0  0  0  0  0  0  0  0
   60.4160   32.8670   48.4020 C   0  0  0  0  0  0  0  0  0  0  0  0
   60.6600   32.9150   49.7820 C   0  0  0  0  0  0  0  0  0  0  0  0
   59.9200   32.1280   50.6640 C   0  0  0  0  0  0  0  0  0  0  0  0
   60.1850   32.1920   52.0270 O   0  0  0  0  0  0  0  0  0  0  0  0
   61.1480   33.8530   47.5120 C   0  0  0  0  0  0  0  0  0  0  0  0
   60.7430   33.7980   46.0260 C   0  0  0  0  0  0  0  0  0  0  0  0
   59.3620   33.3020   45.8760 N   0  0  0  0  0  0  0  0  0  0  0  0
   58.8940   33.4460   44.4910 C   0  0  0  0  0  0  0  0  0  0  0  0
   57.4020   33.1400   44.4510 C   0  0  0  0  0  0  0  0  0  0  0  0
   57.1570   31.7480   44.9560 C   0  0  0  0  0  0  0  0  0  0  0  0
   56.0500   31.0250   44.4850 C   0  0  0  0  0  0  0  0  0  0  0  0
   55.8890   29.6800   44.8230 C   0  0  0  0  0  0  0  0  0  0  0  0
   54.7910   28.9730   44.3490 O   0  0  0  0  0  0  0  0  0  0  0  0
   56.8470   29.0420   45.6170 C   0  0  0  0  0  0  0  0  0  0  0  0
   56.7170   27.6930   45.9200 O   0  0  0  0  0  0  0  0  0  0  0  0
   57.9410   29.7620   46.1040 C   0  0  0  0  0  0  0  0  0  0  0  0
   58.0650   31.1430   45.8550 C   0  0  0  0  0  0  0  0  0  0  0  0
   59.2890   31.9060   46.3750 C   0  0  2  0  0  0  0  0  0  0  0  0
   57.6683   30.8577   53.0964 H   0  0  0  0  0  0  0  0  0  0  0  0
   57.2470   32.1868   51.9639 H   0  0  0  0  0  0  0  0  0  0  0  0
   56.2869   30.6686   51.9639 H   0  0  0  0  0  0  0  0  0  0  0  0
   57.8476   30.5933   48.4242 H   0  0  0  0  0  0  0  0  0  0  0  0
   61.4436   33.5806   50.1731 H   0  0  0  0  0  0  0  0  0  0  0  0
   60.9462   34.8678   47.8854 H   0  0  0  0  0  0  0  0  0  0  0  0
   62.2131   33.5815   47.5554 H   0  0  0  0  0  0  0  0  0  0  0  0
   60.8118   34.8082   45.5961 H   0  0  0  0  0  0  0  0  0  0  0  0
   61.4228   33.1107   45.5012 H   0  0  0  0  0  0  0  0  0  0  0  0
   59.0713   34.4748   44.1444 H   0  0  0  0  0  0  0  0  0  0  0  0
   59.4391   32.7516   43.8347 H   0  0  0  0  0  0  0  0  0  0  0  0
   56.8641   33.8593   45.0861 H   0  0  0  0  0  0  0  0  0  0  0  0
   57.0415   33.2202   43.4148 H   0  0  0  0  0  0  0  0  0  0  0  0
   55.3048   31.5211   43.8457 H   0  0  0  0  0  0  0  0  0  0  0  0
   58.7151   29.2440   46.6891 H   0  0  0  0  0  0  0  0  0  0  0  0
   60.1071   31.2879   45.9766 H   0  0  0  0  0  0  0  0  0  0  0  0
  1  2  1  0
  2  3  1  0
  3  4  2  0
  4  5  1  0
  5  6  2  0
  6  7  1  0
  7  8  2  0
  8  9  1  0
  6 10  1  0
 10 11  1  0
 11 12  1  0
 12 13  1  0
 13 14  1  0
 14 15  1  0
 15 16  2  0
 16 17  1  0
 17 18  1  0
 17 19  2  0
 19 20  1  0
 19 21  1  0
 21 22  2  0
 22 23  1  0
  8  3  1  0
 23 12  1  0
 23  5  1  0
 22 15  1  0
  1 24  1  0
  1 25  1  0
  1 26  1  0
  4 27  1  0
  7 28  1  0
 10 29  1  0
 10 30  1  0
 11 31  1  0
 11 32  1  0
 13 33  1  0
 13 34  1  0
 14 35  1  0
 14 36  1  0
 16 37  1  0
 21 38  1  0
 23 39  1  6
M  CHG  3   9  -1  18  -1  20  -1
M  END
>  <UniqueID>  (95) 
87

>  <SMILES>  (95) 
COc1cc2c(cc1[O-])CCN1CCc3cc([O-])c([O-])cc3[C@H]21

>  <Energy>  (95) 
60.61701252415763

>  <Genealogy>  (95) 
COc1cc2c(cc1[O-])CCN1CCc3cc([O-])c([O-])cc3C21 (protonated)
COc1cc2c(cc1[O-])CCN1CCc3cc([O-])c([O-])cc3[C@H]21 (chirality)
COc1cc2c(cc1[O-])CCN1CCc3cc([O-])c([O-])cc3[C@H]21 (3D coordinates assigned)
COc1cc2c(cc1[O-])CCN1CCc3cc([O-])c([O-])cc3[C@H]21 (nonaromatic ring conformer: 60.61701252415763 kcal/mol)

>  <smiles>  (95) 
COc1cc2c(cc1O)CCN1CCc3cc(O)c(O)cc3C21

>  <score_type>  (95) 
oracle

>  <origin>  (95) 
adg

>  <m_score__min__energy>  (95) 
-12.050000000000001

>  <m_primary>  (95) 
energy

$$$$
