0:0
     RDKit          3D

 30 32  0  0  0  0  0  0  0  0999 V2000
   56.2780   30.2700   43.7900 C   0  0  0  0  0  0  0  0  0  0  0  0
   56.2790   31.2190   44.8520 O   0  0  0  0  0  0  0  0  0  0  0  0
   57.3880   31.9930   45.2220 C   0  0  0  0  0  0  0  0  0  0  0  0
   57.4560   33.3750   44.9750 C   0  0  0  0  0  0  0  0  0  0  0  0
   58.5790   34.1070   45.3610 C   0  0  0  0  0  0  0  0  0  0  0  0
   59.6550   33.4780   45.9980 C   0  0  0  0  0  0  0  0  0  0  0  0
   60.7500   34.2070   46.3710 N   0  0  0  0  0  0  0  0  0  0  0  0
   61.7890   33.5950   46.9880 C   0  0  0  0  0  0  0  0  0  0  0  0
   61.7920   32.2610   47.2590 C   0  0  0  0  0  0  0  0  0  0  0  0
   60.7050   31.4480   46.9060 C   0  0  0  0  0  0  0  0  0  0  0  0
   60.7190   29.9710   47.2110 C   0  0  0  0  0  0  0  0  0  0  0  0
   59.6030   32.0740   46.2570 C   0  0  0  0  0  0  0  0  0  0  0  0
   58.4590   31.3530   45.8590 C   0  0  0  0  0  0  0  0  0  0  0  0
   63.0730   31.9060   47.9380 C   0  0  0  0  0  0  0  0  0  0  0  0
   63.8140   33.2640   48.0160 C   0  0  0  0  0  0  0  0  0  0  0  0
   62.9420   34.2160   47.4100 O   0  0  0  0  0  0  0  0  0  0  0  0
   56.2769   29.2524   44.2076 H   0  0  0  0  0  0  0  0  0  0  0  0
   55.3800   30.4133   43.1711 H   0  0  0  0  0  0  0  0  0  0  0  0
   57.1763   30.4114   43.1711 H   0  0  0  0  0  0  0  0  0  0  0  0
   56.6184   33.8826   44.4742 H   0  0  0  0  0  0  0  0  0  0  0  0
   58.6193   35.1883   45.1630 H   0  0  0  0  0  0  0  0  0  0  0  0
   60.8010   35.2350   46.1890 H   0  0  0  0  0  0  0  0  0  0  0  0
   60.7204   29.8216   48.3008 H   0  0  0  0  0  0  0  0  0  0  0  0
   59.8253   29.4986   46.7773 H   0  0  0  0  0  0  0  0  0  0  0  0
   61.6215   29.5156   46.7773 H   0  0  0  0  0  0  0  0  0  0  0  0
   58.4064   30.2713   46.0516 H   0  0  0  0  0  0  0  0  0  0  0  0
   62.8881   31.4982   48.9428 H   0  0  0  0  0  0  0  0  0  0  0  0
   63.6444   31.1302   47.4073 H   0  0  0  0  0  0  0  0  0  0  0  0
   64.0083   33.5350   49.0642 H   0  0  0  0  0  0  0  0  0  0  0  0
   64.7881   33.2243   47.5065 H   0  0  0  0  0  0  0  0  0  0  0  0
  1  2  1  0
  2  3  1  0
  3  4  2  0
  4  5  1  0
  5  6  2  0
  6  7  1  0
  7  8  2  0
  8  9  1  0
  9 10  2  0
 10 11  1  0
 10 12  1  0
 12 13  2  0
  9 14  1  0
 14 15  1  0
 15 16  1  0
 13  3  1  0
 12  6  1  0
 16  8  1  0
  1 17  1  0
  1 18  1  0
  1 19  1  0
  4 20  1  0
  5 21  1  0
  7 22  1  0
 11 23  1  0
 11 24  1  0
 11 25  1  0
 13 26  1  0
 14 27  1  0
 14 28  1  0
 15 29  1  0
 15 30  1  0
M  CHG  1   7   1
M  END
>  <UniqueID>  (1) 
1

>  <SMILES>  (1) 
COc1ccc2[nH+]c3c(c(C)c2c1)CCO3

>  <Energy>  (1) 
52.08063694282151

>  <Genealogy>  (1) 
COc1ccc2[nH+]c3c(c(C)c2c1)CCO3 (protonated)
COc1ccc2[nH+]c3c(c(C)c2c1)CCO3 (3D coordinates assigned)
COc1ccc2[nH+]c3c(c(C)c2c1)CCO3 (nonaromatic ring conformer: 52.08063694282151 kcal/mol)

>  <smiles>  (1) 
COc1ccc2nc3c(c(C)c2c1)CCO3

>  <score_type>  (1) 
oracle

>  <origin>  (1) 
adg

>  <m_score__min__energy>  (1) 
-4.5999999999999996

>  <m_primary>  (1) 
energy

$$$$
1:0
     RDKit          3D

 43 45  0  0  0  0  0  0  0  0999 V2000
   65.6550   31.9120   50.1630 C   0  0  0  0  0  0  0  0  0  0  0  0
   65.1280   33.0160   49.4350 O   0  0  0  0  0  0  0  0  0  0  0  0
   63.7640   33.3420   49.3570 C   0  0  0  0  0  0  0  0  0  0  0  0
   62.9730   33.5020   50.5100 C   0  0  0  0  0  0  0  0  0  0  0  0
   61.6230   33.8300   50.3990 C   0  0  0  0  0  0  0  0  0  0  0  0
   61.0410   33.9980   49.1430 C   0  0  0  0  0  0  0  0  0  0  0  0
   61.8070   33.8370   47.9760 C   0  0  0  0  0  0  0  0  0  0  0  0
   61.1410   34.0050   46.6280 C   0  0  0  0  0  0  0  0  0  0  0  0
   60.1330   32.8860   46.3720 C   0  0  0  0  0  0  0  0  0  0  0  0
   60.4470   31.6380   46.9210 C   0  0  0  0  0  0  0  0  0  0  0  0
   59.7800   30.3990   46.8720 C   0  0  0  0  0  0  0  0  0  0  0  0
   60.4330   29.3550   47.5750 C   0  0  0  0  0  0  0  0  0  0  0  0
   59.9200   28.0670   47.6300 C   0  0  0  0  0  0  0  0  0  0  0  0
   58.7420   27.7580   46.9770 C   0  0  0  0  0  0  0  0  0  0  0  0
   58.2550   26.4440   47.0600 O   0  0  0  0  0  0  0  0  0  0  0  0
   57.4840   25.8030   46.0820 C   0  0  0  0  0  0  0  0  0  0  0  0
   58.0170   25.3460   45.0340 O   0  0  0  0  0  0  0  0  0  0  0  0
   56.0480   25.6100   46.3100 C   0  0  0  0  0  0  0  0  0  0  0  0
   55.1220   26.6110   45.8950 N   0  0  0  0  0  0  0  0  0  0  0  0
   55.6300   24.5630   46.8700 O   0  0  0  0  0  0  0  0  0  0  0  0
   58.0550   28.7690   46.2950 C   0  0  0  0  0  0  0  0  0  0  0  0
   58.5480   30.1050   46.2100 C   0  0  0  0  0  0  0  0  0  0  0  0
   57.7590   31.0210   45.4700 C   0  0  0  0  0  0  0  0  0  0  0  0
   56.6880   30.6070   44.9460 O   0  0  0  0  0  0  0  0  0  0  0  0
   58.0350   32.3220   45.2540 N   0  0  0  0  0  0  0  0  0  0  0  0
   59.0110   33.1870   45.5910 C   0  0  0  0  0  0  0  0  0  0  0  0
   58.8810   34.3640   45.1590 O   0  0  0  0  0  0  0  0  0  0  0  0
   63.1770   33.5140   48.0870 C   0  0  0  0  0  0  0  0  0  0  0  0
   63.9510   33.3690   46.9330 O   0  0  0  0  0  0  0  0  0  0  0  0
   65.5623   32.1063   51.2417 H   0  0  0  0  0  0  0  0  0  0  0  0
   65.0944   31.0014   49.9049 H   0  0  0  0  0  0  0  0  0  0  0  0
   66.7155   31.7752   49.9049 H   0  0  0  0  0  0  0  0  0  0  0  0
   63.4229   33.3674   51.5047 H   0  0  0  0  0  0  0  0  0  0  0  0
   61.0139   33.9569   51.3062 H   0  0  0  0  0  0  0  0  0  0  0  0
   59.9751   34.2583   49.0652 H   0  0  0  0  0  0  0  0  0  0  0  0
   60.6183   34.9726   46.6031 H   0  0  0  0  0  0  0  0  0  0  0  0
   61.9149   33.9648   45.8473 H   0  0  0  0  0  0  0  0  0  0  0  0
   61.3852   31.6219   47.4951 H   0  0  0  0  0  0  0  0  0  0  0  0
   61.3779   29.5735   48.0941 H   0  0  0  0  0  0  0  0  0  0  0  0
   60.4532   27.2887   48.1957 H   0  0  0  0  0  0  0  0  0  0  0  0
   54.1960   26.7120   46.3670 H   0  0  0  0  0  0  0  0  0  0  0  0
   57.1001   28.5244   45.8067 H   0  0  0  0  0  0  0  0  0  0  0  0
   64.9000   33.0180   46.9540 H   0  0  0  0  0  0  0  0  0  0  0  0
  1  2  1  0
  2  3  1  0
  3  4  2  0
  4  5  1  0
  5  6  2  0
  6  7  1  0
  7  8  1  0
  8  9  1  0
  9 10  2  0
 10 11  1  0
 11 12  2  0
 12 13  1  0
 13 14  2  0
 14 15  1  0
 15 16  1  0
 16 17  2  0
 16 18  1  0
 18 19  1  0
 18 20  2  0
 14 21  1  0
 21 22  2  0
 22 23  1  0
 23 24  2  0
 23 25  1  0
 25 26  1  0
 26 27  2  0
  7 28  2  0
 28 29  1  0
 28  3  1  0
 26  9  1  0
 22 11  1  0
  1 30  1  0
  1 31  1  0
  1 32  1  0
  4 33  1  0
  5 34  1  0
  6 35  1  0
  8 36  1  0
  8 37  1  0
 10 38  1  0
 12 39  1  0
 13 40  1  0
 19 41  1  0
 21 42  1  0
 29 43  1  0
M  CHG  2  19  -1  25  -1
M  END
>  <UniqueID>  (2) 
2

>  <SMILES>  (2) 
COc1cccc(Cc2cc3ccc(OC(=O)C([NH-])=O)cc3c(=O)[n-]c2=O)c1O

>  <Energy>  (2) 
83.96938767264687

>  <Genealogy>  (2) 
COc1cccc(Cc2cc3ccc(OC(=O)C([NH-])=O)cc3c(=O)[n-]c2=O)c1O (protonated)
COc1cccc(Cc2cc3ccc(OC(=O)C([NH-])=O)cc3c(=O)[n-]c2=O)c1O (3D coordinates assigned)
COc1cccc(Cc2cc3ccc(OC(=O)C([NH-])=O)cc3c(=O)[n-]c2=O)c1O (optimized conformer: 83.96938767264687 kcal/mol)

>  <smiles>  (2) 
COc1cccc(Cc2cc3ccc(OC(=O)C(N)=O)cc3c(=O)[nH]c2=O)c1O

>  <score_type>  (2) 
oracle

>  <origin>  (2) 
adg

>  <m_score__min__energy>  (2) 
-13.35

>  <m_primary>  (2) 
energy

$$$$
2:0
     RDKit          3D

 62 66  0  0  0  0  0  0  0  0999 V2000
   69.2941   24.8140   50.1333 H   0  0  0  0  0  0  0  0  0  0  0  0
   68.8080   25.7430   50.4660 C   0  0  0  0  0  0  0  0  0  0  0  0
   68.4560   25.9060   51.8100 C   0  0  0  0  0  0  0  0  0  0  0  0
   68.6670   25.1052   52.5340 H   0  0  0  0  0  0  0  0  0  0  0  0
   67.8370   27.0840   52.2340 C   0  0  0  0  0  0  0  0  0  0  0  0
   67.5631   27.2085   53.2921 H   0  0  0  0  0  0  0  0  0  0  0  0
   67.5620   28.1130   51.3130 C   0  0  0  0  0  0  0  0  0  0  0  0
   66.9340   29.3320   51.7510 N   0  0  0  0  0  0  0  0  0  0  0  0
   65.4770   29.4870   51.6170 C   0  0  0  0  0  0  0  0  0  0  0  0
   64.9792   28.7883   52.3055 H   0  0  0  0  0  0  0  0  0  0  0  0
   65.2037   29.2732   50.5732 H   0  0  0  0  0  0  0  0  0  0  0  0
   65.0260   30.9170   51.9470 C   0  0  0  0  0  0  0  0  0  0  0  0
   64.9993   31.0453   53.0392 H   0  0  0  0  0  0  0  0  0  0  0  0
   64.0251   31.0817   51.5215 H   0  0  0  0  0  0  0  0  0  0  0  0
   65.9570   31.8970   51.3670 N   0  0  0  0  0  0  0  0  0  0  0  0
   65.4600   33.1330   50.8180 C   0  0  0  0  0  0  0  0  0  0  0  0
   66.0430   34.2160   51.0980 O   0  0  0  0  0  0  0  0  0  0  0  0
   64.2800   33.1620   49.9260 C   0  0  0  0  0  0  0  0  0  0  0  0
   64.1160   32.1640   48.9530 C   0  0  0  0  0  0  0  0  0  0  0  0
   64.8632   31.3618   48.8631 H   0  0  0  0  0  0  0  0  0  0  0  0
   63.0120   32.1810   48.0980 C   0  0  0  0  0  0  0  0  0  0  0  0
   62.9016   31.3979   47.3334 H   0  0  0  0  0  0  0  0  0  0  0  0
   62.0410   33.1910   48.2070 C   0  0  0  0  0  0  0  0  0  0  0  0
   60.8680   33.2100   47.2950 C   0  0  0  0  0  0  0  0  0  0  0  0
   60.7420   34.1970   46.3070 C   0  0  0  0  0  0  0  0  0  0  0  0
   61.5186   34.9687   46.2006 H   0  0  0  0  0  0  0  0  0  0  0  0
   59.6350   34.2030   45.4590 C   0  0  0  0  0  0  0  0  0  0  0  0
   59.5366   34.9794   44.6860 H   0  0  0  0  0  0  0  0  0  0  0  0
   58.6510   33.2200   45.5940 C   0  0  0  0  0  0  0  0  0  0  0  0
   57.6260   33.2460   44.7880 N   0  0  0  0  0  0  0  0  0  0  0  0
   57.4090   32.3610   43.6480 C   0  0  0  0  0  0  0  0  0  0  0  0
   56.3856   32.4957   43.2678 H   0  0  0  0  0  0  0  0  0  0  0  0
   58.1285   32.6026   42.8517 H   0  0  0  0  0  0  0  0  0  0  0  0
   57.5990   30.9380   44.0820 C   0  0  0  0  0  0  0  0  0  0  0  0
   58.8890   30.3900   44.1750 C   0  0  0  0  0  0  0  0  0  0  0  0
   59.7638   30.9994   43.9040 H   0  0  0  0  0  0  0  0  0  0  0  0
   59.0660   29.0720   44.6110 C   0  0  0  0  0  0  0  0  0  0  0  0
   60.0779   28.6454   44.6744 H   0  0  0  0  0  0  0  0  0  0  0  0
   57.9580   28.2970   44.9660 C   0  0  0  0  0  0  0  0  0  0  0  0
   58.0978   27.2594   45.3035 H   0  0  0  0  0  0  0  0  0  0  0  0
   56.6720   28.8410   44.8920 C   0  0  0  0  0  0  0  0  0  0  0  0
   55.5980   28.0910   45.2470 F   0  0  0  0  0  0  0  0  0  0  0  0
   56.4920   30.1580   44.4570 C   0  0  0  0  0  0  0  0  0  0  0  0
   55.4795   30.5851   44.4082 H   0  0  0  0  0  0  0  0  0  0  0  0
   58.7860   32.2600   46.5620 N   0  0  0  0  0  0  0  0  0  0  0  0
   58.0690   31.5110   46.6850 H   0  0  0  0  0  0  0  0  0  0  0  0
   59.8580   32.2400   47.4000 C   0  0  0  0  0  0  0  0  0  0  0  0
   59.9342   31.4558   48.1677 H   0  0  0  0  0  0  0  0  0  0  0  0
   62.1930   34.1770   49.1980 C   0  0  0  0  0  0  0  0  0  0  0  0
   61.4343   34.9667   49.3018 H   0  0  0  0  0  0  0  0  0  0  0  0
   63.3000   34.1630   50.0530 C   0  0  0  0  0  0  0  0  0  0  0  0
   63.3930   35.1050   51.0250 F   0  0  0  0  0  0  0  0  0  0  0  0
   67.4070   31.7320   51.5450 C   0  0  0  0  0  0  0  0  0  0  0  0
   67.7953   32.5845   52.1216 H   0  0  0  0  0  0  0  0  0  0  0  0
   67.8732   31.6865   50.5497 H   0  0  0  0  0  0  0  0  0  0  0  0
   67.7390   30.4350   52.2900 C   0  0  0  0  0  0  0  0  0  0  0  0
   67.5160   30.5610   53.3598 H   0  0  0  0  0  0  0  0  0  0  0  0
   68.8063   30.2037   52.1586 H   0  0  0  0  0  0  0  0  0  0  0  0
   67.9240   27.9420   49.9660 C   0  0  0  0  0  0  0  0  0  0  0  0
   67.7203   28.7414   49.2383 H   0  0  0  0  0  0  0  0  0  0  0  0
   68.5420   26.7600   49.5470 C   0  0  0  0  0  0  0  0  0  0  0  0
   68.8194   26.6308   48.4904 H   0  0  0  0  0  0  0  0  0  0  0  0
  1  2  1  0
  2  3  2  0
  3  4  1  0
  3  5  1  0
  5  6  1  0
  5  7  2  0
  7  8  1  0
  8  9  1  0
  9 10  1  0
  9 11  1  0
  9 12  1  0
 12 13  1  0
 12 14  1  0
 12 15  1  0
 15 16  1  0
 16 17  2  0
 16 18  1  0
 18 19  2  0
 19 20  1  0
 19 21  1  0
 21 22  1  0
 21 23  2  0
 23 24  1  0
 24 25  1  0
 25 26  1  0
 25 27  2  0
 27 28  1  0
 27 29  1  0
 29 30  2  0
 30 31  1  0
 31 32  1  0
 31 33  1  0
 31 34  1  0
 34 35  2  0
 35 36  1  0
 35 37  1  0
 37 38  1  0
 37 39  2  0
 39 40  1  0
 39 41  1  0
 41 42  1  0
 41 43  2  0
 43 44  1  0
 29 45  1  0
 45 46  1  0
 45 47  1  0
 47 48  1  0
 23 49  1  0
 49 50  1  0
 49 51  2  0
 51 52  1  0
 15 53  1  0
 53 54  1  0
 53 55  1  0
 53 56  1  0
 56 57  1  0
 56 58  1  0
  7 59  1  0
 59 60  1  0
 59 61  2  0
 61 62  1  0
 61  2  1  0
 56  8  1  0
 51 18  1  0
 47 24  2  0
 43 34  1  0
M  END
>  <UniqueID>  (3) 
3

>  <SMILES>  (3) 
O=C(c1ccc(-c2cc/c(=N/Cc3cccc(F)c3)[nH]c2)cc1F)N1CCN(c2ccccc2)CC1

>  <Energy>  (3) 
84.2021769503511

>  <Genealogy>  (3) 
O=C(c1ccc(-c2cc/c(=N/Cc3cccc(F)c3)[nH]c2)cc1F)N1CCN(c2ccccc2)CC1 (cis-trans isomerization)
O=C(c1ccc(-c2cc/c(=N/Cc3cccc(F)c3)[nH]c2)cc1F)N1CCN(c2ccccc2)CC1 (3D coordinates assigned)
O=C(c1ccc(-c2cc/c(=N/Cc3cccc(F)c3)[nH]c2)cc1F)N1CCN(c2ccccc2)CC1 (nonaromatic ring conformer: 84.2021769503511 kcal/mol)

>  <smiles>  (3) 
O=C(c1ccc(-c2ccc(=NCc3cccc(F)c3)[nH]c2)cc1F)N1CCN(c2ccccc2)CC1

>  <score_type>  (3) 
oracle

>  <origin>  (3) 
adg

>  <m_score__min__energy>  (3) 
-9.2100000000000009

>  <m_primary>  (3) 
energy

$$$$
3:0
     RDKit          3D

 49 51  0  0  0  0  0  0  0  0999 V2000
   63.7120   32.7550   47.1120 C   0  0  0  0  0  0  0  0  0  0  0  0
   62.7620   33.7930   47.3310 O   0  0  0  0  0  0  0  0  0  0  0  0
   61.6140   33.6680   48.1300 C   0  0  0  0  0  0  0  0  0  0  0  0
   61.6780   33.7590   49.5360 C   0  0  0  0  0  0  0  0  0  0  0  0
   60.5220   33.6250   50.3070 C   0  0  0  0  0  0  0  0  0  0  0  0
   59.2920   33.4040   49.6890 C   0  0  0  0  0  0  0  0  0  0  0  0
   59.2120   33.3150   48.2990 C   0  0  0  0  0  0  0  0  0  0  0  0
   60.3690   33.4390   47.5050 C   0  0  0  0  0  0  0  0  0  0  0  0
   60.2980   33.3440   46.0690 N   0  0  0  0  0  0  0  0  0  0  0  0
   58.8210   33.4850   45.1680 S   0  0  0  0  0  0  0  0  0  0  0  0
   59.1380   33.8600   43.7490 O   0  0  0  0  0  0  0  0  0  0  0  0
   57.9710   34.5630   45.7820 O   0  0  0  0  0  0  0  0  0  0  0  0
   57.9690   31.9440   45.1670 C   0  0  0  0  0  0  0  0  0  0  0  0
   57.1190   31.6010   44.1070 C   0  0  0  0  0  0  0  0  0  0  0  0
   56.4360   30.3810   44.1180 C   0  0  0  0  0  0  0  0  0  0  0  0
   56.6030   29.4880   45.1920 C   0  0  0  0  0  0  0  0  0  0  0  0
   55.9270   28.2260   45.2430 N   0  0  0  0  0  0  0  0  0  0  0  0
   56.5600   26.7780   45.9570 S   0  0  0  0  0  0  0  0  0  0  0  0
   57.0190   27.0790   47.3560 O   0  0  0  0  0  0  0  0  0  0  0  0
   55.5100   25.7050   45.9900 O   0  0  0  0  0  0  0  0  0  0  0  0
   57.9360   26.2080   45.0110 C   0  0  0  0  0  0  0  0  0  0  0  0
   59.2140   26.3110   45.4040 C   0  0  0  0  0  0  0  0  0  0  0  0
   59.7870   27.4980   46.0660 C   0  0  0  0  0  0  0  0  0  0  0  0
   59.8070   27.5630   47.4670 C   0  0  0  0  0  0  0  0  0  0  0  0
   60.3260   28.6900   48.1120 C   0  0  0  0  0  0  0  0  0  0  0  0
   60.8460   29.7490   47.3620 C   0  0  0  0  0  0  0  0  0  0  0  0
   60.8580   29.6760   45.9660 C   0  0  0  0  0  0  0  0  0  0  0  0
   60.3410   28.5510   45.3180 C   0  0  0  0  0  0  0  0  0  0  0  0
   57.4490   29.8370   46.2500 C   0  0  0  0  0  0  0  0  0  0  0  0
   58.1350   31.0550   46.2360 C   0  0  0  0  0  0  0  0  0  0  0  0
   64.0643   32.3701   48.0804 H   0  0  0  0  0  0  0  0  0  0  0  0
   63.2402   31.9402   46.5432 H   0  0  0  0  0  0  0  0  0  0  0  0
   64.5653   33.1529   46.5432 H   0  0  0  0  0  0  0  0  0  0  0  0
   62.6454   33.9368   50.0284 H   0  0  0  0  0  0  0  0  0  0  0  0
   60.5816   33.6939   51.4032 H   0  0  0  0  0  0  0  0  0  0  0  0
   58.3825   33.2996   50.2988 H   0  0  0  0  0  0  0  0  0  0  0  0
   58.2368   33.1465   47.8188 H   0  0  0  0  0  0  0  0  0  0  0  0
   61.1490   33.0770   45.5260 H   0  0  0  0  0  0  0  0  0  0  0  0
   56.9886   32.2943   43.2630 H   0  0  0  0  0  0  0  0  0  0  0  0
   55.7668   30.1190   43.2852 H   0  0  0  0  0  0  0  0  0  0  0  0
   57.7327   25.7384   44.0373 H   0  0  0  0  0  0  0  0  0  0  0  0
   59.8787   25.4539   45.2206 H   0  0  0  0  0  0  0  0  0  0  0  0
   59.4131   26.7247   48.0603 H   0  0  0  0  0  0  0  0  0  0  0  0
   60.3251   28.7433   49.2107 H   0  0  0  0  0  0  0  0  0  0  0  0
   61.2455   30.6391   47.8700 H   0  0  0  0  0  0  0  0  0  0  0  0
   61.2752   30.5057   45.3765 H   0  0  0  0  0  0  0  0  0  0  0  0
   60.3677   28.4895   44.2200 H   0  0  0  0  0  0  0  0  0  0  0  0
   57.5753   29.1485   47.0985 H   0  0  0  0  0  0  0  0  0  0  0  0
   58.8070   31.3157   47.0670 H   0  0  0  0  0  0  0  0  0  0  0  0
  1  2  1  0
  2  3  1  0
  3  4  2  0
  4  5  1  0
  5  6  2  0
  6  7  1  0
  7  8  2  0
  8  9  1  0
  9 10  1  0
 10 11  2  0
 10 12  2  0
 10 13  1  0
 13 14  2  0
 14 15  1  0
 15 16  2  0
 16 17  1  0
 17 18  1  0
 18 19  2  0
 18 20  2  0
 18 21  1  0
 21 22  2  3
 22 23  1  0
 23 24  2  0
 24 25  1  0
 25 26  2  0
 26 27  1  0
 27 28  2  0
 16 29  1  0
 29 30  2  0
  8  3  1  0
 30 13  1  0
 28 23  1  0
  1 31  1  0
  1 32  1  0
  1 33  1  0
  4 34  1  0
  5 35  1  0
  6 36  1  0
  7 37  1  0
  9 38  1  0
 14 39  1  0
 15 40  1  0
 21 41  1  0
 22 42  1  0
 24 43  1  0
 25 44  1  0
 26 45  1  0
 27 46  1  0
 28 47  1  0
 29 48  1  0
 30 49  1  0
M  CHG  1  17  -1
M  END
>  <UniqueID>  (4) 
4

>  <SMILES>  (4) 
COc1ccccc1NS(=O)(=O)c1ccc([N-]S(=O)(=O)C=Cc2ccccc2)cc1

>  <Energy>  (4) 
63.39513754506079

>  <Genealogy>  (4) 
COc1ccccc1NS(=O)(=O)c1ccc([N-]S(=O)(=O)C=Cc2ccccc2)cc1 (protonated)
COc1ccccc1NS(=O)(=O)c1ccc([N-]S(=O)(=O)C=Cc2ccccc2)cc1 (3D coordinates assigned)
COc1ccccc1NS(=O)(=O)c1ccc([N-]S(=O)(=O)C=Cc2ccccc2)cc1 (optimized conformer: 63.39513754506079 kcal/mol)

>  <smiles>  (4) 
COc1ccccc1NS(=O)(=O)c1ccc(NS(=O)(=O)C=Cc2ccccc2)cc1

>  <score_type>  (4) 
oracle

>  <origin>  (4) 
adg

>  <m_score__min__energy>  (4) 
-10.77

>  <m_primary>  (4) 
energy

$$$$
4:0
     RDKit          3D

 44 46  0  0  0  0  0  0  0  0999 V2000
   59.6380   33.9280   48.8690 C   0  0  0  0  0  0  0  0  0  0  0  0
   59.1390   33.9260   47.4530 C   0  0  0  0  0  0  0  0  0  0  0  0
   59.5770   34.9130   46.5590 C   0  0  0  0  0  0  0  0  0  0  0  0
   59.1130   34.9270   45.2420 C   0  0  0  0  0  0  0  0  0  0  0  0
   58.2080   33.9560   44.8080 C   0  0  0  0  0  0  0  0  0  0  0  0
   57.7670   32.9560   45.6830 C   0  0  0  0  0  0  0  0  0  0  0  0
   56.8250   31.9890   45.1990 N   0  0  0  0  0  0  0  0  0  0  0  0
   57.1650   30.7570   44.0240 S   0  0  0  0  0  0  0  0  0  0  0  0
   58.2910   31.2230   43.1430 O   0  0  0  0  0  0  0  0  0  0  0  0
   55.9430   30.5330   43.1810 O   0  0  0  0  0  0  0  0  0  0  0  0
   57.5970   29.2410   44.8090 C   0  0  0  0  0  0  0  0  0  0  0  0
   58.9400   28.8780   44.9720 C   0  0  0  0  0  0  0  0  0  0  0  0
   59.2690   27.6600   45.5740 C   0  0  0  0  0  0  0  0  0  0  0  0
   58.2610   26.8000   46.0140 C   0  0  0  0  0  0  0  0  0  0  0  0
   56.9150   27.1480   45.8520 C   0  0  0  0  0  0  0  0  0  0  0  0
   55.9060   26.2560   46.3520 N   0  0  0  0  0  0  0  0  0  0  0  0
   55.2720   25.1950   45.6260 C   0  0  0  0  0  0  0  0  0  0  0  0
   54.0150   25.1240   45.6320 O   0  0  0  0  0  0  0  0  0  0  0  0
   56.0540   24.1320   44.9570 C   0  0  0  0  0  0  0  0  0  0  0  0
   57.3820   23.9090   45.3610 C   0  0  0  0  0  0  0  0  0  0  0  0
   58.1380   22.8810   44.7840 C   0  0  0  0  0  0  0  0  0  0  0  0
   59.4790   22.6290   45.2350 C   0  0  0  0  0  0  0  0  0  0  0  0
   60.5570   22.4300   45.6010 N   0  0  0  0  0  0  0  0  0  0  0  0
   57.5740   22.0750   43.7920 C   0  0  0  0  0  0  0  0  0  0  0  0
   56.2600   22.2970   43.3730 C   0  0  0  0  0  0  0  0  0  0  0  0
   55.4950   23.3220   43.9410 C   0  0  0  0  0  0  0  0  0  0  0  0
   54.2010   23.5260   43.4550 O   0  0  0  0  0  0  0  0  0  0  0  0
   56.5890   28.3860   45.2690 C   0  0  0  0  0  0  0  0  0  0  0  0
   58.2460   32.9370   47.0080 C   0  0  0  0  0  0  0  0  0  0  0  0
   58.7817   33.9246   49.5595 H   0  0  0  0  0  0  0  0  0  0  0  0
   60.2525   33.0323   49.0425 H   0  0  0  0  0  0  0  0  0  0  0  0
   60.2453   34.8286   49.0425 H   0  0  0  0  0  0  0  0  0  0  0  0
   60.2895   35.6800   46.8965 H   0  0  0  0  0  0  0  0  0  0  0  0
   59.4609   35.7040   44.5454 H   0  0  0  0  0  0  0  0  0  0  0  0
   57.8392   33.9770   43.7719 H   0  0  0  0  0  0  0  0  0  0  0  0
   59.7370   29.5524   44.6258 H   0  0  0  0  0  0  0  0  0  0  0  0
   60.3247   27.3784   45.7014 H   0  0  0  0  0  0  0  0  0  0  0  0
   58.5259   25.8445   46.4902 H   0  0  0  0  0  0  0  0  0  0  0  0
   57.8308   24.5471   46.1365 H   0  0  0  0  0  0  0  0  0  0  0  0
   58.1652   21.2647   43.3404 H   0  0  0  0  0  0  0  0  0  0  0  0
   55.8227   21.6605   42.5896 H   0  0  0  0  0  0  0  0  0  0  0  0
   53.6110   24.2910   43.7560 H   0  0  0  0  0  0  0  0  0  0  0  0
   55.5344   28.6842   45.1740 H   0  0  0  0  0  0  0  0  0  0  0  0
   57.9193   32.1442   47.6970 H   0  0  0  0  0  0  0  0  0  0  0  0
  1  2  1  0
  2  3  2  0
  3  4  1  0
  4  5  2  0
  5  6  1  0
  6  7  1  0
  7  8  1  0
  8  9  2  0
  8 10  2  0
  8 11  1  0
 11 12  2  0
 12 13  1  0
 13 14  2  0
 14 15  1  0
 15 16  1  0
 16 17  1  0
 17 18  2  0
 17 19  1  0
 19 20  2  0
 20 21  1  0
 21 22  1  0
 22 23  3  0
 21 24  2  0
 24 25  1  0
 25 26  2  0
 26 27  1  0
 15 28  2  0
  6 29  2  0
 29  2  1  0
 28 11  1  0
 26 19  1  0
  1 30  1  0
  1 31  1  0
  1 32  1  0
  3 33  1  0
  4 34  1  0
  5 35  1  0
 12 36  1  0
 13 37  1  0
 14 38  1  0
 20 39  1  0
 24 40  1  0
 25 41  1  0
 27 42  1  0
 28 43  1  0
 29 44  1  0
M  CHG  2   7  -1  16  -1
M  END
>  <UniqueID>  (5) 
5

>  <SMILES>  (5) 
Cc1cccc([N-]S(=O)(=O)c2cccc([N-]C(=O)c3cc(C#N)ccc3O)c2)c1

>  <Energy>  (5) 
55.92083244361242

>  <Genealogy>  (5) 
Cc1cccc([N-]S(=O)(=O)c2cccc([N-]C(=O)c3cc(C#N)ccc3O)c2)c1 (protonated)
Cc1cccc([N-]S(=O)(=O)c2cccc([N-]C(=O)c3cc(C#N)ccc3O)c2)c1 (3D coordinates assigned)
Cc1cccc([N-]S(=O)(=O)c2cccc([N-]C(=O)c3cc(C#N)ccc3O)c2)c1 (optimized conformer: 55.92083244361242 kcal/mol)

>  <smiles>  (5) 
Cc1cccc(NS(=O)(=O)c2cccc(NC(=O)c3cc(C#N)ccc3O)c2)c1

>  <score_type>  (5) 
oracle

>  <origin>  (5) 
adg

>  <m_score__min__energy>  (5) 
-12.869999999999999

>  <m_primary>  (5) 
energy

$$$$
5:0
     RDKit          3D

 46 49  0  0  0  0  0  0  0  0999 V2000
   60.9760   30.2040   46.9160 O   0  0  0  0  0  0  0  0  0  0  0  0
   60.3390   30.8050   47.8230 C   0  0  0  0  0  0  0  0  0  0  0  0
   59.0110   30.2890   48.2620 C   0  0  0  0  0  0  0  0  0  0  0  0
   58.5870   29.2960   47.3360 O   0  0  0  0  0  0  0  0  0  0  0  0
   58.1140   29.5540   46.0440 C   0  0  0  0  0  0  0  0  0  0  0  0
   57.7640   30.8530   45.6020 C   0  0  0  0  0  0  0  0  0  0  0  0
   57.2940   31.0630   44.2890 C   0  0  0  0  0  0  0  0  0  0  0  0
   57.1600   29.9850   43.3990 C   0  0  0  0  0  0  0  0  0  0  0  0
   57.5060   28.7140   43.8540 C   0  0  0  0  0  0  0  0  0  0  0  0
   57.4290   27.5610   43.1680 N   0  0  0  0  0  0  0  0  0  0  0  0
   57.8510   26.5930   44.0110 C   0  0  0  0  0  0  0  0  0  0  0  0
   58.2070   27.1390   45.2400 C   0  0  0  0  0  0  0  0  0  0  0  0
   58.6670   26.3710   46.4430 C   0  0  0  0  0  0  0  0  0  0  0  0
   57.7100   25.2590   46.7470 C   0  0  0  0  0  0  0  0  0  0  0  0
   58.0930   24.0200   47.1010 N   0  0  0  0  0  0  0  0  0  0  0  0
   56.9250   23.3820   47.3260 C   0  0  0  0  0  0  0  0  0  0  0  0
   56.8680   22.1720   47.6690 O   0  0  0  0  0  0  0  0  0  0  0  0
   55.8220   24.1400   47.1510 N   0  0  0  0  0  0  0  0  0  0  0  0
   56.3320   25.3300   46.7930 C   0  0  0  0  0  0  0  0  0  0  0  0
   55.5480   26.4480   46.5250 O   0  0  0  0  0  0  0  0  0  0  0  0
   57.9700   28.5020   45.1290 C   0  0  0  0  0  0  0  0  0  0  0  0
   60.9130   31.9290   48.4960 N   0  0  0  0  0  0  0  0  0  0  0  0
   60.0740   33.4270   48.7220 S   0  0  0  0  0  0  0  0  0  0  0  0
   59.1020   33.3190   49.8650 O   0  0  0  0  0  0  0  0  0  0  0  0
   61.0760   34.4980   49.0490 O   0  0  0  0  0  0  0  0  0  0  0  0
   59.2110   33.8280   47.2400 C   0  0  0  0  0  0  0  0  0  0  0  0
   59.9040   34.3010   46.1140 C   0  0  0  0  0  0  0  0  0  0  0  0
   59.2130   34.5660   44.9270 C   0  0  0  0  0  0  0  0  0  0  0  0
   57.8320   34.3590   44.8570 C   0  0  0  0  0  0  0  0  0  0  0  0
   57.1390   33.8930   45.9760 C   0  0  0  0  0  0  0  0  0  0  0  0
   57.8260   33.6270   47.1650 C   0  0  0  0  0  0  0  0  0  0  0  0
   59.0971   29.8481   49.2661 H   0  0  0  0  0  0  0  0  0  0  0  0
   58.2795   31.1097   48.2976 H   0  0  0  0  0  0  0  0  0  0  0  0
   57.8596   31.7065   46.2894 H   0  0  0  0  0  0  0  0  0  0  0  0
   57.0304   32.0789   43.9595 H   0  0  0  0  0  0  0  0  0  0  0  0
   56.7930   30.1392   42.3736 H   0  0  0  0  0  0  0  0  0  0  0  0
   57.0980   27.4320   42.1850 H   0  0  0  0  0  0  0  0  0  0  0  0
   57.9054   25.5233   43.7606 H   0  0  0  0  0  0  0  0  0  0  0  0
   59.6631   25.9485   46.2448 H   0  0  0  0  0  0  0  0  0  0  0  0
   58.7113   27.0511   47.3064 H   0  0  0  0  0  0  0  0  0  0  0  0
   54.7760   26.7160   47.1250 H   0  0  0  0  0  0  0  0  0  0  0  0
   60.9908   34.4632   46.1654 H   0  0  0  0  0  0  0  0  0  0  0  0
   59.7574   34.9381   44.0466 H   0  0  0  0  0  0  0  0  0  0  0  0
   57.2917   34.5632   43.9208 H   0  0  0  0  0  0  0  0  0  0  0  0
   56.0517   33.7349   45.9225 H   0  0  0  0  0  0  0  0  0  0  0  0
   57.2773   33.2587   48.0444 H   0  0  0  0  0  0  0  0  0  0  0  0
  1  2  2  0
  2  3  1  0
  3  4  1  0
  4  5  1  0
  5  6  2  0
  6  7  1  0
  7  8  2  0
  8  9  1  0
  9 10  1  0
 10 11  1  0
 11 12  2  0
 12 13  1  0
 13 14  1  0
 14 15  1  0
 15 16  1  0
 16 17  2  0
 16 18  1  0
 18 19  1  0
 19 20  1  0
 12 21  1  0
  2 22  1  0
 22 23  1  0
 23 24  2  0
 23 25  2  0
 23 26  1  0
 26 27  2  0
 27 28  1  0
 28 29  2  0
 29 30  1  0
 30 31  2  0
 21  5  1  0
 31 26  1  0
 21  9  2  0
 19 14  2  0
  3 32  1  0
  3 33  1  0
  6 34  1  0
  7 35  1  0
  8 36  1  0
 10 37  1  0
 11 38  1  0
 13 39  1  0
 13 40  1  0
 20 41  1  0
 27 42  1  0
 28 43  1  0
 29 44  1  0
 30 45  1  0
 31 46  1  0
M  CHG  3  15  -1  18  -1  22  -1
M  END
>  <UniqueID>  (6) 
6

>  <SMILES>  (6) 
O=C(COc1cccc2[nH]cc(Cc3[n-]c(=O)[n-]c3O)c12)[N-]S(=O)(=O)c1ccccc1

>  <Energy>  (6) 
104.88329423190677

>  <Genealogy>  (6) 
O=C(COc1cccc2[nH]cc(Cc3[n-]c(=O)[n-]c3O)c12)[N-]S(=O)(=O)c1ccccc1 (protonated)
O=C(COc1cccc2[nH]cc(Cc3[n-]c(=O)[n-]c3O)c12)[N-]S(=O)(=O)c1ccccc1 (3D coordinates assigned)
O=C(COc1cccc2[nH]cc(Cc3[n-]c(=O)[n-]c3O)c12)[N-]S(=O)(=O)c1ccccc1 (optimized conformer: 104.88329423190677 kcal/mol)

>  <smiles>  (6) 
O=C(COc1cccc2[nH]cc(Cc3[nH]c(=O)[nH]c3O)c12)NS(=O)(=O)c1ccccc1

>  <score_type>  (6) 
oracle

>  <origin>  (6) 
adg

>  <m_score__min__energy>  (6) 
-14.119999999999999

>  <m_primary>  (6) 
energy

$$$$
6:0
     RDKit          3D

 45 47  0  0  0  0  0  0  0  0999 V2000
   57.7520   27.8360   43.3400 C   0  0  0  0  0  0  0  0  0  0  0  0
   57.6100   28.8300   44.4460 C   0  0  0  0  0  0  0  0  0  0  0  0
   56.8210   28.5850   45.3990 O   0  0  0  0  0  0  0  0  0  0  0  0
   58.4390   30.0020   44.4640 N   0  0  0  0  0  0  0  0  0  0  0  0
   58.2590   31.1060   45.3690 C   0  0  0  0  0  0  0  0  0  0  0  0
   57.5840   32.2520   44.9270 C   0  0  0  0  0  0  0  0  0  0  0  0
   57.3890   33.3340   45.7890 C   0  0  0  0  0  0  0  0  0  0  0  0
   57.8440   33.2720   47.1080 C   0  0  0  0  0  0  0  0  0  0  0  0
   58.4800   32.1110   47.5820 C   0  0  0  0  0  0  0  0  0  0  0  0
   58.9670   32.0060   48.9270 N   0  0  0  0  0  0  0  0  0  0  0  0
   58.5210   31.0820   49.9300 C   0  0  0  0  0  0  0  0  0  0  0  0
   58.3440   29.8700   49.6270 O   0  0  0  0  0  0  0  0  0  0  0  0
   58.3320   31.5440   51.3320 C   0  0  0  0  0  0  0  0  0  0  0  0
   59.3190   32.3590   51.9220 C   0  0  0  0  0  0  0  0  0  0  0  0
   59.1820   32.8120   53.2350 C   0  0  0  0  0  0  0  0  0  0  0  0
   58.0530   32.4730   53.9760 C   0  0  0  0  0  0  0  0  0  0  0  0
   57.0600   31.6720   53.4120 C   0  0  0  0  0  0  0  0  0  0  0  0
   57.1930   31.1830   52.0980 C   0  0  0  0  0  0  0  0  0  0  0  0
   56.1450   30.4000   51.5020 N   0  0  0  0  0  0  0  0  0  0  0  0
   54.9860   29.8720   52.1610 C   0  0  0  0  0  0  0  0  0  0  0  0
   55.0390   28.7500   52.7350 O   0  0  0  0  0  0  0  0  0  0  0  0
   53.7070   30.6210   52.1210 C   0  0  0  0  0  0  0  0  0  0  0  0
   52.9290   30.7720   53.2850 C   0  0  0  0  0  0  0  0  0  0  0  0
   51.7240   31.4790   53.2440 C   0  0  0  0  0  0  0  0  0  0  0  0
   51.2810   32.0430   52.0440 C   0  0  0  0  0  0  0  0  0  0  0  0
   50.0830   32.7450   52.0060 O   0  0  0  0  0  0  0  0  0  0  0  0
   52.0450   31.9000   50.8830 C   0  0  0  0  0  0  0  0  0  0  0  0
   53.2500   31.1930   50.9190 C   0  0  0  0  0  0  0  0  0  0  0  0
   58.6960   31.0400   46.7050 C   0  0  0  0  0  0  0  0  0  0  0  0
   57.8954   26.8319   43.7656 H   0  0  0  0  0  0  0  0  0  0  0  0
   56.8434   27.8451   42.7200 H   0  0  0  0  0  0  0  0  0  0  0  0
   58.6217   28.0991   42.7200 H   0  0  0  0  0  0  0  0  0  0  0  0
   59.2730   30.0160   43.8330 H   0  0  0  0  0  0  0  0  0  0  0  0
   57.2055   32.2998   43.8953 H   0  0  0  0  0  0  0  0  0  0  0  0
   56.8756   34.2373   45.4278 H   0  0  0  0  0  0  0  0  0  0  0  0
   57.7045   34.1335   47.7776 H   0  0  0  0  0  0  0  0  0  0  0  0
   60.2087   32.6417   51.3402 H   0  0  0  0  0  0  0  0  0  0  0  0
   59.9669   33.4376   53.6850 H   0  0  0  0  0  0  0  0  0  0  0  0
   57.9439   32.8375   55.0081 H   0  0  0  0  0  0  0  0  0  0  0  0
   56.1646   31.4199   53.9991 H   0  0  0  0  0  0  0  0  0  0  0  0
   53.2718   30.3307   54.2325 H   0  0  0  0  0  0  0  0  0  0  0  0
   51.1228   31.5919   54.1582 H   0  0  0  0  0  0  0  0  0  0  0  0
   51.6974   32.3447   49.9388 H   0  0  0  0  0  0  0  0  0  0  0  0
   53.8458   31.0828   50.0009 H   0  0  0  0  0  0  0  0  0  0  0  0
   59.2127   30.1379   47.0646 H   0  0  0  0  0  0  0  0  0  0  0  0
  1  2  1  0
  2  3  2  0
  2  4  1  0
  4  5  1  0
  5  6  2  0
  6  7  1  0
  7  8  2  0
  8  9  1  0
  9 10  1  0
 10 11  1  0
 11 12  2  0
 11 13  1  0
 13 14  2  0
 14 15  1  0
 15 16  2  0
 16 17  1  0
 17 18  2  0
 18 19  1  0
 19 20  1  0
 20 21  2  0
 20 22  1  0
 22 23  2  0
 23 24  1  0
 24 25  2  0
 25 26  1  0
 25 27  1  0
 27 28  2  0
  9 29  2  0
 29  5  1  0
 18 13  1  0
 28 22  1  0
  1 30  1  0
  1 31  1  0
  1 32  1  0
  4 33  1  0
  6 34  1  0
  7 35  1  0
  8 36  1  0
 14 37  1  0
 15 38  1  0
 16 39  1  0
 17 40  1  0
 23 41  1  0
 24 42  1  0
 27 43  1  0
 28 44  1  0
 29 45  1  0
M  CHG  3  10  -1  19  -1  26  -1
M  END
>  <UniqueID>  (7) 
7

>  <SMILES>  (7) 
CC(=O)Nc1cccc([N-]C(=O)c2ccccc2[N-]C(=O)c2ccc([O-])cc2)c1

>  <Energy>  (7) 
60.561229010677884

>  <Genealogy>  (7) 
CC(=O)Nc1cccc([N-]C(=O)c2ccccc2[N-]C(=O)c2ccc([O-])cc2)c1 (protonated)
CC(=O)Nc1cccc([N-]C(=O)c2ccccc2[N-]C(=O)c2ccc([O-])cc2)c1 (3D coordinates assigned)
CC(=O)Nc1cccc([N-]C(=O)c2ccccc2[N-]C(=O)c2ccc([O-])cc2)c1 (optimized conformer: 60.561229010677884 kcal/mol)

>  <smiles>  (7) 
CC(=O)Nc1cccc(NC(=O)c2ccccc2NC(=O)c2ccc(O)cc2)c1

>  <score_type>  (7) 
oracle

>  <origin>  (7) 
adg

>  <m_score__min__energy>  (7) 
-15.199999999999999

>  <m_primary>  (7) 
energy

$$$$
7:0
     RDKit          3D

 27 28  0  0  0  0  0  0  0  0999 V2000
   58.4770   27.0460   43.4310 N   0  0  0  0  0  0  0  0  0  0  0  0
   57.7640   26.5380   44.5700 C   0  0  0  0  0  0  0  0  0  0  0  0
   57.7840   27.2150   45.8050 C   0  0  0  0  0  0  0  0  0  0  0  0
   58.5350   28.4730   45.9930 C   0  0  0  0  0  0  0  0  0  0  0  0
   59.7240   28.4370   46.7370 C   0  0  0  0  0  0  0  0  0  0  0  0
   60.4700   29.6010   46.9320 C   0  0  0  0  0  0  0  0  0  0  0  0
   60.0350   30.8100   46.3890 C   0  0  0  0  0  0  0  0  0  0  0  0
   58.8510   30.8600   45.6500 C   0  0  0  0  0  0  0  0  0  0  0  0
   58.0880   29.6980   45.4450 C   0  0  0  0  0  0  0  0  0  0  0  0
   56.5850   29.8030   44.5130 S   0  0  0  0  0  0  0  0  0  0  0  0
   56.8620   29.2630   42.8940 N   0  0  0  0  0  0  0  0  0  0  0  0
   56.0990   31.2240   44.4970 O   0  0  0  0  0  0  0  0  0  0  0  0
   55.5250   28.9370   45.1370 O   0  0  0  0  0  0  0  0  0  0  0  0
   57.0970   26.6640   46.8910 C   0  0  0  0  0  0  0  0  0  0  0  0
   56.4070   25.5060   46.7350 N   0  0  0  0  0  0  0  0  0  0  0  0
   56.3740   24.8690   45.5640 N   0  0  0  0  0  0  0  0  0  0  0  0
   57.0300   25.3450   44.4740 C   0  0  0  0  0  0  0  0  0  0  0  0
   56.9730   24.7070   43.3900 O   0  0  0  0  0  0  0  0  0  0  0  0
   58.6310   28.0690   43.2920 H   0  0  0  0  0  0  0  0  0  0  0  0
   58.8650   26.4020   42.7070 H   0  0  0  0  0  0  0  0  0  0  0  0
   60.0703   27.4865   47.1690 H   0  0  0  0  0  0  0  0  0  0  0  0
   61.4022   29.5646   47.5148 H   0  0  0  0  0  0  0  0  0  0  0  0
   60.6253   31.7253   46.5431 H   0  0  0  0  0  0  0  0  0  0  0  0
   58.5131   31.8167   45.2250 H   0  0  0  0  0  0  0  0  0  0  0  0
   57.8890   29.3410   42.7170 H   0  0  0  0  0  0  0  0  0  0  0  0
   56.6260   28.2460   42.8660 H   0  0  0  0  0  0  0  0  0  0  0  0
   57.1158   27.1676   47.8688 H   0  0  0  0  0  0  0  0  0  0  0  0
  1  2  1  0
  2  3  2  0
  3  4  1  0
  4  5  2  0
  5  6  1  0
  6  7  2  0
  7  8  1  0
  8  9  2  0
  9 10  1  0
 10 11  1  0
 10 12  2  0
 10 13  2  0
  3 14  1  0
 14 15  2  0
 15 16  1  0
 16 17  1  0
 17 18  2  0
 17  2  1  0
  9  4  1  0
  1 19  1  0
  1 20  1  0
  5 21  1  0
  6 22  1  0
  7 23  1  0
  8 24  1  0
 11 25  1  0
 11 26  1  0
 14 27  1  0
M  CHG  1  16  -1
M  END
>  <UniqueID>  (8) 
8

>  <SMILES>  (8) 
Nc1c(-c2ccccc2S(N)(=O)=O)cn[n-]c1=O

>  <Energy>  (8) 
37.32893605939627

>  <Genealogy>  (8) 
Nc1c(-c2ccccc2S(N)(=O)=O)cn[n-]c1=O (protonated)
Nc1c(-c2ccccc2S(N)(=O)=O)cn[n-]c1=O (3D coordinates assigned)
Nc1c(-c2ccccc2S(N)(=O)=O)cn[n-]c1=O (optimized conformer: 37.32893605939627 kcal/mol)

>  <smiles>  (8) 
Nc1c(-c2ccccc2S(N)(=O)=O)cn[nH]c1=O

>  <score_type>  (8) 
oracle

>  <origin>  (8) 
adg

>  <m_score__min__energy>  (8) 
-9.0600000000000005

>  <m_primary>  (8) 
energy

$$$$
8:0
     RDKit          3D

 31 32  0  0  1  0  0  0  0  0999 V2000
   60.5140   26.7800   46.1980 C   0  0  0  0  0  0  0  0  0  0  0  0
   59.0610   26.6200   46.1420 C   0  0  0  0  0  0  0  0  0  0  0  0
   58.4240   25.3690   46.1670 C   0  0  0  0  0  0  0  0  0  0  0  0
   59.1960   24.2390   46.2490 F   0  0  0  0  0  0  0  0  0  0  0  0
   57.0890   25.2420   46.1140 N   0  0  0  0  0  0  0  0  0  0  0  0
   56.2830   26.3110   46.0340 C   0  0  0  0  0  0  0  0  0  0  0  0
   55.0090   26.2100   45.9830 N   0  0  0  0  0  0  0  0  0  0  0  0
   56.8590   27.5200   46.0090 N   0  0  0  0  0  0  0  0  0  0  0  0
   58.2060   27.7010   46.0600 C   0  0  0  0  0  0  0  0  0  0  0  0
   58.6060   28.9120   46.0250 N   0  0  0  0  0  0  0  0  0  0  0  0
   58.3540   29.7880   47.1270 C   0  0  0  0  0  0  0  0  0  0  0  0
   58.2670   31.0840   46.3130 C   0  0  0  0  0  0  0  0  0  0  0  0
   59.0120   32.1890   46.6320 C   0  0  0  0  0  0  0  0  0  0  0  0
   58.9340   33.3530   45.8900 C   0  0  0  0  0  0  0  0  0  0  0  0
   59.9960   34.8480   46.3860 Br  0  0  0  0  0  0  0  0  0  0  0  0
   58.0760   33.3460   44.8210 C   0  0  0  0  0  0  0  0  0  0  0  0
   57.3150   32.2660   44.4710 C   0  0  0  0  0  0  0  0  0  0  0  0
   57.4020   31.1270   45.2090 C   0  0  0  0  0  0  0  0  0  0  0  0
   56.6310   30.0300   44.8560 O   0  0  0  0  0  0  0  0  0  0  0  0
   60.8387   26.8158   47.2484 H   0  0  0  0  0  0  0  0  0  0  0  0
   60.9962   25.9295   45.6939 H   0  0  0  0  0  0  0  0  0  0  0  0
   60.7996   27.7150   45.6939 H   0  0  0  0  0  0  0  0  0  0  0  0
   56.6450   24.2780   46.1340 H   0  0  0  0  0  0  0  0  0  0  0  0
   54.3950   26.7080   45.3250 H   0  0  0  0  0  0  0  0  0  0  0  0
   56.2070   28.3580   45.9450 H   0  0  0  0  0  0  0  0  0  0  0  0
   57.4134   29.5524   47.6463 H   0  0  0  0  0  0  0  0  0  0  0  0
   59.0838   29.7694   47.9498 H   0  0  0  0  0  0  0  0  0  0  0  0
   59.6880   32.1490   47.4988 H   0  0  0  0  0  0  0  0  0  0  0  0
   57.9956   34.2586   44.2121 H   0  0  0  0  0  0  0  0  0  0  0  0
   56.6407   32.3174   43.6034 H   0  0  0  0  0  0  0  0  0  0  0  0
   57.1440   29.2290   44.4690 H   0  0  0  0  0  0  0  0  0  0  0  0
  1  2  1  0
  2  3  2  0
  3  4  1  0
  3  5  1  0
  5  6  1  0
  6  7  2  3
  6  8  1  0
  8  9  1  0
  9 10  2  0
 10 11  1  0
 11 12  1  0
 12 13  2  0
 13 14  1  0
 14 15  1  0
 14 16  2  0
 16 17  1  0
 17 18  2  0
 18 19  1  0
  9  2  1  0
 18 12  1  0
  1 20  1  0
  1 21  1  0
  1 22  1  0
  5 23  1  0
  7 24  1  0
  8 25  1  0
 11 26  1  0
 11 27  1  0
 13 28  1  0
 16 29  1  0
 17 30  1  0
 19 31  1  0
M  END
>  <smiles>  (9) 
Cc1c(F)[nH]c(=N)[nH]c1=NCc1cc(Br)ccc1O

>  <score_type>  (9) 
oracle

>  <origin>  (9) 
adg

>  <m_score__min__energy>  (9) 
-7.7000000000000002

>  <m_primary>  (9) 
energy

$$$$
9:0
     RDKit          3D

 46 48  0  0  0  0  0  0  0  0999 V2000
   56.4460   23.1850   47.4960 O   0  0  0  0  0  0  0  0  0  0  0  0
   55.9570   24.1590   46.8620 C   0  0  0  0  0  0  0  0  0  0  0  0
   54.6380   24.0770   46.4310 O   0  0  0  0  0  0  0  0  0  0  0  0
   56.7810   25.3630   46.5850 C   0  0  0  0  0  0  0  0  0  0  0  0
   58.1790   25.3010   46.7400 C   0  0  0  0  0  0  0  0  0  0  0  0
   58.9770   26.4190   46.4850 C   0  0  0  0  0  0  0  0  0  0  0  0
   58.3940   27.6280   46.0680 C   0  0  0  0  0  0  0  0  0  0  0  0
   59.1520   28.7770   45.7990 O   0  0  0  0  0  0  0  0  0  0  0  0
   59.2960   29.3650   44.5090 C   0  0  0  0  0  0  0  0  0  0  0  0
   58.6890   30.7380   44.5220 C   0  0  0  0  0  0  0  0  0  0  0  0
   57.9890   31.2210   43.4060 C   0  0  0  0  0  0  0  0  0  0  0  0
   57.4370   32.5030   43.4240 C   0  0  0  0  0  0  0  0  0  0  0  0
   57.5900   33.3170   44.5490 C   0  0  0  0  0  0  0  0  0  0  0  0
   58.3050   32.8610   45.6670 C   0  0  0  0  0  0  0  0  0  0  0  0
   58.4470   33.7260   46.8070 N   0  0  0  0  0  0  0  0  0  0  0  0
   59.8500   34.7010   47.1120 S   0  0  0  0  0  0  0  0  0  0  0  0
   60.0870   34.8050   48.5930 O   0  0  0  0  0  0  0  0  0  0  0  0
   59.6460   36.0730   46.5340 O   0  0  0  0  0  0  0  0  0  0  0  0
   61.2810   33.9570   46.3440 C   0  0  0  0  0  0  0  0  0  0  0  0
   62.1400   33.2730   47.3710 C   0  0  0  0  0  0  0  0  0  0  0  0
   63.3960   33.8010   47.7150 C   0  0  0  0  0  0  0  0  0  0  0  0
   64.2050   33.1450   48.6480 C   0  0  0  0  0  0  0  0  0  0  0  0
   63.7680   31.9590   49.2420 C   0  0  0  0  0  0  0  0  0  0  0  0
   62.5200   31.4250   48.9040 C   0  0  0  0  0  0  0  0  0  0  0  0
   61.7100   32.0770   47.9700 C   0  0  0  0  0  0  0  0  0  0  0  0
   58.8490   31.5630   45.6470 C   0  0  0  0  0  0  0  0  0  0  0  0
   57.0070   27.6960   45.9110 C   0  0  0  0  0  0  0  0  0  0  0  0
   56.2000   26.5810   46.1640 C   0  0  0  0  0  0  0  0  0  0  0  0
   54.8250   26.7020   45.9920 O   0  0  0  0  0  0  0  0  0  0  0  0
   58.6485   24.3611   47.0658 H   0  0  0  0  0  0  0  0  0  0  0  0
   60.0677   26.3527   46.6113 H   0  0  0  0  0  0  0  0  0  0  0  0
   60.3638   29.4371   44.2546 H   0  0  0  0  0  0  0  0  0  0  0  0
   58.7854   28.7422   43.7598 H   0  0  0  0  0  0  0  0  0  0  0  0
   57.8748   30.5874   42.5141 H   0  0  0  0  0  0  0  0  0  0  0  0
   56.8803   32.8731   42.5504 H   0  0  0  0  0  0  0  0  0  0  0  0
   57.1464   34.3235   44.5585 H   0  0  0  0  0  0  0  0  0  0  0  0
   57.6440   33.8270   47.4670 H   0  0  0  0  0  0  0  0  0  0  0  0
   60.9484   33.2173   45.6009 H   0  0  0  0  0  0  0  0  0  0  0  0
   61.8723   34.7470   45.8579 H   0  0  0  0  0  0  0  0  0  0  0  0
   63.7442   34.7343   47.2484 H   0  0  0  0  0  0  0  0  0  0  0  0
   65.1867   33.5636   48.9144 H   0  0  0  0  0  0  0  0  0  0  0  0
   64.4055   31.4445   49.9761 H   0  0  0  0  0  0  0  0  0  0  0  0
   62.1760   30.4916   49.3735 H   0  0  0  0  0  0  0  0  0  0  0  0
   60.7314   31.6518   47.7027 H   0  0  0  0  0  0  0  0  0  0  0  0
   59.4046   31.1914   46.5207 H   0  0  0  0  0  0  0  0  0  0  0  0
   56.5434   28.6385   45.5842 H   0  0  0  0  0  0  0  0  0  0  0  0
  1  2  2  0
  2  3  1  0
  2  4  1  0
  4  5  2  0
  5  6  1  0
  6  7  2  0
  7  8  1  0
  8  9  1  0
  9 10  1  0
 10 11  2  0
 11 12  1  0
 12 13  2  0
 13 14  1  0
 14 15  1  0
 15 16  1  0
 16 17  2  0
 16 18  2  0
 16 19  1  0
 19 20  1  0
 20 21  2  0
 21 22  1  0
 22 23  2  0
 23 24  1  0
 24 25  2  0
 14 26  2  0
  7 27  1  0
 27 28  2  0
 28 29  1  0
 28  4  1  0
 26 10  1  0
 25 20  1  0
  5 30  1  0
  6 31  1  0
  9 32  1  0
  9 33  1  0
 11 34  1  0
 12 35  1  0
 13 36  1  0
 15 37  1  0
 19 38  1  0
 19 39  1  0
 21 40  1  0
 22 41  1  0
 23 42  1  0
 24 43  1  0
 25 44  1  0
 26 45  1  0
 27 46  1  0
M  CHG  2   3  -1  29  -1
M  END
>  <UniqueID>  (10) 
9

>  <SMILES>  (10) 
O=C([O-])c1ccc(OCc2cccc(NS(=O)(=O)Cc3ccccc3)c2)cc1[O-]

>  <Energy>  (10) 
48.18048674733531

>  <Genealogy>  (10) 
O=C([O-])c1ccc(OCc2cccc(NS(=O)(=O)Cc3ccccc3)c2)cc1[O-] (protonated)
O=C([O-])c1ccc(OCc2cccc(NS(=O)(=O)Cc3ccccc3)c2)cc1[O-] (3D coordinates assigned)
O=C([O-])c1ccc(OCc2cccc(NS(=O)(=O)Cc3ccccc3)c2)cc1[O-] (optimized conformer: 48.18048674733531 kcal/mol)

>  <smiles>  (10) 
O=C(O)c1ccc(OCc2cccc(NS(=O)(=O)Cc3ccccc3)c2)cc1O

>  <score_type>  (10) 
oracle

>  <origin>  (10) 
adg

>  <m_score__min__energy>  (10) 
-15.06

>  <m_primary>  (10) 
energy

$$$$
10:0
     RDKit          3D

 38 39  0  0  0  0  0  0  0  0999 V2000
   58.2920   34.0770   46.7290 C   0  0  0  0  0  0  0  0  0  0  0  0
   57.5550   33.8280   45.1310 S   0  0  0  0  0  0  0  0  0  0  0  0
   56.6380   34.9790   44.8290 O   0  0  0  0  0  0  0  0  0  0  0  0
   58.6460   33.7520   44.1020 O   0  0  0  0  0  0  0  0  0  0  0  0
   56.6580   32.3440   45.1580 N   0  0  0  0  0  0  0  0  0  0  0  0
   57.1340   31.0340   44.8150 C   0  0  0  0  0  0  0  0  0  0  0  0
   56.4960   30.3660   43.7620 C   0  0  0  0  0  0  0  0  0  0  0  0
   56.8890   29.0770   43.3910 C   0  0  0  0  0  0  0  0  0  0  0  0
   57.9420   28.4400   44.0610 C   0  0  0  0  0  0  0  0  0  0  0  0
   58.2890   27.0130   43.7310 C   0  0  0  0  0  0  0  0  0  0  0  0
   57.4510   26.1160   44.5210 N   0  0  0  0  0  0  0  0  0  0  0  0
   57.9360   25.5290   45.7350 C   0  0  0  0  0  0  0  0  0  0  0  0
   59.1460   25.1880   45.8340 O   0  0  0  0  0  0  0  0  0  0  0  0
   57.0340   25.4210   46.9250 C   0  0  0  0  0  0  0  0  0  0  0  0
   55.9160   24.5110   46.6160 N   0  0  0  0  0  0  0  0  0  0  0  0
   54.8090   24.9920   45.9640 C   0  0  0  0  0  0  0  0  0  0  0  0
   54.7060   26.3410   45.6340 O   0  0  0  0  0  0  0  0  0  0  0  0
   53.7670   24.1340   45.6130 C   0  0  0  0  0  0  0  0  0  0  0  0
   53.8790   22.7850   45.9260 C   0  0  0  0  0  0  0  0  0  0  0  0
   52.9580   21.9830   45.6190 O   0  0  0  0  0  0  0  0  0  0  0  0
   54.9870   22.3310   46.5600 N   0  0  0  0  0  0  0  0  0  0  0  0
   56.0010   23.1680   46.9010 C   0  0  0  0  0  0  0  0  0  0  0  0
   57.0150   22.6920   47.4790 O   0  0  0  0  0  0  0  0  0  0  0  0
   58.5860   29.1020   45.1160 C   0  0  0  0  0  0  0  0  0  0  0  0
   58.1940   30.3910   45.4930 C   0  0  0  0  0  0  0  0  0  0  0  0
   58.8600   30.9860   46.5100 F   0  0  0  0  0  0  0  0  0  0  0  0
   57.5606   33.8299   47.5126 H   0  0  0  0  0  0  0  0  0  0  0  0
   59.1732   33.4267   46.8317 H   0  0  0  0  0  0  0  0  0  0  0  0
   58.5983   35.1285   46.8317 H   0  0  0  0  0  0  0  0  0  0  0  0
   55.6764   30.8615   43.2209 H   0  0  0  0  0  0  0  0  0  0  0  0
   56.3698   28.5607   42.5701 H   0  0  0  0  0  0  0  0  0  0  0  0
   58.1143   26.8308   42.6604 H   0  0  0  0  0  0  0  0  0  0  0  0
   59.3479   26.8284   43.9650 H   0  0  0  0  0  0  0  0  0  0  0  0
   56.4210   26.1340   44.3490 H   0  0  0  0  0  0  0  0  0  0  0  0
   57.6019   25.0262   47.7804 H   0  0  0  0  0  0  0  0  0  0  0  0
   56.6373   26.4161   47.1747 H   0  0  0  0  0  0  0  0  0  0  0  0
   52.8738   24.5179   45.0983 H   0  0  0  0  0  0  0  0  0  0  0  0
   59.4069   28.6033   45.6521 H   0  0  0  0  0  0  0  0  0  0  0  0
  1  2  1  0
  2  3  2  0
  2  4  2  0
  2  5  1  0
  5  6  1  0
  6  7  2  0
  7  8  1  0
  8  9  2  0
  9 10  1  0
 10 11  1  0
 11 12  1  0
 12 13  2  0
 12 14  1  0
 14 15  1  0
 15 16  1  0
 16 17  1  0
 16 18  2  0
 18 19  1  0
 19 20  2  0
 19 21  1  0
 21 22  1  0
 22 23  2  0
  9 24  1  0
 24 25  2  0
 25 26  1  0
 25  6  1  0
 22 15  1  0
  1 27  1  0
  1 28  1  0
  1 29  1  0
  7 30  1  0
  8 31  1  0
 10 32  1  0
 10 33  1  0
 11 34  1  0
 14 35  1  0
 14 36  1  0
 18 37  1  0
 24 38  1  0
M  CHG  3   5  -1  17  -1  21  -1
M  END
>  <UniqueID>  (11) 
10

>  <SMILES>  (11) 
CS(=O)(=O)[N-]c1ccc(CNC(=O)Cn2c([O-])cc(=O)[n-]c2=O)cc1F

>  <Energy>  (11) 
36.39248681894241

>  <Genealogy>  (11) 
CS(=O)(=O)[N-]c1ccc(CNC(=O)Cn2c([O-])cc(=O)[n-]c2=O)cc1F (protonated)
CS(=O)(=O)[N-]c1ccc(CNC(=O)Cn2c([O-])cc(=O)[n-]c2=O)cc1F (3D coordinates assigned)
CS(=O)(=O)[N-]c1ccc(CNC(=O)Cn2c([O-])cc(=O)[n-]c2=O)cc1F (optimized conformer: 36.39248681894241 kcal/mol)

>  <smiles>  (11) 
CS(=O)(=O)Nc1ccc(CNC(=O)Cn2c(O)cc(=O)[nH]c2=O)cc1F

>  <score_type>  (11) 
oracle

>  <origin>  (11) 
adg

>  <m_score__min__energy>  (11) 
-14.029999999999999

>  <m_primary>  (11) 
energy

$$$$
11:0
     RDKit          3D

 61 64  0  0  0  0  0  0  0  0999 V2000
   54.6800   29.3760   45.2120 H   0  0  0  0  0  0  0  0  0  0  0  0
   55.5300   28.8600   44.8870 N   0  0  0  0  0  0  0  0  0  0  0  0
   56.7540   30.0430   44.5730 S   0  0  0  0  0  0  0  0  0  0  0  0
   57.3070   29.8480   43.1850 O   0  0  0  0  0  0  0  0  0  0  0  0
   56.1560   31.4200   44.6660 O   0  0  0  0  0  0  0  0  0  0  0  0
   58.0500   29.8650   45.7560 C   0  0  0  0  0  0  0  0  0  0  0  0
   58.8780   28.7400   45.7100 C   0  0  0  0  0  0  0  0  0  0  0  0
   58.7359   27.9860   44.9218 H   0  0  0  0  0  0  0  0  0  0  0  0
   59.8840   28.5710   46.6610 C   0  0  0  0  0  0  0  0  0  0  0  0
   60.5230   27.6762   46.6290 H   0  0  0  0  0  0  0  0  0  0  0  0
   60.0840   29.5340   47.6550 C   0  0  0  0  0  0  0  0  0  0  0  0
   59.2710   30.6850   47.7100 C   0  0  0  0  0  0  0  0  0  0  0  0
   58.2320   30.8240   46.7630 C   0  0  0  0  0  0  0  0  0  0  0  0
   57.5593   31.6927   46.8159 H   0  0  0  0  0  0  0  0  0  0  0  0
   59.4940   31.6590   48.7660 N   0  0  0  0  0  0  0  0  0  0  0  0
   58.6910   32.8950   48.8780 C   0  0  0  0  0  0  0  0  0  0  0  0
   58.9785   33.4272   49.7968 H   0  0  0  0  0  0  0  0  0  0  0  0
   57.6271   32.6169   48.9065 H   0  0  0  0  0  0  0  0  0  0  0  0
   58.9150   33.8030   47.6930 C   0  0  0  0  0  0  0  0  0  0  0  0
   58.0959   34.4770   47.4018 H   0  0  0  0  0  0  0  0  0  0  0  0
   60.0430   33.8440   46.9720 C   0  0  0  0  0  0  0  0  0  0  0  0
   59.9623   34.0301   45.8909 H   0  0  0  0  0  0  0  0  0  0  0  0
   61.3830   33.6540   47.5460 C   0  0  0  0  0  0  0  0  0  0  0  0
   62.3550   32.9550   46.8220 C   0  0  0  0  0  0  0  0  0  0  0  0
   62.1179   32.5641   45.8215 H   0  0  0  0  0  0  0  0  0  0  0  0
   63.6260   32.7520   47.3660 C   0  0  0  0  0  0  0  0  0  0  0  0
   64.3784   32.1816   46.8015 H   0  0  0  0  0  0  0  0  0  0  0  0
   63.9480   33.2740   48.6330 C   0  0  0  0  0  0  0  0  0  0  0  0
   65.2010   33.0760   49.2330 O   0  0  0  0  0  0  0  0  0  0  0  0
   65.5360   31.9810   50.0860 C   0  0  0  0  0  0  0  0  0  0  0  0
   65.5441   31.0512   49.4983 H   0  0  0  0  0  0  0  0  0  0  0  0
   64.7887   31.9090   50.8899 H   0  0  0  0  0  0  0  0  0  0  0  0
   66.9270   32.2020   50.7090 C   0  0  0  0  0  0  0  0  0  0  0  0
   67.5550   32.7317   49.9775 H   0  0  0  0  0  0  0  0  0  0  0  0
   67.3263   31.2093   50.9642 H   0  0  0  0  0  0  0  0  0  0  0  0
   66.9000   32.9880   51.9540 N   0  0  0  0  0  0  0  0  0  0  0  0
   65.9940   34.0830   52.1710 C   0  0  0  0  0  0  0  0  0  0  0  0
   64.6390   34.0470   52.4540 C   0  0  0  0  0  0  0  0  0  0  0  0
   63.7890   32.8890   52.7840 C   0  0  0  0  0  0  0  0  0  0  0  0
   64.2680   31.9530   53.4790 O   0  0  0  0  0  0  0  0  0  0  0  0
   62.4510   32.7820   52.2980 N   0  0  0  0  0  0  0  0  0  0  0  0
   62.0860   33.4300   51.5660 H   0  0  0  0  0  0  0  0  0  0  0  0
   61.8560   31.9720   52.5860 H   0  0  0  0  0  0  0  0  0  0  0  0
   64.1850   35.3220   52.4150 N   0  0  0  0  0  0  0  0  0  0  0  0
   65.2180   36.0660   52.1260 O   0  0  0  0  0  0  0  0  0  0  0  0
   66.3050   35.3690   51.9810 N   0  0  0  0  0  0  0  0  0  0  0  0
   67.5260   35.8780   51.5980 O   0  0  0  0  0  0  0  0  0  0  0  0
   67.8010   32.6190   53.0460 C   0  0  0  0  0  0  0  0  0  0  0  0
   67.3105   32.8199   54.0099 H   0  0  0  0  0  0  0  0  0  0  0  0
   68.0446   31.5487   52.9746 H   0  0  0  0  0  0  0  0  0  0  0  0
   68.7254   33.2110   52.9746 H   0  0  0  0  0  0  0  0  0  0  0  0
   62.9880   34.0210   49.3280 C   0  0  0  0  0  0  0  0  0  0  0  0
   63.2436   34.4700   50.2991 H   0  0  0  0  0  0  0  0  0  0  0  0
   61.7070   34.2000   48.7960 C   0  0  0  0  0  0  0  0  0  0  0  0
   60.9530   34.7697   49.3589 H   0  0  0  0  0  0  0  0  0  0  0  0
   60.5410   31.3930   49.7270 C   0  0  0  0  0  0  0  0  0  0  0  0
   60.6060   32.0360   50.8070 O   0  0  0  0  0  0  0  0  0  0  0  0
   61.6040   30.3830   49.4120 C   0  0  0  0  0  0  0  0  0  0  0  0
   62.4223   30.8796   48.8700 H   0  0  0  0  0  0  0  0  0  0  0  0
   61.9704   29.9547   50.3566 H   0  0  0  0  0  0  0  0  0  0  0  0
   61.0860   29.3290   48.6080 O   0  0  0  0  0  0  0  0  0  0  0  0
  1  2  1  0
  2  3  1  0
  3  4  2  0
  3  5  2  0
  3  6  1  0
  6  7  2  0
  7  8  1  0
  7  9  1  0
  9 10  1  0
  9 11  2  0
 11 12  1  0
 12 13  2  0
 13 14  1  0
 12 15  1  0
 15 16  1  0
 16 17  1  0
 16 18  1  0
 16 19  1  0
 19 20  1  0
 19 21  2  0
 21 22  1  0
 21 23  1  0
 23 24  2  0
 24 25  1  0
 24 26  1  0
 26 27  1  0
 26 28  2  0
 28 29  1  0
 29 30  1  0
 30 31  1  0
 30 32  1  0
 30 33  1  0
 33 34  1  0
 33 35  1  0
 33 36  1  0
 36 37  1  0
 37 38  1  0
 38 39  1  0
 39 40  2  0
 39 41  1  0
 41 42  1  0
 41 43  1  0
 38 44  2  0
 44 45  1  0
 45 46  1  0
 46 47  1  0
 36 48  1  0
 48 49  1  0
 48 50  1  0
 48 51  1  0
 28 52  1  0
 52 53  1  0
 52 54  2  0
 54 55  1  0
 15 56  1  0
 56 57  2  0
 56 58  1  0
 58 59  1  0
 58 60  1  0
 58 61  1  0
 13  6  1  0
 54 23  1  0
 61 11  1  0
 46 37  2  0
M  CHG  3   2  -1  46   1  47  -1
M  END
>  <UniqueID>  (12) 
11

>  <SMILES>  (12) 
CN(CCOc1ccc(/C=C\CN2C(=O)COc3ccc(S([NH-])(=O)=O)cc32)cc1)c1c(C(N)=O)no[n+]1[O-]

>  <Energy>  (12) 
115.99541012929357

>  <Genealogy>  (12) 
CN(CCOc1ccc(C=CCN2C(=O)COc3ccc(S([NH-])(=O)=O)cc32)cc1)c1c(C(N)=O)no[n+]1[O-] (protonated)
CN(CCOc1ccc(/C=C\CN2C(=O)COc3ccc(S([NH-])(=O)=O)cc32)cc1)c1c(C(N)=O)no[n+]1[O-] (cis-trans isomerization)
CN(CCOc1ccc(/C=C\CN2C(=O)COc3ccc(S([NH-])(=O)=O)cc32)cc1)c1c(C(N)=O)no[n+]1[O-] (3D coordinates assigned)
CN(CCOc1ccc(/C=C\CN2C(=O)COc3ccc(S([NH-])(=O)=O)cc32)cc1)c1c(C(N)=O)no[n+]1[O-] (nonaromatic ring conformer: 115.99541012929357 kcal/mol)

>  <smiles>  (12) 
CN(CCOc1ccc(C=CCN2C(=O)COc3ccc(S(N)(=O)=O)cc32)cc1)c1c(C(N)=O)no[n+]1[O-]

>  <score_type>  (12) 
oracle

>  <origin>  (12) 
adg

>  <m_score__min__energy>  (12) 
-14.07

>  <m_primary>  (12) 
energy

$$$$
12:0
     RDKit          3D

 58 60  0  0  0  0  0  0  0  0999 V2000
   65.2070   32.7040   49.7930 C   0  0  0  0  0  0  0  0  0  0  0  0
   64.4920   33.0150   48.5520 N   0  0  0  0  0  0  0  0  0  0  0  0
   63.3040   33.8110   48.5750 C   0  0  0  0  0  0  0  0  0  0  0  0
   63.0640   34.5510   49.5730 O   0  0  0  0  0  0  0  0  0  0  0  0
   62.5030   33.9000   47.3890 N   0  0  0  0  0  0  0  0  0  0  0  0
   61.0670   33.8260   47.2790 C   0  0  0  0  0  0  0  0  0  0  0  0
   60.4140   34.7340   46.4250 C   0  0  0  0  0  0  0  0  0  0  0  0
   59.0190   34.7440   46.3320 C   0  0  0  0  0  0  0  0  0  0  0  0
   58.2650   33.8670   47.1090 C   0  0  0  0  0  0  0  0  0  0  0  0
   58.9000   32.9340   47.9330 C   0  0  0  0  0  0  0  0  0  0  0  0
   58.1450   32.0350   48.6830 O   0  0  0  0  0  0  0  0  0  0  0  0
   58.5640   31.5210   49.9060 C   0  0  0  0  0  0  0  0  0  0  0  0
   58.4280   32.2590   51.0440 N   0  0  0  0  0  0  0  0  0  0  0  0
   58.8490   31.7990   52.2540 C   0  0  0  0  0  0  0  0  0  0  0  0
   59.4400   30.5410   52.3550 C   0  0  0  0  0  0  0  0  0  0  0  0
   59.5740   29.7540   51.2090 C   0  0  0  0  0  0  0  0  0  0  0  0
   59.1590   30.2400   49.9620 C   0  0  0  0  0  0  0  0  0  0  0  0
   59.3030   29.4080   48.7390 C   0  0  0  0  0  0  0  0  0  0  0  0
   60.1440   29.8100   47.6910 C   0  0  0  0  0  0  0  0  0  0  0  0
   60.2750   28.9850   46.5810 C   0  0  0  0  0  0  0  0  0  0  0  0
   59.5880   27.8140   46.5210 N   0  0  0  0  0  0  0  0  0  0  0  0
   58.7620   27.4360   47.5320 C   0  0  0  0  0  0  0  0  0  0  0  0
   58.1120   26.3090   47.4310 N   0  0  0  0  0  0  0  0  0  0  0  0
   57.5150   25.7910   46.2000 C   0  0  0  0  0  0  0  0  0  0  0  0
   56.1190   26.3040   46.0030 C   0  0  0  0  0  0  0  0  0  0  0  0
   55.1470   25.5200   46.1720 O   0  0  0  0  0  0  0  0  0  0  0  0
   55.8990   27.6640   45.6120 N   0  0  0  0  0  0  0  0  0  0  0  0
   56.9530   28.4970   45.0440 C   0  0  0  0  0  0  0  0  0  0  0  0
   56.3850   29.3950   43.9550 C   0  0  0  0  0  0  0  0  0  0  0  0
   55.9180   30.5950   44.5240 O   0  0  0  0  0  0  0  0  0  0  0  0
   57.1820   31.7320   44.5530 S   0  0  0  0  0  0  0  0  0  0  0  0
   57.9190   32.0100   42.9490 C   0  0  0  0  0  0  0  0  0  0  0  0
   58.2560   31.2210   45.4700 O   0  0  0  0  0  0  0  0  0  0  0  0
   56.6620   33.0360   45.0890 O   0  0  0  0  0  0  0  0  0  0  0  0
   58.6250   28.2270   48.6300 N   0  0  0  0  0  0  0  0  0  0  0  0
   60.2990   32.9010   48.0120 C   0  0  0  0  0  0  0  0  0  0  0  0
   64.5806   32.9765   50.6552 H   0  0  0  0  0  0  0  0  0  0  0  0
   65.4303   31.6275   49.8276 H   0  0  0  0  0  0  0  0  0  0  0  0
   66.1468   33.2747   49.8276 H   0  0  0  0  0  0  0  0  0  0  0  0
   65.0320   32.9760   47.6600 H   0  0  0  0  0  0  0  0  0  0  0  0
   61.0058   35.4416   45.8258 H   0  0  0  0  0  0  0  0  0  0  0  0
   58.5176   35.4431   45.6465 H   0  0  0  0  0  0  0  0  0  0  0  0
   57.1664   33.9092   47.0737 H   0  0  0  0  0  0  0  0  0  0  0  0
   58.7226   32.4207   53.1526 H   0  0  0  0  0  0  0  0  0  0  0  0
   59.7974   30.1716   53.3275 H   0  0  0  0  0  0  0  0  0  0  0  0
   60.0081   28.7462   51.2858 H   0  0  0  0  0  0  0  0  0  0  0  0
   60.6908   30.7628   47.7471 H   0  0  0  0  0  0  0  0  0  0  0  0
   60.9344   29.2794   45.7512 H   0  0  0  0  0  0  0  0  0  0  0  0
   58.1334   26.1024   45.3452 H   0  0  0  0  0  0  0  0  0  0  0  0
   57.4705   24.6945   46.2749 H   0  0  0  0  0  0  0  0  0  0  0  0
   57.3903   29.1207   45.8376 H   0  0  0  0  0  0  0  0  0  0  0  0
   57.7261   27.8482   44.6066 H   0  0  0  0  0  0  0  0  0  0  0  0
   57.1718   29.6209   43.2202 H   0  0  0  0  0  0  0  0  0  0  0  0
   55.5506   28.8796   43.4568 H   0  0  0  0  0  0  0  0  0  0  0  0
   58.9412   32.3956   43.0770 H   0  0  0  0  0  0  0  0  0  0  0  0
   57.9517   31.0624   42.3913 H   0  0  0  0  0  0  0  0  0  0  0  0
   57.3177   32.7431   42.3913 H   0  0  0  0  0  0  0  0  0  0  0  0
   60.7968   32.1528   48.6464 H   0  0  0  0  0  0  0  0  0  0  0  0
  1  2  1  0
  2  3  1  0
  3  4  2  0
  3  5  1  0
  5  6  1  0
  6  7  2  0
  7  8  1  0
  8  9  2  0
  9 10  1  0
 10 11  1  0
 11 12  1  0
 12 13  2  0
 13 14  1  0
 14 15  2  0
 15 16  1  0
 16 17  2  0
 17 18  1  0
 18 19  1  0
 19 20  2  0
 20 21  1  0
 21 22  1  0
 22 23  2  3
 23 24  1  0
 24 25  1  0
 25 26  2  0
 25 27  1  0
 27 28  1  0
 28 29  1  0
 29 30  1  0
 30 31  1  0
 31 32  1  0
 31 33  2  0
 31 34  2  0
 22 35  1  0
 10 36  2  0
 36  6  1  0
 17 12  1  0
 35 18  2  0
  1 37  1  0
  1 38  1  0
  1 39  1  0
  2 40  1  0
  7 41  1  0
  8 42  1  0
  9 43  1  0
 14 44  1  0
 15 45  1  0
 16 46  1  0
 19 47  1  0
 20 48  1  0
 24 49  1  0
 24 50  1  0
 28 51  1  0
 28 52  1  0
 29 53  1  0
 29 54  1  0
 32 55  1  0
 32 56  1  0
 32 57  1  0
 36 58  1  0
M  CHG  3   5  -1  21  -1  27  -1
M  END
>  <UniqueID>  (13) 
12

>  <SMILES>  (13) 
CNC(=O)[N-]c1cccc(Oc2ncccc2-c2cc[n-]c(=NCC(=O)[N-]CCOS(C)(=O)=O)n2)c1

>  <Energy>  (13) 
69.1608375817357

>  <Genealogy>  (13) 
CNC(=O)[N-]c1cccc(Oc2ncccc2-c2cc[n-]c(=NCC(=O)[N-]CCOS(C)(=O)=O)n2)c1 (protonated)
CNC(=O)[N-]c1cccc(Oc2ncccc2-c2cc[n-]c(=NCC(=O)[N-]CCOS(C)(=O)=O)n2)c1 (3D coordinates assigned)
CNC(=O)[N-]c1cccc(Oc2ncccc2-c2cc[n-]c(=NCC(=O)[N-]CCOS(C)(=O)=O)n2)c1 (optimized conformer: 69.1608375817357 kcal/mol)

>  <smiles>  (13) 
CNC(=O)Nc1cccc(Oc2ncccc2-c2cc[nH]c(=NCC(=O)NCCOS(C)(=O)=O)n2)c1

>  <score_type>  (13) 
oracle

>  <origin>  (13) 
adg

>  <m_score__min__energy>  (13) 
-15.9

>  <m_primary>  (13) 
energy

$$$$
13:0
     RDKit          3D

 38 40  0  0  0  0  0  0  0  0999 V2000
   51.4003   28.9620   47.5053 H   0  0  0  0  0  0  0  0  0  0  0  0
   51.3150   29.7490   48.2690 C   0  0  0  0  0  0  0  0  0  0  0  0
   51.8880   29.5760   49.4890 N   0  0  0  0  0  0  0  0  0  0  0  0
   51.8100   30.5250   50.4670 C   0  0  0  0  0  0  0  0  0  0  0  0
   52.3620   30.3410   51.6320 N   0  0  0  0  0  0  0  0  0  0  0  0
   53.6610   30.7860   52.0580 C   0  0  0  0  0  0  0  0  0  0  0  0
   53.9720   32.0080   52.0110 O   0  0  0  0  0  0  0  0  0  0  0  0
   54.6500   29.8020   52.5470 C   0  0  0  0  0  0  0  0  0  0  0  0
   56.0350   29.9620   52.4050 C   0  0  0  0  0  0  0  0  0  0  0  0
   56.7120   31.0090   51.6990 N   0  0  0  0  0  0  0  0  0  0  0  0
   56.1390   31.8230   51.3840 H   0  0  0  0  0  0  0  0  0  0  0  0
   58.1440   31.1190   51.6600 C   0  0  0  0  0  0  0  0  0  0  0  0
   58.8500   30.4220   52.4390 O   0  0  0  0  0  0  0  0  0  0  0  0
   58.8060   32.0540   50.7350 C   0  0  0  0  0  0  0  0  0  0  0  0
   59.6500   33.4340   51.2010 S   0  0  0  0  0  0  0  0  0  0  0  0
   60.0990   33.9130   49.6550 C   0  0  0  0  0  0  0  0  0  0  0  0
   60.6915   34.8049   49.4031 H   0  0  0  0  0  0  0  0  0  0  0  0
   59.5940   32.9900   48.7500 C   0  0  0  0  0  0  0  0  0  0  0  0
   59.7455   33.0683   47.6633 H   0  0  0  0  0  0  0  0  0  0  0  0
   58.8730   31.9490   49.3500 C   0  0  0  0  0  0  0  0  0  0  0  0
   58.4066   31.1305   48.7821 H   0  0  0  0  0  0  0  0  0  0  0  0
   56.8310   28.7050   53.1800 S   0  0  0  0  0  0  0  0  0  0  0  0
   55.4430   27.9060   53.6850 C   0  0  0  0  0  0  0  0  0  0  0  0
   55.4490   26.6440   54.4890 C   0  0  0  0  0  0  0  0  0  0  0  0
   55.4478   26.8920   55.5607 H   0  0  0  0  0  0  0  0  0  0  0  0
   54.5537   26.0519   54.2487 H   0  0  0  0  0  0  0  0  0  0  0  0
   56.3499   26.0604   54.2487 H   0  0  0  0  0  0  0  0  0  0  0  0
   54.3180   28.6370   53.2820 C   0  0  0  0  0  0  0  0  0  0  0  0
   52.9080   28.2300   53.6150 C   0  0  0  0  0  0  0  0  0  0  0  0
   52.7849   28.1945   54.7075 H   0  0  0  0  0  0  0  0  0  0  0  0
   52.2051   28.9619   53.1904 H   0  0  0  0  0  0  0  0  0  0  0  0
   52.7033   27.2361   53.1904 H   0  0  0  0  0  0  0  0  0  0  0  0
   51.1180   31.7190   50.2130 C   0  0  0  0  0  0  0  0  0  0  0  0
   51.0210   32.7050   51.1890 O   0  0  0  0  0  0  0  0  0  0  0  0
   50.5210   31.9150   48.9650 C   0  0  0  0  0  0  0  0  0  0  0  0
   49.9757   32.8470   48.7553 H   0  0  0  0  0  0  0  0  0  0  0  0
   50.6180   30.9250   47.9840 C   0  0  0  0  0  0  0  0  0  0  0  0
   50.1509   31.0702   46.9988 H   0  0  0  0  0  0  0  0  0  0  0  0
  1  2  1  0
  2  3  1  0
  3  4  1  0
  4  5  2  0
  5  6  1  0
  6  7  2  0
  6  8  1  0
  8  9  2  0
  9 10  1  0
 10 11  1  0
 10 12  1  0
 12 13  2  0
 12 14  1  0
 14 15  1  0
 15 16  1  0
 16 17  1  0
 16 18  2  0
 18 19  1  0
 18 20  1  0
 20 21  1  0
  9 22  1  0
 22 23  1  0
 23 24  1  0
 24 25  1  0
 24 26  1  0
 24 27  1  0
 23 28  2  0
 28 29  1  0
 29 30  1  0
 29 31  1  0
 29 32  1  0
  4 33  1  0
 33 34  1  0
 33 35  2  0
 35 36  1  0
 35 37  1  0
 37 38  1  0
 37  2  2  0
 28  8  1  0
 20 14  2  0
M  CHG  2   3  -1  34  -1
M  END
>  <UniqueID>  (14) 
13

>  <SMILES>  (14) 
Cc1sc(NC(=O)c2cccs2)c(C(=O)/N=c2\[n-]cccc2[O-])c1C

>  <Energy>  (14) 
102.51260747723221

>  <Genealogy>  (14) 
Cc1sc(NC(=O)c2cccs2)c(C(=O)N=c2[n-]cccc2[O-])c1C (protonated)
Cc1sc(NC(=O)c2cccs2)c(C(=O)/N=c2\[n-]cccc2[O-])c1C (cis-trans isomerization)
Cc1sc(NC(=O)c2cccs2)c(C(=O)/N=c2\[n-]cccc2[O-])c1C (3D coordinates assigned)
Cc1sc(NC(=O)c2cccs2)c(C(=O)/N=c2\[n-]cccc2[O-])c1C (optimized conformer: 102.51260747723221 kcal/mol)

>  <smiles>  (14) 
Cc1sc(NC(=O)c2cccs2)c(C(=O)N=c2[nH]cccc2O)c1C

>  <score_type>  (14) 
oracle

>  <origin>  (14) 
adg

>  <m_score__min__energy>  (14) 
-12.83

>  <m_primary>  (14) 
energy

$$$$
14:0
     RDKit          3D

 50 53  0  0  0  0  0  0  0  0999 V2000
   60.3810   33.6940   53.4890 C   0  0  0  0  0  0  0  0  0  0  0  0
   61.0770   33.2750   52.3210 O   0  0  0  0  0  0  0  0  0  0  0  0
   60.5720   33.3810   51.0160 C   0  0  0  0  0  0  0  0  0  0  0  0
   59.2830   32.9340   50.6680 C   0  0  0  0  0  0  0  0  0  0  0  0
   58.8250   33.0620   49.3520 C   0  0  0  0  0  0  0  0  0  0  0  0
   59.6410   33.6440   48.3700 C   0  0  0  0  0  0  0  0  0  0  0  0
   59.1650   33.7390   46.9460 C   0  0  0  0  0  0  0  0  0  0  0  0
   59.3050   32.4470   46.2820 N   0  0  0  0  0  0  0  0  0  0  0  0
   60.4210   31.5580   46.3860 C   0  0  0  0  0  0  0  0  0  0  0  0
   61.5520   31.8890   46.8270 O   0  0  0  0  0  0  0  0  0  0  0  0
   60.0440   30.2250   45.9300 C   0  0  0  0  0  0  0  0  0  0  0  0
   60.7870   29.0520   45.8400 C   0  0  0  0  0  0  0  0  0  0  0  0
   60.1440   27.8950   45.3680 C   0  0  0  0  0  0  0  0  0  0  0  0
   58.7710   27.9230   45.0020 C   0  0  0  0  0  0  0  0  0  0  0  0
   58.0950   26.7030   44.4990 C   0  0  0  0  0  0  0  0  0  0  0  0
   57.9440   26.5440   43.2560 O   0  0  0  0  0  0  0  0  0  0  0  0
   57.5940   25.7070   45.4060 N   0  0  0  0  0  0  0  0  0  0  0  0
   57.0950   24.4420   44.9480 C   0  0  0  0  0  0  0  0  0  0  0  0
   57.9940   23.5440   44.3540 C   0  0  0  0  0  0  0  0  0  0  0  0
   57.5730   22.2750   43.9560 C   0  0  0  0  0  0  0  0  0  0  0  0
   56.2450   21.8910   44.1390 C   0  0  0  0  0  0  0  0  0  0  0  0
   55.3300   22.7820   44.7030 C   0  0  0  0  0  0  0  0  0  0  0  0
   55.7320   24.0730   45.0970 C   0  0  0  0  0  0  0  0  0  0  0  0
   54.7050   25.0200   45.5980 C   0  0  0  0  0  0  0  0  0  0  0  0
   55.0810   26.3290   46.0230 N   0  0  0  0  0  0  0  0  0  0  0  0
   53.4970   24.6710   45.6840 O   0  0  0  0  0  0  0  0  0  0  0  0
   58.0500   29.1360   45.1010 C   0  0  0  0  0  0  0  0  0  0  0  0
   58.7160   30.2660   45.5700 C   0  0  0  0  0  0  0  0  0  0  0  0
   58.2390   31.6260   45.7950 C   0  0  0  0  0  0  0  0  0  0  0  0
   57.0610   32.0290   45.6110 O   0  0  0  0  0  0  0  0  0  0  0  0
   60.9290   34.0790   48.7170 C   0  0  0  0  0  0  0  0  0  0  0  0
   61.3870   33.9510   50.0320 C   0  0  0  0  0  0  0  0  0  0  0  0
   60.9311   33.3629   54.3822 H   0  0  0  0  0  0  0  0  0  0  0  0
   60.3001   34.7910   53.4939 H   0  0  0  0  0  0  0  0  0  0  0  0
   59.3737   33.2521   53.4939 H   0  0  0  0  0  0  0  0  0  0  0  0
   58.6340   32.4828   51.4330 H   0  0  0  0  0  0  0  0  0  0  0  0
   57.8194   32.7043   49.0858 H   0  0  0  0  0  0  0  0  0  0  0  0
   58.1072   34.0405   46.9356 H   0  0  0  0  0  0  0  0  0  0  0  0
   59.7726   34.4850   46.4128 H   0  0  0  0  0  0  0  0  0  0  0  0
   61.8478   29.0309   46.1301 H   0  0  0  0  0  0  0  0  0  0  0  0
   60.7104   26.9561   45.2807 H   0  0  0  0  0  0  0  0  0  0  0  0
   57.3490   25.9990   46.3800 H   0  0  0  0  0  0  0  0  0  0  0  0
   59.0413   23.8434   44.2005 H   0  0  0  0  0  0  0  0  0  0  0  0
   58.2889   21.5769   43.4976 H   0  0  0  0  0  0  0  0  0  0  0  0
   55.9179   20.8847   43.8386 H   0  0  0  0  0  0  0  0  0  0  0  0
   54.2836   22.4723   44.8412 H   0  0  0  0  0  0  0  0  0  0  0  0
   55.1900   27.1060   45.3340 H   0  0  0  0  0  0  0  0  0  0  0  0
   56.9891   29.1857   44.8146 H   0  0  0  0  0  0  0  0  0  0  0  0
   61.5817   34.5229   47.9509 H   0  0  0  0  0  0  0  0  0  0  0  0
   62.3961   34.3012   50.2949 H   0  0  0  0  0  0  0  0  0  0  0  0
  1  2  1  0
  2  3  1  0
  3  4  2  0
  4  5  1  0
  5  6  2  0
  6  7  1  0
  7  8  1  0
  8  9  1  0
  9 10  2  0
  9 11  1  0
 11 12  2  0
 12 13  1  0
 13 14  2  0
 14 15  1  0
 15 16  2  0
 15 17  1  0
 17 18  1  0
 18 19  2  0
 19 20  1  0
 20 21  2  0
 21 22  1  0
 22 23  2  0
 23 24  1  0
 24 25  1  0
 24 26  2  0
 14 27  1  0
 27 28  2  0
 28 29  1  0
 29 30  2  0
  6 31  1  0
 31 32  2  0
 32  3  1  0
 29  8  1  0
 28 11  1  0
 23 18  1  0
  1 33  1  0
  1 34  1  0
  1 35  1  0
  4 36  1  0
  5 37  1  0
  7 38  1  0
  7 39  1  0
 12 40  1  0
 13 41  1  0
 17 42  1  0
 19 43  1  0
 20 44  1  0
 21 45  1  0
 22 46  1  0
 25 47  1  0
 27 48  1  0
 31 49  1  0
 32 50  1  0
M  CHG  1  25  -1
M  END
>  <UniqueID>  (15) 
14

>  <SMILES>  (15) 
COc1ccc(CN2C(=O)c3ccc(C(=O)Nc4ccccc4C([NH-])=O)cc3C2=O)cc1

>  <Energy>  (15) 
94.59685855715918

>  <Genealogy>  (15) 
COc1ccc(CN2C(=O)c3ccc(C(=O)Nc4ccccc4C([NH-])=O)cc3C2=O)cc1 (protonated)
COc1ccc(CN2C(=O)c3ccc(C(=O)Nc4ccccc4C([NH-])=O)cc3C2=O)cc1 (3D coordinates assigned)
COc1ccc(CN2C(=O)c3ccc(C(=O)Nc4ccccc4C([NH-])=O)cc3C2=O)cc1 (nonaromatic ring conformer: 94.59685855715918 kcal/mol)

>  <smiles>  (15) 
COc1ccc(CN2C(=O)c3ccc(C(=O)Nc4ccccc4C(N)=O)cc3C2=O)cc1

>  <score_type>  (15) 
oracle

>  <origin>  (15) 
adg

>  <m_score__min__energy>  (15) 
-13.1

>  <m_primary>  (15) 
energy

$$$$
15:0
     RDKit          3D

 48 50  0  0  0  0  0  0  0  0999 V2000
   56.4260   24.1780   44.9160 C   0  0  0  0  0  0  0  0  0  0  0  0
   56.0190   25.1690   46.3380 S   0  0  0  0  0  0  0  0  0  0  0  0
   55.5470   24.2980   47.4670 O   0  0  0  0  0  0  0  0  0  0  0  0
   54.9140   26.1160   45.9630 O   0  0  0  0  0  0  0  0  0  0  0  0
   57.4020   26.0910   46.8330 N   0  0  0  0  0  0  0  0  0  0  0  0
   58.1010   27.0390   46.0140 C   0  0  0  0  0  0  0  0  0  0  0  0
   57.7100   27.1860   44.6800 C   0  0  0  0  0  0  0  0  0  0  0  0
   58.3960   28.0600   43.8350 C   0  0  0  0  0  0  0  0  0  0  0  0
   59.4810   28.7950   44.3170 C   0  0  0  0  0  0  0  0  0  0  0  0
   59.8860   28.6700   45.6550 C   0  0  0  0  0  0  0  0  0  0  0  0
   61.0510   29.4990   46.1510 C   0  0  0  0  0  0  0  0  0  0  0  0
   60.7320   30.2550   47.3660 N   0  0  0  0  0  0  0  0  0  0  0  0
   60.1640   31.5800   47.3780 C   0  0  0  0  0  0  0  0  0  0  0  0
   60.3300   32.3870   48.5060 C   0  0  0  0  0  0  0  0  0  0  0  0
   59.8690   33.7040   48.5030 C   0  0  0  0  0  0  0  0  0  0  0  0
   60.0430   34.5180   49.6220 O   0  0  0  0  0  0  0  0  0  0  0  0
   59.2390   34.2090   47.3590 C   0  0  0  0  0  0  0  0  0  0  0  0
   58.8470   35.4090   47.3550 O   0  0  0  0  0  0  0  0  0  0  0  0
   59.0590   33.4100   46.2580 N   0  0  0  0  0  0  0  0  0  0  0  0
   58.4770   33.9450   45.0160 C   0  0  0  0  0  0  0  0  0  0  0  0
   57.8450   32.8300   44.2230 C   0  0  0  0  0  0  0  0  0  0  0  0
   56.9920   31.9070   44.8520 C   0  0  0  0  0  0  0  0  0  0  0  0
   56.4430   30.8470   44.1240 C   0  0  0  0  0  0  0  0  0  0  0  0
   56.7560   30.6910   42.7710 C   0  0  0  0  0  0  0  0  0  0  0  0
   57.6110   31.5980   42.1420 C   0  0  0  0  0  0  0  0  0  0  0  0
   58.1580   32.6630   42.8660 C   0  0  0  0  0  0  0  0  0  0  0  0
   59.4960   32.1130   46.2630 C   0  0  0  0  0  0  0  0  0  0  0  0
   59.1670   27.8110   46.5090 C   0  0  0  0  0  0  0  0  0  0  0  0
   56.8245   23.2077   45.2472 H   0  0  0  0  0  0  0  0  0  0  0  0
   55.5217   24.0158   44.3111 H   0  0  0  0  0  0  0  0  0  0  0  0
   57.1833   24.6982   44.3111 H   0  0  0  0  0  0  0  0  0  0  0  0
   56.8565   26.6094   44.2938 H   0  0  0  0  0  0  0  0  0  0  0  0
   58.0811   28.1700   42.7868 H   0  0  0  0  0  0  0  0  0  0  0  0
   60.0218   29.4764   43.6437 H   0  0  0  0  0  0  0  0  0  0  0  0
   61.8946   28.8267   46.3664 H   0  0  0  0  0  0  0  0  0  0  0  0
   61.3001   30.2258   45.3638 H   0  0  0  0  0  0  0  0  0  0  0  0
   60.9860   29.8150   48.2790 H   0  0  0  0  0  0  0  0  0  0  0  0
   60.8263   31.9825   49.4005 H   0  0  0  0  0  0  0  0  0  0  0  0
   59.6320   35.4430   49.6740 H   0  0  0  0  0  0  0  0  0  0  0  0
   57.7114   34.6944   45.2654 H   0  0  0  0  0  0  0  0  0  0  0  0
   59.2720   34.4108   44.4152 H   0  0  0  0  0  0  0  0  0  0  0  0
   56.7555   32.0189   45.9204 H   0  0  0  0  0  0  0  0  0  0  0  0
   55.7642   30.1353   44.6167 H   0  0  0  0  0  0  0  0  0  0  0  0
   56.3284   29.8529   42.2011 H   0  0  0  0  0  0  0  0  0  0  0  0
   57.8548   31.4752   41.0764 H   0  0  0  0  0  0  0  0  0  0  0  0
   58.8363   33.3722   42.3690 H   0  0  0  0  0  0  0  0  0  0  0  0
   59.3217   31.4788   45.3813 H   0  0  0  0  0  0  0  0  0  0  0  0
   59.4417   27.7435   47.5720 H   0  0  0  0  0  0  0  0  0  0  0  0
  1  2  1  0
  2  3  2  0
  2  4  2  0
  2  5  1  0
  5  6  1  0
  6  7  2  0
  7  8  1  0
  8  9  2  0
  9 10  1  0
 10 11  1  0
 11 12  1  0
 12 13  1  0
 13 14  1  0
 14 15  2  0
 15 16  1  0
 15 17  1  0
 17 18  2  0
 17 19  1  0
 19 20  1  0
 20 21  1  0
 21 22  2  0
 22 23  1  0
 23 24  2  0
 24 25  1  0
 25 26  2  0
 19 27  1  0
 10 28  2  0
 28  6  1  0
 27 13  2  0
 26 21  1  0
  1 29  1  0
  1 30  1  0
  1 31  1  0
  7 32  1  0
  8 33  1  0
  9 34  1  0
 11 35  1  0
 11 36  1  0
 12 37  1  0
 14 38  1  0
 16 39  1  0
 20 40  1  0
 20 41  1  0
 22 42  1  0
 23 43  1  0
 24 44  1  0
 25 45  1  0
 26 46  1  0
 27 47  1  0
 28 48  1  0
M  CHG  1   5  -1
M  END
>  <UniqueID>  (16) 
15

>  <SMILES>  (16) 
CS(=O)(=O)[N-]c1cccc(CNc2cc(O)c(=O)n(Cc3ccccc3)c2)c1

>  <Energy>  (16) 
44.679692646831064

>  <Genealogy>  (16) 
CS(=O)(=O)[N-]c1cccc(CNc2cc(O)c(=O)n(Cc3ccccc3)c2)c1 (protonated)
CS(=O)(=O)[N-]c1cccc(CNc2cc(O)c(=O)n(Cc3ccccc3)c2)c1 (3D coordinates assigned)
CS(=O)(=O)[N-]c1cccc(CNc2cc(O)c(=O)n(Cc3ccccc3)c2)c1 (optimized conformer: 44.679692646831064 kcal/mol)

>  <smiles>  (16) 
CS(=O)(=O)Nc1cccc(CNc2cc(O)c(=O)n(Cc3ccccc3)c2)c1

>  <score_type>  (16) 
oracle

>  <origin>  (16) 
adg

>  <m_score__min__energy>  (16) 
-10.58

>  <m_primary>  (16) 
energy

$$$$
16:0
     RDKit          3D

 34 35  0  0  0  0  0  0  0  0999 V2000
   59.5777   29.1099   47.8707 H   0  0  0  0  0  0  0  0  0  0  0  0
   59.0720   28.6690   46.9990 C   0  0  0  0  0  0  0  0  0  0  0  0
   57.8340   29.1030   46.6390 N   0  0  0  0  0  0  0  0  0  0  0  0
   57.1700   28.5850   45.5670 C   0  0  0  0  0  0  0  0  0  0  0  0
   55.9860   29.0110   45.2310 N   0  0  0  0  0  0  0  0  0  0  0  0
   55.6290   29.7060   44.0240 C   0  0  0  0  0  0  0  0  0  0  0  0
   54.5800   29.4180   43.3870 O   0  0  0  0  0  0  0  0  0  0  0  0
   56.4950   30.8260   43.5410 C   0  0  0  0  0  0  0  0  0  0  0  0
   55.8596   31.6372   43.1561 H   0  0  0  0  0  0  0  0  0  0  0  0
   57.1522   30.4539   42.7413 H   0  0  0  0  0  0  0  0  0  0  0  0
   57.3160   31.3340   44.6370 N   0  0  0  0  0  0  0  0  0  0  0  0
   57.3490   30.7720   45.5180 H   0  0  0  0  0  0  0  0  0  0  0  0
   58.1370   32.5060   44.5020 C   0  0  0  0  0  0  0  0  0  0  0  0
   58.2250   33.0780   43.3800 O   0  0  0  0  0  0  0  0  0  0  0  0
   58.8990   33.0470   45.6530 C   0  0  0  0  0  0  0  0  0  0  0  0
   58.9310   34.4270   45.9230 C   0  0  0  0  0  0  0  0  0  0  0  0
   58.3796   35.1230   45.2737 H   0  0  0  0  0  0  0  0  0  0  0  0
   59.6580   34.9210   47.0100 C   0  0  0  0  0  0  0  0  0  0  0  0
   59.6769   36.0027   47.2089 H   0  0  0  0  0  0  0  0  0  0  0  0
   60.3630   34.0460   47.8480 C   0  0  0  0  0  0  0  0  0  0  0  0
   61.1720   34.5870   48.9900 C   0  0  0  0  0  0  0  0  0  0  0  0
   60.7136   34.2804   49.9418 H   0  0  0  0  0  0  0  0  0  0  0  0
   62.1970   34.1920   48.9327 H   0  0  0  0  0  0  0  0  0  0  0  0
   61.1985   35.6852   48.9327 H   0  0  0  0  0  0  0  0  0  0  0  0
   60.3590   32.6720   47.5660 C   0  0  0  0  0  0  0  0  0  0  0  0
   60.9310   31.9811   48.2028 H   0  0  0  0  0  0  0  0  0  0  0  0
   59.6320   32.1760   46.4800 C   0  0  0  0  0  0  0  0  0  0  0  0
   59.6329   31.0962   46.2702 H   0  0  0  0  0  0  0  0  0  0  0  0
   57.7740   27.5770   44.8060 C   0  0  0  0  0  0  0  0  0  0  0  0
   57.2514   27.1509   43.9369 H   0  0  0  0  0  0  0  0  0  0  0  0
   59.0450   27.1160   45.1580 C   0  0  0  0  0  0  0  0  0  0  0  0
   59.5273   26.3236   44.5668 H   0  0  0  0  0  0  0  0  0  0  0  0
   59.7010   27.6630   46.2610 C   0  0  0  0  0  0  0  0  0  0  0  0
   60.7017   27.3065   46.5464 H   0  0  0  0  0  0  0  0  0  0  0  0
  1  2  1  0
  2  3  1  0
  3  4  1  0
  4  5  2  0
  5  6  1  0
  6  7  2  0
  6  8  1  0
  8  9  1  0
  8 10  1  0
  8 11  1  0
 11 12  1  0
 11 13  1  0
 13 14  2  0
 13 15  1  0
 15 16  2  0
 16 17  1  0
 16 18  1  0
 18 19  1  0
 18 20  2  0
 20 21  1  0
 21 22  1  0
 21 23  1  0
 21 24  1  0
 20 25  1  0
 25 26  1  0
 25 27  2  0
 27 28  1  0
  4 29  1  0
 29 30  1  0
 29 31  2  0
 31 32  1  0
 31 33  1  0
 33 34  1  0
 33  2  2  0
 27 15  1  0
M  CHG  1   3  -1
M  END
>  <UniqueID>  (17) 
16

>  <SMILES>  (17) 
Cc1ccc(C(=O)NCC(=O)/N=c2/cccc[n-]2)cc1

>  <Energy>  (17) 
36.36599195875394

>  <Genealogy>  (17) 
Cc1ccc(C(=O)NCC(=O)N=c2cccc[n-]2)cc1 (protonated)
Cc1ccc(C(=O)NCC(=O)/N=c2/cccc[n-]2)cc1 (cis-trans isomerization)
Cc1ccc(C(=O)NCC(=O)/N=c2/cccc[n-]2)cc1 (3D coordinates assigned)
Cc1ccc(C(=O)NCC(=O)/N=c2/cccc[n-]2)cc1 (optimized conformer: 36.36599195875394 kcal/mol)

>  <smiles>  (17) 
Cc1ccc(C(=O)NCC(=O)N=c2cccc[nH]2)cc1

>  <score_type>  (17) 
oracle

>  <origin>  (17) 
adg

>  <m_score__min__energy>  (17) 
-9.0899999999999999

>  <m_primary>  (17) 
energy

$$$$
17:0
     RDKit          3D

 41 43  0  0  0  0  0  0  0  0999 V2000
   59.2400   28.1340   45.4380 O   0  0  0  0  0  0  0  0  0  0  0  0
   58.1160   27.8470   45.9310 C   0  0  0  0  0  0  0  0  0  0  0  0
   58.0280   26.7800   46.9800 C   0  0  0  0  0  0  0  0  0  0  0  0
   57.9440   25.4920   46.3740 O   0  0  0  0  0  0  0  0  0  0  0  0
   57.2580   25.2460   45.1780 C   0  0  0  0  0  0  0  0  0  0  0  0
   57.7990   25.5450   44.0770 O   0  0  0  0  0  0  0  0  0  0  0  0
   55.8980   24.6370   45.2050 C   0  0  0  0  0  0  0  0  0  0  0  0
   54.7680   25.3730   45.6230 C   0  0  0  0  0  0  0  0  0  0  0  0
   54.8810   26.6960   46.0360 O   0  0  0  0  0  0  0  0  0  0  0  0
   53.5410   24.7910   45.6360 N   0  0  0  0  0  0  0  0  0  0  0  0
   53.3700   23.5030   45.2530 C   0  0  0  0  0  0  0  0  0  0  0  0
   52.2210   22.9880   45.2740 O   0  0  0  0  0  0  0  0  0  0  0  0
   54.4340   22.7680   44.8480 N   0  0  0  0  0  0  0  0  0  0  0  0
   55.6840   23.2960   44.8140 C   0  0  0  0  0  0  0  0  0  0  0  0
   56.6370   22.5700   44.4250 O   0  0  0  0  0  0  0  0  0  0  0  0
   56.9260   28.4910   45.4540 N   0  0  0  0  0  0  0  0  0  0  0  0
   56.9460   29.5920   44.5300 C   0  0  0  0  0  0  0  0  0  0  0  0
   56.5350   29.4030   43.1990 C   0  0  0  0  0  0  0  0  0  0  0  0
   56.6450   30.4410   42.2710 C   0  0  0  0  0  0  0  0  0  0  0  0
   57.1810   31.6710   42.6570 C   0  0  0  0  0  0  0  0  0  0  0  0
   57.5990   31.8690   43.9750 C   0  0  0  0  0  0  0  0  0  0  0  0
   57.4710   30.8460   44.9220 C   0  0  0  0  0  0  0  0  0  0  0  0
   57.8920   31.0990   46.2350 O   0  0  0  0  0  0  0  0  0  0  0  0
   58.7020   32.1750   46.6280 C   0  0  0  0  0  0  0  0  0  0  0  0
   60.0750   31.9590   46.7920 C   0  0  0  0  0  0  0  0  0  0  0  0
   60.9130   33.0050   47.1910 C   0  0  0  0  0  0  0  0  0  0  0  0
   60.3830   34.2780   47.4160 C   0  0  0  0  0  0  0  0  0  0  0  0
   59.0170   34.5090   47.2350 C   0  0  0  0  0  0  0  0  0  0  0  0
   58.1770   33.4660   46.8340 C   0  0  0  0  0  0  0  0  0  0  0  0
   58.9239   26.8231   47.6167 H   0  0  0  0  0  0  0  0  0  0  0  0
   57.1252   26.9488   47.5854 H   0  0  0  0  0  0  0  0  0  0  0  0
   56.0000   28.0840   45.7180 H   0  0  0  0  0  0  0  0  0  0  0  0
   56.1242   28.4316   42.8865 H   0  0  0  0  0  0  0  0  0  0  0  0
   56.3089   30.2892   41.2347 H   0  0  0  0  0  0  0  0  0  0  0  0
   57.2742   32.4847   41.9227 H   0  0  0  0  0  0  0  0  0  0  0  0
   58.0320   32.8359   44.2710 H   0  0  0  0  0  0  0  0  0  0  0  0
   60.4975   30.9605   46.6059 H   0  0  0  0  0  0  0  0  0  0  0  0
   61.9896   32.8255   47.3277 H   0  0  0  0  0  0  0  0  0  0  0  0
   61.0416   35.0989   47.7359 H   0  0  0  0  0  0  0  0  0  0  0  0
   58.6020   35.5129   47.4083 H   0  0  0  0  0  0  0  0  0  0  0  0
   57.1043   33.6536   46.6790 H   0  0  0  0  0  0  0  0  0  0  0  0
  1  2  2  0
  2  3  1  0
  3  4  1  0
  4  5  1  0
  5  6  2  0
  5  7  1  0
  7  8  2  0
  8  9  1  0
  8 10  1  0
 10 11  1  0
 11 12  2  0
 11 13  1  0
 13 14  1  0
 14 15  2  0
  2 16  1  0
 16 17  1  0
 17 18  2  0
 18 19  1  0
 19 20  2  0
 20 21  1  0
 21 22  2  0
 22 23  1  0
 23 24  1  0
 24 25  2  0
 25 26  1  0
 26 27  2  0
 27 28  1  0
 28 29  2  0
 14  7  1  0
 22 17  1  0
 29 24  1  0
  3 30  1  0
  3 31  1  0
 16 32  1  0
 18 33  1  0
 19 34  1  0
 20 35  1  0
 21 36  1  0
 25 37  1  0
 26 38  1  0
 27 39  1  0
 28 40  1  0
 29 41  1  0
M  CHG  3   9  -1  10  -1  13  -1
M  END
>  <UniqueID>  (18) 
17

>  <SMILES>  (18) 
O=C(COC(=O)c1c([O-])[n-]c(=O)[n-]c1=O)Nc1ccccc1Oc1ccccc1

>  <Energy>  (18) 
57.24771349917204

>  <Genealogy>  (18) 
O=C(COC(=O)c1c([O-])[n-]c(=O)[n-]c1=O)Nc1ccccc1Oc1ccccc1 (protonated)
O=C(COC(=O)c1c([O-])[n-]c(=O)[n-]c1=O)Nc1ccccc1Oc1ccccc1 (3D coordinates assigned)
O=C(COC(=O)c1c([O-])[n-]c(=O)[n-]c1=O)Nc1ccccc1Oc1ccccc1 (optimized conformer: 57.24771349917204 kcal/mol)

>  <smiles>  (18) 
O=C(COC(=O)c1c(O)[nH]c(=O)[nH]c1=O)Nc1ccccc1Oc1ccccc1

>  <score_type>  (18) 
oracle

>  <origin>  (18) 
adg

>  <m_score__min__energy>  (18) 
-15.23

>  <m_primary>  (18) 
energy

$$$$
18:0
     RDKit          3D

 31 33  0  0  0  0  0  0  0  0999 V2000
   57.8470   24.9480   48.2700 O   0  0  0  0  0  0  0  0  0  0  0  0
   57.4060   25.6640   47.3310 C   0  0  0  0  0  0  0  0  0  0  0  0
   56.0930   25.5790   46.9930 N   0  0  0  0  0  0  0  0  0  0  0  0
   55.5750   26.3320   45.9900 C   0  0  0  0  0  0  0  0  0  0  0  0
   56.3680   27.1920   45.3020 N   0  0  0  0  0  0  0  0  0  0  0  0
   57.6910   27.3210   45.5910 C   0  0  0  0  0  0  0  0  0  0  0  0
   58.4970   28.2250   44.8670 C   0  0  0  0  0  0  0  0  0  0  0  0
   57.9240   29.0150   43.8060 N   0  0  0  0  0  0  0  0  0  0  0  0
   56.7990   30.3100   44.0730 S   0  0  0  0  0  0  0  0  0  0  0  0
   56.2870   30.7970   42.7460 O   0  0  0  0  0  0  0  0  0  0  0  0
   55.6440   29.8050   44.8890 O   0  0  0  0  0  0  0  0  0  0  0  0
   57.5860   31.6150   44.9570 C   0  0  0  0  0  0  0  0  0  0  0  0
   57.6180   32.9140   44.4300 C   0  0  0  0  0  0  0  0  0  0  0  0
   58.2580   33.9400   45.1330 C   0  0  0  0  0  0  0  0  0  0  0  0
   58.8650   33.6740   46.3650 C   0  0  0  0  0  0  0  0  0  0  0  0
   59.6680   34.9620   47.2440 Cl  0  0  0  0  0  0  0  0  0  0  0  0
   58.8300   32.3810   46.8950 C   0  0  0  0  0  0  0  0  0  0  0  0
   58.1900   31.3530   46.1940 C   0  0  0  0  0  0  0  0  0  0  0  0
   59.8630   28.3320   45.1940 C   0  0  0  0  0  0  0  0  0  0  0  0
   60.4110   27.5670   46.2250 C   0  0  0  0  0  0  0  0  0  0  0  0
   59.6130   26.6790   46.9450 C   0  0  0  0  0  0  0  0  0  0  0  0
   58.2500   26.5470   46.6340 C   0  0  0  0  0  0  0  0  0  0  0  0
   54.5088   26.2451   45.7337 H   0  0  0  0  0  0  0  0  0  0  0  0
   58.0970   28.7480   42.8110 H   0  0  0  0  0  0  0  0  0  0  0  0
   57.1393   33.1264   43.4627 H   0  0  0  0  0  0  0  0  0  0  0  0
   58.2841   34.9577   44.7164 H   0  0  0  0  0  0  0  0  0  0  0  0
   59.3061   32.1714   47.8642 H   0  0  0  0  0  0  0  0  0  0  0  0
   58.1609   30.3371   46.6148 H   0  0  0  0  0  0  0  0  0  0  0  0
   60.5046   29.0257   44.6309 H   0  0  0  0  0  0  0  0  0  0  0  0
   61.4787   27.6653   46.4708 H   0  0  0  0  0  0  0  0  0  0  0  0
   60.0515   26.0811   47.7576 H   0  0  0  0  0  0  0  0  0  0  0  0
  1  2  2  0
  2  3  1  0
  3  4  1  0
  4  5  2  0
  5  6  1  0
  6  7  2  0
  7  8  1  0
  8  9  1  0
  9 10  2  0
  9 11  2  0
  9 12  1  0
 12 13  2  0
 13 14  1  0
 14 15  2  0
 15 16  1  0
 15 17  1  0
 17 18  2  0
  7 19  1  0
 19 20  2  0
 20 21  1  0
 21 22  2  0
 22  2  1  0
 22  6  1  0
 18 12  1  0
  4 23  1  0
  8 24  1  0
 13 25  1  0
 14 26  1  0
 17 27  1  0
 18 28  1  0
 19 29  1  0
 20 30  1  0
 21 31  1  0
M  CHG  1   3  -1
M  END
>  <UniqueID>  (19) 
18

>  <SMILES>  (19) 
O=c1[n-]cnc2c(NS(=O)(=O)c3ccc(Cl)cc3)cccc12

>  <Energy>  (19) 
42.52308266326889

>  <Genealogy>  (19) 
O=c1[n-]cnc2c(NS(=O)(=O)c3ccc(Cl)cc3)cccc12 (protonated)
O=c1[n-]cnc2c(NS(=O)(=O)c3ccc(Cl)cc3)cccc12 (3D coordinates assigned)
O=c1[n-]cnc2c(NS(=O)(=O)c3ccc(Cl)cc3)cccc12 (optimized conformer: 42.52308266326889 kcal/mol)

>  <smiles>  (19) 
O=c1[nH]cnc2c(NS(=O)(=O)c3ccc(Cl)cc3)cccc12

>  <score_type>  (19) 
oracle

>  <origin>  (19) 
adg

>  <m_score__min__energy>  (19) 
-10.369999999999999

>  <m_primary>  (19) 
energy

$$$$
19:0
     RDKit          3D

 58 61  0  0  0  0  0  0  0  0999 V2000
   55.9090   22.5890   42.7610 C   0  0  0  0  0  0  0  0  0  0  0  0
   56.0560   23.6420   43.8250 C   0  0  0  0  0  0  0  0  0  0  0  0
   57.3020   24.2560   44.0390 C   0  0  0  0  0  0  0  0  0  0  0  0
   57.4570   25.2250   45.0410 C   0  0  0  0  0  0  0  0  0  0  0  0
   58.7590   25.8900   45.2840 C   0  0  0  0  0  0  0  0  0  0  0  0
   59.6590   25.2290   45.8760 O   0  0  0  0  0  0  0  0  0  0  0  0
   59.0270   27.2710   44.9120 N   0  0  1  0  0  0  0  0  0  0  0  0
   58.0790   27.7350   43.8680 C   0  0  0  0  0  0  0  0  0  0  0  0
   57.9950   29.2670   43.8210 C   0  0  0  0  0  0  0  0  0  0  0  0
   57.3960   29.8550   45.1390 C   0  0  2  0  0  0  0  0  0  0  0  0
   55.9870   29.7840   45.0650 O   0  0  0  0  0  0  0  0  0  0  0  0
   57.7290   31.3490   45.3340 C   0  0  0  0  0  0  0  0  0  0  0  0
   57.7520   32.1980   44.2000 C   0  0  0  0  0  0  0  0  0  0  0  0
   58.0650   33.5570   44.3170 C   0  0  0  0  0  0  0  0  0  0  0  0
   58.4020   34.0900   45.5600 C   0  0  0  0  0  0  0  0  0  0  0  0
   58.4480   33.2640   46.6830 C   0  0  0  0  0  0  0  0  0  0  0  0
   58.8140   33.7790   47.8840 F   0  0  0  0  0  0  0  0  0  0  0  0
   58.1360   31.9000   46.5750 C   0  0  0  0  0  0  0  0  0  0  0  0
   57.8990   29.0160   46.3710 C   0  0  0  0  0  0  0  0  0  0  0  0
   59.1670   28.1900   46.0780 C   0  0  0  0  0  0  0  0  0  0  0  0
   56.3740   25.5290   45.8770 C   0  0  0  0  0  0  0  0  0  0  0  0
   55.1400   24.9040   45.6890 C   0  0  0  0  0  0  0  0  0  0  0  0
   54.9710   23.9600   44.6660 C   0  0  0  0  0  0  0  0  0  0  0  0
   53.7090   23.3120   44.4750 N   0  0  0  0  0  0  0  0  0  0  0  0
   52.7790   22.6590   45.7850 S   0  0  0  0  0  0  0  0  0  0  0  0
   51.7250   23.6410   46.2300 O   0  0  0  0  0  0  0  0  0  0  0  0
   52.0930   21.4090   45.3160 O   0  0  0  0  0  0  0  0  0  0  0  0
   53.8660   22.2650   47.1190 C   0  0  0  0  0  0  0  0  0  0  0  0
   53.4850   22.5300   48.4420 C   0  0  0  0  0  0  0  0  0  0  0  0
   54.3300   22.1780   49.5000 C   0  0  0  0  0  0  0  0  0  0  0  0
   55.5580   21.5530   49.2460 C   0  0  0  0  0  0  0  0  0  0  0  0
   56.6200   21.1160   50.5790 Cl  0  0  0  0  0  0  0  0  0  0  0  0
   55.9410   21.2810   47.9300 C   0  0  0  0  0  0  0  0  0  0  0  0
   55.0990   21.6360   46.8700 C   0  0  0  0  0  0  0  0  0  0  0  0
   55.7717   21.6058   43.2347 H   0  0  0  0  0  0  0  0  0  0  0  0
   55.0344   22.8198   42.1351 H   0  0  0  0  0  0  0  0  0  0  0  0
   56.8134   22.5714   42.1351 H   0  0  0  0  0  0  0  0  0  0  0  0
   58.1631   23.9741   43.4152 H   0  0  0  0  0  0  0  0  0  0  0  0
   59.9750   27.2620   44.4600 H   0  0  0  0  0  0  0  0  0  0  0  0
   57.0803   27.3294   44.0871 H   0  0  0  0  0  0  0  0  0  0  0  0
   58.4418   27.3804   42.8920 H   0  0  0  0  0  0  0  0  0  0  0  0
   57.3558   29.5630   42.9761 H   0  0  0  0  0  0  0  0  0  0  0  0
   59.0146   29.6623   43.7022 H   0  0  0  0  0  0  0  0  0  0  0  0
   55.6210   29.7160   45.9850 H   0  0  0  0  0  0  0  0  0  0  0  0
   57.5195   31.7811   43.2090 H   0  0  0  0  0  0  0  0  0  0  0  0
   58.0451   34.2045   43.4280 H   0  0  0  0  0  0  0  0  0  0  0  0
   58.6316   35.1615   45.6553 H   0  0  0  0  0  0  0  0  0  0  0  0
   58.2079   31.2526   47.4614 H   0  0  0  0  0  0  0  0  0  0  0  0
   57.0969   28.3266   46.6732 H   0  0  0  0  0  0  0  0  0  0  0  0
   58.1565   29.7318   47.1656 H   0  0  0  0  0  0  0  0  0  0  0  0
   59.4030   27.5884   46.9681 H   0  0  0  0  0  0  0  0  0  0  0  0
   59.9661   28.9042   45.8305 H   0  0  0  0  0  0  0  0  0  0  0  0
   56.4971   26.2642   46.6859 H   0  0  0  0  0  0  0  0  0  0  0  0
   54.2949   25.1536   46.3475 H   0  0  0  0  0  0  0  0  0  0  0  0
   52.5198   23.0156   48.6485 H   0  0  0  0  0  0  0  0  0  0  0  0
   54.0289   22.3929   50.5359 H   0  0  0  0  0  0  0  0  0  0  0  0
   56.9034   20.7883   47.7274 H   0  0  0  0  0  0  0  0  0  0  0  0
   55.4037   21.4216   45.8350 H   0  0  0  0  0  0  0  0  0  0  0  0
  1  2  1  0
  2  3  2  0
  3  4  1  0
  4  5  1  0
  5  6  2  0
  5  7  1  0
  7  8  1  0
  8  9  1  0
  9 10  1  0
 10 11  1  6
 10 12  1  0
 12 13  2  0
 13 14  1  0
 14 15  2  0
 15 16  1  0
 16 17  1  0
 16 18  2  0
 10 19  1  0
 19 20  1  0
  4 21  2  0
 21 22  1  0
 22 23  2  0
 23 24  1  0
 24 25  1  0
 25 26  2  0
 25 27  2  0
 25 28  1  0
 28 29  2  0
 29 30  1  0
 30 31  2  0
 31 32  1  0
 31 33  1  0
 33 34  2  0
 23  2  1  0
 34 28  1  0
 20  7  1  0
 18 12  1  0
  1 35  1  0
  1 36  1  0
  1 37  1  0
  3 38  1  0
  7 39  1  6
  8 40  1  0
  8 41  1  0
  9 42  1  0
  9 43  1  0
 11 44  1  0
 13 45  1  0
 14 46  1  0
 15 47  1  0
 18 48  1  0
 19 49  1  0
 19 50  1  0
 20 51  1  0
 20 52  1  0
 21 53  1  0
 22 54  1  0
 29 55  1  0
 30 56  1  0
 33 57  1  0
 34 58  1  0
M  CHG  2   7   1  24  -1
M  END
>  <UniqueID>  (20) 
19

>  <SMILES>  (20) 
Cc1cc(C(=O)[NH+]2CCC(O)(c3cccc(F)c3)CC2)ccc1[N-]S(=O)(=O)c1ccc(Cl)cc1

>  <Energy>  (20) 
97.42911129300259

>  <Genealogy>  (20) 
Cc1cc(C(=O)[NH+]2CCC(O)(c3cccc(F)c3)CC2)ccc1[N-]S(=O)(=O)c1ccc(Cl)cc1 (protonated)
Cc1cc(C(=O)[NH+]2CCC(O)(c3cccc(F)c3)CC2)ccc1[N-]S(=O)(=O)c1ccc(Cl)cc1 (3D coordinates assigned)
Cc1cc(C(=O)[NH+]2CCC(O)(c3cccc(F)c3)CC2)ccc1[N-]S(=O)(=O)c1ccc(Cl)cc1 (nonaromatic ring conformer: 97.42911129300259 kcal/mol)

>  <smiles>  (20) 
Cc1cc(C(=O)N2CCC(O)(c3cccc(F)c3)CC2)ccc1NS(=O)(=O)c1ccc(Cl)cc1

>  <score_type>  (20) 
oracle

>  <origin>  (20) 
adg

>  <m_score__min__energy>  (20) 
-10.33

>  <m_primary>  (20) 
energy

$$$$
20:0
     RDKit          3D

 41 43  0  0  0  0  0  0  0  0999 V2000
   55.8440   30.4730   44.8510 O   0  0  0  0  0  0  0  0  0  0  0  0
   56.7240   30.4630   43.9480 C   0  0  0  0  0  0  0  0  0  0  0  0
   56.6010   29.4970   42.8100 C   0  0  0  0  0  0  0  0  0  0  0  0
   57.3950   28.2220   43.0990 C   0  0  0  0  0  0  0  0  0  0  0  0
   58.1040   28.3490   44.3700 N   0  0  0  0  0  0  0  0  0  0  0  0
   59.3780   28.7500   44.5340 C   0  0  0  0  0  0  0  0  0  0  0  0
   59.7220   28.6710   45.8680 C   0  0  0  0  0  0  0  0  0  0  0  0
   58.6110   28.1910   46.5350 C   0  0  0  0  0  0  0  0  0  0  0  0
   57.6320   27.9960   45.5810 C   0  0  0  0  0  0  0  0  0  0  0  0
   57.8110   31.3980   43.9840 N   0  0  0  0  0  0  0  0  0  0  0  0
   57.9610   32.3710   45.0730 C   0  0  2  0  0  0  0  0  0  0  0  0
   58.0980   33.8160   44.5490 C   0  0  0  0  0  0  0  0  0  0  0  0
   59.1740   34.3710   45.3950 C   0  0  0  0  0  0  0  0  0  0  0  0
   59.5530   35.5710   45.3330 O   0  0  0  0  0  0  0  0  0  0  0  0
   59.7960   33.3940   46.2160 N   0  0  0  0  0  0  0  0  0  0  0  0
   60.8610   33.6240   47.1610 C   0  0  0  0  0  0  0  0  0  0  0  0
   62.2080   33.5360   46.7630 C   0  0  0  0  0  0  0  0  0  0  0  0
   63.2350   33.7730   47.6820 C   0  0  0  0  0  0  0  0  0  0  0  0
   62.9300   34.1070   49.0030 C   0  0  0  0  0  0  0  0  0  0  0  0
   61.5970   34.2120   49.4060 C   0  0  0  0  0  0  0  0  0  0  0  0
   60.5660   33.9770   48.4910 C   0  0  0  0  0  0  0  0  0  0  0  0
   59.2290   32.0910   45.9080 C   0  0  0  0  0  0  0  0  0  0  0  0
   55.5413   29.2387   42.6678 H   0  0  0  0  0  0  0  0  0  0  0  0
   57.0030   29.9670   41.9004 H   0  0  0  0  0  0  0  0  0  0  0  0
   56.7044   27.3674   43.1515 H   0  0  0  0  0  0  0  0  0  0  0  0
   58.1266   28.0632   42.2931 H   0  0  0  0  0  0  0  0  0  0  0  0
   60.0441   29.0893   43.7271 H   0  0  0  0  0  0  0  0  0  0  0  0
   60.6916   28.9381   46.3136 H   0  0  0  0  0  0  0  0  0  0  0  0
   58.5236   28.0013   47.6150 H   0  0  0  0  0  0  0  0  0  0  0  0
   56.6209   27.6111   45.7797 H   0  0  0  0  0  0  0  0  0  0  0  0
   58.4850   31.3990   43.1840 H   0  0  0  0  0  0  0  0  0  0  0  0
   57.0508   32.2671   45.6819 H   0  0  0  0  0  0  0  0  0  0  0  0
   58.3839   33.8267   43.4868 H   0  0  0  0  0  0  0  0  0  0  0  0
   57.1611   34.3897   44.6045 H   0  0  0  0  0  0  0  0  0  0  0  0
   62.4546   33.2791   45.7222 H   0  0  0  0  0  0  0  0  0  0  0  0
   64.2851   33.6962   47.3636 H   0  0  0  0  0  0  0  0  0  0  0  0
   63.7393   34.2873   49.7259 H   0  0  0  0  0  0  0  0  0  0  0  0
   61.3575   34.4802   50.4456 H   0  0  0  0  0  0  0  0  0  0  0  0
   59.5181   34.0686   48.8127 H   0  0  0  0  0  0  0  0  0  0  0  0
   59.9444   31.4893   45.3282 H   0  0  0  0  0  0  0  0  0  0  0  0
   58.9953   31.5248   46.8217 H   0  0  0  0  0  0  0  0  0  0  0  0
  1  2  2  0
  2  3  1  0
  3  4  1  0
  4  5  1  0
  5  6  1  0
  6  7  2  0
  7  8  1  0
  8  9  2  0
  2 10  1  0
 10 11  1  0
 11 12  1  0
 12 13  1  0
 13 14  2  0
 13 15  1  0
 15 16  1  0
 16 17  2  0
 17 18  1  0
 18 19  2  0
 19 20  1  0
 20 21  2  0
 15 22  1  0
  9  5  1  0
 22 11  1  0
 21 16  1  0
  3 23  1  0
  3 24  1  0
  4 25  1  0
  4 26  1  0
  6 27  1  0
  7 28  1  0
  8 29  1  0
  9 30  1  0
 10 31  1  0
 11 32  1  1
 12 33  1  0
 12 34  1  0
 17 35  1  0
 18 36  1  0
 19 37  1  0
 20 38  1  0
 21 39  1  0
 22 40  1  0
 22 41  1  0
M  END
>  <UniqueID>  (21) 
20

>  <SMILES>  (21) 
O=C(CCn1cccc1)N[C@@H]1CC(=O)N(c2ccccc2)C1

>  <Energy>  (21) 
72.93861094264811

>  <Genealogy>  (21) 
O=C(CCn1cccc1)N[C@@H]1CC(=O)N(c2ccccc2)C1 (chirality)
O=C(CCn1cccc1)N[C@@H]1CC(=O)N(c2ccccc2)C1 (3D coordinates assigned)
O=C(CCn1cccc1)N[C@@H]1CC(=O)N(c2ccccc2)C1 (nonaromatic ring conformer: 72.93861094264811 kcal/mol)

>  <smiles>  (21) 
O=C(CCn1cccc1)NC1CC(=O)N(c2ccccc2)C1

>  <score_type>  (21) 
oracle

>  <origin>  (21) 
adg

>  <m_score__min__energy>  (21) 
-7.3700000000000001

>  <m_primary>  (21) 
energy

$$$$
21:0
     RDKit          3D

 21 22  0  0  0  0  0  0  0  0999 V2000
   53.6290   24.0460   44.4360 N   0  0  0  0  0  0  0  0  0  0  0  0
   54.5150   24.1830   45.1680 C   0  0  0  0  0  0  0  0  0  0  0  0
   55.6170   24.3530   46.0800 C   0  0  0  0  0  0  0  0  0  0  0  0
   56.2080   25.5810   46.3540 C   0  0  0  0  0  0  0  0  0  0  0  0
   55.7830   26.8640   45.8710 N   0  0  0  0  0  0  0  0  0  0  0  0
   56.6800   27.8480   45.3300 C   0  0  0  0  0  0  0  0  0  0  0  0
   58.0540   27.5800   45.2030 C   0  0  0  0  0  0  0  0  0  0  0  0
   58.9120   28.5340   44.6480 C   0  0  0  0  0  0  0  0  0  0  0  0
   60.2380   28.2690   44.5330 F   0  0  0  0  0  0  0  0  0  0  0  0
   58.4050   29.7570   44.2010 C   0  0  0  0  0  0  0  0  0  0  0  0
   57.0370   30.0240   44.3020 C   0  0  0  0  0  0  0  0  0  0  0  0
   56.1740   29.0740   44.8580 C   0  0  0  0  0  0  0  0  0  0  0  0
   54.8160   29.3560   44.9490 O   0  0  0  0  0  0  0  0  0  0  0  0
   57.3960   25.2660   47.4860 S   0  0  0  0  0  0  0  0  0  0  0  0
   57.2320   23.6170   47.6340 N   0  0  0  0  0  0  0  0  0  0  0  0
   56.2140   23.2900   46.7960 C   0  0  0  0  0  0  0  0  0  0  0  0
   55.8290   22.0970   46.6760 O   0  0  0  0  0  0  0  0  0  0  0  0
   54.7780   27.1230   45.9890 H   0  0  0  0  0  0  0  0  0  0  0  0
   58.4564   26.6141   45.5423 H   0  0  0  0  0  0  0  0  0  0  0  0
   59.0822   30.5090   43.7699 H   0  0  0  0  0  0  0  0  0  0  0  0
   56.6377   30.9841   43.9432 H   0  0  0  0  0  0  0  0  0  0  0  0
  1  2  3  0
  2  3  1  0
  3  4  2  0
  4  5  1  0
  5  6  1  0
  6  7  2  0
  7  8  1  0
  8  9  1  0
  8 10  2  0
 10 11  1  0
 11 12  2  0
 12 13  1  0
  4 14  1  0
 14 15  1  0
 15 16  1  0
 16 17  2  0
 16  3  1  0
 12  6  1  0
  5 18  1  0
  7 19  1  0
 10 20  1  0
 11 21  1  0
M  CHG  2  13  -1  15  -1
M  END
>  <UniqueID>  (22) 
21

>  <SMILES>  (22) 
N#Cc1c(Nc2cc(F)ccc2[O-])s[n-]c1=O

>  <Energy>  (22) 
59.7140023201888

>  <Genealogy>  (22) 
N#Cc1c(Nc2cc(F)ccc2[O-])s[n-]c1=O (protonated)
N#Cc1c(Nc2cc(F)ccc2[O-])s[n-]c1=O (3D coordinates assigned)
N#Cc1c(Nc2cc(F)ccc2[O-])s[n-]c1=O (optimized conformer: 59.7140023201888 kcal/mol)

>  <smiles>  (22) 
N#Cc1c(Nc2cc(F)ccc2O)s[nH]c1=O

>  <score_type>  (22) 
oracle

>  <origin>  (22) 
adg

>  <m_score__min__energy>  (22) 
-10.369999999999999

>  <m_primary>  (22) 
energy

$$$$
22:0
     RDKit          3D

 43 45  0  0  0  0  0  0  0  0999 V2000
   59.9840   30.4000   47.7390 C   0  0  0  0  0  0  0  0  0  0  0  0
   60.7750   31.6180   47.3440 C   0  0  0  0  0  0  0  0  0  0  0  0
   62.1720   31.6040   47.5090 C   0  0  0  0  0  0  0  0  0  0  0  0
   62.9380   32.7210   47.1750 C   0  0  0  0  0  0  0  0  0  0  0  0
   62.3230   33.8680   46.6780 C   0  0  0  0  0  0  0  0  0  0  0  0
   60.9400   33.8980   46.4980 C   0  0  0  0  0  0  0  0  0  0  0  0
   60.1510   32.7710   46.7990 C   0  0  0  0  0  0  0  0  0  0  0  0
   58.6510   32.8550   46.5980 C   0  0  0  0  0  0  0  0  0  0  0  0
   58.1450   31.6790   45.9650 O   0  0  0  0  0  0  0  0  0  0  0  0
   57.7790   31.5780   44.6100 C   0  0  0  0  0  0  0  0  0  0  0  0
   58.1930   32.5230   43.6510 C   0  0  0  0  0  0  0  0  0  0  0  0
   57.8130   32.3870   42.3140 C   0  0  0  0  0  0  0  0  0  0  0  0
   57.0210   31.3110   41.9170 C   0  0  0  0  0  0  0  0  0  0  0  0
   56.6040   30.3660   42.8550 C   0  0  0  0  0  0  0  0  0  0  0  0
   56.9740   30.4920   44.2050 C   0  0  0  0  0  0  0  0  0  0  0  0
   56.5240   29.4590   45.2070 C   0  0  0  0  0  0  0  0  0  0  0  0
   57.4330   28.3180   45.2020 N   0  0  0  0  0  0  0  0  0  0  0  0
   57.2840   27.1810   46.0610 C   0  0  0  0  0  0  0  0  0  0  0  0
   57.9880   27.0800   47.1020 O   0  0  0  0  0  0  0  0  0  0  0  0
   56.3110   26.1230   45.7330 C   0  0  0  0  0  0  0  0  0  0  0  0
   56.7110   24.9180   45.1400 C   0  0  0  0  0  0  0  0  0  0  0  0
   55.7520   23.9500   44.8480 C   0  0  0  0  0  0  0  0  0  0  0  0
   54.4160   24.2060   45.1520 C   0  0  0  0  0  0  0  0  0  0  0  0
   53.5280   23.3490   44.8990 O   0  0  0  0  0  0  0  0  0  0  0  0
   54.0740   25.3880   45.7260 N   0  0  0  0  0  0  0  0  0  0  0  0
   54.9910   26.3160   46.0060 N   0  0  0  0  0  0  0  0  0  0  0  0
   59.9395   30.3315   48.8360 H   0  0  0  0  0  0  0  0  0  0  0  0
   58.9639   30.4783   47.3349 H   0  0  0  0  0  0  0  0  0  0  0  0
   60.4704   29.5000   47.3349 H   0  0  0  0  0  0  0  0  0  0  0  0
   62.6649   30.7039   47.9051 H   0  0  0  0  0  0  0  0  0  0  0  0
   64.0301   32.6961   47.3043 H   0  0  0  0  0  0  0  0  0  0  0  0
   62.9288   34.7512   46.4272 H   0  0  0  0  0  0  0  0  0  0  0  0
   60.4606   34.8117   46.1169 H   0  0  0  0  0  0  0  0  0  0  0  0
   58.1643   32.9722   47.5775 H   0  0  0  0  0  0  0  0  0  0  0  0
   58.4355   33.7176   45.9503 H   0  0  0  0  0  0  0  0  0  0  0  0
   58.8197   33.3736   43.9571 H   0  0  0  0  0  0  0  0  0  0  0  0
   58.1396   33.1309   41.5724 H   0  0  0  0  0  0  0  0  0  0  0  0
   56.7243   31.2067   40.8629 H   0  0  0  0  0  0  0  0  0  0  0  0
   55.9817   29.5169   42.5359 H   0  0  0  0  0  0  0  0  0  0  0  0
   56.5117   29.9086   46.2108 H   0  0  0  0  0  0  0  0  0  0  0  0
   55.5154   29.1137   44.9360 H   0  0  0  0  0  0  0  0  0  0  0  0
   57.7710   24.7381   44.9074 H   0  0  0  0  0  0  0  0  0  0  0  0
   56.0454   22.9968   44.3839 H   0  0  0  0  0  0  0  0  0  0  0  0
  1  2  1  0
  2  3  2  0
  3  4  1  0
  4  5  2  0
  5  6  1  0
  6  7  2  0
  7  8  1  0
  8  9  1  0
  9 10  1  0
 10 11  2  0
 11 12  1  0
 12 13  2  0
 13 14  1  0
 14 15  2  0
 15 16  1  0
 16 17  1  0
 17 18  1  0
 18 19  2  0
 18 20  1  0
 20 21  1  0
 21 22  2  0
 22 23  1  0
 23 24  2  0
 23 25  1  0
 25 26  1  0
  7  2  1  0
 15 10  1  0
 26 20  2  0
  1 27  1  0
  1 28  1  0
  1 29  1  0
  3 30  1  0
  4 31  1  0
  5 32  1  0
  6 33  1  0
  8 34  1  0
  8 35  1  0
 11 36  1  0
 12 37  1  0
 13 38  1  0
 14 39  1  0
 16 40  1  0
 16 41  1  0
 21 42  1  0
 22 43  1  0
M  CHG  2  17  -1  25  -1
M  END
>  <UniqueID>  (23) 
22

>  <SMILES>  (23) 
Cc1ccccc1COc1ccccc1C[N-]C(=O)c1ccc(=O)[n-]n1

>  <Energy>  (23) 
45.91973191470321

>  <Genealogy>  (23) 
Cc1ccccc1COc1ccccc1C[N-]C(=O)c1ccc(=O)[n-]n1 (protonated)
Cc1ccccc1COc1ccccc1C[N-]C(=O)c1ccc(=O)[n-]n1 (3D coordinates assigned)
Cc1ccccc1COc1ccccc1C[N-]C(=O)c1ccc(=O)[n-]n1 (optimized conformer: 45.91973191470321 kcal/mol)

>  <smiles>  (23) 
Cc1ccccc1COc1ccccc1CNC(=O)c1ccc(=O)[nH]n1

>  <score_type>  (23) 
oracle

>  <origin>  (23) 
adg

>  <m_score__min__energy>  (23) 
-12.619999999999999

>  <m_primary>  (23) 
energy

$$$$
23:0
     RDKit          3D

 29 30  0  0  0  0  0  0  0  0999 V2000
   56.4515   32.1623   43.4150 H   0  0  0  0  0  0  0  0  0  0  0  0
   57.1920   31.5780   43.9810 C   0  0  0  0  0  0  0  0  0  0  0  0
   57.3760   30.2980   43.6200 C   0  0  0  0  0  0  0  0  0  0  0  0
   57.4018   30.0718   42.5438 H   0  0  0  0  0  0  0  0  0  0  0  0
   57.5470   29.1670   44.5620 C   0  0  0  0  0  0  0  0  0  0  0  0
   56.4470   28.5400   45.1600 C   0  0  0  0  0  0  0  0  0  0  0  0
   55.1500   28.9700   44.8910 O   0  0  0  0  0  0  0  0  0  0  0  0
   56.6410   27.5180   46.0310 N   0  0  0  0  0  0  0  0  0  0  0  0
   55.8100   27.0610   46.4710 H   0  0  0  0  0  0  0  0  0  0  0  0
   57.8910   27.0930   46.3550 C   0  0  0  0  0  0  0  0  0  0  0  0
   58.0210   26.1520   47.1860 O   0  0  0  0  0  0  0  0  0  0  0  0
   58.9940   27.6850   45.7930 N   0  0  0  0  0  0  0  0  0  0  0  0
   60.3450   27.2460   46.1790 C   0  0  0  0  0  0  0  0  0  0  0  0
   60.4229   27.2207   47.2759 H   0  0  0  0  0  0  0  0  0  0  0  0
   60.5333   26.2404   45.7747 H   0  0  0  0  0  0  0  0  0  0  0  0
   61.0884   27.9488   45.7747 H   0  0  0  0  0  0  0  0  0  0  0  0
   58.8330   28.7370   44.9270 C   0  0  0  0  0  0  0  0  0  0  0  0
   59.8420   29.3220   44.4410 O   0  0  0  0  0  0  0  0  0  0  0  0
   57.9070   32.2660   45.0810 C   0  0  0  0  0  0  0  0  0  0  0  0
   58.1090   31.6520   46.3320 C   0  0  0  0  0  0  0  0  0  0  0  0
   57.7448   30.6285   46.5048 H   0  0  0  0  0  0  0  0  0  0  0  0
   58.7700   32.3370   47.3550 C   0  0  0  0  0  0  0  0  0  0  0  0
   58.9381   31.8461   48.3249 H   0  0  0  0  0  0  0  0  0  0  0  0
   59.2180   33.6450   47.1480 C   0  0  0  0  0  0  0  0  0  0  0  0
   60.0460   34.5030   48.4340 Cl  0  0  0  0  0  0  0  0  0  0  0  0
   58.9950   34.2720   45.9180 C   0  0  0  0  0  0  0  0  0  0  0  0
   59.3402   35.3039   45.7569 H   0  0  0  0  0  0  0  0  0  0  0  0
   58.3340   33.5890   44.8930 C   0  0  0  0  0  0  0  0  0  0  0  0
   58.1475   34.0922   43.9328 H   0  0  0  0  0  0  0  0  0  0  0  0
  1  2  1  0
  2  3  2  0
  3  4  1  0
  3  5  1  0
  5  6  2  0
  6  7  1  0
  6  8  1  0
  8  9  1  0
  8 10  1  0
 10 11  2  0
 10 12  1  0
 12 13  1  0
 13 14  1  0
 13 15  1  0
 13 16  1  0
 12 17  1  0
 17 18  2  0
  2 19  1  0
 19 20  2  0
 20 21  1  0
 20 22  1  0
 22 23  1  0
 22 24  2  0
 24 25  1  0
 24 26  1  0
 26 27  1  0
 26 28  2  0
 28 29  1  0
 17  5  1  0
 28 19  1  0
M  CHG  1   7  -1
M  END
>  <UniqueID>  (24) 
23

>  <SMILES>  (24) 
Cn1c(=O)[nH]c([O-])c(/C=C\c2ccc(Cl)cc2)c1=O

>  <Energy>  (24) 
45.22907242924215

>  <Genealogy>  (24) 
Cn1c(=O)[nH]c([O-])c(C=Cc2ccc(Cl)cc2)c1=O (protonated)
Cn1c(=O)[nH]c([O-])c(/C=C\c2ccc(Cl)cc2)c1=O (cis-trans isomerization)
Cn1c(=O)[nH]c([O-])c(/C=C\c2ccc(Cl)cc2)c1=O (3D coordinates assigned)
Cn1c(=O)[nH]c([O-])c(/C=C\c2ccc(Cl)cc2)c1=O (optimized conformer: 45.22907242924215 kcal/mol)

>  <smiles>  (24) 
Cn1c(=O)[nH]c(O)c(C=Cc2ccc(Cl)cc2)c1=O

>  <score_type>  (24) 
oracle

>  <origin>  (24) 
adg

>  <m_score__min__energy>  (24) 
-10.58

>  <m_primary>  (24) 
energy

$$$$
24:0
     RDKit          3D

 42 44  0  0  0  0  0  0  0  0999 V2000
   60.7724   25.7325   46.0253 H   0  0  0  0  0  0  0  0  0  0  0  0
   60.1660   26.5680   46.4050 C   0  0  0  0  0  0  0  0  0  0  0  0
   60.7540   27.6030   46.9230 N   0  0  0  0  0  0  0  0  0  0  0  0
   60.4130   28.9660   46.6320 C   0  0  0  0  0  0  0  0  0  0  0  0
   60.3900   29.3350   45.4280 O   0  0  0  0  0  0  0  0  0  0  0  0
   60.0790   29.9540   47.6930 C   0  0  0  0  0  0  0  0  0  0  0  0
   58.9550   30.6190   47.7190 N   0  0  0  0  0  0  0  0  0  0  0  0
   58.3940   31.4230   46.6710 C   0  0  0  0  0  0  0  0  0  0  0  0
   57.4770   30.9320   45.9600 O   0  0  0  0  0  0  0  0  0  0  0  0
   58.8180   32.8230   46.4420 C   0  0  0  0  0  0  0  0  0  0  0  0
   59.1940   33.6440   47.5200 C   0  0  0  0  0  0  0  0  0  0  0  0
   59.1639   33.2483   48.5459 H   0  0  0  0  0  0  0  0  0  0  0  0
   59.6060   34.9610   47.2940 C   0  0  0  0  0  0  0  0  0  0  0  0
   59.9044   35.5963   48.1409 H   0  0  0  0  0  0  0  0  0  0  0  0
   59.6390   35.4710   45.9930 C   0  0  0  0  0  0  0  0  0  0  0  0
   59.9682   36.5055   45.8159 H   0  0  0  0  0  0  0  0  0  0  0  0
   59.2540   34.6670   44.9180 C   0  0  0  0  0  0  0  0  0  0  0  0
   59.2765   35.0708   43.8950 H   0  0  0  0  0  0  0  0  0  0  0  0
   58.8400   33.3500   45.1390 C   0  0  0  0  0  0  0  0  0  0  0  0
   58.5302   32.7235   44.2896 H   0  0  0  0  0  0  0  0  0  0  0  0
   61.1050   30.2620   48.7450 C   0  0  0  0  0  0  0  0  0  0  0  0
   60.6008   30.4292   49.7082 H   0  0  0  0  0  0  0  0  0  0  0  0
   61.8006   29.4142   48.8313 H   0  0  0  0  0  0  0  0  0  0  0  0
   61.8710   31.4910   48.3660 C   0  0  0  0  0  0  0  0  0  0  0  0
   61.9620   32.9010   49.2760 S   0  0  0  0  0  0  0  0  0  0  0  0
   63.0470   33.6990   48.2690 C   0  0  0  0  0  0  0  0  0  0  0  0
   63.4408   34.7146   48.4224 H   0  0  0  0  0  0  0  0  0  0  0  0
   63.3610   32.8560   47.2100 C   0  0  0  0  0  0  0  0  0  0  0  0
   64.0560   33.1351   46.4043 H   0  0  0  0  0  0  0  0  0  0  0  0
   62.7090   31.6170   47.2650 C   0  0  0  0  0  0  0  0  0  0  0  0
   62.8465   30.8254   46.5137 H   0  0  0  0  0  0  0  0  0  0  0  0
   58.6940   26.4980   46.3190 C   0  0  0  0  0  0  0  0  0  0  0  0
   57.9870   27.5540   45.7210 C   0  0  0  0  0  0  0  0  0  0  0  0
   58.5323   28.4277   45.3347 H   0  0  0  0  0  0  0  0  0  0  0  0
   56.5940   27.5010   45.6140 C   0  0  0  0  0  0  0  0  0  0  0  0
   56.0471   28.3332   45.1467 H   0  0  0  0  0  0  0  0  0  0  0  0
   55.8950   26.3920   46.1000 C   0  0  0  0  0  0  0  0  0  0  0  0
   54.5110   26.3400   45.9920 O   0  0  0  0  0  0  0  0  0  0  0  0
   56.5900   25.3350   46.6940 C   0  0  0  0  0  0  0  0  0  0  0  0
   56.0398   24.4624   47.0759 H   0  0  0  0  0  0  0  0  0  0  0  0
   57.9830   25.3840   46.8040 C   0  0  0  0  0  0  0  0  0  0  0  0
   58.5254   24.5489   47.2713 H   0  0  0  0  0  0  0  0  0  0  0  0
  1  2  1  0
  2  3  2  3
  3  4  1  0
  4  5  2  0
  4  6  1  0
  6  7  2  0
  7  8  1  0
  8  9  2  0
  8 10  1  0
 10 11  2  0
 11 12  1  0
 11 13  1  0
 13 14  1  0
 13 15  2  0
 15 16  1  0
 15 17  1  0
 17 18  1  0
 17 19  2  0
 19 20  1  0
  6 21  1  0
 21 22  1  0
 21 23  1  0
 21 24  1  0
 24 25  1  0
 25 26  1  0
 26 27  1  0
 26 28  2  0
 28 29  1  0
 28 30  1  0
 30 31  1  0
  2 32  1  0
 32 33  2  0
 33 34  1  0
 33 35  1  0
 35 36  1  0
 35 37  2  0
 37 38  1  0
 37 39  1  0
 39 40  1  0
 39 41  2  0
 41 42  1  0
 19 10  1  0
 30 24  2  0
 41 32  1  0
M  CHG  1  38  -1
M  END
>  <UniqueID>  (25) 
24

>  <SMILES>  (25) 
O=C(N=Cc1ccc([O-])cc1)/C(Cc1cccs1)=N\C(=O)c1ccccc1

>  <Energy>  (25) 
79.71522408966592

>  <Genealogy>  (25) 
O=C(N=Cc1ccc([O-])cc1)C(Cc1cccs1)=NC(=O)c1ccccc1 (protonated)
O=C(N=Cc1ccc([O-])cc1)/C(Cc1cccs1)=N\C(=O)c1ccccc1 (cis-trans isomerization)
O=C(N=Cc1ccc([O-])cc1)/C(Cc1cccs1)=N\C(=O)c1ccccc1 (3D coordinates assigned)
O=C(N=Cc1ccc([O-])cc1)/C(Cc1cccs1)=N\C(=O)c1ccccc1 (optimized conformer: 79.71522408966592 kcal/mol)

>  <smiles>  (25) 
O=C(N=Cc1ccc(O)cc1)C(Cc1cccs1)=NC(=O)c1ccccc1

>  <score_type>  (25) 
oracle

>  <origin>  (25) 
adg

>  <m_score__min__energy>  (25) 
-11.84

>  <m_primary>  (25) 
energy

$$$$
25:0
     RDKit          3D

 36 38  0  0  0  0  0  0  0  0999 V2000
   60.3710   33.2980   49.9910 O   0  0  0  0  0  0  0  0  0  0  0  0
   60.0690   32.5130   49.0550 C   0  0  0  0  0  0  0  0  0  0  0  0
   61.1540   31.6390   48.4850 C   0  0  0  0  0  0  0  0  0  0  0  0
   62.2220   32.4770   47.8450 C   0  0  0  0  0  0  0  0  0  0  0  0
   62.0690   33.3320   46.7780 C   0  0  0  0  0  0  0  0  0  0  0  0
   63.2380   33.9610   46.5470 N   0  0  0  0  0  0  0  0  0  0  0  0
   64.0710   33.4530   47.4770 C   0  0  0  0  0  0  0  0  0  0  0  0
   63.4890   32.5390   48.2860 N   0  0  0  0  0  0  0  0  0  0  0  0
   58.7100   32.5120   48.5780 N   0  0  0  0  0  0  0  0  0  0  0  0
   58.2480   32.6480   47.3690 C   0  0  0  0  0  0  0  0  0  0  0  0
   58.1720   31.5250   46.5370 C   0  0  0  0  0  0  0  0  0  0  0  0
   57.6180   31.6330   45.2480 C   0  0  0  0  0  0  0  0  0  0  0  0
   57.5600   30.4720   44.3220 C   0  0  0  0  0  0  0  0  0  0  0  0
   57.5310   30.6690   43.0800 O   0  0  0  0  0  0  0  0  0  0  0  0
   57.5570   29.0760   44.8080 C   0  0  0  0  0  0  0  0  0  0  0  0
   58.7600   28.3650   44.8900 C   0  0  0  0  0  0  0  0  0  0  0  0
   58.7660   27.0550   45.3660 C   0  0  0  0  0  0  0  0  0  0  0  0
   57.5740   26.4460   45.7640 C   0  0  0  0  0  0  0  0  0  0  0  0
   56.3650   27.1500   45.6900 C   0  0  0  0  0  0  0  0  0  0  0  0
   55.1710   26.5470   46.0750 O   0  0  0  0  0  0  0  0  0  0  0  0
   56.3570   28.4680   45.2200 C   0  0  0  0  0  0  0  0  0  0  0  0
   55.1580   29.1700   45.1520 O   0  0  0  0  0  0  0  0  0  0  0  0
   57.1450   32.8870   44.8310 C   0  0  0  0  0  0  0  0  0  0  0  0
   57.2460   33.9890   45.6800 C   0  0  0  0  0  0  0  0  0  0  0  0
   57.7920   33.8450   46.9150 N   0  0  0  0  0  0  0  0  0  0  0  0
   61.5992   31.0408   49.2937 H   0  0  0  0  0  0  0  0  0  0  0  0
   60.7151   30.9787   47.7225 H   0  0  0  0  0  0  0  0  0  0  0  0
   61.1413   33.4786   46.2054 H   0  0  0  0  0  0  0  0  0  0  0  0
   65.1251   33.7537   47.5692 H   0  0  0  0  0  0  0  0  0  0  0  0
   58.5470   30.5538   46.8923 H   0  0  0  0  0  0  0  0  0  0  0  0
   59.7016   28.8407   44.5784 H   0  0  0  0  0  0  0  0  0  0  0  0
   59.7130   26.4989   45.4284 H   0  0  0  0  0  0  0  0  0  0  0  0
   57.5843   25.4110   46.1365 H   0  0  0  0  0  0  0  0  0  0  0  0
   54.3690   27.0940   46.3530 H   0  0  0  0  0  0  0  0  0  0  0  0
   56.6944   33.0007   43.8340 H   0  0  0  0  0  0  0  0  0  0  0  0
   56.8838   34.9737   45.3495 H   0  0  0  0  0  0  0  0  0  0  0  0
  1  2  2  0
  2  3  1  0
  3  4  1  0
  4  5  2  0
  5  6  1  0
  6  7  1  0
  7  8  2  0
  2  9  1  0
  9 10  2  3
 10 11  1  0
 11 12  2  0
 12 13  1  0
 13 14  2  0
 13 15  1  0
 15 16  2  0
 16 17  1  0
 17 18  2  0
 18 19  1  0
 19 20  1  0
 19 21  2  0
 21 22  1  0
 12 23  1  0
 23 24  2  0
 24 25  1  0
  8  4  1  0
 25 10  1  0
 21 15  1  0
  3 26  1  0
  3 27  1  0
  5 28  1  0
  7 29  1  0
 11 30  1  0
 16 31  1  0
 17 32  1  0
 18 33  1  0
 20 34  1  0
 23 35  1  0
 24 36  1  0
M  CHG  3   6  -1  22  -1  25  -1
M  END
>  <UniqueID>  (26) 
25

>  <SMILES>  (26) 
O=C(Cc1c[n-]cn1)N=c1cc(C(=O)c2cccc(O)c2[O-])cc[n-]1

>  <Energy>  (26) 
79.47662184637542

>  <Genealogy>  (26) 
O=C(Cc1c[n-]cn1)N=c1cc(C(=O)c2cccc(O)c2[O-])cc[n-]1 (protonated)
O=C(Cc1c[n-]cn1)N=c1cc(C(=O)c2cccc(O)c2[O-])cc[n-]1 (3D coordinates assigned)
O=C(Cc1c[n-]cn1)N=c1cc(C(=O)c2cccc(O)c2[O-])cc[n-]1 (optimized conformer: 79.47662184637542 kcal/mol)

>  <smiles>  (26) 
O=C(Cc1c[nH]cn1)N=c1cc(C(=O)c2cccc(O)c2O)cc[nH]1

>  <score_type>  (26) 
oracle

>  <origin>  (26) 
adg

>  <m_score__min__energy>  (26) 
-14.130000000000001

>  <m_primary>  (26) 
energy

$$$$
26:0
     RDKit          3D

 71 74  0  0  0  0  0  0  0  0999 V2000
   57.7230   23.1840   45.0820 C   0  0  0  0  0  0  0  0  0  0  0  0
   57.3410   24.5830   44.6120 C   0  0  0  0  0  0  0  0  0  0  0  0
   57.2450   25.5020   45.7580 N   0  0  0  0  0  0  0  0  0  0  0  0
   55.9170   25.8760   46.2620 C   0  0  0  0  0  0  0  0  0  0  0  0
   58.4530   26.0240   46.3680 C   0  0  0  0  0  0  0  0  0  0  0  0
   58.4090   26.8820   47.4830 C   0  0  0  0  0  0  0  0  0  0  0  0
   59.6120   27.3690   48.0240 C   0  0  0  0  0  0  0  0  0  0  0  0
   59.6160   28.2800   49.1470 N   0  0  0  0  0  0  0  0  0  0  0  0
   60.4280   27.9970   50.3400 C   0  0  0  0  0  0  0  0  0  0  0  0
   61.4380   29.1290   50.5980 C   0  0  0  0  0  0  0  0  0  0  0  0
   60.9280   30.5210   50.1470 C   0  0  0  0  0  0  0  0  0  0  0  0
   61.4090   31.5660   51.0560 N   0  0  0  0  0  0  0  0  0  0  0  0
   60.8160   33.1350   50.5940 S   0  0  0  0  0  0  0  0  0  0  0  0
   59.3890   33.2570   51.0480 O   0  0  0  0  0  0  0  0  0  0  0  0
   61.6120   34.2020   51.2900 O   0  0  0  0  0  0  0  0  0  0  0  0
   60.8500   33.2990   48.8250 C   0  0  0  0  0  0  0  0  0  0  0  0
   59.6470   33.0600   48.1420 C   0  0  0  0  0  0  0  0  0  0  0  0
   59.5760   33.1590   46.7500 C   0  0  0  0  0  0  0  0  0  0  0  0
   58.0460   32.8710   45.9280 S   0  0  0  0  0  0  0  0  0  0  0  0
   57.0140   33.8410   46.4310 O   0  0  0  0  0  0  0  0  0  0  0  0
   58.2110   33.0860   44.4500 O   0  0  0  0  0  0  0  0  0  0  0  0
   57.5420   31.2360   46.2020 N   0  0  0  0  0  0  0  0  0  0  0  0
   58.0920   30.1280   45.4860 C   0  0  0  0  0  0  0  0  0  0  0  0
   59.4840   29.9860   45.4250 C   0  0  0  0  0  0  0  0  0  0  0  0
   60.0540   28.9280   44.7140 C   0  0  0  0  0  0  0  0  0  0  0  0
   59.2370   28.0060   44.0590 C   0  0  0  0  0  0  0  0  0  0  0  0
   57.8480   28.1510   44.0940 C   0  0  0  0  0  0  0  0  0  0  0  0
   57.2610   29.2260   44.7920 C   0  0  0  0  0  0  0  0  0  0  0  0
   55.8750   29.4420   44.7890 O   0  0  0  0  0  0  0  0  0  0  0  0
   55.1580   30.0800   43.7380 C   0  0  0  0  0  0  0  0  0  0  0  0
   60.7230   33.4780   46.0200 C   0  0  0  0  0  0  0  0  0  0  0  0
   61.9310   33.7080   46.6780 C   0  0  0  0  0  0  0  0  0  0  0  0
   62.0170   33.6200   48.0800 C   0  0  0  0  0  0  0  0  0  0  0  0
   63.3460   33.8870   48.7320 C   0  0  0  0  0  0  0  0  0  0  0  0
   59.3950   30.5650   50.1090 C   0  0  0  0  0  0  0  0  0  0  0  0
   58.8640   29.5470   49.0910 C   0  0  0  0  0  0  0  0  0  0  0  0
   60.7880   26.9850   47.4600 N   0  0  0  0  0  0  0  0  0  0  0  0
   60.8230   26.1510   46.3900 C   0  0  0  0  0  0  0  0  0  0  0  0
   59.6660   25.6840   45.8550 N   0  0  0  0  0  0  0  0  0  0  0  0
   57.7307   23.1560   46.1816 H   0  0  0  0  0  0  0  0  0  0  0  0
   56.9906   22.4567   44.7018 H   0  0  0  0  0  0  0  0  0  0  0  0
   58.7234   22.9299   44.7018 H   0  0  0  0  0  0  0  0  0  0  0  0
   58.1070   24.9526   43.9144 H   0  0  0  0  0  0  0  0  0  0  0  0
   56.3633   24.5358   44.1101 H   0  0  0  0  0  0  0  0  0  0  0  0
   55.9280   25.8729   47.3619 H   0  0  0  0  0  0  0  0  0  0  0  0
   55.6577   26.8821   45.9008 H   0  0  0  0  0  0  0  0  0  0  0  0
   55.1708   25.1531   45.9008 H   0  0  0  0  0  0  0  0  0  0  0  0
   57.4439   27.1684   47.9263 H   0  0  0  0  0  0  0  0  0  0  0  0
   59.7649   27.9002   51.2123 H   0  0  0  0  0  0  0  0  0  0  0  0
   60.9830   27.0620   50.1737 H   0  0  0  0  0  0  0  0  0  0  0  0
   61.6507   29.1679   51.6765 H   0  0  0  0  0  0  0  0  0  0  0  0
   62.3372   28.9042   50.0056 H   0  0  0  0  0  0  0  0  0  0  0  0
   61.3188   30.7002   49.1345 H   0  0  0  0  0  0  0  0  0  0  0  0
   58.7456   32.7904   48.7119 H   0  0  0  0  0  0  0  0  0  0  0  0
   60.1313   30.7114   45.9396 H   0  0  0  0  0  0  0  0  0  0  0  0
   61.1479   28.8214   44.6703 H   0  0  0  0  0  0  0  0  0  0  0  0
   59.6874   27.1633   43.5140 H   0  0  0  0  0  0  0  0  0  0  0  0
   57.2087   27.4223   43.5740 H   0  0  0  0  0  0  0  0  0  0  0  0
   54.4012   30.7534   44.1666 H   0  0  0  0  0  0  0  0  0  0  0  0
   55.8564   30.6608   43.1176 H   0  0  0  0  0  0  0  0  0  0  0  0
   54.6623   29.3188   43.1176 H   0  0  0  0  0  0  0  0  0  0  0  0
   60.6736   33.5480   44.9233 H   0  0  0  0  0  0  0  0  0  0  0  0
   62.8279   33.9614   46.0938 H   0  0  0  0  0  0  0  0  0  0  0  0
   63.2292   33.8635   49.8255 H   0  0  0  0  0  0  0  0  0  0  0  0
   64.0672   33.1158   48.4236 H   0  0  0  0  0  0  0  0  0  0  0  0
   63.7134   34.8769   48.4236 H   0  0  0  0  0  0  0  0  0  0  0  0
   58.9991   30.3228   51.1063 H   0  0  0  0  0  0  0  0  0  0  0  0
   59.0707   31.5735   49.8128 H   0  0  0  0  0  0  0  0  0  0  0  0
   57.8052   29.3435   49.3088 H   0  0  0  0  0  0  0  0  0  0  0  0
   58.9832   29.9734   48.0841 H   0  0  0  0  0  0  0  0  0  0  0  0
   61.7890   25.8533   45.9561 H   0  0  0  0  0  0  0  0  0  0  0  0
  1  2  1  0
  2  3  1  0
  3  4  1  0
  3  5  1  0
  5  6  2  0
  6  7  1  0
  7  8  1  0
  8  9  1  0
  9 10  1  0
 10 11  1  0
 11 12  1  0
 12 13  1  0
 13 14  2  0
 13 15  2  0
 13 16  1  0
 16 17  2  0
 17 18  1  0
 18 19  1  0
 19 20  2  0
 19 21  2  0
 19 22  1  0
 22 23  1  0
 23 24  2  0
 24 25  1  0
 25 26  2  0
 26 27  1  0
 27 28  2  0
 28 29  1  0
 29 30  1  0
 18 31  2  0
 31 32  1  0
 32 33  2  0
 33 34  1  0
 11 35  1  0
 35 36  1  0
  7 37  2  0
 37 38  1  0
 38 39  2  0
 39  5  1  0
 36  8  1  0
 33 16  1  0
 28 23  1  0
  1 40  1  0
  1 41  1  0
  1 42  1  0
  2 43  1  0
  2 44  1  0
  4 45  1  0
  4 46  1  0
  4 47  1  0
  6 48  1  0
  9 49  1  0
  9 50  1  0
 10 51  1  0
 10 52  1  0
 11 53  1  0
 17 54  1  0
 24 55  1  0
 25 56  1  0
 26 57  1  0
 27 58  1  0
 30 59  1  0
 30 60  1  0
 30 61  1  0
 31 62  1  0
 32 63  1  0
 34 64  1  0
 34 65  1  0
 34 66  1  0
 35 67  1  0
 35 68  1  0
 36 69  1  0
 36 70  1  0
 38 71  1  0
M  CHG  2  12  -1  22  -1
M  END
>  <UniqueID>  (27) 
26

>  <SMILES>  (27) 
CCN(C)c1cc(N2CCC([N-]S(=O)(=O)c3cc(S(=O)(=O)[N-]c4ccccc4OC)ccc3C)CC2)ncn1

>  <Energy>  (27) 
85.45519445820509

>  <Genealogy>  (27) 
CCN(C)c1cc(N2CCC([N-]S(=O)(=O)c3cc(S(=O)(=O)[N-]c4ccccc4OC)ccc3C)CC2)ncn1 (protonated)
CCN(C)c1cc(N2CCC([N-]S(=O)(=O)c3cc(S(=O)(=O)[N-]c4ccccc4OC)ccc3C)CC2)ncn1 (3D coordinates assigned)
CCN(C)c1cc(N2CCC([N-]S(=O)(=O)c3cc(S(=O)(=O)[N-]c4ccccc4OC)ccc3C)CC2)ncn1 (nonaromatic ring conformer: 85.45519445820509 kcal/mol)

>  <smiles>  (27) 
CCN(C)c1cc(N2CCC(NS(=O)(=O)c3cc(S(=O)(=O)Nc4ccccc4OC)ccc3C)CC2)ncn1

>  <score_type>  (27) 
oracle

>  <origin>  (27) 
adg

>  <m_score__min__energy>  (27) 
-13.470000000000001

>  <m_primary>  (27) 
energy

$$$$
27:0
     RDKit          3D

 42 45  0  0  0  0  0  0  0  0999 V2000
   58.1429   35.3097   43.9752 H   0  0  0  0  0  0  0  0  0  0  0  0
   58.3490   34.7070   44.8720 C   0  0  0  0  0  0  0  0  0  0  0  0
   57.4770   33.6790   45.2390 C   0  0  0  0  0  0  0  0  0  0  0  0
   56.5813   33.4763   44.6335 H   0  0  0  0  0  0  0  0  0  0  0  0
   57.7410   32.9080   46.3740 C   0  0  0  0  0  0  0  0  0  0  0  0
   57.0417   32.1118   46.6690 H   0  0  0  0  0  0  0  0  0  0  0  0
   58.8950   33.1440   47.1410 C   0  0  0  0  0  0  0  0  0  0  0  0
   59.1700   32.3140   48.3700 C   0  0  0  0  0  0  0  0  0  0  0  0
   60.1774   32.5495   48.7438 H   0  0  0  0  0  0  0  0  0  0  0  0
   59.0962   31.2513   48.0958 H   0  0  0  0  0  0  0  0  0  0  0  0
   58.1930   32.5890   49.4250 N   0  0  0  0  0  0  0  0  0  0  0  0
   57.1870   32.4560   49.1770 H   0  0  0  0  0  0  0  0  0  0  0  0
   58.5300   32.6990   50.8230 C   0  0  0  0  0  0  0  0  0  0  0  0
   59.6720   33.4310   51.1830 C   0  0  0  0  0  0  0  0  0  0  0  0
   60.2849   33.9012   50.3999 H   0  0  0  0  0  0  0  0  0  0  0  0
   60.0400   33.5700   52.5230 C   0  0  0  0  0  0  0  0  0  0  0  0
   60.9308   34.1584   52.7879 H   0  0  0  0  0  0  0  0  0  0  0  0
   59.2830   32.9660   53.5270 C   0  0  0  0  0  0  0  0  0  0  0  0
   59.5736   33.0850   54.5812 H   0  0  0  0  0  0  0  0  0  0  0  0
   58.1500   32.2060   53.1930 C   0  0  0  0  0  0  0  0  0  0  0  0
   57.3770   31.5500   54.1670 C   0  0  0  0  0  0  0  0  0  0  0  0
   57.6630   31.6380   55.3910 O   0  0  0  0  0  0  0  0  0  0  0  0
   56.3090   30.8030   53.7870 N   0  0  0  0  0  0  0  0  0  0  0  0
   55.9590   30.6760   52.4780 C   0  0  0  0  0  0  0  0  0  0  0  0
   54.9540   29.9370   52.1120 N   0  0  0  0  0  0  0  0  0  0  0  0
   53.5550   30.2350   52.2480 C   0  0  0  0  0  0  0  0  0  0  0  0
   52.7360   29.3130   52.9140 C   0  0  0  0  0  0  0  0  0  0  0  0
   53.1760   28.3994   53.3403 H   0  0  0  0  0  0  0  0  0  0  0  0
   51.3630   29.5470   53.0400 C   0  0  0  0  0  0  0  0  0  0  0  0
   50.7303   28.8267   53.5793 H   0  0  0  0  0  0  0  0  0  0  0  0
   50.7940   30.6940   52.4820 C   0  0  0  0  0  0  0  0  0  0  0  0
   49.7158   30.8822   52.5916 H   0  0  0  0  0  0  0  0  0  0  0  0
   51.5950   31.6030   51.7840 C   0  0  0  0  0  0  0  0  0  0  0  0
   51.0240   32.7310   51.2090 O   0  0  0  0  0  0  0  0  0  0  0  0
   52.9700   31.3730   51.6590 C   0  0  0  0  0  0  0  0  0  0  0  0
   53.5959   32.0833   51.0989 H   0  0  0  0  0  0  0  0  0  0  0  0
   56.6980   31.2980   51.5260 N   0  0  0  0  0  0  0  0  0  0  0  0
   57.7730   32.0680   51.8370 C   0  0  0  0  0  0  0  0  0  0  0  0
   59.7530   34.1980   46.7800 C   0  0  0  0  0  0  0  0  0  0  0  0
   60.6399   34.4169   47.3927 H   0  0  0  0  0  0  0  0  0  0  0  0
   59.4830   34.9690   45.6450 C   0  0  0  0  0  0  0  0  0  0  0  0
   60.1650   35.7837   45.3601 H   0  0  0  0  0  0  0  0  0  0  0  0
  1  2  1  0
  2  3  2  0
  3  4  1  0
  3  5  1  0
  5  6  1  0
  5  7  2  0
  7  8  1  0
  8  9  1  0
  8 10  1  0
  8 11  1  0
 11 12  1  0
 11 13  1  0
 13 14  2  0
 14 15  1  0
 14 16  1  0
 16 17  1  0
 16 18  2  0
 18 19  1  0
 18 20  1  0
 20 21  1  0
 21 22  2  0
 21 23  1  0
 23 24  1  0
 24 25  2  0
 25 26  1  0
 26 27  2  0
 27 28  1  0
 27 29  1  0
 29 30  1  0
 29 31  2  0
 31 32  1  0
 31 33  1  0
 33 34  1  0
 33 35  2  0
 35 36  1  0
 24 37  1  0
 37 38  1  0
  7 39  1  0
 39 40  1  0
 39 41  2  0
 41 42  1  0
 41  2  1  0
 38 13  1  0
 38 20  2  0
 35 26  1  0
M  CHG  3  23  -1  34  -1  37  -1
M  END
>  <UniqueID>  (28) 
27

>  <SMILES>  (28) 
O=c1[n-]/c(=N\c2cccc([O-])c2)[n-]c2c(NCc3ccccc3)cccc12

>  <Energy>  (28) 
60.356629506036185

>  <Genealogy>  (28) 
O=c1[n-]c(=Nc2cccc([O-])c2)[n-]c2c(NCc3ccccc3)cccc12 (protonated)
O=c1[n-]/c(=N\c2cccc([O-])c2)[n-]c2c(NCc3ccccc3)cccc12 (cis-trans isomerization)
O=c1[n-]/c(=N\c2cccc([O-])c2)[n-]c2c(NCc3ccccc3)cccc12 (3D coordinates assigned)
O=c1[n-]/c(=N\c2cccc([O-])c2)[n-]c2c(NCc3ccccc3)cccc12 (optimized conformer: 60.356629506036185 kcal/mol)

>  <smiles>  (28) 
O=c1[nH]c(=Nc2cccc(O)c2)[nH]c2c(NCc3ccccc3)cccc12

>  <score_type>  (28) 
oracle

>  <origin>  (28) 
adg

>  <m_score__min__energy>  (28) 
-14.199999999999999

>  <m_primary>  (28) 
energy

$$$$
28:0
     RDKit          3D

 38 39  0  0  0  0  0  0  0  0999 V2000
   56.0750   24.8830   45.1370 C   0  0  0  0  0  0  0  0  0  0  0  0
   57.3370   25.5490   45.6370 C   0  0  0  0  0  0  0  0  0  0  0  0
   57.3540   26.9470   45.8630 C   0  0  0  0  0  0  0  0  0  0  0  0
   56.1900   27.7410   45.6060 N   0  0  0  0  0  0  0  0  0  0  0  0
   56.1730   28.9660   44.8630 C   0  0  0  0  0  0  0  0  0  0  0  0
   55.1530   29.7010   44.9250 O   0  0  0  0  0  0  0  0  0  0  0  0
   57.3770   29.4430   44.0900 C   0  0  0  0  0  0  0  0  0  0  0  0
   57.8800   30.7760   44.5850 C   0  0  0  0  0  0  0  0  0  0  0  0
   57.6780   31.9380   43.8240 C   0  0  0  0  0  0  0  0  0  0  0  0
   58.1560   33.1710   44.2760 C   0  0  0  0  0  0  0  0  0  0  0  0
   58.8650   33.2620   45.4840 C   0  0  0  0  0  0  0  0  0  0  0  0
   59.3330   34.6100   45.9750 C   0  0  0  0  0  0  0  0  0  0  0  0
   58.5500   35.0210   47.0390 F   0  0  0  0  0  0  0  0  0  0  0  0
   59.2490   35.5680   44.9800 F   0  0  0  0  0  0  0  0  0  0  0  0
   60.6460   34.5120   46.3920 F   0  0  0  0  0  0  0  0  0  0  0  0
   59.0680   32.0990   46.2460 C   0  0  0  0  0  0  0  0  0  0  0  0
   58.5950   30.8650   45.7910 C   0  0  0  0  0  0  0  0  0  0  0  0
   58.5380   27.5740   46.2700 C   0  0  0  0  0  0  0  0  0  0  0  0
   59.6910   26.8280   46.5020 C   0  0  0  0  0  0  0  0  0  0  0  0
   59.6860   25.4510   46.2920 C   0  0  0  0  0  0  0  0  0  0  0  0
   58.5260   24.8000   45.8410 C   0  0  0  0  0  0  0  0  0  0  0  0
   58.6010   23.0520   45.5570 S   0  0  0  0  0  0  0  0  0  0  0  0
   57.7220   22.2230   46.7930 N   0  0  0  0  0  0  0  0  0  0  0  0
   58.0110   22.7260   44.2130 O   0  0  0  0  0  0  0  0  0  0  0  0
   60.0290   22.5830   45.5730 O   0  0  0  0  0  0  0  0  0  0  0  0
   55.4657   24.5614   45.9945 H   0  0  0  0  0  0  0  0  0  0  0  0
   55.5014   25.5958   44.5264 H   0  0  0  0  0  0  0  0  0  0  0  0
   56.3398   24.0072   44.5264 H   0  0  0  0  0  0  0  0  0  0  0  0
   58.1816   28.7001   44.1935 H   0  0  0  0  0  0  0  0  0  0  0  0
   57.0771   29.5643   43.0386 H   0  0  0  0  0  0  0  0  0  0  0  0
   57.1403   31.8778   42.8663 H   0  0  0  0  0  0  0  0  0  0  0  0
   57.9751   34.0778   43.6801 H   0  0  0  0  0  0  0  0  0  0  0  0
   59.6020   32.1601   47.2057 H   0  0  0  0  0  0  0  0  0  0  0  0
   58.7840   29.9565   46.3817 H   0  0  0  0  0  0  0  0  0  0  0  0
   58.5577   28.6652   46.4077 H   0  0  0  0  0  0  0  0  0  0  0  0
   60.6069   27.3269   46.8516 H   0  0  0  0  0  0  0  0  0  0  0  0
   60.5993   24.8678   46.4812 H   0  0  0  0  0  0  0  0  0  0  0  0
   58.0520   21.2320   46.7870 H   0  0  0  0  0  0  0  0  0  0  0  0
  1  2  1  0
  2  3  2  0
  3  4  1  0
  4  5  1  0
  5  6  2  0
  5  7  1  0
  7  8  1  0
  8  9  2  0
  9 10  1  0
 10 11  2  0
 11 12  1  0
 12 13  1  0
 12 14  1  0
 12 15  1  0
 11 16  1  0
 16 17  2  0
  3 18  1  0
 18 19  2  0
 19 20  1  0
 20 21  2  0
 21 22  1  0
 22 23  1  0
 22 24  2  0
 22 25  2  0
 21  2  1  0
 17  8  1  0
  1 26  1  0
  1 27  1  0
  1 28  1  0
  7 29  1  0
  7 30  1  0
  9 31  1  0
 10 32  1  0
 16 33  1  0
 17 34  1  0
 18 35  1  0
 19 36  1  0
 20 37  1  0
 23 38  1  0
M  CHG  2   4  -1  23  -1
M  END
>  <UniqueID>  (29) 
28

>  <SMILES>  (29) 
Cc1c([N-]C(=O)Cc2ccc(C(F)(F)F)cc2)cccc1S([NH-])(=O)=O

>  <Energy>  (29) 
46.26221181739172

>  <Genealogy>  (29) 
Cc1c([N-]C(=O)Cc2ccc(C(F)(F)F)cc2)cccc1S([NH-])(=O)=O (protonated)
Cc1c([N-]C(=O)Cc2ccc(C(F)(F)F)cc2)cccc1S([NH-])(=O)=O (3D coordinates assigned)
Cc1c([N-]C(=O)Cc2ccc(C(F)(F)F)cc2)cccc1S([NH-])(=O)=O (optimized conformer: 46.26221181739172 kcal/mol)

>  <smiles>  (29) 
Cc1c(NC(=O)Cc2ccc(C(F)(F)F)cc2)cccc1S(N)(=O)=O

>  <score_type>  (29) 
oracle

>  <origin>  (29) 
adg

>  <m_score__min__energy>  (29) 
-11.67

>  <m_primary>  (29) 
energy

$$$$
29:0
     RDKit          3D

 38 40  0  0  0  0  0  0  0  0999 V2000
   52.0900   29.0990   54.5050 C   0  0  0  0  0  0  0  0  0  0  0  0
   52.9720   29.8340   53.5930 N   0  0  0  0  0  0  0  0  0  0  0  0
   54.4090   29.7530   53.7140 C   0  0  0  0  0  0  0  0  0  0  0  0
   55.0030   30.4700   54.5660 O   0  0  0  0  0  0  0  0  0  0  0  0
   55.2170   28.7690   52.9080 C   0  0  0  0  0  0  0  0  0  0  0  0
   56.4430   29.3880   52.4120 N   0  0  0  0  0  0  0  0  0  0  0  0
   56.5800   30.7100   51.8690 C   0  0  0  0  0  0  0  0  0  0  0  0
   55.6510   31.5360   52.0690 O   0  0  0  0  0  0  0  0  0  0  0  0
   57.7750   31.1630   51.1270 C   0  0  0  0  0  0  0  0  0  0  0  0
   59.0580   30.6210   51.2060 C   0  0  0  0  0  0  0  0  0  0  0  0
   59.8060   31.3320   50.2970 C   0  0  0  0  0  0  0  0  0  0  0  0
   61.1500   31.2220   49.9450 C   0  0  0  0  0  0  0  0  0  0  0  0
   61.6430   32.0920   48.9530 C   0  0  0  0  0  0  0  0  0  0  0  0
   63.3270   32.0000   48.4730 Cl  0  0  0  0  0  0  0  0  0  0  0  0
   60.7860   33.0350   48.3400 C   0  0  0  0  0  0  0  0  0  0  0  0
   59.4310   33.1150   48.7130 C   0  0  0  0  0  0  0  0  0  0  0  0
   58.9750   32.2440   49.7020 C   0  0  0  0  0  0  0  0  0  0  0  0
   57.7300   32.1450   50.1930 N   0  0  0  0  0  0  0  0  0  0  0  0
   52.3890   30.5720   52.5030 C   0  0  0  0  0  0  0  0  0  0  0  0
   52.5830   30.1490   51.1800 C   0  0  0  0  0  0  0  0  0  0  0  0
   52.0010   30.8570   50.1270 C   0  0  0  0  0  0  0  0  0  0  0  0
   51.2310   31.9880   50.4060 C   0  0  0  0  0  0  0  0  0  0  0  0
   50.6410   32.7030   49.3710 O   0  0  0  0  0  0  0  0  0  0  0  0
   51.0580   32.3930   51.6930 N   0  0  0  0  0  0  0  0  0  0  0  0
   51.6130   31.7230   52.7380 C   0  0  0  0  0  0  0  0  0  0  0  0
   51.4320   32.1430   53.9110 O   0  0  0  0  0  0  0  0  0  0  0  0
   52.3650   29.3282   55.5451 H   0  0  0  0  0  0  0  0  0  0  0  0
   51.0467   29.3987   54.3270 H   0  0  0  0  0  0  0  0  0  0  0  0
   52.1966   28.0187   54.3270 H   0  0  0  0  0  0  0  0  0  0  0  0
   55.4783   27.9103   53.5440 H   0  0  0  0  0  0  0  0  0  0  0  0
   54.6155   28.4395   52.0480 H   0  0  0  0  0  0  0  0  0  0  0  0
   59.3982   29.8012   51.8557 H   0  0  0  0  0  0  0  0  0  0  0  0
   61.8043   30.4801   50.4261 H   0  0  0  0  0  0  0  0  0  0  0  0
   61.1807   33.7104   47.5667 H   0  0  0  0  0  0  0  0  0  0  0  0
   58.7537   33.8411   48.2396 H   0  0  0  0  0  0  0  0  0  0  0  0
   56.8980   32.7120   49.9100 H   0  0  0  0  0  0  0  0  0  0  0  0
   53.1943   29.2585   50.9719 H   0  0  0  0  0  0  0  0  0  0  0  0
   52.1475   30.5272   49.0879 H   0  0  0  0  0  0  0  0  0  0  0  0
  1  2  1  0
  2  3  1  0
  3  4  2  0
  3  5  1  0
  5  6  1  0
  6  7  1  0
  7  8  2  0
  7  9  1  0
  9 10  2  0
 10 11  1  0
 11 12  2  0
 12 13  1  0
 13 14  1  0
 13 15  2  0
 15 16  1  0
 16 17  2  0
 17 18  1  0
  2 19  1  0
 19 20  2  0
 20 21  1  0
 21 22  2  0
 22 23  1  0
 22 24  1  0
 24 25  1  0
 25 26  2  0
 18  9  1  0
 25 19  1  0
 17 11  1  0
  1 27  1  0
  1 28  1  0
  1 29  1  0
  5 30  1  0
  5 31  1  0
 10 32  1  0
 12 33  1  0
 15 34  1  0
 16 35  1  0
 18 36  1  0
 20 37  1  0
 21 38  1  0
M  CHG  3   6  -1  23  -1  24  -1
M  END
>  <UniqueID>  (30) 
29

>  <SMILES>  (30) 
CN(C(=O)C[N-]C(=O)c1cc2cc(Cl)ccc2[nH]1)c1ccc([O-])[n-]c1=O

>  <Energy>  (30) 
82.96726237735338

>  <Genealogy>  (30) 
CN(C(=O)C[N-]C(=O)c1cc2cc(Cl)ccc2[nH]1)c1ccc([O-])[n-]c1=O (protonated)
CN(C(=O)C[N-]C(=O)c1cc2cc(Cl)ccc2[nH]1)c1ccc([O-])[n-]c1=O (3D coordinates assigned)
CN(C(=O)C[N-]C(=O)c1cc2cc(Cl)ccc2[nH]1)c1ccc([O-])[n-]c1=O (optimized conformer: 82.96726237735338 kcal/mol)

>  <smiles>  (30) 
CN(C(=O)CNC(=O)c1cc2cc(Cl)ccc2[nH]1)c1ccc(O)[nH]c1=O

>  <score_type>  (30) 
oracle

>  <origin>  (30) 
adg

>  <m_score__min__energy>  (30) 
-15.210000000000001

>  <m_primary>  (30) 
energy

$$$$
30:0
     RDKit          3D

 49 51  0  0  0  0  0  0  0  0999 V2000
   59.1770   33.7630   52.5140 C   0  0  0  0  0  0  0  0  0  0  0  0
   60.1050   33.6190   51.3850 N   0  0  0  0  0  0  0  0  0  0  0  0
   61.5410   33.4970   51.6600 C   0  0  0  0  0  0  0  0  0  0  0  0
   59.6090   33.5980   50.0190 C   0  0  0  0  0  0  0  0  0  0  0  0
   60.0120   34.5760   49.0870 C   0  0  0  0  0  0  0  0  0  0  0  0
   59.5350   34.5550   47.7730 C   0  0  0  0  0  0  0  0  0  0  0  0
   58.6440   33.5570   47.3560 C   0  0  0  0  0  0  0  0  0  0  0  0
   58.1660   33.5520   45.9600 C   0  0  0  0  0  0  0  0  0  0  0  0
   58.5970   32.6750   45.1040 N   0  0  0  0  0  0  0  0  0  0  0  0
   58.1190   31.3220   45.0350 C   0  0  0  0  0  0  0  0  0  0  0  0
   56.8600   31.0960   44.4630 C   0  0  0  0  0  0  0  0  0  0  0  0
   56.3660   29.7980   44.3230 C   0  0  0  0  0  0  0  0  0  0  0  0
   57.1200   28.7120   44.7680 C   0  0  0  0  0  0  0  0  0  0  0  0
   58.3610   28.9210   45.3730 C   0  0  0  0  0  0  0  0  0  0  0  0
   58.8690   30.2220   45.5290 C   0  0  0  0  0  0  0  0  0  0  0  0
   60.1290   30.4170   46.2760 C   0  0  0  0  0  0  0  0  0  0  0  0
   60.6850   29.4210   46.8160 O   0  0  0  0  0  0  0  0  0  0  0  0
   60.7290   31.7190   46.3720 N   0  0  0  0  0  0  0  0  0  0  0  0
   61.7430   32.0630   47.3310 C   0  0  0  0  0  0  0  0  0  0  0  0
   61.8770   31.2950   48.4970 C   0  0  0  0  0  0  0  0  0  0  0  0
   62.8720   31.5910   49.4330 C   0  0  0  0  0  0  0  0  0  0  0  0
   63.7630   32.6590   49.2090 C   0  0  0  0  0  0  0  0  0  0  0  0
   64.8010   33.0000   50.1410 N   0  0  0  0  0  0  0  0  0  0  0  0
   65.7580   32.2200   50.4540 C   0  0  0  0  0  0  0  0  0  0  0  0
   66.9680   31.2320   50.8490 S   0  0  0  0  0  0  0  0  0  0  0  0
   63.6440   33.4110   48.0340 C   0  0  0  0  0  0  0  0  0  0  0  0
   62.6490   33.1140   47.0990 C   0  0  0  0  0  0  0  0  0  0  0  0
   58.2370   32.5770   48.2750 C   0  0  0  0  0  0  0  0  0  0  0  0
   58.7120   32.5980   49.5890 C   0  0  0  0  0  0  0  0  0  0  0  0
   59.7332   33.6767   53.4591 H   0  0  0  0  0  0  0  0  0  0  0  0
   58.6891   34.7476   52.4643 H   0  0  0  0  0  0  0  0  0  0  0  0
   58.4136   32.9726   52.4643 H   0  0  0  0  0  0  0  0  0  0  0  0
   61.7062   33.4830   52.7474 H   0  0  0  0  0  0  0  0  0  0  0  0
   61.9207   32.5634   51.2194 H   0  0  0  0  0  0  0  0  0  0  0  0
   62.0728   34.3532   51.2194 H   0  0  0  0  0  0  0  0  0  0  0  0
   60.7112   35.3663   49.3979 H   0  0  0  0  0  0  0  0  0  0  0  0
   59.8615   35.3275   47.0612 H   0  0  0  0  0  0  0  0  0  0  0  0
   57.4312   34.3047   45.6382 H   0  0  0  0  0  0  0  0  0  0  0  0
   56.2555   31.9491   44.1212 H   0  0  0  0  0  0  0  0  0  0  0  0
   55.3815   29.6314   43.8615 H   0  0  0  0  0  0  0  0  0  0  0  0
   56.7361   27.6889   44.6420 H   0  0  0  0  0  0  0  0  0  0  0  0
   58.9456   28.0605   45.7303 H   0  0  0  0  0  0  0  0  0  0  0  0
   60.4240   32.4610   45.7010 H   0  0  0  0  0  0  0  0  0  0  0  0
   61.1931   30.4524   48.6764 H   0  0  0  0  0  0  0  0  0  0  0  0
   62.9597   30.9874   50.3484 H   0  0  0  0  0  0  0  0  0  0  0  0
   64.3393   34.2422   47.8454 H   0  0  0  0  0  0  0  0  0  0  0  0
   62.5736   33.7061   46.1750 H   0  0  0  0  0  0  0  0  0  0  0  0
   57.5396   31.7874   47.9587 H   0  0  0  0  0  0  0  0  0  0  0  0
   58.3819   31.8242   50.2977 H   0  0  0  0  0  0  0  0  0  0  0  0
  1  2  1  0
  2  3  1  0
  2  4  1  0
  4  5  2  0
  5  6  1  0
  6  7  2  0
  7  8  1  0
  8  9  2  3
  9 10  1  0
 10 11  2  0
 11 12  1  0
 12 13  2  0
 13 14  1  0
 14 15  2  0
 15 16  1  0
 16 17  2  0
 16 18  1  0
 18 19  1  0
 19 20  2  0
 20 21  1  0
 21 22  2  0
 22 23  1  0
 23 24  2  0
 24 25  2  0
 22 26  1  0
 26 27  2  0
  7 28  1  0
 28 29  2  0
 29  4  1  0
 15 10  1  0
 27 19  1  0
  1 30  1  0
  1 31  1  0
  1 32  1  0
  3 33  1  0
  3 34  1  0
  3 35  1  0
  5 36  1  0
  6 37  1  0
  8 38  1  0
 11 39  1  0
 12 40  1  0
 13 41  1  0
 14 42  1  0
 18 43  1  0
 20 44  1  0
 21 45  1  0
 26 46  1  0
 27 47  1  0
 28 48  1  0
 29 49  1  0
M  END
>  <UniqueID>  (31) 
30

>  <SMILES>  (31) 
CN(C)c1ccc(C=Nc2ccccc2C(=O)Nc2ccc(N=C=S)cc2)cc1

>  <Energy>  (31) 
67.11270171670263

>  <Genealogy>  (31) 
CN(C)c1ccc(C=Nc2ccccc2C(=O)Nc2ccc(N=C=S)cc2)cc1 (3D coordinates assigned)
CN(C)c1ccc(C=Nc2ccccc2C(=O)Nc2ccc(N=C=S)cc2)cc1 (optimized conformer: 67.11270171670263 kcal/mol)

>  <smiles>  (31) 
CN(C)c1ccc(C=Nc2ccccc2C(=O)Nc2ccc(N=C=S)cc2)cc1

>  <score_type>  (31) 
oracle

>  <origin>  (31) 
adg

>  <m_score__min__energy>  (31) 
-8.4299999999999997

>  <m_primary>  (31) 
energy

$$$$
31:0
     RDKit          3D

 44 46  0  0  0  0  0  0  0  0999 V2000
   56.4900   24.9980   47.5310 N   0  0  0  0  0  0  0  0  0  0  0  0
   56.1620   25.6600   45.9670 S   0  0  0  0  0  0  0  0  0  0  0  0
   54.8060   26.3130   45.9920 O   0  0  0  0  0  0  0  0  0  0  0  0
   56.1690   24.5580   44.9450 O   0  0  0  0  0  0  0  0  0  0  0  0
   57.3790   26.8580   45.5460 C   0  0  0  0  0  0  0  0  0  0  0  0
   58.7430   26.5430   45.6120 C   0  0  0  0  0  0  0  0  0  0  0  0
   59.7000   27.5020   45.2750 C   0  0  0  0  0  0  0  0  0  0  0  0
   59.3040   28.7800   44.8690 C   0  0  0  0  0  0  0  0  0  0  0  0
   57.9410   29.1120   44.8010 C   0  0  0  0  0  0  0  0  0  0  0  0
   57.5250   30.4660   44.3670 C   0  0  0  0  0  0  0  0  0  0  0  0
   57.4320   30.7210   43.1370 O   0  0  0  0  0  0  0  0  0  0  0  0
   57.1740   31.4880   45.3100 N   0  0  0  0  0  0  0  0  0  0  0  0
   57.9290   32.6850   45.5460 C   0  0  0  0  0  0  0  0  0  0  0  0
   58.4170   33.4620   44.4830 C   0  0  0  0  0  0  0  0  0  0  0  0
   59.1510   34.6210   44.7430 C   0  0  0  0  0  0  0  0  0  0  0  0
   59.4200   35.0000   46.0610 C   0  0  0  0  0  0  0  0  0  0  0  0
   58.9560   34.2230   47.1290 C   0  0  0  0  0  0  0  0  0  0  0  0
   59.3110   34.6060   48.4640 N   0  0  0  0  0  0  0  0  0  0  0  0
   60.1510   33.5870   49.5890 S   0  0  0  0  0  0  0  0  0  0  0  0
   59.5600   33.7650   50.9610 O   0  0  0  0  0  0  0  0  0  0  0  0
   61.5990   33.9830   49.6290 O   0  0  0  0  0  0  0  0  0  0  0  0
   60.0390   31.9080   49.0630 C   0  0  0  0  0  0  0  0  0  0  0  0
   59.0530   31.0750   49.6100 C   0  0  0  0  0  0  0  0  0  0  0  0
   58.9690   29.7350   49.2210 C   0  0  0  0  0  0  0  0  0  0  0  0
   59.8730   29.2180   48.2890 C   0  0  0  0  0  0  0  0  0  0  0  0
   60.8610   30.0430   47.7420 C   0  0  0  0  0  0  0  0  0  0  0  0
   60.9430   31.3860   48.1240 C   0  0  0  0  0  0  0  0  0  0  0  0
   58.1790   33.0810   46.8630 C   0  0  0  0  0  0  0  0  0  0  0  0
   56.9820   28.1330   45.1230 C   0  0  0  0  0  0  0  0  0  0  0  0
   55.6140   25.0900   48.0910 H   0  0  0  0  0  0  0  0  0  0  0  0
   57.2020   25.6160   47.9800 H   0  0  0  0  0  0  0  0  0  0  0  0
   59.0600   25.5387   45.9298 H   0  0  0  0  0  0  0  0  0  0  0  0
   60.7697   27.2512   45.3291 H   0  0  0  0  0  0  0  0  0  0  0  0
   60.0637   29.5292   44.6015 H   0  0  0  0  0  0  0  0  0  0  0  0
   58.2208   33.1573   43.4444 H   0  0  0  0  0  0  0  0  0  0  0  0
   59.5182   35.2369   43.9089 H   0  0  0  0  0  0  0  0  0  0  0  0
   59.9993   35.9136   46.2602 H   0  0  0  0  0  0  0  0  0  0  0  0
   58.3431   31.4772   50.3478 H   0  0  0  0  0  0  0  0  0  0  0  0
   58.1903   29.0866   49.6490 H   0  0  0  0  0  0  0  0  0  0  0  0
   59.8075   28.1626   47.9858 H   0  0  0  0  0  0  0  0  0  0  0  0
   61.5743   29.6353   47.0106 H   0  0  0  0  0  0  0  0  0  0  0  0
   61.7172   32.0345   47.6880 H   0  0  0  0  0  0  0  0  0  0  0  0
   57.7652   32.4955   47.6972 H   0  0  0  0  0  0  0  0  0  0  0  0
   55.9112   28.3714   45.0417 H   0  0  0  0  0  0  0  0  0  0  0  0
  1  2  1  0
  2  3  2  0
  2  4  2  0
  2  5  1  0
  5  6  2  0
  6  7  1  0
  7  8  2  0
  8  9  1  0
  9 10  1  0
 10 11  2  0
 10 12  1  0
 12 13  1  0
 13 14  2  0
 14 15  1  0
 15 16  2  0
 16 17  1  0
 17 18  1  0
 18 19  1  0
 19 20  2  0
 19 21  2  0
 19 22  1  0
 22 23  2  0
 23 24  1  0
 24 25  2  0
 25 26  1  0
 26 27  2  0
 17 28  2  0
  9 29  2  0
 29  5  1  0
 28 13  1  0
 27 22  1  0
  1 30  1  0
  1 31  1  0
  6 32  1  0
  7 33  1  0
  8 34  1  0
 14 35  1  0
 15 36  1  0
 16 37  1  0
 23 38  1  0
 24 39  1  0
 25 40  1  0
 26 41  1  0
 27 42  1  0
 28 43  1  0
 29 44  1  0
M  CHG  2  12  -1  18  -1
M  END
>  <UniqueID>  (32) 
31

>  <SMILES>  (32) 
NS(=O)(=O)c1cccc(C(=O)[N-]c2cccc([N-]S(=O)(=O)c3ccccc3)c2)c1

>  <Energy>  (32) 
53.17169980789667

>  <Genealogy>  (32) 
NS(=O)(=O)c1cccc(C(=O)[N-]c2cccc([N-]S(=O)(=O)c3ccccc3)c2)c1 (protonated)
NS(=O)(=O)c1cccc(C(=O)[N-]c2cccc([N-]S(=O)(=O)c3ccccc3)c2)c1 (3D coordinates assigned)
NS(=O)(=O)c1cccc(C(=O)[N-]c2cccc([N-]S(=O)(=O)c3ccccc3)c2)c1 (optimized conformer: 53.17169980789667 kcal/mol)

>  <smiles>  (32) 
NS(=O)(=O)c1cccc(C(=O)Nc2cccc(NS(=O)(=O)c3ccccc3)c2)c1

>  <score_type>  (32) 
oracle

>  <origin>  (32) 
adg

>  <m_score__min__energy>  (32) 
-12.859999999999999

>  <m_primary>  (32) 
energy

$$$$
32:0
     RDKit          3D

 43 44  0  0  0  0  0  0  0  0999 V2000
   57.4130   25.1780   44.6110 C   0  0  0  0  0  0  0  0  0  0  0  0
   56.4650   25.7720   45.9970 S   0  0  0  0  0  0  0  0  0  0  0  0
   57.3840   25.9280   47.1760 O   0  0  0  0  0  0  0  0  0  0  0  0
   55.3820   24.7920   46.3520 O   0  0  0  0  0  0  0  0  0  0  0  0
   55.7720   27.3180   45.6250 N   0  0  0  0  0  0  0  0  0  0  0  0
   56.4940   28.4630   45.1530 C   0  0  0  0  0  0  0  0  0  0  0  0
   55.7940   29.4520   44.4540 C   0  0  0  0  0  0  0  0  0  0  0  0
   56.4450   30.6060   44.0090 C   0  0  0  0  0  0  0  0  0  0  0  0
   57.8220   30.7780   44.2480 C   0  0  0  0  0  0  0  0  0  0  0  0
   58.5290   31.9140   43.8240 O   0  0  0  0  0  0  0  0  0  0  0  0
   58.1580   33.2660   44.0910 C   0  0  0  0  0  0  0  0  0  0  0  0
   58.1960   33.5340   45.5650 C   0  0  0  0  0  0  0  0  0  0  0  0
   57.6940   34.6040   46.0040 O   0  0  0  0  0  0  0  0  0  0  0  0
   58.7880   32.5870   46.4660 N   0  0  0  0  0  0  0  0  0  0  0  0
   58.7720   32.7610   47.9180 C   0  0  0  0  0  0  0  0  0  0  0  0
   59.5980   33.9820   48.3360 C   0  0  0  0  0  0  0  0  0  0  0  0
   61.0620   33.8220   48.0110 C   0  0  0  0  0  0  0  0  0  0  0  0
   61.5150   33.9640   46.6880 C   0  0  0  0  0  0  0  0  0  0  0  0
   62.8720   33.8040   46.3870 C   0  0  0  0  0  0  0  0  0  0  0  0
   63.7850   33.5130   47.4030 C   0  0  0  0  0  0  0  0  0  0  0  0
   63.3450   33.3850   48.7220 C   0  0  0  0  0  0  0  0  0  0  0  0
   61.9890   33.5340   49.0260 C   0  0  0  0  0  0  0  0  0  0  0  0
   58.5260   29.7780   44.9270 C   0  0  0  0  0  0  0  0  0  0  0  0
   57.8710   28.6290   45.3810 C   0  0  0  0  0  0  0  0  0  0  0  0
   58.2920   24.6272   44.9771 H   0  0  0  0  0  0  0  0  0  0  0  0
   56.7893   24.5089   44.0000 H   0  0  0  0  0  0  0  0  0  0  0  0
   57.7431   26.0310   44.0000 H   0  0  0  0  0  0  0  0  0  0  0  0
   54.7207   29.3202   44.2526 H   0  0  0  0  0  0  0  0  0  0  0  0
   55.8804   31.3816   43.4708 H   0  0  0  0  0  0  0  0  0  0  0  0
   58.8597   33.9424   43.5809 H   0  0  0  0  0  0  0  0  0  0  0  0
   57.1356   33.4361   43.7225 H   0  0  0  0  0  0  0  0  0  0  0  0
   59.2790   31.7510   46.0770 H   0  0  0  0  0  0  0  0  0  0  0  0
   57.7330   32.8986   48.2520 H   0  0  0  0  0  0  0  0  0  0  0  0
   59.2118   31.8659   48.3822 H   0  0  0  0  0  0  0  0  0  0  0  0
   59.2132   34.8669   47.8079 H   0  0  0  0  0  0  0  0  0  0  0  0
   59.5059   34.0929   49.4265 H   0  0  0  0  0  0  0  0  0  0  0  0
   60.8001   34.2018   45.8865 H   0  0  0  0  0  0  0  0  0  0  0  0
   63.2202   33.9076   45.3487 H   0  0  0  0  0  0  0  0  0  0  0  0
   64.8510   33.3846   47.1641 H   0  0  0  0  0  0  0  0  0  0  0  0
   64.0666   33.1666   49.5230 H   0  0  0  0  0  0  0  0  0  0  0  0
   61.6461   33.4252   50.0655 H   0  0  0  0  0  0  0  0  0  0  0  0
   59.6049   29.8966   45.1055 H   0  0  0  0  0  0  0  0  0  0  0  0
   58.4352   27.8525   45.9183 H   0  0  0  0  0  0  0  0  0  0  0  0
  1  2  1  0
  2  3  2  0
  2  4  2  0
  2  5  1  0
  5  6  1  0
  6  7  2  0
  7  8  1  0
  8  9  2  0
  9 10  1  0
 10 11  1  0
 11 12  1  0
 12 13  2  0
 12 14  1  0
 14 15  1  0
 15 16  1  0
 16 17  1  0
 17 18  2  0
 18 19  1  0
 19 20  2  0
 20 21  1  0
 21 22  2  0
  9 23  1  0
 23 24  2  0
 24  6  1  0
 22 17  1  0
  1 25  1  0
  1 26  1  0
  1 27  1  0
  7 28  1  0
  8 29  1  0
 11 30  1  0
 11 31  1  0
 14 32  1  0
 15 33  1  0
 15 34  1  0
 16 35  1  0
 16 36  1  0
 18 37  1  0
 19 38  1  0
 20 39  1  0
 21 40  1  0
 22 41  1  0
 23 42  1  0
 24 43  1  0
M  CHG  1   5  -1
M  END
>  <UniqueID>  (33) 
32

>  <SMILES>  (33) 
CS(=O)(=O)[N-]c1ccc(OCC(=O)NCCc2ccccc2)cc1

>  <Energy>  (33) 
33.109104409273876

>  <Genealogy>  (33) 
CS(=O)(=O)[N-]c1ccc(OCC(=O)NCCc2ccccc2)cc1 (protonated)
CS(=O)(=O)[N-]c1ccc(OCC(=O)NCCc2ccccc2)cc1 (3D coordinates assigned)
CS(=O)(=O)[N-]c1ccc(OCC(=O)NCCc2ccccc2)cc1 (optimized conformer: 33.109104409273876 kcal/mol)

>  <smiles>  (33) 
CS(=O)(=O)Nc1ccc(OCC(=O)NCCc2ccccc2)cc1

>  <score_type>  (33) 
oracle

>  <origin>  (33) 
adg

>  <m_score__min__energy>  (33) 
-9.5099999999999998

>  <m_primary>  (33) 
energy

$$$$
33:0
     RDKit          3D

 36 38  0  0  0  0  0  0  0  0999 V2000
   56.1000   25.1949   46.5659 H   0  0  0  0  0  0  0  0  0  0  0  0
   56.5380   26.1160   46.1540 C   0  0  0  0  0  0  0  0  0  0  0  0
   55.7340   27.0910   45.6680 N   0  0  0  0  0  0  0  0  0  0  0  0
   56.2460   28.2740   45.2360 C   0  0  0  0  0  0  0  0  0  0  0  0
   57.6310   28.5380   45.3550 C   0  0  0  0  0  0  0  0  0  0  0  0
   58.4500   27.4350   45.7080 C   0  0  0  0  0  0  0  0  0  0  0  0
   59.7010   27.4710   45.5640 O   0  0  0  0  0  0  0  0  0  0  0  0
   57.8830   26.2770   46.1320 N   0  0  0  0  0  0  0  0  0  0  0  0
   58.1050   29.8370   44.9910 C   0  0  0  0  0  0  0  0  0  0  0  0
   59.2330   30.3530   45.4140 N   0  0  0  0  0  0  0  0  0  0  0  0
   59.5140   31.1520   46.5730 C   0  0  0  0  0  0  0  0  0  0  0  0
   58.4930   31.5260   47.4650 C   0  0  0  0  0  0  0  0  0  0  0  0
   57.4658   31.1663   47.3055 H   0  0  0  0  0  0  0  0  0  0  0  0
   58.7810   32.3540   48.5540 C   0  0  0  0  0  0  0  0  0  0  0  0
   57.9855   32.6258   49.2634 H   0  0  0  0  0  0  0  0  0  0  0  0
   60.0800   32.8370   48.7420 C   0  0  0  0  0  0  0  0  0  0  0  0
   60.3077   33.4820   49.6035 H   0  0  0  0  0  0  0  0  0  0  0  0
   61.0890   32.5000   47.8350 C   0  0  0  0  0  0  0  0  0  0  0  0
   62.1086   32.8873   47.9782 H   0  0  0  0  0  0  0  0  0  0  0  0
   60.8030   31.6710   46.7460 C   0  0  0  0  0  0  0  0  0  0  0  0
   61.5940   31.4255   46.0221 H   0  0  0  0  0  0  0  0  0  0  0  0
   57.2540   30.6730   44.2260 C   0  0  0  0  0  0  0  0  0  0  0  0
   57.7270   31.9600   43.6480 C   0  0  0  0  0  0  0  0  0  0  0  0
   58.2330   31.9850   42.4920 O   0  0  0  0  0  0  0  0  0  0  0  0
   57.6370   33.1410   44.3970 O   0  0  0  0  0  0  0  0  0  0  0  0
   58.7060   34.0760   44.5240 C   0  0  0  0  0  0  0  0  0  0  0  0
   58.5152   34.9352   43.8642 H   0  0  0  0  0  0  0  0  0  0  0  0
   59.6463   33.5805   44.2408 H   0  0  0  0  0  0  0  0  0  0  0  0
   58.8220   34.5650   45.9620 C   0  0  0  0  0  0  0  0  0  0  0  0
   58.6240   33.7301   46.6503 H   0  0  0  0  0  0  0  0  0  0  0  0
   59.8368   34.9517   46.1371 H   0  0  0  0  0  0  0  0  0  0  0  0
   58.0890   35.3663   46.1371 H   0  0  0  0  0  0  0  0  0  0  0  0
   55.9030   30.3200   44.0900 C   0  0  0  0  0  0  0  0  0  0  0  0
   55.2235   30.9787   43.5293 H   0  0  0  0  0  0  0  0  0  0  0  0
   55.4240   29.1770   44.6410 N   0  0  0  0  0  0  0  0  0  0  0  0
   54.4050   28.9620   44.5450 H   0  0  0  0  0  0  0  0  0  0  0  0
  1  2  1  0
  2  3  2  0
  3  4  1  0
  4  5  2  0
  5  6  1  0
  6  7  2  0
  6  8  1  0
  5  9  1  0
  9 10  2  0
 10 11  1  0
 11 12  2  0
 12 13  1  0
 12 14  1  0
 14 15  1  0
 14 16  2  0
 16 17  1  0
 16 18  1  0
 18 19  1  0
 18 20  2  0
 20 21  1  0
  9 22  1  0
 22 23  1  0
 23 24  2  0
 23 25  1  0
 25 26  1  0
 26 27  1  0
 26 28  1  0
 26 29  1  0
 29 30  1  0
 29 31  1  0
 29 32  1  0
 22 33  2  0
 33 34  1  0
 33 35  1  0
 35 36  1  0
  8  2  1  0
 20 11  1  0
 35  4  1  0
M  CHG  1   8  -1
M  END
>  <UniqueID>  (34) 
33

>  <SMILES>  (34) 
CCOC(=O)c1c[nH]c2nc[n-]c(=O)c2/c1=N\c1ccccc1

>  <Energy>  (34) 
67.61415706311153

>  <Genealogy>  (34) 
CCOC(=O)c1c[nH]c2nc[n-]c(=O)c2c1=Nc1ccccc1 (protonated)
CCOC(=O)c1c[nH]c2nc[n-]c(=O)c2/c1=N\c1ccccc1 (cis-trans isomerization)
CCOC(=O)c1c[nH]c2nc[n-]c(=O)c2/c1=N\c1ccccc1 (3D coordinates assigned)
CCOC(=O)c1c[nH]c2nc[n-]c(=O)c2/c1=N\c1ccccc1 (optimized conformer: 67.61415706311153 kcal/mol)

>  <smiles>  (34) 
CCOC(=O)c1c[nH]c2nc[nH]c(=O)c2c1=Nc1ccccc1

>  <score_type>  (34) 
oracle

>  <origin>  (34) 
adg

>  <m_score__min__energy>  (34) 
-8.4199999999999999

>  <m_primary>  (34) 
energy

$$$$
34:0
     RDKit          3D

 33 34  0  0  0  0  0  0  0  0999 V2000
   52.0430   24.2370   44.8530 C   0  0  0  0  0  0  0  0  0  0  0  0
   53.5210   24.0560   44.9340 C   0  0  0  0  0  0  0  0  0  0  0  0
   54.1510   23.2170   44.0680 N   0  0  0  0  0  0  0  0  0  0  0  0
   55.4970   23.0430   44.1190 C   0  0  0  0  0  0  0  0  0  0  0  0
   56.0580   22.2570   43.3100 O   0  0  0  0  0  0  0  0  0  0  0  0
   56.2530   23.7320   45.0680 C   0  0  0  0  0  0  0  0  0  0  0  0
   55.5940   24.5990   45.9450 C   0  0  0  0  0  0  0  0  0  0  0  0
   56.3490   25.3190   47.0260 C   0  0  0  0  0  0  0  0  0  0  0  0
   57.7580   24.9300   47.0160 N   0  0  0  0  0  0  0  0  0  0  0  0
   58.7460   25.4260   46.1030 C   0  0  0  0  0  0  0  0  0  0  0  0
   59.5320   24.6120   45.5500 O   0  0  0  0  0  0  0  0  0  0  0  0
   58.9000   26.8660   45.8340 C   0  0  0  0  0  0  0  0  0  0  0  0
   60.1170   27.5130   46.0950 C   0  0  0  0  0  0  0  0  0  0  0  0
   60.2670   28.8690   45.7950 C   0  0  0  0  0  0  0  0  0  0  0  0
   59.2100   29.5850   45.2280 C   0  0  0  0  0  0  0  0  0  0  0  0
   57.9900   28.9470   44.9640 C   0  0  0  0  0  0  0  0  0  0  0  0
   56.6600   29.8300   44.2200 S   0  0  0  0  0  0  0  0  0  0  0  0
   55.1440   29.2840   44.8500 N   0  0  0  0  0  0  0  0  0  0  0  0
   56.8010   31.2950   44.5230 O   0  0  0  0  0  0  0  0  0  0  0  0
   56.6910   29.6220   42.7320 O   0  0  0  0  0  0  0  0  0  0  0  0
   57.8320   27.5920   45.2870 C   0  0  0  0  0  0  0  0  0  0  0  0
   54.2450   24.7440   45.8570 N   0  0  0  0  0  0  0  0  0  0  0  0
   51.6237   24.2884   45.8686 H   0  0  0  0  0  0  0  0  0  0  0  0
   51.8167   25.1696   44.3153 H   0  0  0  0  0  0  0  0  0  0  0  0
   51.5984   23.3866   44.3153 H   0  0  0  0  0  0  0  0  0  0  0  0
   57.3431   23.5961   45.1250 H   0  0  0  0  0  0  0  0  0  0  0  0
   56.2722   26.4036   46.8596 H   0  0  0  0  0  0  0  0  0  0  0  0
   55.9142   25.0518   48.0005 H   0  0  0  0  0  0  0  0  0  0  0  0
   60.9540   26.9520   46.5363 H   0  0  0  0  0  0  0  0  0  0  0  0
   61.2208   29.3748   46.0060 H   0  0  0  0  0  0  0  0  0  0  0  0
   59.3352   30.6512   44.9883 H   0  0  0  0  0  0  0  0  0  0  0  0
   55.3550   28.6160   45.6250 H   0  0  0  0  0  0  0  0  0  0  0  0
   56.8661   27.0960   45.1106 H   0  0  0  0  0  0  0  0  0  0  0  0
  1  2  1  0
  2  3  2  0
  3  4  1  0
  4  5  2  0
  4  6  1  0
  6  7  2  0
  7  8  1  0
  8  9  1  0
  9 10  1  0
 10 11  2  0
 10 12  1  0
 12 13  2  0
 13 14  1  0
 14 15  2  0
 15 16  1  0
 16 17  1  0
 17 18  1  0
 17 19  2  0
 17 20  2  0
 16 21  2  0
  7 22  1  0
 22  2  1  0
 21 12  1  0
  1 23  1  0
  1 24  1  0
  1 25  1  0
  6 26  1  0
  8 27  1  0
  8 28  1  0
 13 29  1  0
 14 30  1  0
 15 31  1  0
 18 32  1  0
 21 33  1  0
M  CHG  3   9  -1  18  -1  22  -1
M  END
>  <UniqueID>  (35) 
34

>  <SMILES>  (35) 
Cc1nc(=O)cc(C[N-]C(=O)c2cccc(S([NH-])(=O)=O)c2)[n-]1

>  <Energy>  (35) 
33.26061027132878

>  <Genealogy>  (35) 
Cc1nc(=O)cc(C[N-]C(=O)c2cccc(S([NH-])(=O)=O)c2)[n-]1 (protonated)
Cc1nc(=O)cc(C[N-]C(=O)c2cccc(S([NH-])(=O)=O)c2)[n-]1 (3D coordinates assigned)
Cc1nc(=O)cc(C[N-]C(=O)c2cccc(S([NH-])(=O)=O)c2)[n-]1 (optimized conformer: 33.26061027132878 kcal/mol)

>  <smiles>  (35) 
Cc1nc(=O)cc(CNC(=O)c2cccc(S(N)(=O)=O)c2)[nH]1

>  <score_type>  (35) 
oracle

>  <origin>  (35) 
adg

>  <m_score__min__energy>  (35) 
-13.49

>  <m_primary>  (35) 
energy

$$$$
35:0
     RDKit          3D

 50 51  0  0  0  0  0  0  0  0999 V2000
   57.7662   33.0339   42.7841 H   0  0  0  0  0  0  0  0  0  0  0  0
   57.7970   32.9570   43.8810 C   0  0  0  0  0  0  0  0  0  0  0  0
   57.5100   31.6430   44.4910 C   0  0  0  0  0  0  0  0  0  0  0  0
   57.0360   31.5800   45.6590 O   0  0  0  0  0  0  0  0  0  0  0  0
   57.7590   30.4420   43.7500 N   0  0  0  0  0  0  0  0  0  0  0  0
   58.2650   30.5210   42.8390 H   0  0  0  0  0  0  0  0  0  0  0  0
   57.6990   29.1520   44.3760 C   0  0  0  0  0  0  0  0  0  0  0  0
   58.8590   28.3630   44.4140 C   0  0  0  0  0  0  0  0  0  0  0  0
   59.7810   28.7231   43.9342 H   0  0  0  0  0  0  0  0  0  0  0  0
   58.8500   27.1240   45.0570 C   0  0  0  0  0  0  0  0  0  0  0  0
   59.7652   26.5145   45.0884 H   0  0  0  0  0  0  0  0  0  0  0  0
   57.6810   26.6580   45.6600 C   0  0  0  0  0  0  0  0  0  0  0  0
   57.6777   25.6842   46.1716 H   0  0  0  0  0  0  0  0  0  0  0  0
   56.5150   27.4260   45.6150 C   0  0  0  0  0  0  0  0  0  0  0  0
   55.5959   27.0527   46.0903 H   0  0  0  0  0  0  0  0  0  0  0  0
   56.5090   28.6710   44.9670 C   0  0  0  0  0  0  0  0  0  0  0  0
   55.2850   29.4130   44.8840 N   0  0  0  0  0  0  0  0  0  0  0  0
   55.2410   30.4020   45.2180 H   0  0  0  0  0  0  0  0  0  0  0  0
   54.4010   28.9750   44.5460 H   0  0  0  0  0  0  0  0  0  0  0  0
   58.0930   34.0630   44.5810 C   0  0  0  0  0  0  0  0  0  0  0  0
   57.5373   34.9840   44.3509 H   0  0  0  0  0  0  0  0  0  0  0  0
   59.1170   34.1190   45.6390 C   0  0  0  0  0  0  0  0  0  0  0  0
   58.9990   34.8300   46.7770 N   0  0  0  0  0  0  0  0  0  0  0  0
   60.1050   34.6150   47.4770 N   0  0  0  0  0  0  0  0  0  0  0  0
   60.9220   33.8090   46.8160 N   0  0  0  0  0  0  0  0  0  0  0  0
   62.1780   33.3400   47.3260 C   0  0  0  0  0  0  0  0  0  0  0  0
   63.1600   34.1300   47.3780 O   0  0  0  0  0  0  0  0  0  0  0  0
   62.3490   31.9320   47.8370 C   0  0  0  0  0  0  0  0  0  0  0  0
   63.2412   31.8937   48.4793 H   0  0  0  0  0  0  0  0  0  0  0  0
   62.4544   31.2665   46.9675 H   0  0  0  0  0  0  0  0  0  0  0  0
   61.1320   31.4600   48.6500 C   0  0  0  0  0  0  0  0  0  0  0  0
   60.8567   32.2458   49.3689 H   0  0  0  0  0  0  0  0  0  0  0  0
   61.4057   30.5298   49.1695 H   0  0  0  0  0  0  0  0  0  0  0  0
   59.9700   31.1780   47.7790 N   0  0  0  0  0  0  0  0  0  0  0  0
   59.9020   29.7810   47.2960 C   0  0  0  0  0  0  0  0  0  0  0  0
   60.8982   29.3271   47.4035 H   0  0  0  0  0  0  0  0  0  0  0  0
   59.5696   29.8181   46.2481 H   0  0  0  0  0  0  0  0  0  0  0  0
   58.8930   28.9180   48.0560 C   0  0  0  0  0  0  0  0  0  0  0  0
   59.0427   29.0460   49.1382 H   0  0  0  0  0  0  0  0  0  0  0  0
   57.8716   29.2263   47.7881 H   0  0  0  0  0  0  0  0  0  0  0  0
   59.0392   27.8612   47.7881 H   0  0  0  0  0  0  0  0  0  0  0  0
   58.6680   31.7660   48.1830 C   0  0  0  0  0  0  0  0  0  0  0  0
   58.4217   32.5691   47.4728 H   0  0  0  0  0  0  0  0  0  0  0  0
   57.9431   30.9387   48.1772 H   0  0  0  0  0  0  0  0  0  0  0  0
   58.6320   32.3560   49.5990 C   0  0  0  0  0  0  0  0  0  0  0  0
   58.6817   31.5417   50.3369 H   0  0  0  0  0  0  0  0  0  0  0  0
   59.4907   33.0293   49.7376 H   0  0  0  0  0  0  0  0  0  0  0  0
   57.6978   32.9199   49.7376 H   0  0  0  0  0  0  0  0  0  0  0  0
   60.3450   33.4940   45.6440 C   0  0  0  0  0  0  0  0  0  0  0  0
   60.7682   32.8635   44.8481 H   0  0  0  0  0  0  0  0  0  0  0  0
  1  2  1  0
  2  3  1  0
  3  4  2  0
  3  5  1  0
  5  6  1  0
  5  7  1  0
  7  8  2  0
  8  9  1  0
  8 10  1  0
 10 11  1  0
 10 12  2  0
 12 13  1  0
 12 14  1  0
 14 15  1  0
 14 16  2  0
 16 17  1  0
 17 18  1  0
 17 19  1  0
  2 20  2  0
 20 21  1  0
 20 22  1  0
 22 23  1  0
 23 24  2  0
 24 25  1  0
 25 26  1  0
 26 27  2  0
 26 28  1  0
 28 29  1  0
 28 30  1  0
 28 31  1  0
 31 32  1  0
 31 33  1  0
 31 34  1  0
 34 35  1  0
 35 36  1  0
 35 37  1  0
 35 38  1  0
 38 39  1  0
 38 40  1  0
 38 41  1  0
 34 42  1  0
 42 43  1  0
 42 44  1  0
 42 45  1  0
 45 46  1  0
 45 47  1  0
 45 48  1  0
 25 49  1  0
 49 50  1  0
 16  7  1  0
 49 22  2  0
M  END
>  <UniqueID>  (36) 
35

>  <SMILES>  (36) 
CCN(CC)CCC(=O)n1cc(/C=C\C(=O)Nc2ccccc2N)nn1

>  <Energy>  (36) 
96.7566406391382

>  <Genealogy>  (36) 
CCN(CC)CCC(=O)n1cc(/C=C\C(=O)Nc2ccccc2N)nn1 (cis-trans isomerization)
CCN(CC)CCC(=O)n1cc(/C=C\C(=O)Nc2ccccc2N)nn1 (3D coordinates assigned)
CCN(CC)CCC(=O)n1cc(/C=C\C(=O)Nc2ccccc2N)nn1 (optimized conformer: 96.7566406391382 kcal/mol)

>  <smiles>  (36) 
CCN(CC)CCC(=O)n1cc(C=CC(=O)Nc2ccccc2N)nn1

>  <score_type>  (36) 
oracle

>  <origin>  (36) 
adg

>  <m_score__min__energy>  (36) 
-8.8699999999999992

>  <m_primary>  (36) 
energy

$$$$
36:0
     RDKit          3D

 41 43  0  0  0  0  0  0  0  0999 V2000
   59.5521   25.0243   45.9408 H   0  0  0  0  0  0  0  0  0  0  0  0
   58.4550   25.0040   45.8630 C   0  0  0  0  0  0  0  0  0  0  0  0
   57.7580   25.9330   46.5360 C   0  0  0  0  0  0  0  0  0  0  0  0
   57.3644   25.6804   47.5316 H   0  0  0  0  0  0  0  0  0  0  0  0
   57.4980   27.2870   45.9890 C   0  0  0  0  0  0  0  0  0  0  0  0
   56.1940   27.6380   45.6180 C   0  0  0  0  0  0  0  0  0  0  0  0
   55.1520   26.7240   45.7330 O   0  0  0  0  0  0  0  0  0  0  0  0
   55.9380   28.8750   45.1330 N   0  0  0  0  0  0  0  0  0  0  0  0
   56.9170   29.8020   44.9930 C   0  0  0  0  0  0  0  0  0  0  0  0
   56.6150   30.9400   44.5410 O   0  0  0  0  0  0  0  0  0  0  0  0
   58.2090   29.5050   45.3480 N   0  0  0  0  0  0  0  0  0  0  0  0
   59.2700   30.5240   45.2280 C   0  0  0  0  0  0  0  0  0  0  0  0
   59.2239   30.9790   44.2276 H   0  0  0  0  0  0  0  0  0  0  0  0
   60.2467   30.0413   45.3794 H   0  0  0  0  0  0  0  0  0  0  0  0
   59.0890   31.5960   46.2690 C   0  0  0  0  0  0  0  0  0  0  0  0
   58.2100   32.4810   46.0930 O   0  0  0  0  0  0  0  0  0  0  0  0
   59.8500   31.6120   47.4840 N   0  0  0  0  0  0  0  0  0  0  0  0
   61.0300   32.3860   47.7380 C   0  0  0  0  0  0  0  0  0  0  0  0
   62.2420   31.9800   47.1660 C   0  0  0  0  0  0  0  0  0  0  0  0
   62.2706   31.0934   46.5156 H   0  0  0  0  0  0  0  0  0  0  0  0
   63.4170   32.6970   47.4180 C   0  0  0  0  0  0  0  0  0  0  0  0
   64.3630   32.3832   46.9526 H   0  0  0  0  0  0  0  0  0  0  0  0
   63.3890   33.8120   48.2610 C   0  0  0  0  0  0  0  0  0  0  0  0
   64.3117   34.3789   48.4539 H   0  0  0  0  0  0  0  0  0  0  0  0
   62.1900   34.2060   48.8580 C   0  0  0  0  0  0  0  0  0  0  0  0
   62.1703   35.0792   49.5267 H   0  0  0  0  0  0  0  0  0  0  0  0
   61.0140   33.4920   48.6070 C   0  0  0  0  0  0  0  0  0  0  0  0
   60.0739   33.7961   49.0905 H   0  0  0  0  0  0  0  0  0  0  0  0
   58.5020   28.2700   45.8720 C   0  0  0  0  0  0  0  0  0  0  0  0
   59.6710   28.0200   46.2800 O   0  0  0  0  0  0  0  0  0  0  0  0
   57.8360   23.9520   45.0210 C   0  0  0  0  0  0  0  0  0  0  0  0
   56.6420   24.2520   44.3410 C   0  0  0  0  0  0  0  0  0  0  0  0
   56.1963   25.2529   44.4389 H   0  0  0  0  0  0  0  0  0  0  0  0
   56.0160   23.2910   43.5420 C   0  0  0  0  0  0  0  0  0  0  0  0
   55.0874   23.5409   43.0079 H   0  0  0  0  0  0  0  0  0  0  0  0
   56.5680   22.0140   43.4210 C   0  0  0  0  0  0  0  0  0  0  0  0
   55.9440   21.0600   42.6270 O   0  0  0  0  0  0  0  0  0  0  0  0
   57.7450   21.6950   44.1030 C   0  0  0  0  0  0  0  0  0  0  0  0
   58.1764   20.6873   44.0113 H   0  0  0  0  0  0  0  0  0  0  0  0
   58.3760   22.6540   44.9020 C   0  0  0  0  0  0  0  0  0  0  0  0
   59.2991   22.3946   45.4410 H   0  0  0  0  0  0  0  0  0  0  0  0
  1  2  1  0
  2  3  2  0
  3  4  1  0
  3  5  1  0
  5  6  2  0
  6  7  1  0
  6  8  1  0
  8  9  1  0
  9 10  2  0
  9 11  1  0
 11 12  1  0
 12 13  1  0
 12 14  1  0
 12 15  1  0
 15 16  2  0
 15 17  1  0
 17 18  1  0
 18 19  2  0
 19 20  1  0
 19 21  1  0
 21 22  1  0
 21 23  2  0
 23 24  1  0
 23 25  1  0
 25 26  1  0
 25 27  2  0
 27 28  1  0
 11 29  1  0
 29 30  2  0
  2 31  1  0
 31 32  2  0
 32 33  1  0
 32 34  1  0
 34 35  1  0
 34 36  2  0
 36 37  1  0
 36 38  1  0
 38 39  1  0
 38 40  2  0
 40 41  1  0
 29  5  1  0
 40 31  1  0
 27 18  1  0
M  CHG  4   7  -1   8  -1  17  -1  37  -1
M  END
>  <UniqueID>  (37) 
36

>  <SMILES>  (37) 
O=C(Cn1c(=O)[n-]c([O-])c(/C=C/c2ccc([O-])cc2)c1=O)[N-]c1ccccc1

>  <Energy>  (37) 
60.94295619476363

>  <Genealogy>  (37) 
O=C(Cn1c(=O)[n-]c([O-])c(C=Cc2ccc([O-])cc2)c1=O)[N-]c1ccccc1 (protonated)
O=C(Cn1c(=O)[n-]c([O-])c(/C=C/c2ccc([O-])cc2)c1=O)[N-]c1ccccc1 (cis-trans isomerization)
O=C(Cn1c(=O)[n-]c([O-])c(/C=C/c2ccc([O-])cc2)c1=O)[N-]c1ccccc1 (3D coordinates assigned)
O=C(Cn1c(=O)[n-]c([O-])c(/C=C/c2ccc([O-])cc2)c1=O)[N-]c1ccccc1 (optimized conformer: 60.94295619476363 kcal/mol)

>  <smiles>  (37) 
O=C(Cn1c(=O)[nH]c(O)c(C=Cc2ccc(O)cc2)c1=O)Nc1ccccc1

>  <score_type>  (37) 
oracle

>  <origin>  (37) 
adg

>  <m_score__min__energy>  (37) 
-16.050000000000001

>  <m_primary>  (37) 
energy

$$$$
37:0
     RDKit          3D

 41 43  0  0  0  0  0  0  0  0999 V2000
   55.5783   24.0733   46.5740 H   0  0  0  0  0  0  0  0  0  0  0  0
   56.5630   24.1990   46.1000 C   0  0  0  0  0  0  0  0  0  0  0  0
   57.3270   25.2170   46.5250 C   0  0  0  0  0  0  0  0  0  0  0  0
   58.1150   24.9900   47.2581 H   0  0  0  0  0  0  0  0  0  0  0  0
   57.1890   26.6240   46.0810 C   0  0  0  0  0  0  0  0  0  0  0  0
   55.9550   27.1430   45.6690 C   0  0  0  0  0  0  0  0  0  0  0  0
   54.8120   26.3520   45.6620 O   0  0  0  0  0  0  0  0  0  0  0  0
   55.8730   28.4270   45.2490 N   0  0  0  0  0  0  0  0  0  0  0  0
   56.9640   29.2320   45.1970 C   0  0  0  0  0  0  0  0  0  0  0  0
   56.8250   30.4180   44.7960 O   0  0  0  0  0  0  0  0  0  0  0  0
   58.1960   28.7530   45.5660 N   0  0  0  0  0  0  0  0  0  0  0  0
   59.3880   29.6210   45.4490 C   0  0  0  0  0  0  0  0  0  0  0  0
   60.2639   28.9974   45.2168 H   0  0  0  0  0  0  0  0  0  0  0  0
   59.2075   30.3524   44.6475 H   0  0  0  0  0  0  0  0  0  0  0  0
   59.6510   30.3870   46.7540 C   0  0  0  0  0  0  0  0  0  0  0  0
   58.9505   30.0308   47.5237 H   0  0  0  0  0  0  0  0  0  0  0  0
   60.6933   30.2045   47.0544 H   0  0  0  0  0  0  0  0  0  0  0  0
   59.4670   31.8710   46.5760 C   0  0  0  0  0  0  0  0  0  0  0  0
   60.5720   32.7340   46.6460 C   0  0  0  0  0  0  0  0  0  0  0  0
   61.5695   32.3298   46.8731 H   0  0  0  0  0  0  0  0  0  0  0  0
   60.4090   34.1060   46.4280 C   0  0  0  0  0  0  0  0  0  0  0  0
   61.2769   34.7789   46.4906 H   0  0  0  0  0  0  0  0  0  0  0  0
   59.1460   34.6230   46.1310 C   0  0  0  0  0  0  0  0  0  0  0  0
   59.0199   35.7022   45.9592 H   0  0  0  0  0  0  0  0  0  0  0  0
   58.0420   33.7690   46.0520 C   0  0  0  0  0  0  0  0  0  0  0  0
   57.0479   34.1771   45.8170 H   0  0  0  0  0  0  0  0  0  0  0  0
   58.1990   32.3980   46.2710 C   0  0  0  0  0  0  0  0  0  0  0  0
   57.3285   31.7288   46.2047 H   0  0  0  0  0  0  0  0  0  0  0  0
   58.3180   27.4550   46.0000 C   0  0  0  0  0  0  0  0  0  0  0  0
   59.4460   26.9960   46.3330 O   0  0  0  0  0  0  0  0  0  0  0  0
   56.9390   23.2310   45.0440 C   0  0  0  0  0  0  0  0  0  0  0  0
   56.2320   23.1340   43.8350 C   0  0  0  0  0  0  0  0  0  0  0  0
   55.3811   23.8033   43.6402 H   0  0  0  0  0  0  0  0  0  0  0  0
   56.6090   22.1880   42.8800 C   0  0  0  0  0  0  0  0  0  0  0  0
   56.0679   22.1175   41.9249 H   0  0  0  0  0  0  0  0  0  0  0  0
   57.6780   21.3330   43.1480 C   0  0  0  0  0  0  0  0  0  0  0  0
   57.9880   20.5897   42.3987 H   0  0  0  0  0  0  0  0  0  0  0  0
   58.3380   21.4170   44.3350 N   0  0  0  0  0  0  0  0  0  0  0  0
   59.1300   20.7630   44.5250 H   0  0  0  0  0  0  0  0  0  0  0  0
   57.9890   22.3310   45.2810 C   0  0  0  0  0  0  0  0  0  0  0  0
   58.5330   22.3644   46.2365 H   0  0  0  0  0  0  0  0  0  0  0  0
  1  2  1  0
  2  3  2  0
  3  4  1  0
  3  5  1  0
  5  6  2  0
  6  7  1  0
  6  8  1  0
  8  9  1  0
  9 10  2  0
  9 11  1  0
 11 12  1  0
 12 13  1  0
 12 14  1  0
 12 15  1  0
 15 16  1  0
 15 17  1  0
 15 18  1  0
 18 19  2  0
 19 20  1  0
 19 21  1  0
 21 22  1  0
 21 23  2  0
 23 24  1  0
 23 25  1  0
 25 26  1  0
 25 27  2  0
 27 28  1  0
 11 29  1  0
 29 30  2  0
  2 31  1  0
 31 32  2  0
 32 33  1  0
 32 34  1  0
 34 35  1  0
 34 36  2  0
 36 37  1  0
 36 38  1  0
 38 39  1  0
 38 40  2  0
 40 41  1  0
 29  5  1  0
 40 31  1  0
 27 18  1  0
M  CHG  3   7  -1   8  -1  38   1
M  END
>  <UniqueID>  (38) 
37

>  <SMILES>  (38) 
O=c1[n-]c([O-])c(/C=C\c2ccc[nH+]c2)c(=O)n1CCc1ccccc1

>  <Energy>  (38) 
56.061282323492094

>  <Genealogy>  (38) 
O=c1[n-]c([O-])c(C=Cc2ccc[nH+]c2)c(=O)n1CCc1ccccc1 (protonated)
O=c1[n-]c([O-])c(/C=C\c2ccc[nH+]c2)c(=O)n1CCc1ccccc1 (cis-trans isomerization)
O=c1[n-]c([O-])c(/C=C\c2ccc[nH+]c2)c(=O)n1CCc1ccccc1 (3D coordinates assigned)
O=c1[n-]c([O-])c(/C=C\c2ccc[nH+]c2)c(=O)n1CCc1ccccc1 (optimized conformer: 56.061282323492094 kcal/mol)

>  <smiles>  (38) 
O=c1[nH]c(O)c(C=Cc2cccnc2)c(=O)n1CCc1ccccc1

>  <score_type>  (38) 
oracle

>  <origin>  (38) 
adg

>  <m_score__min__energy>  (38) 
-12.890000000000001

>  <m_primary>  (38) 
energy

$$$$
38:0
     RDKit          3D

 41 42  0  0  0  0  0  0  0  0999 V2000
   63.3680   33.2830   47.1540 C   0  0  0  0  0  0  0  0  0  0  0  0
   62.1840   33.8400   46.3720 C   0  0  0  0  0  0  0  0  0  0  0  0
   60.9360   33.8330   47.2080 C   0  0  0  0  0  0  0  0  0  0  0  0
   60.9330   33.4040   48.4880 N   0  0  0  0  0  0  0  0  0  0  0  0
   59.6560   33.5600   48.8900 C   0  0  0  0  0  0  0  0  0  0  0  0
   58.9090   34.0770   47.8570 C   0  0  0  0  0  0  0  0  0  0  0  0
   59.7090   34.2250   46.7860 N   0  0  0  0  0  0  0  0  0  0  0  0
   59.3320   34.8250   45.5000 C   0  0  0  0  0  0  0  0  0  0  0  0
   58.0450   34.2130   44.9330 C   0  0  0  0  0  0  0  0  0  0  0  0
   58.2600   32.8030   44.4680 C   0  0  0  0  0  0  0  0  0  0  0  0
   58.4550   32.5770   43.2440 O   0  0  0  0  0  0  0  0  0  0  0  0
   58.2790   31.7250   45.4160 N   0  0  0  0  0  0  0  0  0  0  0  0
   58.4620   30.3570   45.0180 C   0  0  0  0  0  0  0  0  0  0  0  0
   57.5050   29.7080   44.1990 C   0  0  0  0  0  0  0  0  0  0  0  0
   56.2600   30.4120   43.7290 C   0  0  0  0  0  0  0  0  0  0  0  0
   57.7240   28.3800   43.8020 C   0  0  0  0  0  0  0  0  0  0  0  0
   58.8470   27.6840   44.2470 C   0  0  0  0  0  0  0  0  0  0  0  0
   59.7690   28.3040   45.0900 C   0  0  0  0  0  0  0  0  0  0  0  0
   59.5890   29.6410   45.4790 C   0  0  0  0  0  0  0  0  0  0  0  0
   60.5950   30.2920   46.3870 C   0  0  0  0  0  0  0  0  0  0  0  0
   63.1714   33.3755   48.2323 H   0  0  0  0  0  0  0  0  0  0  0  0
   63.5112   32.2231   46.8970 H   0  0  0  0  0  0  0  0  0  0  0  0
   64.2758   33.8485   46.8970 H   0  0  0  0  0  0  0  0  0  0  0  0
   62.4076   34.8732   46.0680 H   0  0  0  0  0  0  0  0  0  0  0  0
   62.0178   33.2060   45.4886 H   0  0  0  0  0  0  0  0  0  0  0  0
   59.2705   33.3121   49.8900 H   0  0  0  0  0  0  0  0  0  0  0  0
   57.8386   34.3270   47.8997 H   0  0  0  0  0  0  0  0  0  0  0  0
   59.1779   35.9046   45.6439 H   0  0  0  0  0  0  0  0  0  0  0  0
   60.1440   34.6297   44.7841 H   0  0  0  0  0  0  0  0  0  0  0  0
   57.2732   34.2163   45.7167 H   0  0  0  0  0  0  0  0  0  0  0  0
   57.7305   34.8155   44.0681 H   0  0  0  0  0  0  0  0  0  0  0  0
   58.3000   31.9510   46.4360 H   0  0  0  0  0  0  0  0  0  0  0  0
   55.6750   30.7428   44.5998 H   0  0  0  0  0  0  0  0  0  0  0  0
   56.5398   31.2856   43.1219 H   0  0  0  0  0  0  0  0  0  0  0  0
   55.6556   29.7220   43.1219 H   0  0  0  0  0  0  0  0  0  0  0  0
   57.0039   27.8842   43.1344 H   0  0  0  0  0  0  0  0  0  0  0  0
   59.0064   26.6422   43.9321 H   0  0  0  0  0  0  0  0  0  0  0  0
   60.6425   27.7421   45.4523 H   0  0  0  0  0  0  0  0  0  0  0  0
   60.3145   30.1105   47.4350 H   0  0  0  0  0  0  0  0  0  0  0  0
   61.5912   29.8669   46.1952 H   0  0  0  0  0  0  0  0  0  0  0  0
   60.6153   31.3750   46.1952 H   0  0  0  0  0  0  0  0  0  0  0  0
  1  2  1  0
  2  3  1  0
  3  4  2  0
  4  5  1  0
  5  6  2  0
  6  7  1  0
  7  8  1  0
  8  9  1  0
  9 10  1  0
 10 11  2  0
 10 12  1  0
 12 13  1  0
 13 14  2  0
 14 15  1  0
 14 16  1  0
 16 17  2  0
 17 18  1  0
 18 19  2  0
 19 20  1  0
  7  3  1  0
 19 13  1  0
  1 21  1  0
  1 22  1  0
  1 23  1  0
  2 24  1  0
  2 25  1  0
  5 26  1  0
  6 27  1  0
  8 28  1  0
  8 29  1  0
  9 30  1  0
  9 31  1  0
 12 32  1  0
 15 33  1  0
 15 34  1  0
 15 35  1  0
 16 36  1  0
 17 37  1  0
 18 38  1  0
 20 39  1  0
 20 40  1  0
 20 41  1  0
M  END
>  <UniqueID>  (39) 
38

>  <SMILES>  (39) 
CCc1nccn1CCC(=O)Nc1c(C)cccc1C

>  <Energy>  (39) 
66.1488256304642

>  <Genealogy>  (39) 
CCc1nccn1CCC(=O)Nc1c(C)cccc1C (3D coordinates assigned)
CCc1nccn1CCC(=O)Nc1c(C)cccc1C (optimized conformer: 66.1488256304642 kcal/mol)

>  <smiles>  (39) 
CCc1nccn1CCC(=O)Nc1c(C)cccc1C

>  <score_type>  (39) 
oracle

>  <origin>  (39) 
adg

>  <m_score__min__energy>  (39) 
-6.6600000000000001

>  <m_primary>  (39) 
energy

$$$$
39:0
     RDKit          3D

 34 36  0  0  0  0  0  0  0  0999 V2000
   58.5320   28.8010   43.7260 O   0  0  0  0  0  0  0  0  0  0  0  0
   57.4450   29.2840   44.1440 C   0  0  0  0  0  0  0  0  0  0  0  0
   56.9580   30.5850   43.5820 C   0  0  0  0  0  0  0  0  0  0  0  0
   57.6300   31.7110   44.2500 N   0  0  0  0  0  0  0  0  0  0  0  0
   58.1040   32.7430   43.4890 C   0  0  0  0  0  0  0  0  0  0  0  0
   58.7560   33.7860   44.0610 N   0  0  0  0  0  0  0  0  0  0  0  0
   58.9640   33.8350   45.3990 C   0  0  0  0  0  0  0  0  0  0  0  0
   59.6400   34.9230   45.9620 C   0  0  0  0  0  0  0  0  0  0  0  0
   59.8600   34.9730   47.3420 C   0  0  0  0  0  0  0  0  0  0  0  0
   59.4050   33.9370   48.1620 C   0  0  0  0  0  0  0  0  0  0  0  0
   58.7280   32.8450   47.6070 C   0  0  0  0  0  0  0  0  0  0  0  0
   58.5030   32.7870   46.2190 C   0  0  0  0  0  0  0  0  0  0  0  0
   57.8290   31.7140   45.6090 C   0  0  0  0  0  0  0  0  0  0  0  0
   57.4090   30.7540   46.3160 O   0  0  0  0  0  0  0  0  0  0  0  0
   56.7220   28.6390   45.2020 N   0  0  0  0  0  0  0  0  0  0  0  0
   57.0960   27.3650   45.7480 C   0  0  0  0  0  0  0  0  0  0  0  0
   58.4550   27.0780   45.9470 C   0  0  0  0  0  0  0  0  0  0  0  0
   58.8470   25.8490   46.4840 C   0  0  0  0  0  0  0  0  0  0  0  0
   57.8840   24.9010   46.8410 C   0  0  0  0  0  0  0  0  0  0  0  0
   56.5270   25.1870   46.6730 C   0  0  0  0  0  0  0  0  0  0  0  0
   56.1270   26.4180   46.1400 C   0  0  0  0  0  0  0  0  0  0  0  0
   54.7700   26.7020   46.0330 O   0  0  0  0  0  0  0  0  0  0  0  0
   57.1759   30.6195   42.5044 H   0  0  0  0  0  0  0  0  0  0  0  0
   55.8736   30.6643   43.7488 H   0  0  0  0  0  0  0  0  0  0  0  0
   57.9548   32.7274   42.3993 H   0  0  0  0  0  0  0  0  0  0  0  0
   59.9987   35.7398   45.3184 H   0  0  0  0  0  0  0  0  0  0  0  0
   60.3920   35.8290   47.7827 H   0  0  0  0  0  0  0  0  0  0  0  0
   59.5795   33.9799   49.2472 H   0  0  0  0  0  0  0  0  0  0  0  0
   58.3716   32.0316   48.2561 H   0  0  0  0  0  0  0  0  0  0  0  0
   55.9840   29.1860   45.7010 H   0  0  0  0  0  0  0  0  0  0  0  0
   59.2165   27.8251   45.6786 H   0  0  0  0  0  0  0  0  0  0  0  0
   59.9150   25.6273   46.6260 H   0  0  0  0  0  0  0  0  0  0  0  0
   58.1946   23.9300   47.2541 H   0  0  0  0  0  0  0  0  0  0  0  0
   55.7702   24.4423   46.9605 H   0  0  0  0  0  0  0  0  0  0  0  0
  1  2  2  0
  2  3  1  0
  3  4  1  0
  4  5  1  0
  5  6  2  0
  6  7  1  0
  7  8  2  0
  8  9  1  0
  9 10  2  0
 10 11  1  0
 11 12  2  0
 12 13  1  0
 13 14  2  0
  2 15  1  0
 15 16  1  0
 16 17  2  0
 17 18  1  0
 18 19  2  0
 19 20  1  0
 20 21  2  0
 21 22  1  0
 13  4  1  0
 21 16  1  0
 12  7  1  0
  3 23  1  0
  3 24  1  0
  5 25  1  0
  8 26  1  0
  9 27  1  0
 10 28  1  0
 11 29  1  0
 15 30  1  0
 17 31  1  0
 18 32  1  0
 19 33  1  0
 20 34  1  0
M  CHG  1  22  -1
M  END
>  <UniqueID>  (40) 
39

>  <SMILES>  (40) 
O=C(Cn1cnc2ccccc2c1=O)Nc1ccccc1[O-]

>  <Energy>  (40) 
46.90237501825172

>  <Genealogy>  (40) 
O=C(Cn1cnc2ccccc2c1=O)Nc1ccccc1[O-] (protonated)
O=C(Cn1cnc2ccccc2c1=O)Nc1ccccc1[O-] (3D coordinates assigned)
O=C(Cn1cnc2ccccc2c1=O)Nc1ccccc1[O-] (optimized conformer: 46.90237501825172 kcal/mol)

>  <smiles>  (40) 
O=C(Cn1cnc2ccccc2c1=O)Nc1ccccc1O

>  <score_type>  (40) 
oracle

>  <origin>  (40) 
adg

>  <m_score__min__energy>  (40) 
-11.859999999999999

>  <m_primary>  (40) 
energy

$$$$
40:0
     RDKit          3D

 32 34  0  0  0  0  0  0  0  0999 V2000
   57.6490   23.4640   45.0070 O   0  0  0  0  0  0  0  0  0  0  0  0
   56.9970   24.4930   45.3230 C   0  0  0  0  0  0  0  0  0  0  0  0
   57.6650   25.6550   45.7160 C   0  0  0  0  0  0  0  0  0  0  0  0
   56.9050   26.7810   46.0560 C   0  0  0  0  0  0  0  0  0  0  0  0
   57.5650   28.0590   46.4820 C   0  0  0  0  0  0  0  0  0  0  0  0
   57.1160   29.1960   45.6110 C   0  0  0  0  0  0  0  0  0  0  0  0
   55.8960   29.2460   45.0410 N   0  0  0  0  0  0  0  0  0  0  0  0
   55.8560   30.3430   44.3000 N   0  0  0  0  0  0  0  0  0  0  0  0
   57.0550   30.9390   44.4240 C   0  0  0  0  0  0  0  0  0  0  0  0
   57.4410   32.3340   43.6540 S   0  0  0  0  0  0  0  0  0  0  0  0
   57.8810   30.2440   45.2340 N   0  0  0  0  0  0  0  0  0  0  0  0
   59.2570   30.5610   45.6350 C   0  0  0  0  0  0  0  0  0  0  0  0
   59.2870   31.7800   46.5210 C   0  0  0  0  0  0  0  0  0  0  0  0
   59.6620   33.0310   46.0000 C   0  0  0  0  0  0  0  0  0  0  0  0
   59.6830   34.1600   46.8230 C   0  0  0  0  0  0  0  0  0  0  0  0
   59.3230   34.0530   48.1690 C   0  0  0  0  0  0  0  0  0  0  0  0
   58.9370   32.8170   48.6920 C   0  0  0  0  0  0  0  0  0  0  0  0
   58.9150   31.6840   47.8730 C   0  0  0  0  0  0  0  0  0  0  0  0
   55.5470   26.7120   46.0040 N   0  0  0  0  0  0  0  0  0  0  0  0
   54.9160   25.5710   45.6210 C   0  0  0  0  0  0  0  0  0  0  0  0
   53.6590   25.5330   45.5780 O   0  0  0  0  0  0  0  0  0  0  0  0
   55.6390   24.4730   45.2830 N   0  0  0  0  0  0  0  0  0  0  0  0
   58.7638   25.6850   45.7575 H   0  0  0  0  0  0  0  0  0  0  0  0
   57.2964   28.2748   47.5266 H   0  0  0  0  0  0  0  0  0  0  0  0
   58.6551   27.9462   46.3873 H   0  0  0  0  0  0  0  0  0  0  0  0
   59.6793   29.7059   46.1831 H   0  0  0  0  0  0  0  0  0  0  0  0
   59.8500   30.7661   44.7315 H   0  0  0  0  0  0  0  0  0  0  0  0
   59.9401   33.1213   44.9396 H   0  0  0  0  0  0  0  0  0  0  0  0
   59.9834   35.1346   46.4107 H   0  0  0  0  0  0  0  0  0  0  0  0
   59.3437   34.9421   48.8164 H   0  0  0  0  0  0  0  0  0  0  0  0
   58.6496   32.7346   49.7506 H   0  0  0  0  0  0  0  0  0  0  0  0
   58.6053   30.7137   48.2884 H   0  0  0  0  0  0  0  0  0  0  0  0
  1  2  2  0
  2  3  1  0
  3  4  2  0
  4  5  1  0
  5  6  1  0
  6  7  2  0
  7  8  1  0
  8  9  1  0
  9 10  2  0
  9 11  1  0
 11 12  1  0
 12 13  1  0
 13 14  2  0
 14 15  1  0
 15 16  2  0
 16 17  1  0
 17 18  2  0
  4 19  1  0
 19 20  1  0
 20 21  2  0
 20 22  1  0
 22  2  1  0
 11  6  1  0
 18 13  1  0
  3 23  1  0
  5 24  1  0
  5 25  1  0
 12 26  1  0
 12 27  1  0
 14 28  1  0
 15 29  1  0
 16 30  1  0
 17 31  1  0
 18 32  1  0
M  CHG  3   8  -1  19  -1  22  -1
M  END
>  <UniqueID>  (41) 
40

>  <SMILES>  (41) 
O=c1cc(Cc2n[n-]c(=S)n2Cc2ccccc2)[n-]c(=O)[n-]1

>  <Energy>  (41) 
68.51165594896482

>  <Genealogy>  (41) 
O=c1cc(Cc2n[n-]c(=S)n2Cc2ccccc2)[n-]c(=O)[n-]1 (protonated)
O=c1cc(Cc2n[n-]c(=S)n2Cc2ccccc2)[n-]c(=O)[n-]1 (3D coordinates assigned)
O=c1cc(Cc2n[n-]c(=S)n2Cc2ccccc2)[n-]c(=O)[n-]1 (optimized conformer: 68.51165594896482 kcal/mol)

>  <smiles>  (41) 
O=c1cc(Cc2n[nH]c(=S)n2Cc2ccccc2)[nH]c(=O)[nH]1

>  <score_type>  (41) 
oracle

>  <origin>  (41) 
adg

>  <m_score__min__energy>  (41) 
-13.27

>  <m_primary>  (41) 
energy

$$$$
41:0
     RDKit          3D

 37 38  0  0  0  0  0  0  0  0999 V2000
   53.8850   25.0300   45.6140 O   0  0  0  0  0  0  0  0  0  0  0  0
   55.1120   25.3230   45.6220 C   0  0  0  0  0  0  0  0  0  0  0  0
   55.5530   26.6140   46.0590 N   0  0  0  0  0  0  0  0  0  0  0  0
   56.7140   27.3220   45.5990 C   0  0  0  0  0  0  0  0  0  0  0  0
   58.0150   26.8150   45.7710 C   0  0  0  0  0  0  0  0  0  0  0  0
   59.1190   27.5490   45.3290 C   0  0  0  0  0  0  0  0  0  0  0  0
   58.9380   28.7990   44.7300 C   0  0  0  0  0  0  0  0  0  0  0  0
   57.6480   29.3260   44.5820 C   0  0  0  0  0  0  0  0  0  0  0  0
   57.4100   30.9150   43.8610 S   0  0  0  0  0  0  0  0  0  0  0  0
   58.6450   31.3590   43.1280 O   0  0  0  0  0  0  0  0  0  0  0  0
   56.2660   30.8370   42.8910 O   0  0  0  0  0  0  0  0  0  0  0  0
   57.0370   32.0750   45.0980 N   0  0  0  0  0  0  0  0  0  0  0  0
   57.9770   33.0530   45.5820 C   0  0  0  0  0  0  0  0  0  0  0  0
   58.3420   34.1600   44.7910 C   0  0  0  0  0  0  0  0  0  0  0  0
   59.2580   35.1000   45.2640 C   0  0  0  0  0  0  0  0  0  0  0  0
   59.8150   34.9550   46.5330 C   0  0  0  0  0  0  0  0  0  0  0  0
   59.4590   33.8700   47.3350 C   0  0  0  0  0  0  0  0  0  0  0  0
   58.5380   32.9090   46.8690 C   0  0  0  0  0  0  0  0  0  0  0  0
   58.1620   31.8000   47.6490 O   0  0  0  0  0  0  0  0  0  0  0  0
   58.9390   30.6210   47.8430 C   0  0  0  0  0  0  0  0  0  0  0  0
   58.1530   29.5180   47.5740 F   0  0  0  0  0  0  0  0  0  0  0  0
   60.0240   30.6160   46.9830 F   0  0  0  0  0  0  0  0  0  0  0  0
   59.3760   30.5480   49.1530 F   0  0  0  0  0  0  0  0  0  0  0  0
   56.5420   28.5840   45.0170 C   0  0  0  0  0  0  0  0  0  0  0  0
   56.1230   24.2720   45.2910 C   0  0  0  0  0  0  0  0  0  0  0  0
   56.8410   24.6400   44.1680 F   0  0  0  0  0  0  0  0  0  0  0  0
   55.4770   23.0760   45.0460 F   0  0  0  0  0  0  0  0  0  0  0  0
   56.9980   24.1090   46.3490 F   0  0  0  0  0  0  0  0  0  0  0  0
   58.1636   25.8383   46.2547 H   0  0  0  0  0  0  0  0  0  0  0  0
   60.1334   27.1419   45.4528 H   0  0  0  0  0  0  0  0  0  0  0  0
   59.8088   29.3694   44.3746 H   0  0  0  0  0  0  0  0  0  0  0  0
   56.1140   31.9640   45.5760 H   0  0  0  0  0  0  0  0  0  0  0  0
   57.9007   34.2844   43.7911 H   0  0  0  0  0  0  0  0  0  0  0  0
   59.5408   35.9566   44.6345 H   0  0  0  0  0  0  0  0  0  0  0  0
   60.5370   35.6976   46.9034 H   0  0  0  0  0  0  0  0  0  0  0  0
   59.8996   33.7636   48.3373 H   0  0  0  0  0  0  0  0  0  0  0  0
   55.5290   28.9967   44.9002 H   0  0  0  0  0  0  0  0  0  0  0  0
  1  2  2  0
  2  3  1  0
  3  4  1  0
  4  5  2  0
  5  6  1  0
  6  7  2  0
  7  8  1  0
  8  9  1  0
  9 10  2  0
  9 11  2  0
  9 12  1  0
 12 13  1  0
 13 14  2  0
 14 15  1  0
 15 16  2  0
 16 17  1  0
 17 18  2  0
 18 19  1  0
 19 20  1  0
 20 21  1  0
 20 22  1  0
 20 23  1  0
  8 24  2  0
  2 25  1  0
 25 26  1  0
 25 27  1  0
 25 28  1  0
 24  4  1  0
 18 13  1  0
  5 29  1  0
  6 30  1  0
  7 31  1  0
 12 32  1  0
 14 33  1  0
 15 34  1  0
 16 35  1  0
 17 36  1  0
 24 37  1  0
M  CHG  1   3  -1
M  END
>  <UniqueID>  (42) 
41

>  <SMILES>  (42) 
O=C([N-]c1cccc(S(=O)(=O)Nc2ccccc2OC(F)(F)F)c1)C(F)(F)F

>  <Energy>  (42) 
43.090955161532925

>  <Genealogy>  (42) 
O=C([N-]c1cccc(S(=O)(=O)Nc2ccccc2OC(F)(F)F)c1)C(F)(F)F (protonated)
O=C([N-]c1cccc(S(=O)(=O)Nc2ccccc2OC(F)(F)F)c1)C(F)(F)F (3D coordinates assigned)
O=C([N-]c1cccc(S(=O)(=O)Nc2ccccc2OC(F)(F)F)c1)C(F)(F)F (optimized conformer: 43.090955161532925 kcal/mol)

>  <smiles>  (42) 
O=C(Nc1cccc(S(=O)(=O)Nc2ccccc2OC(F)(F)F)c1)C(F)(F)F

>  <score_type>  (42) 
oracle

>  <origin>  (42) 
adg

>  <m_score__min__energy>  (42) 
-9.0600000000000005

>  <m_primary>  (42) 
energy

$$$$
42:0
     RDKit          3D

 42 44  0  0  0  0  0  0  0  0999 V2000
   57.2980   31.3340   42.9480 O   0  0  0  0  0  0  0  0  0  0  0  0
   57.0460   31.4870   44.1750 C   0  0  0  0  0  0  0  0  0  0  0  0
   56.0740   30.6480   44.8110 N   0  0  0  0  0  0  0  0  0  0  0  0
   55.9310   29.2230   44.5360 C   0  0  0  0  0  0  0  0  0  0  0  0
   56.8510   28.4250   45.4240 C   0  0  0  0  0  0  0  0  0  0  0  0
   58.1360   28.9080   45.7220 C   0  0  0  0  0  0  0  0  0  0  0  0
   58.9920   28.1840   46.5660 C   0  0  0  0  0  0  0  0  0  0  0  0
   60.3470   28.7290   46.9140 C   0  0  0  0  0  0  0  0  0  0  0  0
   60.3260   29.2250   48.2850 N   0  0  0  0  0  0  0  0  0  0  0  0
   59.9110   30.5390   48.6800 C   0  0  0  0  0  0  0  0  0  0  0  0
   60.4480   31.5340   48.1280 O   0  0  0  0  0  0  0  0  0  0  0  0
   58.9160   30.7700   49.7440 C   0  0  0  0  0  0  0  0  0  0  0  0
   58.6410   32.0540   50.2270 C   0  0  0  0  0  0  0  0  0  0  0  0
   57.7090   32.2130   51.2510 C   0  0  0  0  0  0  0  0  0  0  0  0
   57.0840   31.0840   51.7800 C   0  0  0  0  0  0  0  0  0  0  0  0
   56.2370   31.1980   52.7040 O   0  0  0  0  0  0  0  0  0  0  0  0
   57.4010   29.8540   51.2960 N   0  0  0  0  0  0  0  0  0  0  0  0
   58.2920   29.7040   50.3140 N   0  0  0  0  0  0  0  0  0  0  0  0
   58.5460   26.9820   47.1340 C   0  0  0  0  0  0  0  0  0  0  0  0
   57.2690   26.4970   46.8440 C   0  0  0  0  0  0  0  0  0  0  0  0
   56.4200   27.2120   45.9930 C   0  0  0  0  0  0  0  0  0  0  0  0
   55.1490   26.7150   45.7240 O   0  0  0  0  0  0  0  0  0  0  0  0
   57.7530   32.5320   44.9520 C   0  0  0  0  0  0  0  0  0  0  0  0
   58.4860   33.5380   44.2960 C   0  0  0  0  0  0  0  0  0  0  0  0
   59.1550   34.5210   45.0320 C   0  0  0  0  0  0  0  0  0  0  0  0
   59.0970   34.5140   46.4270 C   0  0  0  0  0  0  0  0  0  0  0  0
   58.3720   33.5210   47.0910 C   0  0  0  0  0  0  0  0  0  0  0  0
   57.7040   32.5340   46.3600 C   0  0  0  0  0  0  0  0  0  0  0  0
   54.8907   28.9194   44.7247 H   0  0  0  0  0  0  0  0  0  0  0  0
   56.1937   29.0329   43.4849 H   0  0  0  0  0  0  0  0  0  0  0  0
   58.4740   29.8616   45.2902 H   0  0  0  0  0  0  0  0  0  0  0  0
   61.0990   27.9314   46.8227 H   0  0  0  0  0  0  0  0  0  0  0  0
   60.6029   29.5497   46.2277 H   0  0  0  0  0  0  0  0  0  0  0  0
   59.1551   32.9291   49.8029 H   0  0  0  0  0  0  0  0  0  0  0  0
   57.4697   33.2150   51.6366 H   0  0  0  0  0  0  0  0  0  0  0  0
   59.2050   26.4186   47.8110 H   0  0  0  0  0  0  0  0  0  0  0  0
   56.9295   25.5489   47.2866 H   0  0  0  0  0  0  0  0  0  0  0  0
   58.5331   33.5513   43.1971 H   0  0  0  0  0  0  0  0  0  0  0  0
   59.7283   35.3017   44.5106 H   0  0  0  0  0  0  0  0  0  0  0  0
   59.6220   35.2901   47.0033 H   0  0  0  0  0  0  0  0  0  0  0  0
   58.3268   33.5158   48.1901 H   0  0  0  0  0  0  0  0  0  0  0  0
   57.1362   31.7536   46.8879 H   0  0  0  0  0  0  0  0  0  0  0  0
  1  2  2  0
  2  3  1  0
  3  4  1  0
  4  5  1  0
  5  6  2  0
  6  7  1  0
  7  8  1  0
  8  9  1  0
  9 10  1  0
 10 11  2  0
 10 12  1  0
 12 13  1  0
 13 14  2  0
 14 15  1  0
 15 16  2  0
 15 17  1  0
 17 18  1  0
  7 19  2  0
 19 20  1  0
 20 21  2  0
 21 22  1  0
  2 23  1  0
 23 24  2  0
 24 25  1  0
 25 26  2  0
 26 27  1  0
 27 28  2  0
 21  5  1  0
 28 23  1  0
 18 12  2  0
  4 29  1  0
  4 30  1  0
  6 31  1  0
  8 32  1  0
  8 33  1  0
 13 34  1  0
 14 35  1  0
 19 36  1  0
 20 37  1  0
 24 38  1  0
 25 39  1  0
 26 40  1  0
 27 41  1  0
 28 42  1  0
M  CHG  4   3  -1   9  -1  17  -1  22  -1
M  END
>  <UniqueID>  (43) 
42

>  <SMILES>  (43) 
O=C([N-]Cc1cc(C[N-]C(=O)c2ccc(=O)[n-]n2)ccc1[O-])c1ccccc1

>  <Energy>  (43) 
48.19204277560066

>  <Genealogy>  (43) 
O=C([N-]Cc1cc(C[N-]C(=O)c2ccc(=O)[n-]n2)ccc1[O-])c1ccccc1 (protonated)
O=C([N-]Cc1cc(C[N-]C(=O)c2ccc(=O)[n-]n2)ccc1[O-])c1ccccc1 (3D coordinates assigned)
O=C([N-]Cc1cc(C[N-]C(=O)c2ccc(=O)[n-]n2)ccc1[O-])c1ccccc1 (optimized conformer: 48.19204277560066 kcal/mol)

>  <smiles>  (43) 
O=C(NCc1cc(CNC(=O)c2ccc(=O)[nH]n2)ccc1O)c1ccccc1

>  <score_type>  (43) 
oracle

>  <origin>  (43) 
adg

>  <m_score__min__energy>  (43) 
-15.52

>  <m_primary>  (43) 
energy

$$$$
43:0
     RDKit          3D

 39 41  0  0  0  0  0  0  0  0999 V2000
   56.6880   29.4210   42.7590 O   0  0  0  0  0  0  0  0  0  0  0  0
   56.9570   29.6820   43.9600 C   0  0  0  0  0  0  0  0  0  0  0  0
   56.4440   30.8960   44.5300 N   0  0  0  0  0  0  0  0  0  0  0  0
   57.1560   31.9500   44.8060 C   0  0  0  0  0  0  0  0  0  0  0  0
   57.0400   32.5770   46.0130 N   0  0  0  0  0  0  0  0  0  0  0  0
   57.7610   33.6900   46.3200 C   0  0  0  0  0  0  0  0  0  0  0  0
   58.6480   34.2250   45.3870 C   0  0  0  0  0  0  0  0  0  0  0  0
   58.7860   33.6090   44.1420 C   0  0  0  0  0  0  0  0  0  0  0  0
   58.0350   32.4650   43.8410 C   0  0  0  0  0  0  0  0  0  0  0  0
   58.1650   31.8400   42.5990 O   0  0  0  0  0  0  0  0  0  0  0  0
   57.8380   28.7700   44.7300 C   0  0  0  0  0  0  0  0  0  0  0  0
   59.2330   28.9530   44.7340 C   0  0  0  0  0  0  0  0  0  0  0  0
   60.0580   28.0750   45.4370 C   0  0  0  0  0  0  0  0  0  0  0  0
   59.5060   27.0030   46.1420 C   0  0  0  0  0  0  0  0  0  0  0  0
   58.1130   26.8080   46.1570 C   0  0  0  0  0  0  0  0  0  0  0  0
   57.5020   25.7280   46.8770 N   0  0  0  0  0  0  0  0  0  0  0  0
   56.0580   24.8950   46.4020 S   0  0  0  0  0  0  0  0  0  0  0  0
   55.5210   24.1320   47.5800 O   0  0  0  0  0  0  0  0  0  0  0  0
   55.0220   25.8950   45.9700 O   0  0  0  0  0  0  0  0  0  0  0  0
   56.4160   23.7580   45.1050 C   0  0  0  0  0  0  0  0  0  0  0  0
   55.6150   23.7100   43.9540 C   0  0  0  0  0  0  0  0  0  0  0  0
   55.9130   22.8060   42.9300 C   0  0  0  0  0  0  0  0  0  0  0  0
   57.0060   21.9430   43.0530 C   0  0  0  0  0  0  0  0  0  0  0  0
   57.8050   21.9860   44.1990 C   0  0  0  0  0  0  0  0  0  0  0  0
   57.5130   22.8930   45.2230 C   0  0  0  0  0  0  0  0  0  0  0  0
   57.2900   27.6870   45.4420 C   0  0  0  0  0  0  0  0  0  0  0  0
   57.6438   34.1672   47.3041 H   0  0  0  0  0  0  0  0  0  0  0  0
   59.2336   35.1240   45.6296 H   0  0  0  0  0  0  0  0  0  0  0  0
   59.4835   34.0212   43.3980 H   0  0  0  0  0  0  0  0  0  0  0  0
   58.1110   30.8310   42.5060 H   0  0  0  0  0  0  0  0  0  0  0  0
   59.6757   29.7935   44.1794 H   0  0  0  0  0  0  0  0  0  0  0  0
   61.1474   28.2274   45.4362 H   0  0  0  0  0  0  0  0  0  0  0  0
   60.1627   26.3091   46.6872 H   0  0  0  0  0  0  0  0  0  0  0  0
   54.7515   24.3845   43.8572 H   0  0  0  0  0  0  0  0  0  0  0  0
   55.2866   22.7737   42.0263 H   0  0  0  0  0  0  0  0  0  0  0  0
   57.2372   21.2301   42.2478 H   0  0  0  0  0  0  0  0  0  0  0  0
   58.6642   21.3060   44.2957 H   0  0  0  0  0  0  0  0  0  0  0  0
   58.1452   22.9277   46.1225 H   0  0  0  0  0  0  0  0  0  0  0  0
   56.2014   27.5288   45.4369 H   0  0  0  0  0  0  0  0  0  0  0  0
  1  2  2  0
  2  3  1  0
  3  4  2  3
  4  5  1  0
  5  6  1  0
  6  7  2  0
  7  8  1  0
  8  9  2  0
  9 10  1  0
  2 11  1  0
 11 12  2  0
 12 13  1  0
 13 14  2  0
 14 15  1  0
 15 16  1  0
 16 17  1  0
 17 18  2  0
 17 19  2  0
 17 20  1  0
 20 21  2  0
 21 22  1  0
 22 23  2  0
 23 24  1  0
 24 25  2  0
 15 26  2  0
  9  4  1  0
 26 11  1  0
 25 20  1  0
  6 27  1  0
  7 28  1  0
  8 29  1  0
 10 30  1  0
 12 31  1  0
 13 32  1  0
 14 33  1  0
 21 34  1  0
 22 35  1  0
 23 36  1  0
 24 37  1  0
 25 38  1  0
 26 39  1  0
M  CHG  2   5  -1  16  -1
M  END
>  <UniqueID>  (44) 
43

>  <SMILES>  (44) 
O=C(N=c1[n-]cccc1O)c1cccc([N-]S(=O)(=O)c2ccccc2)c1

>  <Energy>  (44) 
54.17920881813959

>  <Genealogy>  (44) 
O=C(N=c1[n-]cccc1O)c1cccc([N-]S(=O)(=O)c2ccccc2)c1 (protonated)
O=C(N=c1[n-]cccc1O)c1cccc([N-]S(=O)(=O)c2ccccc2)c1 (3D coordinates assigned)
O=C(N=c1[n-]cccc1O)c1cccc([N-]S(=O)(=O)c2ccccc2)c1 (optimized conformer: 54.17920881813959 kcal/mol)

>  <smiles>  (44) 
O=C(N=c1[nH]cccc1O)c1cccc(NS(=O)(=O)c2ccccc2)c1

>  <score_type>  (44) 
oracle

>  <origin>  (44) 
adg

>  <m_score__min__energy>  (44) 
-12.369999999999999

>  <m_primary>  (44) 
energy

$$$$
44:0
     RDKit          3D

 38 38  0  0  0  0  0  0  0  0999 V2000
   55.7642   28.6131   43.7899 H   0  0  0  0  0  0  0  0  0  0  0  0
   56.3660   28.9340   44.6530 C   0  0  0  0  0  0  0  0  0  0  0  0
   56.3780   30.1840   44.9980 N   0  0  0  0  0  0  0  0  0  0  0  0
   56.7750   31.2500   44.0870 C   0  0  0  0  0  0  0  0  0  0  0  0
   55.8830   31.6448   43.5786 H   0  0  0  0  0  0  0  0  0  0  0  0
   57.4805   30.8457   43.3462 H   0  0  0  0  0  0  0  0  0  0  0  0
   57.4570   32.3800   44.8630 C   0  0  0  0  0  0  0  0  0  0  0  0
   56.6895   32.9205   45.4363 H   0  0  0  0  0  0  0  0  0  0  0  0
   57.9572   33.0226   44.1235 H   0  0  0  0  0  0  0  0  0  0  0  0
   58.5410   31.8900   45.8420 C   0  0  0  0  0  0  0  0  0  0  0  0
   59.3639   31.4417   45.2659 H   0  0  0  0  0  0  0  0  0  0  0  0
   58.0819   31.1532   46.5175 H   0  0  0  0  0  0  0  0  0  0  0  0
   59.0840   33.0010   46.6720 N   0  0  0  0  0  0  0  0  0  0  0  0
   58.5450   34.3200   46.2550 C   0  0  0  0  0  0  0  0  0  0  0  0
   58.1192   34.8222   47.1362 H   0  0  0  0  0  0  0  0  0  0  0  0
   57.7808   34.1415   45.4842 H   0  0  0  0  0  0  0  0  0  0  0  0
   59.6180   35.2220   45.6470 C   0  0  0  0  0  0  0  0  0  0  0  0
   60.1914   35.7040   46.4525 H   0  0  0  0  0  0  0  0  0  0  0  0
   60.2955   34.6182   45.0254 H   0  0  0  0  0  0  0  0  0  0  0  0
   59.1396   35.9932   45.0254 H   0  0  0  0  0  0  0  0  0  0  0  0
   58.7910   32.7840   48.1090 C   0  0  0  0  0  0  0  0  0  0  0  0
   57.7309   33.0095   48.2968 H   0  0  0  0  0  0  0  0  0  0  0  0
   59.0147   31.7355   48.3550 H   0  0  0  0  0  0  0  0  0  0  0  0
   59.6550   33.6820   48.9920 C   0  0  0  0  0  0  0  0  0  0  0  0
   59.4467   33.4655   50.0502 H   0  0  0  0  0  0  0  0  0  0  0  0
   60.7175   33.4909   48.7809 H   0  0  0  0  0  0  0  0  0  0  0  0
   59.4231   34.7363   48.7809 H   0  0  0  0  0  0  0  0  0  0  0  0
   57.1530   27.9360   45.4080 C   0  0  0  0  0  0  0  0  0  0  0  0
   58.5550   28.0480   45.5070 C   0  0  0  0  0  0  0  0  0  0  0  0
   59.0727   28.8826   45.0117 H   0  0  0  0  0  0  0  0  0  0  0  0
   59.2910   27.1060   46.2300 C   0  0  0  0  0  0  0  0  0  0  0  0
   60.3845   27.2014   46.3014 H   0  0  0  0  0  0  0  0  0  0  0  0
   58.6420   26.0440   46.8620 C   0  0  0  0  0  0  0  0  0  0  0  0
   59.2240   25.3033   47.4301 H   0  0  0  0  0  0  0  0  0  0  0  0
   57.2540   25.9220   46.7730 C   0  0  0  0  0  0  0  0  0  0  0  0
   56.7450   25.0841   47.2718 H   0  0  0  0  0  0  0  0  0  0  0  0
   56.5070   26.8610   46.0520 C   0  0  0  0  0  0  0  0  0  0  0  0
   55.1250   26.7160   45.9810 O   0  0  0  0  0  0  0  0  0  0  0  0
  1  2  1  0
  2  3  2  0
  3  4  1  0
  4  5  1  0
  4  6  1  0
  4  7  1  0
  7  8  1  0
  7  9  1  0
  7 10  1  0
 10 11  1  0
 10 12  1  0
 10 13  1  0
 13 14  1  0
 14 15  1  0
 14 16  1  0
 14 17  1  0
 17 18  1  0
 17 19  1  0
 17 20  1  0
 13 21  1  0
 21 22  1  0
 21 23  1  0
 21 24  1  0
 24 25  1  0
 24 26  1  0
 24 27  1  0
  2 28  1  0
 28 29  2  0
 29 30  1  0
 29 31  1  0
 31 32  1  0
 31 33  2  0
 33 34  1  0
 33 35  1  0
 35 36  1  0
 35 37  2  0
 37 38  1  0
 37 28  1  0
M  CHG  1  38  -1
M  END
>  <UniqueID>  (45) 
44

>  <SMILES>  (45) 
CCN(CC)CCC/N=C/c1ccccc1[O-]

>  <Energy>  (45) 
29.742895564886823

>  <Genealogy>  (45) 
CCN(CC)CCCN=Cc1ccccc1[O-] (protonated)
CCN(CC)CCC/N=C/c1ccccc1[O-] (cis-trans isomerization)
CCN(CC)CCC/N=C/c1ccccc1[O-] (3D coordinates assigned)
CCN(CC)CCC/N=C/c1ccccc1[O-] (optimized conformer: 29.742895564886823 kcal/mol)

>  <smiles>  (45) 
CCN(CC)CCCN=Cc1ccccc1O

>  <score_type>  (45) 
oracle

>  <origin>  (45) 
adg

>  <m_score__min__energy>  (45) 
-9.9600000000000009

>  <m_primary>  (45) 
energy

$$$$
45:0
     RDKit          3D

 43 45  0  0  1  0  0  0  0  0999 V2000
   58.4580   33.8410   44.9320 C   0  0  0  0  0  0  0  0  0  0  0  0
   59.3370   33.9590   46.1360 C   0  0  0  0  0  0  0  0  0  0  0  0
   58.8380   34.2500   47.3880 C   0  0  0  0  0  0  0  0  0  0  0  0
   59.6610   34.3590   48.5080 C   0  0  0  0  0  0  0  0  0  0  0  0
   61.0260   34.1640   48.3400 C   0  0  0  0  0  0  0  0  0  0  0  0
   61.5270   33.8710   47.0860 C   0  0  0  0  0  0  0  0  0  0  0  0
   63.0050   33.6590   46.8960 C   0  0  0  0  0  0  0  0  0  0  0  0
   63.3370   32.3390   47.3840 N   0  0  0  0  0  0  0  0  0  0  0  0
   62.4640   31.5310   47.8360 C   0  0  0  0  0  0  0  0  0  0  0  0
   62.3600   31.2690   49.1850 C   0  0  0  0  0  0  0  0  0  0  0  0
   61.3830   30.3790   49.5810 C   0  0  0  0  0  0  0  0  0  0  0  0
   60.5830   29.8100   48.6490 N   0  0  0  0  0  0  0  0  0  0  0  0
   60.6920   30.0710   47.3360 C   0  0  0  0  0  0  0  0  0  0  0  0
   59.8420   29.4700   46.3170 C   0  0  0  0  0  0  0  0  0  0  0  0
   60.1730   28.2370   45.7440 C   0  0  0  0  0  0  0  0  0  0  0  0
   59.4190   27.6280   44.7910 C   0  0  0  0  0  0  0  0  0  0  0  0
   58.2670   28.2200   44.3380 C   0  0  0  0  0  0  0  0  0  0  0  0
   57.9120   29.4390   44.8830 C   0  0  0  0  0  0  0  0  0  0  0  0
   56.4300   30.1630   44.2750 S   0  0  0  0  0  0  0  0  0  0  0  0
   56.4470   29.9990   42.5580 N   0  0  0  0  0  0  0  0  0  0  0  0
   56.3180   31.5870   44.7250 O   0  0  0  0  0  0  0  0  0  0  0  0
   55.2950   29.3170   44.7980 O   0  0  0  0  0  0  0  0  0  0  0  0
   58.6830   30.0490   45.8500 C   0  0  0  0  0  0  0  0  0  0  0  0
   61.6410   30.9360   46.9540 N   0  0  0  0  0  0  0  0  0  0  0  0
   60.6950   33.7690   45.9920 C   0  0  0  0  0  0  0  0  0  0  0  0
   57.4149   33.7010   45.2519 H   0  0  0  0  0  0  0  0  0  0  0  0
   58.5368   34.7578   44.3292 H   0  0  0  0  0  0  0  0  0  0  0  0
   58.7758   32.9775   44.3292 H   0  0  0  0  0  0  0  0  0  0  0  0
   57.7550   34.4011   47.5070 H   0  0  0  0  0  0  0  0  0  0  0  0
   59.2410   34.5930   49.4974 H   0  0  0  0  0  0  0  0  0  0  0  0
   61.7053   34.2425   49.2016 H   0  0  0  0  0  0  0  0  0  0  0  0
   63.2583   33.7362   45.8284 H   0  0  0  0  0  0  0  0  0  0  0  0
   63.5730   34.4227   47.4475 H   0  0  0  0  0  0  0  0  0  0  0  0
   63.0279   31.7493   49.9153 H   0  0  0  0  0  0  0  0  0  0  0  0
   61.2551   30.1337   50.6457 H   0  0  0  0  0  0  0  0  0  0  0  0
   59.8560   29.1420   48.9850 H   0  0  0  0  0  0  0  0  0  0  0  0
   61.0911   27.7345   46.0824 H   0  0  0  0  0  0  0  0  0  0  0  0
   59.7336   26.6568   44.3813 H   0  0  0  0  0  0  0  0  0  0  0  0
   57.6468   27.7401   43.5666 H   0  0  0  0  0  0  0  0  0  0  0  0
   55.6280   29.4620   42.2460 H   0  0  0  0  0  0  0  0  0  0  0  0
   57.3270   29.5760   42.2150 H   0  0  0  0  0  0  0  0  0  0  0  0
   58.3651   31.0200   46.2576 H   0  0  0  0  0  0  0  0  0  0  0  0
   61.1150   33.5357   45.0025 H   0  0  0  0  0  0  0  0  0  0  0  0
  1  2  1  0
  2  3  2  0
  3  4  1  0
  4  5  2  0
  5  6  1  0
  6  7  1  0
  7  8  1  0
  8  9  2  0
  9 10  1  0
 10 11  2  0
 11 12  1  0
 12 13  1  0
 13 14  1  0
 14 15  2  0
 15 16  1  0
 16 17  2  0
 17 18  1  0
 18 19  1  0
 19 20  1  0
 19 21  2  0
 19 22  2  0
 18 23  2  0
 13 24  2  0
  6 25  2  0
 25  2  1  0
 24  9  1  0
 23 14  1  0
  1 26  1  0
  1 27  1  0
  1 28  1  0
  3 29  1  0
  4 30  1  0
  5 31  1  0
  7 32  1  0
  7 33  1  0
 10 34  1  0
 11 35  1  0
 12 36  1  0
 15 37  1  0
 16 38  1  0
 17 39  1  0
 20 40  1  0
 20 41  1  0
 23 42  1  0
 25 43  1  0
M  END
>  <smiles>  (46) 
Cc1cccc(CN=c2cc[nH]c(-c3cccc(S(N)(=O)=O)c3)n2)c1

>  <score_type>  (46) 
oracle

>  <origin>  (46) 
adg

>  <m_score__min__energy>  (46) 
-9.75

>  <m_primary>  (46) 
energy

$$$$
46:0
     RDKit          3D

 20 21  0  0  0  0  0  0  0  0999 V2000
   52.8290   28.1510   52.8050 O   0  0  0  0  0  0  0  0  0  0  0  0
   53.2340   29.3330   52.6490 C   0  0  0  0  0  0  0  0  0  0  0  0
   54.3900   29.7660   53.3810 N   0  0  0  0  0  0  0  0  0  0  0  0
   55.4840   30.2380   52.8590 C   0  0  0  0  0  0  0  0  0  0  0  0
   55.4810   31.2390   51.9530 N   0  0  0  0  0  0  0  0  0  0  0  0
   56.7360   31.6020   51.5770 C   0  0  0  0  0  0  0  0  0  0  0  0
   57.7590   30.8900   52.1960 C   0  0  0  0  0  0  0  0  0  0  0  0
   57.0600   29.7750   53.2490 S   0  0  0  0  0  0  0  0  0  0  0  0
   52.4670   30.2660   51.7950 C   0  0  0  0  0  0  0  0  0  0  0  0
   52.1250   29.9260   50.4780 C   0  0  0  0  0  0  0  0  0  0  0  0
   51.3880   30.8390   49.7220 C   0  0  0  0  0  0  0  0  0  0  0  0
   51.0700   30.5670   48.5350 O   0  0  0  0  0  0  0  0  0  0  0  0
   51.0120   32.0240   50.2680 N   0  0  0  0  0  0  0  0  0  0  0  0
   51.3430   32.3390   51.5470 C   0  0  0  0  0  0  0  0  0  0  0  0
   50.9850   33.4410   52.0360 O   0  0  0  0  0  0  0  0  0  0  0  0
   52.0600   31.4640   52.2980 N   0  0  0  0  0  0  0  0  0  0  0  0
   54.6150   31.6890   51.5810 H   0  0  0  0  0  0  0  0  0  0  0  0
   56.9279   32.3966   50.8409 H   0  0  0  0  0  0  0  0  0  0  0  0
   58.8369   31.0305   52.0273 H   0  0  0  0  0  0  0  0  0  0  0  0
   52.4312   28.9601   50.0498 H   0  0  0  0  0  0  0  0  0  0  0  0
  1  2  2  0
  2  3  1  0
  3  4  2  3
  4  5  1  0
  5  6  1  0
  6  7  2  0
  7  8  1  0
  2  9  1  0
  9 10  2  0
 10 11  1  0
 11 12  2  0
 11 13  1  0
 13 14  1  0
 14 15  2  0
 14 16  1  0
  8  4  1  0
 16  9  1  0
  5 17  1  0
  6 18  1  0
  7 19  1  0
 10 20  1  0
M  CHG  2  13  -1  16  -1
M  END
>  <UniqueID>  (47) 
45

>  <SMILES>  (47) 
O=C(N=c1[nH]ccs1)c1cc(=O)[n-]c(=O)[n-]1

>  <Energy>  (47) 
59.35332557186074

>  <Genealogy>  (47) 
O=C(N=c1[nH]ccs1)c1cc(=O)[n-]c(=O)[n-]1 (protonated)
O=C(N=c1[nH]ccs1)c1cc(=O)[n-]c(=O)[n-]1 (3D coordinates assigned)
O=C(N=c1[nH]ccs1)c1cc(=O)[n-]c(=O)[n-]1 (optimized conformer: 59.35332557186074 kcal/mol)

>  <smiles>  (47) 
O=C(N=c1[nH]ccs1)c1cc(=O)[nH]c(=O)[nH]1

>  <score_type>  (47) 
oracle

>  <origin>  (47) 
adg

>  <m_score__min__energy>  (47) 
-10.6

>  <m_primary>  (47) 
energy

$$$$
47:0
     RDKit          3D

 47 49  0  0  0  0  0  0  0  0999 V2000
   54.4850   23.6510   43.7060 C   0  0  0  0  0  0  0  0  0  0  0  0
   53.6100   23.7030   45.2560 S   0  0  0  0  0  0  0  0  0  0  0  0
   52.6240   24.8350   45.2110 O   0  0  0  0  0  0  0  0  0  0  0  0
   52.8610   22.4180   45.4800 O   0  0  0  0  0  0  0  0  0  0  0  0
   54.7150   23.9820   46.5630 N   0  0  0  0  0  0  0  0  0  0  0  0
   55.9730   24.6680   46.4700 C   0  0  0  0  0  0  0  0  0  0  0  0
   57.2000   24.0090   46.6670 C   0  0  0  0  0  0  0  0  0  0  0  0
   58.4040   24.7090   46.5470 C   0  0  0  0  0  0  0  0  0  0  0  0
   58.4000   26.0850   46.2550 C   0  0  0  0  0  0  0  0  0  0  0  0
   59.5870   26.8190   46.1060 O   0  0  0  0  0  0  0  0  0  0  0  0
   59.8340   28.0930   46.6420 C   0  0  0  0  0  0  0  0  0  0  0  0
   60.3540   28.2510   47.9400 C   0  0  0  0  0  0  0  0  0  0  0  0
   60.5730   29.5270   48.4640 C   0  0  0  0  0  0  0  0  0  0  0  0
   60.2650   30.6570   47.7050 C   0  0  0  0  0  0  0  0  0  0  0  0
   59.7300   30.5130   46.4230 C   0  0  0  0  0  0  0  0  0  0  0  0
   59.5080   29.2340   45.8830 C   0  0  0  0  0  0  0  0  0  0  0  0
   58.9030   29.0920   44.5090 C   0  0  0  0  0  0  0  0  0  0  0  0
   58.1690   30.2990   44.1490 N   0  0  0  0  0  0  0  0  0  0  0  0
   56.9260   30.6750   44.7490 C   0  0  0  0  0  0  0  0  0  0  0  0
   56.0130   29.8150   44.8510 O   0  0  0  0  0  0  0  0  0  0  0  0
   56.7150   32.0290   45.1730 N   0  0  0  0  0  0  0  0  0  0  0  0
   57.7130   33.0150   45.4760 C   0  0  0  0  0  0  0  0  0  0  0  0
   58.2050   33.9150   44.5090 C   0  0  0  0  0  0  0  0  0  0  0  0
   59.1590   34.8760   44.8640 C   0  0  0  0  0  0  0  0  0  0  0  0
   59.6150   34.9590   46.1830 C   0  0  0  0  0  0  0  0  0  0  0  0
   59.1070   34.0920   47.1540 C   0  0  0  0  0  0  0  0  0  0  0  0
   59.6550   34.2170   48.8160 Cl  0  0  0  0  0  0  0  0  0  0  0  0
   58.1550   33.1280   46.8010 C   0  0  0  0  0  0  0  0  0  0  0  0
   57.1800   26.7380   46.0600 C   0  0  0  0  0  0  0  0  0  0  0  0
   55.9730   26.0380   46.1710 C   0  0  0  0  0  0  0  0  0  0  0  0
   54.7710   26.7140   45.9900 O   0  0  0  0  0  0  0  0  0  0  0  0
   55.5663   23.5867   43.8973 H   0  0  0  0  0  0  0  0  0  0  0  0
   54.1613   22.7705   43.1316 H   0  0  0  0  0  0  0  0  0  0  0  0
   54.2679   24.5636   43.1316 H   0  0  0  0  0  0  0  0  0  0  0  0
   57.2121   22.9378   46.9167 H   0  0  0  0  0  0  0  0  0  0  0  0
   59.3596   24.1810   46.6816 H   0  0  0  0  0  0  0  0  0  0  0  0
   60.5896   27.3637   48.5460 H   0  0  0  0  0  0  0  0  0  0  0  0
   60.9887   29.6415   49.4760 H   0  0  0  0  0  0  0  0  0  0  0  0
   60.4437   31.6613   48.1166 H   0  0  0  0  0  0  0  0  0  0  0  0
   59.4806   31.4064   45.8317 H   0  0  0  0  0  0  0  0  0  0  0  0
   59.7052   28.9235   43.7755 H   0  0  0  0  0  0  0  0  0  0  0  0
   58.2078   28.2395   44.5119 H   0  0  0  0  0  0  0  0  0  0  0  0
   57.8385   33.8620   43.4732 H   0  0  0  0  0  0  0  0  0  0  0  0
   59.5508   35.5674   44.1034 H   0  0  0  0  0  0  0  0  0  0  0  0
   60.3738   35.7069   46.4565 H   0  0  0  0  0  0  0  0  0  0  0  0
   57.7506   32.4536   47.5702 H   0  0  0  0  0  0  0  0  0  0  0  0
   57.1681   27.8108   45.8173 H   0  0  0  0  0  0  0  0  0  0  0  0
  1  2  1  0
  2  3  2  0
  2  4  2  0
  2  5  1  0
  5  6  1  0
  6  7  2  0
  7  8  1  0
  8  9  2  0
  9 10  1  0
 10 11  1  0
 11 12  2  0
 12 13  1  0
 13 14  2  0
 14 15  1  0
 15 16  2  0
 16 17  1  0
 17 18  1  0
 18 19  1  0
 19 20  2  0
 19 21  1  0
 21 22  1  0
 22 23  2  0
 23 24  1  0
 24 25  2  0
 25 26  1  0
 26 27  1  0
 26 28  2  0
  9 29  1  0
 29 30  2  0
 30 31  1  0
 30  6  1  0
 16 11  1  0
 28 22  1  0
  1 32  1  0
  1 33  1  0
  1 34  1  0
  7 35  1  0
  8 36  1  0
 12 37  1  0
 13 38  1  0
 14 39  1  0
 15 40  1  0
 17 41  1  0
 17 42  1  0
 23 43  1  0
 24 44  1  0
 25 45  1  0
 28 46  1  0
 29 47  1  0
M  CHG  4   5  -1  18  -1  21  -1  31  -1
M  END
>  <UniqueID>  (48) 
46

>  <SMILES>  (48) 
CS(=O)(=O)[N-]c1ccc(Oc2ccccc2C[N-]C(=O)[N-]c2cccc(Cl)c2)cc1[O-]

>  <Energy>  (48) 
55.97315025691021

>  <Genealogy>  (48) 
CS(=O)(=O)[N-]c1ccc(Oc2ccccc2C[N-]C(=O)[N-]c2cccc(Cl)c2)cc1[O-] (protonated)
CS(=O)(=O)[N-]c1ccc(Oc2ccccc2C[N-]C(=O)[N-]c2cccc(Cl)c2)cc1[O-] (3D coordinates assigned)
CS(=O)(=O)[N-]c1ccc(Oc2ccccc2C[N-]C(=O)[N-]c2cccc(Cl)c2)cc1[O-] (optimized conformer: 55.97315025691021 kcal/mol)

>  <smiles>  (48) 
CS(=O)(=O)Nc1ccc(Oc2ccccc2CNC(=O)Nc2cccc(Cl)c2)cc1O

>  <score_type>  (48) 
oracle

>  <origin>  (48) 
adg

>  <m_score__min__energy>  (48) 
-17.300000000000001

>  <m_primary>  (48) 
energy

$$$$
48:0
     RDKit          3D

 43 45  0  0  0  0  0  0  0  0999 V2000
   56.1860   28.5580   45.2050 N   0  0  0  0  0  0  0  0  0  0  0  0
   56.4810   30.0700   44.4170 S   0  0  0  0  0  0  0  0  0  0  0  0
   56.8350   29.7950   42.9810 O   0  0  0  0  0  0  0  0  0  0  0  0
   55.2330   30.9050   44.4750 O   0  0  0  0  0  0  0  0  0  0  0  0
   57.8070   30.9290   45.2190 C   0  0  0  0  0  0  0  0  0  0  0  0
   57.8420   32.3310   45.1530 C   0  0  0  0  0  0  0  0  0  0  0  0
   58.8430   33.0490   45.8100 C   0  0  0  0  0  0  0  0  0  0  0  0
   59.8220   32.3770   46.5400 C   0  0  0  0  0  0  0  0  0  0  0  0
   59.8110   30.9830   46.6060 C   0  0  0  0  0  0  0  0  0  0  0  0
   58.8180   30.2450   45.9410 C   0  0  0  0  0  0  0  0  0  0  0  0
   58.8670   28.7720   46.0150 C   0  0  0  0  0  0  0  0  0  0  0  0
   58.9640   28.0070   44.8450 C   0  0  0  0  0  0  0  0  0  0  0  0
   58.9910   26.6110   44.9180 C   0  0  0  0  0  0  0  0  0  0  0  0
   58.9080   25.9660   46.1560 C   0  0  0  0  0  0  0  0  0  0  0  0
   58.9090   24.5330   46.1920 N   0  0  0  0  0  0  0  0  0  0  0  0
   57.7450   23.7000   46.1520 C   0  0  0  0  0  0  0  0  0  0  0  0
   57.4660   23.0000   47.1610 O   0  0  0  0  0  0  0  0  0  0  0  0
   56.9420   23.5530   44.9150 C   0  0  0  0  0  0  0  0  0  0  0  0
   55.7100   24.0230   44.7220 C   0  0  0  0  0  0  0  0  0  0  0  0
   54.9600   24.9340   45.6130 C   0  0  0  0  0  0  0  0  0  0  0  0
   54.0490   24.5070   46.3700 O   0  0  0  0  0  0  0  0  0  0  0  0
   55.2980   26.2810   45.6590 O   0  0  0  0  0  0  0  0  0  0  0  0
   55.1500   23.5850   43.4130 C   0  0  0  0  0  0  0  0  0  0  0  0
   56.1960   22.6270   42.8430 C   0  0  0  0  0  0  0  0  0  0  0  0
   57.4160   22.7460   43.7570 C   0  0  0  0  0  0  0  0  0  0  0  0
   58.8640   26.7340   47.3360 C   0  0  0  0  0  0  0  0  0  0  0  0
   58.8740   26.1400   48.5550 F   0  0  0  0  0  0  0  0  0  0  0  0
   58.8400   28.1300   47.2610 C   0  0  0  0  0  0  0  0  0  0  0  0
   55.1500   28.4430   45.2680 H   0  0  0  0  0  0  0  0  0  0  0  0
   56.5340   27.8070   44.5650 H   0  0  0  0  0  0  0  0  0  0  0  0
   57.0736   32.8688   44.5783 H   0  0  0  0  0  0  0  0  0  0  0  0
   58.8591   34.1473   45.7514 H   0  0  0  0  0  0  0  0  0  0  0  0
   60.6039   32.9459   47.0645 H   0  0  0  0  0  0  0  0  0  0  0  0
   60.5862   30.4580   47.1834 H   0  0  0  0  0  0  0  0  0  0  0  0
   59.0191   28.5062   43.8663 H   0  0  0  0  0  0  0  0  0  0  0  0
   59.0780   26.0167   43.9964 H   0  0  0  0  0  0  0  0  0  0  0  0
   54.1888   23.0694   43.5555 H   0  0  0  0  0  0  0  0  0  0  0  0
   54.9528   24.4329   42.7406 H   0  0  0  0  0  0  0  0  0  0  0  0
   55.8133   21.5957   42.8481 H   0  0  0  0  0  0  0  0  0  0  0  0
   56.4463   22.8759   41.8012 H   0  0  0  0  0  0  0  0  0  0  0  0
   57.7514   21.7520   44.0880 H   0  0  0  0  0  0  0  0  0  0  0  0
   58.2737   23.2106   43.2486 H   0  0  0  0  0  0  0  0  0  0  0  0
   58.7998   28.7272   48.1839 H   0  0  0  0  0  0  0  0  0  0  0  0
  1  2  1  0
  2  3  2  0
  2  4  2  0
  2  5  1  0
  5  6  2  0
  6  7  1  0
  7  8  2  0
  8  9  1  0
  9 10  2  0
 10 11  1  0
 11 12  2  0
 12 13  1  0
 13 14  2  0
 14 15  1  0
 15 16  1  0
 16 17  2  0
 16 18  1  0
 18 19  2  0
 19 20  1  0
 20 21  2  0
 20 22  1  0
 19 23  1  0
 23 24  1  0
 24 25  1  0
 14 26  1  0
 26 27  1  0
 26 28  2  0
 10  5  1  0
 28 11  1  0
 25 18  1  0
  1 29  1  0
  1 30  1  0
  6 31  1  0
  7 32  1  0
  8 33  1  0
  9 34  1  0
 12 35  1  0
 13 36  1  0
 23 37  1  0
 23 38  1  0
 24 39  1  0
 24 40  1  0
 25 41  1  0
 25 42  1  0
 28 43  1  0
M  CHG  2  15  -1  22  -1
M  END
>  <UniqueID>  (49) 
47

>  <SMILES>  (49) 
NS(=O)(=O)c1ccccc1-c1ccc([N-]C(=O)C2=C(C(=O)[O-])CCC2)c(F)c1

>  <Energy>  (49) 
65.88014276356081

>  <Genealogy>  (49) 
NS(=O)(=O)c1ccccc1-c1ccc([N-]C(=O)C2=C(C(=O)[O-])CCC2)c(F)c1 (protonated)
NS(=O)(=O)c1ccccc1-c1ccc([N-]C(=O)C2=C(C(=O)[O-])CCC2)c(F)c1 (3D coordinates assigned)
NS(=O)(=O)c1ccccc1-c1ccc([N-]C(=O)C2=C(C(=O)[O-])CCC2)c(F)c1 (nonaromatic ring conformer: 65.88014276356081 kcal/mol)

>  <smiles>  (49) 
NS(=O)(=O)c1ccccc1-c1ccc(NC(=O)C2=C(C(=O)O)CCC2)c(F)c1

>  <score_type>  (49) 
oracle

>  <origin>  (49) 
adg

>  <m_score__min__energy>  (49) 
-13.869999999999999

>  <m_primary>  (49) 
energy

$$$$
49:0
     RDKit          3D

 28 29  0  0  0  0  0  0  0  0999 V2000
   54.0310   25.9540   45.7200 N   0  0  0  0  0  0  0  0  0  0  0  0
   55.7340   25.7010   45.8720 S   0  0  0  0  0  0  0  0  0  0  0  0
   56.0230   25.0670   47.2030 O   0  0  0  0  0  0  0  0  0  0  0  0
   56.2200   24.7900   44.7790 O   0  0  0  0  0  0  0  0  0  0  0  0
   56.5660   27.2190   45.7790 N   0  0  0  0  0  0  0  0  0  0  0  0
   57.8480   27.5050   46.3540 C   0  0  0  0  0  0  0  0  0  0  0  0
   58.7410   26.4670   46.6820 C   0  0  0  0  0  0  0  0  0  0  0  0
   60.0200   26.7570   47.1630 C   0  0  0  0  0  0  0  0  0  0  0  0
   60.4280   28.0810   47.3120 C   0  0  0  0  0  0  0  0  0  0  0  0
   59.5510   29.1210   46.9970 C   0  0  0  0  0  0  0  0  0  0  0  0
   58.2530   28.8490   46.5450 C   0  0  0  0  0  0  0  0  0  0  0  0
   57.3940   29.9690   46.2800 N   0  0  0  0  0  0  0  0  0  0  0  0
   57.4310   30.9770   44.8660 S   0  0  0  0  0  0  0  0  0  0  0  0
   56.0380   31.1270   44.3220 O   0  0  0  0  0  0  0  0  0  0  0  0
   58.3020   30.3310   43.8260 O   0  0  0  0  0  0  0  0  0  0  0  0
   58.1030   32.5520   45.2510 C   0  0  0  0  0  0  0  0  0  0  0  0
   58.5370   33.4930   44.3310 C   0  0  0  0  0  0  0  0  0  0  0  0
   59.0540   34.6460   44.9340 C   0  0  0  0  0  0  0  0  0  0  0  0
   59.0220   34.6120   46.3230 C   0  0  0  0  0  0  0  0  0  0  0  0
   58.3520   33.1440   46.8030 S   0  0  0  0  0  0  0  0  0  0  0  0
   53.7780   26.7230   46.3800 H   0  0  0  0  0  0  0  0  0  0  0  0
   58.4290   25.4194   46.5585 H   0  0  0  0  0  0  0  0  0  0  0  0
   60.7066   25.9384   47.4247 H   0  0  0  0  0  0  0  0  0  0  0  0
   61.4406   28.3069   47.6776 H   0  0  0  0  0  0  0  0  0  0  0  0
   59.8825   30.1643   47.1048 H   0  0  0  0  0  0  0  0  0  0  0  0
   58.4812   33.3493   43.2419 H   0  0  0  0  0  0  0  0  0  0  0  0
   59.4485   35.4988   44.3620 H   0  0  0  0  0  0  0  0  0  0  0  0
   59.3745   35.4087   46.9945 H   0  0  0  0  0  0  0  0  0  0  0  0
  1  2  1  0
  2  3  2  0
  2  4  2  0
  2  5  1  0
  5  6  1  0
  6  7  2  0
  7  8  1  0
  8  9  2  0
  9 10  1  0
 10 11  2  0
 11 12  1  0
 12 13  1  0
 13 14  2  0
 13 15  2  0
 13 16  1  0
 16 17  2  0
 17 18  1  0
 18 19  2  0
 19 20  1  0
 11  6  1  0
 20 16  1  0
  1 21  1  0
  7 22  1  0
  8 23  1  0
  9 24  1  0
 10 25  1  0
 17 26  1  0
 18 27  1  0
 19 28  1  0
M  CHG  3   1  -1   5  -1  12  -1
M  END
>  <UniqueID>  (50) 
48

>  <SMILES>  (50) 
[NH-]S(=O)(=O)[N-]c1ccccc1[N-]S(=O)(=O)c1cccs1

>  <Energy>  (50) 
61.78301505411203

>  <Genealogy>  (50) 
[NH-]S(=O)(=O)[N-]c1ccccc1[N-]S(=O)(=O)c1cccs1 (protonated)
[NH-]S(=O)(=O)[N-]c1ccccc1[N-]S(=O)(=O)c1cccs1 (3D coordinates assigned)
[NH-]S(=O)(=O)[N-]c1ccccc1[N-]S(=O)(=O)c1cccs1 (optimized conformer: 61.78301505411203 kcal/mol)

>  <smiles>  (50) 
NS(=O)(=O)Nc1ccccc1NS(=O)(=O)c1cccs1

>  <score_type>  (50) 
oracle

>  <origin>  (50) 
adg

>  <m_score__min__energy>  (50) 
-13.470000000000001

>  <m_primary>  (50) 
energy

$$$$
50:0
     RDKit          3D

 51 54  0  0  0  0  0  0  0  0999 V2000
   58.8050   34.6360   46.7570 C   0  0  0  0  0  0  0  0  0  0  0  0
   59.5060   34.7000   45.5500 C   0  0  0  0  0  0  0  0  0  0  0  0
   59.1810   33.8320   44.5040 C   0  0  0  0  0  0  0  0  0  0  0  0
   58.1560   32.8830   44.6600 C   0  0  0  0  0  0  0  0  0  0  0  0
   57.8000   31.9580   43.5280 C   0  0  0  0  0  0  0  0  0  0  0  0
   57.1800   30.7300   44.0320 N   0  0  0  0  0  0  0  0  0  0  0  0
   55.8560   30.5020   44.1520 C   0  0  0  0  0  0  0  0  0  0  0  0
   55.5800   29.2920   44.6830 N   0  0  0  0  0  0  0  0  0  0  0  0
   56.7890   28.7390   44.9040 C   0  0  0  0  0  0  0  0  0  0  0  0
   57.7750   29.6120   44.4980 C   0  0  0  0  0  0  0  0  0  0  0  0
   59.2550   29.3620   44.5800 C   0  0  0  0  0  0  0  0  0  0  0  0
   59.5750   28.4300   45.6730 N   0  0  0  0  0  0  0  0  0  0  0  0
   59.1310   28.9210   46.9900 C   0  0  0  0  0  0  0  0  0  0  0  0
   59.8510   30.1900   47.3540 C   0  0  0  0  0  0  0  0  0  0  0  0
   59.3170   31.0740   48.3040 C   0  0  0  0  0  0  0  0  0  0  0  0
   60.0370   32.2070   48.6960 C   0  0  0  0  0  0  0  0  0  0  0  0
   61.2970   32.4670   48.1460 C   0  0  0  0  0  0  0  0  0  0  0  0
   62.0150   33.5880   48.5880 O   0  0  0  0  0  0  0  0  0  0  0  0
   63.1500   33.5340   49.4100 C   0  0  0  0  0  0  0  0  0  0  0  0
   64.2710   32.8190   48.9700 C   0  0  0  0  0  0  0  0  0  0  0  0
   65.4210   32.7490   49.7640 C   0  0  0  0  0  0  0  0  0  0  0  0
   65.4600   33.4040   50.9990 C   0  0  0  0  0  0  0  0  0  0  0  0
   64.3540   34.1380   51.4360 C   0  0  0  0  0  0  0  0  0  0  0  0
   63.2050   34.2120   50.6430 C   0  0  0  0  0  0  0  0  0  0  0  0
   61.8010   31.6200   47.1450 C   0  0  0  0  0  0  0  0  0  0  0  0
   61.0810   30.4910   46.7530 C   0  0  0  0  0  0  0  0  0  0  0  0
   57.4510   32.8300   45.8750 C   0  0  0  0  0  0  0  0  0  0  0  0
   57.7750   33.7060   46.9170 C   0  0  0  0  0  0  0  0  0  0  0  0
   59.0640   35.3175   47.5807 H   0  0  0  0  0  0  0  0  0  0  0  0
   60.3148   35.4346   45.4229 H   0  0  0  0  0  0  0  0  0  0  0  0
   59.7306   33.8919   43.5530 H   0  0  0  0  0  0  0  0  0  0  0  0
   57.0949   32.4674   42.8547 H   0  0  0  0  0  0  0  0  0  0  0  0
   58.7210   31.6912   42.9890 H   0  0  0  0  0  0  0  0  0  0  0  0
   55.0838   31.2247   43.8495 H   0  0  0  0  0  0  0  0  0  0  0  0
   56.9620   27.7444   45.3410 H   0  0  0  0  0  0  0  0  0  0  0  0
   59.5999   28.9316   43.6283 H   0  0  0  0  0  0  0  0  0  0  0  0
   59.7606   30.3188   44.7774 H   0  0  0  0  0  0  0  0  0  0  0  0
   60.6180   28.3450   45.7110 H   0  0  0  0  0  0  0  0  0  0  0  0
   58.0490   29.1165   46.9566 H   0  0  0  0  0  0  0  0  0  0  0  0
   59.3572   28.1561   47.7475 H   0  0  0  0  0  0  0  0  0  0  0  0
   58.3279   30.8749   48.7422 H   0  0  0  0  0  0  0  0  0  0  0  0
   59.6110   32.8965   49.4397 H   0  0  0  0  0  0  0  0  0  0  0  0
   64.2473   32.3098   47.9952 H   0  0  0  0  0  0  0  0  0  0  0  0
   66.2949   32.1784   49.4166 H   0  0  0  0  0  0  0  0  0  0  0  0
   66.3613   33.3414   51.6265 H   0  0  0  0  0  0  0  0  0  0  0  0
   64.3875   34.6580   52.4048 H   0  0  0  0  0  0  0  0  0  0  0  0
   62.3411   34.8018   50.9833 H   0  0  0  0  0  0  0  0  0  0  0  0
   62.7661   31.8475   46.6688 H   0  0  0  0  0  0  0  0  0  0  0  0
   61.4811   29.8331   45.9675 H   0  0  0  0  0  0  0  0  0  0  0  0
   56.6415   32.0971   46.0072 H   0  0  0  0  0  0  0  0  0  0  0  0
   57.2174   33.6622   47.8642 H   0  0  0  0  0  0  0  0  0  0  0  0
  1  2  2  0
  2  3  1  0
  3  4  2  0
  4  5  1  0
  5  6  1  0
  6  7  1  0
  7  8  2  0
  8  9  1  0
  9 10  2  0
 10 11  1  0
 11 12  1  0
 12 13  1  0
 13 14  1  0
 14 15  2  0
 15 16  1  0
 16 17  2  0
 17 18  1  0
 18 19  1  0
 19 20  2  0
 20 21  1  0
 21 22  2  0
 22 23  1  0
 23 24  2  0
 17 25  1  0
 25 26  2  0
  4 27  1  0
 27 28  2  0
 28  1  1  0
 10  6  1  0
 26 14  1  0
 24 19  1  0
  1 29  1  0
  2 30  1  0
  3 31  1  0
  5 32  1  0
  5 33  1  0
  7 34  1  0
  9 35  1  0
 11 36  1  0
 11 37  1  0
 12 38  1  0
 13 39  1  0
 13 40  1  0
 15 41  1  0
 16 42  1  0
 20 43  1  0
 21 44  1  0
 22 45  1  0
 23 46  1  0
 24 47  1  0
 25 48  1  0
 26 49  1  0
 27 50  1  0
 28 51  1  0
M  END
>  <UniqueID>  (51) 
49

>  <SMILES>  (51) 
c1ccc(Cn2cncc2CNCc2ccc(Oc3ccccc3)cc2)cc1

>  <Energy>  (51) 
82.47663158224066

>  <Genealogy>  (51) 
c1ccc(Cn2cncc2CNCc2ccc(Oc3ccccc3)cc2)cc1 (3D coordinates assigned)
c1ccc(Cn2cncc2CNCc2ccc(Oc3ccccc3)cc2)cc1 (optimized conformer: 82.47663158224066 kcal/mol)

>  <smiles>  (51) 
c1ccc(Cn2cncc2CNCc2ccc(Oc3ccccc3)cc2)cc1

>  <score_type>  (51) 
oracle

>  <origin>  (51) 
adg

>  <m_score__min__energy>  (51) 
-8.3300000000000001

>  <m_primary>  (51) 
energy

$$$$
51:0
     RDKit          3D

 44 48  0  0  0  0  0  0  0  0999 V2000
   52.2143   31.6788   53.5391 H   0  0  0  0  0  0  0  0  0  0  0  0
   52.6370   31.0910   52.7110 C   0  0  0  0  0  0  0  0  0  0  0  0
   51.9640   31.1930   51.4020 C   0  0  0  0  0  0  0  0  0  0  0  0
   52.0350   30.2840   50.4120 N   0  0  0  0  0  0  0  0  0  0  0  0
   51.3530   30.8650   49.4020 C   0  0  0  0  0  0  0  0  0  0  0  0
   51.1860   30.3050   48.2880 O   0  0  0  0  0  0  0  0  0  0  0  0
   50.8700   32.0950   49.6780 N   0  0  0  0  0  0  0  0  0  0  0  0
   51.2750   32.2910   50.9430 C   0  0  0  0  0  0  0  0  0  0  0  0
   51.0230   33.4520   51.6630 O   0  0  0  0  0  0  0  0  0  0  0  0
   53.7200   30.3440   52.9810 C   0  0  0  0  0  0  0  0  0  0  0  0
   53.7410   29.2350   53.8240 C   0  0  0  0  0  0  0  0  0  0  0  0
   52.8742   28.8520   54.3826 H   0  0  0  0  0  0  0  0  0  0  0  0
   54.9830   28.6970   53.8560 N   0  0  0  0  0  0  0  0  0  0  0  0
   55.7450   29.4260   53.0560 N   0  0  0  0  0  0  0  0  0  0  0  0
   57.0590   29.2510   52.7360 C   0  0  0  0  0  0  0  0  0  0  0  0
   57.8030   28.3130   53.2510 N   0  0  0  0  0  0  0  0  0  0  0  0
   59.2210   28.4100   53.5820 C   0  0  0  0  0  0  0  0  0  0  0  0
   59.1192   28.9834   54.5152 H   0  0  0  0  0  0  0  0  0  0  0  0
   60.1310   28.5000   52.3710 C   0  0  0  0  0  0  0  0  0  0  0  0
   59.6989   28.5943   51.3638 H   0  0  0  0  0  0  0  0  0  0  0  0
   60.9675   29.1489   52.0725 H   0  0  0  0  0  0  0  0  0  0  0  0
   60.0040   27.1900   53.1340 C   0  0  0  0  0  0  0  0  0  0  0  0
   59.4801   26.3366   52.6787 H   0  0  0  0  0  0  0  0  0  0  0  0
   60.7106   26.4985   53.6162 H   0  0  0  0  0  0  0  0  0  0  0  0
   57.6120   30.1090   51.8370 N   0  0  0  0  0  0  0  0  0  0  0  0
   56.8740   31.1150   51.2760 C   0  0  0  0  0  0  0  0  0  0  0  0
   57.4430   31.9870   50.3420 O   0  0  0  0  0  0  0  0  0  0  0  0
   58.8220   32.1470   50.1480 C   0  0  0  0  0  0  0  0  0  0  0  0
   59.4730   31.2810   49.2610 C   0  0  0  0  0  0  0  0  0  0  0  0
   58.8972   30.5076   48.7314 H   0  0  0  0  0  0  0  0  0  0  0  0
   60.8470   31.3920   49.0440 C   0  0  0  0  0  0  0  0  0  0  0  0
   61.3515   30.7004   48.3532 H   0  0  0  0  0  0  0  0  0  0  0  0
   61.5820   32.3790   49.7020 C   0  0  0  0  0  0  0  0  0  0  0  0
   62.6670   32.4570   49.5386 H   0  0  0  0  0  0  0  0  0  0  0  0
   60.9410   33.2680   50.5680 C   0  0  0  0  0  0  0  0  0  0  0  0
   61.5239   34.0473   51.0808 H   0  0  0  0  0  0  0  0  0  0  0  0
   59.5520   33.1730   50.7890 C   0  0  0  0  0  0  0  0  0  0  0  0
   58.8690   34.0880   51.6070 O   0  0  0  0  0  0  0  0  0  0  0  0
   58.5160   33.8510   52.9660 C   0  0  0  0  0  0  0  0  0  0  0  0
   59.2469   34.3417   53.6256 H   0  0  0  0  0  0  0  0  0  0  0  0
   57.5136   34.2598   53.1611 H   0  0  0  0  0  0  0  0  0  0  0  0
   58.5149   32.7684   53.1611 H   0  0  0  0  0  0  0  0  0  0  0  0
   55.5610   31.2600   51.6050 N   0  0  0  0  0  0  0  0  0  0  0  0
   55.0220   30.4130   52.5140 C   0  0  0  0  0  0  0  0  0  0  0  0
  1  2  1  0
  2  3  1  0
  3  4  1  0
  4  5  1  0
  5  6  2  0
  5  7  1  0
  7  8  1  0
  8  9  1  0
  2 10  2  3
 10 11  1  0
 11 12  1  0
 11 13  2  0
 13 14  1  0
 14 15  1  0
 15 16  2  0
 16 17  1  0
 17 18  1  0
 17 19  1  0
 19 20  1  0
 19 21  1  0
 19 22  1  0
 22 23  1  0
 22 24  1  0
 15 25  1  0
 25 26  2  0
 26 27  1  0
 27 28  1  0
 28 29  2  0
 29 30  1  0
 29 31  1  0
 31 32  1  0
 31 33  2  0
 33 34  1  0
 33 35  1  0
 35 36  1  0
 35 37  2  0
 37 38  1  0
 38 39  1  0
 39 40  1  0
 39 41  1  0
 39 42  1  0
 26 43  1  0
 43 44  2  0
  8  3  2  0
 44 10  1  0
 44 14  1  0
 22 17  1  0
 37 28  1  0
M  CHG  3   4  -1   7  -1   9  -1
M  END
>  <UniqueID>  (52) 
50

>  <SMILES>  (52) 
COc1ccccc1Oc1n/c(=N/C2CC2)n2ncc(=Cc3[n-]c(=O)[n-]c3[O-])c2n1

>  <Energy>  (52) 
394.9828819115653

>  <Genealogy>  (52) 
COc1ccccc1Oc1nc(=NC2CC2)n2ncc(=Cc3[n-]c(=O)[n-]c3[O-])c2n1 (protonated)
COc1ccccc1Oc1n/c(=N/C2CC2)n2ncc(=Cc3[n-]c(=O)[n-]c3[O-])c2n1 (cis-trans isomerization)
COc1ccccc1Oc1n/c(=N/C2CC2)n2ncc(=Cc3[n-]c(=O)[n-]c3[O-])c2n1 (3D coordinates assigned)
COc1ccccc1Oc1n/c(=N/C2CC2)n2ncc(=Cc3[n-]c(=O)[n-]c3[O-])c2n1 (nonaromatic ring conformer: 394.9828819115653 kcal/mol)

>  <smiles>  (52) 
COc1ccccc1Oc1nc(=NC2CC2)n2ncc(=Cc3[nH]c(=O)[nH]c3O)c2n1

>  <score_type>  (52) 
oracle

>  <origin>  (52) 
adg

>  <m_score__min__energy>  (52) 
-16.039999999999999

>  <m_primary>  (52) 
energy

$$$$
52:0
     RDKit          3D

 38 41  0  0  0  0  0  0  0  0999 V2000
   64.4424   32.2827   47.1401 H   0  0  0  0  0  0  0  0  0  0  0  0
   63.3700   32.5270   47.1230 C   0  0  0  0  0  0  0  0  0  0  0  0
   62.9510   33.7970   46.7240 C   0  0  0  0  0  0  0  0  0  0  0  0
   63.6926   34.5489   46.4163 H   0  0  0  0  0  0  0  0  0  0  0  0
   61.5910   34.1140   46.7150 C   0  0  0  0  0  0  0  0  0  0  0  0
   61.2653   35.1184   46.4065 H   0  0  0  0  0  0  0  0  0  0  0  0
   60.6390   33.1590   47.0970 C   0  0  0  0  0  0  0  0  0  0  0  0
   58.9060   33.6430   47.1480 S   0  0  0  0  0  0  0  0  0  0  0  0
   58.9380   34.3920   45.4900 C   0  0  0  0  0  0  0  0  0  0  0  0
   58.9848   35.4870   45.5832 H   0  0  0  0  0  0  0  0  0  0  0  0
   59.8216   34.0325   44.9423 H   0  0  0  0  0  0  0  0  0  0  0  0
   58.0270   34.1092   44.9423 H   0  0  0  0  0  0  0  0  0  0  0  0
   61.0600   31.8620   47.4660 C   0  0  0  0  0  0  0  0  0  0  0  0
   60.1260   30.8500   47.8700 N   0  0  0  0  0  0  0  0  0  0  0  0
   59.3100   30.2340   47.0670 C   0  0  0  0  0  0  0  0  0  0  0  0
   58.9860   30.7640   45.8580 N   0  0  0  0  0  0  0  0  0  0  0  0
   58.1320   30.0810   45.0660 C   0  0  0  0  0  0  0  0  0  0  0  0
   57.6130   30.4990   43.8660 C   0  0  0  0  0  0  0  0  0  0  0  0
   57.8750   31.7290   43.1700 C   0  0  0  0  0  0  0  0  0  0  0  0
   58.0840   32.7200   42.6100 N   0  0  0  0  0  0  0  0  0  0  0  0
   56.6910   29.5280   43.5390 C   0  0  0  0  0  0  0  0  0  0  0  0
   56.0600   29.5231   42.6380 H   0  0  0  0  0  0  0  0  0  0  0  0
   56.6880   28.5820   44.5060 N   0  0  0  0  0  0  0  0  0  0  0  0
   56.0000   27.8160   44.5090 H   0  0  0  0  0  0  0  0  0  0  0  0
   57.5860   28.9040   45.4340 N   0  0  0  0  0  0  0  0  0  0  0  0
   57.9400   28.3270   46.6390 C   0  0  0  0  0  0  0  0  0  0  0  0
   57.6050   27.1360   47.0750 N   0  0  0  0  0  0  0  0  0  0  0  0
   57.2100   25.7590   46.7280 C   0  0  0  0  0  0  0  0  0  0  0  0
   57.6308   25.3342   47.6513 H   0  0  0  0  0  0  0  0  0  0  0  0
   57.2640   25.3560   45.2770 C   0  0  0  0  0  0  0  0  0  0  0  0
   57.6306   26.0650   44.5201 H   0  0  0  0  0  0  0  0  0  0  0  0
   57.7119   24.5257   44.7114 H   0  0  0  0  0  0  0  0  0  0  0  0
   55.9120   25.6030   45.9800 C   0  0  0  0  0  0  0  0  0  0  0  0
   55.3112   26.4887   45.7259 H   0  0  0  0  0  0  0  0  0  0  0  0
   54.9890   25.0229   46.1270 H   0  0  0  0  0  0  0  0  0  0  0  0
   58.7940   29.0300   47.4360 N   0  0  0  0  0  0  0  0  0  0  0  0
   62.4290   31.5650   47.5010 C   0  0  0  0  0  0  0  0  0  0  0  0
   62.7648   30.5697   47.8276 H   0  0  0  0  0  0  0  0  0  0  0  0
  1  2  1  0
  2  3  2  0
  3  4  1  0
  3  5  1  0
  5  6  1  0
  5  7  2  0
  7  8  1  0
  8  9  1  0
  9 10  1  0
  9 11  1  0
  9 12  1  0
  7 13  1  0
 13 14  1  0
 14 15  2  0
 15 16  1  0
 16 17  2  0
 17 18  1  0
 18 19  1  0
 19 20  3  0
 18 21  2  0
 21 22  1  0
 21 23  1  0
 23 24  1  0
 23 25  1  0
 25 26  1  0
 26 27  2  0
 27 28  1  0
 28 29  1  0
 28 30  1  0
 30 31  1  0
 30 32  1  0
 30 33  1  0
 33 34  1  0
 33 35  1  0
 26 36  1  0
 13 37  2  0
 37 38  1  0
 37  2  1  0
 36 15  1  0
 25 17  1  0
 33 28  1  0
M  CHG  1  36  -1
M  END
>  <UniqueID>  (53) 
51

>  <SMILES>  (53) 
CSc1ccccc1/N=c1\nc2c(C#N)c[nH]n2/c(=N\C2CC2)[n-]1

>  <Energy>  (53) 
387.4613701660007

>  <Genealogy>  (53) 
CSc1ccccc1N=c1nc2c(C#N)c[nH]n2c(=NC2CC2)[n-]1 (protonated)
CSc1ccccc1/N=c1\nc2c(C#N)c[nH]n2/c(=N\C2CC2)[n-]1 (cis-trans isomerization)
CSc1ccccc1/N=c1\nc2c(C#N)c[nH]n2/c(=N\C2CC2)[n-]1 (3D coordinates assigned)
CSc1ccccc1/N=c1\nc2c(C#N)c[nH]n2/c(=N\C2CC2)[n-]1 (nonaromatic ring conformer: 387.4613701660007 kcal/mol)

>  <smiles>  (53) 
CSc1ccccc1N=c1nc2c(C#N)c[nH]n2c(=NC2CC2)[nH]1

>  <score_type>  (53) 
oracle

>  <origin>  (53) 
adg

>  <m_score__min__energy>  (53) 
-8.9600000000000009

>  <m_primary>  (53) 
energy

$$$$
53:0
     RDKit          3D

 49 51  0  0  0  0  0  0  0  0999 V2000
   55.6179   24.7039   46.6642 H   0  0  0  0  0  0  0  0  0  0  0  0
   56.2500   25.5630   46.3950 C   0  0  0  0  0  0  0  0  0  0  0  0
   55.6780   26.7230   45.9820 N   0  0  0  0  0  0  0  0  0  0  0  0
   56.4050   27.8170   45.6280 C   0  0  0  0  0  0  0  0  0  0  0  0
   55.7500   28.8790   45.2440 N   0  0  0  0  0  0  0  0  0  0  0  0
   56.1180   29.8150   44.2230 C   0  0  0  0  0  0  0  0  0  0  0  0
   55.9370   29.5160   43.0150 O   0  0  0  0  0  0  0  0  0  0  0  0
   56.6360   31.1070   44.5580 N   0  0  0  0  0  0  0  0  0  0  0  0
   57.5330   31.8570   43.6910 C   0  0  0  0  0  0  0  0  0  0  0  0
   58.2328   32.4422   44.3057 H   0  0  0  0  0  0  0  0  0  0  0  0
   58.0981   31.1588   43.0561 H   0  0  0  0  0  0  0  0  0  0  0  0
   56.9459   32.5368   43.0561 H   0  0  0  0  0  0  0  0  0  0  0  0
   57.8250   27.7430   45.6660 C   0  0  0  0  0  0  0  0  0  0  0  0
   58.6130   28.8440   45.2990 O   0  0  0  0  0  0  0  0  0  0  0  0
   59.6390   29.4080   46.0710 C   0  0  0  0  0  0  0  0  0  0  0  0
   60.8010   28.9180   46.0390 O   0  0  0  0  0  0  0  0  0  0  0  0
   59.3510   30.6060   46.8960 C   0  0  0  0  0  0  0  0  0  0  0  0
   59.4320   31.8740   46.2970 C   0  0  0  0  0  0  0  0  0  0  0  0
   59.7230   31.9593   45.2396 H   0  0  0  0  0  0  0  0  0  0  0  0
   59.1470   33.0260   47.0300 C   0  0  0  0  0  0  0  0  0  0  0  0
   59.2550   34.6000   46.2610 Cl  0  0  0  0  0  0  0  0  0  0  0  0
   58.7580   32.9280   48.3650 C   0  0  0  0  0  0  0  0  0  0  0  0
   58.5273   33.8407   48.9340 H   0  0  0  0  0  0  0  0  0  0  0  0
   58.6580   31.6740   48.9900 C   0  0  0  0  0  0  0  0  0  0  0  0
   58.2220   31.6080   50.4070 C   0  0  0  0  0  0  0  0  0  0  0  0
   58.1920   32.6650   51.0950 O   0  0  0  0  0  0  0  0  0  0  0  0
   57.7690   30.3710   50.9810 N   0  0  0  0  0  0  0  0  0  0  0  0
   57.4320   29.6260   50.3320 H   0  0  0  0  0  0  0  0  0  0  0  0
   57.4340   30.2390   52.3710 C   0  0  0  0  0  0  0  0  0  0  0  0
   58.4590   29.9950   53.2970 C   0  0  0  0  0  0  0  0  0  0  0  0
   59.4991   29.9085   52.9496 H   0  0  0  0  0  0  0  0  0  0  0  0
   58.1690   29.8610   54.6570 C   0  0  0  0  0  0  0  0  0  0  0  0
   58.9781   29.6576   55.3740 H   0  0  0  0  0  0  0  0  0  0  0  0
   56.8530   29.9850   55.1070 C   0  0  0  0  0  0  0  0  0  0  0  0
   56.6242   29.8701   56.1768 H   0  0  0  0  0  0  0  0  0  0  0  0
   55.8270   30.2550   54.1980 C   0  0  0  0  0  0  0  0  0  0  0  0
   54.7926   30.3614   54.5567 H   0  0  0  0  0  0  0  0  0  0  0  0
   56.1080   30.3910   52.8320 C   0  0  0  0  0  0  0  0  0  0  0  0
   54.7920   30.8270   51.7490 Cl  0  0  0  0  0  0  0  0  0  0  0  0
   58.9940   30.5100   48.2610 C   0  0  0  0  0  0  0  0  0  0  0  0
   59.0070   29.2690   48.9060 O   0  0  0  0  0  0  0  0  0  0  0  0
   60.2180   28.7040   49.3910 C   0  0  0  0  0  0  0  0  0  0  0  0
   60.2097   28.7079   50.4910 H   0  0  0  0  0  0  0  0  0  0  0  0
   60.3109   27.6696   49.0287 H   0  0  0  0  0  0  0  0  0  0  0  0
   61.0704   29.2974   49.0287 H   0  0  0  0  0  0  0  0  0  0  0  0
   58.4220   26.5520   46.1180 C   0  0  0  0  0  0  0  0  0  0  0  0
   59.5176   26.4824   46.1877 H   0  0  0  0  0  0  0  0  0  0  0  0
   57.6350   25.4600   46.4780 C   0  0  0  0  0  0  0  0  0  0  0  0
   58.1035   24.5268   46.8240 H   0  0  0  0  0  0  0  0  0  0  0  0
  1  2  1  0
  2  3  1  0
  3  4  1  0
  4  5  2  0
  5  6  1  0
  6  7  2  0
  6  8  1  0
  8  9  1  0
  9 10  1  0
  9 11  1  0
  9 12  1  0
  4 13  1  0
 13 14  1  0
 14 15  1  0
 15 16  2  0
 15 17  1  0
 17 18  2  0
 18 19  1  0
 18 20  1  0
 20 21  1  0
 20 22  2  0
 22 23  1  0
 22 24  1  0
 24 25  1  0
 25 26  2  0
 25 27  1  0
 27 28  1  0
 27 29  1  0
 29 30  2  0
 30 31  1  0
 30 32  1  0
 32 33  1  0
 32 34  2  0
 34 35  1  0
 34 36  1  0
 36 37  1  0
 36 38  2  0
 38 39  1  0
 24 40  2  0
 40 41  1  0
 41 42  1  0
 42 43  1  0
 42 44  1  0
 42 45  1  0
 13 46  2  0
 46 47  1  0
 46 48  1  0
 48 49  1  0
 48  2  2  0
 40 17  1  0
 38 29  1  0
M  CHG  2   3  -1   8  -1
M  END
>  <UniqueID>  (54) 
52

>  <SMILES>  (54) 
C[N-]C(=O)/N=c1/[n-]cccc1OC(=O)c1cc(Cl)cc(C(=O)Nc2ccccc2Cl)c1OC

>  <Energy>  (54) 
83.60043255405886

>  <Genealogy>  (54) 
C[N-]C(=O)N=c1[n-]cccc1OC(=O)c1cc(Cl)cc(C(=O)Nc2ccccc2Cl)c1OC (protonated)
C[N-]C(=O)/N=c1/[n-]cccc1OC(=O)c1cc(Cl)cc(C(=O)Nc2ccccc2Cl)c1OC (cis-trans isomerization)
C[N-]C(=O)/N=c1/[n-]cccc1OC(=O)c1cc(Cl)cc(C(=O)Nc2ccccc2Cl)c1OC (3D coordinates assigned)
C[N-]C(=O)/N=c1/[n-]cccc1OC(=O)c1cc(Cl)cc(C(=O)Nc2ccccc2Cl)c1OC (optimized conformer: 83.60043255405886 kcal/mol)

>  <smiles>  (54) 
CNC(=O)N=c1[nH]cccc1OC(=O)c1cc(Cl)cc(C(=O)Nc2ccccc2Cl)c1OC

>  <score_type>  (54) 
oracle

>  <origin>  (54) 
adg

>  <m_score__min__energy>  (54) 
-10.869999999999999

>  <m_primary>  (54) 
energy

$$$$
54:0
     RDKit          3D

 32 33  0  0  0  0  0  0  0  0999 V2000
   59.0640   34.0560   47.8770 N   0  0  0  0  0  0  0  0  0  0  0  0
   58.7360   33.4860   46.9240 C   0  0  0  0  0  0  0  0  0  0  0  0
   58.3310   32.7790   45.7370 C   0  0  0  0  0  0  0  0  0  0  0  0
   58.4900   33.3740   44.4790 C   0  0  0  0  0  0  0  0  0  0  0  0
   58.0910   32.6890   43.3260 C   0  0  0  0  0  0  0  0  0  0  0  0
   57.5310   31.4120   43.4270 C   0  0  0  0  0  0  0  0  0  0  0  0
   57.3670   30.8120   44.6830 C   0  0  0  0  0  0  0  0  0  0  0  0
   56.6650   29.2020   44.7920 S   0  0  0  0  0  0  0  0  0  0  0  0
   55.1700   29.3270   44.8840 O   0  0  0  0  0  0  0  0  0  0  0  0
   57.0380   28.3940   43.5820 O   0  0  0  0  0  0  0  0  0  0  0  0
   57.2860   28.4220   46.2110 N   0  0  0  0  0  0  0  0  0  0  0  0
   58.4330   27.5610   46.2560 C   0  0  0  0  0  0  0  0  0  0  0  0
   59.7420   28.0800   46.2880 C   0  0  0  0  0  0  0  0  0  0  0  0
   60.8420   27.2200   46.3300 C   0  0  0  0  0  0  0  0  0  0  0  0
   60.6510   25.8380   46.3440 C   0  0  0  0  0  0  0  0  0  0  0  0
   59.3590   25.3100   46.3150 C   0  0  0  0  0  0  0  0  0  0  0  0
   58.2440   26.1640   46.2720 C   0  0  0  0  0  0  0  0  0  0  0  0
   56.6160   25.4790   46.2320 S   0  0  0  0  0  0  0  0  0  0  0  0
   55.4760   26.7230   45.8550 N   0  0  0  0  0  0  0  0  0  0  0  0
   56.5260   24.3980   45.1900 O   0  0  0  0  0  0  0  0  0  0  0  0
   56.2910   24.8880   47.5750 O   0  0  0  0  0  0  0  0  0  0  0  0
   57.7720   31.4980   45.8380 C   0  0  0  0  0  0  0  0  0  0  0  0
   58.9284   34.3795   44.3975 H   0  0  0  0  0  0  0  0  0  0  0  0
   58.2182   33.1561   42.3383 H   0  0  0  0  0  0  0  0  0  0  0  0
   57.2183   30.8767   42.5183 H   0  0  0  0  0  0  0  0  0  0  0  0
   59.8990   29.1687   46.2799 H   0  0  0  0  0  0  0  0  0  0  0  0
   61.8611   27.6333   46.3521 H   0  0  0  0  0  0  0  0  0  0  0  0
   61.5194   25.1637   46.3779 H   0  0  0  0  0  0  0  0  0  0  0  0
   59.2131   24.2198   46.3259 H   0  0  0  0  0  0  0  0  0  0  0  0
   55.4550   27.3760   46.6720 H   0  0  0  0  0  0  0  0  0  0  0  0
   55.8670   27.2620   45.0500 H   0  0  0  0  0  0  0  0  0  0  0  0
   57.6504   31.0290   46.8255 H   0  0  0  0  0  0  0  0  0  0  0  0
  1  2  3  0
  2  3  1  0
  3  4  2  0
  4  5  1  0
  5  6  2  0
  6  7  1  0
  7  8  1  0
  8  9  2  0
  8 10  2  0
  8 11  1  0
 11 12  1  0
 12 13  2  0
 13 14  1  0
 14 15  2  0
 15 16  1  0
 16 17  2  0
 17 18  1  0
 18 19  1  0
 18 20  2  0
 18 21  2  0
  7 22  2  0
 22  3  1  0
 17 12  1  0
  4 23  1  0
  5 24  1  0
  6 25  1  0
 13 26  1  0
 14 27  1  0
 15 28  1  0
 16 29  1  0
 19 30  1  0
 19 31  1  0
 22 32  1  0
M  CHG  1  11  -1
M  END
>  <UniqueID>  (55) 
53

>  <SMILES>  (55) 
N#Cc1cccc(S(=O)(=O)[N-]c2ccccc2S(N)(=O)=O)c1

>  <Energy>  (55) 
35.1739742049032

>  <Genealogy>  (55) 
N#Cc1cccc(S(=O)(=O)[N-]c2ccccc2S(N)(=O)=O)c1 (protonated)
N#Cc1cccc(S(=O)(=O)[N-]c2ccccc2S(N)(=O)=O)c1 (3D coordinates assigned)
N#Cc1cccc(S(=O)(=O)[N-]c2ccccc2S(N)(=O)=O)c1 (optimized conformer: 35.1739742049032 kcal/mol)

>  <smiles>  (55) 
N#Cc1cccc(S(=O)(=O)Nc2ccccc2S(N)(=O)=O)c1

>  <score_type>  (55) 
oracle

>  <origin>  (55) 
adg

>  <m_score__min__energy>  (55) 
-9.0399999999999991

>  <m_primary>  (55) 
energy

$$$$
55:0
     RDKit          3D

 46 48  0  0  0  0  0  0  0  0999 V2000
   56.1090   22.2670   42.4220 N   0  0  0  0  0  0  0  0  0  0  0  0
   56.4350   23.0340   43.5840 C   0  0  0  0  0  0  0  0  0  0  0  0
   55.4870   23.8770   44.1610 C   0  0  0  0  0  0  0  0  0  0  0  0
   55.8380   24.6130   45.2940 C   0  0  0  0  0  0  0  0  0  0  0  0
   54.9840   25.3790   45.8150 O   0  0  0  0  0  0  0  0  0  0  0  0
   57.0950   24.5010   45.8260 N   0  0  0  0  0  0  0  0  0  0  0  0
   57.4930   25.2880   47.0040 C   0  0  0  0  0  0  0  0  0  0  0  0
   57.9400   26.6650   46.5880 C   0  0  0  0  0  0  0  0  0  0  0  0
   58.4670   27.5580   47.5340 C   0  0  0  0  0  0  0  0  0  0  0  0
   58.8630   28.8430   47.1500 C   0  0  0  0  0  0  0  0  0  0  0  0
   58.7180   29.2590   45.8190 C   0  0  0  0  0  0  0  0  0  0  0  0
   59.1640   30.6310   45.3970 C   0  0  0  0  0  0  0  0  0  0  0  0
   57.7540   31.6600   45.0210 S   0  0  0  0  0  0  0  0  0  0  0  0
   56.5280   30.8140   44.8260 O   0  0  0  0  0  0  0  0  0  0  0  0
   58.0230   32.4350   43.7600 O   0  0  0  0  0  0  0  0  0  0  0  0
   57.4870   32.7760   46.3160 N   0  0  0  0  0  0  0  0  0  0  0  0
   58.3050   32.8130   47.4870 C   0  0  0  0  0  0  0  0  0  0  0  0
   57.7800   32.7100   48.6280 O   0  0  0  0  0  0  0  0  0  0  0  0
   59.7700   32.9750   47.3610 C   0  0  0  0  0  0  0  0  0  0  0  0
   60.3100   33.9510   46.4890 C   0  0  0  0  0  0  0  0  0  0  0  0
   59.2900   34.9660   45.4730 Cl  0  0  0  0  0  0  0  0  0  0  0  0
   61.6980   34.0980   46.3770 C   0  0  0  0  0  0  0  0  0  0  0  0
   62.5570   33.2920   47.1220 C   0  0  0  0  0  0  0  0  0  0  0  0
   62.0360   32.3300   47.9870 C   0  0  0  0  0  0  0  0  0  0  0  0
   60.6530   32.1630   48.1130 C   0  0  0  0  0  0  0  0  0  0  0  0
   60.0720   30.9810   49.2830 Cl  0  0  0  0  0  0  0  0  0  0  0  0
   58.1910   28.3650   44.8720 C   0  0  0  0  0  0  0  0  0  0  0  0
   57.8010   27.0800   45.2560 C   0  0  0  0  0  0  0  0  0  0  0  0
   58.0080   23.6750   45.2340 C   0  0  0  0  0  0  0  0  0  0  0  0
   57.6770   22.9500   44.1320 N   0  0  0  0  0  0  0  0  0  0  0  0
   55.5270   21.4030   42.5030 H   0  0  0  0  0  0  0  0  0  0  0  0
   56.4530   22.5490   41.4760 H   0  0  0  0  0  0  0  0  0  0  0  0
   54.4782   23.9611   43.7305 H   0  0  0  0  0  0  0  0  0  0  0  0
   56.6358   25.3762   47.6877 H   0  0  0  0  0  0  0  0  0  0  0  0
   58.3274   24.7788   47.5084 H   0  0  0  0  0  0  0  0  0  0  0  0
   58.5691   27.2452   48.5836 H   0  0  0  0  0  0  0  0  0  0  0  0
   59.2900   29.5302   47.8953 H   0  0  0  0  0  0  0  0  0  0  0  0
   59.7403   31.0911   46.2132 H   0  0  0  0  0  0  0  0  0  0  0  0
   59.7881   30.5402   44.4958 H   0  0  0  0  0  0  0  0  0  0  0  0
   62.1135   34.8553   45.6959 H   0  0  0  0  0  0  0  0  0  0  0  0
   63.6461   33.4146   47.0277 H   0  0  0  0  0  0  0  0  0  0  0  0
   62.7179   31.6978   48.5746 H   0  0  0  0  0  0  0  0  0  0  0  0
   58.0850   28.6786   43.8230 H   0  0  0  0  0  0  0  0  0  0  0  0
   57.3823   26.3895   44.5090 H   0  0  0  0  0  0  0  0  0  0  0  0
   59.0219   23.5954   45.6532 H   0  0  0  0  0  0  0  0  0  0  0  0
   58.3930   22.3260   43.7020 H   0  0  0  0  0  0  0  0  0  0  0  0
  1  2  1  0
  2  3  2  0
  3  4  1  0
  4  5  2  0
  4  6  1  0
  6  7  1  0
  7  8  1  0
  8  9  2  0
  9 10  1  0
 10 11  2  0
 11 12  1  0
 12 13  1  0
 13 14  2  0
 13 15  2  0
 13 16  1  0
 16 17  1  0
 17 18  2  0
 17 19  1  0
 19 20  2  0
 20 21  1  0
 20 22  1  0
 22 23  2  0
 23 24  1  0
 24 25  2  0
 25 26  1  0
 11 27  1  0
 27 28  2  0
  6 29  1  0
 29 30  2  0
 30  2  1  0
 28  8  1  0
 25 19  1  0
  1 31  1  0
  1 32  1  0
  3 33  1  0
  7 34  1  0
  7 35  1  0
  9 36  1  0
 10 37  1  0
 12 38  1  0
 12 39  1  0
 22 40  1  0
 23 41  1  0
 24 42  1  0
 27 43  1  0
 28 44  1  0
 29 45  1  0
 30 46  1  0
M  CHG  2  16  -1  30   1
M  END
>  <UniqueID>  (56) 
54

>  <SMILES>  (56) 
Nc1cc(=O)n(Cc2ccc(CS(=O)(=O)[N-]C(=O)c3c(Cl)cccc3Cl)cc2)c[nH+]1

>  <Energy>  (56) 
52.88672544348116

>  <Genealogy>  (56) 
Nc1cc(=O)n(Cc2ccc(CS(=O)(=O)[N-]C(=O)c3c(Cl)cccc3Cl)cc2)c[nH+]1 (protonated)
Nc1cc(=O)n(Cc2ccc(CS(=O)(=O)[N-]C(=O)c3c(Cl)cccc3Cl)cc2)c[nH+]1 (3D coordinates assigned)
Nc1cc(=O)n(Cc2ccc(CS(=O)(=O)[N-]C(=O)c3c(Cl)cccc3Cl)cc2)c[nH+]1 (optimized conformer: 52.88672544348116 kcal/mol)

>  <smiles>  (56) 
Nc1cc(=O)n(Cc2ccc(CS(=O)(=O)NC(=O)c3c(Cl)cccc3Cl)cc2)cn1

>  <score_type>  (56) 
oracle

>  <origin>  (56) 
adg

>  <m_score__min__energy>  (56) 
-9.8699999999999992

>  <m_primary>  (56) 
energy

$$$$
56:0
     RDKit          3D

 39 41  0  0  0  0  0  0  0  0999 V2000
   58.3940   25.2840   45.5170 C   0  0  0  0  0  0  0  0  0  0  0  0
   57.3270   26.0340   46.7280 S   0  0  0  0  0  0  0  0  0  0  0  0
   56.3940   24.9850   47.2630 O   0  0  0  0  0  0  0  0  0  0  0  0
   58.1330   26.5900   47.8680 O   0  0  0  0  0  0  0  0  0  0  0  0
   56.3850   27.2940   45.9960 N   0  0  0  0  0  0  0  0  0  0  0  0
   56.8640   28.5930   45.6170 C   0  0  0  0  0  0  0  0  0  0  0  0
   58.1320   29.0630   46.0050 C   0  0  0  0  0  0  0  0  0  0  0  0
   58.5780   30.3330   45.6040 C   0  0  0  0  0  0  0  0  0  0  0  0
   59.8700   30.7940   46.0350 N   0  0  0  0  0  0  0  0  0  0  0  0
   60.1380   32.1360   46.4750 C   0  0  0  0  0  0  0  0  0  0  0  0
   59.3490   33.0720   46.1750 O   0  0  0  0  0  0  0  0  0  0  0  0
   61.3960   32.4490   47.1890 C   0  0  0  0  0  0  0  0  0  0  0  0
   62.2250   33.4490   46.6530 C   0  0  0  0  0  0  0  0  0  0  0  0
   63.4560   33.7460   47.2380 C   0  0  0  0  0  0  0  0  0  0  0  0
   63.8810   33.0560   48.3710 C   0  0  0  0  0  0  0  0  0  0  0  0
   63.0650   32.0720   48.9460 C   0  0  0  0  0  0  0  0  0  0  0  0
   63.4890   31.3990   50.1030 C   0  0  0  0  0  0  0  0  0  0  0  0
   62.6690   30.4440   50.7020 C   0  0  0  0  0  0  0  0  0  0  0  0
   61.4160   30.1600   50.1630 C   0  0  0  0  0  0  0  0  0  0  0  0
   60.9780   30.8170   49.0100 C   0  0  0  0  0  0  0  0  0  0  0  0
   61.8030   31.7660   48.3670 C   0  0  0  0  0  0  0  0  0  0  0  0
   57.7260   31.1510   44.8410 C   0  0  0  0  0  0  0  0  0  0  0  0
   56.4660   30.6890   44.4590 C   0  0  0  0  0  0  0  0  0  0  0  0
   56.0360   29.4160   44.8400 C   0  0  0  0  0  0  0  0  0  0  0  0
   54.7770   28.9720   44.4480 O   0  0  0  0  0  0  0  0  0  0  0  0
   59.1911   24.7237   46.0275 H   0  0  0  0  0  0  0  0  0  0  0  0
   57.8087   24.5976   44.8875 H   0  0  0  0  0  0  0  0  0  0  0  0
   58.8417   26.0672   44.8875 H   0  0  0  0  0  0  0  0  0  0  0  0
   58.7803   28.4297   46.6284 H   0  0  0  0  0  0  0  0  0  0  0  0
   60.6790   30.1370   45.9610 H   0  0  0  0  0  0  0  0  0  0  0  0
   61.8992   34.0044   45.7612 H   0  0  0  0  0  0  0  0  0  0  0  0
   64.0943   34.5289   46.8025 H   0  0  0  0  0  0  0  0  0  0  0  0
   64.8607   33.2842   48.8161 H   0  0  0  0  0  0  0  0  0  0  0  0
   64.4730   31.6264   50.5389 H   0  0  0  0  0  0  0  0  0  0  0  0
   63.0120   29.9133   51.6024 H   0  0  0  0  0  0  0  0  0  0  0  0
   60.7681   29.4147   50.6476 H   0  0  0  0  0  0  0  0  0  0  0  0
   59.9822   30.5931   48.5997 H   0  0  0  0  0  0  0  0  0  0  0  0
   58.0538   32.1582   44.5443 H   0  0  0  0  0  0  0  0  0  0  0  0
   55.8080   31.3307   43.8547 H   0  0  0  0  0  0  0  0  0  0  0  0
  1  2  1  0
  2  3  2  0
  2  4  2  0
  2  5  1  0
  5  6  1  0
  6  7  2  0
  7  8  1  0
  8  9  1  0
  9 10  1  0
 10 11  2  0
 10 12  1  0
 12 13  2  0
 13 14  1  0
 14 15  2  0
 15 16  1  0
 16 17  2  0
 17 18  1  0
 18 19  2  0
 19 20  1  0
 20 21  2  0
  8 22  2  0
 22 23  1  0
 23 24  2  0
 24 25  1  0
 24  6  1  0
 21 12  1  0
 21 16  1  0
  1 26  1  0
  1 27  1  0
  1 28  1  0
  7 29  1  0
  9 30  1  0
 13 31  1  0
 14 32  1  0
 15 33  1  0
 17 34  1  0
 18 35  1  0
 19 36  1  0
 20 37  1  0
 22 38  1  0
 23 39  1  0
M  CHG  2   5  -1  25  -1
M  END
>  <UniqueID>  (57) 
55

>  <SMILES>  (57) 
CS(=O)(=O)[N-]c1cc(NC(=O)c2cccc3ccccc23)ccc1[O-]

>  <Energy>  (57) 
54.46861811168467

>  <Genealogy>  (57) 
CS(=O)(=O)[N-]c1cc(NC(=O)c2cccc3ccccc23)ccc1[O-] (protonated)
CS(=O)(=O)[N-]c1cc(NC(=O)c2cccc3ccccc23)ccc1[O-] (3D coordinates assigned)
CS(=O)(=O)[N-]c1cc(NC(=O)c2cccc3ccccc23)ccc1[O-] (optimized conformer: 54.46861811168467 kcal/mol)

>  <smiles>  (57) 
CS(=O)(=O)Nc1cc(NC(=O)c2cccc3ccccc23)ccc1O

>  <score_type>  (57) 
oracle

>  <origin>  (57) 
adg

>  <m_score__min__energy>  (57) 
-12.619999999999999

>  <m_primary>  (57) 
energy

$$$$
57:0
     RDKit          3D

 44 47  0  0  0  0  0  0  0  0999 V2000
   56.9017   27.5392   43.6356 H   0  0  0  0  0  0  0  0  0  0  0  0
   57.0160   28.5880   43.9470 C   0  0  0  0  0  0  0  0  0  0  0  0
   57.0810   28.9160   45.2980 C   0  0  0  0  0  0  0  0  0  0  0  0
   57.3820   32.4490   45.2730 N   0  0  0  0  0  0  0  0  0  0  0  0
   57.2840   31.2460   44.7730 C   0  0  0  0  0  0  0  0  0  0  0  0
   55.1790   26.4100   45.9980 N   0  0  0  0  0  0  0  0  0  0  0  0
   55.0600   25.1020   45.8130 N   0  0  0  0  0  0  0  0  0  0  0  0
   54.1490   24.6100   45.6870 H   0  0  0  0  0  0  0  0  0  0  0  0
   56.2830   24.5330   45.8030 C   0  0  0  0  0  0  0  0  0  0  0  0
   56.5380   23.0820   45.5490 C   0  0  0  0  0  0  0  0  0  0  0  0
   56.6310   22.5526   46.5087 H   0  0  0  0  0  0  0  0  0  0  0  0
   55.7007   22.6574   44.9757 H   0  0  0  0  0  0  0  0  0  0  0  0
   57.4699   22.9683   44.9757 H   0  0  0  0  0  0  0  0  0  0  0  0
   57.2360   30.9390   43.3810 C   0  0  0  0  0  0  0  0  0  0  0  0
   57.3750   31.9060   42.3200 C   0  0  0  0  0  0  0  0  0  0  0  0
   57.5020   32.6690   41.4590 N   0  0  0  0  0  0  0  0  0  0  0  0
   57.2120   30.2190   45.6640 N   0  0  0  0  0  0  0  0  0  0  0  0
   56.4960   26.6810   46.0990 C   0  0  0  0  0  0  0  0  0  0  0  0
   57.0030   27.8680   46.2760 N   0  0  0  0  0  0  0  0  0  0  0  0
   57.7480   32.9180   46.6100 C   0  0  0  0  0  0  0  0  0  0  0  0
   57.1192   33.7820   46.8709 H   0  0  0  0  0  0  0  0  0  0  0  0
   57.5923   32.0934   47.3211 H   0  0  0  0  0  0  0  0  0  0  0  0
   59.1910   33.3280   46.6700 C   0  0  0  0  0  0  0  0  0  0  0  0
   60.0780   32.8030   47.5380 N   0  0  0  0  0  0  0  0  0  0  0  0
   61.2060   33.5030   47.2930 C   0  0  0  0  0  0  0  0  0  0  0  0
   62.5000   33.2500   47.9980 C   0  0  0  0  0  0  0  0  0  0  0  0
   62.1918   33.6599   48.9712 H   0  0  0  0  0  0  0  0  0  0  0  0
   63.2350   32.0010   47.5360 C   0  0  0  0  0  0  0  0  0  0  0  0
   63.8110   31.4033   48.2578 H   0  0  0  0  0  0  0  0  0  0  0  0
   62.9481   31.0821   47.0037 H   0  0  0  0  0  0  0  0  0  0  0  0
   63.7340   33.3740   47.1170 C   0  0  0  0  0  0  0  0  0  0  0  0
   64.6710   33.7699   47.5356 H   0  0  0  0  0  0  0  0  0  0  0  0
   63.9578   33.8602   46.1560 H   0  0  0  0  0  0  0  0  0  0  0  0
   61.0540   34.4090   46.3530 O   0  0  0  0  0  0  0  0  0  0  0  0
   59.8080   34.3400   45.9570 C   0  0  0  0  0  0  0  0  0  0  0  0
   59.2120   35.2090   44.9000 C   0  0  0  0  0  0  0  0  0  0  0  0
   58.6502   36.0282   45.3725 H   0  0  0  0  0  0  0  0  0  0  0  0
   60.0140   35.6276   44.2742 H   0  0  0  0  0  0  0  0  0  0  0  0
   58.5326   34.6116   44.2742 H   0  0  0  0  0  0  0  0  0  0  0  0
   57.2320   25.5210   45.9740 C   0  0  0  0  0  0  0  0  0  0  0  0
   58.6650   25.3780   45.9940 C   0  0  0  0  0  0  0  0  0  0  0  0
   59.8160   25.2630   46.0090 N   0  0  0  0  0  0  0  0  0  0  0  0
   57.0970   29.6000   42.9920 C   0  0  0  0  0  0  0  0  0  0  0  0
   57.0514   29.3452   41.9229 H   0  0  0  0  0  0  0  0  0  0  0  0
  1  2  1  0
  2  3  2  0
  3  4  1  0
  4  5  2  0
  5  6  1  0
  6  7  1  0
  7  8  1  0
  7  9  1  0
  9 10  1  0
 10 11  1  0
 10 12  1  0
 10 13  1  0
  9 14  2  0
 14 15  1  0
 15 16  3  0
  3 17  1  0
 17 18  1  0
 18 19  2  0
 19 20  1  0
 20 21  1  0
 20 22  1  0
 20 23  1  0
 23 24  1  0
 24 25  2  0
 25 26  1  0
 26 27  1  0
 26 28  1  0
 28 29  1  0
 28 30  1  0
 28 31  1  0
 31 32  1  0
 31 33  1  0
 25 34  1  0
 34 35  1  0
 35 36  1  0
 36 37  1  0
 36 38  1  0
 36 39  1  0
 18 40  1  0
 40 41  1  0
 41 42  3  0
 40 43  2  0
 43 44  1  0
 43  2  1  0
 14  5  1  0
 35 23  2  0
 31 26  1  0
M  CHG  2   6  -1  17  -1
M  END
>  <UniqueID>  (58) 
56

>  <SMILES>  (58) 
Cc1[nH][n-]/c(=N\c2ccc(C#N)/c(=N\Cc3nc(C4CC4)oc3C)[n-]2)c1C#N

>  <Energy>  (58) 
378.4961740470418

>  <Genealogy>  (58) 
Cc1[nH][n-]c(=Nc2ccc(C#N)c(=NCc3nc(C4CC4)oc3C)[n-]2)c1C#N (protonated)
Cc1[nH][n-]/c(=N\c2ccc(C#N)/c(=N\Cc3nc(C4CC4)oc3C)[n-]2)c1C#N (cis-trans isomerization)
Cc1[nH][n-]/c(=N\c2ccc(C#N)/c(=N\Cc3nc(C4CC4)oc3C)[n-]2)c1C#N (3D coordinates assigned)
Cc1[nH][n-]/c(=N\c2ccc(C#N)/c(=N\Cc3nc(C4CC4)oc3C)[n-]2)c1C#N (nonaromatic ring conformer: 378.4961740470418 kcal/mol)

>  <smiles>  (58) 
Cc1[nH][nH]c(=Nc2ccc(C#N)c(=NCc3nc(C4CC4)oc3C)[nH]2)c1C#N

>  <score_type>  (58) 
oracle

>  <origin>  (58) 
adg

>  <m_score__min__energy>  (58) 
-11.5

>  <m_primary>  (58) 
energy

$$$$
58:0
     RDKit          3D

 37 39  0  0  0  0  0  0  0  0999 V2000
   58.6400   20.7050   45.3730 H   0  0  0  0  0  0  0  0  0  0  0  0
   57.8520   21.2910   45.1340 O   0  0  0  0  0  0  0  0  0  0  0  0
   57.4410   22.3330   45.9620 C   0  0  0  0  0  0  0  0  0  0  0  0
   57.2820   22.1880   47.2900 N   0  0  0  0  0  0  0  0  0  0  0  0
   56.8700   23.3920   47.7370 C   0  0  0  0  0  0  0  0  0  0  0  0
   56.6503   23.6237   48.7896 H   0  0  0  0  0  0  0  0  0  0  0  0
   56.7600   24.2990   46.6940 C   0  0  0  0  0  0  0  0  0  0  0  0
   56.3340   25.7460   46.7920 C   0  0  1  0  0  0  0  0  0  0  0  0
   55.6202   25.8148   47.6261 H   0  0  0  0  0  0  0  0  0  0  0  0
   57.4820   26.6120   47.0730 N   0  0  0  0  0  0  0  0  0  0  0  0
   58.0920   27.4420   46.2720 C   0  0  0  0  0  0  0  0  0  0  0  0
   57.3580   28.4240   45.6830 N   0  0  0  0  0  0  0  0  0  0  0  0
   57.8930   29.3510   44.8390 C   0  0  0  0  0  0  0  0  0  0  0  0
   56.9930   30.4190   44.2290 C   0  0  0  0  0  0  0  0  0  0  0  0
   57.1800   31.7700   44.7970 C   0  0  0  0  0  0  0  0  0  0  0  0
   57.3260   32.8280   45.2440 N   0  0  0  0  0  0  0  0  0  0  0  0
   56.9360   30.4260   42.7110 C   0  0  0  0  0  0  0  0  0  0  0  0
   57.1258   31.4156   42.2697 H   0  0  0  0  0  0  0  0  0  0  0  0
   57.6607   29.8193   42.1481 H   0  0  0  0  0  0  0  0  0  0  0  0
   55.5770   30.0550   42.6940 O   0  0  0  0  0  0  0  0  0  0  0  0
   55.5290   30.0360   44.1030 C   0  0  0  0  0  0  0  0  0  0  0  0
   54.8423   30.7826   44.5284 H   0  0  0  0  0  0  0  0  0  0  0  0
   55.1700   29.1291   44.6116 H   0  0  0  0  0  0  0  0  0  0  0  0
   59.2710   29.2950   44.5590 C   0  0  0  0  0  0  0  0  0  0  0  0
   59.7284   30.0324   43.8830 H   0  0  0  0  0  0  0  0  0  0  0  0
   60.0530   28.3000   45.1430 C   0  0  0  0  0  0  0  0  0  0  0  0
   61.3810   28.2380   44.8750 F   0  0  0  0  0  0  0  0  0  0  0  0
   59.4720   27.3670   46.0020 C   0  0  0  0  0  0  0  0  0  0  0  0
   60.0861   26.5800   46.4641 H   0  0  0  0  0  0  0  0  0  0  0  0
   55.6840   26.1790   45.6240 O   0  0  0  0  0  0  0  0  0  0  0  0
   56.3710   26.6160   45.0570 H   0  0  0  0  0  0  0  0  0  0  0  0
   57.1450   23.6200   45.5500 C   0  0  0  0  0  0  0  0  0  0  0  0
   57.1820   24.1410   44.1420 C   0  0  0  0  0  0  0  0  0  0  0  0
   57.7628   23.4498   43.5136 H   0  0  0  0  0  0  0  0  0  0  0  0
   56.1533   24.2197   43.7605 H   0  0  0  0  0  0  0  0  0  0  0  0
   57.7800   25.4080   44.1120 O   0  0  0  0  0  0  0  0  0  0  0  0
   57.6950   25.7850   45.0260 H   0  0  0  0  0  0  0  0  0  0  0  0
  1  2  1  0
  2  3  1  0
  3  4  1  0
  4  5  1  0
  5  6  1  0
  5  7  2  0
  7  8  1  0
  8  9  1  1
  8 10  1  0
 10 11  2  0
 11 12  1  0
 12 13  1  0
 13 14  1  0
 14 15  1  0
 15 16  3  0
 14 17  1  0
 17 18  1  0
 17 19  1  0
 17 20  1  0
 20 21  1  0
 21 22  1  0
 21 23  1  0
 13 24  2  0
 24 25  1  0
 24 26  1  0
 26 27  1  0
 26 28  2  0
 28 29  1  0
  8 30  1  0
 30 31  1  0
  7 32  1  0
 32 33  1  0
 33 34  1  0
 33 35  1  0
 33 36  1  0
 36 37  1  0
 32  3  2  0
 28 11  1  0
 21 14  1  0
M  CHG  2   4  -1  12  -1
M  END
>  <UniqueID>  (59) 
57

>  <SMILES>  (59) 
N#CC1(c2cc(F)c/c(=N\[C@@H](O)c3c[n-]c(O)c3CO)[n-]2)COC1

>  <Energy>  (59) 
133.78958122120565

>  <Genealogy>  (59) 
N#CC1(c2cc(F)cc(=NC(O)c3c[n-]c(O)c3CO)[n-]2)COC1 (protonated)
N#CC1(c2cc(F)cc(=N[C@@H](O)c3c[n-]c(O)c3CO)[n-]2)COC1 (chirality)
N#CC1(c2cc(F)c/c(=N\[C@@H](O)c3c[n-]c(O)c3CO)[n-]2)COC1 (cis-trans isomerization)
N#CC1(c2cc(F)c/c(=N\[C@@H](O)c3c[n-]c(O)c3CO)[n-]2)COC1 (3D coordinates assigned)
N#CC1(c2cc(F)c/c(=N\[C@@H](O)c3c[n-]c(O)c3CO)[n-]2)COC1 (nonaromatic ring conformer: 133.78958122120565 kcal/mol)

>  <smiles>  (59) 
N#CC1(c2cc(F)cc(=NC(O)c3c[nH]c(O)c3CO)[nH]2)COC1

>  <score_type>  (59) 
oracle

>  <origin>  (59) 
adg

>  <m_score__min__energy>  (59) 
-10.76

>  <m_primary>  (59) 
energy

$$$$
59:0
     RDKit          3D

 36 37  0  0  0  0  0  0  0  0999 V2000
   56.5610   31.2080   44.8590 O   0  0  0  0  0  0  0  0  0  0  0  0
   57.8030   31.4140   44.8720 C   0  0  0  0  0  0  0  0  0  0  0  0
   58.6640   30.4670   44.2260 N   0  0  0  0  0  0  0  0  0  0  0  0
   58.6040   29.0180   44.3950 C   0  0  0  0  0  0  0  0  0  0  0  0
   59.6340   28.5610   45.4360 C   0  0  0  0  0  0  0  0  0  0  0  0
   59.0000   27.8710   46.6580 C   0  0  0  0  0  0  0  0  0  0  0  0
   58.0300   26.7850   46.2620 C   0  0  0  0  0  0  0  0  0  0  0  0
   58.4930   25.4990   45.9520 C   0  0  0  0  0  0  0  0  0  0  0  0
   57.5910   24.4760   45.6530 C   0  0  0  0  0  0  0  0  0  0  0  0
   56.2050   24.7140   45.6530 C   0  0  0  0  0  0  0  0  0  0  0  0
   55.2960   23.6350   45.3470 N   0  0  0  0  0  0  0  0  0  0  0  0
   54.6110   23.0930   46.2390 O   0  0  0  0  0  0  0  0  0  0  0  0
   55.1690   23.1790   44.0560 O   0  0  0  0  0  0  0  0  0  0  0  0
   55.7420   26.0150   45.9610 C   0  0  0  0  0  0  0  0  0  0  0  0
   54.3810   26.3080   45.9790 O   0  0  0  0  0  0  0  0  0  0  0  0
   56.6500   27.0340   46.2670 C   0  0  0  0  0  0  0  0  0  0  0  0
   58.3180   32.6490   45.5000 C   0  0  0  0  0  0  0  0  0  0  0  0
   58.4400   32.7230   46.8970 C   0  0  0  0  0  0  0  0  0  0  0  0
   58.9120   33.8910   47.5030 C   0  0  0  0  0  0  0  0  0  0  0  0
   59.2820   34.9870   46.7190 C   0  0  0  0  0  0  0  0  0  0  0  0
   59.1860   34.9130   45.3270 C   0  0  0  0  0  0  0  0  0  0  0  0
   58.7090   33.7500   44.7170 C   0  0  0  0  0  0  0  0  0  0  0  0
   57.5964   28.7333   44.7320 H   0  0  0  0  0  0  0  0  0  0  0  0
   58.8294   28.5356   43.4325 H   0  0  0  0  0  0  0  0  0  0  0  0
   60.3258   27.8535   44.9555 H   0  0  0  0  0  0  0  0  0  0  0  0
   60.1495   29.4614   45.8013 H   0  0  0  0  0  0  0  0  0  0  0  0
   59.8000   27.4259   47.2677 H   0  0  0  0  0  0  0  0  0  0  0  0
   58.4415   28.6321   47.2226 H   0  0  0  0  0  0  0  0  0  0  0  0
   59.5738   25.2943   45.9442 H   0  0  0  0  0  0  0  0  0  0  0  0
   57.9694   23.4711   45.4144 H   0  0  0  0  0  0  0  0  0  0  0  0
   56.2783   28.0395   46.5137 H   0  0  0  0  0  0  0  0  0  0  0  0
   58.1629   31.8579   47.5173 H   0  0  0  0  0  0  0  0  0  0  0  0
   58.9923   33.9474   48.5986 H   0  0  0  0  0  0  0  0  0  0  0  0
   59.6485   35.9072   47.1973 H   0  0  0  0  0  0  0  0  0  0  0  0
   59.4867   35.7725   44.7099 H   0  0  0  0  0  0  0  0  0  0  0  0
   58.6390   33.6953   43.6206 H   0  0  0  0  0  0  0  0  0  0  0  0
  1  2  2  0
  2  3  1  0
  3  4  1  0
  4  5  1  0
  5  6  1  0
  6  7  1  0
  7  8  2  0
  8  9  1  0
  9 10  2  0
 10 11  1  0
 11 12  2  0
 11 13  1  0
 10 14  1  0
 14 15  1  0
 14 16  2  0
  2 17  1  0
 17 18  2  0
 18 19  1  0
 19 20  2  0
 20 21  1  0
 21 22  2  0
 16  7  1  0
 22 17  1  0
  4 23  1  0
  4 24  1  0
  5 25  1  0
  5 26  1  0
  6 27  1  0
  6 28  1  0
  8 29  1  0
  9 30  1  0
 16 31  1  0
 18 32  1  0
 19 33  1  0
 20 34  1  0
 21 35  1  0
 22 36  1  0
M  CHG  4   3  -1  11   1  13  -1  15  -1
M  END
>  <UniqueID>  (60) 
58

>  <SMILES>  (60) 
O=C([N-]CCCc1ccc([N+](=O)[O-])c([O-])c1)c1ccccc1

>  <Energy>  (60) 
38.11090623139334

>  <Genealogy>  (60) 
O=C([N-]CCCc1ccc([N+](=O)[O-])c([O-])c1)c1ccccc1 (protonated)
O=C([N-]CCCc1ccc([N+](=O)[O-])c([O-])c1)c1ccccc1 (3D coordinates assigned)
O=C([N-]CCCc1ccc([N+](=O)[O-])c([O-])c1)c1ccccc1 (optimized conformer: 38.11090623139334 kcal/mol)

>  <smiles>  (60) 
O=C(NCCCc1ccc([N+](=O)[O-])c(O)c1)c1ccccc1

>  <score_type>  (60) 
oracle

>  <origin>  (60) 
adg

>  <m_score__min__energy>  (60) 
-12.57

>  <m_primary>  (60) 
energy

$$$$
60:0
     RDKit          3D

 42 44  0  0  0  0  0  0  0  0999 V2000
   57.7910   25.8640   46.0720 C   0  0  0  0  0  0  0  0  0  0  0  0
   57.7660   25.6570   44.6280 N   0  0  0  0  0  0  0  0  0  0  0  0
   57.2960   24.5850   43.9650 C   0  0  0  0  0  0  0  0  0  0  0  0
   57.3310   24.8040   42.6380 N   0  0  0  0  0  0  0  0  0  0  0  0
   57.7990   26.0240   42.4280 N   0  0  0  0  0  0  0  0  0  0  0  0
   58.0600   26.5360   43.6480 C   0  0  0  0  0  0  0  0  0  0  0  0
   58.6840   28.2000   43.9110 S   0  0  0  0  0  0  0  0  0  0  0  0
   57.1100   29.0240   43.4870 C   0  0  0  0  0  0  0  0  0  0  0  0
   56.4070   29.4990   44.7280 C   0  0  0  0  0  0  0  0  0  0  0  0
   55.1570   29.3820   44.8080 O   0  0  0  0  0  0  0  0  0  0  0  0
   57.1050   30.1880   45.7710 N   0  0  0  0  0  0  0  0  0  0  0  0
   57.7550   31.4590   45.6310 C   0  0  0  0  0  0  0  0  0  0  0  0
   57.1600   32.4770   44.8670 C   0  0  0  0  0  0  0  0  0  0  0  0
   57.7870   33.7170   44.7310 C   0  0  0  0  0  0  0  0  0  0  0  0
   59.0160   33.9490   45.3510 C   0  0  0  0  0  0  0  0  0  0  0  0
   59.6270   32.9360   46.0920 C   0  0  0  0  0  0  0  0  0  0  0  0
   59.0130   31.6800   46.2260 C   0  0  0  0  0  0  0  0  0  0  0  0
   59.6750   30.6420   46.9720 N   0  0  0  0  0  0  0  0  0  0  0  0
   59.4000   30.4380   48.3960 C   0  0  0  0  0  0  0  0  0  0  0  0
   59.2090   28.9410   48.6610 C   0  0  0  0  0  0  0  0  0  0  0  0
   60.3050   28.1970   48.1580 O   0  0  0  0  0  0  0  0  0  0  0  0
   60.3620   28.3110   46.7470 C   0  0  0  0  0  0  0  0  0  0  0  0
   60.6530   29.7560   46.3330 C   0  0  0  0  0  0  0  0  0  0  0  0
   57.6742   24.8970   46.5831 H   0  0  0  0  0  0  0  0  0  0  0  0
   58.7505   26.3178   46.3608 H   0  0  0  0  0  0  0  0  0  0  0  0
   56.9672   26.5332   46.3608 H   0  0  0  0  0  0  0  0  0  0  0  0
   56.9346   23.6611   44.4401 H   0  0  0  0  0  0  0  0  0  0  0  0
   57.0160   24.1490   41.8900 H   0  0  0  0  0  0  0  0  0  0  0  0
   57.3179   29.8869   42.8372 H   0  0  0  0  0  0  0  0  0  0  0  0
   56.4620   28.3024   42.9680 H   0  0  0  0  0  0  0  0  0  0  0  0
   56.1941   32.2959   44.3729 H   0  0  0  0  0  0  0  0  0  0  0  0
   57.3127   34.5109   44.1354 H   0  0  0  0  0  0  0  0  0  0  0  0
   59.5032   34.9306   45.2556 H   0  0  0  0  0  0  0  0  0  0  0  0
   60.5974   33.1230   46.5750 H   0  0  0  0  0  0  0  0  0  0  0  0
   60.2456   30.8124   48.9917 H   0  0  0  0  0  0  0  0  0  0  0  0
   58.4876   30.9835   48.6788 H   0  0  0  0  0  0  0  0  0  0  0  0
   59.1272   28.7743   49.7452 H   0  0  0  0  0  0  0  0  0  0  0  0
   58.2929   28.6070   48.1520 H   0  0  0  0  0  0  0  0  0  0  0  0
   61.1598   27.6578   46.3637 H   0  0  0  0  0  0  0  0  0  0  0  0
   59.3899   28.0116   46.3281 H   0  0  0  0  0  0  0  0  0  0  0  0
   61.6677   30.0343   46.6539 H   0  0  0  0  0  0  0  0  0  0  0  0
   60.5814   29.8508   45.2394 H   0  0  0  0  0  0  0  0  0  0  0  0
  1  2  1  0
  2  3  1  0
  3  4  2  0
  4  5  1  0
  5  6  2  0
  6  7  1  0
  7  8  1  0
  8  9  1  0
  9 10  2  0
  9 11  1  0
 11 12  1  0
 12 13  2  0
 13 14  1  0
 14 15  2  0
 15 16  1  0
 16 17  2  0
 17 18  1  0
 18 19  1  0
 19 20  1  0
 20 21  1  0
 21 22  1  0
 22 23  1  0
  6  2  1  0
 17 12  1  0
 23 18  1  0
  1 24  1  0
  1 25  1  0
  1 26  1  0
  3 27  1  0
  4 28  1  0
  8 29  1  0
  8 30  1  0
 13 31  1  0
 14 32  1  0
 15 33  1  0
 16 34  1  0
 19 35  1  0
 19 36  1  0
 20 37  1  0
 20 38  1  0
 22 39  1  0
 22 40  1  0
 23 41  1  0
 23 42  1  0
M  CHG  2   4   1  11  -1
M  END
>  <UniqueID>  (61) 
59

>  <SMILES>  (61) 
Cn1c[nH+]nc1SCC(=O)[N-]c1ccccc1N1CCOCC1

>  <Energy>  (61) 
83.5990495985706

>  <Genealogy>  (61) 
Cn1c[nH+]nc1SCC(=O)[N-]c1ccccc1N1CCOCC1 (protonated)
Cn1c[nH+]nc1SCC(=O)[N-]c1ccccc1N1CCOCC1 (3D coordinates assigned)
Cn1c[nH+]nc1SCC(=O)[N-]c1ccccc1N1CCOCC1 (nonaromatic ring conformer: 83.5990495985706 kcal/mol)

>  <smiles>  (61) 
Cn1cnnc1SCC(=O)Nc1ccccc1N1CCOCC1

>  <score_type>  (61) 
oracle

>  <origin>  (61) 
adg

>  <m_score__min__energy>  (61) 
-7.54

>  <m_primary>  (61) 
energy

$$$$
61:0
     RDKit          3D

 45 47  0  0  0  0  0  0  0  0999 V2000
   55.1330   29.3370   44.8130 N   0  0  0  0  0  0  0  0  0  0  0  0
   56.2960   29.7650   44.1050 C   0  0  0  0  0  0  0  0  0  0  0  0
   56.5810   29.2160   43.0060 O   0  0  0  0  0  0  0  0  0  0  0  0
   57.1580   30.8390   44.6520 C   0  0  0  0  0  0  0  0  0  0  0  0
   57.3460   32.0350   43.9360 C   0  0  0  0  0  0  0  0  0  0  0  0
   58.1480   33.0520   44.4580 C   0  0  0  0  0  0  0  0  0  0  0  0
   58.7800   32.8880   45.6920 C   0  0  0  0  0  0  0  0  0  0  0  0
   58.6240   31.6900   46.4110 C   0  0  0  0  0  0  0  0  0  0  0  0
   59.2340   31.4880   47.6940 N   0  0  0  0  0  0  0  0  0  0  0  0
   58.9540   32.2120   48.9010 C   0  0  0  0  0  0  0  0  0  0  0  0
   58.8600   33.4700   48.8760 O   0  0  0  0  0  0  0  0  0  0  0  0
   58.8270   31.4870   50.1870 C   0  0  0  0  0  0  0  0  0  0  0  0
   59.8560   30.6410   50.6360 C   0  0  0  0  0  0  0  0  0  0  0  0
   59.7320   29.9590   51.8480 C   0  0  0  0  0  0  0  0  0  0  0  0
   58.5810   30.1060   52.6250 C   0  0  0  0  0  0  0  0  0  0  0  0
   57.5390   30.9430   52.1910 C   0  0  0  0  0  0  0  0  0  0  0  0
   56.3340   31.1160   52.9500 N   0  0  0  0  0  0  0  0  0  0  0  0
   55.1290   29.8940   53.2030 S   0  0  0  0  0  0  0  0  0  0  0  0
   55.1760   29.4480   54.6360 O   0  0  0  0  0  0  0  0  0  0  0  0
   55.4270   28.7200   52.3120 O   0  0  0  0  0  0  0  0  0  0  0  0
   53.5280   30.5440   52.8610 C   0  0  0  0  0  0  0  0  0  0  0  0
   52.7090   30.9870   53.9060 C   0  0  0  0  0  0  0  0  0  0  0  0
   51.4350   31.4880   53.6330 C   0  0  0  0  0  0  0  0  0  0  0  0
   50.9720   31.5520   52.3160 C   0  0  0  0  0  0  0  0  0  0  0  0
   51.7840   31.1170   51.2530 C   0  0  0  0  0  0  0  0  0  0  0  0
   51.2980   31.1830   49.8550 C   0  0  0  0  0  0  0  0  0  0  0  0
   50.6510   32.3570   49.3670 N   0  0  0  0  0  0  0  0  0  0  0  0
   51.4520   30.2000   49.0810 O   0  0  0  0  0  0  0  0  0  0  0  0
   53.0690   30.6160   51.5390 C   0  0  0  0  0  0  0  0  0  0  0  0
   57.6700   31.6300   50.9770 C   0  0  0  0  0  0  0  0  0  0  0  0
   57.7980   30.6820   45.8950 C   0  0  0  0  0  0  0  0  0  0  0  0
   55.2080   28.6790   45.6200 H   0  0  0  0  0  0  0  0  0  0  0  0
   56.8585   32.1700   42.9592 H   0  0  0  0  0  0  0  0  0  0  0  0
   58.2825   33.9869   43.8942 H   0  0  0  0  0  0  0  0  0  0  0  0
   59.4012   33.6977   46.1025 H   0  0  0  0  0  0  0  0  0  0  0  0
   60.7645   30.5155   50.0287 H   0  0  0  0  0  0  0  0  0  0  0  0
   60.5448   29.3028   52.1925 H   0  0  0  0  0  0  0  0  0  0  0  0
   58.4898   29.5655   53.5787 H   0  0  0  0  0  0  0  0  0  0  0  0
   53.0698   30.9403   54.9441 H   0  0  0  0  0  0  0  0  0  0  0  0
   50.7935   31.8335   54.4571 H   0  0  0  0  0  0  0  0  0  0  0  0
   49.9657   31.9452   52.1092 H   0  0  0  0  0  0  0  0  0  0  0  0
   51.1610   33.2660   49.3090 H   0  0  0  0  0  0  0  0  0  0  0  0
   53.7178   30.2783   50.7174 H   0  0  0  0  0  0  0  0  0  0  0  0
   56.8584   32.2898   50.6364 H   0  0  0  0  0  0  0  0  0  0  0  0
   57.6482   29.7560   46.4695 H   0  0  0  0  0  0  0  0  0  0  0  0
  1  2  1  0
  2  3  2  0
  2  4  1  0
  4  5  2  0
  5  6  1  0
  6  7  2  0
  7  8  1  0
  8  9  1  0
  9 10  1  0
 10 11  2  0
 10 12  1  0
 12 13  2  0
 13 14  1  0
 14 15  2  0
 15 16  1  0
 16 17  1  0
 17 18  1  0
 18 19  2  0
 18 20  2  0
 18 21  1  0
 21 22  2  0
 22 23  1  0
 23 24  2  0
 24 25  1  0
 25 26  1  0
 26 27  1  0
 26 28  2  0
 25 29  2  0
 16 30  2  0
  8 31  2  0
 31  4  1  0
 30 12  1  0
 29 21  1  0
  1 32  1  0
  5 33  1  0
  6 34  1  0
  7 35  1  0
 13 36  1  0
 14 37  1  0
 15 38  1  0
 22 39  1  0
 23 40  1  0
 24 41  1  0
 27 42  1  0
 29 43  1  0
 30 44  1  0
 31 45  1  0
M  CHG  4   1  -1   9  -1  17  -1  27  -1
M  END
>  <UniqueID>  (62) 
60

>  <SMILES>  (62) 
[NH-]C(=O)c1cccc([N-]C(=O)c2cccc([N-]S(=O)(=O)c3cccc(C([NH-])=O)c3)c2)c1

>  <Energy>  (62) 
55.77831874852621

>  <Genealogy>  (62) 
[NH-]C(=O)c1cccc([N-]C(=O)c2cccc([N-]S(=O)(=O)c3cccc(C([NH-])=O)c3)c2)c1 (protonated)
[NH-]C(=O)c1cccc([N-]C(=O)c2cccc([N-]S(=O)(=O)c3cccc(C([NH-])=O)c3)c2)c1 (3D coordinates assigned)
[NH-]C(=O)c1cccc([N-]C(=O)c2cccc([N-]S(=O)(=O)c3cccc(C([NH-])=O)c3)c2)c1 (optimized conformer: 55.77831874852621 kcal/mol)

>  <smiles>  (62) 
NC(=O)c1cccc(NC(=O)c2cccc(NS(=O)(=O)c3cccc(C(N)=O)c3)c2)c1

>  <score_type>  (62) 
oracle

>  <origin>  (62) 
adg

>  <m_score__min__energy>  (62) 
-18.440000000000001

>  <m_primary>  (62) 
energy

$$$$
62:0
     RDKit          3D

 49 52  0  0  0  0  0  0  0  0999 V2000
   55.3520   26.5630   46.0030 O   0  0  0  0  0  0  0  0  0  0  0  0
   56.8240   26.3610   45.7700 S   0  0  0  0  0  0  0  0  0  0  0  0
   57.5570   26.5520   47.0670 O   0  0  0  0  0  0  0  0  0  0  0  0
   57.3870   27.5260   44.6160 N   0  0  0  0  0  0  0  0  0  0  0  0
   57.5510   28.9270   44.8700 C   0  0  0  0  0  0  0  0  0  0  0  0
   58.5880   29.4250   45.6810 C   0  0  0  0  0  0  0  0  0  0  0  0
   58.7100   30.7990   45.9030 C   0  0  0  0  0  0  0  0  0  0  0  0
   57.8040   31.6930   45.3160 C   0  0  0  0  0  0  0  0  0  0  0  0
   57.9760   33.4280   45.5700 S   0  0  0  0  0  0  0  0  0  0  0  0
   57.3320   33.8390   46.8640 O   0  0  0  0  0  0  0  0  0  0  0  0
   57.3030   34.1500   44.4360 O   0  0  0  0  0  0  0  0  0  0  0  0
   59.6550   33.8670   45.6110 N   0  0  0  0  0  0  0  0  0  0  0  0
   60.4500   33.8800   46.8100 C   0  0  0  0  0  0  0  0  0  0  0  0
   61.8040   33.5170   46.7380 C   0  0  0  0  0  0  0  0  0  0  0  0
   62.5960   33.4950   47.8910 C   0  0  0  0  0  0  0  0  0  0  0  0
   62.0450   33.8210   49.1340 C   0  0  0  0  0  0  0  0  0  0  0  0
   62.8690   33.7840   50.2680 O   0  0  0  0  0  0  0  0  0  0  0  0
   64.0100   32.9820   50.4130 C   0  0  0  0  0  0  0  0  0  0  0  0
   63.8890   31.7490   51.0660 C   0  0  0  0  0  0  0  0  0  0  0  0
   65.0060   30.9280   51.2420 C   0  0  0  0  0  0  0  0  0  0  0  0
   66.2590   31.3410   50.7780 C   0  0  0  0  0  0  0  0  0  0  0  0
   66.3950   32.5790   50.1430 C   0  0  0  0  0  0  0  0  0  0  0  0
   65.2780   33.4000   49.9640 C   0  0  0  0  0  0  0  0  0  0  0  0
   60.7000   34.2190   49.2080 C   0  0  0  0  0  0  0  0  0  0  0  0
   59.9090   34.2480   48.0560 C   0  0  0  0  0  0  0  0  0  0  0  0
   56.7660   31.1980   44.5160 C   0  0  0  0  0  0  0  0  0  0  0  0
   56.6450   29.8250   44.2920 C   0  0  0  0  0  0  0  0  0  0  0  0
   57.1310   24.7400   45.1750 C   0  0  0  0  0  0  0  0  0  0  0  0
   58.1360   23.8890   45.6120 C   0  0  0  0  0  0  0  0  0  0  0  0
   58.1130   22.6450   44.9700 C   0  0  0  0  0  0  0  0  0  0  0  0
   57.0920   22.5200   44.0330 C   0  0  0  0  0  0  0  0  0  0  0  0
   56.2170   23.9570   44.0040 S   0  0  0  0  0  0  0  0  0  0  0  0
   59.3051   28.7298   46.1418 H   0  0  0  0  0  0  0  0  0  0  0  0
   59.5205   31.1808   46.5412 H   0  0  0  0  0  0  0  0  0  0  0  0
   60.1220   34.0370   44.6920 H   0  0  0  0  0  0  0  0  0  0  0  0
   62.2458   33.2477   45.7673 H   0  0  0  0  0  0  0  0  0  0  0  0
   63.6585   33.2196   47.8192 H   0  0  0  0  0  0  0  0  0  0  0  0
   62.9079   31.4246   51.4430 H   0  0  0  0  0  0  0  0  0  0  0  0
   64.8996   29.9560   51.7459 H   0  0  0  0  0  0  0  0  0  0  0  0
   67.1370   30.6921   50.9126 H   0  0  0  0  0  0  0  0  0  0  0  0
   67.3816   32.9072   49.7840 H   0  0  0  0  0  0  0  0  0  0  0  0
   65.3896   34.3767   49.4704 H   0  0  0  0  0  0  0  0  0  0  0  0
   60.2673   34.5091   50.1768 H   0  0  0  0  0  0  0  0  0  0  0  0
   58.8565   34.5606   48.1237 H   0  0  0  0  0  0  0  0  0  0  0  0
   56.0439   31.8931   44.0628 H   0  0  0  0  0  0  0  0  0  0  0  0
   55.8314   29.4456   43.6563 H   0  0  0  0  0  0  0  0  0  0  0  0
   58.8729   24.1628   46.3815 H   0  0  0  0  0  0  0  0  0  0  0  0
   58.8337   21.8425   45.1859 H   0  0  0  0  0  0  0  0  0  0  0  0
   56.8909   21.6321   43.4157 H   0  0  0  0  0  0  0  0  0  0  0  0
  1  2  2  0
  2  3  2  0
  2  4  1  0
  4  5  1  0
  5  6  2  0
  6  7  1  0
  7  8  2  0
  8  9  1  0
  9 10  2  0
  9 11  2  0
  9 12  1  0
 12 13  1  0
 13 14  2  0
 14 15  1  0
 15 16  2  0
 16 17  1  0
 17 18  1  0
 18 19  2  0
 19 20  1  0
 20 21  2  0
 21 22  1  0
 22 23  2  0
 16 24  1  0
 24 25  2  0
  8 26  1  0
 26 27  2  0
  2 28  1  0
 28 29  2  0
 29 30  1  0
 30 31  2  0
 31 32  1  0
 27  5  1  0
 32 28  1  0
 25 13  1  0
 23 18  1  0
  6 33  1  0
  7 34  1  0
 12 35  1  0
 14 36  1  0
 15 37  1  0
 19 38  1  0
 20 39  1  0
 21 40  1  0
 22 41  1  0
 23 42  1  0
 24 43  1  0
 25 44  1  0
 26 45  1  0
 27 46  1  0
 29 47  1  0
 30 48  1  0
 31 49  1  0
M  CHG  1   4  -1
M  END
>  <UniqueID>  (63) 
61

>  <SMILES>  (63) 
O=S(=O)([N-]c1ccc(S(=O)(=O)Nc2ccc(Oc3ccccc3)cc2)cc1)c1cccs1

>  <Energy>  (63) 
91.63164178096125

>  <Genealogy>  (63) 
O=S(=O)([N-]c1ccc(S(=O)(=O)Nc2ccc(Oc3ccccc3)cc2)cc1)c1cccs1 (protonated)
O=S(=O)([N-]c1ccc(S(=O)(=O)Nc2ccc(Oc3ccccc3)cc2)cc1)c1cccs1 (3D coordinates assigned)
O=S(=O)([N-]c1ccc(S(=O)(=O)Nc2ccc(Oc3ccccc3)cc2)cc1)c1cccs1 (optimized conformer: 91.63164178096125 kcal/mol)

>  <smiles>  (63) 
O=S(=O)(Nc1ccc(Oc2ccccc2)cc1)c1ccc(NS(=O)(=O)c2cccs2)cc1

>  <score_type>  (63) 
oracle

>  <origin>  (63) 
adg

>  <m_score__min__energy>  (63) 
-11.08

>  <m_primary>  (63) 
energy

$$$$
63:0
     RDKit          3D

 39 41  0  0  0  0  0  0  0  0999 V2000
   58.0820   25.1055   44.6565 H   0  0  0  0  0  0  0  0  0  0  0  0
   58.1520   26.1980   44.7640 C   0  0  0  0  0  0  0  0  0  0  0  0
   58.0950   27.3210   43.5090 S   0  0  0  0  0  0  0  0  0  0  0  0
   58.2810   28.6340   44.5360 C   0  0  0  0  0  0  0  0  0  0  0  0
   58.2970   29.8680   44.1210 N   0  0  0  0  0  0  0  0  0  0  0  0
   57.4910   30.9480   44.6120 C   0  0  0  0  0  0  0  0  0  0  0  0
   56.2380   30.8550   44.5160 O   0  0  0  0  0  0  0  0  0  0  0  0
   58.0810   32.1880   45.1760 C   0  0  0  0  0  0  0  0  0  0  0  0
   58.0990   33.3480   44.3820 C   0  0  0  0  0  0  0  0  0  0  0  0
   57.7283   33.3061   43.3472 H   0  0  0  0  0  0  0  0  0  0  0  0
   58.5830   34.5520   44.8950 C   0  0  0  0  0  0  0  0  0  0  0  0
   58.5897   35.4536   44.2649 H   0  0  0  0  0  0  0  0  0  0  0  0
   59.0580   34.6150   46.2040 C   0  0  0  0  0  0  0  0  0  0  0  0
   59.4239   35.5701   46.6089 H   0  0  0  0  0  0  0  0  0  0  0  0
   59.0710   33.4700   47.0030 C   0  0  0  0  0  0  0  0  0  0  0  0
   59.7770   33.5900   48.7790 Br  0  0  0  0  0  0  0  0  0  0  0  0
   58.6070   32.2460   46.4910 C   0  0  0  0  0  0  0  0  0  0  0  0
   58.7300   31.0700   47.2980 N   0  0  0  0  0  0  0  0  0  0  0  0
   60.1560   30.0840   47.2810 S   0  0  0  0  0  0  0  0  0  0  0  0
   59.9270   28.8650   48.1280 O   0  0  0  0  0  0  0  0  0  0  0  0
   60.4460   29.6540   45.8710 O   0  0  0  0  0  0  0  0  0  0  0  0
   61.5260   30.9810   47.9350 C   0  0  0  0  0  0  0  0  0  0  0  0
   62.2510   31.8690   47.1300 C   0  0  0  0  0  0  0  0  0  0  0  0
   61.9913   31.9829   46.0672 H   0  0  0  0  0  0  0  0  0  0  0  0
   63.3040   32.6110   47.6740 C   0  0  0  0  0  0  0  0  0  0  0  0
   63.8628   33.3148   47.0396 H   0  0  0  0  0  0  0  0  0  0  0  0
   63.6510   32.4620   49.0250 C   0  0  0  0  0  0  0  0  0  0  0  0
   64.7520   33.2880   49.6240 C   0  0  0  0  0  0  0  0  0  0  0  0
   64.6899   33.2414   50.7213 H   0  0  0  0  0  0  0  0  0  0  0  0
   65.7254   32.8955   49.2948 H   0  0  0  0  0  0  0  0  0  0  0  0
   64.6475   34.3324   49.2948 H   0  0  0  0  0  0  0  0  0  0  0  0
   62.9150   31.5820   49.8320 C   0  0  0  0  0  0  0  0  0  0  0  0
   63.1668   31.4754   50.8975 H   0  0  0  0  0  0  0  0  0  0  0  0
   61.8630   30.8400   49.2880 C   0  0  0  0  0  0  0  0  0  0  0  0
   61.2976   30.1430   49.9240 H   0  0  0  0  0  0  0  0  0  0  0  0
   58.3700   28.2440   45.8300 N   0  0  0  0  0  0  0  0  0  0  0  0
   58.4390   28.8810   46.6530 H   0  0  0  0  0  0  0  0  0  0  0  0
   58.3030   26.8930   45.9600 C   0  0  0  0  0  0  0  0  0  0  0  0
   58.3635   26.3879   46.9353 H   0  0  0  0  0  0  0  0  0  0  0  0
  1  2  1  0
  2  3  1  0
  3  4  1  0
  4  5  2  0
  5  6  1  0
  6  7  2  0
  6  8  1  0
  8  9  2  0
  9 10  1  0
  9 11  1  0
 11 12  1  0
 11 13  2  0
 13 14  1  0
 13 15  1  0
 15 16  1  0
 15 17  2  0
 17 18  1  0
 18 19  1  0
 19 20  2  0
 19 21  2  0
 19 22  1  0
 22 23  2  0
 23 24  1  0
 23 25  1  0
 25 26  1  0
 25 27  2  0
 27 28  1  0
 28 29  1  0
 28 30  1  0
 28 31  1  0
 27 32  1  0
 32 33  1  0
 32 34  2  0
 34 35  1  0
  4 36  1  0
 36 37  1  0
 36 38  1  0
 38 39  1  0
 38  2  2  0
 17  8  1  0
 34 22  1  0
M  CHG  1  18  -1
M  END
>  <UniqueID>  (64) 
62

>  <SMILES>  (64) 
Cc1ccc(S(=O)(=O)[N-]c2c(Br)cccc2C(=O)/N=c2\[nH]ccs2)cc1

>  <Energy>  (64) 
88.06108294426502

>  <Genealogy>  (64) 
Cc1ccc(S(=O)(=O)[N-]c2c(Br)cccc2C(=O)N=c2[nH]ccs2)cc1 (protonated)
Cc1ccc(S(=O)(=O)[N-]c2c(Br)cccc2C(=O)/N=c2\[nH]ccs2)cc1 (cis-trans isomerization)
Cc1ccc(S(=O)(=O)[N-]c2c(Br)cccc2C(=O)/N=c2\[nH]ccs2)cc1 (3D coordinates assigned)
Cc1ccc(S(=O)(=O)[N-]c2c(Br)cccc2C(=O)/N=c2\[nH]ccs2)cc1 (optimized conformer: 88.06108294426502 kcal/mol)

>  <smiles>  (64) 
Cc1ccc(S(=O)(=O)Nc2c(Br)cccc2C(=O)N=c2[nH]ccs2)cc1

>  <score_type>  (64) 
oracle

>  <origin>  (64) 
adg

>  <m_score__min__energy>  (64) 
-10.69

>  <m_primary>  (64) 
energy

$$$$
64:0
     RDKit          3D

 41 42  0  0  0  0  0  0  0  0999 V2000
   54.8310   24.9180   45.6250 C   0  0  0  0  0  0  0  0  0  0  0  0
   55.1450   26.2590   45.9880 O   0  0  0  0  0  0  0  0  0  0  0  0
   56.4440   26.7890   46.0160 C   0  0  0  0  0  0  0  0  0  0  0  0
   57.5360   26.0800   46.5510 C   0  0  0  0  0  0  0  0  0  0  0  0
   58.8130   26.6470   46.5530 C   0  0  0  0  0  0  0  0  0  0  0  0
   59.0200   27.9300   46.0260 C   0  0  0  0  0  0  0  0  0  0  0  0
   60.4050   28.5250   45.9950 C   0  0  0  0  0  0  0  0  0  0  0  0
   60.3930   30.0680   46.0700 C   0  0  0  0  0  0  0  0  0  0  0  0
   60.3300   30.6130   47.4530 N   0  0  2  0  0  0  0  0  0  0  0  0
   60.5110   29.5050   48.4130 C   0  0  0  0  0  0  0  0  0  0  0  0
   59.0430   31.3100   47.7020 C   0  0  0  0  0  0  0  0  0  0  0  0
   58.8230   32.4600   46.7460 C   0  0  0  0  0  0  0  0  0  0  0  0
   57.8210   32.3810   45.7620 C   0  0  0  0  0  0  0  0  0  0  0  0
   57.6270   33.4370   44.8680 C   0  0  0  0  0  0  0  0  0  0  0  0
   58.4320   34.5770   44.9440 C   0  0  0  0  0  0  0  0  0  0  0  0
   59.4320   34.6630   45.9160 C   0  0  0  0  0  0  0  0  0  0  0  0
   59.6290   33.6100   46.8140 C   0  0  0  0  0  0  0  0  0  0  0  0
   57.9310   28.6380   45.4950 C   0  0  0  0  0  0  0  0  0  0  0  0
   56.6540   28.0700   45.4900 C   0  0  0  0  0  0  0  0  0  0  0  0
   55.6140   28.7670   44.9660 F   0  0  0  0  0  0  0  0  0  0  0  0
   54.6899   24.3154   46.5344 H   0  0  0  0  0  0  0  0  0  0  0  0
   53.9058   24.9062   45.0301 H   0  0  0  0  0  0  0  0  0  0  0  0
   55.6548   24.4967   45.0301 H   0  0  0  0  0  0  0  0  0  0  0  0
   57.3832   25.0743   46.9697 H   0  0  0  0  0  0  0  0  0  0  0  0
   59.6608   26.0838   46.9703 H   0  0  0  0  0  0  0  0  0  0  0  0
   60.9746   28.1355   46.8517 H   0  0  0  0  0  0  0  0  0  0  0  0
   60.8665   28.2426   45.0373 H   0  0  0  0  0  0  0  0  0  0  0  0
   61.3105   30.4433   45.5932 H   0  0  0  0  0  0  0  0  0  0  0  0
   59.4783   30.4013   45.5580 H   0  0  0  0  0  0  0  0  0  0  0  0
   61.1230   31.2800   47.5980 H   0  0  0  0  0  0  0  0  0  0  0  0
   60.4473   29.8952   49.4395 H   0  0  0  0  0  0  0  0  0  0  0  0
   59.7239   28.7526   48.2572 H   0  0  0  0  0  0  0  0  0  0  0  0
   61.4967   29.0422   48.2572 H   0  0  0  0  0  0  0  0  0  0  0  0
   58.2208   30.5888   47.5840 H   0  0  0  0  0  0  0  0  0  0  0  0
   59.0724   31.7196   48.7225 H   0  0  0  0  0  0  0  0  0  0  0  0
   57.1875   31.4841   45.6961 H   0  0  0  0  0  0  0  0  0  0  0  0
   56.8393   33.3711   44.1030 H   0  0  0  0  0  0  0  0  0  0  0  0
   58.2782   35.4067   44.2384 H   0  0  0  0  0  0  0  0  0  0  0  0
   60.0652   35.5606   45.9747 H   0  0  0  0  0  0  0  0  0  0  0  0
   60.4180   33.6814   47.5771 H   0  0  0  0  0  0  0  0  0  0  0  0
   58.0832   29.6455   45.0805 H   0  0  0  0  0  0  0  0  0  0  0  0
  1  2  1  0
  2  3  1  0
  3  4  2  0
  4  5  1  0
  5  6  2  0
  6  7  1  0
  7  8  1  0
  8  9  1  0
  9 10  1  0
  9 11  1  0
 11 12  1  0
 12 13  2  0
 13 14  1  0
 14 15  2  0
 15 16  1  0
 16 17  2  0
  6 18  1  0
 18 19  2  0
 19 20  1  0
 19  3  1  0
 17 12  1  0
  1 21  1  0
  1 22  1  0
  1 23  1  0
  4 24  1  0
  5 25  1  0
  7 26  1  0
  7 27  1  0
  8 28  1  0
  8 29  1  0
  9 30  1  6
 10 31  1  0
 10 32  1  0
 10 33  1  0
 11 34  1  0
 11 35  1  0
 13 36  1  0
 14 37  1  0
 15 38  1  0
 16 39  1  0
 17 40  1  0
 18 41  1  0
M  CHG  1   9   1
M  END
>  <UniqueID>  (65) 
63

>  <SMILES>  (65) 
COc1ccc(CC[N@H+](C)Cc2ccccc2)cc1F

>  <Energy>  (65) 
40.94505414336438

>  <Genealogy>  (65) 
COc1ccc(CC[NH+](C)Cc2ccccc2)cc1F (protonated)
COc1ccc(CC[N@H+](C)Cc2ccccc2)cc1F (chirality)
COc1ccc(CC[N@H+](C)Cc2ccccc2)cc1F (3D coordinates assigned)
COc1ccc(CC[N@H+](C)Cc2ccccc2)cc1F (optimized conformer: 40.94505414336438 kcal/mol)

>  <smiles>  (65) 
COc1ccc(CCN(C)Cc2ccccc2)cc1F

>  <score_type>  (65) 
oracle

>  <origin>  (65) 
adg

>  <m_score__min__energy>  (65) 
-5.3499999999999996

>  <m_primary>  (65) 
energy

$$$$
65:0
     RDKit          3D

 30 31  0  0  0  0  0  0  0  0999 V2000
   59.8980   32.1550   48.2250 N   0  0  0  0  0  0  0  0  0  0  0  0
   60.8880   30.8410   47.6950 S   0  0  0  0  0  0  0  0  0  0  0  0
   61.1570   29.9110   48.8440 O   0  0  0  0  0  0  0  0  0  0  0  0
   62.1990   31.3750   47.1890 O   0  0  0  0  0  0  0  0  0  0  0  0
   60.0600   29.9660   46.4110 C   0  0  0  0  0  0  0  0  0  0  0  0
   60.6650   28.8460   45.8260 C   0  0  0  0  0  0  0  0  0  0  0  0
   60.0090   28.1430   44.8120 C   0  0  0  0  0  0  0  0  0  0  0  0
   58.7460   28.5550   44.3760 C   0  0  0  0  0  0  0  0  0  0  0  0
   58.1330   29.6720   44.9580 C   0  0  0  0  0  0  0  0  0  0  0  0
   56.5490   30.2030   44.3990 S   0  0  0  0  0  0  0  0  0  0  0  0
   56.4570   30.1010   42.9020 O   0  0  0  0  0  0  0  0  0  0  0  0
   55.4970   29.3290   45.0200 O   0  0  0  0  0  0  0  0  0  0  0  0
   56.2680   31.8490   44.8710 N   0  0  0  0  0  0  0  0  0  0  0  0
   57.2830   32.7730   45.2890 C   0  0  0  0  0  0  0  0  0  0  0  0
   58.1780   33.3690   44.3830 C   0  0  0  0  0  0  0  0  0  0  0  0
   59.1550   34.2500   44.8490 C   0  0  0  0  0  0  0  0  0  0  0  0
   59.2290   34.5320   46.2150 C   0  0  0  0  0  0  0  0  0  0  0  0
   58.3530   33.9510   47.0770 N   0  0  0  0  0  0  0  0  0  0  0  0
   57.3930   33.0880   46.6480 C   0  0  0  0  0  0  0  0  0  0  0  0
   58.7880   30.3700   45.9830 C   0  0  0  0  0  0  0  0  0  0  0  0
   60.2380   33.0110   47.7310 H   0  0  0  0  0  0  0  0  0  0  0  0
   58.9310   31.9690   47.8750 H   0  0  0  0  0  0  0  0  0  0  0  0
   61.6589   28.5192   46.1657 H   0  0  0  0  0  0  0  0  0  0  0  0
   60.4872   27.2637   44.3559 H   0  0  0  0  0  0  0  0  0  0  0  0
   58.2334   28.0016   43.5754 H   0  0  0  0  0  0  0  0  0  0  0  0
   58.1083   33.1413   43.3091 H   0  0  0  0  0  0  0  0  0  0  0  0
   59.8605   34.7181   44.1468 H   0  0  0  0  0  0  0  0  0  0  0  0
   59.9959   35.2240   46.5931 H   0  0  0  0  0  0  0  0  0  0  0  0
   56.7000   32.6357   47.3727 H   0  0  0  0  0  0  0  0  0  0  0  0
   58.3017   31.2377   46.4527 H   0  0  0  0  0  0  0  0  0  0  0  0
  1  2  1  0
  2  3  2  0
  2  4  2  0
  2  5  1  0
  5  6  2  0
  6  7  1  0
  7  8  2  0
  8  9  1  0
  9 10  1  0
 10 11  2  0
 10 12  2  0
 10 13  1  0
 13 14  1  0
 14 15  2  0
 15 16  1  0
 16 17  2  0
 17 18  1  0
 18 19  2  0
  9 20  2  0
 20  5  1  0
 19 14  1  0
  1 21  1  0
  1 22  1  0
  6 23  1  0
  7 24  1  0
  8 25  1  0
 15 26  1  0
 16 27  1  0
 17 28  1  0
 19 29  1  0
 20 30  1  0
M  CHG  1  13  -1
M  END
>  <UniqueID>  (66) 
64

>  <SMILES>  (66) 
NS(=O)(=O)c1cccc(S(=O)(=O)[N-]c2cccnc2)c1

>  <Energy>  (66) 
32.859664278406015

>  <Genealogy>  (66) 
NS(=O)(=O)c1cccc(S(=O)(=O)[N-]c2cccnc2)c1 (protonated)
NS(=O)(=O)c1cccc(S(=O)(=O)[N-]c2cccnc2)c1 (3D coordinates assigned)
NS(=O)(=O)c1cccc(S(=O)(=O)[N-]c2cccnc2)c1 (optimized conformer: 32.859664278406015 kcal/mol)

>  <smiles>  (66) 
NS(=O)(=O)c1cccc(S(=O)(=O)Nc2cccnc2)c1

>  <score_type>  (66) 
oracle

>  <origin>  (66) 
adg

>  <m_score__min__energy>  (66) 
-9.7100000000000009

>  <m_primary>  (66) 
energy

$$$$
66:0
     RDKit          3D

 50 53  0  0  0  0  0  0  0  0999 V2000
   51.4363   31.9175   53.9877 H   0  0  0  0  0  0  0  0  0  0  0  0
   51.9810   31.2270   53.3270 C   0  0  0  0  0  0  0  0  0  0  0  0
   52.9030   30.4610   53.8290 N   0  0  0  0  0  0  0  0  0  0  0  0
   54.3080   30.4980   53.5270 C   0  0  0  0  0  0  0  0  0  0  0  0
   55.2990   30.1150   54.4530 C   0  0  0  0  0  0  0  0  0  0  0  0
   55.0080   29.7824   55.4603 H   0  0  0  0  0  0  0  0  0  0  0  0
   56.6500   30.1560   54.0970 C   0  0  0  0  0  0  0  0  0  0  0  0
   57.4178   29.8703   54.8311 H   0  0  0  0  0  0  0  0  0  0  0  0
   57.0330   30.5600   52.8070 C   0  0  0  0  0  0  0  0  0  0  0  0
   58.3800   30.6280   52.4180 O   0  0  0  0  0  0  0  0  0  0  0  0
   58.9620   29.8970   51.3720 C   0  0  0  0  0  0  0  0  0  0  0  0
   60.1430   29.1900   51.6210 C   0  0  0  0  0  0  0  0  0  0  0  0
   60.5876   29.2062   52.6270 H   0  0  0  0  0  0  0  0  0  0  0  0
   60.7620   28.4630   50.6000 C   0  0  0  0  0  0  0  0  0  0  0  0
   61.6845   27.9025   50.8119 H   0  0  0  0  0  0  0  0  0  0  0  0
   60.2180   28.4420   49.3100 C   0  0  0  0  0  0  0  0  0  0  0  0
   60.8930   27.6890   48.2920 N   0  0  0  0  0  0  0  0  0  0  0  0
   60.3200   27.1780   47.2730 C   0  0  0  0  0  0  0  0  0  0  0  0
   59.7630   26.6730   46.2450 N   0  0  0  0  0  0  0  0  0  0  0  0
   58.3180   26.7100   46.0350 C   0  0  0  0  0  0  0  0  0  0  0  0
   58.0343   25.8921   45.3564 H   0  0  0  0  0  0  0  0  0  0  0  0
   57.8241   26.5975   47.0114 H   0  0  0  0  0  0  0  0  0  0  0  0
   57.8800   28.0250   45.4300 C   0  0  0  0  0  0  0  0  0  0  0  0
   58.8490   28.9450   44.9900 C   0  0  0  0  0  0  0  0  0  0  0  0
   59.9174   28.7061   45.0967 H   0  0  0  0  0  0  0  0  0  0  0  0
   58.4630   30.1610   44.4180 C   0  0  0  0  0  0  0  0  0  0  0  0
   59.2275   30.8801   44.0888 H   0  0  0  0  0  0  0  0  0  0  0  0
   57.1090   30.4640   44.2640 C   0  0  0  0  0  0  0  0  0  0  0  0
   56.8078   31.4239   43.8192 H   0  0  0  0  0  0  0  0  0  0  0  0
   56.1370   29.5500   44.6740 C   0  0  0  0  0  0  0  0  0  0  0  0
   55.0711   29.7899   44.5464 H   0  0  0  0  0  0  0  0  0  0  0  0
   56.5130   28.3290   45.2470 C   0  0  0  0  0  0  0  0  0  0  0  0
   55.5250   27.4270   45.6230 O   0  0  0  0  0  0  0  0  0  0  0  0
   59.0360   29.1630   49.0550 C   0  0  0  0  0  0  0  0  0  0  0  0
   58.5957   29.1524   48.0470 H   0  0  0  0  0  0  0  0  0  0  0  0
   58.4190   29.8920   50.0750 C   0  0  0  0  0  0  0  0  0  0  0  0
   57.5042   30.4646   49.8623 H   0  0  0  0  0  0  0  0  0  0  0  0
   56.0500   30.9500   51.8930 C   0  0  0  0  0  0  0  0  0  0  0  0
   56.3425   31.2932   50.8897 H   0  0  0  0  0  0  0  0  0  0  0  0
   54.6980   30.9070   52.2450 C   0  0  0  0  0  0  0  0  0  0  0  0
   53.9335   31.1968   51.5091 H   0  0  0  0  0  0  0  0  0  0  0  0
   51.6470   31.1900   51.8800 C   0  0  0  0  0  0  0  0  0  0  0  0
   51.0550   32.3120   51.2690 C   0  0  0  0  0  0  0  0  0  0  0  0
   50.7810   33.4620   52.0030 O   0  0  0  0  0  0  0  0  0  0  0  0
   50.7430   32.2850   49.9490 N   0  0  0  0  0  0  0  0  0  0  0  0
   50.9890   31.1890   49.1900 C   0  0  0  0  0  0  0  0  0  0  0  0
   50.6910   31.1890   47.9680 O   0  0  0  0  0  0  0  0  0  0  0  0
   51.5580   30.0920   49.7480 N   0  0  0  0  0  0  0  0  0  0  0  0
   51.8920   30.0620   51.0640 C   0  0  0  0  0  0  0  0  0  0  0  0
   52.4190   29.0180   51.5330 O   0  0  0  0  0  0  0  0  0  0  0  0
  1  2  1  0
  2  3  2  0
  3  4  1  0
  4  5  2  0
  5  6  1  0
  5  7  1  0
  7  8  1  0
  7  9  2  0
  9 10  1  0
 10 11  1  0
 11 12  2  0
 12 13  1  0
 12 14  1  0
 14 15  1  0
 14 16  2  0
 16 17  1  0
 17 18  2  0
 18 19  2  0
 19 20  1  0
 20 21  1  0
 20 22  1  0
 20 23  1  0
 23 24  2  0
 24 25  1  0
 24 26  1  0
 26 27  1  0
 26 28  2  0
 28 29  1  0
 28 30  1  0
 30 31  1  0
 30 32  2  0
 32 33  1  0
 16 34  1  0
 34 35  1  0
 34 36  2  0
 36 37  1  0
  9 38  1  0
 38 39  1  0
 38 40  2  0
 40 41  1  0
  2 42  1  0
 42 43  2  0
 43 44  1  0
 43 45  1  0
 45 46  1  0
 46 47  2  0
 46 48  1  0
 48 49  1  0
 49 50  2  0
 40  4  1  0
 49 42  1  0
 36 11  1  0
 32 23  1  0
M  CHG  4  33  -1  44  -1  45  -1  48  -1
M  END
>  <UniqueID>  (67) 
65

>  <SMILES>  (67) 
O=c1[n-]c([O-])c(/C=N/c2ccc(Oc3ccc(N=C=NCc4ccccc4[O-])cc3)cc2)c(=O)[n-]1

>  <Energy>  (67) 
67.35673278082133

>  <Genealogy>  (67) 
O=c1[n-]c([O-])c(C=Nc2ccc(Oc3ccc(N=C=NCc4ccccc4[O-])cc3)cc2)c(=O)[n-]1 (protonated)
O=c1[n-]c([O-])c(/C=N/c2ccc(Oc3ccc(N=C=NCc4ccccc4[O-])cc3)cc2)c(=O)[n-]1 (cis-trans isomerization)
O=c1[n-]c([O-])c(/C=N/c2ccc(Oc3ccc(N=C=NCc4ccccc4[O-])cc3)cc2)c(=O)[n-]1 (3D coordinates assigned)
O=c1[n-]c([O-])c(/C=N/c2ccc(Oc3ccc(N=C=NCc4ccccc4[O-])cc3)cc2)c(=O)[n-]1 (optimized conformer: 67.35673278082133 kcal/mol)

>  <smiles>  (67) 
O=c1[nH]c(O)c(C=Nc2ccc(Oc3ccc(N=C=NCc4ccccc4O)cc3)cc2)c(=O)[nH]1

>  <score_type>  (67) 
oracle

>  <origin>  (67) 
adg

>  <m_score__min__energy>  (67) 
-21.129999999999999

>  <m_primary>  (67) 
energy

$$$$
67:0
     RDKit          3D

 48 51  0  0  0  0  0  0  0  0999 V2000
   55.9020   28.0670   44.7460 H   0  0  0  0  0  0  0  0  0  0  0  0
   55.8940   27.5320   45.6070 O   0  0  0  0  0  0  0  0  0  0  0  0
   56.5400   26.3010   45.7100 C   0  0  0  0  0  0  0  0  0  0  0  0
   56.2720   25.4610   46.7990 C   0  0  0  0  0  0  0  0  0  0  0  0
   55.5555   25.7793   47.5706 H   0  0  0  0  0  0  0  0  0  0  0  0
   56.9070   24.2240   46.9120 C   0  0  0  0  0  0  0  0  0  0  0  0
   56.6868   23.5737   47.7714 H   0  0  0  0  0  0  0  0  0  0  0  0
   57.8210   23.8050   45.9410 C   0  0  0  0  0  0  0  0  0  0  0  0
   58.4350   22.5540   46.1010 O   0  0  0  0  0  0  0  0  0  0  0  0
   58.4620   21.5370   45.1040 C   0  0  0  0  0  0  0  0  0  0  0  0
   58.4882   20.5496   45.5881 H   0  0  0  0  0  0  0  0  0  0  0  0
   57.5615   21.6142   44.4770 H   0  0  0  0  0  0  0  0  0  0  0  0
   59.3571   21.6619   44.4770 H   0  0  0  0  0  0  0  0  0  0  0  0
   58.0930   24.6450   44.8440 C   0  0  0  0  0  0  0  0  0  0  0  0
   58.8100   24.3216   44.0750 H   0  0  0  0  0  0  0  0  0  0  0  0
   57.4570   25.8930   44.7220 C   0  0  0  0  0  0  0  0  0  0  0  0
   57.7930   26.7940   43.5580 C   0  0  0  0  0  0  0  0  0  0  0  0
   58.5917   26.3302   42.9606 H   0  0  0  0  0  0  0  0  0  0  0  0
   56.8906   26.9323   42.9444 H   0  0  0  0  0  0  0  0  0  0  0  0
   58.2470   28.1060   44.0350 N   0  0  0  0  0  0  0  0  0  0  0  0
   57.4790   29.2970   43.7680 C   0  0  0  0  0  0  0  0  0  0  0  0
   56.4620   29.2730   43.0240 O   0  0  0  0  0  0  0  0  0  0  0  0
   57.9010   30.5350   44.4170 C   0  0  0  0  0  0  0  0  0  0  0  0
   57.3730   31.8030   44.2810 C   0  0  0  0  0  0  0  0  0  0  0  0
   56.5527   32.1162   43.6184 H   0  0  0  0  0  0  0  0  0  0  0  0
   58.0970   32.5990   45.1580 C   0  0  0  0  0  0  0  0  0  0  0  0
   57.9020   34.0470   45.3720 C   0  0  0  0  0  0  0  0  0  0  0  0
   56.8240   34.5820   44.9980 O   0  0  0  0  0  0  0  0  0  0  0  0
   58.9260   34.8800   45.9390 N   0  0  0  0  0  0  0  0  0  0  0  0
   59.7390   34.5410   46.8960 C   0  0  0  0  0  0  0  0  0  0  0  0
   61.0040   34.1040   46.6270 N   0  0  0  0  0  0  0  0  0  0  0  0
   61.8650   33.7360   47.6110 C   0  0  0  0  0  0  0  0  0  0  0  0
   63.6240   33.1580   47.1560 Br  0  0  0  0  0  0  0  0  0  0  0  0
   61.4600   33.7840   48.9470 C   0  0  0  0  0  0  0  0  0  0  0  0
   62.1517   33.4881   49.7495 H   0  0  0  0  0  0  0  0  0  0  0  0
   60.1670   34.2120   49.2510 C   0  0  0  0  0  0  0  0  0  0  0  0
   59.8327   34.2518   50.2982 H   0  0  0  0  0  0  0  0  0  0  0  0
   59.2970   34.5900   48.2250 C   0  0  0  0  0  0  0  0  0  0  0  0
   58.2749   34.9229   48.4582 H   0  0  0  0  0  0  0  0  0  0  0  0
   59.0380   31.7840   45.7740 C   0  0  0  0  0  0  0  0  0  0  0  0
   59.7704   32.1101   46.5271 H   0  0  0  0  0  0  0  0  0  0  0  0
   58.9090   30.5320   45.3010 N   0  0  0  0  0  0  0  0  0  0  0  0
   59.5870   29.3220   45.7640 C   0  0  0  0  0  0  0  0  0  0  0  0
   59.0677   28.9326   46.6521 H   0  0  0  0  0  0  0  0  0  0  0  0
   60.6290   29.5700   46.0145 H   0  0  0  0  0  0  0  0  0  0  0  0
   59.5800   28.2460   44.6580 C   0  0  0  0  0  0  0  0  0  0  0  0
   59.8699   27.2808   45.0988 H   0  0  0  0  0  0  0  0  0  0  0  0
   60.2910   28.5543   43.8773 H   0  0  0  0  0  0  0  0  0  0  0  0
  1  2  1  0
  2  3  1  0
  3  4  2  0
  4  5  1  0
  4  6  1  0
  6  7  1  0
  6  8  2  0
  8  9  1  0
  9 10  1  0
 10 11  1  0
 10 12  1  0
 10 13  1  0
  8 14  1  0
 14 15  1  0
 14 16  2  0
 16 17  1  0
 17 18  1  0
 17 19  1  0
 17 20  1  0
 20 21  1  0
 21 22  2  0
 21 23  1  0
 23 24  2  0
 24 25  1  0
 24 26  1  0
 26 27  1  0
 27 28  2  0
 27 29  1  0
 29 30  2  0
 30 31  1  0
 31 32  1  0
 32 33  1  0
 32 34  2  0
 34 35  1  0
 34 36  1  0
 36 37  1  0
 36 38  2  0
 38 39  1  0
 26 40  2  0
 40 41  1  0
 40 42  1  0
 42 43  1  0
 43 44  1  0
 43 45  1  0
 43 46  1  0
 46 47  1  0
 46 48  1  0
 16  3  1  0
 46 20  1  0
 42 23  1  0
 38 30  1  0
M  CHG  1  31  -1
M  END
>  <UniqueID>  (68) 
66

>  <SMILES>  (68) 
COc1ccc(O)c(CN2CCn3cc(C(=O)/N=c4/cccc(Br)[n-]4)cc3C2=O)c1

>  <Energy>  (68) 
84.38588430077608

>  <Genealogy>  (68) 
COc1ccc(O)c(CN2CCn3cc(C(=O)N=c4cccc(Br)[n-]4)cc3C2=O)c1 (protonated)
COc1ccc(O)c(CN2CCn3cc(C(=O)/N=c4/cccc(Br)[n-]4)cc3C2=O)c1 (cis-trans isomerization)
COc1ccc(O)c(CN2CCn3cc(C(=O)/N=c4/cccc(Br)[n-]4)cc3C2=O)c1 (3D coordinates assigned)
COc1ccc(O)c(CN2CCn3cc(C(=O)/N=c4/cccc(Br)[n-]4)cc3C2=O)c1 (nonaromatic ring conformer: 84.38588430077608 kcal/mol)

>  <smiles>  (68) 
COc1ccc(O)c(CN2CCn3cc(C(=O)N=c4cccc(Br)[nH]4)cc3C2=O)c1

>  <score_type>  (68) 
oracle

>  <origin>  (68) 
adg

>  <m_score__min__energy>  (68) 
-10.57

>  <m_primary>  (68) 
energy

$$$$
68:0
     RDKit          3D

 49 52  0  0  0  0  0  0  0  0999 V2000
   57.4040   31.6330   42.8070 C   0  0  0  0  0  0  0  0  0  0  0  0
   56.9540   30.8240   43.8870 O   0  0  0  0  0  0  0  0  0  0  0  0
   57.7150   29.8080   44.4880 C   0  0  0  0  0  0  0  0  0  0  0  0
   59.1180   29.8590   44.5570 C   0  0  0  0  0  0  0  0  0  0  0  0
   59.8290   28.8270   45.1730 C   0  0  0  0  0  0  0  0  0  0  0  0
   59.1560   27.7280   45.7310 C   0  0  0  0  0  0  0  0  0  0  0  0
   60.0840   26.4440   46.5130 S   0  0  0  0  0  0  0  0  0  0  0  0
   61.4970   26.4770   46.0020 O   0  0  0  0  0  0  0  0  0  0  0  0
   59.4500   25.1170   46.1990 O   0  0  0  0  0  0  0  0  0  0  0  0
   60.0920   26.6720   48.2320 N   0  0  0  0  0  0  0  0  0  0  0  0
   59.9420   27.9320   48.8990 C   0  0  0  0  0  0  0  0  0  0  0  0
   58.8070   28.7050   48.6240 C   0  0  0  0  0  0  0  0  0  0  0  0
   58.6180   29.9360   49.2560 C   0  0  0  0  0  0  0  0  0  0  0  0
   59.5700   30.4190   50.1670 C   0  0  0  0  0  0  0  0  0  0  0  0
   59.3700   31.7280   50.8330 C   0  0  0  0  0  0  0  0  0  0  0  0
   59.2280   31.7650   52.2290 C   0  0  0  0  0  0  0  0  0  0  0  0
   59.1270   32.9840   52.8960 C   0  0  0  0  0  0  0  0  0  0  0  0
   59.1670   34.1680   52.1640 C   0  0  0  0  0  0  0  0  0  0  0  0
   59.2830   34.1280   50.8120 N   0  0  0  0  0  0  0  0  0  0  0  0
   59.3730   32.9570   50.1210 C   0  0  0  0  0  0  0  0  0  0  0  0
   59.4440   33.0250   48.6430 C   0  0  0  0  0  0  0  0  0  0  0  0
   58.2910   32.8670   47.8540 C   0  0  0  0  0  0  0  0  0  0  0  0
   58.3730   32.9440   46.4590 C   0  0  0  0  0  0  0  0  0  0  0  0
   59.6020   33.1930   45.8440 C   0  0  0  0  0  0  0  0  0  0  0  0
   60.7490   33.3740   46.6210 C   0  0  0  0  0  0  0  0  0  0  0  0
   60.6710   33.2980   48.0150 C   0  0  0  0  0  0  0  0  0  0  0  0
   60.7030   29.6400   50.4530 C   0  0  0  0  0  0  0  0  0  0  0  0
   60.8910   28.4080   49.8210 C   0  0  0  0  0  0  0  0  0  0  0  0
   57.7490   27.6710   45.6520 C   0  0  0  0  0  0  0  0  0  0  0  0
   56.7380   26.2040   46.3650 Br  0  0  0  0  0  0  0  0  0  0  0  0
   57.0440   28.7110   45.0350 C   0  0  0  0  0  0  0  0  0  0  0  0
   57.9028   32.5297   43.2035 H   0  0  0  0  0  0  0  0  0  0  0  0
   58.1135   31.0609   42.1911 H   0  0  0  0  0  0  0  0  0  0  0  0
   56.5437   31.9341   42.1911 H   0  0  0  0  0  0  0  0  0  0  0  0
   59.6575   30.7145   44.1244 H   0  0  0  0  0  0  0  0  0  0  0  0
   60.9269   28.8754   45.2216 H   0  0  0  0  0  0  0  0  0  0  0  0
   58.0589   28.3399   47.9049 H   0  0  0  0  0  0  0  0  0  0  0  0
   57.7182   30.5301   49.0386 H   0  0  0  0  0  0  0  0  0  0  0  0
   59.1963   30.8254   52.8001 H   0  0  0  0  0  0  0  0  0  0  0  0
   59.0167   33.0109   53.9901 H   0  0  0  0  0  0  0  0  0  0  0  0
   59.1045   35.1365   52.6818 H   0  0  0  0  0  0  0  0  0  0  0  0
   57.3195   32.6819   48.3356 H   0  0  0  0  0  0  0  0  0  0  0  0
   57.4693   32.8084   45.8468 H   0  0  0  0  0  0  0  0  0  0  0  0
   59.6670   33.2466   44.7472 H   0  0  0  0  0  0  0  0  0  0  0  0
   61.7149   33.5766   46.1353 H   0  0  0  0  0  0  0  0  0  0  0  0
   61.5746   33.4527   48.6230 H   0  0  0  0  0  0  0  0  0  0  0  0
   61.4465   30.0017   51.1785 H   0  0  0  0  0  0  0  0  0  0  0  0
   61.7852   27.8080   50.0457 H   0  0  0  0  0  0  0  0  0  0  0  0
   55.9464   28.6641   44.9799 H   0  0  0  0  0  0  0  0  0  0  0  0
  1  2  1  0
  2  3  1  0
  3  4  2  0
  4  5  1  0
  5  6  2  0
  6  7  1  0
  7  8  2  0
  7  9  2  0
  7 10  1  0
 10 11  1  0
 11 12  2  0
 12 13  1  0
 13 14  2  0
 14 15  1  0
 15 16  2  0
 16 17  1  0
 17 18  2  0
 18 19  1  0
 19 20  2  0
 20 21  1  0
 21 22  2  0
 22 23  1  0
 23 24  2  0
 24 25  1  0
 25 26  2  0
 14 27  1  0
 27 28  2  0
  6 29  1  0
 29 30  1  0
 29 31  2  0
 31  3  1  0
 28 11  1  0
 20 15  1  0
 26 21  1  0
  1 32  1  0
  1 33  1  0
  1 34  1  0
  4 35  1  0
  5 36  1  0
 12 37  1  0
 13 38  1  0
 16 39  1  0
 17 40  1  0
 18 41  1  0
 22 42  1  0
 23 43  1  0
 24 44  1  0
 25 45  1  0
 26 46  1  0
 27 47  1  0
 28 48  1  0
 31 49  1  0
M  CHG  1  10  -1
M  END
>  <UniqueID>  (69) 
67

>  <SMILES>  (69) 
COc1ccc(S(=O)(=O)[N-]c2ccc(-c3cccnc3-c3ccccc3)cc2)c(Br)c1

>  <Energy>  (69) 
71.92631098559805

>  <Genealogy>  (69) 
COc1ccc(S(=O)(=O)[N-]c2ccc(-c3cccnc3-c3ccccc3)cc2)c(Br)c1 (protonated)
COc1ccc(S(=O)(=O)[N-]c2ccc(-c3cccnc3-c3ccccc3)cc2)c(Br)c1 (3D coordinates assigned)
COc1ccc(S(=O)(=O)[N-]c2ccc(-c3cccnc3-c3ccccc3)cc2)c(Br)c1 (optimized conformer: 71.92631098559805 kcal/mol)

>  <smiles>  (69) 
COc1ccc(S(=O)(=O)Nc2ccc(-c3cccnc3-c3ccccc3)cc2)c(Br)c1

>  <score_type>  (69) 
oracle

>  <origin>  (69) 
adg

>  <m_score__min__energy>  (69) 
-10.76

>  <m_primary>  (69) 
energy

$$$$
69:0
     RDKit          3D

 23 24  0  0  0  0  0  0  0  0999 V2000
   58.4550   21.8620   43.6590 O   0  0  0  0  0  0  0  0  0  0  0  0
   56.9700   21.9180   43.8800 S   0  0  0  0  0  0  0  0  0  0  0  0
   56.2620   20.9620   42.9610 O   0  0  0  0  0  0  0  0  0  0  0  0
   56.5470   21.6130   45.5640 C   0  0  0  0  0  0  0  0  0  0  0  0
   55.4830   22.6500   45.9080 C   0  0  0  0  0  0  0  0  0  0  0  0
   55.6800   23.9210   45.0530 C   0  0  1  0  0  0  0  0  0  0  0  0
   56.4460   24.9410   45.7910 N   0  0  0  0  0  0  0  0  0  0  0  0
   57.7480   24.8540   46.1340 C   0  0  0  0  0  0  0  0  0  0  0  0
   58.5480   23.7450   45.8840 O   0  0  0  0  0  0  0  0  0  0  0  0
   58.1840   26.0080   46.7530 C   0  0  0  0  0  0  0  0  0  0  0  0
   57.0970   26.8590   46.7830 C   0  0  0  0  0  0  0  0  0  0  0  0
   56.0590   26.1780   46.1810 C   0  0  0  0  0  0  0  0  0  0  0  0
   54.7850   26.6990   46.0010 O   0  0  0  0  0  0  0  0  0  0  0  0
   56.3380   23.5600   43.7070 C   0  0  0  0  0  0  0  0  0  0  0  0
   56.1454   20.5957   45.6819 H   0  0  0  0  0  0  0  0  0  0  0  0
   57.4221   21.6894   46.2261 H   0  0  0  0  0  0  0  0  0  0  0  0
   54.4869   22.2285   45.7080 H   0  0  0  0  0  0  0  0  0  0  0  0
   55.5719   22.9159   46.9717 H   0  0  0  0  0  0  0  0  0  0  0  0
   54.6951   24.3599   44.8354 H   0  0  0  0  0  0  0  0  0  0  0  0
   59.1926   26.2090   47.1432 H   0  0  0  0  0  0  0  0  0  0  0  0
   57.0651   27.8754   47.2025 H   0  0  0  0  0  0  0  0  0  0  0  0
   55.5934   23.5971   42.8982 H   0  0  0  0  0  0  0  0  0  0  0  0
   57.1395   24.2695   43.4536 H   0  0  0  0  0  0  0  0  0  0  0  0
  1  2  2  0
  2  3  2  0
  2  4  1  0
  4  5  1  0
  5  6  1  0
  6  7  1  0
  7  8  1  0
  8  9  1  0
  8 10  2  0
 10 11  1  0
 11 12  2  0
 12 13  1  0
  6 14  1  0
 14  2  1  0
 12  7  1  0
  4 15  1  0
  4 16  1  0
  5 17  1  0
  5 18  1  0
  6 19  1  6
 10 20  1  0
 11 21  1  0
 14 22  1  0
 14 23  1  0
M  CHG  2   9  -1  13  -1
M  END
>  <UniqueID>  (70) 
68

>  <SMILES>  (70) 
O=S1(=O)CC[C@@H](n2c([O-])ccc2[O-])C1

>  <Energy>  (70) 
50.76210420500303

>  <Genealogy>  (70) 
O=S1(=O)CCC(n2c([O-])ccc2[O-])C1 (protonated)
O=S1(=O)CC[C@@H](n2c([O-])ccc2[O-])C1 (chirality)
O=S1(=O)CC[C@@H](n2c([O-])ccc2[O-])C1 (3D coordinates assigned)
O=S1(=O)CC[C@@H](n2c([O-])ccc2[O-])C1 (nonaromatic ring conformer: 50.76210420500303 kcal/mol)

>  <smiles>  (70) 
O=S1(=O)CCC(n2c(O)ccc2O)C1

>  <score_type>  (70) 
oracle

>  <origin>  (70) 
adg

>  <m_score__min__energy>  (70) 
-10.31

>  <m_primary>  (70) 
energy

$$$$
70:0
     RDKit          3D

 38 40  0  0  0  0  0  0  0  0999 V2000
   59.1999   35.3736   47.0127 H   0  0  0  0  0  0  0  0  0  0  0  0
   58.8180   34.5950   46.3360 C   0  0  0  0  0  0  0  0  0  0  0  0
   59.3400   34.4740   45.0450 C   0  0  0  0  0  0  0  0  0  0  0  0
   60.1284   35.1612   44.7041 H   0  0  0  0  0  0  0  0  0  0  0  0
   58.8600   33.4790   44.1860 C   0  0  0  0  0  0  0  0  0  0  0  0
   59.2637   33.3949   43.1662 H   0  0  0  0  0  0  0  0  0  0  0  0
   57.8640   32.5860   44.6200 C   0  0  0  0  0  0  0  0  0  0  0  0
   57.4020   31.4560   43.7290 C   0  0  0  0  0  0  0  0  0  0  0  0
   58.2843   30.9185   43.3514 H   0  0  0  0  0  0  0  0  0  0  0  0
   56.8173   31.8912   42.9052 H   0  0  0  0  0  0  0  0  0  0  0  0
   56.5140   30.4790   44.4650 C   0  0  0  0  0  0  0  0  0  0  0  0
   55.2770   30.4810   44.2320 O   0  0  0  0  0  0  0  0  0  0  0  0
   57.0300   29.6110   45.4840 N   0  0  0  0  0  0  0  0  0  0  0  0
   58.2690   29.5560   45.8740 C   0  0  0  0  0  0  0  0  0  0  0  0
   58.6360   29.7930   47.1450 N   0  0  0  0  0  0  0  0  0  0  0  0
   59.9580   29.7450   47.1780 N   0  0  0  0  0  0  0  0  0  0  0  0
   60.7470   30.1930   48.3190 C   0  0  0  0  0  0  0  0  0  0  0  0
   60.0826   30.3814   49.1752 H   0  0  0  0  0  0  0  0  0  0  0  0
   61.4779   29.4175   48.5917 H   0  0  0  0  0  0  0  0  0  0  0  0
   61.4680   31.4630   47.9510 C   0  0  0  0  0  0  0  0  0  0  0  0
   62.7610   31.3980   47.4050 C   0  0  0  0  0  0  0  0  0  0  0  0
   63.2097   30.4200   47.1767 H   0  0  0  0  0  0  0  0  0  0  0  0
   63.4810   32.5700   47.1500 C   0  0  0  0  0  0  0  0  0  0  0  0
   64.4898   32.5117   46.7152 H   0  0  0  0  0  0  0  0  0  0  0  0
   62.9200   33.8140   47.4470 C   0  0  0  0  0  0  0  0  0  0  0  0
   63.4862   34.7350   47.2442 H   0  0  0  0  0  0  0  0  0  0  0  0
   61.6390   33.8890   48.0020 C   0  0  0  0  0  0  0  0  0  0  0  0
   61.1996   34.8698   48.2366 H   0  0  0  0  0  0  0  0  0  0  0  0
   60.9140   32.7200   48.2600 C   0  0  0  0  0  0  0  0  0  0  0  0
   59.6840   32.8160   48.8240 F   0  0  0  0  0  0  0  0  0  0  0  0
   60.4430   29.4800   45.9490 C   0  0  0  0  0  0  0  0  0  0  0  0
   61.5070   29.3917   45.6842 H   0  0  0  0  0  0  0  0  0  0  0  0
   59.3830   29.3380   45.0790 C   0  0  0  0  0  0  0  0  0  0  0  0
   59.4142   29.1058   44.0042 H   0  0  0  0  0  0  0  0  0  0  0  0
   57.3330   32.7280   45.9140 C   0  0  0  0  0  0  0  0  0  0  0  0
   56.5376   32.0500   46.2571 H   0  0  0  0  0  0  0  0  0  0  0  0
   57.8120   33.7280   46.7670 C   0  0  0  0  0  0  0  0  0  0  0  0
   57.3951   33.8315   47.7797 H   0  0  0  0  0  0  0  0  0  0  0  0
  1  2  1  0
  2  3  2  0
  3  4  1  0
  3  5  1  0
  5  6  1  0
  5  7  2  0
  7  8  1  0
  8  9  1  0
  8 10  1  0
  8 11  1  0
 11 12  2  0
 11 13  1  0
 13 14  2  0
 14 15  1  0
 15 16  1  0
 16 17  1  0
 17 18  1  0
 17 19  1  0
 17 20  1  0
 20 21  2  0
 21 22  1  0
 21 23  1  0
 23 24  1  0
 23 25  2  0
 25 26  1  0
 25 27  1  0
 27 28  1  0
 27 29  2  0
 29 30  1  0
 16 31  1  0
 31 32  1  0
 31 33  2  0
 33 34  1  0
  7 35  1  0
 35 36  1  0
 35 37  2  0
 37 38  1  0
 37  2  1  0
 33 14  1  0
 29 20  1  0
M  CHG  1  15  -1
M  END
>  <UniqueID>  (71) 
69

>  <SMILES>  (71) 
O=C(Cc1ccccc1)/N=c1\ccn(Cc2ccccc2F)[n-]1

>  <Energy>  (71) 
74.74004043119844

>  <Genealogy>  (71) 
O=C(Cc1ccccc1)N=c1ccn(Cc2ccccc2F)[n-]1 (protonated)
O=C(Cc1ccccc1)/N=c1\ccn(Cc2ccccc2F)[n-]1 (cis-trans isomerization)
O=C(Cc1ccccc1)/N=c1\ccn(Cc2ccccc2F)[n-]1 (3D coordinates assigned)
O=C(Cc1ccccc1)/N=c1\ccn(Cc2ccccc2F)[n-]1 (optimized conformer: 74.74004043119844 kcal/mol)

>  <smiles>  (71) 
O=C(Cc1ccccc1)N=c1ccn(Cc2ccccc2F)[nH]1

>  <score_type>  (71) 
oracle

>  <origin>  (71) 
adg

>  <m_score__min__energy>  (71) 
-9.6099999999999994

>  <m_primary>  (71) 
energy

$$$$
71:0
     RDKit          3D

 38 40  0  0  0  0  0  0  0  0999 V2000
   58.1948   33.5832   47.5904 H   0  0  0  0  0  0  0  0  0  0  0  0
   58.1100   33.3190   46.5260 C   0  0  0  0  0  0  0  0  0  0  0  0
   57.4060   32.2180   46.1520 N   0  0  0  0  0  0  0  0  0  0  0  0
   57.2800   31.8480   44.8450 C   0  0  0  0  0  0  0  0  0  0  0  0
   56.5890   30.7980   44.5040 N   0  0  0  0  0  0  0  0  0  0  0  0
   56.7430   29.4680   45.0250 C   0  0  0  0  0  0  0  0  0  0  0  0
   55.7140   28.7570   45.1730 O   0  0  0  0  0  0  0  0  0  0  0  0
   58.0750   28.8800   45.3070 C   0  0  0  0  0  0  0  0  0  0  0  0
   59.1790   29.7340   45.4740 C   0  0  0  0  0  0  0  0  0  0  0  0
   59.0382   30.8237   45.4229 H   0  0  0  0  0  0  0  0  0  0  0  0
   60.4520   29.2110   45.7040 C   0  0  0  0  0  0  0  0  0  0  0  0
   61.3090   29.8884   45.8334 H   0  0  0  0  0  0  0  0  0  0  0  0
   60.6390   27.8320   45.7700 C   0  0  0  0  0  0  0  0  0  0  0  0
   61.6430   27.4223   45.9548 H   0  0  0  0  0  0  0  0  0  0  0  0
   59.5540   26.9690   45.6020 C   0  0  0  0  0  0  0  0  0  0  0  0
   59.7076   25.8816   45.6642 H   0  0  0  0  0  0  0  0  0  0  0  0
   58.2670   27.4780   45.3540 C   0  0  0  0  0  0  0  0  0  0  0  0
   57.1440   26.5830   45.2550 N   0  0  0  0  0  0  0  0  0  0  0  0
   56.2910   26.9320   44.7640 H   0  0  0  0  0  0  0  0  0  0  0  0
   57.1410   25.2540   45.8020 C   0  0  0  0  0  0  0  0  0  0  0  0
   58.1740   24.7980   46.3640 O   0  0  0  0  0  0  0  0  0  0  0  0
   55.9310   24.4060   45.7310 C   0  0  0  0  0  0  0  0  0  0  0  0
   56.0760   23.0110   45.6390 C   0  0  0  0  0  0  0  0  0  0  0  0
   57.0823   22.5675   45.6132 H   0  0  0  0  0  0  0  0  0  0  0  0
   54.9520   22.1830   45.5800 C   0  0  0  0  0  0  0  0  0  0  0  0
   55.0766   21.0920   45.5145 H   0  0  0  0  0  0  0  0  0  0  0  0
   53.6710   22.7380   45.6040 C   0  0  0  0  0  0  0  0  0  0  0  0
   52.7871   22.0843   45.5678 H   0  0  0  0  0  0  0  0  0  0  0  0
   53.5130   24.1240   45.6740 C   0  0  0  0  0  0  0  0  0  0  0  0
   52.5029   24.5593   45.6891 H   0  0  0  0  0  0  0  0  0  0  0  0
   54.6330   24.9620   45.7250 C   0  0  0  0  0  0  0  0  0  0  0  0
   54.4430   26.3390   45.7380 O   0  0  0  0  0  0  0  0  0  0  0  0
   57.8760   32.6300   43.8490 C   0  0  0  0  0  0  0  0  0  0  0  0
   57.7713   32.3523   42.7898 H   0  0  0  0  0  0  0  0  0  0  0  0
   58.6050   33.7660   44.2100 C   0  0  0  0  0  0  0  0  0  0  0  0
   59.0825   34.3839   43.4352 H   0  0  0  0  0  0  0  0  0  0  0  0
   58.7260   34.1150   45.5560 C   0  0  0  0  0  0  0  0  0  0  0  0
   59.6390   35.5380   46.0250 Cl  0  0  0  0  0  0  0  0  0  0  0  0
  1  2  1  0
  2  3  1  0
  3  4  1  0
  4  5  2  0
  5  6  1  0
  6  7  2  0
  6  8  1  0
  8  9  2  0
  9 10  1  0
  9 11  1  0
 11 12  1  0
 11 13  2  0
 13 14  1  0
 13 15  1  0
 15 16  1  0
 15 17  2  0
 17 18  1  0
 18 19  1  0
 18 20  1  0
 20 21  2  0
 20 22  1  0
 22 23  2  0
 23 24  1  0
 23 25  1  0
 25 26  1  0
 25 27  2  0
 27 28  1  0
 27 29  1  0
 29 30  1  0
 29 31  2  0
 31 32  1  0
  4 33  1  0
 33 34  1  0
 33 35  2  0
 35 36  1  0
 35 37  1  0
 37 38  1  0
 37  2  2  0
 17  8  1  0
 31 22  1  0
M  CHG  2   3  -1  32  -1
M  END
>  <UniqueID>  (72) 
70

>  <SMILES>  (72) 
O=C(Nc1ccccc1C(=O)/N=c1/ccc(Cl)c[n-]1)c1ccccc1[O-]

>  <Energy>  (72) 
60.17171144193136

>  <Genealogy>  (72) 
O=C(Nc1ccccc1C(=O)N=c1ccc(Cl)c[n-]1)c1ccccc1[O-] (protonated)
O=C(Nc1ccccc1C(=O)/N=c1/ccc(Cl)c[n-]1)c1ccccc1[O-] (cis-trans isomerization)
O=C(Nc1ccccc1C(=O)/N=c1/ccc(Cl)c[n-]1)c1ccccc1[O-] (3D coordinates assigned)
O=C(Nc1ccccc1C(=O)/N=c1/ccc(Cl)c[n-]1)c1ccccc1[O-] (optimized conformer: 60.17171144193136 kcal/mol)

>  <smiles>  (72) 
O=C(Nc1ccccc1C(=O)N=c1ccc(Cl)c[nH]1)c1ccccc1O

>  <score_type>  (72) 
oracle

>  <origin>  (72) 
adg

>  <m_score__min__energy>  (72) 
-14.35

>  <m_primary>  (72) 
energy

$$$$
72:0
     RDKit          3D

 49 52  0  0  0  0  0  0  0  0999 V2000
   58.5590   25.6000   44.8490 O   0  0  0  0  0  0  0  0  0  0  0  0
   58.6400   26.3100   45.8900 C   0  0  0  0  0  0  0  0  0  0  0  0
   57.7160   26.0140   47.0350 C   0  0  0  0  0  0  0  0  0  0  0  0
   56.4000   25.5190   46.5070 C   0  0  0  0  0  0  0  0  0  0  0  0
   55.4170   26.2920   45.9020 C   0  0  0  0  0  0  0  0  0  0  0  0
   55.5410   27.6450   45.6170 O   0  0  0  0  0  0  0  0  0  0  0  0
   54.3000   25.5840   45.6230 N   0  0  0  0  0  0  0  0  0  0  0  0
   54.5810   24.3440   46.0690 C   0  0  0  0  0  0  0  0  0  0  0  0
   53.7290   23.2410   46.0170 C   0  0  0  0  0  0  0  0  0  0  0  0
   54.1920   22.0220   46.5420 C   0  0  0  0  0  0  0  0  0  0  0  0
   55.4820   21.9290   47.1050 C   0  0  0  0  0  0  0  0  0  0  0  0
   56.3240   23.0590   47.1540 C   0  0  0  0  0  0  0  0  0  0  0  0
   57.5940   22.9780   47.7180 O   0  0  0  0  0  0  0  0  0  0  0  0
   55.8400   24.2600   46.6180 C   0  0  0  0  0  0  0  0  0  0  0  0
   59.5710   27.4100   45.9290 N   0  0  0  0  0  0  0  0  0  0  0  0
   59.7440   28.2340   44.7240 C   0  0  0  0  0  0  0  0  0  0  0  0
   58.5450   29.1240   44.5310 C   0  0  0  0  0  0  0  0  0  0  0  0
   58.5080   30.4000   45.1150 C   0  0  0  0  0  0  0  0  0  0  0  0
   57.4110   31.2410   44.9010 C   0  0  0  0  0  0  0  0  0  0  0  0
   56.3470   30.8140   44.1030 C   0  0  0  0  0  0  0  0  0  0  0  0
   56.3820   29.5500   43.5100 C   0  0  0  0  0  0  0  0  0  0  0  0
   57.4800   28.7100   43.7150 C   0  0  0  0  0  0  0  0  0  0  0  0
   60.4320   27.6250   47.1020 C   0  0  0  0  0  0  0  0  0  0  0  0
   60.1940   28.9930   47.6850 C   0  0  0  0  0  0  0  0  0  0  0  0
   59.1420   29.1950   48.5950 C   0  0  0  0  0  0  0  0  0  0  0  0
   58.8940   30.4700   49.1120 C   0  0  0  0  0  0  0  0  0  0  0  0
   59.6890   31.5520   48.7230 C   0  0  0  0  0  0  0  0  0  0  0  0
   60.7360   31.3590   47.8170 C   0  0  0  0  0  0  0  0  0  0  0  0
   60.9890   30.0850   47.2970 C   0  0  0  0  0  0  0  0  0  0  0  0
   58.1656   25.2430   47.6780 H   0  0  0  0  0  0  0  0  0  0  0  0
   57.5528   26.9319   47.6188 H   0  0  0  0  0  0  0  0  0  0  0  0
   52.7238   23.3226   45.5778 H   0  0  0  0  0  0  0  0  0  0  0  0
   53.5435   21.1340   46.5136 H   0  0  0  0  0  0  0  0  0  0  0  0
   55.8336   20.9681   47.5087 H   0  0  0  0  0  0  0  0  0  0  0  0
   57.7590   22.4650   48.5770 H   0  0  0  0  0  0  0  0  0  0  0  0
   60.6448   28.8556   44.8342 H   0  0  0  0  0  0  0  0  0  0  0  0
   59.8491   27.5757   43.8490 H   0  0  0  0  0  0  0  0  0  0  0  0
   59.3447   30.7397   45.7432 H   0  0  0  0  0  0  0  0  0  0  0  0
   57.3861   32.2396   45.3616 H   0  0  0  0  0  0  0  0  0  0  0  0
   55.4814   31.4734   43.9416 H   0  0  0  0  0  0  0  0  0  0  0  0
   55.5442   29.2151   42.8807 H   0  0  0  0  0  0  0  0  0  0  0  0
   57.5100   27.7206   43.2352 H   0  0  0  0  0  0  0  0  0  0  0  0
   60.2057   26.8628   47.8622 H   0  0  0  0  0  0  0  0  0  0  0  0
   61.4843   27.5482   46.7908 H   0  0  0  0  0  0  0  0  0  0  0  0
   58.5118   28.3471   48.9014 H   0  0  0  0  0  0  0  0  0  0  0  0
   58.0715   30.6221   49.8264 H   0  0  0  0  0  0  0  0  0  0  0  0
   59.4909   32.5547   49.1296 H   0  0  0  0  0  0  0  0  0  0  0  0
   61.3622   32.2105   47.5123 H   0  0  0  0  0  0  0  0  0  0  0  0
   61.8123   29.9377   46.5826 H   0  0  0  0  0  0  0  0  0  0  0  0
  1  2  2  0
  2  3  1  0
  3  4  1  0
  4  5  2  0
  5  6  1  0
  5  7  1  0
  7  8  1  0
  8  9  2  0
  9 10  1  0
 10 11  2  0
 11 12  1  0
 12 13  1  0
 12 14  2  0
  2 15  1  0
 15 16  1  0
 16 17  1  0
 17 18  2  0
 18 19  1  0
 19 20  2  0
 20 21  1  0
 21 22  2  0
 15 23  1  0
 23 24  1  0
 24 25  2  0
 25 26  1  0
 26 27  2  0
 27 28  1  0
 28 29  2  0
 14  4  1  0
 22 17  1  0
 29 24  1  0
 14  8  1  0
  3 30  1  0
  3 31  1  0
  9 32  1  0
 10 33  1  0
 11 34  1  0
 13 35  1  0
 16 36  1  0
 16 37  1  0
 18 38  1  0
 19 39  1  0
 20 40  1  0
 21 41  1  0
 22 42  1  0
 23 43  1  0
 23 44  1  0
 25 45  1  0
 26 46  1  0
 27 47  1  0
 28 48  1  0
 29 49  1  0
M  CHG  2   6  -1   7  -1
M  END
>  <UniqueID>  (73) 
71

>  <SMILES>  (73) 
O=C(Cc1c([O-])[n-]c2cccc(O)c12)N(Cc1ccccc1)Cc1ccccc1

>  <Energy>  (73) 
79.14472429698608

>  <Genealogy>  (73) 
O=C(Cc1c([O-])[n-]c2cccc(O)c12)N(Cc1ccccc1)Cc1ccccc1 (protonated)
O=C(Cc1c([O-])[n-]c2cccc(O)c12)N(Cc1ccccc1)Cc1ccccc1 (3D coordinates assigned)
O=C(Cc1c([O-])[n-]c2cccc(O)c12)N(Cc1ccccc1)Cc1ccccc1 (optimized conformer: 79.14472429698608 kcal/mol)

>  <smiles>  (73) 
O=C(Cc1c(O)[nH]c2cccc(O)c12)N(Cc1ccccc1)Cc1ccccc1

>  <score_type>  (73) 
oracle

>  <origin>  (73) 
adg

>  <m_score__min__energy>  (73) 
-13.289999999999999

>  <m_primary>  (73) 
energy

$$$$
73:0
     RDKit          3D

 35 37  0  0  1  0  0  0  0  0999 V2000
   55.4220   30.4200   44.5320 O   0  0  0  0  0  0  0  0  0  0  0  0
   56.3620   30.4590   43.6940 C   0  0  0  0  0  0  0  0  0  0  0  0
   56.6610   29.3350   42.7660 C   0  0  0  0  0  0  0  0  0  0  0  0
   57.7680   28.1080   43.4820 S   0  0  0  0  0  0  0  0  0  0  0  0
   58.3170   28.7060   45.0660 C   0  0  0  0  0  0  0  0  0  0  0  0
   57.9390   29.0800   46.0790 N   0  0  0  0  0  0  0  0  0  0  0  0
   58.5740   29.4780   47.1390 N   0  0  0  0  0  0  0  0  0  0  0  0
   59.8840   29.4560   47.0530 C   0  0  0  0  0  0  0  0  0  0  0  0
   60.7740   29.7690   47.9160 N   0  0  0  0  0  0  0  0  0  0  0  0
   60.7720   31.0030   48.6240 C   0  0  0  0  0  0  0  0  0  0  0  0
   59.9860   31.2730   49.5640 O   0  0  0  0  0  0  0  0  0  0  0  0
   61.7830   31.9870   48.1740 C   0  0  0  0  0  0  0  0  0  0  0  0
   61.5780   32.7810   47.0660 C   0  0  0  0  0  0  0  0  0  0  0  0
   62.5630   33.6870   46.6940 C   0  0  0  0  0  0  0  0  0  0  0  0
   63.7480   33.7970   47.4290 C   0  0  0  0  0  0  0  0  0  0  0  0
   63.8910   32.9730   48.5260 C   0  0  0  0  0  0  0  0  0  0  0  0
   65.0530   33.0810   49.2440 F   0  0  0  0  0  0  0  0  0  0  0  0
   62.9450   32.0730   48.9190 C   0  0  0  0  0  0  0  0  0  0  0  0
   60.2130   28.8400   45.3960 S   0  0  0  0  0  0  0  0  0  0  0  0
   57.2250   31.6090   43.5770 N   0  0  0  0  0  0  0  0  0  0  0  0
   57.6010   32.2290   44.5840 C   0  0  0  0  0  0  0  0  0  0  0  0
   57.5260   31.9980   45.9200 N   0  0  0  0  0  0  0  0  0  0  0  0
   58.0070   32.8070   46.7770 C   0  0  0  0  0  0  0  0  0  0  0  0
   58.6470   33.9850   46.3860 C   0  0  0  0  0  0  0  0  0  0  0  0
   58.5060   33.8630   44.4980 S   0  0  0  0  0  0  0  0  0  0  0  0
   55.7156   28.8405   42.4981 H   0  0  0  0  0  0  0  0  0  0  0  0
   57.1655   29.7600   41.8857 H   0  0  0  0  0  0  0  0  0  0  0  0
   58.0640   29.8040   48.0180 H   0  0  0  0  0  0  0  0  0  0  0  0
   60.6478   32.6983   46.4848 H   0  0  0  0  0  0  0  0  0  0  0  0
   62.4094   34.3252   45.8114 H   0  0  0  0  0  0  0  0  0  0  0  0
   64.5341   34.5117   47.1438 H   0  0  0  0  0  0  0  0  0  0  0  0
   63.1013   31.4350   49.8014 H   0  0  0  0  0  0  0  0  0  0  0  0
   57.0210   31.0750   46.2000 H   0  0  0  0  0  0  0  0  0  0  0  0
   57.9166   32.5733   47.8481 H   0  0  0  0  0  0  0  0  0  0  0  0
   59.1074   34.7698   47.0042 H   0  0  0  0  0  0  0  0  0  0  0  0
  1  2  2  0
  2  3  1  0
  3  4  1  0
  4  5  1  0
  5  6  2  0
  6  7  1  0
  7  8  1  0
  8  9  2  0
  9 10  1  0
 10 11  2  0
 10 12  1  0
 12 13  2  0
 13 14  1  0
 14 15  2  0
 15 16  1  0
 16 17  1  0
 16 18  2  0
  8 19  1  0
  2 20  1  0
 20 21  2  0
 21 22  1  0
 22 23  1  0
 23 24  2  0
 24 25  1  0
 19  5  1  0
 25 21  1  0
 18 12  1  0
  3 26  1  0
  3 27  1  0
  7 28  1  0
 13 29  1  0
 14 30  1  0
 15 31  1  0
 18 32  1  0
 22 33  1  0
 23 34  1  0
 24 35  1  0
M  END
>  <smiles>  (74) 
O=C(CSc1n[nH]c(=NC(=O)c2cccc(F)c2)s1)N=c1[nH]ccs1

>  <score_type>  (74) 
oracle

>  <origin>  (74) 
adg

>  <m_score__min__energy>  (74) 
-8.7100000000000009

>  <m_primary>  (74) 
energy

$$$$
74:0
     RDKit          3D

 36 38  0  0  0  0  0  0  0  0999 V2000
   60.3650   28.6670   45.5910 C   0  0  0  0  0  0  0  0  0  0  0  0
   60.4450   28.9490   47.0180 N   0  0  0  0  0  0  0  0  0  0  0  0
   60.5670   30.2600   47.5820 C   0  0  0  0  0  0  0  0  0  0  0  0
   61.4610   31.0280   47.1370 O   0  0  0  0  0  0  0  0  0  0  0  0
   59.6670   30.7430   48.6510 C   0  0  0  0  0  0  0  0  0  0  0  0
   59.5890   30.0330   49.8620 C   0  0  0  0  0  0  0  0  0  0  0  0
   58.7770   30.4910   50.9020 C   0  0  0  0  0  0  0  0  0  0  0  0
   58.0430   31.6690   50.7510 C   0  0  0  0  0  0  0  0  0  0  0  0
   58.1200   32.3930   49.5600 C   0  0  0  0  0  0  0  0  0  0  0  0
   58.9290   31.9420   48.5060 C   0  0  0  0  0  0  0  0  0  0  0  0
   58.9650   32.7220   47.2500 C   0  0  0  0  0  0  0  0  0  0  0  0
   59.5850   33.9840   47.2270 C   0  0  0  0  0  0  0  0  0  0  0  0
   60.1460   34.5110   48.3870 O   0  0  0  0  0  0  0  0  0  0  0  0
   59.6500   34.7160   46.0370 C   0  0  0  0  0  0  0  0  0  0  0  0
   60.2670   35.9610   46.0170 O   0  0  0  0  0  0  0  0  0  0  0  0
   59.0990   34.1990   44.8610 C   0  0  0  0  0  0  0  0  0  0  0  0
   58.4670   32.9430   44.8660 C   0  0  0  0  0  0  0  0  0  0  0  0
   57.8940   32.3980   43.7010 C   0  0  0  0  0  0  0  0  0  0  0  0
   57.9410   33.0180   42.6040 O   0  0  0  0  0  0  0  0  0  0  0  0
   57.2600   31.1540   43.7560 C   0  0  0  0  0  0  0  0  0  0  0  0
   57.1940   30.4580   44.9730 C   0  0  0  0  0  0  0  0  0  0  0  0
   56.5070   29.1570   45.0720 C   0  0  0  0  0  0  0  0  0  0  0  0
   55.1440   29.0400   44.6720 N   0  0  0  0  0  0  0  0  0  0  0  0
   57.1160   28.1410   45.5040 O   0  0  0  0  0  0  0  0  0  0  0  0
   57.7610   31.0000   46.0840 N   0  0  0  0  0  0  0  0  0  0  0  0
   58.3950   32.2050   46.0690 C   0  0  0  0  0  0  0  0  0  0  0  0
   60.0676   27.6187   45.4405 H   0  0  0  0  0  0  0  0  0  0  0  0
   59.6194   29.3298   45.1275 H   0  0  0  0  0  0  0  0  0  0  0  0
   61.3475   28.8396   45.1275 H   0  0  0  0  0  0  0  0  0  0  0  0
   60.1722   29.1093   49.9914 H   0  0  0  0  0  0  0  0  0  0  0  0
   58.7157   29.9226   51.8417 H   0  0  0  0  0  0  0  0  0  0  0  0
   57.4034   32.0269   51.5713 H   0  0  0  0  0  0  0  0  0  0  0  0
   57.5430   33.3227   49.4471 H   0  0  0  0  0  0  0  0  0  0  0  0
   59.1601   34.7774   43.9274 H   0  0  0  0  0  0  0  0  0  0  0  0
   56.8140   30.7215   42.8482 H   0  0  0  0  0  0  0  0  0  0  0  0
   54.3700   29.3410   45.3060 H   0  0  0  0  0  0  0  0  0  0  0  0
  1  2  1  0
  2  3  1  0
  3  4  2  0
  3  5  1  0
  5  6  2  0
  6  7  1  0
  7  8  2  0
  8  9  1  0
  9 10  2  0
 10 11  1  0
 11 12  2  0
 12 13  1  0
 12 14  1  0
 14 15  1  0
 14 16  2  0
 16 17  1  0
 17 18  1  0
 18 19  2  0
 18 20  1  0
 20 21  2  0
 21 22  1  0
 22 23  1  0
 22 24  2  0
 21 25  1  0
 25 26  1  0
 10  5  1  0
 26 11  1  0
 26 17  2  0
  1 27  1  0
  1 28  1  0
  1 29  1  0
  6 30  1  0
  7 31  1  0
  8 32  1  0
  9 33  1  0
 16 34  1  0
 20 35  1  0
 23 36  1  0
M  CHG  5   2  -1  13  -1  15  -1  23  -1  25  -1
M  END
>  <UniqueID>  (75) 
72

>  <SMILES>  (75) 
C[N-]C(=O)c1ccccc1-c1c([O-])c([O-])cc2c(=O)cc(C([NH-])=O)[n-]c12

>  <Energy>  (75) 
54.882275941007414

>  <Genealogy>  (75) 
C[N-]C(=O)c1ccccc1-c1c([O-])c([O-])cc2c(=O)cc(C([NH-])=O)[n-]c12 (protonated)
C[N-]C(=O)c1ccccc1-c1c([O-])c([O-])cc2c(=O)cc(C([NH-])=O)[n-]c12 (3D coordinates assigned)
C[N-]C(=O)c1ccccc1-c1c([O-])c([O-])cc2c(=O)cc(C([NH-])=O)[n-]c12 (optimized conformer: 54.882275941007414 kcal/mol)

>  <smiles>  (75) 
CNC(=O)c1ccccc1-c1c(O)c(O)cc2c(=O)cc(C(N)=O)[nH]c12

>  <score_type>  (75) 
oracle

>  <origin>  (75) 
adg

>  <m_score__min__energy>  (75) 
-13.43

>  <m_primary>  (75) 
energy

$$$$
75:0
     RDKit          3D

 35 36  0  0  0  0  0  0  0  0999 V2000
   62.1350   33.9220   48.6830 H   0  0  0  0  0  0  0  0  0  0  0  0
   61.1290   33.9200   48.9660 N   0  0  0  0  0  0  0  0  0  0  0  0
   60.1990   34.1230   47.5230 S   0  0  0  0  0  0  0  0  0  0  0  0
   59.1610   35.1890   47.7350 O   0  0  0  0  0  0  0  0  0  0  0  0
   61.1140   34.5540   46.4110 O   0  0  0  0  0  0  0  0  0  0  0  0
   59.4030   32.5980   47.1100 C   0  0  0  0  0  0  0  0  0  0  0  0
   59.6970   31.4430   47.8480 C   0  0  0  0  0  0  0  0  0  0  0  0
   60.4200   31.4936   48.6754 H   0  0  0  0  0  0  0  0  0  0  0  0
   59.0790   30.2280   47.5410 C   0  0  0  0  0  0  0  0  0  0  0  0
   59.3256   29.3263   48.1208 H   0  0  0  0  0  0  0  0  0  0  0  0
   58.1440   30.1530   46.4950 C   0  0  0  0  0  0  0  0  0  0  0  0
   57.5080   28.9200   46.1330 N   0  0  0  0  0  0  0  0  0  0  0  0
   56.7730   28.6720   44.9280 C   0  0  0  0  0  0  0  0  0  0  0  0
   55.5270   28.8500   44.8850 O   0  0  0  0  0  0  0  0  0  0  0  0
   57.5010   28.2220   43.7010 C   0  0  0  0  0  0  0  0  0  0  0  0
   56.8825   28.4262   42.8146 H   0  0  0  0  0  0  0  0  0  0  0  0
   58.4529   28.7679   43.6243 H   0  0  0  0  0  0  0  0  0  0  0  0
   57.7820   26.7460   43.7840 C   0  0  0  0  0  0  0  0  0  0  0  0
   58.2409   26.2654   42.9074 H   0  0  0  0  0  0  0  0  0  0  0  0
   57.5150   25.9730   44.8460 C   0  0  0  0  0  0  0  0  0  0  0  0
   58.2185   26.0001   45.6912 H   0  0  0  0  0  0  0  0  0  0  0  0
   56.3380   25.0870   44.9560 C   0  0  0  0  0  0  0  0  0  0  0  0
   55.1980   25.4720   45.6810 C   0  0  0  0  0  0  0  0  0  0  0  0
   55.1480   26.7110   46.3130 O   0  0  0  0  0  0  0  0  0  0  0  0
   55.9650   27.3050   46.3610 H   0  0  0  0  0  0  0  0  0  0  0  0
   54.1420   24.6230   45.7800 N   0  0  0  0  0  0  0  0  0  0  0  0
   54.1730   23.3940   45.2030 C   0  0  0  0  0  0  0  0  0  0  0  0
   53.1810   22.6270   45.3070 O   0  0  0  0  0  0  0  0  0  0  0  0
   55.2750   22.9900   44.5230 N   0  0  0  0  0  0  0  0  0  0  0  0
   56.3560   23.8020   44.3920 C   0  0  0  0  0  0  0  0  0  0  0  0
   57.3640   23.3920   43.7560 O   0  0  0  0  0  0  0  0  0  0  0  0
   57.8690   31.2990   45.7410 C   0  0  0  0  0  0  0  0  0  0  0  0
   57.1639   31.2394   44.8988 H   0  0  0  0  0  0  0  0  0  0  0  0
   58.4810   32.5210   46.0460 C   0  0  0  0  0  0  0  0  0  0  0  0
   58.0680   33.9250   45.0690 Cl  0  0  0  0  0  0  0  0  0  0  0  0
  1  2  1  0
  2  3  1  0
  3  4  2  0
  3  5  2  0
  3  6  1  0
  6  7  2  0
  7  8  1  0
  7  9  1  0
  9 10  1  0
  9 11  2  0
 11 12  1  0
 12 13  1  0
 13 14  2  0
 13 15  1  0
 15 16  1  0
 15 17  1  0
 15 18  1  0
 18 19  1  0
 18 20  2  0
 20 21  1  0
 20 22  1  0
 22 23  2  0
 23 24  1  0
 24 25  1  0
 23 26  1  0
 26 27  1  0
 27 28  2  0
 27 29  1  0
 29 30  1  0
 30 31  2  0
 11 32  1  0
 32 33  1  0
 32 34  2  0
 34 35  1  0
 34  6  1  0
 30 22  1  0
M  CHG  4   2  -1  12  -1  26  -1  29  -1
M  END
>  <UniqueID>  (76) 
73

>  <SMILES>  (76) 
[NH-]S(=O)(=O)c1ccc([N-]C(=O)C/C=C\c2c(O)[n-]c(=O)[n-]c2=O)cc1Cl

>  <Energy>  (76) 
47.59352285502492

>  <Genealogy>  (76) 
[NH-]S(=O)(=O)c1ccc([N-]C(=O)CC=Cc2c(O)[n-]c(=O)[n-]c2=O)cc1Cl (protonated)
[NH-]S(=O)(=O)c1ccc([N-]C(=O)C/C=C\c2c(O)[n-]c(=O)[n-]c2=O)cc1Cl (cis-trans isomerization)
[NH-]S(=O)(=O)c1ccc([N-]C(=O)C/C=C\c2c(O)[n-]c(=O)[n-]c2=O)cc1Cl (3D coordinates assigned)
[NH-]S(=O)(=O)c1ccc([N-]C(=O)C/C=C\c2c(O)[n-]c(=O)[n-]c2=O)cc1Cl (optimized conformer: 47.59352285502492 kcal/mol)

>  <smiles>  (76) 
NS(=O)(=O)c1ccc(NC(=O)CC=Cc2c(O)[nH]c(=O)[nH]c2=O)cc1Cl

>  <score_type>  (76) 
oracle

>  <origin>  (76) 
adg

>  <m_score__min__energy>  (76) 
-15.960000000000001

>  <m_primary>  (76) 
energy

$$$$
76:0
     RDKit          3D

 37 39  0  0  0  0  0  0  0  0999 V2000
   59.8090   21.9370   44.1430 C   0  0  0  0  0  0  0  0  0  0  0  0
   58.3240   22.0340   44.0540 C   0  0  0  0  0  0  0  0  0  0  0  0
   57.4970   20.9650   44.0330 N   0  0  0  0  0  0  0  0  0  0  0  0
   56.2040   21.2830   44.0240 N   0  0  0  0  0  0  0  0  0  0  0  0
   55.9950   22.6180   44.0470 C   0  0  0  0  0  0  0  0  0  0  0  0
   54.3680   23.3670   44.0380 S   0  0  0  0  0  0  0  0  0  0  0  0
   54.3860   23.7960   45.8140 C   0  0  0  0  0  0  0  0  0  0  0  0
   55.4270   24.8350   46.1050 C   0  0  0  0  0  0  0  0  0  0  0  0
   56.5570   24.5210   46.8710 C   0  0  0  0  0  0  0  0  0  0  0  0
   57.4910   25.5200   47.1610 C   0  0  0  0  0  0  0  0  0  0  0  0
   58.5070   25.2420   47.8540 O   0  0  0  0  0  0  0  0  0  0  0  0
   57.2980   26.8220   46.6780 C   0  0  0  0  0  0  0  0  0  0  0  0
   58.2470   27.8470   47.0130 N   0  0  0  0  0  0  0  0  0  0  0  0
   58.9680   28.6740   46.0890 C   0  0  0  0  0  0  0  0  0  0  0  0
   60.2260   28.7290   46.1440 O   0  0  0  0  0  0  0  0  0  0  0  0
   58.2210   29.4710   45.0830 C   0  0  0  0  0  0  0  0  0  0  0  0
   57.9390   30.8220   45.3680 C   0  0  0  0  0  0  0  0  0  0  0  0
   57.2130   31.6070   44.4690 C   0  0  0  0  0  0  0  0  0  0  0  0
   56.7650   31.0590   43.2680 C   0  0  0  0  0  0  0  0  0  0  0  0
   57.0460   29.7290   42.9600 C   0  0  0  0  0  0  0  0  0  0  0  0
   57.7700   28.9270   43.8530 C   0  0  0  0  0  0  0  0  0  0  0  0
   58.1590   27.1340   43.2830 Br  0  0  0  0  0  0  0  0  0  0  0  0
   56.1380   27.0990   45.9340 C   0  0  0  0  0  0  0  0  0  0  0  0
   55.2440   26.1110   45.6690 N   0  0  0  0  0  0  0  0  0  0  0  0
   57.4470   23.4730   44.0920 S   0  0  0  0  0  0  0  0  0  0  0  0
   60.1124   21.9172   45.2001 H   0  0  0  0  0  0  0  0  0  0  0  0
   60.1466   21.0149   43.6473 H   0  0  0  0  0  0  0  0  0  0  0  0
   60.2637   22.8074   43.6473 H   0  0  0  0  0  0  0  0  0  0  0  0
   57.8250   19.9740   44.0300 H   0  0  0  0  0  0  0  0  0  0  0  0
   53.3982   24.1865   46.0998 H   0  0  0  0  0  0  0  0  0  0  0  0
   54.6239   22.8902   46.3910 H   0  0  0  0  0  0  0  0  0  0  0  0
   56.7083   23.4964   47.2414 H   0  0  0  0  0  0  0  0  0  0  0  0
   58.2950   31.2640   46.3103 H   0  0  0  0  0  0  0  0  0  0  0  0
   56.9947   32.6581   44.7089 H   0  0  0  0  0  0  0  0  0  0  0  0
   56.1893   31.6767   42.5629 H   0  0  0  0  0  0  0  0  0  0  0  0
   56.6963   29.3048   42.0072 H   0  0  0  0  0  0  0  0  0  0  0  0
   55.9536   28.1188   45.5652 H   0  0  0  0  0  0  0  0  0  0  0  0
  1  2  1  0
  2  3  2  0
  3  4  1  0
  4  5  2  0
  5  6  1  0
  6  7  1  0
  7  8  1  0
  8  9  2  0
  9 10  1  0
 10 11  2  0
 10 12  1  0
 12 13  1  0
 13 14  1  0
 14 15  2  0
 14 16  1  0
 16 17  2  0
 17 18  1  0
 18 19  2  0
 19 20  1  0
 20 21  2  0
 21 22  1  0
 12 23  2  0
 23 24  1  0
  5 25  1  0
 25  2  1  0
 24  8  1  0
 21 16  1  0
  1 26  1  0
  1 27  1  0
  1 28  1  0
  3 29  1  0
  7 30  1  0
  7 31  1  0
  9 32  1  0
 17 33  1  0
 18 34  1  0
 19 35  1  0
 20 36  1  0
 23 37  1  0
M  CHG  3   3   1  13  -1  24  -1
M  END
>  <UniqueID>  (77) 
74

>  <SMILES>  (77) 
Cc1[nH+]nc(SCc2cc(=O)c([N-]C(=O)c3ccccc3Br)c[n-]2)s1

>  <Energy>  (77) 
76.42270553945542

>  <Genealogy>  (77) 
Cc1[nH+]nc(SCc2cc(=O)c([N-]C(=O)c3ccccc3Br)c[n-]2)s1 (protonated)
Cc1[nH+]nc(SCc2cc(=O)c([N-]C(=O)c3ccccc3Br)c[n-]2)s1 (3D coordinates assigned)
Cc1[nH+]nc(SCc2cc(=O)c([N-]C(=O)c3ccccc3Br)c[n-]2)s1 (optimized conformer: 76.42270553945542 kcal/mol)

>  <smiles>  (77) 
Cc1nnc(SCc2cc(=O)c(NC(=O)c3ccccc3Br)c[nH]2)s1

>  <score_type>  (77) 
oracle

>  <origin>  (77) 
adg

>  <m_score__min__energy>  (77) 
-10.289999999999999

>  <m_primary>  (77) 
energy

$$$$
77:0
     RDKit          3D

 36 38  0  0  1  0  0  0  0  0999 V2000
   55.9690   31.0100   44.4610 N   0  0  0  0  0  0  0  0  0  0  0  0
   56.6020   29.9870   44.0680 C   0  0  0  0  0  0  0  0  0  0  0  0
   56.2880   29.3250   42.9120 N   0  0  0  0  0  0  0  0  0  0  0  0
   57.0930   28.3080   42.7360 N   0  0  0  0  0  0  0  0  0  0  0  0
   57.9520   28.2860   43.7800 C   0  0  0  0  0  0  0  0  0  0  0  0
   57.6740   29.3330   44.6440 C   0  0  0  0  0  0  0  0  0  0  0  0
   58.3730   29.6680   45.9060 C   0  0  0  0  0  0  0  0  0  0  0  0
   59.3820   28.9850   46.2040 O   0  0  0  0  0  0  0  0  0  0  0  0
   57.8440   30.7270   46.6680 N   0  0  0  0  0  0  0  0  0  0  0  0
   58.4080   31.8720   46.6590 C   0  0  0  0  0  0  0  0  0  0  0  0
   59.6500   32.1610   47.1560 C   0  0  0  0  0  0  0  0  0  0  0  0
   60.1660   33.4280   47.1000 C   0  0  0  0  0  0  0  0  0  0  0  0
   61.4590   33.7730   47.6060 N   0  0  0  0  0  0  0  0  0  0  0  0
   62.6250   33.8790   46.7250 C   0  0  0  0  0  0  0  0  0  0  0  0
   63.7550   33.0040   47.2740 C   0  0  0  0  0  0  0  0  0  0  0  0
   63.9400   33.1830   48.6240 O   0  0  0  0  0  0  0  0  0  0  0  0
   63.1850   34.2180   49.1750 C   0  0  0  0  0  0  0  0  0  0  0  0
   61.7040   34.0360   49.0120 C   0  0  0  0  0  0  0  0  0  0  0  0
   59.4450   34.4310   46.5450 N   0  0  0  0  0  0  0  0  0  0  0  0
   58.2240   34.1240   46.0610 C   0  0  0  0  0  0  0  0  0  0  0  0
   57.6950   32.8920   46.1030 N   0  0  0  0  0  0  0  0  0  0  0  0
   56.1820   31.6110   45.2550 H   0  0  0  0  0  0  0  0  0  0  0  0
   55.5040   29.5930   42.2450 H   0  0  0  0  0  0  0  0  0  0  0  0
   57.0260   27.6700   41.9120 H   0  0  0  0  0  0  0  0  0  0  0  0
   58.7534   27.5460   43.9224 H   0  0  0  0  0  0  0  0  0  0  0  0
   60.2473   31.3570   47.6108 H   0  0  0  0  0  0  0  0  0  0  0  0
   62.3543   33.5385   45.7146 H   0  0  0  0  0  0  0  0  0  0  0  0
   62.9586   34.9262   46.6796 H   0  0  0  0  0  0  0  0  0  0  0  0
   63.5087   31.9484   47.0869 H   0  0  0  0  0  0  0  0  0  0  0  0
   64.6854   33.2940   46.7639 H   0  0  0  0  0  0  0  0  0  0  0  0
   63.4114   34.2792   50.2497 H   0  0  0  0  0  0  0  0  0  0  0  0
   63.4576   35.1375   48.6362 H   0  0  0  0  0  0  0  0  0  0  0  0
   61.3589   33.1871   49.6205 H   0  0  0  0  0  0  0  0  0  0  0  0
   61.1603   34.9331   49.3432 H   0  0  0  0  0  0  0  0  0  0  0  0
   59.8340   35.4190   46.4960 H   0  0  0  0  0  0  0  0  0  0  0  0
   57.6285   34.9293   45.6062 H   0  0  0  0  0  0  0  0  0  0  0  0
  1  2  2  3
  2  3  1  0
  3  4  1  0
  4  5  1  0
  5  6  2  0
  6  7  1  0
  7  8  2  0
  7  9  1  0
  9 10  2  0
 10 11  1  0
 11 12  2  0
 12 13  1  0
 13 14  1  0
 14 15  1  0
 15 16  1  0
 16 17  1  0
 17 18  1  0
 12 19  1  0
 19 20  1  0
 20 21  2  0
  6  2  1  0
 21 10  1  0
 18 13  1  0
  1 22  1  0
  3 23  1  0
  4 24  1  0
  5 25  1  0
 11 26  1  0
 14 27  1  0
 14 28  1  0
 15 29  1  0
 15 30  1  0
 17 31  1  0
 17 32  1  0
 18 33  1  0
 18 34  1  0
 19 35  1  0
 20 36  1  0
M  END
>  <smiles>  (78) 
N=c1[nH][nH]cc1C(=O)N=c1cc(N2CCOCC2)[nH]cn1

>  <score_type>  (78) 
oracle

>  <origin>  (78) 
adg

>  <m_score__min__energy>  (78) 
-6.7199999999999998

>  <m_primary>  (78) 
energy

$$$$
78:0
     RDKit          3D

 27 27  0  0  0  0  0  0  0  0999 V2000
   61.5120   31.3980   47.4820 C   0  0  0  0  0  0  0  0  0  0  0  0
   60.6200   32.5160   47.0150 C   0  0  0  0  0  0  0  0  0  0  0  0
   61.1570   33.8000   46.8340 C   0  0  0  0  0  0  0  0  0  0  0  0
   60.3510   34.8460   46.3870 C   0  0  0  0  0  0  0  0  0  0  0  0
   59.0090   34.6180   46.0860 C   0  0  0  0  0  0  0  0  0  0  0  0
   58.4550   33.3370   46.2250 C   0  0  0  0  0  0  0  0  0  0  0  0
   57.0150   33.1240   45.8420 C   0  0  0  0  0  0  0  0  0  0  0  0
   59.2550   32.2840   46.7310 C   0  0  0  0  0  0  0  0  0  0  0  0
   58.7070   30.9720   46.9160 N   0  0  0  0  0  0  0  0  0  0  0  0
   58.3220   30.1270   45.8210 C   0  0  0  0  0  0  0  0  0  0  0  0
   57.7650   28.6190   46.1220 S   0  0  0  0  0  0  0  0  0  0  0  0
   58.4300   30.6790   44.1120 S   0  0  0  0  0  0  0  0  0  0  0  0
   56.7580   30.1680   43.7230 C   0  0  0  0  0  0  0  0  0  0  0  0
   56.4940   29.4250   42.5370 N   0  0  0  0  0  0  0  0  0  0  0  0
   55.8200   30.4460   44.5140 O   0  0  0  0  0  0  0  0  0  0  0  0
   61.5286   31.3772   48.5817 H   0  0  0  0  0  0  0  0  0  0  0  0
   61.1277   30.4396   47.1029 H   0  0  0  0  0  0  0  0  0  0  0  0
   62.5318   31.5599   47.1029 H   0  0  0  0  0  0  0  0  0  0  0  0
   62.2208   33.9822   47.0462 H   0  0  0  0  0  0  0  0  0  0  0  0
   60.7752   35.8543   46.2715 H   0  0  0  0  0  0  0  0  0  0  0  0
   58.3794   35.4496   45.7366 H   0  0  0  0  0  0  0  0  0  0  0  0
   56.4032   33.0335   46.7517 H   0  0  0  0  0  0  0  0  0  0  0  0
   56.6633   33.9799   45.2472 H   0  0  0  0  0  0  0  0  0  0  0  0
   56.9262   32.2029   45.2472 H   0  0  0  0  0  0  0  0  0  0  0  0
   58.4550   30.6780   47.8860 H   0  0  0  0  0  0  0  0  0  0  0  0
   55.5190   29.1410   42.2970 H   0  0  0  0  0  0  0  0  0  0  0  0
   57.2760   29.1410   41.9070 H   0  0  0  0  0  0  0  0  0  0  0  0
  1  2  1  0
  2  3  2  0
  3  4  1  0
  4  5  2  0
  5  6  1  0
  6  7  1  0
  6  8  2  0
  8  9  1  0
  9 10  1  0
 10 11  2  0
 10 12  1  0
 12 13  1  0
 13 14  1  0
 13 15  2  0
  8  2  1  0
  1 16  1  0
  1 17  1  0
  1 18  1  0
  3 19  1  0
  4 20  1  0
  5 21  1  0
  7 22  1  0
  7 23  1  0
  7 24  1  0
  9 25  1  0
 14 26  1  0
 14 27  1  0
M  END
>  <UniqueID>  (79) 
75

>  <SMILES>  (79) 
Cc1cccc(C)c1NC(=S)SC(N)=O

>  <Energy>  (79) 
24.174124184587164

>  <Genealogy>  (79) 
Cc1cccc(C)c1NC(=S)SC(N)=O (3D coordinates assigned)
Cc1cccc(C)c1NC(=S)SC(N)=O (optimized conformer: 24.174124184587164 kcal/mol)

>  <smiles>  (79) 
Cc1cccc(C)c1NC(=S)SC(N)=O

>  <score_type>  (79) 
oracle

>  <origin>  (79) 
adg

>  <m_score__min__energy>  (79) 
-6.5999999999999996

>  <m_primary>  (79) 
energy

$$$$
79:0
     RDKit          3D

 58 61  0  0  1  0  0  0  0  0999 V2000
   54.1260   23.1390   45.0010 C   0  0  0  0  0  0  0  0  0  0  0  0
   55.4060   23.8830   45.0660 C   0  0  0  0  0  0  0  0  0  0  0  0
   55.3720   25.1480   45.6600 C   0  0  0  0  0  0  0  0  0  0  0  0
   56.5240   25.9040   45.7580 C   0  0  0  0  0  0  0  0  0  0  0  0
   57.7030   25.4160   45.2720 C   0  0  0  0  0  0  0  0  0  0  0  0
   58.9020   26.2430   45.3940 C   0  0  0  0  0  0  0  0  0  0  0  0
   59.6600   25.9710   46.3750 O   0  0  0  0  0  0  0  0  0  0  0  0
   59.2220   27.2860   44.4880 N   0  0  0  0  0  0  0  0  0  0  0  0
   58.3330   28.0820   44.0330 C   0  0  0  0  0  0  0  0  0  0  0  0
   57.4110   27.8610   43.0960 N   0  0  0  0  0  0  0  0  0  0  0  0
   56.6780   28.9600   42.9200 N   0  0  0  0  0  0  0  0  0  0  0  0
   57.1210   29.9160   43.7500 C   0  0  0  0  0  0  0  0  0  0  0  0
   56.7040   31.2220   43.9530 C   0  0  0  0  0  0  0  0  0  0  0  0
   57.3780   31.9660   44.8990 C   0  0  0  0  0  0  0  0  0  0  0  0
   57.0260   33.2750   45.1630 O   0  0  0  0  0  0  0  0  0  0  0  0
   57.7320   34.2020   45.9040 C   0  0  0  0  0  0  0  0  0  0  0  0
   58.9890   34.6920   45.2600 C   0  0  0  0  0  0  0  0  0  0  0  0
   60.0630   34.8750   46.0590 O   0  0  0  0  0  0  0  0  0  0  0  0
   60.1090   34.2720   47.2780 C   0  0  0  0  0  0  0  0  0  0  0  0
   61.4540   33.8610   47.7350 C   0  0  0  0  0  0  0  0  0  0  0  0
   62.3630   33.4850   46.7380 C   0  0  0  0  0  0  0  0  0  0  0  0
   63.6470   33.0890   47.0370 C   0  0  0  0  0  0  0  0  0  0  0  0
   64.0900   33.0430   48.3350 C   0  0  0  0  0  0  0  0  0  0  0  0
   63.2000   33.4130   49.3460 C   0  0  0  0  0  0  0  0  0  0  0  0
   61.9020   33.8130   49.0140 C   0  0  0  0  0  0  0  0  0  0  0  0
   58.4390   31.4230   45.6210 C   0  0  0  0  0  0  0  0  0  0  0  0
   58.8360   30.1210   45.4000 C   0  0  0  0  0  0  0  0  0  0  0  0
   58.1720   29.3800   44.4660 C   0  0  0  0  0  0  0  0  0  0  0  0
   57.7560   24.1570   44.6770 C   0  0  0  0  0  0  0  0  0  0  0  0
   56.5940   23.3880   44.5750 C   0  0  0  0  0  0  0  0  0  0  0  0
   56.6270   21.8080   43.8350 S   0  0  0  0  0  0  0  0  0  0  0  0
   58.2590   21.3110   43.6570 N   0  0  0  0  0  0  0  0  0  0  0  0
   55.7990   20.8180   44.5970 O   0  0  0  0  0  0  0  0  0  0  0  0
   56.0180   21.9100   42.4650 O   0  0  0  0  0  0  0  0  0  0  0  0
   53.7700   22.9321   46.0210 H   0  0  0  0  0  0  0  0  0  0  0  0
   53.3776   23.7428   44.4669 H   0  0  0  0  0  0  0  0  0  0  0  0
   54.2803   22.1898   44.4669 H   0  0  0  0  0  0  0  0  0  0  0  0
   54.4231   25.5434   46.0514 H   0  0  0  0  0  0  0  0  0  0  0  0
   56.4915   26.8984   46.2272 H   0  0  0  0  0  0  0  0  0  0  0  0
   57.2960   26.9430   42.5820 H   0  0  0  0  0  0  0  0  0  0  0  0
   55.8780   29.1060   42.2600 H   0  0  0  0  0  0  0  0  0  0  0  0
   55.8670   31.6492   43.3812 H   0  0  0  0  0  0  0  0  0  0  0  0
   57.0779   35.0684   46.0813 H   0  0  0  0  0  0  0  0  0  0  0  0
   58.0364   33.6920   46.8298 H   0  0  0  0  0  0  0  0  0  0  0  0
   59.2718   33.9609   44.4883 H   0  0  0  0  0  0  0  0  0  0  0  0
   58.7416   35.6959   44.8844 H   0  0  0  0  0  0  0  0  0  0  0  0
   59.6993   34.9741   48.0190 H   0  0  0  0  0  0  0  0  0  0  0  0
   59.5276   33.3436   47.1776 H   0  0  0  0  0  0  0  0  0  0  0  0
   62.0417   33.5068   45.6862 H   0  0  0  0  0  0  0  0  0  0  0  0
   64.3291   32.8048   46.2222 H   0  0  0  0  0  0  0  0  0  0  0  0
   65.1157   32.7242   48.5723 H   0  0  0  0  0  0  0  0  0  0  0  0
   63.5188   33.3898   50.3985 H   0  0  0  0  0  0  0  0  0  0  0  0
   61.2157   34.1007   49.8240 H   0  0  0  0  0  0  0  0  0  0  0  0
   58.9620   32.0354   46.3703 H   0  0  0  0  0  0  0  0  0  0  0  0
   59.6732   29.6873   45.9666 H   0  0  0  0  0  0  0  0  0  0  0  0
   58.7097   23.7699   44.2889 H   0  0  0  0  0  0  0  0  0  0  0  0
   58.5190   20.7560   44.5020 H   0  0  0  0  0  0  0  0  0  0  0  0
   58.3600   20.6330   42.8530 H   0  0  0  0  0  0  0  0  0  0  0  0
  1  2  1  0
  2  3  2  0
  3  4  1  0
  4  5  2  0
  5  6  1  0
  6  7  2  0
  6  8  1  0
  8  9  2  0
  9 10  1  0
 10 11  1  0
 11 12  1  0
 12 13  2  0
 13 14  1  0
 14 15  1  0
 15 16  1  0
 16 17  1  0
 17 18  1  0
 18 19  1  0
 19 20  1  0
 20 21  2  0
 21 22  1  0
 22 23  2  0
 23 24  1  0
 24 25  2  0
 14 26  2  0
 26 27  1  0
 27 28  2  0
  5 29  1  0
 29 30  2  0
 30 31  1  0
 31 32  1  0
 31 33  2  0
 31 34  2  0
 30  2  1  0
 28  9  1  0
 28 12  1  0
 25 20  1  0
  1 35  1  0
  1 36  1  0
  1 37  1  0
  3 38  1  0
  4 39  1  0
 10 40  1  0
 11 41  1  0
 13 42  1  0
 16 43  1  0
 16 44  1  0
 17 45  1  0
 17 46  1  0
 19 47  1  0
 19 48  1  0
 21 49  1  0
 22 50  1  0
 23 51  1  0
 24 52  1  0
 25 53  1  0
 26 54  1  0
 27 55  1  0
 29 56  1  0
 32 57  1  0
 32 58  1  0
M  END
>  <smiles>  (80) 
Cc1ccc(C(=O)N=c2[nH][nH]c3cc(OCCOCc4ccccc4)ccc23)cc1S(N)(=O)=O

>  <score_type>  (80) 
oracle

>  <origin>  (80) 
adg

>  <m_score__min__energy>  (80) 
-10.77

>  <m_primary>  (80) 
energy

$$$$
80:0
     RDKit          3D

 62 64  0  0  0  0  0  0  0  0999 V2000
   61.0540   26.9810   50.0850 C   0  0  0  0  0  0  0  0  0  0  0  0
   60.4900   26.5200   48.7430 C   0  0  0  0  0  0  0  0  0  0  0  0
   60.4210   27.6590   47.7970 N   0  0  0  0  0  0  0  0  0  0  0  0
   60.0490   27.1900   46.4380 C   0  0  0  0  0  0  0  0  0  0  0  0
   58.5600   26.9800   46.3230 C   0  0  0  0  0  0  0  0  0  0  0  0
   57.9720   25.7930   46.7840 C   0  0  0  0  0  0  0  0  0  0  0  0
   56.5980   25.5900   46.6520 C   0  0  0  0  0  0  0  0  0  0  0  0
   55.7940   26.5670   46.0570 C   0  0  0  0  0  0  0  0  0  0  0  0
   54.4410   26.3100   45.8730 O   0  0  0  0  0  0  0  0  0  0  0  0
   56.3670   27.7770   45.6190 C   0  0  0  0  0  0  0  0  0  0  0  0
   55.5850   28.8040   44.9930 N   0  0  0  0  0  0  0  0  0  0  0  0
   56.0830   29.9070   44.2260 C   0  0  0  0  0  0  0  0  0  0  0  0
   56.3540   29.8020   42.7560 C   0  0  0  0  0  0  0  0  0  0  0  0
   56.2430   31.0180   44.7940 O   0  0  0  0  0  0  0  0  0  0  0  0
   57.7520   27.9580   45.7210 C   0  0  0  0  0  0  0  0  0  0  0  0
   59.4830   28.6960   48.2900 C   0  0  0  0  0  0  0  0  0  0  0  0
   60.2300   29.8480   48.9150 C   0  0  0  0  0  0  0  0  0  0  0  0
   61.0190   30.6900   48.1150 C   0  0  0  0  0  0  0  0  0  0  0  0
   61.6950   31.7780   48.6810 C   0  0  0  0  0  0  0  0  0  0  0  0
   62.4950   32.6690   47.8320 C   0  0  0  0  0  0  0  0  0  0  0  0
   63.6630   32.3240   47.5110 O   0  0  0  0  0  0  0  0  0  0  0  0
   61.9840   33.9250   47.3660 N   0  0  0  0  0  0  0  0  0  0  0  0
   60.7710   34.5770   47.8560 C   0  0  0  0  0  0  0  0  0  0  0  0
   59.5760   34.2670   46.9820 C   0  0  0  0  0  0  0  0  0  0  0  0
   59.5130   34.8380   45.6960 C   0  0  0  0  0  0  0  0  0  0  0  0
   58.4090   34.6180   44.8730 C   0  0  0  0  0  0  0  0  0  0  0  0
   57.3560   33.8190   45.3130 C   0  0  0  0  0  0  0  0  0  0  0  0
   57.4110   33.2220   46.5730 C   0  0  0  0  0  0  0  0  0  0  0  0
   58.5230   33.4180   47.4110 C   0  0  0  0  0  0  0  0  0  0  0  0
   58.5320   32.7650   48.7690 C   0  0  0  0  0  0  0  0  0  0  0  0
   61.6120   32.0080   50.0590 C   0  0  0  0  0  0  0  0  0  0  0  0
   60.8410   31.1670   50.8640 C   0  0  0  0  0  0  0  0  0  0  0  0
   60.1460   30.0890   50.2990 C   0  0  0  0  0  0  0  0  0  0  0  0
   59.3760   29.2550   51.1100 O   0  0  0  0  0  0  0  0  0  0  0  0
   60.4837   26.5149   50.9020 H   0  0  0  0  0  0  0  0  0  0  0  0
   62.1107   26.6847   50.1599 H   0  0  0  0  0  0  0  0  0  0  0  0
   60.9739   28.0755   50.1599 H   0  0  0  0  0  0  0  0  0  0  0  0
   61.1417   25.7391   48.3242 H   0  0  0  0  0  0  0  0  0  0  0  0
   59.4767   26.1210   48.8981 H   0  0  0  0  0  0  0  0  0  0  0  0
   60.3634   27.9426   45.7000 H   0  0  0  0  0  0  0  0  0  0  0  0
   60.5520   26.2299   46.2507 H   0  0  0  0  0  0  0  0  0  0  0  0
   58.5972   25.0183   47.2519 H   0  0  0  0  0  0  0  0  0  0  0  0
   56.1450   24.6567   47.0178 H   0  0  0  0  0  0  0  0  0  0  0  0
   57.3690   29.4087   42.5974 H   0  0  0  0  0  0  0  0  0  0  0  0
   55.6215   29.1226   42.2957 H   0  0  0  0  0  0  0  0  0  0  0  0
   56.2705   30.7976   42.2957 H   0  0  0  0  0  0  0  0  0  0  0  0
   58.2116   28.8758   45.3254 H   0  0  0  0  0  0  0  0  0  0  0  0
   58.8851   29.0706   47.4461 H   0  0  0  0  0  0  0  0  0  0  0  0
   58.8321   28.2451   49.0536 H   0  0  0  0  0  0  0  0  0  0  0  0
   61.1067   30.4937   47.0362 H   0  0  0  0  0  0  0  0  0  0  0  0
   60.5657   34.2257   48.8780 H   0  0  0  0  0  0  0  0  0  0  0  0
   60.9356   35.6645   47.8380 H   0  0  0  0  0  0  0  0  0  0  0  0
   60.3433   35.4640   45.3371 H   0  0  0  0  0  0  0  0  0  0  0  0
   58.3695   35.0765   43.8739 H   0  0  0  0  0  0  0  0  0  0  0  0
   56.4805   33.6586   44.6666 H   0  0  0  0  0  0  0  0  0  0  0  0
   56.5763   32.5919   46.9141 H   0  0  0  0  0  0  0  0  0  0  0  0
   58.5213   33.5407   49.5489 H   0  0  0  0  0  0  0  0  0  0  0  0
   57.6426   32.1265   48.8747 H   0  0  0  0  0  0  0  0  0  0  0  0
   59.4387   32.1512   48.8747 H   0  0  0  0  0  0  0  0  0  0  0  0
   62.1549   32.8525   50.5086 H   0  0  0  0  0  0  0  0  0  0  0  0
   60.7788   31.3514   51.9466 H   0  0  0  0  0  0  0  0  0  0  0  0
   59.7850   28.7310   51.8740 H   0  0  0  0  0  0  0  0  0  0  0  0
  1  2  1  0
  2  3  1  0
  3  4  1  0
  4  5  1  0
  5  6  2  0
  6  7  1  0
  7  8  2  0
  8  9  1  0
  8 10  1  0
 10 11  1  0
 11 12  1  0
 12 13  1  0
 12 14  2  0
 10 15  2  0
  3 16  1  0
 16 17  1  0
 17 18  2  0
 18 19  1  0
 19 20  1  0
 20 21  2  0
 20 22  1  0
 22 23  1  0
 23 24  1  0
 24 25  2  0
 25 26  1  0
 26 27  2  0
 27 28  1  0
 28 29  2  0
 29 30  1  0
 19 31  2  0
 31 32  1  0
 32 33  2  0
 33 34  1  0
 15  5  1  0
 33 17  1  0
 29 24  1  0
  1 35  1  0
  1 36  1  0
  1 37  1  0
  2 38  1  0
  2 39  1  0
  4 40  1  0
  4 41  1  0
  6 42  1  0
  7 43  1  0
 13 44  1  0
 13 45  1  0
 13 46  1  0
 15 47  1  0
 16 48  1  0
 16 49  1  0
 18 50  1  0
 23 51  1  0
 23 52  1  0
 25 53  1  0
 26 54  1  0
 27 55  1  0
 28 56  1  0
 30 57  1  0
 30 58  1  0
 30 59  1  0
 31 60  1  0
 32 61  1  0
 34 62  1  0
M  CHG  3   9  -1  11  -1  22  -1
M  END
>  <UniqueID>  (81) 
76

>  <SMILES>  (81) 
CCN(Cc1ccc([O-])c([N-]C(C)=O)c1)Cc1cc(C(=O)[N-]Cc2ccccc2C)ccc1O

>  <Energy>  (81) 
68.68929531124432

>  <Genealogy>  (81) 
CCN(Cc1ccc([O-])c([N-]C(C)=O)c1)Cc1cc(C(=O)[N-]Cc2ccccc2C)ccc1O (protonated)
CCN(Cc1ccc([O-])c([N-]C(C)=O)c1)Cc1cc(C(=O)[N-]Cc2ccccc2C)ccc1O (3D coordinates assigned)
CCN(Cc1ccc([O-])c([N-]C(C)=O)c1)Cc1cc(C(=O)[N-]Cc2ccccc2C)ccc1O (optimized conformer: 68.68929531124432 kcal/mol)

>  <smiles>  (81) 
CCN(Cc1ccc(O)c(NC(C)=O)c1)Cc1cc(C(=O)NCc2ccccc2C)ccc1O

>  <score_type>  (81) 
oracle

>  <origin>  (81) 
adg

>  <m_score__min__energy>  (81) 
-16.010000000000002

>  <m_primary>  (81) 
energy

$$$$
81:0
     RDKit          3D

 51 55  0  0  0  0  0  0  0  0999 V2000
   60.0320   35.4940   46.0200 O   0  0  0  0  0  0  0  0  0  0  0  0
   59.1750   34.5870   46.2080 C   0  0  0  0  0  0  0  0  0  0  0  0
   58.0960   34.4220   45.2770 N   0  0  0  0  0  0  0  0  0  0  0  0
   57.7860   33.2180   44.5560 C   0  0  0  0  0  0  0  0  0  0  0  0
   56.9650   32.2140   45.1060 C   0  0  0  0  0  0  0  0  0  0  0  0
   56.6460   31.0740   44.3570 C   0  0  0  0  0  0  0  0  0  0  0  0
   57.1340   30.9360   43.0560 C   0  0  0  0  0  0  0  0  0  0  0  0
   57.9340   31.9370   42.4960 C   0  0  0  0  0  0  0  0  0  0  0  0
   58.2570   33.0740   43.2440 C   0  0  0  0  0  0  0  0  0  0  0  0
   59.2660   33.7180   47.4070 C   0  0  0  0  0  0  0  0  0  0  0  0
   59.6220   34.2620   48.6530 C   0  0  0  0  0  0  0  0  0  0  0  0
   59.7430   33.4410   49.7740 C   0  0  0  0  0  0  0  0  0  0  0  0
   59.5160   32.0690   49.6690 C   0  0  0  0  0  0  0  0  0  0  0  0
   59.1520   31.5020   48.4370 C   0  0  0  0  0  0  0  0  0  0  0  0
   58.8940   30.0490   48.3270 C   0  0  0  0  0  0  0  0  0  0  0  0
   58.8920   29.3360   49.3690 O   0  0  0  0  0  0  0  0  0  0  0  0
   58.5970   29.4550   47.0520 N   0  0  0  0  0  0  0  0  0  0  0  0
   58.6520   28.0400   46.8070 C   0  0  0  0  0  0  0  0  0  0  0  0
   59.8810   27.3780   46.6440 C   0  0  0  0  0  0  0  0  0  0  0  0
   59.9090   26.0080   46.3800 C   0  0  0  0  0  0  0  0  0  0  0  0
   58.7180   25.2840   46.2830 C   0  0  0  0  0  0  0  0  0  0  0  0
   57.4780   25.9310   46.4340 C   0  0  0  0  0  0  0  0  0  0  0  0
   56.2160   25.1640   46.3500 C   0  0  0  0  0  0  0  0  0  0  0  0
   55.1520   25.5710   45.6060 N   0  0  0  0  0  0  0  0  0  0  0  0
   54.2630   24.5830   45.7940 C   0  0  0  0  0  0  0  0  0  0  0  0
   52.9900   24.4620   45.2390 C   0  0  0  0  0  0  0  0  0  0  0  0
   52.2450   23.3100   45.5600 C   0  0  0  0  0  0  0  0  0  0  0  0
   52.7860   22.3230   46.4150 C   0  0  0  0  0  0  0  0  0  0  0  0
   54.0760   22.4830   46.9560 C   0  0  0  0  0  0  0  0  0  0  0  0
   54.7850   23.6320   46.6130 C   0  0  0  0  0  0  0  0  0  0  0  0
   56.0280   23.9740   46.9820 N   0  0  0  0  0  0  0  0  0  0  0  0
   57.4550   27.3140   46.6800 C   0  0  0  0  0  0  0  0  0  0  0  0
   59.0200   32.3340   47.3110 C   0  0  0  0  0  0  0  0  0  0  0  0
   56.5729   32.3257   46.1276 H   0  0  0  0  0  0  0  0  0  0  0  0
   56.0117   30.2883   44.7933 H   0  0  0  0  0  0  0  0  0  0  0  0
   56.8886   30.0378   42.4703 H   0  0  0  0  0  0  0  0  0  0  0  0
   58.3092   31.8303   41.4675 H   0  0  0  0  0  0  0  0  0  0  0  0
   58.8848   33.8603   42.7995 H   0  0  0  0  0  0  0  0  0  0  0  0
   59.8065   35.3425   48.7447 H   0  0  0  0  0  0  0  0  0  0  0  0
   60.0187   33.8776   50.7453 H   0  0  0  0  0  0  0  0  0  0  0  0
   59.6227   31.4275   50.5562 H   0  0  0  0  0  0  0  0  0  0  0  0
   58.2140   30.0700   46.2990 H   0  0  0  0  0  0  0  0  0  0  0  0
   60.8226   27.9409   46.7247 H   0  0  0  0  0  0  0  0  0  0  0  0
   60.8734   25.4957   46.2476 H   0  0  0  0  0  0  0  0  0  0  0  0
   58.7501   24.2020   46.0875 H   0  0  0  0  0  0  0  0  0  0  0  0
   52.5819   25.2378   44.5745 H   0  0  0  0  0  0  0  0  0  0  0  0
   51.2359   23.1779   45.1426 H   0  0  0  0  0  0  0  0  0  0  0  0
   52.1970   21.4265   46.6586 H   0  0  0  0  0  0  0  0  0  0  0  0
   54.5093   21.7264   47.6267 H   0  0  0  0  0  0  0  0  0  0  0  0
   56.4903   27.8341   46.7742 H   0  0  0  0  0  0  0  0  0  0  0  0
   58.7216   31.8998   46.3453 H   0  0  0  0  0  0  0  0  0  0  0  0
  1  2  2  0
  2  3  1  0
  3  4  1  0
  4  5  2  0
  5  6  1  0
  6  7  2  0
  7  8  1  0
  8  9  2  0
  2 10  1  0
 10 11  2  0
 11 12  1  0
 12 13  2  0
 13 14  1  0
 14 15  1  0
 15 16  2  0
 15 17  1  0
 17 18  1  0
 18 19  2  0
 19 20  1  0
 20 21  2  0
 21 22  1  0
 22 23  1  0
 23 24  2  0
 24 25  1  0
 25 26  2  0
 26 27  1  0
 27 28  2  0
 28 29  1  0
 29 30  2  0
 30 31  1  0
 22 32  2  0
 14 33  2  0
  9  4  1  0
 33 10  1  0
 32 18  1  0
 31 23  1  0
 30 25  1  0
  5 34  1  0
  6 35  1  0
  7 36  1  0
  8 37  1  0
  9 38  1  0
 11 39  1  0
 12 40  1  0
 13 41  1  0
 17 42  1  0
 19 43  1  0
 20 44  1  0
 21 45  1  0
 26 46  1  0
 27 47  1  0
 28 48  1  0
 29 49  1  0
 32 50  1  0
 33 51  1  0
M  CHG  2   3  -1  31  -1
M  END
>  <UniqueID>  (82) 
77

>  <SMILES>  (82) 
O=C([N-]c1ccccc1)c1cccc(C(=O)Nc2cccc(-c3nc4ccccc4[n-]3)c2)c1

>  <Energy>  (82) 
104.36834712106622

>  <Genealogy>  (82) 
O=C([N-]c1ccccc1)c1cccc(C(=O)Nc2cccc(-c3nc4ccccc4[n-]3)c2)c1 (protonated)
O=C([N-]c1ccccc1)c1cccc(C(=O)Nc2cccc(-c3nc4ccccc4[n-]3)c2)c1 (3D coordinates assigned)
O=C([N-]c1ccccc1)c1cccc(C(=O)Nc2cccc(-c3nc4ccccc4[n-]3)c2)c1 (optimized conformer: 104.36834712106622 kcal/mol)

>  <smiles>  (82) 
O=C(Nc1ccccc1)c1cccc(C(=O)Nc2cccc(-c3nc4ccccc4[nH]3)c2)c1

>  <score_type>  (82) 
oracle

>  <origin>  (82) 
adg

>  <m_score__min__energy>  (82) 
-12.050000000000001

>  <m_primary>  (82) 
energy

$$$$
82:0
     RDKit          3D

 51 53  0  0  0  0  0  0  0  0999 V2000
   64.3088   31.9420   49.2338 H   0  0  0  0  0  0  0  0  0  0  0  0
   63.3110   32.1530   49.6460 C   0  0  0  0  0  0  0  0  0  0  0  0
   63.0770   31.8170   50.9240 C   0  0  0  0  0  0  0  0  0  0  0  0
   63.5233   32.4467   51.7077 H   0  0  0  0  0  0  0  0  0  0  0  0
   62.2460   30.6380   51.3620 C   0  0  0  0  0  0  0  0  0  0  0  0
   62.8418   30.0124   52.0429 H   0  0  0  0  0  0  0  0  0  0  0  0
   61.3461   31.0158   51.8694 H   0  0  0  0  0  0  0  0  0  0  0  0
   61.8270   29.8310   50.2170 N   0  0  0  0  0  0  0  0  0  0  0  0
   62.4390   29.0400   49.9150 H   0  0  0  0  0  0  0  0  0  0  0  0
   60.6200   30.0910   49.4880 C   0  0  0  0  0  0  0  0  0  0  0  0
   59.8210   30.9800   49.8910 O   0  0  0  0  0  0  0  0  0  0  0  0
   60.3270   29.3270   48.3080 N   0  0  0  0  0  0  0  0  0  0  0  0
   61.0000   28.5730   48.0450 H   0  0  0  0  0  0  0  0  0  0  0  0
   59.2110   29.5940   47.4400 C   0  0  0  0  0  0  0  0  0  0  0  0
   58.5770   30.6790   47.5490 O   0  0  0  0  0  0  0  0  0  0  0  0
   58.8120   28.6250   46.3910 C   0  0  0  0  0  0  0  0  0  0  0  0
   59.4110   28.6440   45.1170 C   0  0  0  0  0  0  0  0  0  0  0  0
   60.1848   29.3915   44.8878 H   0  0  0  0  0  0  0  0  0  0  0  0
   59.0280   27.7180   44.1410 C   0  0  0  0  0  0  0  0  0  0  0  0
   59.4990   27.7425   43.1473 H   0  0  0  0  0  0  0  0  0  0  0  0
   58.0500   26.7630   44.4240 C   0  0  0  0  0  0  0  0  0  0  0  0
   57.7466   26.0403   43.6522 H   0  0  0  0  0  0  0  0  0  0  0  0
   57.4570   26.7260   45.6880 C   0  0  0  0  0  0  0  0  0  0  0  0
   56.6903   25.9699   45.9128 H   0  0  0  0  0  0  0  0  0  0  0  0
   57.8360   27.6480   46.6680 C   0  0  0  0  0  0  0  0  0  0  0  0
   57.3685   27.6102   47.6630 H   0  0  0  0  0  0  0  0  0  0  0  0
   62.3180   32.7870   48.7570 C   0  0  0  0  0  0  0  0  0  0  0  0
   62.0300   32.2670   47.4880 C   0  0  0  0  0  0  0  0  0  0  0  0
   62.5466   31.3619   47.1359 H   0  0  0  0  0  0  0  0  0  0  0  0
   61.1140   32.8780   46.6910 N   0  0  0  0  0  0  0  0  0  0  0  0
   60.4570   34.0090   47.0790 C   0  0  0  0  0  0  0  0  0  0  0  0
   59.5740   34.5790   46.3110 N   0  0  0  0  0  0  0  0  0  0  0  0
   58.5680   33.9270   45.5170 C   0  0  0  0  0  0  0  0  0  0  0  0
   57.6200   34.5840   45.0070 O   0  0  0  0  0  0  0  0  0  0  0  0
   58.6350   32.5040   45.3490 N   0  0  0  0  0  0  0  0  0  0  0  0
   59.2620   31.9730   45.9950 H   0  0  0  0  0  0  0  0  0  0  0  0
   57.8170   31.7570   44.4320 C   0  0  0  0  0  0  0  0  0  0  0  0
   57.8750   31.9820   43.0440 C   0  0  0  0  0  0  0  0  0  0  0  0
   58.5434   32.7578   42.6423 H   0  0  0  0  0  0  0  0  0  0  0  0
   57.0860   31.2230   42.1730 C   0  0  0  0  0  0  0  0  0  0  0  0
   57.1281   31.4101   41.0898 H   0  0  0  0  0  0  0  0  0  0  0  0
   56.2440   30.2270   42.6770 C   0  0  0  0  0  0  0  0  0  0  0  0
   55.6187   29.6365   41.9913 H   0  0  0  0  0  0  0  0  0  0  0  0
   56.1970   29.9820   44.0510 C   0  0  0  0  0  0  0  0  0  0  0  0
   55.3890   29.0080   44.5380 F   0  0  0  0  0  0  0  0  0  0  0  0
   56.9860   30.7380   44.9250 C   0  0  0  0  0  0  0  0  0  0  0  0
   56.9551   30.5328   46.0052 H   0  0  0  0  0  0  0  0  0  0  0  0
   60.7380   34.5710   48.3300 C   0  0  0  0  0  0  0  0  0  0  0  0
   60.2210   35.4862   48.6543 H   0  0  0  0  0  0  0  0  0  0  0  0
   61.6780   33.9630   49.1630 C   0  0  0  0  0  0  0  0  0  0  0  0
   61.9161   34.4088   50.1400 H   0  0  0  0  0  0  0  0  0  0  0  0
  1  2  1  0
  2  3  2  0
  3  4  1  0
  3  5  1  0
  5  6  1  0
  5  7  1  0
  5  8  1  0
  8  9  1  0
  8 10  1  0
 10 11  2  0
 10 12  1  0
 12 13  1  0
 12 14  1  0
 14 15  2  0
 14 16  1  0
 16 17  2  0
 17 18  1  0
 17 19  1  0
 19 20  1  0
 19 21  2  0
 21 22  1  0
 21 23  1  0
 23 24  1  0
 23 25  2  0
 25 26  1  0
  2 27  1  0
 27 28  2  0
 28 29  1  0
 28 30  1  0
 30 31  1  0
 31 32  2  3
 32 33  1  0
 33 34  2  0
 33 35  1  0
 35 36  1  0
 35 37  1  0
 37 38  2  0
 38 39  1  0
 38 40  1  0
 40 41  1  0
 40 42  2  0
 42 43  1  0
 42 44  1  0
 44 45  1  0
 44 46  2  0
 46 47  1  0
 31 48  1  0
 48 49  1  0
 48 50  2  0
 50 51  1  0
 25 16  1  0
 50 27  1  0
 46 37  1  0
M  CHG  1  30  -1
M  END
>  <UniqueID>  (83) 
78

>  <SMILES>  (83) 
O=C(N=c1ccc(/C=C\CNC(=O)NC(=O)c2ccccc2)c[n-]1)Nc1cccc(F)c1

>  <Energy>  (83) 
64.65711835040018

>  <Genealogy>  (83) 
O=C(N=c1ccc(C=CCNC(=O)NC(=O)c2ccccc2)c[n-]1)Nc1cccc(F)c1 (protonated)
O=C(N=c1ccc(/C=C\CNC(=O)NC(=O)c2ccccc2)c[n-]1)Nc1cccc(F)c1 (cis-trans isomerization)
O=C(N=c1ccc(/C=C\CNC(=O)NC(=O)c2ccccc2)c[n-]1)Nc1cccc(F)c1 (3D coordinates assigned)
O=C(N=c1ccc(/C=C\CNC(=O)NC(=O)c2ccccc2)c[n-]1)Nc1cccc(F)c1 (optimized conformer: 64.65711835040018 kcal/mol)

>  <smiles>  (83) 
O=C(N=c1ccc(C=CCNC(=O)NC(=O)c2ccccc2)c[nH]1)Nc1cccc(F)c1

>  <score_type>  (83) 
oracle

>  <origin>  (83) 
adg

>  <m_score__min__energy>  (83) 
-11.279999999999999

>  <m_primary>  (83) 
energy

$$$$
83:0
     RDKit          3D

 52 55  0  0  0  0  0  0  0  0999 V2000
   56.9470   30.7930   42.2910 O   0  0  0  0  0  0  0  0  0  0  0  0
   57.0210   31.2290   43.4710 C   0  0  0  0  0  0  0  0  0  0  0  0
   56.6320   30.3970   44.5700 N   0  0  0  0  0  0  0  0  0  0  0  0
   57.3340   29.2300   45.0150 C   0  0  0  0  0  0  0  0  0  0  0  0
   58.6930   29.1050   44.7060 C   0  0  0  0  0  0  0  0  0  0  0  0
   59.3810   27.9280   45.0120 C   0  0  0  0  0  0  0  0  0  0  0  0
   58.7060   26.8550   45.5980 C   0  0  0  0  0  0  0  0  0  0  0  0
   57.3360   26.9590   45.8920 C   0  0  0  0  0  0  0  0  0  0  0  0
   56.6060   25.8490   46.4320 N   0  0  0  0  0  0  0  0  0  0  0  0
   55.7140   25.0140   45.6790 C   0  0  0  0  0  0  0  0  0  0  0  0
   54.4850   25.2860   45.6840 O   0  0  0  0  0  0  0  0  0  0  0  0
   56.2070   23.8760   44.8650 C   0  0  0  0  0  0  0  0  0  0  0  0
   57.0970   22.9420   45.4230 C   0  0  0  0  0  0  0  0  0  0  0  0
   57.5670   21.8700   44.6580 C   0  0  0  0  0  0  0  0  0  0  0  0
   57.1470   21.7140   43.3340 C   0  0  0  0  0  0  0  0  0  0  0  0
   56.2510   22.6270   42.7750 C   0  0  0  0  0  0  0  0  0  0  0  0
   55.7760   23.7000   43.5350 C   0  0  0  0  0  0  0  0  0  0  0  0
   56.6620   28.1570   45.6300 C   0  0  0  0  0  0  0  0  0  0  0  0
   57.4410   32.5750   43.7110 N   0  0  0  0  0  0  0  0  0  0  0  0
   58.0970   32.9640   44.9270 C   0  0  0  0  0  0  0  0  0  0  0  0
   57.8420   34.2220   45.4870 C   0  0  0  0  0  0  0  0  0  0  0  0
   58.4720   34.6020   46.6750 C   0  0  0  0  0  0  0  0  0  0  0  0
   59.3740   33.7390   47.3020 C   0  0  0  0  0  0  0  0  0  0  0  0
   59.6620   32.4840   46.7390 C   0  0  0  0  0  0  0  0  0  0  0  0
   60.6610   31.5800   47.3550 C   0  0  0  0  0  0  0  0  0  0  0  0
   60.3890   30.3510   47.4440 O   0  0  0  0  0  0  0  0  0  0  0  0
   61.9600   32.0680   47.8770 C   0  0  0  0  0  0  0  0  0  0  0  0
   62.6960   33.0490   47.1870 C   0  0  0  0  0  0  0  0  0  0  0  0
   63.9050   33.5250   47.7090 C   0  0  0  0  0  0  0  0  0  0  0  0
   64.3850   33.0330   48.9250 C   0  0  0  0  0  0  0  0  0  0  0  0
   63.6560   32.0680   49.6240 C   0  0  0  0  0  0  0  0  0  0  0  0
   62.4480   31.5890   49.1060 C   0  0  0  0  0  0  0  0  0  0  0  0
   59.0270   32.1100   45.5460 C   0  0  0  0  0  0  0  0  0  0  0  0
   59.2224   29.9376   44.2197 H   0  0  0  0  0  0  0  0  0  0  0  0
   60.4555   27.8465   44.7911 H   0  0  0  0  0  0  0  0  0  0  0  0
   59.2481   25.9264   45.8299 H   0  0  0  0  0  0  0  0  0  0  0  0
   57.4254   23.0550   46.4667 H   0  0  0  0  0  0  0  0  0  0  0  0
   58.2692   21.1475   45.0994 H   0  0  0  0  0  0  0  0  0  0  0  0
   57.5222   20.8725   42.7330 H   0  0  0  0  0  0  0  0  0  0  0  0
   55.9179   22.5019   41.7341 H   0  0  0  0  0  0  0  0  0  0  0  0
   55.0622   24.4104   43.0925 H   0  0  0  0  0  0  0  0  0  0  0  0
   55.6022   28.2606   45.9059 H   0  0  0  0  0  0  0  0  0  0  0  0
   57.2810   33.2920   42.9680 H   0  0  0  0  0  0  0  0  0  0  0  0
   57.1443   34.9125   44.9906 H   0  0  0  0  0  0  0  0  0  0  0  0
   58.2567   35.5853   47.1186 H   0  0  0  0  0  0  0  0  0  0  0  0
   59.8609   34.0431   48.2403 H   0  0  0  0  0  0  0  0  0  0  0  0
   62.3194   33.4442   46.2320 H   0  0  0  0  0  0  0  0  0  0  0  0
   64.4776   34.2875   47.1606 H   0  0  0  0  0  0  0  0  0  0  0  0
   65.3367   33.4053   49.3320 H   0  0  0  0  0  0  0  0  0  0  0  0
   64.0325   31.6840   50.5836 H   0  0  0  0  0  0  0  0  0  0  0  0
   61.8760   30.8327   49.6636 H   0  0  0  0  0  0  0  0  0  0  0  0
   59.2592   31.1368   45.0889 H   0  0  0  0  0  0  0  0  0  0  0  0
  1  2  2  0
  2  3  1  0
  3  4  1  0
  4  5  2  0
  5  6  1  0
  6  7  2  0
  7  8  1  0
  8  9  1  0
  9 10  1  0
 10 11  2  0
 10 12  1  0
 12 13  2  0
 13 14  1  0
 14 15  2  0
 15 16  1  0
 16 17  2  0
  8 18  2  0
  2 19  1  0
 19 20  1  0
 20 21  2  0
 21 22  1  0
 22 23  2  0
 23 24  1  0
 24 25  1  0
 25 26  2  0
 25 27  1  0
 27 28  2  0
 28 29  1  0
 29 30  2  0
 30 31  1  0
 31 32  2  0
 24 33  2  0
 18  4  1  0
 33 20  1  0
 17 12  1  0
 32 27  1  0
  5 34  1  0
  6 35  1  0
  7 36  1  0
 13 37  1  0
 14 38  1  0
 15 39  1  0
 16 40  1  0
 17 41  1  0
 18 42  1  0
 19 43  1  0
 21 44  1  0
 22 45  1  0
 23 46  1  0
 28 47  1  0
 29 48  1  0
 30 49  1  0
 31 50  1  0
 32 51  1  0
 33 52  1  0
M  CHG  2   3  -1   9  -1
M  END
>  <UniqueID>  (84) 
79

>  <SMILES>  (84) 
O=C([N-]c1cccc([N-]C(=O)c2ccccc2)c1)Nc1cccc(C(=O)c2ccccc2)c1

>  <Energy>  (84) 
77.31589586703285

>  <Genealogy>  (84) 
O=C([N-]c1cccc([N-]C(=O)c2ccccc2)c1)Nc1cccc(C(=O)c2ccccc2)c1 (protonated)
O=C([N-]c1cccc([N-]C(=O)c2ccccc2)c1)Nc1cccc(C(=O)c2ccccc2)c1 (3D coordinates assigned)
O=C([N-]c1cccc([N-]C(=O)c2ccccc2)c1)Nc1cccc(C(=O)c2ccccc2)c1 (optimized conformer: 77.31589586703285 kcal/mol)

>  <smiles>  (84) 
O=C(Nc1cccc(NC(=O)c2ccccc2)c1)Nc1cccc(C(=O)c2ccccc2)c1

>  <score_type>  (84) 
oracle

>  <origin>  (84) 
adg

>  <m_score__min__energy>  (84) 
-13.699999999999999

>  <m_primary>  (84) 
energy

$$$$
84:0
     RDKit          3D

 38 40  0  0  0  0  0  0  0  0999 V2000
   60.4569   27.2585   45.5946 H   0  0  0  0  0  0  0  0  0  0  0  0
   59.3600   27.2040   45.6560 C   0  0  0  0  0  0  0  0  0  0  0  0
   58.5880   28.2990   45.2710 C   0  0  0  0  0  0  0  0  0  0  0  0
   59.0803   29.2139   44.9096 H   0  0  0  0  0  0  0  0  0  0  0  0
   57.1860   28.2430   45.3410 C   0  0  0  0  0  0  0  0  0  0  0  0
   56.3910   29.4190   44.9050 C   0  0  0  0  0  0  0  0  0  0  0  0
   55.1320   29.3400   44.8920 O   0  0  0  0  0  0  0  0  0  0  0  0
   57.0060   30.6290   44.4390 N   0  0  0  0  0  0  0  0  0  0  0  0
   57.4820   31.5850   45.1830 C   0  0  0  0  0  0  0  0  0  0  0  0
   58.5520   31.3180   46.4500 S   0  0  0  0  0  0  0  0  0  0  0  0
   58.6600   32.9580   46.8230 C   0  0  0  0  0  0  0  0  0  0  0  0
   59.4130   33.5330   47.9810 C   0  0  0  0  0  0  0  0  0  0  0  0
   59.2648   34.6226   48.0073 H   0  0  0  0  0  0  0  0  0  0  0  0
   59.0406   33.0839   48.9135 H   0  0  0  0  0  0  0  0  0  0  0  0
   60.8790   33.2330   47.8390 C   0  0  0  0  0  0  0  0  0  0  0  0
   61.6300   33.8390   46.8180 C   0  0  0  0  0  0  0  0  0  0  0  0
   61.1366   34.5092   46.0987 H   0  0  0  0  0  0  0  0  0  0  0  0
   63.0030   33.5930   46.7130 C   0  0  0  0  0  0  0  0  0  0  0  0
   63.7220   34.1780   45.7230 F   0  0  0  0  0  0  0  0  0  0  0  0
   63.6350   32.7500   47.6310 C   0  0  0  0  0  0  0  0  0  0  0  0
   64.7142   32.5552   47.5451 H   0  0  0  0  0  0  0  0  0  0  0  0
   62.8980   32.1540   48.6580 C   0  0  0  0  0  0  0  0  0  0  0  0
   63.5140   31.3430   49.5530 F   0  0  0  0  0  0  0  0  0  0  0  0
   61.5240   32.3970   48.7660 C   0  0  0  0  0  0  0  0  0  0  0  0
   60.9472   31.9321   49.5791 H   0  0  0  0  0  0  0  0  0  0  0  0
   57.8470   33.6710   45.9470 C   0  0  0  0  0  0  0  0  0  0  0  0
   57.7336   34.7641   45.9945 H   0  0  0  0  0  0  0  0  0  0  0  0
   57.2050   32.9030   45.0280 N   0  0  0  0  0  0  0  0  0  0  0  0
   56.5950   33.3120   44.2870 H   0  0  0  0  0  0  0  0  0  0  0  0
   56.5670   27.0740   45.8350 C   0  0  0  0  0  0  0  0  0  0  0  0
   55.1840   27.0180   45.9820 O   0  0  0  0  0  0  0  0  0  0  0  0
   57.3490   25.9630   46.2060 C   0  0  0  0  0  0  0  0  0  0  0  0
   56.6940   24.7170   46.7320 C   0  0  0  0  0  0  0  0  0  0  0  0
   56.7031   24.7343   47.8318 H   0  0  0  0  0  0  0  0  0  0  0  0
   55.6547   24.6702   46.3746 H   0  0  0  0  0  0  0  0  0  0  0  0
   57.2447   23.8344   46.3746 H   0  0  0  0  0  0  0  0  0  0  0  0
   58.7470   26.0390   46.1190 C   0  0  0  0  0  0  0  0  0  0  0  0
   59.3623   25.1772   46.4168 H   0  0  0  0  0  0  0  0  0  0  0  0
  1  2  1  0
  2  3  2  0
  3  4  1  0
  3  5  1  0
  5  6  1  0
  6  7  2  0
  6  8  1  0
  8  9  2  0
  9 10  1  0
 10 11  1  0
 11 12  1  0
 12 13  1  0
 12 14  1  0
 12 15  1  0
 15 16  2  0
 16 17  1  0
 16 18  1  0
 18 19  1  0
 18 20  2  0
 20 21  1  0
 20 22  1  0
 22 23  1  0
 22 24  2  0
 24 25  1  0
 11 26  2  0
 26 27  1  0
 26 28  1  0
 28 29  1  0
  5 30  2  0
 30 31  1  0
 30 32  1  0
 32 33  1  0
 33 34  1  0
 33 35  1  0
 33 36  1  0
 32 37  2  0
 37 38  1  0
 37  2  1  0
 28  9  1  0
 24 15  1  0
M  CHG  1  31  -1
M  END
>  <UniqueID>  (85) 
80

>  <SMILES>  (85) 
Cc1cccc(C(=O)/N=c2\[nH]cc(Cc3cc(F)cc(F)c3)s2)c1[O-]

>  <Energy>  (85) 
78.38123482497988

>  <Genealogy>  (85) 
Cc1cccc(C(=O)N=c2[nH]cc(Cc3cc(F)cc(F)c3)s2)c1[O-] (protonated)
Cc1cccc(C(=O)/N=c2\[nH]cc(Cc3cc(F)cc(F)c3)s2)c1[O-] (cis-trans isomerization)
Cc1cccc(C(=O)/N=c2\[nH]cc(Cc3cc(F)cc(F)c3)s2)c1[O-] (3D coordinates assigned)
Cc1cccc(C(=O)/N=c2\[nH]cc(Cc3cc(F)cc(F)c3)s2)c1[O-] (optimized conformer: 78.38123482497988 kcal/mol)

>  <smiles>  (85) 
Cc1cccc(C(=O)N=c2[nH]cc(Cc3cc(F)cc(F)c3)s2)c1O

>  <score_type>  (85) 
oracle

>  <origin>  (85) 
adg

>  <m_score__min__energy>  (85) 
-12.51

>  <m_primary>  (85) 
energy

$$$$
85:0
     RDKit          3D

 49 51  0  0  0  0  0  0  0  0999 V2000
   59.2405   34.2354   44.2637 H   0  0  0  0  0  0  0  0  0  0  0  0
   59.0110   33.9770   45.3080 C   0  0  0  0  0  0  0  0  0  0  0  0
   57.7130   33.3210   45.5810 C   0  0  0  0  0  0  0  0  0  0  0  0
   56.6630   34.0090   45.7000 O   0  0  0  0  0  0  0  0  0  0  0  0
   57.6460   31.9100   45.8140 N   0  0  0  0  0  0  0  0  0  0  0  0
   57.3870   30.9660   44.7700 C   0  0  0  0  0  0  0  0  0  0  0  0
   56.9880   31.4420   43.5160 C   0  0  0  0  0  0  0  0  0  0  0  0
   56.9492   32.5254   43.3298 H   0  0  0  0  0  0  0  0  0  0  0  0
   56.6390   30.5510   42.5000 C   0  0  0  0  0  0  0  0  0  0  0  0
   56.3244   30.9332   41.5177 H   0  0  0  0  0  0  0  0  0  0  0  0
   56.6890   29.1750   42.7300 C   0  0  0  0  0  0  0  0  0  0  0  0
   56.3970   28.4745   41.9338 H   0  0  0  0  0  0  0  0  0  0  0  0
   57.1090   28.6860   43.9690 C   0  0  0  0  0  0  0  0  0  0  0  0
   57.1477   27.6003   44.1417 H   0  0  0  0  0  0  0  0  0  0  0  0
   57.4830   29.5690   44.9980 C   0  0  0  0  0  0  0  0  0  0  0  0
   58.0180   29.0170   46.2660 C   0  0  0  0  0  0  0  0  0  0  0  0
   59.0310   29.5440   46.8020 O   0  0  0  0  0  0  0  0  0  0  0  0
   57.3950   27.8760   46.8720 N   0  0  0  0  0  0  0  0  0  0  0  0
   57.3180   26.5510   46.3320 C   0  0  0  0  0  0  0  0  0  0  0  0
   58.5140   25.8480   46.1300 C   0  0  0  0  0  0  0  0  0  0  0  0
   59.4712   26.3029   46.4248 H   0  0  0  0  0  0  0  0  0  0  0  0
   58.4990   24.5740   45.5570 C   0  0  0  0  0  0  0  0  0  0  0  0
   59.4419   24.0285   45.4043 H   0  0  0  0  0  0  0  0  0  0  0  0
   57.2870   23.9930   45.1780 C   0  0  0  0  0  0  0  0  0  0  0  0
   57.2741   22.9837   44.7407 H   0  0  0  0  0  0  0  0  0  0  0  0
   56.0910   24.6930   45.3540 C   0  0  0  0  0  0  0  0  0  0  0  0
   55.1379   24.2328   45.0542 H   0  0  0  0  0  0  0  0  0  0  0  0
   56.1000   25.9770   45.9100 C   0  0  0  0  0  0  0  0  0  0  0  0
   54.9050   26.6820   45.9970 O   0  0  0  0  0  0  0  0  0  0  0  0
   59.9280   34.2800   46.2370 C   0  0  0  0  0  0  0  0  0  0  0  0
   59.9027   35.2914   46.6688 H   0  0  0  0  0  0  0  0  0  0  0  0
   60.9690   33.3540   46.7220 C   0  0  0  0  0  0  0  0  0  0  0  0
   62.3000   33.7830   46.7860 C   0  0  0  0  0  0  0  0  0  0  0  0
   62.5746   34.7769   46.4028 H   0  0  0  0  0  0  0  0  0  0  0  0
   63.2810   32.9530   47.3350 C   0  0  0  0  0  0  0  0  0  0  0  0
   64.3289   33.2862   47.3636 H   0  0  0  0  0  0  0  0  0  0  0  0
   62.9330   31.7000   47.8480 C   0  0  0  0  0  0  0  0  0  0  0  0
   63.7073   31.0559   48.2902 H   0  0  0  0  0  0  0  0  0  0  0  0
   61.5980   31.2580   47.8020 C   0  0  0  0  0  0  0  0  0  0  0  0
   61.1920   30.0200   48.4130 N   0  0  0  0  0  0  0  0  0  0  0  0
   60.9170   29.2300   47.7860 H   0  0  0  0  0  0  0  0  0  0  0  0
   61.1650   29.7820   49.8290 C   0  0  0  0  0  0  0  0  0  0  0  0
   61.8280   30.5090   50.6170 O   0  0  0  0  0  0  0  0  0  0  0  0
   60.3580   28.6500   50.3760 C   0  0  0  0  0  0  0  0  0  0  0  0
   60.3804   28.6814   51.4753 H   0  0  0  0  0  0  0  0  0  0  0  0
   59.3184   28.7389   50.0277 H   0  0  0  0  0  0  0  0  0  0  0  0
   60.7811   27.6962   50.0277 H   0  0  0  0  0  0  0  0  0  0  0  0
   60.6220   32.0960   47.2410 C   0  0  0  0  0  0  0  0  0  0  0  0
   59.5739   31.7639   47.2074 H   0  0  0  0  0  0  0  0  0  0  0  0
  1  2  1  0
  2  3  1  0
  3  4  2  0
  3  5  1  0
  5  6  1  0
  6  7  2  0
  7  8  1  0
  7  9  1  0
  9 10  1  0
  9 11  2  0
 11 12  1  0
 11 13  1  0
 13 14  1  0
 13 15  2  0
 15 16  1  0
 16 17  2  0
 16 18  1  0
 18 19  1  0
 19 20  2  0
 20 21  1  0
 20 22  1  0
 22 23  1  0
 22 24  2  0
 24 25  1  0
 24 26  1  0
 26 27  1  0
 26 28  2  0
 28 29  1  0
  2 30  2  0
 30 31  1  0
 30 32  1  0
 32 33  2  0
 33 34  1  0
 33 35  1  0
 35 36  1  0
 35 37  2  0
 37 38  1  0
 37 39  1  0
 39 40  1  0
 40 41  1  0
 40 42  1  0
 42 43  2  0
 42 44  1  0
 44 45  1  0
 44 46  1  0
 44 47  1  0
 39 48  2  0
 48 49  1  0
 15  6  1  0
 28 19  1  0
 48 32  1  0
M  CHG  3   5  -1  18  -1  29  -1
M  END
>  <UniqueID>  (86) 
81

>  <SMILES>  (86) 
CC(=O)Nc1cccc(/C=C\C(=O)[N-]c2ccccc2C(=O)[N-]c2ccccc2[O-])c1

>  <Energy>  (86) 
73.34030874629231

>  <Genealogy>  (86) 
CC(=O)Nc1cccc(C=CC(=O)[N-]c2ccccc2C(=O)[N-]c2ccccc2[O-])c1 (protonated)
CC(=O)Nc1cccc(/C=C\C(=O)[N-]c2ccccc2C(=O)[N-]c2ccccc2[O-])c1 (cis-trans isomerization)
CC(=O)Nc1cccc(/C=C\C(=O)[N-]c2ccccc2C(=O)[N-]c2ccccc2[O-])c1 (3D coordinates assigned)
CC(=O)Nc1cccc(/C=C\C(=O)[N-]c2ccccc2C(=O)[N-]c2ccccc2[O-])c1 (optimized conformer: 73.34030874629231 kcal/mol)

>  <smiles>  (86) 
CC(=O)Nc1cccc(C=CC(=O)Nc2ccccc2C(=O)Nc2ccccc2O)c1

>  <score_type>  (86) 
oracle

>  <origin>  (86) 
adg

>  <m_score__min__energy>  (86) 
-16.309999999999999

>  <m_primary>  (86) 
energy

$$$$
86:0
     RDKit          3D

 40 42  0  0  0  0  0  0  0  0999 V2000
   54.9800   25.5380   45.6250 C   0  0  0  0  0  0  0  0  0  0  0  0
   55.7580   26.7240   45.7520 O   0  0  0  0  0  0  0  0  0  0  0  0
   57.1420   26.7500   45.9970 C   0  0  0  0  0  0  0  0  0  0  0  0
   57.7100   26.0580   47.0830 C   0  0  0  0  0  0  0  0  0  0  0  0
   59.0810   26.1180   47.3210 C   0  0  0  0  0  0  0  0  0  0  0  0
   59.9080   26.8590   46.4800 C   0  0  0  0  0  0  0  0  0  0  0  0
   59.3700   27.5510   45.3800 C   0  0  0  0  0  0  0  0  0  0  0  0
   60.1890   28.2800   44.4990 O   0  0  0  0  0  0  0  0  0  0  0  0
   61.3850   28.9540   44.8750 C   0  0  0  0  0  0  0  0  0  0  0  0
   57.9770   27.5050   45.1430 C   0  0  0  0  0  0  0  0  0  0  0  0
   57.3900   28.2520   44.0010 C   0  0  0  0  0  0  0  0  0  0  0  0
   57.5010   27.7800   42.8360 O   0  0  0  0  0  0  0  0  0  0  0  0
   56.7090   29.5090   44.1950 N   0  0  0  0  0  0  0  0  0  0  0  0
   55.3430   29.6810   43.6930 C   0  0  0  0  0  0  0  0  0  0  0  0
   57.3560   30.5970   44.8870 C   0  0  0  0  0  0  0  0  0  0  0  0
   56.8740   31.8700   44.8760 N   0  0  0  0  0  0  0  0  0  0  0  0
   57.7620   32.5290   45.6420 C   0  0  0  0  0  0  0  0  0  0  0  0
   57.7560   33.8780   45.9830 C   0  0  0  0  0  0  0  0  0  0  0  0
   58.7940   34.3480   46.8100 C   0  0  0  0  0  0  0  0  0  0  0  0
   59.8010   33.4660   47.2700 C   0  0  0  0  0  0  0  0  0  0  0  0
   61.2000   34.1200   48.3920 Br  0  0  0  0  0  0  0  0  0  0  0  0
   59.7740   32.1050   46.9040 C   0  0  0  0  0  0  0  0  0  0  0  0
   58.7320   31.6790   46.0850 C   0  0  0  0  0  0  0  0  0  0  0  0
   58.4940   30.4490   45.6150 N   0  0  0  0  0  0  0  0  0  0  0  0
   54.7290   25.1553   46.6253 H   0  0  0  0  0  0  0  0  0  0  0  0
   54.0541   25.7639   45.0758 H   0  0  0  0  0  0  0  0  0  0  0  0
   55.5560   24.7787   45.0758 H   0  0  0  0  0  0  0  0  0  0  0  0
   57.0660   25.4651   47.7491 H   0  0  0  0  0  0  0  0  0  0  0  0
   59.5125   25.5780   48.1767 H   0  0  0  0  0  0  0  0  0  0  0  0
   60.9892   26.9033   46.6775 H   0  0  0  0  0  0  0  0  0  0  0  0
   61.4544   28.9931   45.9721 H   0  0  0  0  0  0  0  0  0  0  0  0
   62.2534   28.4124   44.4717 H   0  0  0  0  0  0  0  0  0  0  0  0
   61.3715   29.9773   44.4717 H   0  0  0  0  0  0  0  0  0  0  0  0
   54.6487   29.7684   44.5417 H   0  0  0  0  0  0  0  0  0  0  0  0
   55.2897   30.5930   43.0802 H   0  0  0  0  0  0  0  0  0  0  0  0
   55.0652   28.8107   43.0802 H   0  0  0  0  0  0  0  0  0  0  0  0
   56.9678   34.5536   45.6192 H   0  0  0  0  0  0  0  0  0  0  0  0
   58.8226   35.4085   47.1008 H   0  0  0  0  0  0  0  0  0  0  0  0
   60.5478   31.4053   47.2527 H   0  0  0  0  0  0  0  0  0  0  0  0
   59.0530   29.5840   45.7850 H   0  0  0  0  0  0  0  0  0  0  0  0
  1  2  1  0
  2  3  1  0
  3  4  2  0
  4  5  1  0
  5  6  2  0
  6  7  1  0
  7  8  1  0
  8  9  1  0
  7 10  2  0
 10 11  1  0
 11 12  2  0
 11 13  1  0
 13 14  1  0
 13 15  1  0
 15 16  2  0
 16 17  1  0
 17 18  2  0
 18 19  1  0
 19 20  2  0
 20 21  1  0
 20 22  1  0
 22 23  2  0
 23 24  1  0
 10  3  1  0
 24 15  1  0
 23 17  1  0
  1 25  1  0
  1 26  1  0
  1 27  1  0
  4 28  1  0
  5 29  1  0
  6 30  1  0
  9 31  1  0
  9 32  1  0
  9 33  1  0
 14 34  1  0
 14 35  1  0
 14 36  1  0
 18 37  1  0
 19 38  1  0
 22 39  1  0
 24 40  1  0
M  END
>  <UniqueID>  (87) 
82

>  <SMILES>  (87) 
COc1cccc(OC)c1C(=O)N(C)c1nc2ccc(Br)cc2[nH]1

>  <Energy>  (87) 
84.8889436226679

>  <Genealogy>  (87) 
COc1cccc(OC)c1C(=O)N(C)c1nc2ccc(Br)cc2[nH]1 (3D coordinates assigned)
COc1cccc(OC)c1C(=O)N(C)c1nc2ccc(Br)cc2[nH]1 (optimized conformer: 84.8889436226679 kcal/mol)

>  <smiles>  (87) 
COc1cccc(OC)c1C(=O)N(C)c1nc2ccc(Br)cc2[nH]1

>  <score_type>  (87) 
oracle

>  <origin>  (87) 
adg

>  <m_score__min__energy>  (87) 
-7.0700000000000003

>  <m_primary>  (87) 
energy

$$$$
87:0
     RDKit          3D

 33 34  0  0  0  0  0  0  0  0999 V2000
   60.4250   28.9090   45.9300 C   0  0  0  0  0  0  0  0  0  0  0  0
   59.2530   27.9660   45.9280 C   0  0  0  0  0  0  0  0  0  0  0  0
   59.1850   26.9340   46.8780 C   0  0  0  0  0  0  0  0  0  0  0  0
   58.0950   26.0590   46.9000 C   0  0  0  0  0  0  0  0  0  0  0  0
   58.0510   25.0530   47.8590 O   0  0  0  0  0  0  0  0  0  0  0  0
   57.0600   26.2000   45.9650 C   0  0  0  0  0  0  0  0  0  0  0  0
   55.6750   25.1050   45.9960 S   0  0  0  0  0  0  0  0  0  0  0  0
   54.2080   25.9560   45.6550 N   0  0  0  0  0  0  0  0  0  0  0  0
   55.5690   24.4790   47.3580 O   0  0  0  0  0  0  0  0  0  0  0  0
   55.8610   24.0300   44.9630 O   0  0  0  0  0  0  0  0  0  0  0  0
   57.1220   27.2310   45.0160 C   0  0  0  0  0  0  0  0  0  0  0  0
   58.2090   28.1240   44.9940 C   0  0  0  0  0  0  0  0  0  0  0  0
   58.2760   29.1990   44.0440 N   0  0  0  0  0  0  0  0  0  0  0  0
   57.1560   30.5180   43.9390 S   0  0  0  0  0  0  0  0  0  0  0  0
   56.8970   30.8340   42.4930 O   0  0  0  0  0  0  0  0  0  0  0  0
   55.8620   30.1150   44.5920 O   0  0  0  0  0  0  0  0  0  0  0  0
   57.8310   31.9440   44.7210 C   0  0  0  0  0  0  0  0  0  0  0  0
   58.0750   33.1020   43.9710 C   0  0  0  0  0  0  0  0  0  0  0  0
   58.6370   34.2280   44.5790 C   0  0  0  0  0  0  0  0  0  0  0  0
   58.9550   34.2040   45.9420 C   0  0  0  0  0  0  0  0  0  0  0  0
   59.6640   35.6160   46.7030 Cl  0  0  0  0  0  0  0  0  0  0  0  0
   58.7080   33.0510   46.6950 C   0  0  0  0  0  0  0  0  0  0  0  0
   58.1470   31.9240   46.0880 C   0  0  0  0  0  0  0  0  0  0  0  0
   60.7096   29.1380   46.9676 H   0  0  0  0  0  0  0  0  0  0  0  0
   61.2742   28.4395   45.4119 H   0  0  0  0  0  0  0  0  0  0  0  0
   60.1482   29.8390   45.4119 H   0  0  0  0  0  0  0  0  0  0  0  0
   59.9963   26.8131   47.6110 H   0  0  0  0  0  0  0  0  0  0  0  0
   54.1200   26.7140   46.3690 H   0  0  0  0  0  0  0  0  0  0  0  0
   56.3116   27.3426   44.2806 H   0  0  0  0  0  0  0  0  0  0  0  0
   57.8235   33.1250   42.9004 H   0  0  0  0  0  0  0  0  0  0  0  0
   58.8296   35.1341   43.9858 H   0  0  0  0  0  0  0  0  0  0  0  0
   58.9558   33.0315   47.7666 H   0  0  0  0  0  0  0  0  0  0  0  0
   57.9528   31.0195   46.6831 H   0  0  0  0  0  0  0  0  0  0  0  0
  1  2  1  0
  2  3  2  0
  3  4  1  0
  4  5  1  0
  4  6  2  0
  6  7  1  0
  7  8  1  0
  7  9  2  0
  7 10  2  0
  6 11  1  0
 11 12  2  0
 12 13  1  0
 13 14  1  0
 14 15  2  0
 14 16  2  0
 14 17  1  0
 17 18  2  0
 18 19  1  0
 19 20  2  0
 20 21  1  0
 20 22  1  0
 22 23  2  0
 12  2  1  0
 23 17  1  0
  1 24  1  0
  1 25  1  0
  1 26  1  0
  3 27  1  0
  8 28  1  0
 11 29  1  0
 18 30  1  0
 19 31  1  0
 22 32  1  0
 23 33  1  0
M  CHG  3   5  -1   8  -1  13  -1
M  END
>  <UniqueID>  (88) 
83

>  <SMILES>  (88) 
Cc1cc([O-])c(S([NH-])(=O)=O)cc1[N-]S(=O)(=O)c1ccc(Cl)cc1

>  <Energy>  (88) 
36.67945609670166

>  <Genealogy>  (88) 
Cc1cc([O-])c(S([NH-])(=O)=O)cc1[N-]S(=O)(=O)c1ccc(Cl)cc1 (protonated)
Cc1cc([O-])c(S([NH-])(=O)=O)cc1[N-]S(=O)(=O)c1ccc(Cl)cc1 (3D coordinates assigned)
Cc1cc([O-])c(S([NH-])(=O)=O)cc1[N-]S(=O)(=O)c1ccc(Cl)cc1 (optimized conformer: 36.67945609670166 kcal/mol)

>  <smiles>  (88) 
Cc1cc(O)c(S(N)(=O)=O)cc1NS(=O)(=O)c1ccc(Cl)cc1

>  <score_type>  (88) 
oracle

>  <origin>  (88) 
adg

>  <m_score__min__energy>  (88) 
-14.949999999999999

>  <m_primary>  (88) 
energy

$$$$
