0:0
     RDKit          3D

 46 49  0  0  0  0  0  0  0  0999 V2000
   59.6490   35.6930   45.9190 C   0  0  0  0  0  0  0  0  0  0  0  0
   59.0840   34.3190   45.7110 C   0  0  0  0  0  0  0  0  0  0  0  0
   57.9360   34.1360   44.9260 C   0  0  0  0  0  0  0  0  0  0  0  0
   57.3950   32.8600   44.7580 C   0  0  0  0  0  0  0  0  0  0  0  0
   57.9880   31.7580   45.3800 C   0  0  0  0  0  0  0  0  0  0  0  0
   59.1260   31.9270   46.1850 C   0  0  0  0  0  0  0  0  0  0  0  0
   59.7920   30.7380   46.8280 C   0  0  0  0  0  0  0  0  0  0  0  0
   60.4300   31.1290   48.0850 N   0  0  0  0  0  0  0  0  0  0  0  0
   59.7480   31.3340   49.3240 C   0  0  0  0  0  0  0  0  0  0  0  0
   58.5730   30.9290   49.5320 O   0  0  0  0  0  0  0  0  0  0  0  0
   60.5500   32.1690   50.3030 C   0  0  1  0  0  0  0  0  0  0  0  0
   59.8230   33.4180   50.6830 C   0  0  0  0  0  0  0  0  0  0  0  0
   59.2870   34.2190   49.8690 O   0  0  0  0  0  0  0  0  0  0  0  0
   59.7970   33.5970   52.0810 N   0  0  0  0  0  0  0  0  0  0  0  0
   58.8770   34.4600   52.8110 C   0  0  0  0  0  0  0  0  0  0  0  0
   60.4260   32.4340   52.5940 C   0  0  0  0  0  0  0  0  0  0  0  0
   60.5680   32.2380   53.8330 O   0  0  0  0  0  0  0  0  0  0  0  0
   60.9250   31.5140   51.6020 N   0  0  1  0  0  0  0  0  0  0  0  0
   60.3560   30.1730   51.8290 C   0  0  0  0  0  0  0  0  0  0  0  0
   61.7550   32.4710   49.4490 C   0  0  0  0  0  0  0  0  0  0  0  0
   62.8650   33.2600   49.7660 C   0  0  0  0  0  0  0  0  0  0  0  0
   63.8790   33.4100   48.8070 C   0  0  0  0  0  0  0  0  0  0  0  0
   63.7720   32.7770   47.5540 C   0  0  0  0  0  0  0  0  0  0  0  0
   62.6480   31.9920   47.2500 C   0  0  0  0  0  0  0  0  0  0  0  0
   61.6460   31.8570   48.2150 C   0  0  0  0  0  0  0  0  0  0  0  0
   59.6640   33.2140   46.3530 C   0  0  0  0  0  0  0  0  0  0  0  0
   59.7324   35.8958   46.9969 H   0  0  0  0  0  0  0  0  0  0  0  0
   60.6451   35.7538   45.4563 H   0  0  0  0  0  0  0  0  0  0  0  0
   58.9838   36.4369   45.4563 H   0  0  0  0  0  0  0  0  0  0  0  0
   57.4602   35.0011   44.4410 H   0  0  0  0  0  0  0  0  0  0  0  0
   56.4995   32.7217   44.1343 H   0  0  0  0  0  0  0  0  0  0  0  0
   57.5615   30.7540   45.2384 H   0  0  0  0  0  0  0  0  0  0  0  0
   59.0363   29.9647   47.0303 H   0  0  0  0  0  0  0  0  0  0  0  0
   60.5600   30.3464   46.1447 H   0  0  0  0  0  0  0  0  0  0  0  0
   59.0244   34.3217   53.8923 H   0  0  0  0  0  0  0  0  0  0  0  0
   59.0706   35.5099   52.5459 H   0  0  0  0  0  0  0  0  0  0  0  0
   57.8416   34.1998   52.5459 H   0  0  0  0  0  0  0  0  0  0  0  0
   61.9660   31.4530   51.7150 H   0  0  0  0  0  0  0  0  0  0  0  0
   60.2769   29.9865   52.9102 H   0  0  0  0  0  0  0  0  0  0  0  0
   59.3565   30.1168   51.3731 H   0  0  0  0  0  0  0  0  0  0  0  0
   61.0101   29.4152   51.3731 H   0  0  0  0  0  0  0  0  0  0  0  0
   62.9420   33.7528   50.7464 H   0  0  0  0  0  0  0  0  0  0  0  0
   64.7617   34.0253   49.0356 H   0  0  0  0  0  0  0  0  0  0  0  0
   64.5727   32.8979   46.8095 H   0  0  0  0  0  0  0  0  0  0  0  0
   62.5581   31.4940   46.2733 H   0  0  0  0  0  0  0  0  0  0  0  0
   60.5472   33.3567   46.9931 H   0  0  0  0  0  0  0  0  0  0  0  0
  1  2  1  0
  2  3  2  0
  3  4  1  0
  4  5  2  0
  5  6  1  0
  6  7  1  0
  7  8  1  0
  8  9  1  0
  9 10  2  0
 11  9  1  6
 11 12  1  0
 12 13  2  0
 12 14  1  0
 14 15  1  0
 14 16  1  0
 16 17  2  0
 16 18  1  0
 18 19  1  0
 11 20  1  0
 20 21  2  0
 21 22  1  0
 22 23  2  0
 23 24  1  0
 24 25  2  0
  6 26  2  0
 26  2  1  0
 25  8  1  0
 18 11  1  0
 25 20  1  0
  1 27  1  0
  1 28  1  0
  1 29  1  0
  3 30  1  0
  4 31  1  0
  5 32  1  0
  7 33  1  0
  7 34  1  0
 15 35  1  0
 15 36  1  0
 15 37  1  0
 18 38  1  6
 19 39  1  0
 19 40  1  0
 19 41  1  0
 21 42  1  0
 22 43  1  0
 23 44  1  0
 24 45  1  0
 26 46  1  0
M  CHG  1  18   1
M  END
>  <UniqueID>  (1) 
1

>  <SMILES>  (1) 
Cc1cccc(CN2C(=O)[C@]3(C(=O)N(C)C(=O)[N@H+]3C)c3ccccc32)c1

>  <Energy>  (1) 
88.78753882883873

>  <Genealogy>  (1) 
Cc1cccc(CN2C(=O)C3(C(=O)N(C)C(=O)[NH+]3C)c3ccccc32)c1 (protonated)
Cc1cccc(CN2C(=O)[C@]3(C(=O)N(C)C(=O)[N@H+]3C)c3ccccc32)c1 (chirality)
Cc1cccc(CN2C(=O)[C@]3(C(=O)N(C)C(=O)[N@H+]3C)c3ccccc32)c1 (3D coordinates assigned)
Cc1cccc(CN2C(=O)[C@]3(C(=O)N(C)C(=O)[N@H+]3C)c3ccccc32)c1 (nonaromatic ring conformer: 88.78753882883873 kcal/mol)

>  <smiles>  (1) 
Cc1cccc(CN2C(=O)C3(C(=O)N(C)C(=O)N3C)c3ccccc32)c1

>  <score_type>  (1) 
oracle

>  <origin>  (1) 
adg

>  <m_score__min__energy>  (1) 
-6.8499999999999996

>  <m_primary>  (1) 
energy

$$$$
1:0
     RDKit          3D

 40 41  0  0  0  0  0  0  0  0999 V2000
   57.1200   33.8090   45.2160 C   0  0  0  0  0  0  0  0  0  0  0  0
   58.2570   33.9200   46.1880 C   0  0  0  0  0  0  0  0  0  0  0  0
   59.4680   34.5110   45.7960 C   0  0  0  0  0  0  0  0  0  0  0  0
   60.5400   34.5810   46.6910 C   0  0  0  0  0  0  0  0  0  0  0  0
   60.4120   34.0590   47.9830 C   0  0  0  0  0  0  0  0  0  0  0  0
   61.7920   34.1370   49.1290 S   0  0  0  0  0  0  0  0  0  0  0  0
   62.5310   32.5380   48.6270 C   0  0  2  0  0  0  0  0  0  0  0  0
   62.7730   32.5020   47.1170 C   0  0  0  0  0  0  0  0  0  0  0  0
   61.6110   31.4230   49.0310 C   0  0  0  0  0  0  0  0  0  0  0  0
   61.0080   31.4760   50.1380 O   0  0  0  0  0  0  0  0  0  0  0  0
   61.3740   30.3430   48.1210 N   0  0  0  0  0  0  0  0  0  0  0  0
   60.2060   30.1520   47.3080 C   0  0  0  0  0  0  0  0  0  0  0  0
   60.0190   30.9810   46.1950 C   0  0  0  0  0  0  0  0  0  0  0  0
   58.9050   30.8140   45.3660 C   0  0  0  0  0  0  0  0  0  0  0  0
   57.9750   29.8020   45.6310 C   0  0  0  0  0  0  0  0  0  0  0  0
   56.5640   29.5980   44.5970 S   0  0  0  0  0  0  0  0  0  0  0  0
   57.0700   29.0450   43.0390 N   0  0  0  0  0  0  0  0  0  0  0  0
   55.8410   30.9080   44.4600 O   0  0  0  0  0  0  0  0  0  0  0  0
   55.6280   28.5920   45.2060 O   0  0  0  0  0  0  0  0  0  0  0  0
   58.1660   28.9590   46.7330 C   0  0  0  0  0  0  0  0  0  0  0  0
   59.2790   29.1250   47.5630 C   0  0  0  0  0  0  0  0  0  0  0  0
   59.2150   33.4440   48.3700 C   0  0  0  0  0  0  0  0  0  0  0  0
   58.1430   33.3710   47.4760 C   0  0  0  0  0  0  0  0  0  0  0  0
   56.1732   33.7166   45.7683 H   0  0  0  0  0  0  0  0  0  0  0  0
   57.0892   34.7084   44.5835 H   0  0  0  0  0  0  0  0  0  0  0  0
   57.2638   32.9206   44.5835 H   0  0  0  0  0  0  0  0  0  0  0  0
   59.5743   34.9208   44.7807 H   0  0  0  0  0  0  0  0  0  0  0  0
   61.4860   35.0474   46.3788 H   0  0  0  0  0  0  0  0  0  0  0  0
   63.5022   32.4174   49.1293 H   0  0  0  0  0  0  0  0  0  0  0  0
   63.8436   32.3427   46.9209 H   0  0  0  0  0  0  0  0  0  0  0  0
   62.1926   31.6803   46.6721 H   0  0  0  0  0  0  0  0  0  0  0  0
   62.4569   33.4571   46.6721 H   0  0  0  0  0  0  0  0  0  0  0  0
   60.7533   31.7689   45.9712 H   0  0  0  0  0  0  0  0  0  0  0  0
   58.7592   31.4802   44.5029 H   0  0  0  0  0  0  0  0  0  0  0  0
   58.1010   29.2030   42.9790 H   0  0  0  0  0  0  0  0  0  0  0  0
   56.9220   28.0110   43.0200 H   0  0  0  0  0  0  0  0  0  0  0  0
   57.4374   28.1630   46.9465 H   0  0  0  0  0  0  0  0  0  0  0  0
   59.4303   28.4501   48.4184 H   0  0  0  0  0  0  0  0  0  0  0  0
   59.1182   33.0176   49.3793 H   0  0  0  0  0  0  0  0  0  0  0  0
   57.2066   32.8818   47.7822 H   0  0  0  0  0  0  0  0  0  0  0  0
  1  2  1  0
  2  3  2  0
  3  4  1  0
  4  5  2  0
  5  6  1  0
  6  7  1  0
  7  8  1  0
  7  9  1  0
  9 10  2  0
  9 11  1  0
 11 12  1  0
 12 13  2  0
 13 14  1  0
 14 15  2  0
 15 16  1  0
 16 17  1  0
 16 18  2  0
 16 19  2  0
 15 20  1  0
 20 21  2  0
  5 22  1  0
 22 23  2  0
 23  2  1  0
 21 12  1  0
  1 24  1  0
  1 25  1  0
  1 26  1  0
  3 27  1  0
  4 28  1  0
  7 29  1  1
  8 30  1  0
  8 31  1  0
  8 32  1  0
 13 33  1  0
 14 34  1  0
 17 35  1  0
 17 36  1  0
 20 37  1  0
 21 38  1  0
 22 39  1  0
 23 40  1  0
M  CHG  1  11  -1
M  END
>  <UniqueID>  (2) 
2

>  <SMILES>  (2) 
Cc1ccc(S[C@H](C)C(=O)[N-]c2ccc(S(N)(=O)=O)cc2)cc1

>  <Energy>  (2) 
35.12792483184236

>  <Genealogy>  (2) 
Cc1ccc(SC(C)C(=O)[N-]c2ccc(S(N)(=O)=O)cc2)cc1 (protonated)
Cc1ccc(S[C@H](C)C(=O)[N-]c2ccc(S(N)(=O)=O)cc2)cc1 (chirality)
Cc1ccc(S[C@H](C)C(=O)[N-]c2ccc(S(N)(=O)=O)cc2)cc1 (3D coordinates assigned)
Cc1ccc(S[C@H](C)C(=O)[N-]c2ccc(S(N)(=O)=O)cc2)cc1 (optimized conformer: 35.12792483184236 kcal/mol)

>  <smiles>  (2) 
Cc1ccc(SC(C)C(=O)Nc2ccc(S(N)(=O)=O)cc2)cc1

>  <score_type>  (2) 
oracle

>  <origin>  (2) 
adg

>  <m_score__min__energy>  (2) 
-10.81

>  <m_primary>  (2) 
energy

$$$$
2:0
     RDKit          3D

 42 43  0  0  0  0  0  0  0  0999 V2000
   59.0746   35.0528   48.0736 H   0  0  0  0  0  0  0  0  0  0  0  0
   58.9570   34.5850   47.0850 C   0  0  0  0  0  0  0  0  0  0  0  0
   58.8280   34.0720   46.0010 C   0  0  0  0  0  0  0  0  0  0  0  0
   58.6730   33.4530   44.6810 C   0  0  0  0  0  0  0  0  0  0  0  0
   58.5051   34.2389   43.9299 H   0  0  0  0  0  0  0  0  0  0  0  0
   59.5873   32.8899   44.4421 H   0  0  0  0  0  0  0  0  0  0  0  0
   57.5630   32.5550   44.6780 O   0  0  0  0  0  0  0  0  0  0  0  0
   57.6450   31.1570   44.8040 C   0  0  0  0  0  0  0  0  0  0  0  0
   58.1500   30.5340   45.9620 C   0  0  0  0  0  0  0  0  0  0  0  0
   58.4998   31.1491   46.8042 H   0  0  0  0  0  0  0  0  0  0  0  0
   58.2100   29.1430   46.0490 C   0  0  0  0  0  0  0  0  0  0  0  0
   58.6095   28.6686   46.9575 H   0  0  0  0  0  0  0  0  0  0  0  0
   57.7640   28.3460   44.9850 C   0  0  0  0  0  0  0  0  0  0  0  0
   57.8590   26.8440   45.0660 C   0  0  0  0  0  0  0  0  0  0  0  0
   57.7632   26.4205   44.0553 H   0  0  0  0  0  0  0  0  0  0  0  0
   58.8322   26.5726   45.5010 H   0  0  0  0  0  0  0  0  0  0  0  0
   56.7600   26.2890   45.9440 C   0  0  0  0  0  0  0  0  0  0  0  0
   55.5960   26.8660   46.0070 N   0  0  0  0  0  0  0  0  0  0  0  0
   54.4160   26.1570   45.9930 O   0  0  0  0  0  0  0  0  0  0  0  0
   54.3790   25.2300   46.3940 H   0  0  0  0  0  0  0  0  0  0  0  0
   56.9710   25.0410   46.7060 C   0  0  0  0  0  0  0  0  0  0  0  0
   57.7950   25.0280   47.6620 O   0  0  0  0  0  0  0  0  0  0  0  0
   56.2840   23.8430   46.3260 N   0  0  0  0  0  0  0  0  0  0  0  0
   56.6070   22.9840   45.2230 C   0  0  0  0  0  0  0  0  0  0  0  0
   56.1720   23.2490   43.9140 C   0  0  0  0  0  0  0  0  0  0  0  0
   55.5457   24.1297   43.7085 H   0  0  0  0  0  0  0  0  0  0  0  0
   56.5370   22.3910   42.8740 C   0  0  0  0  0  0  0  0  0  0  0  0
   56.1843   22.5799   41.8494 H   0  0  0  0  0  0  0  0  0  0  0  0
   57.3530   21.2920   43.1460 C   0  0  0  0  0  0  0  0  0  0  0  0
   57.6439   20.6098   42.3336 H   0  0  0  0  0  0  0  0  0  0  0  0
   57.7890   21.0630   44.4130 N   0  0  0  0  0  0  0  0  0  0  0  0
   58.4060   20.2420   44.6000 H   0  0  0  0  0  0  0  0  0  0  0  0
   57.4400   21.8810   45.4440 C   0  0  0  0  0  0  0  0  0  0  0  0
   57.8151   21.6737   46.4571 H   0  0  0  0  0  0  0  0  0  0  0  0
   57.2690   28.9630   43.8250 C   0  0  0  0  0  0  0  0  0  0  0  0
   56.9255   28.3440   42.9830 H   0  0  0  0  0  0  0  0  0  0  0  0
   57.2080   30.3680   43.7290 C   0  0  0  0  0  0  0  0  0  0  0  0
   56.7200   31.0150   42.5830 O   0  0  0  0  0  0  0  0  0  0  0  0
   57.4560   31.9620   41.8150 C   0  0  0  0  0  0  0  0  0  0  0  0
   57.9887   32.6474   42.4907 H   0  0  0  0  0  0  0  0  0  0  0  0
   58.1831   31.4339   41.1806 H   0  0  0  0  0  0  0  0  0  0  0  0
   56.7647   32.5362   41.1806 H   0  0  0  0  0  0  0  0  0  0  0  0
  1  2  1  0
  2  3  3  0
  3  4  1  0
  4  5  1  0
  4  6  1  0
  4  7  1  0
  7  8  1  0
  8  9  2  0
  9 10  1  0
  9 11  1  0
 11 12  1  0
 11 13  2  0
 13 14  1  0
 14 15  1  0
 14 16  1  0
 14 17  1  0
 17 18  2  0
 18 19  1  0
 19 20  1  0
 17 21  1  0
 21 22  2  0
 21 23  1  0
 23 24  1  0
 24 25  2  0
 25 26  1  0
 25 27  1  0
 27 28  1  0
 27 29  2  0
 29 30  1  0
 29 31  1  0
 31 32  1  0
 31 33  2  0
 33 34  1  0
 13 35  1  0
 35 36  1  0
 35 37  2  0
 37 38  1  0
 38 39  1  0
 39 40  1  0
 39 41  1  0
 39 42  1  0
 37  8  1  0
 33 24  1  0
M  CHG  2  23  -1  31   1
M  END
>  <UniqueID>  (3) 
3

>  <SMILES>  (3) 
C#CCOc1ccc(C/C(=N\O)C(=O)[N-]c2ccc[nH+]c2)cc1OC

>  <Energy>  (3) 
40.227711303971326

>  <Genealogy>  (3) 
C#CCOc1ccc(CC(=NO)C(=O)[N-]c2ccc[nH+]c2)cc1OC (protonated)
C#CCOc1ccc(C/C(=N\O)C(=O)[N-]c2ccc[nH+]c2)cc1OC (cis-trans isomerization)
C#CCOc1ccc(C/C(=N\O)C(=O)[N-]c2ccc[nH+]c2)cc1OC (3D coordinates assigned)
C#CCOc1ccc(C/C(=N\O)C(=O)[N-]c2ccc[nH+]c2)cc1OC (optimized conformer: 40.227711303971326 kcal/mol)

>  <smiles>  (3) 
C#CCOc1ccc(CC(=NO)C(=O)Nc2cccnc2)cc1OC

>  <score_type>  (3) 
oracle

>  <origin>  (3) 
adg

>  <m_score__min__energy>  (3) 
-8.3000000000000007

>  <m_primary>  (3) 
energy

$$$$
3:0
     RDKit          3D

 41 43  0  0  0  0  0  0  0  0999 V2000
   59.9830   36.2100   45.9890 N   0  0  0  0  0  0  0  0  0  0  0  0
   60.2780   34.6880   46.7520 S   0  0  0  0  0  0  0  0  0  0  0  0
   61.6830   34.2440   46.4590 O   0  0  0  0  0  0  0  0  0  0  0  0
   60.1190   34.8360   48.2390 O   0  0  0  0  0  0  0  0  0  0  0  0
   59.1350   33.4950   46.1440 C   0  0  0  0  0  0  0  0  0  0  0  0
   58.3380   33.7850   45.0300 C   0  0  0  0  0  0  0  0  0  0  0  0
   57.4390   32.8340   44.5390 C   0  0  0  0  0  0  0  0  0  0  0  0
   57.3240   31.5740   45.1640 C   0  0  0  0  0  0  0  0  0  0  0  0
   56.4270   30.5510   44.6980 N   0  0  0  0  0  0  0  0  0  0  0  0
   56.7560   29.4330   44.1230 C   0  0  0  0  0  0  0  0  0  0  0  0
   57.5320   28.3890   44.8440 C   0  0  0  0  0  0  0  0  0  0  0  0
   56.9160   27.3400   45.5640 C   0  0  0  0  0  0  0  0  0  0  0  0
   55.5250   27.2630   45.6230 O   0  0  0  0  0  0  0  0  0  0  0  0
   57.6740   26.3970   46.2100 N   0  0  0  0  0  0  0  0  0  0  0  0
   57.0120   25.2890   46.9280 C   0  0  0  0  0  0  0  0  0  0  0  0
   56.7270   24.1460   45.9880 C   0  0  0  0  0  0  0  0  0  0  0  0
   56.0020   23.0280   46.4350 C   0  0  0  0  0  0  0  0  0  0  0  0
   55.7590   21.9540   45.5730 C   0  0  0  0  0  0  0  0  0  0  0  0
   56.2390   21.9860   44.2610 C   0  0  0  0  0  0  0  0  0  0  0  0
   56.9620   23.0920   43.8090 C   0  0  0  0  0  0  0  0  0  0  0  0
   57.2080   24.1690   44.6680 C   0  0  0  0  0  0  0  0  0  0  0  0
   59.0430   26.4720   46.1550 C   0  0  0  0  0  0  0  0  0  0  0  0
   59.7630   25.6160   46.7380 O   0  0  0  0  0  0  0  0  0  0  0  0
   59.6470   27.4730   45.4720 N   0  0  0  0  0  0  0  0  0  0  0  0
   58.9350   28.4240   44.8220 C   0  0  0  0  0  0  0  0  0  0  0  0
   59.5510   29.3310   44.2020 O   0  0  0  0  0  0  0  0  0  0  0  0
   58.1440   31.2850   46.2620 C   0  0  0  0  0  0  0  0  0  0  0  0
   59.0410   32.2370   46.7520 C   0  0  0  0  0  0  0  0  0  0  0  0
   59.6540   36.8650   46.7330 H   0  0  0  0  0  0  0  0  0  0  0  0
   58.4197   34.7659   44.5389 H   0  0  0  0  0  0  0  0  0  0  0  0
   56.8184   33.0687   43.6616 H   0  0  0  0  0  0  0  0  0  0  0  0
   56.4540   29.2549   43.0804 H   0  0  0  0  0  0  0  0  0  0  0  0
   57.6699   24.9373   47.7364 H   0  0  0  0  0  0  0  0  0  0  0  0
   56.0609   25.6528   47.3440 H   0  0  0  0  0  0  0  0  0  0  0  0
   55.6240   22.9977   47.4676 H   0  0  0  0  0  0  0  0  0  0  0  0
   55.1892   21.0827   45.9282 H   0  0  0  0  0  0  0  0  0  0  0  0
   56.0474   21.1402   43.5844 H   0  0  0  0  0  0  0  0  0  0  0  0
   57.3388   23.1166   42.7758 H   0  0  0  0  0  0  0  0  0  0  0  0
   57.7802   25.0370   44.3084 H   0  0  0  0  0  0  0  0  0  0  0  0
   58.0810   30.2980   46.7435 H   0  0  0  0  0  0  0  0  0  0  0  0
   59.6755   31.9978   47.6181 H   0  0  0  0  0  0  0  0  0  0  0  0
  1  2  1  0
  2  3  2  0
  2  4  2  0
  2  5  1  0
  5  6  2  0
  6  7  1  0
  7  8  2  0
  8  9  1  0
  9 10  2  3
 10 11  1  0
 11 12  2  0
 12 13  1  0
 12 14  1  0
 14 15  1  0
 15 16  1  0
 16 17  2  0
 17 18  1  0
 18 19  2  0
 19 20  1  0
 20 21  2  0
 14 22  1  0
 22 23  2  0
 22 24  1  0
 24 25  1  0
 25 26  2  0
  8 27  1  0
 27 28  2  0
 28  5  1  0
 25 11  1  0
 21 16  1  0
  1 29  1  0
  6 30  1  0
  7 31  1  0
 10 32  1  0
 15 33  1  0
 15 34  1  0
 17 35  1  0
 18 36  1  0
 19 37  1  0
 20 38  1  0
 21 39  1  0
 27 40  1  0
 28 41  1  0
M  CHG  3   1  -1  13  -1  24  -1
M  END
>  <UniqueID>  (4) 
4

>  <SMILES>  (4) 
[NH-]S(=O)(=O)c1ccc(N=Cc2c([O-])n(Cc3ccccc3)c(=O)[n-]c2=O)cc1

>  <Energy>  (4) 
52.96100836510399

>  <Genealogy>  (4) 
[NH-]S(=O)(=O)c1ccc(N=Cc2c([O-])n(Cc3ccccc3)c(=O)[n-]c2=O)cc1 (protonated)
[NH-]S(=O)(=O)c1ccc(N=Cc2c([O-])n(Cc3ccccc3)c(=O)[n-]c2=O)cc1 (3D coordinates assigned)
[NH-]S(=O)(=O)c1ccc(N=Cc2c([O-])n(Cc3ccccc3)c(=O)[n-]c2=O)cc1 (optimized conformer: 52.96100836510399 kcal/mol)

>  <smiles>  (4) 
NS(=O)(=O)c1ccc(N=Cc2c(O)n(Cc3ccccc3)c(=O)[nH]c2=O)cc1

>  <score_type>  (4) 
oracle

>  <origin>  (4) 
adg

>  <m_score__min__energy>  (4) 
-13.81

>  <m_primary>  (4) 
energy

$$$$
4:0
     RDKit          3D

 45 47  0  0  0  0  0  0  0  0999 V2000
   60.5980   34.5830   48.0220 N   0  0  0  0  0  0  0  0  0  0  0  0
   59.8590   34.9010   46.8390 C   0  0  0  0  0  0  0  0  0  0  0  0
   59.9780   36.0540   46.3420 O   0  0  0  0  0  0  0  0  0  0  0  0
   58.9560   33.9150   46.1940 C   0  0  0  0  0  0  0  0  0  0  0  0
   58.6490   32.7080   46.8510 C   0  0  0  0  0  0  0  0  0  0  0  0
   57.7800   31.7810   46.2670 C   0  0  0  0  0  0  0  0  0  0  0  0
   57.1850   32.0500   45.0310 C   0  0  0  0  0  0  0  0  0  0  0  0
   56.2670   31.1010   44.4720 N   0  0  0  0  0  0  0  0  0  0  0  0
   56.2730   29.6960   44.7550 C   0  0  0  0  0  0  0  0  0  0  0  0
   55.2190   29.0300   44.5780 O   0  0  0  0  0  0  0  0  0  0  0  0
   57.4680   29.0370   45.2080 N   0  0  0  0  0  0  0  0  0  0  0  0
   58.7300   29.2400   44.4770 C   0  0  0  0  0  0  0  0  0  0  0  0
   59.8890   28.5340   45.1840 C   0  0  0  0  0  0  0  0  0  0  0  0
   59.7660   28.7480   46.6300 N   0  0  0  0  0  0  0  0  0  0  0  0
   60.6200   29.7080   47.2870 C   0  0  0  0  0  0  0  0  0  0  0  0
   61.1580   30.6280   46.6100 O   0  0  0  0  0  0  0  0  0  0  0  0
   60.8590   29.6660   48.7470 C   0  0  0  0  0  0  0  0  0  0  0  0
   60.7630   28.4560   49.4560 C   0  0  0  0  0  0  0  0  0  0  0  0
   60.9950   28.4270   50.8350 C   0  0  0  0  0  0  0  0  0  0  0  0
   61.3330   29.5990   51.5150 C   0  0  0  0  0  0  0  0  0  0  0  0
   61.4480   30.8040   50.8150 C   0  0  0  0  0  0  0  0  0  0  0  0
   61.7840   31.9400   51.4740 F   0  0  0  0  0  0  0  0  0  0  0  0
   61.2190   30.8370   49.4360 C   0  0  0  0  0  0  0  0  0  0  0  0
   58.5380   28.2810   47.2980 C   0  0  0  0  0  0  0  0  0  0  0  0
   57.3950   28.0480   46.2920 C   0  0  0  0  0  0  0  0  0  0  0  0
   57.5100   33.2390   44.3580 C   0  0  0  0  0  0  0  0  0  0  0  0
   58.3750   34.1680   44.9380 C   0  0  0  0  0  0  0  0  0  0  0  0
   61.2760   35.2740   48.4110 H   0  0  0  0  0  0  0  0  0  0  0  0
   60.4200   33.7120   48.5660 H   0  0  0  0  0  0  0  0  0  0  0  0
   59.0967   32.4924   47.8324 H   0  0  0  0  0  0  0  0  0  0  0  0
   57.5633   30.8343   46.7834 H   0  0  0  0  0  0  0  0  0  0  0  0
   58.6268   28.8334   43.4601 H   0  0  0  0  0  0  0  0  0  0  0  0
   58.9452   30.3181   44.4391 H   0  0  0  0  0  0  0  0  0  0  0  0
   59.8528   27.4564   44.9660 H   0  0  0  0  0  0  0  0  0  0  0  0
   60.8464   28.9418   44.8275 H   0  0  0  0  0  0  0  0  0  0  0  0
   60.5044   27.5284   48.9243 H   0  0  0  0  0  0  0  0  0  0  0  0
   60.9110   27.4783   51.3855 H   0  0  0  0  0  0  0  0  0  0  0  0
   61.5087   29.5742   52.6006 H   0  0  0  0  0  0  0  0  0  0  0  0
   61.3212   31.7848   48.8872 H   0  0  0  0  0  0  0  0  0  0  0  0
   58.7528   27.3361   47.8186 H   0  0  0  0  0  0  0  0  0  0  0  0
   58.2171   29.0580   48.0074 H   0  0  0  0  0  0  0  0  0  0  0  0
   57.4834   27.0366   45.8685 H   0  0  0  0  0  0  0  0  0  0  0  0
   56.4310   28.1530   46.8113 H   0  0  0  0  0  0  0  0  0  0  0  0
   57.0794   33.4396   43.3659 H   0  0  0  0  0  0  0  0  0  0  0  0
   58.6042   35.1049   44.4092 H   0  0  0  0  0  0  0  0  0  0  0  0
  1  2  1  0
  2  3  2  0
  2  4  1  0
  4  5  2  0
  5  6  1  0
  6  7  2  0
  7  8  1  0
  8  9  1  0
  9 10  2  0
  9 11  1  0
 11 12  1  0
 12 13  1  0
 13 14  1  0
 14 15  1  0
 15 16  2  0
 15 17  1  0
 17 18  2  0
 18 19  1  0
 19 20  2  0
 20 21  1  0
 21 22  1  0
 21 23  2  0
 14 24  1  0
 24 25  1  0
  7 26  1  0
 26 27  2  0
 27  4  1  0
 25 11  1  0
 23 17  1  0
  1 28  1  0
  1 29  1  0
  5 30  1  0
  6 31  1  0
 12 32  1  0
 12 33  1  0
 13 34  1  0
 13 35  1  0
 18 36  1  0
 19 37  1  0
 20 38  1  0
 23 39  1  0
 24 40  1  0
 24 41  1  0
 25 42  1  0
 25 43  1  0
 26 44  1  0
 27 45  1  0
M  CHG  1   8  -1
M  END
>  <UniqueID>  (5) 
5

>  <SMILES>  (5) 
NC(=O)c1ccc([N-]C(=O)N2CCN(C(=O)c3cccc(F)c3)CC2)cc1

>  <Energy>  (5) 
58.448892856966616

>  <Genealogy>  (5) 
NC(=O)c1ccc([N-]C(=O)N2CCN(C(=O)c3cccc(F)c3)CC2)cc1 (protonated)
NC(=O)c1ccc([N-]C(=O)N2CCN(C(=O)c3cccc(F)c3)CC2)cc1 (3D coordinates assigned)
NC(=O)c1ccc([N-]C(=O)N2CCN(C(=O)c3cccc(F)c3)CC2)cc1 (nonaromatic ring conformer: 58.448892856966616 kcal/mol)

>  <smiles>  (5) 
NC(=O)c1ccc(NC(=O)N2CCN(C(=O)c3cccc(F)c3)CC2)cc1

>  <score_type>  (5) 
oracle

>  <origin>  (5) 
adg

>  <m_score__min__energy>  (5) 
-8.9399999999999995

>  <m_primary>  (5) 
energy

$$$$
5:0
     RDKit          3D

 64 67  0  0  0  0  0  0  0  0999 V2000
   53.6320   30.0450   51.9320 C   0  0  0  0  0  0  0  0  0  0  0  0
   55.0420   29.8530   51.9850 O   0  0  0  0  0  0  0  0  0  0  0  0
   55.8800   30.6180   52.8030 C   0  0  0  0  0  0  0  0  0  0  0  0
   55.5870   30.7960   54.0160 O   0  0  0  0  0  0  0  0  0  0  0  0
   57.1170   31.2090   52.2430 C   0  0  0  0  0  0  0  0  0  0  0  0
   57.4340   31.0510   50.8830 C   0  0  0  0  0  0  0  0  0  0  0  0
   58.5850   31.6400   50.3500 C   0  0  0  0  0  0  0  0  0  0  0  0
   59.4410   32.3860   51.1690 C   0  0  0  0  0  0  0  0  0  0  0  0
   60.8740   33.1450   50.4800 S   0  0  0  0  0  0  0  0  0  0  0  0
   60.4710   34.1160   49.4050 O   0  0  0  0  0  0  0  0  0  0  0  0
   61.5910   33.9150   51.5550 O   0  0  0  0  0  0  0  0  0  0  0  0
   61.9340   31.9400   49.8100 N   0  0  0  0  0  0  0  0  0  0  0  0
   63.3620   32.0630   49.9670 C   0  0  0  0  0  0  0  0  0  0  0  0
   64.0580   31.2520   50.8770 C   0  0  0  0  0  0  0  0  0  0  0  0
   65.4390   31.3900   51.0260 C   0  0  0  0  0  0  0  0  0  0  0  0
   66.1230   32.3340   50.2560 C   0  0  0  0  0  0  0  0  0  0  0  0
   67.5050   32.4820   50.4160 O   0  0  0  0  0  0  0  0  0  0  0  0
   68.1300   33.7480   50.5870 C   0  0  0  0  0  0  0  0  0  0  0  0
   65.4360   33.0970   49.3610 N   0  0  0  0  0  0  0  0  0  0  0  0
   64.0920   32.9810   49.1980 C   0  0  0  0  0  0  0  0  0  0  0  0
   61.3720   30.7300   49.2800 C   0  0  0  0  0  0  0  0  0  0  0  0
   61.3350   29.5770   50.0800 C   0  0  0  0  0  0  0  0  0  0  0  0
   60.8320   28.3790   49.5690 C   0  0  0  0  0  0  0  0  0  0  0  0
   60.3740   28.3160   48.2500 C   0  0  0  0  0  0  0  0  0  0  0  0
   59.7590   26.8050   47.6050 Cl  0  0  0  0  0  0  0  0  0  0  0  0
   60.4070   29.4570   47.4440 C   0  0  0  0  0  0  0  0  0  0  0  0
   60.8820   30.6760   47.9570 C   0  0  0  0  0  0  0  0  0  0  0  0
   60.8640   31.8830   47.1010 C   0  0  0  0  0  0  0  0  0  0  0  0
   61.9190   32.5730   47.0170 O   0  0  0  0  0  0  0  0  0  0  0  0
   59.6550   32.2960   46.3350 C   0  0  0  0  0  0  0  0  0  0  0  0
   59.2360   33.6410   46.3550 C   0  0  0  0  0  0  0  0  0  0  0  0
   58.1000   34.0440   45.6500 C   0  0  0  0  0  0  0  0  0  0  0  0
   57.3710   33.1170   44.9040 C   0  0  0  0  0  0  0  0  0  0  0  0
   57.7700   31.7760   44.8680 C   0  0  0  0  0  0  0  0  0  0  0  0
   56.8600   30.5960   43.9300 S   0  0  0  0  0  0  0  0  0  0  0  0
   57.6850   29.0210   43.9820 C   0  0  0  0  0  0  0  0  0  0  0  0
   55.4720   30.4510   44.4900 O   0  0  0  0  0  0  0  0  0  0  0  0
   56.7590   31.0630   42.5050 O   0  0  0  0  0  0  0  0  0  0  0  0
   58.8950   31.3650   45.5970 C   0  0  0  0  0  0  0  0  0  0  0  0
   59.1470   32.5180   52.5330 C   0  0  0  0  0  0  0  0  0  0  0  0
   57.9900   31.9420   53.0640 C   0  0  0  0  0  0  0  0  0  0  0  0
   53.2307   30.0996   52.9547 H   0  0  0  0  0  0  0  0  0  0  0  0
   53.4092   30.9818   51.4002 H   0  0  0  0  0  0  0  0  0  0  0  0
   53.1669   29.2019   51.4002 H   0  0  0  0  0  0  0  0  0  0  0  0
   56.7721   30.4598   50.2331 H   0  0  0  0  0  0  0  0  0  0  0  0
   58.8189   31.5166   49.2823 H   0  0  0  0  0  0  0  0  0  0  0  0
   63.5137   30.5057   51.4743 H   0  0  0  0  0  0  0  0  0  0  0  0
   65.9846   30.7603   51.7442 H   0  0  0  0  0  0  0  0  0  0  0  0
   68.2359   33.9626   51.6607 H   0  0  0  0  0  0  0  0  0  0  0  0
   69.1241   33.7327   50.1163 H   0  0  0  0  0  0  0  0  0  0  0  0
   67.5134   34.5279   50.1163 H   0  0  0  0  0  0  0  0  0  0  0  0
   63.5740   33.6102   48.4593 H   0  0  0  0  0  0  0  0  0  0  0  0
   61.7044   29.6176   51.1153 H   0  0  0  0  0  0  0  0  0  0  0  0
   60.7961   27.4828   50.2058 H   0  0  0  0  0  0  0  0  0  0  0  0
   60.0592   29.4007   46.4020 H   0  0  0  0  0  0  0  0  0  0  0  0
   59.8097   34.3813   46.9319 H   0  0  0  0  0  0  0  0  0  0  0  0
   57.7788   35.0955   45.6828 H   0  0  0  0  0  0  0  0  0  0  0  0
   56.4816   33.4407   44.3435 H   0  0  0  0  0  0  0  0  0  0  0  0
   57.8410   28.7232   45.0294 H   0  0  0  0  0  0  0  0  0  0  0  0
   57.0665   28.2662   43.4744 H   0  0  0  0  0  0  0  0  0  0  0  0
   58.6577   29.0996   43.4744 H   0  0  0  0  0  0  0  0  0  0  0  0
   59.1880   30.3048   45.5933 H   0  0  0  0  0  0  0  0  0  0  0  0
   59.8303   33.0777   53.1886 H   0  0  0  0  0  0  0  0  0  0  0  0
   57.7610   32.0634   54.1330 H   0  0  0  0  0  0  0  0  0  0  0  0
  1  2  1  0
  2  3  1  0
  3  4  2  0
  3  5  1  0
  5  6  2  0
  6  7  1  0
  7  8  2  0
  8  9  1  0
  9 10  2  0
  9 11  2  0
  9 12  1  0
 12 13  1  0
 13 14  2  0
 14 15  1  0
 15 16  2  0
 16 17  1  0
 17 18  1  0
 16 19  1  0
 19 20  2  0
 12 21  1  0
 21 22  2  0
 22 23  1  0
 23 24  2  0
 24 25  1  0
 24 26  1  0
 26 27  2  0
 27 28  1  0
 28 29  2  0
 28 30  1  0
 30 31  2  0
 31 32  1  0
 32 33  2  0
 33 34  1  0
 34 35  1  0
 35 36  1  0
 35 37  2  0
 35 38  2  0
 34 39  2  0
  8 40  1  0
 40 41  2  0
 41  5  1  0
 20 13  1  0
 27 21  1  0
 39 30  1  0
  1 42  1  0
  1 43  1  0
  1 44  1  0
  6 45  1  0
  7 46  1  0
 14 47  1  0
 15 48  1  0
 18 49  1  0
 18 50  1  0
 18 51  1  0
 20 52  1  0
 22 53  1  0
 23 54  1  0
 26 55  1  0
 31 56  1  0
 32 57  1  0
 33 58  1  0
 36 59  1  0
 36 60  1  0
 36 61  1  0
 39 62  1  0
 40 63  1  0
 41 64  1  0
M  END
>  <UniqueID>  (6) 
6

>  <SMILES>  (6) 
COC(=O)c1ccc(S(=O)(=O)N(c2ccc(OC)nc2)c2ccc(Cl)cc2C(=O)c2cccc(S(C)(=O)=O)c2)cc1

>  <Energy>  (6) 
76.90843417480936

>  <Genealogy>  (6) 
COC(=O)c1ccc(S(=O)(=O)N(c2ccc(OC)nc2)c2ccc(Cl)cc2C(=O)c2cccc(S(C)(=O)=O)c2)cc1 (3D coordinates assigned)
COC(=O)c1ccc(S(=O)(=O)N(c2ccc(OC)nc2)c2ccc(Cl)cc2C(=O)c2cccc(S(C)(=O)=O)c2)cc1 (optimized conformer: 76.90843417480936 kcal/mol)

>  <smiles>  (6) 
COC(=O)c1ccc(S(=O)(=O)N(c2ccc(OC)nc2)c2ccc(Cl)cc2C(=O)c2cccc(S(C)(=O)=O)c2)cc1

>  <score_type>  (6) 
oracle

>  <origin>  (6) 
adg

>  <m_score__min__energy>  (6) 
-10.58

>  <m_primary>  (6) 
energy

$$$$
6:0
     RDKit          3D

 44 47  0  0  1  0  0  0  0  0999 V2000
   58.0560   26.9420   43.4210 N   0  0  0  0  0  0  0  0  0  0  0  0
   58.5900   27.8110   44.2230 C   0  0  0  0  0  0  0  0  0  0  0  0
   59.1860   27.3740   45.4110 C   0  0  0  0  0  0  0  0  0  0  0  0
   59.7570   28.3180   46.2660 C   0  0  0  0  0  0  0  0  0  0  0  0
   59.7280   29.6550   45.9340 C   0  0  0  0  0  0  0  0  0  0  0  0
   60.2840   30.6790   46.7440 N   0  0  0  0  0  0  0  0  0  0  0  0
   59.8710   30.9590   47.9120 C   0  0  0  0  0  0  0  0  0  0  0  0
   60.1380   30.1790   48.9570 N   0  0  0  0  0  0  0  0  0  0  0  0
   59.6880   30.5080   50.1610 C   0  0  0  0  0  0  0  0  0  0  0  0
   58.9600   31.5950   50.4380 N   0  0  0  0  0  0  0  0  0  0  0  0
   58.6590   32.4270   49.4030 C   0  0  0  0  0  0  0  0  0  0  0  0
   59.1160   32.1110   48.1290 C   0  0  0  0  0  0  0  0  0  0  0  0
   58.7970   33.0010   47.0100 C   0  0  0  0  0  0  0  0  0  0  0  0
   57.7200   32.6800   46.2410 C   0  0  0  0  0  0  0  0  0  0  0  0
   57.3740   33.4740   45.1810 C   0  0  0  0  0  0  0  0  0  0  0  0
   58.1060   34.5940   44.8910 C   0  0  0  0  0  0  0  0  0  0  0  0
   59.1910   34.8980   45.6830 C   0  0  0  0  0  0  0  0  0  0  0  0
   59.5970   34.1460   46.7640 C   0  0  0  0  0  0  0  0  0  0  0  0
   60.6110   34.3420   47.5840 O   0  0  0  0  0  0  0  0  0  0  0  0
   61.7230   33.8550   48.0930 C   0  0  0  0  0  0  0  0  0  0  0  0
   62.5800   33.1670   47.1950 C   0  0  0  0  0  0  0  0  0  0  0  0
   63.7610   32.6120   47.5860 C   0  0  0  0  0  0  0  0  0  0  0  0
   64.1610   32.7070   48.8890 C   0  0  0  0  0  0  0  0  0  0  0  0
   63.3790   33.3580   49.8080 C   0  0  0  0  0  0  0  0  0  0  0  0
   62.1910   33.9100   49.3880 C   0  0  0  0  0  0  0  0  0  0  0  0
   59.1280   30.0580   44.7440 C   0  0  0  0  0  0  0  0  0  0  0  0
   58.5780   29.1420   43.9230 N   0  0  0  0  0  0  0  0  0  0  0  0
   57.0220   26.9040   43.3620 H   0  0  0  0  0  0  0  0  0  0  0  0
   59.2043   26.3043   45.6669 H   0  0  0  0  0  0  0  0  0  0  0  0
   60.2302   27.9946   47.2049 H   0  0  0  0  0  0  0  0  0  0  0  0
   59.9326   29.8347   50.9957 H   0  0  0  0  0  0  0  0  0  0  0  0
   58.6190   31.8240   51.4120 H   0  0  0  0  0  0  0  0  0  0  0  0
   58.0629   33.3358   49.5727 H   0  0  0  0  0  0  0  0  0  0  0  0
   57.1278   31.7822   46.4717 H   0  0  0  0  0  0  0  0  0  0  0  0
   56.5048   33.2113   44.5601 H   0  0  0  0  0  0  0  0  0  0  0  0
   57.8330   35.2383   44.0423 H   0  0  0  0  0  0  0  0  0  0  0  0
   59.7711   35.7996   45.4367 H   0  0  0  0  0  0  0  0  0  0  0  0
   62.2785   33.0783   46.1409 H   0  0  0  0  0  0  0  0  0  0  0  0
   64.3921   32.0878   46.8533 H   0  0  0  0  0  0  0  0  0  0  0  0
   65.1154   32.2588   49.2024 H   0  0  0  0  0  0  0  0  0  0  0  0
   63.6948   33.4372   50.8587 H   0  0  0  0  0  0  0  0  0  0  0  0
   61.5737   34.4298   50.1355 H   0  0  0  0  0  0  0  0  0  0  0  0
   59.1030   31.1241   44.4741 H   0  0  0  0  0  0  0  0  0  0  0  0
   58.1240   29.4700   43.0190 H   0  0  0  0  0  0  0  0  0  0  0  0
  1  2  2  3
  2  3  1  0
  3  4  2  0
  4  5  1  0
  5  6  1  0
  6  7  2  0
  7  8  1  0
  8  9  2  0
  9 10  1  0
 10 11  1  0
 11 12  2  0
 12 13  1  0
 13 14  2  0
 14 15  1  0
 15 16  2  0
 16 17  1  0
 17 18  2  0
 18 19  1  0
 19 20  1  0
 20 21  2  0
 21 22  1  0
 22 23  2  0
 23 24  1  0
 24 25  2  0
  5 26  2  0
 26 27  1  0
 27  2  1  0
 12  7  1  0
 18 13  1  0
 25 20  1  0
  1 28  1  0
  3 29  1  0
  4 30  1  0
  9 31  1  0
 10 32  1  0
 11 33  1  0
 14 34  1  0
 15 35  1  0
 16 36  1  0
 17 37  1  0
 21 38  1  0
 22 39  1  0
 23 40  1  0
 24 41  1  0
 25 42  1  0
 26 43  1  0
 27 44  1  0
M  END
>  <smiles>  (7) 
N=c1ccc(N=c2nc[nH]cc2-c2ccccc2Oc2ccccc2)c[nH]1

>  <score_type>  (7) 
oracle

>  <origin>  (7) 
adg

>  <m_score__min__energy>  (7) 
-8.0700000000000003

>  <m_primary>  (7) 
energy

$$$$
7:0
     RDKit          3D

 73 77  0  0  0  0  0  0  0  0999 V2000
   55.8070   30.8210   51.9930 C   0  0  0  0  0  0  0  0  0  0  0  0
   57.2210   30.8790   52.3690 N   0  0  0  0  0  0  0  0  0  0  0  0
   57.8150   29.7890   53.1420 C   0  0  0  0  0  0  0  0  0  0  0  0
   58.0830   31.8510   51.7530 C   0  0  0  0  0  0  0  0  0  0  0  0
   58.0620   33.1670   52.2240 C   0  0  0  0  0  0  0  0  0  0  0  0
   58.8850   34.1320   51.6560 C   0  0  0  0  0  0  0  0  0  0  0  0
   59.7570   33.7960   50.6190 C   0  0  0  0  0  0  0  0  0  0  0  0
   59.8190   32.4770   50.1200 C   0  0  0  0  0  0  0  0  0  0  0  0
   60.7070   32.0980   49.0680 C   0  0  0  0  0  0  0  0  0  0  0  0
   61.9460   33.1730   48.3640 S   0  0  0  0  0  0  0  0  0  0  0  0
   62.2970   34.2830   49.3180 O   0  0  0  0  0  0  0  0  0  0  0  0
   63.1950   32.3640   48.1520 O   0  0  0  0  0  0  0  0  0  0  0  0
   61.4850   33.8470   46.8200 N   0  0  0  0  0  0  0  0  0  0  0  0
   60.1200   34.3800   46.8460 C   0  0  0  0  0  0  0  0  0  0  0  0
   59.1670   33.3680   46.2630 C   0  0  0  0  0  0  0  0  0  0  0  0
   59.5630   32.0340   46.0640 C   0  0  0  0  0  0  0  0  0  0  0  0
   58.6820   31.1200   45.4750 C   0  0  0  0  0  0  0  0  0  0  0  0
   57.4120   31.5350   45.0410 C   0  0  0  0  0  0  0  0  0  0  0  0
   56.4930   30.5610   44.4210 C   0  0  0  0  0  0  0  0  0  0  0  0
   56.1210   30.7470   43.2330 O   0  0  0  0  0  0  0  0  0  0  0  0
   55.9890   29.4170   45.1260 N   0  0  0  0  0  0  0  0  0  0  0  0
   56.6490   28.1200   45.2750 C   0  0  0  0  0  0  0  0  0  0  0  0
   57.7720   28.1540   46.3240 C   0  0  0  0  0  0  0  0  0  0  0  0
   58.5960   26.8600   46.3860 C   0  0  0  0  0  0  0  0  0  0  0  0
   57.7330   25.6340   46.4340 C   0  0  0  0  0  0  0  0  0  0  0  0
   57.3190   24.9600   47.5780 C   0  0  0  0  0  0  0  0  0  0  0  0
   56.6300   23.8450   47.2390 N   0  0  0  0  0  0  0  0  0  0  0  0
   56.0810   22.8550   48.1600 C   0  0  0  0  0  0  0  0  0  0  0  0
   56.6090   23.8060   45.8910 C   0  0  0  0  0  0  0  0  0  0  0  0
   56.0410   22.8300   45.0700 C   0  0  0  0  0  0  0  0  0  0  0  0
   56.1610   22.9890   43.6780 C   0  0  0  0  0  0  0  0  0  0  0  0
   56.8410   24.1060   43.1400 C   0  0  0  0  0  0  0  0  0  0  0  0
   57.4090   25.0710   43.9910 C   0  0  0  0  0  0  0  0  0  0  0  0
   57.2720   24.8870   45.3670 C   0  0  0  0  0  0  0  0  0  0  0  0
   57.0130   32.8650   45.2560 C   0  0  0  0  0  0  0  0  0  0  0  0
   57.8880   33.7760   45.8500 C   0  0  0  0  0  0  0  0  0  0  0  0
   60.6570   30.7840   48.5760 C   0  0  0  0  0  0  0  0  0  0  0  0
   59.8080   29.8350   49.1380 C   0  0  0  0  0  0  0  0  0  0  0  0
   58.9800   30.1790   50.2030 C   0  0  0  0  0  0  0  0  0  0  0  0
   58.9530   31.4950   50.6920 C   0  0  0  0  0  0  0  0  0  0  0  0
   55.1868   30.7956   52.9012 H   0  0  0  0  0  0  0  0  0  0  0  0
   55.5492   31.7093   51.3977 H   0  0  0  0  0  0  0  0  0  0  0  0
   55.6228   29.9145   51.3977 H   0  0  0  0  0  0  0  0  0  0  0  0
   57.7016   29.9971   54.2162 H   0  0  0  0  0  0  0  0  0  0  0  0
   57.3065   28.8452   52.8956 H   0  0  0  0  0  0  0  0  0  0  0  0
   58.8837   29.7048   52.8956 H   0  0  0  0  0  0  0  0  0  0  0  0
   57.3892   33.4407   53.0501 H   0  0  0  0  0  0  0  0  0  0  0  0
   58.8491   35.1673   52.0259 H   0  0  0  0  0  0  0  0  0  0  0  0
   60.4056   34.5707   50.1841 H   0  0  0  0  0  0  0  0  0  0  0  0
   62.1470   34.6360   46.6310 H   0  0  0  0  0  0  0  0  0  0  0  0
   59.8321   34.5968   47.8853 H   0  0  0  0  0  0  0  0  0  0  0  0
   60.0788   35.3038   46.2503 H   0  0  0  0  0  0  0  0  0  0  0  0
   60.5674   31.7079   46.3719 H   0  0  0  0  0  0  0  0  0  0  0  0
   58.9859   30.0701   45.3511 H   0  0  0  0  0  0  0  0  0  0  0  0
   55.9001   27.3753   45.5825 H   0  0  0  0  0  0  0  0  0  0  0  0
   57.1009   27.8591   44.3066 H   0  0  0  0  0  0  0  0  0  0  0  0
   58.4493   28.9860   46.0812 H   0  0  0  0  0  0  0  0  0  0  0  0
   57.2919   28.2775   47.3060 H   0  0  0  0  0  0  0  0  0  0  0  0
   59.2368   26.8062   45.4935 H   0  0  0  0  0  0  0  0  0  0  0  0
   59.1927   26.8864   47.3097 H   0  0  0  0  0  0  0  0  0  0  0  0
   57.5220   25.2857   48.6089 H   0  0  0  0  0  0  0  0  0  0  0  0
   56.2605   23.1787   49.1959 H   0  0  0  0  0  0  0  0  0  0  0  0
   54.9989   22.7556   47.9892 H   0  0  0  0  0  0  0  0  0  0  0  0
   56.5698   21.8845   47.9892 H   0  0  0  0  0  0  0  0  0  0  0  0
   55.5160   21.9636   45.4987 H   0  0  0  0  0  0  0  0  0  0  0  0
   55.7228   22.2392   43.0029 H   0  0  0  0  0  0  0  0  0  0  0  0
   56.9262   24.2209   42.0493 H   0  0  0  0  0  0  0  0  0  0  0  0
   57.9437   25.9423   43.5849 H   0  0  0  0  0  0  0  0  0  0  0  0
   56.0062   33.1899   44.9547 H   0  0  0  0  0  0  0  0  0  0  0  0
   57.5739   34.8201   45.9956 H   0  0  0  0  0  0  0  0  0  0  0  0
   61.3007   30.4992   47.7307 H   0  0  0  0  0  0  0  0  0  0  0  0
   59.7912   28.8099   48.7394 H   0  0  0  0  0  0  0  0  0  0  0  0
   58.3409   29.4126   50.6658 H   0  0  0  0  0  0  0  0  0  0  0  0
  1  2  1  0
  2  3  1  0
  2  4  1  0
  4  5  2  0
  5  6  1  0
  6  7  2  0
  7  8  1  0
  8  9  2  0
  9 10  1  0
 10 11  2  0
 10 12  2  0
 10 13  1  0
 13 14  1  0
 14 15  1  0
 15 16  2  0
 16 17  1  0
 17 18  2  0
 18 19  1  0
 19 20  2  0
 19 21  1  0
 21 22  1  0
 22 23  1  0
 23 24  1  0
 24 25  1  0
 25 26  2  0
 26 27  1  0
 27 28  1  0
 27 29  1  0
 29 30  2  0
 30 31  1  0
 31 32  2  0
 32 33  1  0
 33 34  2  0
 18 35  1  0
 35 36  2  0
  9 37  1  0
 37 38  2  0
 38 39  1  0
 39 40  2  0
 40  4  1  0
 40  8  1  0
 36 15  1  0
 34 25  1  0
 34 29  1  0
  1 41  1  0
  1 42  1  0
  1 43  1  0
  3 44  1  0
  3 45  1  0
  3 46  1  0
  5 47  1  0
  6 48  1  0
  7 49  1  0
 13 50  1  0
 14 51  1  0
 14 52  1  0
 16 53  1  0
 17 54  1  0
 22 55  1  0
 22 56  1  0
 23 57  1  0
 23 58  1  0
 24 59  1  0
 24 60  1  0
 26 61  1  0
 28 62  1  0
 28 63  1  0
 28 64  1  0
 30 65  1  0
 31 66  1  0
 32 67  1  0
 33 68  1  0
 35 69  1  0
 36 70  1  0
 37 71  1  0
 38 72  1  0
 39 73  1  0
M  CHG  1  21  -1
M  END
>  <UniqueID>  (8) 
7

>  <SMILES>  (8) 
CN(C)c1cccc2c(S(=O)(=O)NCc3ccc(C(=O)[N-]CCCc4cn(C)c5ccccc45)cc3)cccc12

>  <Energy>  (8) 
121.27830649875082

>  <Genealogy>  (8) 
CN(C)c1cccc2c(S(=O)(=O)NCc3ccc(C(=O)[N-]CCCc4cn(C)c5ccccc45)cc3)cccc12 (protonated)
CN(C)c1cccc2c(S(=O)(=O)NCc3ccc(C(=O)[N-]CCCc4cn(C)c5ccccc45)cc3)cccc12 (3D coordinates assigned)
CN(C)c1cccc2c(S(=O)(=O)NCc3ccc(C(=O)[N-]CCCc4cn(C)c5ccccc45)cc3)cccc12 (optimized conformer: 121.27830649875082 kcal/mol)

>  <smiles>  (8) 
CN(C)c1cccc2c(S(=O)(=O)NCc3ccc(C(=O)NCCCc4cn(C)c5ccccc45)cc3)cccc12

>  <score_type>  (8) 
oracle

>  <origin>  (8) 
adg

>  <m_score__min__energy>  (8) 
-11.960000000000001

>  <m_primary>  (8) 
energy

$$$$
8:0
     RDKit          3D

 53 55  0  0  0  0  0  0  0  0999 V2000
   55.6896   28.7963   44.5428 H   0  0  0  0  0  0  0  0  0  0  0  0
   56.7080   28.9340   44.9350 C   0  0  0  0  0  0  0  0  0  0  0  0
   57.3030   27.8670   45.4970 C   0  0  0  0  0  0  0  0  0  0  0  0
   58.7430   27.7920   45.4730 C   0  0  0  0  0  0  0  0  0  0  0  0
   59.8980   27.7330   45.4560 N   0  0  0  0  0  0  0  0  0  0  0  0
   56.5530   26.6960   46.0030 C   0  0  0  0  0  0  0  0  0  0  0  0
   55.2940   26.7150   45.9730 O   0  0  0  0  0  0  0  0  0  0  0  0
   57.2130   25.5270   46.5070 N   0  0  0  0  0  0  0  0  0  0  0  0
   56.6170   24.1990   46.6280 C   0  0  0  0  0  0  0  0  0  0  0  0
   57.1273   23.6442   47.4291 H   0  0  0  0  0  0  0  0  0  0  0  0
   55.5484   24.3074   46.8653 H   0  0  0  0  0  0  0  0  0  0  0  0
   56.7560   23.4430   45.3350 C   0  0  0  0  0  0  0  0  0  0  0  0
   57.6460   22.3580   45.2320 C   0  0  0  0  0  0  0  0  0  0  0  0
   58.2810   22.0859   46.0880 H   0  0  0  0  0  0  0  0  0  0  0  0
   57.7250   21.6250   44.0440 C   0  0  0  0  0  0  0  0  0  0  0  0
   58.4194   20.7753   43.9684 H   0  0  0  0  0  0  0  0  0  0  0  0
   56.9230   21.9700   42.9520 C   0  0  0  0  0  0  0  0  0  0  0  0
   56.9871   21.3918   42.0184 H   0  0  0  0  0  0  0  0  0  0  0  0
   56.0400   23.0490   43.0460 C   0  0  0  0  0  0  0  0  0  0  0  0
   55.4118   23.3213   42.1851 H   0  0  0  0  0  0  0  0  0  0  0  0
   55.9540   23.7830   44.2330 C   0  0  0  0  0  0  0  0  0  0  0  0
   55.2556   24.6299   44.3041 H   0  0  0  0  0  0  0  0  0  0  0  0
   57.3130   30.2810   44.8010 C   0  0  0  0  0  0  0  0  0  0  0  0
   57.3220   30.9700   43.5820 C   0  0  0  0  0  0  0  0  0  0  0  0
   56.9179   30.4878   42.6797 H   0  0  0  0  0  0  0  0  0  0  0  0
   57.8390   32.2620   43.5030 C   0  0  0  0  0  0  0  0  0  0  0  0
   57.8533   32.7830   42.5343 H   0  0  0  0  0  0  0  0  0  0  0  0
   58.3420   32.9070   44.6450 C   0  0  0  0  0  0  0  0  0  0  0  0
   58.8880   34.3010   44.5010 C   0  0  0  0  0  0  0  0  0  0  0  0
   59.0573   34.7333   45.4982 H   0  0  0  0  0  0  0  0  0  0  0  0
   59.8393   34.2671   43.9497 H   0  0  0  0  0  0  0  0  0  0  0  0
   58.1667   34.9222   43.9497 H   0  0  0  0  0  0  0  0  0  0  0  0
   58.3390   32.2170   45.8850 C   0  0  0  0  0  0  0  0  0  0  0  0
   58.9440   32.9390   47.3950 S   0  0  0  0  0  0  0  0  0  0  0  0
   58.2760   32.2870   48.5750 O   0  0  0  0  0  0  0  0  0  0  0  0
   58.5460   34.3890   47.4090 O   0  0  0  0  0  0  0  0  0  0  0  0
   60.6940   32.8500   47.5360 N   0  0  0  0  0  0  0  0  0  0  0  0
   60.9290   33.0720   48.5330 H   0  0  0  0  0  0  0  0  0  0  0  0
   61.3630   33.8390   46.6740 C   0  0  0  0  0  0  0  0  0  0  0  0
   61.0619   33.6678   45.6300 H   0  0  0  0  0  0  0  0  0  0  0  0
   61.0658   34.8461   47.0016 H   0  0  0  0  0  0  0  0  0  0  0  0
   62.9010   33.7210   46.7820 C   0  0  0  0  0  0  0  0  0  0  0  0
   63.3145   33.5455   45.7779 H   0  0  0  0  0  0  0  0  0  0  0  0
   63.2828   34.6582   47.2131 H   0  0  0  0  0  0  0  0  0  0  0  0
   63.2960   32.6590   47.6300 O   0  0  0  0  0  0  0  0  0  0  0  0
   62.7270   31.4480   47.1730 C   0  0  0  0  0  0  0  0  0  0  0  0
   63.0374   31.2774   46.1316 H   0  0  0  0  0  0  0  0  0  0  0  0
   63.0782   30.6336   47.8237 H   0  0  0  0  0  0  0  0  0  0  0  0
   61.1840   31.4900   47.2370 C   0  0  0  0  0  0  0  0  0  0  0  0
   60.7767   31.1680   46.2672 H   0  0  0  0  0  0  0  0  0  0  0  0
   60.8525   30.8179   48.0422 H   0  0  0  0  0  0  0  0  0  0  0  0
   57.8020   30.9200   45.9480 C   0  0  0  0  0  0  0  0  0  0  0  0
   57.7649   30.3971   46.9150 H   0  0  0  0  0  0  0  0  0  0  0  0
  1  2  1  0
  2  3  2  0
  3  4  1  0
  4  5  3  0
  3  6  1  0
  6  7  2  0
  6  8  1  0
  8  9  1  0
  9 10  1  0
  9 11  1  0
  9 12  1  0
 12 13  2  0
 13 14  1  0
 13 15  1  0
 15 16  1  0
 15 17  2  0
 17 18  1  0
 17 19  1  0
 19 20  1  0
 19 21  2  0
 21 22  1  0
  2 23  1  0
 23 24  2  0
 24 25  1  0
 24 26  1  0
 26 27  1  0
 26 28  2  0
 28 29  1  0
 29 30  1  0
 29 31  1  0
 29 32  1  0
 28 33  1  0
 33 34  1  0
 34 35  2  0
 34 36  2  0
 34 37  1  0
 37 38  1  0
 37 39  1  0
 39 40  1  0
 39 41  1  0
 39 42  1  0
 42 43  1  0
 42 44  1  0
 42 45  1  0
 45 46  1  0
 46 47  1  0
 46 48  1  0
 46 49  1  0
 49 50  1  0
 49 51  1  0
 33 52  2  0
 52 53  1  0
 21 12  1  0
 52 23  1  0
 49 37  1  0
M  CHG  2   8  -1  37   1
M  END
>  <UniqueID>  (9) 
8

>  <SMILES>  (9) 
Cc1ccc(/C=C(/C#N)C(=O)[N-]Cc2ccccc2)cc1S(=O)(=O)[NH+]1CCOCC1

>  <Energy>  (9) 
72.01013823647742

>  <Genealogy>  (9) 
Cc1ccc(C=C(C#N)C(=O)[N-]Cc2ccccc2)cc1S(=O)(=O)[NH+]1CCOCC1 (protonated)
Cc1ccc(/C=C(/C#N)C(=O)[N-]Cc2ccccc2)cc1S(=O)(=O)[NH+]1CCOCC1 (cis-trans isomerization)
Cc1ccc(/C=C(/C#N)C(=O)[N-]Cc2ccccc2)cc1S(=O)(=O)[NH+]1CCOCC1 (3D coordinates assigned)
Cc1ccc(/C=C(/C#N)C(=O)[N-]Cc2ccccc2)cc1S(=O)(=O)[NH+]1CCOCC1 (nonaromatic ring conformer: 72.01013823647742 kcal/mol)

>  <smiles>  (9) 
Cc1ccc(C=C(C#N)C(=O)NCc2ccccc2)cc1S(=O)(=O)N1CCOCC1

>  <score_type>  (9) 
oracle

>  <origin>  (9) 
adg

>  <m_score__min__energy>  (9) 
-9.6899999999999995

>  <m_primary>  (9) 
energy

$$$$
9:0
     RDKit          3D

 52 55  0  0  0  0  0  0  0  0999 V2000
   59.6610   29.1070   44.1480 O   0  0  0  0  0  0  0  0  0  0  0  0
   58.9980   28.2790   44.8300 C   0  0  0  0  0  0  0  0  0  0  0  0
   59.6530   27.3420   45.5620 N   0  0  0  0  0  0  0  0  0  0  0  0
   58.9790   26.4300   46.3110 C   0  0  0  0  0  0  0  0  0  0  0  0
   59.6340   25.5860   46.9820 O   0  0  0  0  0  0  0  0  0  0  0  0
   57.6060   26.4350   46.3410 N   0  0  0  0  0  0  0  0  0  0  0  0
   56.8670   25.4760   47.1880 C   0  0  0  0  0  0  0  0  0  0  0  0
   57.3380   24.0360   46.9440 C   0  0  0  0  0  0  0  0  0  0  0  0
   56.9470   23.5470   45.5740 C   0  0  0  0  0  0  0  0  0  0  0  0
   55.8350   24.1010   44.9160 C   0  0  0  0  0  0  0  0  0  0  0  0
   55.5020   23.6820   43.6240 C   0  0  0  0  0  0  0  0  0  0  0  0
   56.2790   22.7170   42.9770 C   0  0  0  0  0  0  0  0  0  0  0  0
   57.3910   22.1670   43.6230 C   0  0  0  0  0  0  0  0  0  0  0  0
   57.7260   22.5790   44.9160 C   0  0  0  0  0  0  0  0  0  0  0  0
   56.9130   27.3680   45.6120 C   0  0  0  0  0  0  0  0  0  0  0  0
   55.5190   27.3790   45.6400 O   0  0  0  0  0  0  0  0  0  0  0  0
   57.5970   28.3220   44.8390 C   0  0  0  0  0  0  0  0  0  0  0  0
   56.8450   29.3340   44.0010 C   0  0  0  0  0  0  0  0  0  0  0  0
   57.4130   30.7150   44.2020 C   0  0  0  0  0  0  0  0  0  0  0  0
   57.3720   31.6560   43.1610 C   0  0  0  0  0  0  0  0  0  0  0  0
   57.9360   32.9220   43.3340 C   0  0  0  0  0  0  0  0  0  0  0  0
   58.5380   33.2630   44.5460 C   0  0  0  0  0  0  0  0  0  0  0  0
   58.5710   32.3370   45.6050 C   0  0  0  0  0  0  0  0  0  0  0  0
   59.1830   32.6340   46.8320 O   0  0  0  0  0  0  0  0  0  0  0  0
   60.5650   32.6820   47.0640 C   0  0  0  0  0  0  0  0  0  0  0  0
   61.1740   31.6070   47.7240 C   0  0  0  0  0  0  0  0  0  0  0  0
   62.5490   31.6210   47.9820 C   0  0  0  0  0  0  0  0  0  0  0  0
   63.3210   32.7200   47.5950 C   0  0  0  0  0  0  0  0  0  0  0  0
   62.7190   33.8060   46.9550 C   0  0  0  0  0  0  0  0  0  0  0  0
   61.3460   33.7940   46.6950 C   0  0  0  0  0  0  0  0  0  0  0  0
   58.0260   31.0610   45.4180 C   0  0  0  0  0  0  0  0  0  0  0  0
   60.6980   27.3230   45.5500 H   0  0  0  0  0  0  0  0  0  0  0  0
   57.0307   25.7320   48.2452 H   0  0  0  0  0  0  0  0  0  0  0  0
   55.7990   25.5393   46.9323 H   0  0  0  0  0  0  0  0  0  0  0  0
   58.4334   23.9986   47.0367 H   0  0  0  0  0  0  0  0  0  0  0  0
   56.8570   23.3866   47.6903 H   0  0  0  0  0  0  0  0  0  0  0  0
   55.2252   24.8661   45.4188 H   0  0  0  0  0  0  0  0  0  0  0  0
   54.6267   24.1128   43.1158 H   0  0  0  0  0  0  0  0  0  0  0  0
   56.0161   22.3902   41.9601 H   0  0  0  0  0  0  0  0  0  0  0  0
   58.0030   21.4088   43.1126 H   0  0  0  0  0  0  0  0  0  0  0  0
   58.6018   22.1446   45.4203 H   0  0  0  0  0  0  0  0  0  0  0  0
   56.9301   29.0590   42.9393 H   0  0  0  0  0  0  0  0  0  0  0  0
   55.7893   29.3361   44.3099 H   0  0  0  0  0  0  0  0  0  0  0  0
   56.8938   31.3952   42.2053 H   0  0  0  0  0  0  0  0  0  0  0  0
   57.9056   33.6527   42.5123 H   0  0  0  0  0  0  0  0  0  0  0  0
   58.9880   34.2586   44.6738 H   0  0  0  0  0  0  0  0  0  0  0  0
   60.5672   30.7462   48.0415 H   0  0  0  0  0  0  0  0  0  0  0  0
   63.0223   30.7674   48.4892 H   0  0  0  0  0  0  0  0  0  0  0  0
   64.4027   32.7298   47.7944 H   0  0  0  0  0  0  0  0  0  0  0  0
   63.3269   34.6723   46.6551 H   0  0  0  0  0  0  0  0  0  0  0  0
   60.8740   34.6558   46.2006 H   0  0  0  0  0  0  0  0  0  0  0  0
   58.0782   30.3220   46.2311 H   0  0  0  0  0  0  0  0  0  0  0  0
  1  2  2  0
  2  3  1  0
  3  4  1  0
  4  5  2  0
  4  6  1  0
  6  7  1  0
  7  8  1  0
  8  9  1  0
  9 10  2  0
 10 11  1  0
 11 12  2  0
 12 13  1  0
 13 14  2  0
  6 15  1  0
 15 16  1  0
 15 17  2  0
 17 18  1  0
 18 19  1  0
 19 20  2  0
 20 21  1  0
 21 22  2  0
 22 23  1  0
 23 24  1  0
 24 25  1  0
 25 26  2  0
 26 27  1  0
 27 28  2  0
 28 29  1  0
 29 30  2  0
 23 31  2  0
 17  2  1  0
 31 19  1  0
 14  9  1  0
 30 25  1  0
  3 32  1  0
  7 33  1  0
  7 34  1  0
  8 35  1  0
  8 36  1  0
 10 37  1  0
 11 38  1  0
 12 39  1  0
 13 40  1  0
 14 41  1  0
 18 42  1  0
 18 43  1  0
 20 44  1  0
 21 45  1  0
 22 46  1  0
 26 47  1  0
 27 48  1  0
 28 49  1  0
 29 50  1  0
 30 51  1  0
 31 52  1  0
M  CHG  1  16  -1
M  END
>  <UniqueID>  (10) 
9

>  <SMILES>  (10) 
O=c1[nH]c(=O)n(CCc2ccccc2)c([O-])c1Cc1cccc(Oc2ccccc2)c1

>  <Energy>  (10) 
63.89453292129593

>  <Genealogy>  (10) 
O=c1[nH]c(=O)n(CCc2ccccc2)c([O-])c1Cc1cccc(Oc2ccccc2)c1 (protonated)
O=c1[nH]c(=O)n(CCc2ccccc2)c([O-])c1Cc1cccc(Oc2ccccc2)c1 (3D coordinates assigned)
O=c1[nH]c(=O)n(CCc2ccccc2)c([O-])c1Cc1cccc(Oc2ccccc2)c1 (optimized conformer: 63.89453292129593 kcal/mol)

>  <smiles>  (10) 
O=c1[nH]c(=O)n(CCc2ccccc2)c(O)c1Cc1cccc(Oc2ccccc2)c1

>  <score_type>  (10) 
oracle

>  <origin>  (10) 
adg

>  <m_score__min__energy>  (10) 
-12.18

>  <m_primary>  (10) 
energy

$$$$
10:0
     RDKit          3D

 49 52  0  0  0  0  0  0  0  0999 V2000
   59.1810   32.7460   49.3280 C   0  0  0  0  0  0  0  0  0  0  0  0
   60.6290   32.6020   48.9810 C   0  0  0  0  0  0  0  0  0  0  0  0
   61.6010   33.0300   49.8310 N   0  0  0  0  0  0  0  0  0  0  0  0
   62.8460   32.8270   49.3420 C   0  0  0  0  0  0  0  0  0  0  0  0
   64.0770   33.2320   50.0580 C   0  0  0  0  0  0  0  0  0  0  0  0
   64.0270   34.1410   51.1300 C   0  0  0  0  0  0  0  0  0  0  0  0
   65.1960   34.5040   51.8050 C   0  0  0  0  0  0  0  0  0  0  0  0
   66.4250   33.9630   51.4210 C   0  0  0  0  0  0  0  0  0  0  0  0
   66.4870   33.0580   50.3580 C   0  0  0  0  0  0  0  0  0  0  0  0
   65.3210   32.6940   49.6790 C   0  0  0  0  0  0  0  0  0  0  0  0
   62.7820   32.0990   47.8230 S   0  0  0  0  0  0  0  0  0  0  0  0
   61.1000   32.0500   47.7850 C   0  0  0  0  0  0  0  0  0  0  0  0
   60.2810   31.4950   46.6520 C   0  0  0  0  0  0  0  0  0  0  0  0
   59.3900   32.5570   46.0470 C   0  0  0  0  0  0  0  0  0  0  0  0
   59.9030   33.8430   45.8070 C   0  0  0  0  0  0  0  0  0  0  0  0
   59.0980   34.8330   45.2410 C   0  0  0  0  0  0  0  0  0  0  0  0
   59.6040   36.0700   45.0110 F   0  0  0  0  0  0  0  0  0  0  0  0
   57.7740   34.5480   44.9020 C   0  0  0  0  0  0  0  0  0  0  0  0
   57.2470   33.2770   45.1380 C   0  0  0  0  0  0  0  0  0  0  0  0
   58.0430   32.2770   45.7240 C   0  0  0  0  0  0  0  0  0  0  0  0
   57.5160   30.9720   45.9940 N   0  0  0  0  0  0  0  0  0  0  0  0
   57.1120   29.7760   44.8090 S   0  0  0  0  0  0  0  0  0  0  0  0
   55.6200   29.6340   44.6840 O   0  0  0  0  0  0  0  0  0  0  0  0
   57.6790   30.1730   43.4740 O   0  0  0  0  0  0  0  0  0  0  0  0
   57.7990   28.2420   45.3410 C   0  0  0  0  0  0  0  0  0  0  0  0
   59.1910   28.1140   45.4660 C   0  0  0  0  0  0  0  0  0  0  0  0
   59.7500   26.9220   45.9350 C   0  0  0  0  0  0  0  0  0  0  0  0
   58.9260   25.8510   46.2860 C   0  0  0  0  0  0  0  0  0  0  0  0
   57.5390   25.9720   46.1720 C   0  0  0  0  0  0  0  0  0  0  0  0
   56.9680   27.1650   45.7090 C   0  0  0  0  0  0  0  0  0  0  0  0
   55.5810   27.2830   45.6230 O   0  0  0  0  0  0  0  0  0  0  0  0
   59.0655   32.7575   50.4219 H   0  0  0  0  0  0  0  0  0  0  0  0
   58.7953   33.6869   48.9086 H   0  0  0  0  0  0  0  0  0  0  0  0
   58.6175   31.8995   48.9086 H   0  0  0  0  0  0  0  0  0  0  0  0
   63.0620   34.5690   51.4392 H   0  0  0  0  0  0  0  0  0  0  0  0
   65.1478   35.2176   52.6408 H   0  0  0  0  0  0  0  0  0  0  0  0
   67.3433   34.2490   51.9548 H   0  0  0  0  0  0  0  0  0  0  0  0
   67.4548   32.6316   50.0553 H   0  0  0  0  0  0  0  0  0  0  0  0
   65.3760   31.9819   48.8424 H   0  0  0  0  0  0  0  0  0  0  0  0
   60.9581   31.1101   45.8752 H   0  0  0  0  0  0  0  0  0  0  0  0
   59.6435   30.6898   47.0460 H   0  0  0  0  0  0  0  0  0  0  0  0
   60.9471   34.0713   46.0672 H   0  0  0  0  0  0  0  0  0  0  0  0
   57.1443   35.3271   44.4477 H   0  0  0  0  0  0  0  0  0  0  0  0
   56.2046   33.0569   44.8643 H   0  0  0  0  0  0  0  0  0  0  0  0
   59.8449   28.9555   45.1936 H   0  0  0  0  0  0  0  0  0  0  0  0
   60.8420   26.8274   46.0278 H   0  0  0  0  0  0  0  0  0  0  0  0
   59.3685   24.9128   46.6520 H   0  0  0  0  0  0  0  0  0  0  0  0
   56.8916   25.1263   46.4471 H   0  0  0  0  0  0  0  0  0  0  0  0
   55.1390   27.8590   44.9180 H   0  0  0  0  0  0  0  0  0  0  0  0
  1  2  1  0
  2  3  1  0
  3  4  2  0
  4  5  1  0
  5  6  2  0
  6  7  1  0
  7  8  2  0
  8  9  1  0
  9 10  2  0
  4 11  1  0
 11 12  1  0
 12 13  1  0
 13 14  1  0
 14 15  2  0
 15 16  1  0
 16 17  1  0
 16 18  2  0
 18 19  1  0
 19 20  2  0
 20 21  1  0
 21 22  1  0
 22 23  2  0
 22 24  2  0
 22 25  1  0
 25 26  2  0
 26 27  1  0
 27 28  2  0
 28 29  1  0
 29 30  2  0
 30 31  1  0
 12  2  2  0
 20 14  1  0
 30 25  1  0
 10  5  1  0
  1 32  1  0
  1 33  1  0
  1 34  1  0
  6 35  1  0
  7 36  1  0
  8 37  1  0
  9 38  1  0
 10 39  1  0
 13 40  1  0
 13 41  1  0
 15 42  1  0
 18 43  1  0
 19 44  1  0
 26 45  1  0
 27 46  1  0
 28 47  1  0
 29 48  1  0
 31 49  1  0
M  CHG  1  21  -1
M  END
>  <UniqueID>  (11) 
10

>  <SMILES>  (11) 
Cc1nc(-c2ccccc2)sc1Cc1cc(F)ccc1[N-]S(=O)(=O)c1ccccc1O

>  <Energy>  (11) 
83.05534966731842

>  <Genealogy>  (11) 
Cc1nc(-c2ccccc2)sc1Cc1cc(F)ccc1[N-]S(=O)(=O)c1ccccc1O (protonated)
Cc1nc(-c2ccccc2)sc1Cc1cc(F)ccc1[N-]S(=O)(=O)c1ccccc1O (3D coordinates assigned)
Cc1nc(-c2ccccc2)sc1Cc1cc(F)ccc1[N-]S(=O)(=O)c1ccccc1O (optimized conformer: 83.05534966731842 kcal/mol)

>  <smiles>  (11) 
Cc1nc(-c2ccccc2)sc1Cc1cc(F)ccc1NS(=O)(=O)c1ccccc1O

>  <score_type>  (11) 
oracle

>  <origin>  (11) 
adg

>  <m_score__min__energy>  (11) 
-12.220000000000001

>  <m_primary>  (11) 
energy

$$$$
11:0
     RDKit          3D

 54 56  0  0  0  0  0  0  0  0999 V2000
   53.3026   24.5612   45.5509 H   0  0  0  0  0  0  0  0  0  0  0  0
   54.3520   24.8750   45.4500 C   0  0  0  0  0  0  0  0  0  0  0  0
   54.7610   26.0490   45.9870 N   0  0  0  0  0  0  0  0  0  0  0  0
   56.0450   26.4730   45.8740 C   0  0  0  0  0  0  0  0  0  0  0  0
   56.3406   27.4349   46.3183 H   0  0  0  0  0  0  0  0  0  0  0  0
   57.0020   25.6980   45.1960 C   0  0  0  0  0  0  0  0  0  0  0  0
   58.3000   26.2660   44.9870 N   0  0  0  0  0  0  0  0  0  0  0  0
   58.9460   25.7320   44.3720 H   0  0  0  0  0  0  0  0  0  0  0  0
   58.6310   27.6200   45.3640 C   0  0  0  0  0  0  0  0  0  0  0  0
   59.4700   27.8890   46.4650 C   0  0  0  0  0  0  0  0  0  0  0  0
   60.0900   26.7910   47.2770 C   0  0  0  0  0  0  0  0  0  0  0  0
   59.9655   27.0115   48.3475 H   0  0  0  0  0  0  0  0  0  0  0  0
   59.5975   25.8365   47.0395 H   0  0  0  0  0  0  0  0  0  0  0  0
   61.1617   26.7197   47.0395 H   0  0  0  0  0  0  0  0  0  0  0  0
   59.7350   29.1760   46.8110 N   0  0  0  0  0  0  0  0  0  0  0  0
   59.2180   30.2440   46.1430 C   0  0  0  0  0  0  0  0  0  0  0  0
   59.5170   31.4620   46.4990 N   0  0  0  0  0  0  0  0  0  0  0  0
   60.7960   31.9420   46.9500 C   0  0  0  0  0  0  0  0  0  0  0  0
   61.6920   31.1070   47.6420 C   0  0  0  0  0  0  0  0  0  0  0  0
   61.4288   30.0547   47.8247 H   0  0  0  0  0  0  0  0  0  0  0  0
   62.9130   31.6060   48.0980 C   0  0  0  0  0  0  0  0  0  0  0  0
   63.6127   30.9385   48.6223 H   0  0  0  0  0  0  0  0  0  0  0  0
   63.2550   32.9450   47.8950 C   0  0  0  0  0  0  0  0  0  0  0  0
   64.4950   33.3940   48.3720 O   0  0  0  0  0  0  0  0  0  0  0  0
   64.8900   33.3680   49.7400 C   0  0  0  0  0  0  0  0  0  0  0  0
   63.9976   33.4267   50.3805 H   0  0  0  0  0  0  0  0  0  0  0  0
   65.4297   32.4324   49.9481 H   0  0  0  0  0  0  0  0  0  0  0  0
   65.5477   34.2248   49.9481 H   0  0  0  0  0  0  0  0  0  0  0  0
   62.3480   33.7930   47.2300 C   0  0  0  0  0  0  0  0  0  0  0  0
   62.6055   34.8508   47.0725 H   0  0  0  0  0  0  0  0  0  0  0  0
   61.1140   33.2980   46.7650 C   0  0  0  0  0  0  0  0  0  0  0  0
   60.1810   34.1170   46.1080 O   0  0  0  0  0  0  0  0  0  0  0  0
   59.6380   35.3180   46.6490 C   0  0  0  0  0  0  0  0  0  0  0  0
   59.6605   35.2683   47.7476 H   0  0  0  0  0  0  0  0  0  0  0  0
   60.2355   36.1765   46.3085 H   0  0  0  0  0  0  0  0  0  0  0  0
   58.5988   35.4365   46.3085 H   0  0  0  0  0  0  0  0  0  0  0  0
   58.3870   30.0240   45.0290 C   0  0  0  0  0  0  0  0  0  0  0  0
   57.7960   31.1770   44.2620 C   0  0  0  0  0  0  0  0  0  0  0  0
   57.4111   31.9279   44.9677 H   0  0  0  0  0  0  0  0  0  0  0  0
   58.5718   31.6324   43.6290 H   0  0  0  0  0  0  0  0  0  0  0  0
   56.9733   30.8130   43.6290 H   0  0  0  0  0  0  0  0  0  0  0  0
   58.0890   28.7070   44.6580 C   0  0  0  0  0  0  0  0  0  0  0  0
   57.4222   28.5212   43.8031 H   0  0  0  0  0  0  0  0  0  0  0  0
   56.6020   24.4460   44.6450 C   0  0  0  0  0  0  0  0  0  0  0  0
   57.3970   23.5860   44.0640 N   0  0  0  0  0  0  0  0  0  0  0  0
   57.3210   21.8570   43.8940 S   0  0  0  0  0  0  0  0  0  0  0  0
   58.6540   21.3840   43.3860 O   0  0  0  0  0  0  0  0  0  0  0  0
   56.2790   21.4660   42.8840 O   0  0  0  0  0  0  0  0  0  0  0  0
   57.0250   21.0720   45.4680 C   0  0  0  0  0  0  0  0  0  0  0  0
   57.2871   21.7670   46.2794 H   0  0  0  0  0  0  0  0  0  0  0  0
   55.9623   20.7993   45.5477 H   0  0  0  0  0  0  0  0  0  0  0  0
   57.6431   20.1656   45.5477 H   0  0  0  0  0  0  0  0  0  0  0  0
   55.2580   24.0640   44.7700 C   0  0  0  0  0  0  0  0  0  0  0  0
   54.9167   23.1165   44.3276 H   0  0  0  0  0  0  0  0  0  0  0  0
  1  2  1  0
  2  3  1  0
  3  4  1  0
  4  5  1  0
  4  6  2  0
  6  7  1  0
  7  8  1  0
  7  9  1  0
  9 10  2  0
 10 11  1  0
 11 12  1  0
 11 13  1  0
 11 14  1  0
 10 15  1  0
 15 16  1  0
 16 17  2  0
 17 18  1  0
 18 19  2  0
 19 20  1  0
 19 21  1  0
 21 22  1  0
 21 23  2  0
 23 24  1  0
 24 25  1  0
 25 26  1  0
 25 27  1  0
 25 28  1  0
 23 29  1  0
 29 30  1  0
 29 31  2  0
 31 32  1  0
 32 33  1  0
 33 34  1  0
 33 35  1  0
 33 36  1  0
 16 37  1  0
 37 38  1  0
 38 39  1  0
 38 40  1  0
 38 41  1  0
 37 42  2  0
 42 43  1  0
  6 44  1  0
 44 45  2  0
 45 46  1  0
 46 47  2  0
 46 48  2  0
 46 49  1  0
 49 50  1  0
 49 51  1  0
 49 52  1  0
 44 53  1  0
 53 54  1  0
 53  2  2  0
 42  9  1  0
 31 18  1  0
M  CHG  2   3  -1  15  -1
M  END
>  <UniqueID>  (12) 
11

>  <SMILES>  (12) 
COc1ccc(/N=c2\[n-]c(C)c(Nc3c[n-]cc/c3=N/S(C)(=O)=O)cc2C)c(OC)c1

>  <Energy>  (12) 
79.2416991733121

>  <Genealogy>  (12) 
COc1ccc(N=c2[n-]c(C)c(Nc3c[n-]ccc3=NS(C)(=O)=O)cc2C)c(OC)c1 (protonated)
COc1ccc(/N=c2\[n-]c(C)c(Nc3c[n-]cc/c3=N/S(C)(=O)=O)cc2C)c(OC)c1 (cis-trans isomerization)
COc1ccc(/N=c2\[n-]c(C)c(Nc3c[n-]cc/c3=N/S(C)(=O)=O)cc2C)c(OC)c1 (3D coordinates assigned)
COc1ccc(/N=c2\[n-]c(C)c(Nc3c[n-]cc/c3=N/S(C)(=O)=O)cc2C)c(OC)c1 (optimized conformer: 79.2416991733121 kcal/mol)

>  <smiles>  (12) 
COc1ccc(N=c2[nH]c(C)c(Nc3c[nH]ccc3=NS(C)(=O)=O)cc2C)c(OC)c1

>  <score_type>  (12) 
oracle

>  <origin>  (12) 
adg

>  <m_score__min__energy>  (12) 
-11.369999999999999

>  <m_primary>  (12) 
energy

$$$$
12:0
     RDKit          3D

 39 41  0  0  0  0  0  0  0  0999 V2000
   55.1390   29.3540   44.8360 N   0  0  0  0  0  0  0  0  0  0  0  0
   56.7770   29.8170   44.5410 S   0  0  0  0  0  0  0  0  0  0  0  0
   57.0870   29.6200   43.0830 O   0  0  0  0  0  0  0  0  0  0  0  0
   56.9630   31.2690   44.8850 O   0  0  0  0  0  0  0  0  0  0  0  0
   57.8530   28.8340   45.5350 C   0  0  0  0  0  0  0  0  0  0  0  0
   58.1840   27.5220   45.1550 C   0  0  0  0  0  0  0  0  0  0  0  0
   59.0370   26.7530   45.9570 C   0  0  0  0  0  0  0  0  0  0  0  0
   59.5470   27.2830   47.1490 C   0  0  0  0  0  0  0  0  0  0  0  0
   59.1930   28.5780   47.5560 C   0  0  0  0  0  0  0  0  0  0  0  0
   59.7210   29.0930   48.7860 N   0  0  0  0  0  0  0  0  0  0  0  0
   59.2130   30.2160   49.5250 C   0  0  0  0  0  0  0  0  0  0  0  0
   58.1160   30.0910   50.1340 O   0  0  0  0  0  0  0  0  0  0  0  0
   59.8610   31.5760   49.4640 C   0  0  0  0  0  0  0  0  0  0  0  0
   60.3150   31.8570   48.0930 N   0  0  0  0  0  0  0  0  0  0  0  0
   61.6560   31.4140   47.6730 C   0  0  0  0  0  0  0  0  0  0  0  0
   62.4400   32.5700   47.1100 C   0  0  0  0  0  0  0  0  0  0  0  0
   63.7010   32.5480   47.1350 O   0  0  0  0  0  0  0  0  0  0  0  0
   61.7560   33.6540   46.4690 N   0  0  0  0  0  0  0  0  0  0  0  0
   60.3200   33.6870   46.4490 C   0  0  0  0  0  0  0  0  0  0  0  0
   59.6430   34.6190   45.6440 C   0  0  0  0  0  0  0  0  0  0  0  0
   58.2420   34.6160   45.5950 C   0  0  0  0  0  0  0  0  0  0  0  0
   57.5120   33.6830   46.3480 C   0  0  0  0  0  0  0  0  0  0  0  0
   58.1790   32.7630   47.1670 C   0  0  0  0  0  0  0  0  0  0  0  0
   59.5890   32.7710   47.2380 C   0  0  0  0  0  0  0  0  0  0  0  0
   58.3730   29.3650   46.7260 C   0  0  0  0  0  0  0  0  0  0  0  0
   55.1500   28.6600   45.6220 H   0  0  0  0  0  0  0  0  0  0  0  0
   57.7728   27.0986   44.2268 H   0  0  0  0  0  0  0  0  0  0  0  0
   59.3067   25.7316   45.6503 H   0  0  0  0  0  0  0  0  0  0  0  0
   60.2281   26.6812   47.7687 H   0  0  0  0  0  0  0  0  0  0  0  0
   59.1320   32.3407   49.7701 H   0  0  0  0  0  0  0  0  0  0  0  0
   60.7274   31.5935   50.1416 H   0  0  0  0  0  0  0  0  0  0  0  0
   62.1904   31.0031   48.5422 H   0  0  0  0  0  0  0  0  0  0  0  0
   61.5492   30.6436   46.8951 H   0  0  0  0  0  0  0  0  0  0  0  0
   62.3110   34.4010   45.9850 H   0  0  0  0  0  0  0  0  0  0  0  0
   60.2124   35.3509   45.0523 H   0  0  0  0  0  0  0  0  0  0  0  0
   57.7135   35.3465   44.9650 H   0  0  0  0  0  0  0  0  0  0  0  0
   56.4133   33.6743   46.2948 H   0  0  0  0  0  0  0  0  0  0  0  0
   57.6035   32.0334   47.7556 H   0  0  0  0  0  0  0  0  0  0  0  0
   58.1384   30.4010   47.0118 H   0  0  0  0  0  0  0  0  0  0  0  0
  1  2  1  0
  2  3  2  0
  2  4  2  0
  2  5  1  0
  5  6  2  0
  6  7  1  0
  7  8  2  0
  8  9  1  0
  9 10  1  0
 10 11  1  0
 11 12  2  0
 11 13  1  0
 13 14  1  0
 14 15  1  0
 15 16  1  0
 16 17  2  0
 16 18  1  0
 18 19  1  0
 19 20  2  0
 20 21  1  0
 21 22  2  0
 22 23  1  0
 23 24  2  0
  9 25  2  0
 25  5  1  0
 24 14  1  0
 24 19  1  0
  1 26  1  0
  6 27  1  0
  7 28  1  0
  8 29  1  0
 13 30  1  0
 13 31  1  0
 15 32  1  0
 15 33  1  0
 18 34  1  0
 20 35  1  0
 21 36  1  0
 22 37  1  0
 23 38  1  0
 25 39  1  0
M  CHG  2   1  -1  10  -1
M  END
>  <UniqueID>  (13) 
12

>  <SMILES>  (13) 
[NH-]S(=O)(=O)c1cccc([N-]C(=O)CN2CC(=O)Nc3ccccc32)c1

>  <Energy>  (13) 
45.93725638139918

>  <Genealogy>  (13) 
[NH-]S(=O)(=O)c1cccc([N-]C(=O)CN2CC(=O)Nc3ccccc32)c1 (protonated)
[NH-]S(=O)(=O)c1cccc([N-]C(=O)CN2CC(=O)Nc3ccccc32)c1 (3D coordinates assigned)
[NH-]S(=O)(=O)c1cccc([N-]C(=O)CN2CC(=O)Nc3ccccc32)c1 (nonaromatic ring conformer: 45.93725638139918 kcal/mol)

>  <smiles>  (13) 
NS(=O)(=O)c1cccc(NC(=O)CN2CC(=O)Nc3ccccc32)c1

>  <score_type>  (13) 
oracle

>  <origin>  (13) 
adg

>  <m_score__min__energy>  (13) 
-12.08

>  <m_primary>  (13) 
energy

$$$$
13:0
     RDKit          3D

 60 64  0  0  0  0  0  0  0  0999 V2000
   58.9075   33.8268   43.7969 H   0  0  0  0  0  0  0  0  0  0  0  0
   58.9840   33.7560   44.8920 C   0  0  0  0  0  0  0  0  0  0  0  0
   59.6340   34.9460   45.9080 S   0  0  0  0  0  0  0  0  0  0  0  0
   59.3720   34.0900   47.3240 C   0  0  0  0  0  0  0  0  0  0  0  0
   59.6580   34.4360   48.6350 C   0  0  0  0  0  0  0  0  0  0  0  0
   60.1261   35.4019   48.8759 H   0  0  0  0  0  0  0  0  0  0  0  0
   59.3430   33.5460   49.6170 N   0  0  0  0  0  0  0  0  0  0  0  0
   58.7610   32.3380   49.3280 C   0  0  0  0  0  0  0  0  0  0  0  0
   58.4700   31.4980   50.2730 N   0  0  0  0  0  0  0  0  0  0  0  0
   57.4330   31.7360   51.2720 C   0  0  0  0  0  0  0  0  0  0  0  0
   56.5610   31.5794   50.6201 H   0  0  0  0  0  0  0  0  0  0  0  0
   57.8430   31.2860   52.6610 C   0  0  0  0  0  0  0  0  0  0  0  0
   57.0932   30.8644   53.3465 H   0  0  0  0  0  0  0  0  0  0  0  0
   58.5990   30.5961   53.0642 H   0  0  0  0  0  0  0  0  0  0  0  0
   57.8120   32.7690   52.3170 C   0  0  0  0  0  0  0  0  0  0  0  0
   57.0397   33.4193   52.7536 H   0  0  0  0  0  0  0  0  0  0  0  0
   58.5360   33.5956   52.3682 H   0  0  0  0  0  0  0  0  0  0  0  0
   58.4820   32.0080   48.0330 N   0  0  0  0  0  0  0  0  0  0  0  0
   58.7810   32.8800   47.0360 C   0  0  0  0  0  0  0  0  0  0  0  0
   58.5590   32.6670   45.6660 C   0  0  0  0  0  0  0  0  0  0  0  0
   57.9210   31.4530   45.1080 C   0  0  0  0  0  0  0  0  0  0  0  0
   56.6710   31.4240   44.9630 O   0  0  0  0  0  0  0  0  0  0  0  0
   58.6850   30.3140   44.6910 N   0  0  0  0  0  0  0  0  0  0  0  0
   58.8610   29.0990   45.4360 C   0  0  0  0  0  0  0  0  0  0  0  0
   59.3690   29.1940   46.7380 C   0  0  0  0  0  0  0  0  0  0  0  0
   59.6331   30.1808   47.1460 H   0  0  0  0  0  0  0  0  0  0  0  0
   59.5460   28.0480   47.5300 C   0  0  0  0  0  0  0  0  0  0  0  0
   60.0760   28.1450   48.9110 C   0  0  0  0  0  0  0  0  0  0  0  0
   60.5710   27.1190   49.4540 O   0  0  0  0  0  0  0  0  0  0  0  0
   60.0260   29.3830   49.6420 N   0  0  0  0  0  0  0  0  0  0  0  0
   59.5230   30.2050   49.2390 H   0  0  0  0  0  0  0  0  0  0  0  0
   60.6700   29.5520   50.9430 C   0  0  0  0  0  0  0  0  0  0  0  0
   60.0761   30.2490   51.5525 H   0  0  0  0  0  0  0  0  0  0  0  0
   60.7322   28.5716   51.4380 H   0  0  0  0  0  0  0  0  0  0  0  0
   62.0860   30.1110   50.7750 C   0  0  0  0  0  0  0  0  0  0  0  0
   62.7314   29.6991   51.5648 H   0  0  0  0  0  0  0  0  0  0  0  0
   62.4609   29.8230   49.7818 H   0  0  0  0  0  0  0  0  0  0  0  0
   62.0880   31.6410   50.8730 C   0  0  0  0  0  0  0  0  0  0  0  0
   61.0916   31.9841   51.1883 H   0  0  0  0  0  0  0  0  0  0  0  0
   62.8470   31.9477   51.6078 H   0  0  0  0  0  0  0  0  0  0  0  0
   62.4250   32.2580   49.5420 C   0  0  0  0  0  0  0  0  0  0  0  0
   63.0710   33.5050   49.4800 C   0  0  0  0  0  0  0  0  0  0  0  0
   63.3532   34.0230   50.4085 H   0  0  0  0  0  0  0  0  0  0  0  0
   63.3560   34.0890   48.2420 C   0  0  0  0  0  0  0  0  0  0  0  0
   63.8667   35.0623   48.1986 H   0  0  0  0  0  0  0  0  0  0  0  0
   62.9930   33.4380   47.0590 C   0  0  0  0  0  0  0  0  0  0  0  0
   63.2226   33.8971   46.0861 H   0  0  0  0  0  0  0  0  0  0  0  0
   62.3390   32.2050   47.1120 C   0  0  0  0  0  0  0  0  0  0  0  0
   62.0503   31.6953   46.1810 H   0  0  0  0  0  0  0  0  0  0  0  0
   62.0510   31.6180   48.3490 C   0  0  0  0  0  0  0  0  0  0  0  0
   61.5291   30.6505   48.3874 H   0  0  0  0  0  0  0  0  0  0  0  0
   59.2350   26.7930   46.9870 C   0  0  0  0  0  0  0  0  0  0  0  0
   59.3658   25.8873   47.5974 H   0  0  0  0  0  0  0  0  0  0  0  0
   58.7610   26.6830   45.6790 C   0  0  0  0  0  0  0  0  0  0  0  0
   58.5166   25.6915   45.2702 H   0  0  0  0  0  0  0  0  0  0  0  0
   58.5930   27.8240   44.8800 C   0  0  0  0  0  0  0  0  0  0  0  0
   58.1440   27.6470   43.4540 C   0  0  0  0  0  0  0  0  0  0  0  0
   57.1207   27.2436   43.4392 H   0  0  0  0  0  0  0  0  0  0  0  0
   58.1622   28.6196   42.9404 H   0  0  0  0  0  0  0  0  0  0  0  0
   58.8210   26.9485   42.9404 H   0  0  0  0  0  0  0  0  0  0  0  0
  1  2  1  0
  2  3  1  0
  3  4  1  0
  4  5  2  0
  5  6  1  0
  5  7  1  0
  7  8  1  0
  8  9  2  0
  9 10  1  0
 10 11  1  0
 10 12  1  0
 12 13  1  0
 12 14  1  0
 12 15  1  0
 15 16  1  0
 15 17  1  0
  8 18  1  0
 18 19  2  0
 19 20  1  0
 20 21  1  0
 21 22  2  0
 21 23  1  0
 23 24  1  0
 24 25  2  0
 25 26  1  0
 25 27  1  0
 27 28  1  0
 28 29  2  0
 28 30  1  0
 30 31  1  0
 30 32  1  0
 32 33  1  0
 32 34  1  0
 32 35  1  0
 35 36  1  0
 35 37  1  0
 35 38  1  0
 38 39  1  0
 38 40  1  0
 38 41  1  0
 41 42  2  0
 42 43  1  0
 42 44  1  0
 44 45  1  0
 44 46  2  0
 46 47  1  0
 46 48  1  0
 48 49  1  0
 48 50  2  0
 50 51  1  0
 27 52  2  0
 52 53  1  0
 52 54  1  0
 54 55  1  0
 54 56  2  0
 56 57  1  0
 57 58  1  0
 57 59  1  0
 57 60  1  0
 20  2  2  0
 56 24  1  0
 19  4  1  0
 50 41  1  0
 15 10  1  0
M  CHG  2   7  -1  23  -1
M  END
>  <UniqueID>  (14) 
13

>  <SMILES>  (14) 
Cc1ccc(C(=O)NCCCc2ccccc2)cc1[N-]C(=O)c1csc2c[n-]/c(=N\C3CC3)nc12

>  <Energy>  (14) 
366.7043682942989

>  <Genealogy>  (14) 
Cc1ccc(C(=O)NCCCc2ccccc2)cc1[N-]C(=O)c1csc2c[n-]c(=NC3CC3)nc12 (protonated)
Cc1ccc(C(=O)NCCCc2ccccc2)cc1[N-]C(=O)c1csc2c[n-]/c(=N\C3CC3)nc12 (cis-trans isomerization)
Cc1ccc(C(=O)NCCCc2ccccc2)cc1[N-]C(=O)c1csc2c[n-]/c(=N\C3CC3)nc12 (3D coordinates assigned)
Cc1ccc(C(=O)NCCCc2ccccc2)cc1[N-]C(=O)c1csc2c[n-]/c(=N\C3CC3)nc12 (nonaromatic ring conformer: 366.7043682942989 kcal/mol)

>  <smiles>  (14) 
Cc1ccc(C(=O)NCCCc2ccccc2)cc1NC(=O)c1csc2c[nH]c(=NC3CC3)nc12

>  <score_type>  (14) 
oracle

>  <origin>  (14) 
adg

>  <m_score__min__energy>  (14) 
-13.470000000000001

>  <m_primary>  (14) 
energy

$$$$
14:0
     RDKit          3D

 44 47  0  0  0  0  0  0  0  0999 V2000
   55.7670   26.4010   46.4020 N   0  0  0  0  0  0  0  0  0  0  0  0
   56.7880   25.7780   45.6300 C   0  0  0  0  0  0  0  0  0  0  0  0
   57.0260   24.5500   45.7830 O   0  0  0  0  0  0  0  0  0  0  0  0
   57.5130   26.5420   44.7120 O   0  0  0  0  0  0  0  0  0  0  0  0
   58.7100   27.1900   45.0320 C   0  0  0  0  0  0  0  0  0  0  0  0
   58.7190   28.4930   45.3530 C   0  0  0  0  0  0  0  0  0  0  0  0
   59.9980   29.2950   45.2610 C   0  0  0  0  0  0  0  0  0  0  0  0
   60.4600   29.9710   46.9040 S   0  0  0  0  0  0  0  0  0  0  0  0
   58.8890   30.8690   47.2850 C   0  0  1  0  0  0  0  0  0  0  0  0
   58.8060   32.2660   46.9110 C   0  0  1  0  0  0  0  0  0  0  0  0
   59.9540   32.7760   46.1630 N   0  0  0  0  0  0  0  0  0  0  0  0
   60.7910   33.8500   46.6060 C   0  0  0  0  0  0  0  0  0  0  0  0
   60.6770   34.9810   46.0630 O   0  0  0  0  0  0  0  0  0  0  0  0
   61.8080   33.6560   47.6590 C   0  0  0  0  0  0  0  0  0  0  0  0
   63.1490   33.5310   47.2690 C   0  0  0  0  0  0  0  0  0  0  0  0
   64.1480   33.3110   48.2180 C   0  0  0  0  0  0  0  0  0  0  0  0
   63.8260   33.2240   49.5710 C   0  0  0  0  0  0  0  0  0  0  0  0
   62.4950   33.3700   49.9920 C   0  0  0  0  0  0  0  0  0  0  0  0
   62.1770   33.2990   51.3570 C   0  0  0  0  0  0  0  0  0  0  0  0
   60.8570   33.4600   51.7810 C   0  0  0  0  0  0  0  0  0  0  0  0
   59.8460   33.6990   50.8500 C   0  0  0  0  0  0  0  0  0  0  0  0
   60.1450   33.7720   49.4880 C   0  0  0  0  0  0  0  0  0  0  0  0
   61.4700   33.5950   49.0350 C   0  0  0  0  0  0  0  0  0  0  0  0
   57.6940   31.9020   45.9810 C   0  0  0  0  0  0  0  0  0  0  0  0
   56.9680   32.5360   45.1720 O   0  0  0  0  0  0  0  0  0  0  0  0
   57.8310   30.4810   46.3800 N   0  0  0  0  0  0  0  0  0  0  0  0
   57.4610   29.1870   45.8250 C   0  0  1  0  0  0  0  0  0  0  0  0
   56.4830   29.3640   44.6990 C   0  0  0  0  0  0  0  0  0  0  0  0
   56.8730   29.8210   43.5920 O   0  0  0  0  0  0  0  0  0  0  0  0
   55.1540   28.9900   44.8560 O   0  0  0  0  0  0  0  0  0  0  0  0
   55.1530   27.1360   45.9850 H   0  0  0  0  0  0  0  0  0  0  0  0
   59.6542   26.6258   45.0205 H   0  0  0  0  0  0  0  0  0  0  0  0
   60.8070   28.6441   44.8980 H   0  0  0  0  0  0  0  0  0  0  0  0
   59.8408   30.1326   44.5656 H   0  0  0  0  0  0  0  0  0  0  0  0
   58.8294   30.6610   48.3635 H   0  0  0  0  0  0  0  0  0  0  0  0
   58.7179   33.0339   47.6937 H   0  0  0  0  0  0  0  0  0  0  0  0
   63.4161   33.6071   46.2046 H   0  0  0  0  0  0  0  0  0  0  0  0
   65.1947   33.2057   47.8966 H   0  0  0  0  0  0  0  0  0  0  0  0
   64.6180   33.0402   50.3119 H   0  0  0  0  0  0  0  0  0  0  0  0
   62.9712   33.1157   52.0957 H   0  0  0  0  0  0  0  0  0  0  0  0
   60.6133   33.3983   52.8519 H   0  0  0  0  0  0  0  0  0  0  0  0
   58.8083   33.8306   51.1904 H   0  0  0  0  0  0  0  0  0  0  0  0
   59.3419   33.9689   48.7626 H   0  0  0  0  0  0  0  0  0  0  0  0
   56.9709   28.5695   46.5921 H   0  0  0  0  0  0  0  0  0  0  0  0
  1  2  1  0
  2  3  2  0
  2  4  1  0
  4  5  1  0
  5  6  2  3
  6  7  1  0
  7  8  1  0
  8  9  1  0
  9 10  1  0
 10 11  1  0
 11 12  1  0
 12 13  2  0
 12 14  1  0
 14 15  2  0
 15 16  1  0
 16 17  2  0
 17 18  1  0
 18 19  2  0
 19 20  1  0
 20 21  2  0
 21 22  1  0
 22 23  2  0
 10 24  1  0
 24 25  2  0
 24 26  1  0
 26 27  1  0
 27 28  1  0
 28 29  2  0
 28 30  1  0
 27  6  1  0
 26  9  1  0
 23 14  1  0
 23 18  1  0
  1 31  1  0
  5 32  1  0
  7 33  1  0
  7 34  1  0
  9 35  1  1
 10 36  1  1
 15 37  1  0
 16 38  1  0
 17 39  1  0
 19 40  1  0
 20 41  1  0
 21 42  1  0
 22 43  1  0
 27 44  1  1
M  CHG  3   1  -1  11  -1  30  -1
M  END
>  <UniqueID>  (15) 
14

>  <SMILES>  (15) 
[NH-]C(=O)OC=C1CS[C@H]2[C@@H]([N-]C(=O)c3cccc4ccccc34)C(=O)N2C1C(=O)[O-]

>  <Energy>  (15) 
92.9521102198947

>  <Genealogy>  (15) 
[NH-]C(=O)OC=C1CSC2C([N-]C(=O)c3cccc4ccccc34)C(=O)N2C1C(=O)[O-] (protonated)
[NH-]C(=O)OC=C1CS[C@H]2[C@@H]([N-]C(=O)c3cccc4ccccc34)C(=O)N2C1C(=O)[O-] (chirality)
[NH-]C(=O)OC=C1CS[C@H]2[C@@H]([N-]C(=O)c3cccc4ccccc34)C(=O)N2C1C(=O)[O-] (3D coordinates assigned)
[NH-]C(=O)OC=C1CS[C@H]2[C@@H]([N-]C(=O)c3cccc4ccccc34)C(=O)N2C1C(=O)[O-] (nonaromatic ring conformer: 92.9521102198947 kcal/mol)

>  <smiles>  (15) 
NC(=O)OC=C1CSC2C(NC(=O)c3cccc4ccccc34)C(=O)N2C1C(=O)O

>  <score_type>  (15) 
oracle

>  <origin>  (15) 
adg

>  <m_score__min__energy>  (15) 
-14.75

>  <m_primary>  (15) 
energy

$$$$
15:0
     RDKit          3D

 26 27  0  0  0  0  0  0  0  0999 V2000
   55.3491   23.8892   46.1687 H   0  0  0  0  0  0  0  0  0  0  0  0
   55.6570   24.9320   46.0020 C   0  0  0  0  0  0  0  0  0  0  0  0
   54.8260   25.9950   45.9940 N   0  0  0  0  0  0  0  0  0  0  0  0
   55.5500   27.0790   45.7730 N   0  0  0  0  0  0  0  0  0  0  0  0
   55.1420   28.0350   45.6760 H   0  0  0  0  0  0  0  0  0  0  0  0
   56.8400   26.7160   45.6420 C   0  0  0  0  0  0  0  0  0  0  0  0
   57.8310   27.5150   45.3740 N   0  0  0  0  0  0  0  0  0  0  0  0
   57.8290   28.9430   45.5110 C   0  0  0  0  0  0  0  0  0  0  0  0
   57.2790   29.7240   44.4860 C   0  0  0  0  0  0  0  0  0  0  0  0
   56.8248   29.2364   43.6108 H   0  0  0  0  0  0  0  0  0  0  0  0
   57.3040   31.1190   44.5690 C   0  0  0  0  0  0  0  0  0  0  0  0
   56.8504   31.7243   43.7704 H   0  0  0  0  0  0  0  0  0  0  0  0
   57.9060   31.7490   45.6680 C   0  0  0  0  0  0  0  0  0  0  0  0
   57.9240   33.5060   45.7810 S   0  0  0  0  0  0  0  0  0  0  0  0
   58.0850   33.9230   47.2170 O   0  0  0  0  0  0  0  0  0  0  0  0
   56.6290   34.0640   45.2600 O   0  0  0  0  0  0  0  0  0  0  0  0
   59.2770   34.1450   44.8200 C   0  0  0  0  0  0  0  0  0  0  0  0
   60.0627   34.5161   45.4945 H   0  0  0  0  0  0  0  0  0  0  0  0
   59.6861   33.3450   44.1855 H   0  0  0  0  0  0  0  0  0  0  0  0
   58.9190   34.9692   44.1855 H   0  0  0  0  0  0  0  0  0  0  0  0
   58.4810   30.9720   46.6810 C   0  0  0  0  0  0  0  0  0  0  0  0
   58.9532   31.4611   47.5458 H   0  0  0  0  0  0  0  0  0  0  0  0
   58.4570   29.5760   46.5970 C   0  0  0  0  0  0  0  0  0  0  0  0
   58.9315   28.9714   47.3840 H   0  0  0  0  0  0  0  0  0  0  0  0
   56.9540   25.3510   45.7690 C   0  0  0  0  0  0  0  0  0  0  0  0
   57.8639   24.7366   45.7011 H   0  0  0  0  0  0  0  0  0  0  0  0
  1  2  1  0
  2  3  1  0
  3  4  1  0
  4  5  1  0
  4  6  1  0
  6  7  2  0
  7  8  1  0
  8  9  2  0
  9 10  1  0
  9 11  1  0
 11 12  1  0
 11 13  2  0
 13 14  1  0
 14 15  2  0
 14 16  2  0
 14 17  1  0
 17 18  1  0
 17 19  1  0
 17 20  1  0
 13 21  1  0
 21 22  1  0
 21 23  2  0
 23 24  1  0
  6 25  1  0
 25 26  1  0
 25  2  2  0
 23  8  1  0
M  CHG  1   3  -1
M  END
>  <UniqueID>  (16) 
15

>  <SMILES>  (16) 
CS(=O)(=O)c1ccc(/N=c2/cc[n-][nH]2)cc1

>  <Energy>  (16) 
61.302475628279836

>  <Genealogy>  (16) 
CS(=O)(=O)c1ccc(N=c2cc[n-][nH]2)cc1 (protonated)
CS(=O)(=O)c1ccc(/N=c2/cc[n-][nH]2)cc1 (cis-trans isomerization)
CS(=O)(=O)c1ccc(/N=c2/cc[n-][nH]2)cc1 (3D coordinates assigned)
CS(=O)(=O)c1ccc(/N=c2/cc[n-][nH]2)cc1 (optimized conformer: 61.302475628279836 kcal/mol)

>  <smiles>  (16) 
CS(=O)(=O)c1ccc(N=c2cc[nH][nH]2)cc1

>  <score_type>  (16) 
oracle

>  <origin>  (16) 
adg

>  <m_score__min__energy>  (16) 
-9.2599999999999998

>  <m_primary>  (16) 
energy

$$$$
16:0
     RDKit          3D

 41 44  0  0  1  0  0  0  0  0999 V2000
   59.3770   28.7060   44.2610 C   0  0  0  0  0  0  0  0  0  0  0  0
   59.3260   28.0540   45.5710 C   0  0  0  0  0  0  0  0  0  0  0  0
   58.8970   26.7120   45.5740 C   0  0  0  0  0  0  0  0  0  0  0  0
   58.8560   25.9610   46.7180 C   0  0  0  0  0  0  0  0  0  0  0  0
   59.2540   26.5680   47.8820 C   0  0  0  0  0  0  0  0  0  0  0  0
   59.6740   27.8790   47.8870 C   0  0  0  0  0  0  0  0  0  0  0  0
   59.7240   28.6700   46.7330 C   0  0  0  0  0  0  0  0  0  0  0  0
   60.0940   30.0580   46.8780 C   0  0  0  0  0  0  0  0  0  0  0  0
   61.3220   30.5390   47.2550 C   0  0  0  0  0  0  0  0  0  0  0  0
   61.6070   31.9180   47.3010 C   0  0  0  0  0  0  0  0  0  0  0  0
   62.7370   32.3320   47.6490 O   0  0  0  0  0  0  0  0  0  0  0  0
   60.6410   32.8420   46.9610 C   0  0  0  0  0  0  0  0  0  0  0  0
   60.9060   34.1950   47.0020 C   0  0  0  0  0  0  0  0  0  0  0  0
   59.9200   35.0980   46.6580 C   0  0  0  0  0  0  0  0  0  0  0  0
   58.6890   34.6010   46.2800 C   0  0  0  0  0  0  0  0  0  0  0  0
   58.4400   33.2390   46.2450 C   0  0  0  0  0  0  0  0  0  0  0  0
   57.1400   32.8070   45.8430 N   0  0  0  0  0  0  0  0  0  0  0  0
   57.0930   32.0140   44.8240 C   0  0  0  0  0  0  0  0  0  0  0  0
   57.6790   32.4400   43.6360 C   0  0  0  0  0  0  0  0  0  0  0  0
   57.6250   31.5920   42.5540 C   0  0  0  0  0  0  0  0  0  0  0  0
   57.0210   30.3910   42.6650 N   0  0  0  0  0  0  0  0  0  0  0  0
   56.4520   29.9720   43.8090 C   0  0  0  0  0  0  0  0  0  0  0  0
   56.5050   30.8010   44.8620 N   0  0  0  0  0  0  0  0  0  0  0  0
   59.4170   32.3220   46.5870 C   0  0  0  0  0  0  0  0  0  0  0  0
   59.1660   31.0000   46.5510 N   0  0  0  0  0  0  0  0  0  0  0  0
   59.4621   29.7943   44.3962 H   0  0  0  0  0  0  0  0  0  0  0  0
   60.2490   28.3367   43.7013 H   0  0  0  0  0  0  0  0  0  0  0  0
   58.4582   28.4768   43.7013 H   0  0  0  0  0  0  0  0  0  0  0  0
   58.5844   26.2520   44.6250 H   0  0  0  0  0  0  0  0  0  0  0  0
   58.5179   24.9143   46.7043 H   0  0  0  0  0  0  0  0  0  0  0  0
   59.2373   25.9998   48.8237 H   0  0  0  0  0  0  0  0  0  0  0  0
   59.9850   28.3261   48.8427 H   0  0  0  0  0  0  0  0  0  0  0  0
   62.1110   29.8238   47.5308 H   0  0  0  0  0  0  0  0  0  0  0  0
   61.9000   34.5534   47.3079 H   0  0  0  0  0  0  0  0  0  0  0  0
   60.1097   36.1812   46.6844 H   0  0  0  0  0  0  0  0  0  0  0  0
   57.8885   35.3018   46.0005 H   0  0  0  0  0  0  0  0  0  0  0  0
   58.1691   33.4222   43.5644 H   0  0  0  0  0  0  0  0  0  0  0  0
   58.0751   31.8939   41.5968 H   0  0  0  0  0  0  0  0  0  0  0  0
   56.9820   29.7510   41.8440 H   0  0  0  0  0  0  0  0  0  0  0  0
   55.9629   28.9892   43.8784 H   0  0  0  0  0  0  0  0  0  0  0  0
   58.1880   30.7480   46.2610 H   0  0  0  0  0  0  0  0  0  0  0  0
  1  2  1  0
  2  3  2  0
  3  4  1  0
  4  5  2  0
  5  6  1  0
  6  7  2  0
  7  8  1  0
  8  9  2  0
  9 10  1  0
 10 11  2  0
 10 12  1  0
 12 13  2  0
 13 14  1  0
 14 15  2  0
 15 16  1  0
 16 17  1  0
 17 18  2  0
 18 19  1  0
 19 20  2  0
 20 21  1  0
 21 22  1  0
 22 23  2  0
 16 24  2  0
 24 25  1  0
  7  2  1  0
 25  8  1  0
 24 12  1  0
 23 18  1  0
  1 26  1  0
  1 27  1  0
  1 28  1  0
  3 29  1  0
  4 30  1  0
  5 31  1  0
  6 32  1  0
  9 33  1  0
 13 34  1  0
 14 35  1  0
 15 36  1  0
 19 37  1  0
 20 38  1  0
 21 39  1  0
 22 40  1  0
 25 41  1  0
M  END
>  <smiles>  (17) 
Cc1ccccc1-c1cc(=O)c2cccc(N=c3cc[nH]cn3)c2[nH]1

>  <score_type>  (17) 
oracle

>  <origin>  (17) 
adg

>  <m_score__min__energy>  (17) 
-8.2100000000000009

>  <m_primary>  (17) 
energy

$$$$
17:0
     RDKit          3D

 35 36  0  0  0  0  0  0  0  0999 V2000
   55.1460   26.3610   46.0050 N   0  0  0  0  0  0  0  0  0  0  0  0
   56.8570   26.5860   45.9180 S   0  0  0  0  0  0  0  0  0  0  0  0
   57.4220   25.7290   44.8180 O   0  0  0  0  0  0  0  0  0  0  0  0
   57.4860   26.1740   47.2200 O   0  0  0  0  0  0  0  0  0  0  0  0
   57.2080   28.2800   45.5950 C   0  0  0  0  0  0  0  0  0  0  0  0
   56.3770   29.0220   44.7440 C   0  0  0  0  0  0  0  0  0  0  0  0
   56.6620   30.3650   44.4800 C   0  0  0  0  0  0  0  0  0  0  0  0
   57.7880   30.9770   45.0450 C   0  0  0  0  0  0  0  0  0  0  0  0
   58.0300   32.3640   44.7680 N   0  0  0  0  0  0  0  0  0  0  0  0
   57.5470   33.4770   45.5300 C   0  0  0  0  0  0  0  0  0  0  0  0
   56.9850   34.4530   44.9640 O   0  0  0  0  0  0  0  0  0  0  0  0
   57.6680   33.4530   47.0240 C   0  0  0  0  0  0  0  0  0  0  0  0
   58.7970   34.2950   47.4730 N   0  0  0  0  0  0  0  0  0  0  0  0
   59.6830   34.6640   46.3420 C   0  0  0  0  0  0  0  0  0  0  0  0
   60.9750   33.8270   46.3260 C   0  0  0  0  0  0  0  0  0  0  0  0
   61.7490   33.9560   47.5100 O   0  0  0  0  0  0  0  0  0  0  0  0
   60.9740   34.1980   48.6770 C   0  0  0  0  0  0  0  0  0  0  0  0
   59.5370   33.6580   48.5890 C   0  0  0  0  0  0  0  0  0  0  0  0
   58.6110   30.2350   45.9120 C   0  0  0  0  0  0  0  0  0  0  0  0
   58.3260   28.8920   46.1760 C   0  0  0  0  0  0  0  0  0  0  0  0
   54.7800   27.0670   46.6830 H   0  0  0  0  0  0  0  0  0  0  0  0
   55.4988   28.5465   44.2830 H   0  0  0  0  0  0  0  0  0  0  0  0
   55.9969   30.9454   43.8236 H   0  0  0  0  0  0  0  0  0  0  0  0
   56.7359   33.8333   47.4674 H   0  0  0  0  0  0  0  0  0  0  0  0
   57.8507   32.4173   47.3463 H   0  0  0  0  0  0  0  0  0  0  0  0
   59.1417   34.5001   45.3985 H   0  0  0  0  0  0  0  0  0  0  0  0
   59.9638   35.7209   46.4606 H   0  0  0  0  0  0  0  0  0  0  0  0
   60.7025   32.7685   46.2019 H   0  0  0  0  0  0  0  0  0  0  0  0
   61.5914   34.1997   45.4946 H   0  0  0  0  0  0  0  0  0  0  0  0
   61.4736   33.7176   49.5312 H   0  0  0  0  0  0  0  0  0  0  0  0
   60.9002   35.2894   48.7927 H   0  0  0  0  0  0  0  0  0  0  0  0
   59.5707   32.5710   48.4240 H   0  0  0  0  0  0  0  0  0  0  0  0
   59.0176   33.8891   49.5307 H   0  0  0  0  0  0  0  0  0  0  0  0
   59.4819   30.7134   46.3839 H   0  0  0  0  0  0  0  0  0  0  0  0
   58.9824   28.3136   46.8427 H   0  0  0  0  0  0  0  0  0  0  0  0
  1  2  1  0
  2  3  2  0
  2  4  2  0
  2  5  1  0
  5  6  2  0
  6  7  1  0
  7  8  2  0
  8  9  1  0
  9 10  1  0
 10 11  2  0
 10 12  1  0
 12 13  1  0
 13 14  1  0
 14 15  1  0
 15 16  1  0
 16 17  1  0
 17 18  1  0
  8 19  1  0
 19 20  2  0
 20  5  1  0
 18 13  1  0
  1 21  1  0
  6 22  1  0
  7 23  1  0
 12 24  1  0
 12 25  1  0
 14 26  1  0
 14 27  1  0
 15 28  1  0
 15 29  1  0
 17 30  1  0
 17 31  1  0
 18 32  1  0
 18 33  1  0
 19 34  1  0
 20 35  1  0
M  CHG  2   1  -1   9  -1
M  END
>  <UniqueID>  (18) 
16

>  <SMILES>  (18) 
[NH-]S(=O)(=O)c1ccc([N-]C(=O)CN2CCOCC2)cc1

>  <Energy>  (18) 
50.94571004044741

>  <Genealogy>  (18) 
[NH-]S(=O)(=O)c1ccc([N-]C(=O)CN2CCOCC2)cc1 (protonated)
[NH-]S(=O)(=O)c1ccc([N-]C(=O)CN2CCOCC2)cc1 (3D coordinates assigned)
[NH-]S(=O)(=O)c1ccc([N-]C(=O)CN2CCOCC2)cc1 (nonaromatic ring conformer: 50.94571004044741 kcal/mol)

>  <smiles>  (18) 
NS(=O)(=O)c1ccc(NC(=O)CN2CCOCC2)cc1

>  <score_type>  (18) 
oracle

>  <origin>  (18) 
adg

>  <m_score__min__energy>  (18) 
-10.57

>  <m_primary>  (18) 
energy

$$$$
18:0
     RDKit          3D

 40 43  0  0  0  0  0  0  0  0999 V2000
   56.2390   29.9330   45.1960 O   0  0  0  0  0  0  0  0  0  0  0  0
   57.3630   30.2840   44.7430 C   0  0  0  0  0  0  0  0  0  0  0  0
   58.0850   29.3940   43.8750 N   0  0  0  0  0  0  0  0  0  0  0  0
   57.6130   28.0440   43.5770 C   0  0  0  0  0  0  0  0  0  0  0  0
   57.5280   27.2400   44.8360 C   0  0  0  0  0  0  0  0  0  0  0  0
   58.5490   26.4990   45.3940 C   0  0  0  0  0  0  0  0  0  0  0  0
   58.0220   25.9530   46.5450 C   0  0  0  0  0  0  0  0  0  0  0  0
   56.7170   26.3960   46.6170 C   0  0  0  0  0  0  0  0  0  0  0  0
   56.4520   27.1630   45.5850 O   0  0  0  0  0  0  0  0  0  0  0  0
   57.9060   31.6160   45.1020 C   0  0  0  0  0  0  0  0  0  0  0  0
   57.3940   32.7890   44.5240 C   0  0  0  0  0  0  0  0  0  0  0  0
   57.9230   34.0370   44.8680 C   0  0  0  0  0  0  0  0  0  0  0  0
   58.9680   34.1330   45.7910 C   0  0  0  0  0  0  0  0  0  0  0  0
   59.6440   35.7180   46.1400 Cl  0  0  0  0  0  0  0  0  0  0  0  0
   59.4930   32.9670   46.3770 C   0  0  0  0  0  0  0  0  0  0  0  0
   60.5620   33.0450   47.3330 N   0  0  0  0  0  0  0  0  0  0  0  0
   61.9300   33.3640   47.0600 C   0  0  0  0  0  0  0  0  0  0  0  0
   62.3350   33.9010   45.9960 O   0  0  0  0  0  0  0  0  0  0  0  0
   62.7700   32.9790   48.1890 C   0  0  0  0  0  0  0  0  0  0  0  0
   64.1440   33.1000   48.3840 C   0  0  0  0  0  0  0  0  0  0  0  0
   64.6850   32.6150   49.5890 C   0  0  0  0  0  0  0  0  0  0  0  0
   63.8490   32.0220   50.5610 C   0  0  0  0  0  0  0  0  0  0  0  0
   62.4650   31.9090   50.3380 C   0  0  0  0  0  0  0  0  0  0  0  0
   61.9540   32.4020   49.1390 C   0  0  0  0  0  0  0  0  0  0  0  0
   60.5920   32.4140   48.6180 C   0  0  0  0  0  0  0  0  0  0  0  0
   59.5900   31.8920   49.1770 O   0  0  0  0  0  0  0  0  0  0  0  0
   58.9670   31.7160   46.0200 C   0  0  0  0  0  0  0  0  0  0  0  0
   58.9450   29.7250   43.3850 H   0  0  0  0  0  0  0  0  0  0  0  0
   56.6170   28.1007   43.1135 H   0  0  0  0  0  0  0  0  0  0  0  0
   58.3196   27.5594   42.8871 H   0  0  0  0  0  0  0  0  0  0  0  0
   59.5691   26.3707   45.0029 H   0  0  0  0  0  0  0  0  0  0  0  0
   58.5377   25.2967   47.2614 H   0  0  0  0  0  0  0  0  0  0  0  0
   56.0063   26.1445   47.4180 H   0  0  0  0  0  0  0  0  0  0  0  0
   56.5717   32.7258   43.7961 H   0  0  0  0  0  0  0  0  0  0  0  0
   57.5139   34.9491   44.4091 H   0  0  0  0  0  0  0  0  0  0  0  0
   64.7865   33.5607   47.6192 H   0  0  0  0  0  0  0  0  0  0  0  0
   65.7659   32.6982   49.7753 H   0  0  0  0  0  0  0  0  0  0  0  0
   64.2835   31.6459   51.4990 H   0  0  0  0  0  0  0  0  0  0  0  0
   61.8061   31.4457   51.0871 H   0  0  0  0  0  0  0  0  0  0  0  0
   59.3896   30.8024   46.4635 H   0  0  0  0  0  0  0  0  0  0  0  0
  1  2  2  0
  2  3  1  0
  3  4  1  0
  4  5  1  0
  5  6  2  0
  6  7  1  0
  7  8  2  0
  8  9  1  0
  2 10  1  0
 10 11  2  0
 11 12  1  0
 12 13  2  0
 13 14  1  0
 13 15  1  0
 15 16  1  0
 16 17  1  0
 17 18  2  0
 17 19  1  0
 19 20  2  0
 20 21  1  0
 21 22  2  0
 22 23  1  0
 23 24  2  0
 24 25  1  0
 25 26  2  0
 15 27  2  0
  9  5  1  0
 27 10  1  0
 25 16  1  0
 24 19  1  0
  3 28  1  0
  4 29  1  0
  4 30  1  0
  6 31  1  0
  7 32  1  0
  8 33  1  0
 11 34  1  0
 12 35  1  0
 20 36  1  0
 21 37  1  0
 22 38  1  0
 23 39  1  0
 27 40  1  0
M  END
>  <UniqueID>  (19) 
17

>  <SMILES>  (19) 
O=C(NCc1ccco1)c1ccc(Cl)c(N2C(=O)c3ccccc3C2=O)c1

>  <Energy>  (19) 
109.05672711051788

>  <Genealogy>  (19) 
O=C(NCc1ccco1)c1ccc(Cl)c(N2C(=O)c3ccccc3C2=O)c1 (3D coordinates assigned)
O=C(NCc1ccco1)c1ccc(Cl)c(N2C(=O)c3ccccc3C2=O)c1 (nonaromatic ring conformer: 109.05672711051788 kcal/mol)

>  <smiles>  (19) 
O=C(NCc1ccco1)c1ccc(Cl)c(N2C(=O)c3ccccc3C2=O)c1

>  <score_type>  (19) 
oracle

>  <origin>  (19) 
adg

>  <m_score__min__energy>  (19) 
-8.9000000000000004

>  <m_primary>  (19) 
energy

$$$$
19:0
     RDKit          3D

 83 87  0  0  0  0  0  0  0  0999 V2000
   61.0890   26.3440   46.3550 C   0  0  0  0  0  0  0  0  0  0  0  0
   59.9990   25.7570   47.0520 O   0  0  0  0  0  0  0  0  0  0  0  0
   58.6760   25.7270   46.5820 C   0  0  0  0  0  0  0  0  0  0  0  0
   58.0330   24.5180   46.2440 C   0  0  0  0  0  0  0  0  0  0  0  0
   56.7090   24.5220   45.8000 C   0  0  0  0  0  0  0  0  0  0  0  0
   56.0150   25.7260   45.6760 C   0  0  0  0  0  0  0  0  0  0  0  0
   56.6410   26.9300   46.0040 C   0  0  0  0  0  0  0  0  0  0  0  0
   57.9660   26.9390   46.4690 C   0  0  0  0  0  0  0  0  0  0  0  0
   58.6060   28.2190   46.8290 C   0  0  0  0  0  0  0  0  0  0  0  0
   58.8980   28.5770   48.0960 N   0  0  0  0  0  0  0  0  0  0  0  0
   59.4130   29.7990   48.0620 N   0  0  0  0  0  0  0  0  0  0  0  0
   59.8100   30.5320   49.2370 C   0  0  0  0  0  0  0  0  0  0  0  0
   61.1500   30.5370   49.6390 C   0  0  0  0  0  0  0  0  0  0  0  0
   61.5560   31.2330   50.7910 C   0  0  0  0  0  0  0  0  0  0  0  0
   62.8920   31.2530   51.2160 O   0  0  0  0  0  0  0  0  0  0  0  0
   63.7340   30.1060   51.2990 C   0  0  0  0  0  0  0  0  0  0  0  0
   60.6040   31.9190   51.5610 C   0  0  0  0  0  0  0  0  0  0  0  0
   61.0630   32.5770   52.7140 O   0  0  0  0  0  0  0  0  0  0  0  0
   61.4260   31.9260   53.9340 C   0  0  0  0  0  0  0  0  0  0  0  0
   59.2460   31.9330   51.1600 C   0  0  0  0  0  0  0  0  0  0  0  0
   58.3100   32.6590   51.9110 O   0  0  0  0  0  0  0  0  0  0  0  0
   58.4970   33.9910   52.3810 C   0  0  0  0  0  0  0  0  0  0  0  0
   58.8630   31.2340   50.0000 C   0  0  0  0  0  0  0  0  0  0  0  0
   59.4590   30.2380   46.7870 C   0  0  0  0  0  0  0  0  0  0  0  0
   58.9500   29.2520   45.9690 C   0  0  0  0  0  0  0  0  0  0  0  0
   58.6560   29.3880   44.5030 C   0  0  0  0  0  0  0  0  0  0  0  0
   58.4570   30.8080   44.1670 N   0  0  0  0  0  0  0  0  0  0  0  0
   57.0540   31.2230   44.3240 C   0  0  0  0  0  0  0  0  0  0  0  0
   56.9420   32.6510   44.8830 C   0  0  0  0  0  0  0  0  0  0  0  0
   58.1300   33.0070   45.6910 N   0  0  0  0  0  0  0  0  0  0  0  0
   58.9960   33.9910   44.9910 C   0  0  0  0  0  0  0  0  0  0  0  0
   59.9490   34.7480   45.9370 C   0  0  0  0  0  0  0  0  0  0  0  0
   60.1370   34.0090   47.1890 N   0  0  0  0  0  0  0  0  0  0  0  0
   61.4540   33.7980   47.7280 C   0  0  0  0  0  0  0  0  0  0  0  0
   62.4670   33.2420   46.9280 C   0  0  0  0  0  0  0  0  0  0  0  0
   63.7500   33.0500   47.4490 C   0  0  0  0  0  0  0  0  0  0  0  0
   64.0320   33.4000   48.7730 C   0  0  0  0  0  0  0  0  0  0  0  0
   63.0310   33.9490   49.5860 C   0  0  0  0  0  0  0  0  0  0  0  0
   63.3380   34.3470   50.9990 C   0  0  0  0  0  0  0  0  0  0  0  0
   61.7470   34.1580   49.0560 C   0  0  0  0  0  0  0  0  0  0  0  0
   58.9540   33.5610   47.9350 C   0  0  0  0  0  0  0  0  0  0  0  0
   57.7270   33.5080   47.0210 C   0  0  0  0  0  0  0  0  0  0  0  0
   61.8183   26.7367   47.0788 H   0  0  0  0  0  0  0  0  0  0  0  0
   61.5722   25.5841   45.7233 H   0  0  0  0  0  0  0  0  0  0  0  0
   60.7205   27.1656   45.7233 H   0  0  0  0  0  0  0  0  0  0  0  0
   58.5777   23.5663   46.3307 H   0  0  0  0  0  0  0  0  0  0  0  0
   56.2121   23.5737   45.5474 H   0  0  0  0  0  0  0  0  0  0  0  0
   54.9743   25.7266   45.3197 H   0  0  0  0  0  0  0  0  0  0  0  0
   56.0928   27.8777   45.8975 H   0  0  0  0  0  0  0  0  0  0  0  0
   61.8963   29.9887   49.0454 H   0  0  0  0  0  0  0  0  0  0  0  0
   63.9149   29.8596   52.3557 H   0  0  0  0  0  0  0  0  0  0  0  0
   63.2445   29.2551   50.8027 H   0  0  0  0  0  0  0  0  0  0  0  0
   64.6925   30.3181   50.8027 H   0  0  0  0  0  0  0  0  0  0  0  0
   61.0881   32.5320   54.7876 H   0  0  0  0  0  0  0  0  0  0  0  0
   60.9502   30.9352   53.9765 H   0  0  0  0  0  0  0  0  0  0  0  0
   62.5190   31.8100   53.9765 H   0  0  0  0  0  0  0  0  0  0  0  0
   58.4976   33.9950   53.4810 H   0  0  0  0  0  0  0  0  0  0  0  0
   59.4583   34.3783   52.0124 H   0  0  0  0  0  0  0  0  0  0  0  0
   57.6795   34.6280   52.0124 H   0  0  0  0  0  0  0  0  0  0  0  0
   57.8084   31.2377   49.6871 H   0  0  0  0  0  0  0  0  0  0  0  0
   59.8382   31.2163   46.4565 H   0  0  0  0  0  0  0  0  0  0  0  0
   59.5008   28.9896   43.9220 H   0  0  0  0  0  0  0  0  0  0  0  0
   57.7429   28.8245   44.2605 H   0  0  0  0  0  0  0  0  0  0  0  0
   59.0140   31.3750   44.8530 H   0  0  0  0  0  0  0  0  0  0  0  0
   56.5590   31.1847   43.3424 H   0  0  0  0  0  0  0  0  0  0  0  0
   56.5715   30.5374   45.0361 H   0  0  0  0  0  0  0  0  0  0  0  0
   56.8537   33.3580   44.0449 H   0  0  0  0  0  0  0  0  0  0  0  0
   56.0540   32.7018   45.5302 H   0  0  0  0  0  0  0  0  0  0  0  0
   59.5994   33.4551   44.2435 H   0  0  0  0  0  0  0  0  0  0  0  0
   58.3329   34.7384   44.5309 H   0  0  0  0  0  0  0  0  0  0  0  0
   60.9236   34.8730   45.4425 H   0  0  0  0  0  0  0  0  0  0  0  0
   59.5085   35.7287   46.1698 H   0  0  0  0  0  0  0  0  0  0  0  0
   62.2495   32.9569   45.8881 H   0  0  0  0  0  0  0  0  0  0  0  0
   64.5405   32.6220   46.8150 H   0  0  0  0  0  0  0  0  0  0  0  0
   65.0428   33.2440   49.1779 H   0  0  0  0  0  0  0  0  0  0  0  0
   62.8163   33.6706   51.6920 H   0  0  0  0  0  0  0  0  0  0  0  0
   64.4226   34.2826   51.1707 H   0  0  0  0  0  0  0  0  0  0  0  0
   63.0003   35.3797   51.1707 H   0  0  0  0  0  0  0  0  0  0  0  0
   60.9640   34.6070   49.6847 H   0  0  0  0  0  0  0  0  0  0  0  0
   59.1434   32.5576   48.3440 H   0  0  0  0  0  0  0  0  0  0  0  0
   58.7582   34.2739   48.7495 H   0  0  0  0  0  0  0  0  0  0  0  0
   56.9743   32.8335   47.4551 H   0  0  0  0  0  0  0  0  0  0  0  0
   57.2986   34.5161   46.9206 H   0  0  0  0  0  0  0  0  0  0  0  0
  1  2  1  0
  2  3  1  0
  3  4  2  0
  4  5  1  0
  5  6  2  0
  6  7  1  0
  7  8  2  0
  8  9  1  0
  9 10  2  0
 10 11  1  0
 11 12  1  0
 12 13  2  0
 13 14  1  0
 14 15  1  0
 15 16  1  0
 14 17  2  0
 17 18  1  0
 18 19  1  0
 17 20  1  0
 20 21  1  0
 21 22  1  0
 20 23  2  0
 11 24  1  0
 24 25  2  0
 25 26  1  0
 26 27  1  0
 27 28  1  0
 28 29  1  0
 29 30  1  0
 30 31  1  0
 31 32  1  0
 32 33  1  0
 33 34  1  0
 34 35  2  0
 35 36  1  0
 36 37  2  0
 37 38  1  0
 38 39  1  0
 38 40  2  0
 33 41  1  0
 41 42  1  0
  8  3  1  0
 25  9  1  0
 42 30  1  0
 23 12  1  0
 40 34  1  0
  1 43  1  0
  1 44  1  0
  1 45  1  0
  4 46  1  0
  5 47  1  0
  6 48  1  0
  7 49  1  0
 13 50  1  0
 16 51  1  0
 16 52  1  0
 16 53  1  0
 19 54  1  0
 19 55  1  0
 19 56  1  0
 22 57  1  0
 22 58  1  0
 22 59  1  0
 23 60  1  0
 24 61  1  0
 26 62  1  0
 26 63  1  0
 27 64  1  0
 28 65  1  0
 28 66  1  0
 29 67  1  0
 29 68  1  0
 31 69  1  0
 31 70  1  0
 32 71  1  0
 32 72  1  0
 35 73  1  0
 36 74  1  0
 37 75  1  0
 39 76  1  0
 39 77  1  0
 39 78  1  0
 40 79  1  0
 41 80  1  0
 41 81  1  0
 42 82  1  0
 42 83  1  0
M  END
>  <UniqueID>  (20) 
18

>  <SMILES>  (20) 
COc1ccccc1-c1nn(-c2cc(OC)c(OC)c(OC)c2)cc1CNCCN1CCN(c2cccc(C)c2)CC1

>  <Energy>  (20) 
137.12643469403335

>  <Genealogy>  (20) 
COc1ccccc1-c1nn(-c2cc(OC)c(OC)c(OC)c2)cc1CNCCN1CCN(c2cccc(C)c2)CC1 (3D coordinates assigned)
COc1ccccc1-c1nn(-c2cc(OC)c(OC)c(OC)c2)cc1CNCCN1CCN(c2cccc(C)c2)CC1 (nonaromatic ring conformer: 137.12643469403335 kcal/mol)

>  <smiles>  (20) 
COc1ccccc1-c1nn(-c2cc(OC)c(OC)c(OC)c2)cc1CNCCN1CCN(c2cccc(C)c2)CC1

>  <score_type>  (20) 
oracle

>  <origin>  (20) 
adg

>  <m_score__min__energy>  (20) 
-9.4800000000000004

>  <m_primary>  (20) 
energy

$$$$
20:0
     RDKit          3D

 43 46  0  0  0  0  0  0  0  0999 V2000
   59.7500   33.0920   49.6870 C   0  0  0  0  0  0  0  0  0  0  0  0
   59.2360   32.8320   48.3450 N   0  0  0  0  0  0  0  0  0  0  0  0
   58.6830   31.6750   47.9120 C   0  0  0  0  0  0  0  0  0  0  0  0
   58.3470   31.7780   46.5630 C   0  0  0  0  0  0  0  0  0  0  0  0
   57.7760   30.7100   45.7210 C   0  0  0  0  0  0  0  0  0  0  0  0
   56.9300   31.0090   44.8350 O   0  0  0  0  0  0  0  0  0  0  0  0
   58.1720   29.3360   45.8870 N   0  0  0  0  0  0  0  0  0  0  0  0
   58.3270   28.4700   44.7130 C   0  0  0  0  0  0  0  0  0  0  0  0
   57.4070   27.2530   44.8450 C   0  0  0  0  0  0  0  0  0  0  0  0
   57.5190   26.6300   46.1750 N   0  0  0  0  0  0  0  0  0  0  0  0
   56.8470   25.3770   46.4200 C   0  0  0  0  0  0  0  0  0  0  0  0
   55.5310   25.2320   46.1010 N   0  0  0  0  0  0  0  0  0  0  0  0
   54.8780   24.0610   46.3200 C   0  0  0  0  0  0  0  0  0  0  0  0
   55.5580   22.9810   46.8790 C   0  0  0  0  0  0  0  0  0  0  0  0
   56.9040   23.1390   47.2000 C   0  0  0  0  0  0  0  0  0  0  0  0
   57.5210   24.3260   46.9660 N   0  0  0  0  0  0  0  0  0  0  0  0
   58.3990   27.2280   47.1930 C   0  0  0  0  0  0  0  0  0  0  0  0
   58.2140   28.7510   47.2360 C   0  0  0  0  0  0  0  0  0  0  0  0
   58.7370   33.0490   46.1750 C   0  0  0  0  0  0  0  0  0  0  0  0
   58.6570   33.7060   44.9460 C   0  0  0  0  0  0  0  0  0  0  0  0
   59.1490   35.0210   44.8670 C   0  0  0  0  0  0  0  0  0  0  0  0
   59.7050   35.6470   46.0030 C   0  0  0  0  0  0  0  0  0  0  0  0
   59.7710   34.9650   47.2310 C   0  0  0  0  0  0  0  0  0  0  0  0
   59.2710   33.6610   47.2840 C   0  0  0  0  0  0  0  0  0  0  0  0
   59.0286   32.7271   50.4330 H   0  0  0  0  0  0  0  0  0  0  0  0
   60.7097   32.5709   49.8194 H   0  0  0  0  0  0  0  0  0  0  0  0
   59.8989   34.1738   49.8194 H   0  0  0  0  0  0  0  0  0  0  0  0
   58.5220   30.7825   48.5345 H   0  0  0  0  0  0  0  0  0  0  0  0
   58.0614   29.0326   43.8059 H   0  0  0  0  0  0  0  0  0  0  0  0
   59.3715   28.1317   44.6449 H   0  0  0  0  0  0  0  0  0  0  0  0
   56.3665   27.5733   44.6874 H   0  0  0  0  0  0  0  0  0  0  0  0
   57.7082   26.5108   44.0911 H   0  0  0  0  0  0  0  0  0  0  0  0
   53.8143   23.9657   46.0565 H   0  0  0  0  0  0  0  0  0  0  0  0
   55.0439   22.0260   47.0625 H   0  0  0  0  0  0  0  0  0  0  0  0
   57.4665   22.3036   47.6424 H   0  0  0  0  0  0  0  0  0  0  0  0
   58.1522   26.8054   48.1782 H   0  0  0  0  0  0  0  0  0  0  0  0
   59.4446   27.0038   46.9353 H   0  0  0  0  0  0  0  0  0  0  0  0
   57.2704   28.9803   47.7528 H   0  0  0  0  0  0  0  0  0  0  0  0
   59.0731   29.1842   47.7692 H   0  0  0  0  0  0  0  0  0  0  0  0
   58.2222   33.2100   44.0657 H   0  0  0  0  0  0  0  0  0  0  0  0
   59.1001   35.5657   43.9126 H   0  0  0  0  0  0  0  0  0  0  0  0
   60.0892   36.6749   45.9274 H   0  0  0  0  0  0  0  0  0  0  0  0
   60.2029   35.4432   48.1225 H   0  0  0  0  0  0  0  0  0  0  0  0
  1  2  1  0
  2  3  1  0
  3  4  2  0
  4  5  1  0
  5  6  2  0
  5  7  1  0
  7  8  1  0
  8  9  1  0
  9 10  1  0
 10 11  1  0
 11 12  2  0
 12 13  1  0
 13 14  2  0
 14 15  1  0
 15 16  2  0
 10 17  1  0
 17 18  1  0
  4 19  1  0
 19 20  2  0
 20 21  1  0
 21 22  2  0
 22 23  1  0
 23 24  2  0
 24  2  1  0
 18  7  1  0
 24 19  1  0
 16 11  1  0
  1 25  1  0
  1 26  1  0
  1 27  1  0
  3 28  1  0
  8 29  1  0
  8 30  1  0
  9 31  1  0
  9 32  1  0
 13 33  1  0
 14 34  1  0
 15 35  1  0
 17 36  1  0
 17 37  1  0
 18 38  1  0
 18 39  1  0
 20 40  1  0
 21 41  1  0
 22 42  1  0
 23 43  1  0
M  END
>  <UniqueID>  (21) 
19

>  <SMILES>  (21) 
Cn1cc(C(=O)N2CCN(c3ncccn3)CC2)c2ccccc21

>  <Energy>  (21) 
86.19148852661114

>  <Genealogy>  (21) 
Cn1cc(C(=O)N2CCN(c3ncccn3)CC2)c2ccccc21 (3D coordinates assigned)
Cn1cc(C(=O)N2CCN(c3ncccn3)CC2)c2ccccc21 (nonaromatic ring conformer: 86.19148852661114 kcal/mol)

>  <smiles>  (21) 
Cn1cc(C(=O)N2CCN(c3ncccn3)CC2)c2ccccc21

>  <score_type>  (21) 
oracle

>  <origin>  (21) 
adg

>  <m_score__min__energy>  (21) 
-7.5899999999999999

>  <m_primary>  (21) 
energy

$$$$
21:0
     RDKit          3D

 42 45  0  0  0  0  0  0  0  0999 V2000
   57.7230   25.7530   43.1170 N   0  0  0  0  0  0  0  0  0  0  0  0
   57.3640   24.9250   43.8400 C   0  0  0  0  0  0  0  0  0  0  0  0
   56.9160   23.8900   44.7350 C   0  0  0  0  0  0  0  0  0  0  0  0
   56.4170   24.0950   46.0330 C   0  0  0  0  0  0  0  0  0  0  0  0
   56.3390   25.3440   46.7290 N   0  0  0  0  0  0  0  0  0  0  0  0
   56.5200   26.6290   46.1230 C   0  0  0  0  0  0  0  0  0  0  0  0
   55.5340   27.2330   45.6210 O   0  0  0  0  0  0  0  0  0  0  0  0
   57.8650   27.2440   46.0840 C   0  0  0  0  0  0  0  0  0  0  0  0
   58.7720   26.9490   47.1190 C   0  0  0  0  0  0  0  0  0  0  0  0
   60.0190   27.5750   47.1720 C   0  0  0  0  0  0  0  0  0  0  0  0
   60.3790   28.5010   46.1930 C   0  0  0  0  0  0  0  0  0  0  0  0
   59.4980   28.7900   45.1470 C   0  0  0  0  0  0  0  0  0  0  0  0
   58.2430   28.1650   45.0750 C   0  0  0  0  0  0  0  0  0  0  0  0
   57.3860   28.4280   43.9530 N   0  0  0  0  0  0  0  0  0  0  0  0
   56.4100   29.8570   43.8680 S   0  0  0  0  0  0  0  0  0  0  0  0
   55.2360   29.7230   44.7980 O   0  0  0  0  0  0  0  0  0  0  0  0
   55.9020   30.0430   42.4650 O   0  0  0  0  0  0  0  0  0  0  0  0
   57.3650   31.2450   44.3630 C   0  0  0  0  0  0  0  0  0  0  0  0
   57.7800   31.5120   45.6570 C   0  0  0  0  0  0  0  0  0  0  0  0
   58.5490   32.6790   45.7520 C   0  0  0  0  0  0  0  0  0  0  0  0
   58.7360   33.3220   44.5350 C   0  0  0  0  0  0  0  0  0  0  0  0
   57.9460   32.4410   43.3370 S   0  0  0  0  0  0  0  0  0  0  0  0
   55.7510   22.6520   46.6330 S   0  0  0  0  0  0  0  0  0  0  0  0
   56.1840   21.7680   45.2730 C   0  0  0  0  0  0  0  0  0  0  0  0
   56.7730   22.5550   44.3530 C   0  0  0  0  0  0  0  0  0  0  0  0
   57.0180   21.8420   43.0820 C   0  0  0  0  0  0  0  0  0  0  0  0
   56.5850   20.3890   43.4140 C   0  0  0  0  0  0  0  0  0  0  0  0
   55.9070   20.4010   44.8070 C   0  0  0  0  0  0  0  0  0  0  0  0
   58.4959   26.2183   47.8935 H   0  0  0  0  0  0  0  0  0  0  0  0
   60.7185   27.3375   47.9870 H   0  0  0  0  0  0  0  0  0  0  0  0
   61.3561   29.0038   46.2441 H   0  0  0  0  0  0  0  0  0  0  0  0
   59.7909   29.5143   44.3726 H   0  0  0  0  0  0  0  0  0  0  0  0
   57.2120   27.6790   43.2460 H   0  0  0  0  0  0  0  0  0  0  0  0
   57.5320   30.8751   46.5189 H   0  0  0  0  0  0  0  0  0  0  0  0
   58.9651   33.0508   46.7000 H   0  0  0  0  0  0  0  0  0  0  0  0
   59.3047   34.2507   44.3799 H   0  0  0  0  0  0  0  0  0  0  0  0
   56.4077   22.2612   42.2685 H   0  0  0  0  0  0  0  0  0  0  0  0
   58.0587   21.9176   42.7338 H   0  0  0  0  0  0  0  0  0  0  0  0
   55.8746   20.0281   42.6556 H   0  0  0  0  0  0  0  0  0  0  0  0
   57.4584   19.7203   43.4186 H   0  0  0  0  0  0  0  0  0  0  0  0
   54.8253   20.2183   44.7261 H   0  0  0  0  0  0  0  0  0  0  0  0
   56.2770   19.6186   45.4859 H   0  0  0  0  0  0  0  0  0  0  0  0
  1  2  3  0
  2  3  1  0
  3  4  2  0
  4  5  1  0
  5  6  1  0
  6  7  2  0
  6  8  1  0
  8  9  2  0
  9 10  1  0
 10 11  2  0
 11 12  1  0
 12 13  2  0
 13 14  1  0
 14 15  1  0
 15 16  2  0
 15 17  2  0
 15 18  1  0
 18 19  2  0
 19 20  1  0
 20 21  2  0
 21 22  1  0
  4 23  1  0
 23 24  1  0
 24 25  2  0
 25 26  1  0
 26 27  1  0
 27 28  1  0
 25  3  1  0
 13  8  1  0
 22 18  1  0
 28 24  1  0
  9 29  1  0
 10 30  1  0
 11 31  1  0
 12 32  1  0
 14 33  1  0
 19 34  1  0
 20 35  1  0
 21 36  1  0
 26 37  1  0
 26 38  1  0
 27 39  1  0
 27 40  1  0
 28 41  1  0
 28 42  1  0
M  CHG  1   5  -1
M  END
>  <UniqueID>  (22) 
20

>  <SMILES>  (22) 
N#Cc1c([N-]C(=O)c2ccccc2NS(=O)(=O)c2cccs2)sc2c1CCC2

>  <Energy>  (22) 
126.70199469497491

>  <Genealogy>  (22) 
N#Cc1c([N-]C(=O)c2ccccc2NS(=O)(=O)c2cccs2)sc2c1CCC2 (protonated)
N#Cc1c([N-]C(=O)c2ccccc2NS(=O)(=O)c2cccs2)sc2c1CCC2 (3D coordinates assigned)
N#Cc1c([N-]C(=O)c2ccccc2NS(=O)(=O)c2cccs2)sc2c1CCC2 (nonaromatic ring conformer: 126.70199469497491 kcal/mol)

>  <smiles>  (22) 
N#Cc1c(NC(=O)c2ccccc2NS(=O)(=O)c2cccs2)sc2c1CCC2

>  <score_type>  (22) 
oracle

>  <origin>  (22) 
adg

>  <m_score__min__energy>  (22) 
-11.529999999999999

>  <m_primary>  (22) 
energy

$$$$
22:0
     RDKit          3D

 40 42  0  0  1  0  0  0  0  0999 V2000
   58.5040   31.9550   48.0350 C   0  0  0  0  0  0  0  0  0  0  0  0
   58.8720   30.6860   47.3790 C   0  0  0  0  0  0  0  0  0  0  0  0
   59.9550   29.9590   47.8620 C   0  0  0  0  0  0  0  0  0  0  0  0
   60.2530   28.7910   47.2150 C   0  0  0  0  0  0  0  0  0  0  0  0
   59.5450   28.3090   46.1300 C   0  0  0  0  0  0  0  0  0  0  0  0
   60.1610   34.5920   47.6120 C   0  0  0  0  0  0  0  0  0  0  0  0
   59.2850   35.1000   46.8410 N   0  0  0  0  0  0  0  0  0  0  0  0
   56.5920   29.3440   44.2520 C   0  0  0  0  0  0  0  0  0  0  0  0
   55.6950   29.6700   45.0730 O   0  0  0  0  0  0  0  0  0  0  0  0
   56.4910   29.6150   42.7890 C   0  0  0  0  0  0  0  0  0  0  0  0
   57.0520   31.2420   42.3180 S   0  0  0  0  0  0  0  0  0  0  0  0
   57.4670   32.3050   43.6670 C   0  0  0  0  0  0  0  0  0  0  0  0
   56.8650   32.2210   44.8900 N   0  0  0  0  0  0  0  0  0  0  0  0
   57.4070   33.1520   45.6580 N   0  0  0  0  0  0  0  0  0  0  0  0
   58.3440   33.8410   44.9770 C   0  0  0  0  0  0  0  0  0  0  0  0
   59.2060   34.9630   45.4220 C   0  0  0  0  0  0  0  0  0  0  0  0
   57.7810   28.6830   44.6890 N   0  0  0  0  0  0  0  0  0  0  0  0
   58.4830   29.0730   45.6960 C   0  0  0  0  0  0  0  0  0  0  0  0
   61.1750   33.9040   47.0790 N   0  0  0  0  0  0  0  0  0  0  0  0
   62.0960   33.3700   47.8910 C   0  0  0  0  0  0  0  0  0  0  0  0
   63.4060   32.4790   47.1780 Cl  0  0  0  0  0  0  0  0  0  0  0  0
   62.0390   33.5050   49.2600 C   0  0  0  0  0  0  0  0  0  0  0  0
   61.0070   34.2020   49.7690 N   0  0  0  0  0  0  0  0  0  0  0  0
   58.1680   30.2400   46.3240 N   0  0  0  0  0  0  0  0  0  0  0  0
   58.3720   33.3020   43.7370 N   0  0  0  0  0  0  0  0  0  0  0  0
   60.1140   34.7190   48.9560 N   0  0  0  0  0  0  0  0  0  0  0  0
   58.5410   31.8275   49.1270 H   0  0  0  0  0  0  0  0  0  0  0  0
   59.2109   32.7420   47.7336 H   0  0  0  0  0  0  0  0  0  0  0  0
   57.4857   32.2417   47.7336 H   0  0  0  0  0  0  0  0  0  0  0  0
   60.5440   30.3068   48.7235 H   0  0  0  0  0  0  0  0  0  0  0  0
   61.1064   28.2005   47.5797 H   0  0  0  0  0  0  0  0  0  0  0  0
   59.8155   27.3633   45.6377 H   0  0  0  0  0  0  0  0  0  0  0  0
   57.0998   28.8702   42.2554 H   0  0  0  0  0  0  0  0  0  0  0  0
   55.4249   29.5545   42.5247 H   0  0  0  0  0  0  0  0  0  0  0  0
   60.2211   34.7964   45.0324 H   0  0  0  0  0  0  0  0  0  0  0  0
   58.7537   35.8881   45.0351 H   0  0  0  0  0  0  0  0  0  0  0  0
   62.8063   33.0609   49.9112 H   0  0  0  0  0  0  0  0  0  0  0  0
   57.3410   30.7980   45.9580 H   0  0  0  0  0  0  0  0  0  0  0  0
   58.9830   33.5910   42.9430 H   0  0  0  0  0  0  0  0  0  0  0  0
   59.3080   35.2640   49.3590 H   0  0  0  0  0  0  0  0  0  0  0  0
  1  2  1  0
  2  3  2  0
  3  4  1  0
  4  5  2  0
  5  6  1  0
  6  7  2  0
  7  8  1  0
  8  9  2  0
  8 10  1  0
 10 11  1  0
 11 12  1  0
 12 13  2  0
 13 14  1  0
 14 15  2  0
 15 16  1  0
 16 17  1  0
 17 18  2  0
 18 19  1  0
 19 20  2  0
 20 21  1  0
 20 22  1  0
 22 23  2  0
 23 24  1  0
 15 25  1  0
  6 26  1  0
 26  2  1  0
 25 12  1  0
 24 18  1  0
  1 27  1  0
  1 28  1  0
  1 29  1  0
  3 30  1  0
  4 31  1  0
  5 32  1  0
 10 33  1  0
 10 34  1  0
 16 35  1  0
 16 36  1  0
 22 37  1  0
 24 38  1  0
 25 39  1  0
 26 40  1  0
M  END
>  <smiles>  (23) 
Cc1cccc(=NC(=O)CSc2nnc(CN=c3nc(Cl)cn[nH]3)[nH]2)[nH]1

>  <score_type>  (23) 
oracle

>  <origin>  (23) 
adg

>  <m_score__min__energy>  (23) 
-8.0899999999999999

>  <m_primary>  (23) 
energy

$$$$
23:0
     RDKit          3D

 45 47  0  0  0  0  0  0  0  0999 V2000
   58.5030   29.7990   44.1520 C   0  0  0  0  0  0  0  0  0  0  0  0
   57.1190   30.8310   43.7180 S   0  0  0  0  0  0  0  0  0  0  0  0
   56.6540   30.5290   42.3220 O   0  0  0  0  0  0  0  0  0  0  0  0
   55.9930   30.5470   44.6710 O   0  0  0  0  0  0  0  0  0  0  0  0
   57.5550   32.5060   43.8510 N   0  0  0  0  0  0  0  0  0  0  0  0
   58.0980   33.1200   45.0360 C   0  0  0  0  0  0  0  0  0  0  0  0
   59.0330   34.1710   44.9750 C   0  0  0  0  0  0  0  0  0  0  0  0
   59.5320   34.7420   46.1490 C   0  0  0  0  0  0  0  0  0  0  0  0
   59.0990   34.2910   47.3990 C   0  0  0  0  0  0  0  0  0  0  0  0
   59.6200   34.8970   48.5510 O   0  0  0  0  0  0  0  0  0  0  0  0
   60.1740   34.2190   49.6470 C   0  0  0  0  0  0  0  0  0  0  0  0
   59.3150   33.7950   50.6670 C   0  0  0  0  0  0  0  0  0  0  0  0
   59.8120   33.0910   51.7680 C   0  0  0  0  0  0  0  0  0  0  0  0
   61.1750   32.7940   51.8510 C   0  0  0  0  0  0  0  0  0  0  0  0
   61.7960   31.9010   53.2260 Cl  0  0  0  0  0  0  0  0  0  0  0  0
   62.0400   33.1930   50.8280 C   0  0  0  0  0  0  0  0  0  0  0  0
   61.5490   33.9000   49.7230 C   0  0  0  0  0  0  0  0  0  0  0  0
   62.4340   34.2120   48.6480 N   0  0  0  0  0  0  0  0  0  0  0  0
   62.6890   33.0880   47.3600 S   0  0  0  0  0  0  0  0  0  0  0  0
   62.2780   33.7270   46.0620 O   0  0  0  0  0  0  0  0  0  0  0  0
   64.1460   32.7270   47.2800 O   0  0  0  0  0  0  0  0  0  0  0  0
   61.7210   31.6440   47.6400 C   0  0  0  0  0  0  0  0  0  0  0  0
   61.9330   30.8770   48.7950 C   0  0  0  0  0  0  0  0  0  0  0  0
   61.1370   29.7560   49.0500 C   0  0  0  0  0  0  0  0  0  0  0  0
   60.1270   29.3970   48.1530 C   0  0  0  0  0  0  0  0  0  0  0  0
   59.9110   30.1590   47.0010 C   0  0  0  0  0  0  0  0  0  0  0  0
   60.7050   31.2810   46.7440 C   0  0  0  0  0  0  0  0  0  0  0  0
   58.1850   33.2270   47.4660 C   0  0  0  0  0  0  0  0  0  0  0  0
   57.6860   32.6520   46.2950 C   0  0  0  0  0  0  0  0  0  0  0  0
   58.5854   29.7376   45.2472 H   0  0  0  0  0  0  0  0  0  0  0  0
   58.3525   28.7908   43.7385 H   0  0  0  0  0  0  0  0  0  0  0  0
   59.4263   30.2309   43.7385 H   0  0  0  0  0  0  0  0  0  0  0  0
   57.4190   33.0940   42.9980 H   0  0  0  0  0  0  0  0  0  0  0  0
   59.3726   34.5448   43.9978 H   0  0  0  0  0  0  0  0  0  0  0  0
   60.2721   35.5536   46.0887 H   0  0  0  0  0  0  0  0  0  0  0  0
   58.2397   34.0174   50.6021 H   0  0  0  0  0  0  0  0  0  0  0  0
   59.1298   32.7708   52.5693 H   0  0  0  0  0  0  0  0  0  0  0  0
   63.1111   32.9507   50.8910 H   0  0  0  0  0  0  0  0  0  0  0  0
   62.7275   31.1580   49.5020 H   0  0  0  0  0  0  0  0  0  0  0  0
   61.3057   29.1565   49.9567 H   0  0  0  0  0  0  0  0  0  0  0  0
   59.5018   28.5145   48.3536 H   0  0  0  0  0  0  0  0  0  0  0  0
   59.1156   29.8757   46.2960 H   0  0  0  0  0  0  0  0  0  0  0  0
   60.5324   31.8799   45.8376 H   0  0  0  0  0  0  0  0  0  0  0  0
   57.8606   32.8447   48.4451 H   0  0  0  0  0  0  0  0  0  0  0  0
   56.9636   31.8249   46.3591 H   0  0  0  0  0  0  0  0  0  0  0  0
  1  2  1  0
  2  3  2  0
  2  4  2  0
  2  5  1  0
  5  6  1  0
  6  7  2  0
  7  8  1  0
  8  9  2  0
  9 10  1  0
 10 11  1  0
 11 12  2  0
 12 13  1  0
 13 14  2  0
 14 15  1  0
 14 16  1  0
 16 17  2  0
 17 18  1  0
 18 19  1  0
 19 20  2  0
 19 21  2  0
 19 22  1  0
 22 23  2  0
 23 24  1  0
 24 25  2  0
 25 26  1  0
 26 27  2  0
  9 28  1  0
 28 29  2  0
 29  6  1  0
 17 11  1  0
 27 22  1  0
  1 30  1  0
  1 31  1  0
  1 32  1  0
  5 33  1  0
  7 34  1  0
  8 35  1  0
 12 36  1  0
 13 37  1  0
 16 38  1  0
 23 39  1  0
 24 40  1  0
 25 41  1  0
 26 42  1  0
 27 43  1  0
 28 44  1  0
 29 45  1  0
M  CHG  1  18  -1
M  END
>  <UniqueID>  (24) 
21

>  <SMILES>  (24) 
CS(=O)(=O)Nc1ccc(Oc2ccc(Cl)cc2[N-]S(=O)(=O)c2ccccc2)cc1

>  <Energy>  (24) 
60.80139901403385

>  <Genealogy>  (24) 
CS(=O)(=O)Nc1ccc(Oc2ccc(Cl)cc2[N-]S(=O)(=O)c2ccccc2)cc1 (protonated)
CS(=O)(=O)Nc1ccc(Oc2ccc(Cl)cc2[N-]S(=O)(=O)c2ccccc2)cc1 (3D coordinates assigned)
CS(=O)(=O)Nc1ccc(Oc2ccc(Cl)cc2[N-]S(=O)(=O)c2ccccc2)cc1 (optimized conformer: 60.80139901403385 kcal/mol)

>  <smiles>  (24) 
CS(=O)(=O)Nc1ccc(Oc2ccc(Cl)cc2NS(=O)(=O)c2ccccc2)cc1

>  <score_type>  (24) 
oracle

>  <origin>  (24) 
adg

>  <m_score__min__energy>  (24) 
-9.8399999999999999

>  <m_primary>  (24) 
energy

$$$$
24:0
     RDKit          3D

 48 50  0  0  0  0  0  0  0  0999 V2000
   58.6980   33.9290   46.6470 C   0  0  0  0  0  0  0  0  0  0  0  0
   58.2510   33.1120   45.4760 C   0  0  0  0  0  0  0  0  0  0  0  0
   58.5100   33.4710   44.1560 C   0  0  0  0  0  0  0  0  0  0  0  0
   57.7810   32.3380   43.1520 S   0  0  0  0  0  0  0  0  0  0  0  0
   57.1150   31.3980   44.3790 C   0  0  0  0  0  0  0  0  0  0  0  0
   56.2960   30.1960   44.1770 C   0  0  0  0  0  0  0  0  0  0  0  0
   55.7120   30.0160   43.0750 O   0  0  0  0  0  0  0  0  0  0  0  0
   56.2110   29.2150   45.2190 N   0  0  0  0  0  0  0  0  0  0  0  0
   57.2340   28.3000   45.6380 C   0  0  0  0  0  0  0  0  0  0  0  0
   57.3910   27.1040   44.9250 C   0  0  0  0  0  0  0  0  0  0  0  0
   58.4230   26.2190   45.2460 C   0  0  0  0  0  0  0  0  0  0  0  0
   59.3170   26.5250   46.2740 C   0  0  0  0  0  0  0  0  0  0  0  0
   59.1800   27.7210   46.9950 C   0  0  0  0  0  0  0  0  0  0  0  0
   60.1860   28.0970   48.0480 C   0  0  0  0  0  0  0  0  0  0  0  0
   60.4940   29.5210   47.9480 N   0  0  0  0  0  0  0  0  0  0  0  0
   61.0490   30.2680   49.0390 C   0  0  0  0  0  0  0  0  0  0  0  0
   61.5300   29.6750   50.0430 O   0  0  0  0  0  0  0  0  0  0  0  0
   61.0370   31.7440   49.0090 C   0  0  0  0  0  0  0  0  0  0  0  0
   62.0250   32.4330   48.2620 C   0  0  0  0  0  0  0  0  0  0  0  0
   63.0930   31.6900   47.4970 C   0  0  0  0  0  0  0  0  0  0  0  0
   62.0420   33.8350   48.2680 C   0  0  0  0  0  0  0  0  0  0  0  0
   61.1000   34.5510   49.0010 C   0  0  0  0  0  0  0  0  0  0  0  0
   60.1200   33.8830   49.7290 C   0  0  0  0  0  0  0  0  0  0  0  0
   60.0550   32.4770   49.7280 C   0  0  0  0  0  0  0  0  0  0  0  0
   58.9640   31.7780   50.5200 C   0  0  0  0  0  0  0  0  0  0  0  0
   59.5180   31.0260   51.5390 F   0  0  0  0  0  0  0  0  0  0  0  0
   58.2230   30.9240   49.7210 F   0  0  0  0  0  0  0  0  0  0  0  0
   58.1120   32.7210   51.0610 F   0  0  0  0  0  0  0  0  0  0  0  0
   58.1380   28.6060   46.6710 C   0  0  0  0  0  0  0  0  0  0  0  0
   57.4560   31.9630   45.6030 C   0  0  0  0  0  0  0  0  0  0  0  0
   58.4180   33.4171   47.5795 H   0  0  0  0  0  0  0  0  0  0  0  0
   59.7903   34.0542   46.6112 H   0  0  0  0  0  0  0  0  0  0  0  0
   58.2144   34.9164   46.6112 H   0  0  0  0  0  0  0  0  0  0  0  0
   59.0913   34.3451   43.8273 H   0  0  0  0  0  0  0  0  0  0  0  0
   56.6970   26.8604   44.1071 H   0  0  0  0  0  0  0  0  0  0  0  0
   58.5317   25.2779   44.6870 H   0  0  0  0  0  0  0  0  0  0  0  0
   60.1308   25.8267   46.5193 H   0  0  0  0  0  0  0  0  0  0  0  0
   59.7710   27.8817   49.0437 H   0  0  0  0  0  0  0  0  0  0  0  0
   61.1064   27.5137   47.8975 H   0  0  0  0  0  0  0  0  0  0  0  0
   60.1090   30.0450   47.1300 H   0  0  0  0  0  0  0  0  0  0  0  0
   63.7840   31.2093   48.2051 H   0  0  0  0  0  0  0  0  0  0  0  0
   62.6238   30.9223   46.8642 H   0  0  0  0  0  0  0  0  0  0  0  0
   63.6496   32.3969   46.8642 H   0  0  0  0  0  0  0  0  0  0  0  0
   62.8063   34.3736   47.6885 H   0  0  0  0  0  0  0  0  0  0  0  0
   61.1303   35.6506   49.0049 H   0  0  0  0  0  0  0  0  0  0  0  0
   59.3876   34.4606   50.3121 H   0  0  0  0  0  0  0  0  0  0  0  0
   58.0282   29.5468   47.2304 H   0  0  0  0  0  0  0  0  0  0  0  0
   57.1354   31.5513   46.5714 H   0  0  0  0  0  0  0  0  0  0  0  0
  1  2  1  0
  2  3  2  0
  3  4  1  0
  4  5  1  0
  5  6  1  0
  6  7  2  0
  6  8  1  0
  8  9  1  0
  9 10  2  0
 10 11  1  0
 11 12  2  0
 12 13  1  0
 13 14  1  0
 14 15  1  0
 15 16  1  0
 16 17  2  0
 16 18  1  0
 18 19  2  0
 19 20  1  0
 19 21  1  0
 21 22  2  0
 22 23  1  0
 23 24  2  0
 24 25  1  0
 25 26  1  0
 25 27  1  0
 25 28  1  0
 13 29  2  0
  5 30  2  0
 30  2  1  0
 29  9  1  0
 24 18  1  0
  1 31  1  0
  1 32  1  0
  1 33  1  0
  3 34  1  0
 10 35  1  0
 11 36  1  0
 12 37  1  0
 14 38  1  0
 14 39  1  0
 15 40  1  0
 20 41  1  0
 20 42  1  0
 20 43  1  0
 21 44  1  0
 22 45  1  0
 23 46  1  0
 29 47  1  0
 30 48  1  0
M  CHG  1   8  -1
M  END
>  <UniqueID>  (25) 
22

>  <SMILES>  (25) 
Cc1csc(C(=O)[N-]c2cccc(CNC(=O)c3c(C)cccc3C(F)(F)F)c2)c1

>  <Energy>  (25) 
84.26352058369791

>  <Genealogy>  (25) 
Cc1csc(C(=O)[N-]c2cccc(CNC(=O)c3c(C)cccc3C(F)(F)F)c2)c1 (protonated)
Cc1csc(C(=O)[N-]c2cccc(CNC(=O)c3c(C)cccc3C(F)(F)F)c2)c1 (3D coordinates assigned)
Cc1csc(C(=O)[N-]c2cccc(CNC(=O)c3c(C)cccc3C(F)(F)F)c2)c1 (optimized conformer: 84.26352058369791 kcal/mol)

>  <smiles>  (25) 
Cc1csc(C(=O)Nc2cccc(CNC(=O)c3c(C)cccc3C(F)(F)F)c2)c1

>  <score_type>  (25) 
oracle

>  <origin>  (25) 
adg

>  <m_score__min__energy>  (25) 
-11.119999999999999

>  <m_primary>  (25) 
energy

$$$$
25:0
     RDKit          3D

 52 56  0  0  1  0  0  0  0  0999 V2000
   60.3030   31.0190   46.0730 F   0  0  0  0  0  0  0  0  0  0  0  0
   59.9650   30.7600   47.3510 C   0  0  0  0  0  0  0  0  0  0  0  0
   60.6250   29.6900   47.9560 C   0  0  0  0  0  0  0  0  0  0  0  0
   60.3280   29.3500   49.2630 C   0  0  0  0  0  0  0  0  0  0  0  0
   59.3760   30.0930   49.9290 C   0  0  0  0  0  0  0  0  0  0  0  0
   58.7400   31.1440   49.3140 C   0  0  0  0  0  0  0  0  0  0  0  0
   59.0190   31.5130   47.9880 C   0  0  0  0  0  0  0  0  0  0  0  0
   58.2860   32.6530   47.4550 C   0  0  0  0  0  0  0  0  0  0  0  0
   58.2440   32.7350   46.0000 N   0  0  0  0  0  0  0  0  0  0  0  0
   58.6460   33.7060   45.1730 C   0  0  0  0  0  0  0  0  0  0  0  0
   59.3540   34.8800   45.6300 C   0  0  0  0  0  0  0  0  0  0  0  0
   60.0280   35.0070   46.7300 C   0  0  0  0  0  0  0  0  0  0  0  0
   61.1390   34.2470   47.2070 C   0  0  0  0  0  0  0  0  0  0  0  0
   62.0900   33.5650   46.5160 C   0  0  0  0  0  0  0  0  0  0  0  0
   63.0500   32.7430   47.1210 C   0  0  0  0  0  0  0  0  0  0  0  0
   63.0770   32.5860   48.4890 C   0  0  0  0  0  0  0  0  0  0  0  0
   62.1230   33.2730   49.2080 C   0  0  0  0  0  0  0  0  0  0  0  0
   61.1850   34.0740   48.6080 C   0  0  0  0  0  0  0  0  0  0  0  0
   58.3460   33.2700   43.9430 N   0  0  0  0  0  0  0  0  0  0  0  0
   57.7790   32.0760   43.9750 C   0  0  0  0  0  0  0  0  0  0  0  0
   57.3130   31.2580   42.9590 C   0  0  0  0  0  0  0  0  0  0  0  0
   56.7740   30.0730   43.3230 N   0  0  0  0  0  0  0  0  0  0  0  0
   56.7010   29.7150   44.6100 C   0  0  0  0  0  0  0  0  0  0  0  0
   56.1740   28.5680   44.8940 N   0  0  0  0  0  0  0  0  0  0  0  0
   57.0240   27.6120   45.5430 C   0  0  0  0  0  0  0  0  0  0  0  0
   58.4010   27.8210   45.5890 C   0  0  0  0  0  0  0  0  0  0  0  0
   59.1630   26.8640   46.2290 C   0  0  0  0  0  0  0  0  0  0  0  0
   58.5620   25.7580   46.7900 C   0  0  0  0  0  0  0  0  0  0  0  0
   57.2020   25.5610   46.7390 C   0  0  0  0  0  0  0  0  0  0  0  0
   56.4250   26.5050   46.1040 C   0  0  0  0  0  0  0  0  0  0  0  0
   57.1590   30.5250   45.5890 N   0  0  0  0  0  0  0  0  0  0  0  0
   57.7010   31.7080   45.2840 C   0  0  0  0  0  0  0  0  0  0  0  0
   61.3793   29.1187   47.3950 H   0  0  0  0  0  0  0  0  0  0  0  0
   60.8371   28.5099   49.7580 H   0  0  0  0  0  0  0  0  0  0  0  0
   59.1219   29.8401   50.9690 H   0  0  0  0  0  0  0  0  0  0  0  0
   57.9880   31.7149   49.8784 H   0  0  0  0  0  0  0  0  0  0  0  0
   57.2511   32.5952   47.8232 H   0  0  0  0  0  0  0  0  0  0  0  0
   58.8229   33.5500   47.7973 H   0  0  0  0  0  0  0  0  0  0  0  0
   59.3170   35.7616   44.9731 H   0  0  0  0  0  0  0  0  0  0  0  0
   59.6955   35.8192   47.3932 H   0  0  0  0  0  0  0  0  0  0  0  0
   62.1070   33.6638   45.4206 H   0  0  0  0  0  0  0  0  0  0  0  0
   63.7889   32.2182   46.4976 H   0  0  0  0  0  0  0  0  0  0  0  0
   63.8222   31.9448   48.9826 H   0  0  0  0  0  0  0  0  0  0  0  0
   62.1134   33.1754   50.3036 H   0  0  0  0  0  0  0  0  0  0  0  0
   60.4479   34.5963   49.2356 H   0  0  0  0  0  0  0  0  0  0  0  0
   57.3786   31.5592   41.9031 H   0  0  0  0  0  0  0  0  0  0  0  0
   56.4220   29.4580   42.5380 H   0  0  0  0  0  0  0  0  0  0  0  0
   58.8613   28.7108   45.1346 H   0  0  0  0  0  0  0  0  0  0  0  0
   60.2546   26.9848   46.2914 H   0  0  0  0  0  0  0  0  0  0  0  0
   59.1901   25.0090   47.2946 H   0  0  0  0  0  0  0  0  0  0  0  0
   56.7450   24.6702   47.1947 H   0  0  0  0  0  0  0  0  0  0  0  0
   55.3342   26.3760   46.0452 H   0  0  0  0  0  0  0  0  0  0  0  0
  1  2  1  0
  2  3  2  0
  3  4  1  0
  4  5  2  0
  5  6  1  0
  6  7  2  0
  7  8  1  0
  8  9  1  0
  9 10  1  0
 10 11  1  0
 11 12  2  0
 12 13  1  0
 13 14  2  0
 14 15  1  0
 15 16  2  0
 16 17  1  0
 17 18  2  0
 10 19  2  0
 19 20  1  0
 20 21  2  0
 21 22  1  0
 22 23  1  0
 23 24  2  0
 24 25  1  0
 25 26  2  0
 26 27  1  0
 27 28  2  0
 28 29  1  0
 29 30  2  0
 23 31  1  0
 31 32  2  0
  7  2  1  0
 32  9  1  0
 18 13  1  0
 32 20  1  0
 30 25  1  0
  3 33  1  0
  4 34  1  0
  5 35  1  0
  6 36  1  0
  8 37  1  0
  8 38  1  0
 11 39  1  0
 12 40  1  0
 14 41  1  0
 15 42  1  0
 16 43  1  0
 17 44  1  0
 18 45  1  0
 21 46  1  0
 22 47  1  0
 26 48  1  0
 27 49  1  0
 28 50  1  0
 29 51  1  0
 30 52  1  0
M  END
>  <smiles>  (26) 
Fc1ccccc1Cn1c(C=Cc2ccccc2)nc2c[nH]c(=Nc3ccccc3)nc21

>  <score_type>  (26) 
oracle

>  <origin>  (26) 
adg

>  <m_score__min__energy>  (26) 
-9.6500000000000004

>  <m_primary>  (26) 
energy

$$$$
26:0
     RDKit          3D

 37 40  0  0  0  0  0  0  0  0999 V2000
   55.1380   29.3670   44.7290 O   0  0  0  0  0  0  0  0  0  0  0  0
   56.3440   29.7070   44.8650 C   0  0  0  0  0  0  0  0  0  0  0  0
   56.7280   31.0780   44.6920 N   0  0  0  0  0  0  0  0  0  0  0  0
   57.6560   31.8150   45.5030 C   0  0  0  0  0  0  0  0  0  0  0  0
   57.2800   33.0810   45.9680 C   0  0  0  0  0  0  0  0  0  0  0  0
   58.1560   33.8440   46.7440 C   0  0  0  0  0  0  0  0  0  0  0  0
   59.4310   33.3530   47.0530 C   0  0  0  0  0  0  0  0  0  0  0  0
   60.3210   34.1040   47.8280 C   0  0  0  0  0  0  0  0  0  0  0  0
   61.5940   33.5980   48.1150 C   0  0  0  0  0  0  0  0  0  0  0  0
   62.5040   34.3330   48.8910 C   0  0  0  0  0  0  0  0  0  0  0  0
   63.7720   33.8120   49.1650 C   0  0  0  0  0  0  0  0  0  0  0  0
   64.1380   32.5580   48.6690 C   0  0  0  0  0  0  0  0  0  0  0  0
   63.2390   31.8180   47.8950 C   0  0  0  0  0  0  0  0  0  0  0  0
   61.9630   32.3290   47.6120 C   0  0  0  0  0  0  0  0  0  0  0  0
   61.0810   31.6110   46.8570 N   0  0  0  0  0  0  0  0  0  0  0  0
   59.8330   32.0870   46.5700 C   0  0  0  0  0  0  0  0  0  0  0  0
   58.9440   31.3290   45.7900 C   0  0  0  0  0  0  0  0  0  0  0  0
   57.3730   28.6790   45.1500 C   0  0  0  0  0  0  0  0  0  0  0  0
   57.9290   27.9150   44.1060 C   0  0  0  0  0  0  0  0  0  0  0  0
   58.8990   26.9450   44.3770 C   0  0  0  0  0  0  0  0  0  0  0  0
   59.3240   26.7250   45.6880 C   0  0  0  0  0  0  0  0  0  0  0  0
   58.7790   27.4750   46.7330 C   0  0  0  0  0  0  0  0  0  0  0  0
   57.8090   28.4470   46.4690 C   0  0  0  0  0  0  0  0  0  0  0  0
   56.2849   33.4788   45.7198 H   0  0  0  0  0  0  0  0  0  0  0  0
   57.8439   34.8322   47.1130 H   0  0  0  0  0  0  0  0  0  0  0  0
   60.0209   35.0905   48.2112 H   0  0  0  0  0  0  0  0  0  0  0  0
   62.2190   35.3201   49.2840 H   0  0  0  0  0  0  0  0  0  0  0  0
   64.4834   34.3907   49.7726 H   0  0  0  0  0  0  0  0  0  0  0  0
   65.1365   32.1518   48.8881 H   0  0  0  0  0  0  0  0  0  0  0  0
   63.5329   30.8318   47.5065 H   0  0  0  0  0  0  0  0  0  0  0  0
   61.3670   30.6740   46.4910 H   0  0  0  0  0  0  0  0  0  0  0  0
   59.2574   30.3489   45.4012 H   0  0  0  0  0  0  0  0  0  0  0  0
   57.5981   28.0824   43.0704 H   0  0  0  0  0  0  0  0  0  0  0  0
   59.3282   26.3538   43.5547 H   0  0  0  0  0  0  0  0  0  0  0  0
   60.0876   25.9616   45.8983 H   0  0  0  0  0  0  0  0  0  0  0  0
   59.1138   27.3005   47.7662 H   0  0  0  0  0  0  0  0  0  0  0  0
   57.3839   29.0340   47.2965 H   0  0  0  0  0  0  0  0  0  0  0  0
  1  2  2  0
  2  3  1  0
  3  4  1  0
  4  5  2  0
  5  6  1  0
  6  7  2  0
  7  8  1  0
  8  9  2  0
  9 10  1  0
 10 11  2  0
 11 12  1  0
 12 13  2  0
 13 14  1  0
 14 15  2  0
 15 16  1  0
 16 17  2  0
  2 18  1  0
 18 19  2  0
 19 20  1  0
 20 21  2  0
 21 22  1  0
 22 23  2  0
 17  4  1  0
 23 18  1  0
 16  7  1  0
 14  9  1  0
  5 24  1  0
  6 25  1  0
  8 26  1  0
 10 27  1  0
 11 28  1  0
 12 29  1  0
 13 30  1  0
 15 31  1  0
 17 32  1  0
 19 33  1  0
 20 34  1  0
 21 35  1  0
 22 36  1  0
 23 37  1  0
M  CHG  2   3  -1  15   1
M  END
>  <UniqueID>  (27) 
23

>  <SMILES>  (27) 
O=C([N-]c1ccc2cc3ccccc3[nH+]c2c1)c1ccccc1

>  <Energy>  (27) 
52.557711039410755

>  <Genealogy>  (27) 
O=C([N-]c1ccc2cc3ccccc3[nH+]c2c1)c1ccccc1 (protonated)
O=C([N-]c1ccc2cc3ccccc3[nH+]c2c1)c1ccccc1 (3D coordinates assigned)
O=C([N-]c1ccc2cc3ccccc3[nH+]c2c1)c1ccccc1 (optimized conformer: 52.557711039410755 kcal/mol)

>  <smiles>  (27) 
O=C(Nc1ccc2cc3ccccc3nc2c1)c1ccccc1

>  <score_type>  (27) 
oracle

>  <origin>  (27) 
adg

>  <m_score__min__energy>  (27) 
-8.7699999999999996

>  <m_primary>  (27) 
energy

$$$$
27:0
     RDKit          3D

 31 32  0  0  0  0  0  0  0  0999 V2000
   60.8730   26.3560   46.4310 C   0  0  0  0  0  0  0  0  0  0  0  0
   59.7970   27.2720   45.9170 C   0  0  0  0  0  0  0  0  0  0  0  0
   58.4620   27.0430   46.2880 C   0  0  0  0  0  0  0  0  0  0  0  0
   57.4390   27.8650   45.8100 C   0  0  0  0  0  0  0  0  0  0  0  0
   57.7360   28.9320   44.9550 C   0  0  0  0  0  0  0  0  0  0  0  0
   56.4500   29.9240   44.2730 S   0  0  0  0  0  0  0  0  0  0  0  0
   55.1240   29.3390   44.6710 O   0  0  0  0  0  0  0  0  0  0  0  0
   56.5360   29.9320   42.7710 O   0  0  0  0  0  0  0  0  0  0  0  0
   56.5560   31.5550   44.8700 N   0  0  0  0  0  0  0  0  0  0  0  0
   57.6790   32.2690   44.2600 C   0  0  0  0  0  0  0  0  0  0  0  0
   58.2790   33.2340   45.2350 C   0  0  0  0  0  0  0  0  0  0  0  0
   59.1450   34.2630   44.9240 C   0  0  0  0  0  0  0  0  0  0  0  0
   59.4420   34.8710   46.1240 C   0  0  0  0  0  0  0  0  0  0  0  0
   58.7320   34.1850   47.0880 C   0  0  0  0  0  0  0  0  0  0  0  0
   58.0450   33.2160   46.5270 O   0  0  0  0  0  0  0  0  0  0  0  0
   59.0640   29.1770   44.5890 C   0  0  0  0  0  0  0  0  0  0  0  0
   60.1010   28.3540   45.0570 C   0  0  0  0  0  0  0  0  0  0  0  0
   61.4460   28.6250   44.6360 N   0  0  0  0  0  0  0  0  0  0  0  0
   60.8654   26.3624   47.5310 H   0  0  0  0  0  0  0  0  0  0  0  0
   60.6882   25.3338   46.0690 H   0  0  0  0  0  0  0  0  0  0  0  0
   61.8526   26.7016   46.0690 H   0  0  0  0  0  0  0  0  0  0  0  0
   58.2196   26.2079   46.9617 H   0  0  0  0  0  0  0  0  0  0  0  0
   56.3972   27.6731   46.1064 H   0  0  0  0  0  0  0  0  0  0  0  0
   58.4453   31.5425   43.9517 H   0  0  0  0  0  0  0  0  0  0  0  0
   57.3127   32.8278   43.3862 H   0  0  0  0  0  0  0  0  0  0  0  0
   59.5193   34.5395   43.9273 H   0  0  0  0  0  0  0  0  0  0  0  0
   60.1105   35.7302   46.2819 H   0  0  0  0  0  0  0  0  0  0  0  0
   58.7400   34.4148   48.1637 H   0  0  0  0  0  0  0  0  0  0  0  0
   59.2983   30.0238   43.9272 H   0  0  0  0  0  0  0  0  0  0  0  0
   62.0900   29.2300   45.1880 H   0  0  0  0  0  0  0  0  0  0  0  0
   61.8180   28.2080   43.7530 H   0  0  0  0  0  0  0  0  0  0  0  0
  1  2  1  0
  2  3  2  0
  3  4  1  0
  4  5  2  0
  5  6  1  0
  6  7  2  0
  6  8  2  0
  6  9  1  0
  9 10  1  0
 10 11  1  0
 11 12  2  0
 12 13  1  0
 13 14  2  0
 14 15  1  0
  5 16  1  0
 16 17  2  0
 17 18  1  0
 17  2  1  0
 15 11  1  0
  1 19  1  0
  1 20  1  0
  1 21  1  0
  3 22  1  0
  4 23  1  0
 10 24  1  0
 10 25  1  0
 12 26  1  0
 13 27  1  0
 14 28  1  0
 16 29  1  0
 18 30  1  0
 18 31  1  0
M  CHG  1   9  -1
M  END
>  <UniqueID>  (28) 
24

>  <SMILES>  (28) 
Cc1ccc(S(=O)(=O)[N-]Cc2ccco2)cc1N

>  <Energy>  (28) 
52.521992247353744

>  <Genealogy>  (28) 
Cc1ccc(S(=O)(=O)[N-]Cc2ccco2)cc1N (protonated)
Cc1ccc(S(=O)(=O)[N-]Cc2ccco2)cc1N (3D coordinates assigned)
Cc1ccc(S(=O)(=O)[N-]Cc2ccco2)cc1N (optimized conformer: 52.521992247353744 kcal/mol)

>  <smiles>  (28) 
Cc1ccc(S(=O)(=O)NCc2ccco2)cc1N

>  <score_type>  (28) 
oracle

>  <origin>  (28) 
adg

>  <m_score__min__energy>  (28) 
-8.4900000000000002

>  <m_primary>  (28) 
energy

$$$$
28:0
     RDKit          3D

 34 35  0  0  0  0  0  0  0  0999 V2000
   55.7900   25.9740   45.9840 C   0  0  0  0  0  0  0  0  0  0  0  0
   55.8440   27.3810   45.6200 N   0  0  0  0  0  0  0  0  0  0  0  0
   57.0630   28.1310   45.6030 C   0  0  0  0  0  0  0  0  0  0  0  0
   58.0120   27.7950   46.3620 O   0  0  0  0  0  0  0  0  0  0  0  0
   57.2160   29.2660   44.6620 C   0  0  0  0  0  0  0  0  0  0  0  0
   56.2280   29.4350   43.6710 C   0  0  0  0  0  0  0  0  0  0  0  0
   56.3210   30.4650   42.7350 C   0  0  0  0  0  0  0  0  0  0  0  0
   57.3970   31.3480   42.7720 C   0  0  0  0  0  0  0  0  0  0  0  0
   58.3790   31.2110   43.7520 C   0  0  0  0  0  0  0  0  0  0  0  0
   58.3040   30.1860   44.7170 C   0  0  0  0  0  0  0  0  0  0  0  0
   59.3270   30.1210   45.7380 N   0  0  0  0  0  0  0  0  0  0  0  0
   58.9190   30.8930   46.9220 C   0  0  0  0  0  0  0  0  0  0  0  0
   59.1780   32.3650   46.7090 C   0  0  0  0  0  0  0  0  0  0  0  0
   60.4630   32.8860   46.9350 C   0  0  0  0  0  0  0  0  0  0  0  0
   60.7260   34.2390   46.7090 C   0  0  0  0  0  0  0  0  0  0  0  0
   59.7130   35.0820   46.2450 C   0  0  0  0  0  0  0  0  0  0  0  0
   58.4360   34.5700   46.0040 C   0  0  0  0  0  0  0  0  0  0  0  0
   58.1660   33.2150   46.2280 C   0  0  0  0  0  0  0  0  0  0  0  0
   56.9210   32.7390   45.9760 F   0  0  0  0  0  0  0  0  0  0  0  0
   55.7863   25.8787   47.0799 H   0  0  0  0  0  0  0  0  0  0  0  0
   54.8739   25.5240   45.5737 H   0  0  0  0  0  0  0  0  0  0  0  0
   56.6689   25.4551   45.5737 H   0  0  0  0  0  0  0  0  0  0  0  0
   55.3719   28.7452   43.6353 H   0  0  0  0  0  0  0  0  0  0  0  0
   55.5428   30.5799   41.9661 H   0  0  0  0  0  0  0  0  0  0  0  0
   57.4722   32.1542   42.0275 H   0  0  0  0  0  0  0  0  0  0  0  0
   59.2253   31.9134   43.7726 H   0  0  0  0  0  0  0  0  0  0  0  0
   59.4650   29.1200   46.0150 H   0  0  0  0  0  0  0  0  0  0  0  0
   60.2470   30.4550   45.3760 H   0  0  0  0  0  0  0  0  0  0  0  0
   57.8453   30.7370   47.1034 H   0  0  0  0  0  0  0  0  0  0  0  0
   59.5039   30.5508   47.7885 H   0  0  0  0  0  0  0  0  0  0  0  0
   61.2664   32.2248   47.2919 H   0  0  0  0  0  0  0  0  0  0  0  0
   61.7324   34.6415   46.8966 H   0  0  0  0  0  0  0  0  0  0  0  0
   59.9209   36.1478   46.0697 H   0  0  0  0  0  0  0  0  0  0  0  0
   57.6396   35.2341   45.6368 H   0  0  0  0  0  0  0  0  0  0  0  0
  1  2  1  0
  2  3  1  0
  3  4  2  0
  3  5  1  0
  5  6  2  0
  6  7  1  0
  7  8  2  0
  8  9  1  0
  9 10  2  0
 10 11  1  0
 11 12  1  0
 12 13  1  0
 13 14  2  0
 14 15  1  0
 15 16  2  0
 16 17  1  0
 17 18  2  0
 18 19  1  0
 10  5  1  0
 18 13  1  0
  1 20  1  0
  1 21  1  0
  1 22  1  0
  6 23  1  0
  7 24  1  0
  8 25  1  0
  9 26  1  0
 11 27  1  0
 11 28  1  0
 12 29  1  0
 12 30  1  0
 14 31  1  0
 15 32  1  0
 16 33  1  0
 17 34  1  0
M  CHG  2   2  -1  11   1
M  END
>  <UniqueID>  (29) 
25

>  <SMILES>  (29) 
C[N-]C(=O)c1ccccc1[NH2+]Cc1ccccc1F

>  <Energy>  (29) 
38.367749510681186

>  <Genealogy>  (29) 
C[N-]C(=O)c1ccccc1[NH2+]Cc1ccccc1F (protonated)
C[N-]C(=O)c1ccccc1[NH2+]Cc1ccccc1F (3D coordinates assigned)
C[N-]C(=O)c1ccccc1[NH2+]Cc1ccccc1F (optimized conformer: 38.367749510681186 kcal/mol)

>  <smiles>  (29) 
CNC(=O)c1ccccc1NCc1ccccc1F

>  <score_type>  (29) 
oracle

>  <origin>  (29) 
adg

>  <m_score__min__energy>  (29) 
-6.96

>  <m_primary>  (29) 
energy

$$$$
29:0
     RDKit          3D

 46 49  0  0  0  0  0  0  0  0999 V2000
   58.5250   27.7780   43.9530 C   0  0  0  0  0  0  0  0  0  0  0  0
   58.7310   28.3620   45.3270 C   0  0  0  0  0  0  0  0  0  0  0  0
   59.6160   29.4430   45.4830 C   0  0  0  0  0  0  0  0  0  0  0  0
   59.8590   30.0110   46.7460 C   0  0  0  0  0  0  0  0  0  0  0  0
   60.8550   31.1060   46.8760 C   0  0  0  0  0  0  0  0  0  0  0  0
   62.0800   30.8250   46.7430 O   0  0  0  0  0  0  0  0  0  0  0  0
   60.4500   32.4690   47.1810 N   0  0  1  0  0  0  0  0  0  0  0  0
   61.2700   33.5040   46.5220 C   0  0  2  0  0  0  0  0  0  0  0  0
   62.5220   33.7610   47.2640 C   0  0  0  0  0  0  0  0  0  0  0  0
   63.4950   33.9530   47.8680 N   0  0  0  0  0  0  0  0  0  0  0  0
   60.3990   34.7640   46.4570 C   0  0  0  0  0  0  0  0  0  0  0  0
   58.9580   34.2830   46.6940 C   0  0  1  0  0  0  0  0  0  0  0  0
   58.0000   34.5350   45.5210 C   0  0  0  0  0  0  0  0  0  0  0  0
   57.5980   33.2350   44.9790 N   0  0  0  0  0  0  0  0  0  0  0  0
   58.5930   32.2800   45.4480 C   0  0  0  0  0  0  0  0  0  0  0  0
   59.0520   32.7790   46.8220 C   0  0  1  0  0  0  0  0  0  0  0  0
   59.1630   29.5100   47.8570 C   0  0  0  0  0  0  0  0  0  0  0  0
   58.2920   28.4270   47.7190 C   0  0  0  0  0  0  0  0  0  0  0  0
   58.0940   27.8200   46.4680 C   0  0  0  0  0  0  0  0  0  0  0  0
   57.2410   26.6140   46.3840 C   0  0  0  0  0  0  0  0  0  0  0  0
   57.7590   25.3450   46.6880 C   0  0  0  0  0  0  0  0  0  0  0  0
   56.9300   24.2210   46.6370 C   0  0  0  0  0  0  0  0  0  0  0  0
   55.5880   24.3770   46.2710 C   0  0  0  0  0  0  0  0  0  0  0  0
   54.8260   23.3760   46.2300 O   0  0  0  0  0  0  0  0  0  0  0  0
   55.1050   25.6110   45.9590 N   0  0  0  0  0  0  0  0  0  0  0  0
   55.8940   26.7190   46.0030 C   0  0  0  0  0  0  0  0  0  0  0  0
   58.1604   26.7443   44.0449 H   0  0  0  0  0  0  0  0  0  0  0  0
   57.7851   28.3805   43.4056 H   0  0  0  0  0  0  0  0  0  0  0  0
   59.4791   27.7830   43.4056 H   0  0  0  0  0  0  0  0  0  0  0  0
   60.1283   29.8524   44.5999 H   0  0  0  0  0  0  0  0  0  0  0  0
   60.5330   32.6190   48.2170 H   0  0  0  0  0  0  0  0  0  0  0  0
   61.5767   33.1776   45.5173 H   0  0  0  0  0  0  0  0  0  0  0  0
   60.6986   35.4786   47.2377 H   0  0  0  0  0  0  0  0  0  0  0  0
   60.5021   35.2808   45.4914 H   0  0  0  0  0  0  0  0  0  0  0  0
   58.5649   34.8249   47.5668 H   0  0  0  0  0  0  0  0  0  0  0  0
   57.1137   35.0828   45.8737 H   0  0  0  0  0  0  0  0  0  0  0  0
   58.4956   35.1365   44.7447 H   0  0  0  0  0  0  0  0  0  0  0  0
   57.6170   33.2700   43.9330 H   0  0  0  0  0  0  0  0  0  0  0  0
   58.1478   31.2779   45.5357 H   0  0  0  0  0  0  0  0  0  0  0  0
   59.4373   32.2047   44.7469 H   0  0  0  0  0  0  0  0  0  0  0  0
   58.4376   32.2974   47.5970 H   0  0  0  0  0  0  0  0  0  0  0  0
   59.3046   29.9740   48.8443 H   0  0  0  0  0  0  0  0  0  0  0  0
   57.7551   28.0452   48.5999 H   0  0  0  0  0  0  0  0  0  0  0  0
   58.8175   25.2354   46.9664 H   0  0  0  0  0  0  0  0  0  0  0  0
   57.3276   23.2250   46.8817 H   0  0  0  0  0  0  0  0  0  0  0  0
   55.4745   27.7010   45.7389 H   0  0  0  0  0  0  0  0  0  0  0  0
  1  2  1  0
  2  3  2  0
  3  4  1  0
  4  5  1  0
  5  6  2  0
  5  7  1  0
  7  8  1  0
  8  9  1  0
  9 10  3  0
  8 11  1  0
 11 12  1  0
 12 13  1  0
 13 14  1  0
 14 15  1  0
 15 16  1  0
  4 17  2  0
 17 18  1  0
 18 19  2  0
 19 20  1  0
 20 21  1  0
 21 22  2  0
 22 23  1  0
 23 24  2  0
 23 25  1  0
 25 26  1  0
 19  2  1  0
 26 20  2  0
 16  7  1  0
 16 12  1  0
  1 27  1  0
  1 28  1  0
  1 29  1  0
  3 30  1  0
  7 31  1  1
  8 32  1  6
 11 33  1  0
 11 34  1  0
 12 35  1  1
 13 36  1  0
 13 37  1  0
 14 38  1  0
 15 39  1  0
 15 40  1  0
 16 41  1  1
 17 42  1  0
 18 43  1  0
 21 44  1  0
 22 45  1  0
 26 46  1  0
M  CHG  2   7   1  25  -1
M  END
>  <UniqueID>  (30) 
26

>  <SMILES>  (30) 
Cc1cc(C(=O)[N@@H+]2C3CNCC3C[C@H]2C#N)ccc1-c1ccc(=O)[n-]c1

>  <Energy>  (30) 
73.78539850094901

>  <Genealogy>  (30) 
Cc1cc(C(=O)[NH+]2C(C#N)CC3CNCC32)ccc1-c1ccc(=O)[n-]c1 (protonated)
Cc1cc(C(=O)[N@@H+]2C3CNCC3C[C@H]2C#N)ccc1-c1ccc(=O)[n-]c1 (chirality)
Cc1cc(C(=O)[N@@H+]2C3CNCC3C[C@H]2C#N)ccc1-c1ccc(=O)[n-]c1 (3D coordinates assigned)
Cc1cc(C(=O)[N@@H+]2C3CNCC3C[C@H]2C#N)ccc1-c1ccc(=O)[n-]c1 (nonaromatic ring conformer: 73.78539850094901 kcal/mol)

>  <smiles>  (30) 
Cc1cc(C(=O)N2C(C#N)CC3CNCC32)ccc1-c1ccc(=O)[nH]c1

>  <score_type>  (30) 
oracle

>  <origin>  (30) 
adg

>  <m_score__min__energy>  (30) 
-8.5700000000000003

>  <m_primary>  (30) 
energy

$$$$
30:0
     RDKit          3D

 38 39  0  0  0  0  0  0  0  0999 V2000
   58.9214   29.1065   46.8184 H   0  0  0  0  0  0  0  0  0  0  0  0
   58.3870   29.7330   46.0890 C   0  0  0  0  0  0  0  0  0  0  0  0
   58.5340   31.1230   46.1260 C   0  0  0  0  0  0  0  0  0  0  0  0
   59.1912   31.5848   46.8775 H   0  0  0  0  0  0  0  0  0  0  0  0
   57.8470   31.9300   45.2090 C   0  0  0  0  0  0  0  0  0  0  0  0
   58.0360   33.6800   45.2430 S   0  0  0  0  0  0  0  0  0  0  0  0
   56.7020   34.3430   45.0480 O   0  0  0  0  0  0  0  0  0  0  0  0
   58.9560   34.1110   44.1350 O   0  0  0  0  0  0  0  0  0  0  0  0
   58.7190   34.1690   46.8110 C   0  0  0  0  0  0  0  0  0  0  0  0
   58.1165   33.7376   47.6239 H   0  0  0  0  0  0  0  0  0  0  0  0
   59.7543   33.8056   46.8893 H   0  0  0  0  0  0  0  0  0  0  0  0
   58.7086   35.2662   46.8893 H   0  0  0  0  0  0  0  0  0  0  0  0
   57.0220   31.3330   44.2460 C   0  0  0  0  0  0  0  0  0  0  0  0
   56.4877   31.9600   43.5170 H   0  0  0  0  0  0  0  0  0  0  0  0
   56.8760   29.9430   44.2090 C   0  0  0  0  0  0  0  0  0  0  0  0
   56.2199   29.4815   43.4563 H   0  0  0  0  0  0  0  0  0  0  0  0
   57.5620   29.1340   45.1270 C   0  0  0  0  0  0  0  0  0  0  0  0
   57.3860   27.6410   45.1130 C   0  0  0  0  0  0  0  0  0  0  0  0
   58.3157   27.1630   45.4552 H   0  0  0  0  0  0  0  0  0  0  0  0
   57.1510   27.3185   44.0879 H   0  0  0  0  0  0  0  0  0  0  0  0
   56.2920   27.2510   45.9950 N   0  0  0  0  0  0  0  0  0  0  0  0
   55.5800   26.0150   45.8770 C   0  0  0  0  0  0  0  0  0  0  0  0
   54.3230   26.0020   45.9830 O   0  0  0  0  0  0  0  0  0  0  0  0
   56.3150   24.7540   45.6200 C   0  0  0  0  0  0  0  0  0  0  0  0
   56.5280   23.8310   46.6580 C   0  0  0  0  0  0  0  0  0  0  0  0
   56.1540   24.0480   47.6694 H   0  0  0  0  0  0  0  0  0  0  0  0
   57.2140   22.6370   46.4100 C   0  0  0  0  0  0  0  0  0  0  0  0
   57.3930   21.8010   47.3940 N   0  0  0  0  0  0  0  0  0  0  0  0
   56.4620   21.5530   48.4910 C   0  0  0  0  0  0  0  0  0  0  0  0
   56.9812   21.6913   49.4509 H   0  0  0  0  0  0  0  0  0  0  0  0
   55.6205   22.2583   48.4243 H   0  0  0  0  0  0  0  0  0  0  0  0
   56.0829   20.5225   48.4243 H   0  0  0  0  0  0  0  0  0  0  0  0
   57.6880   22.3840   45.1090 C   0  0  0  0  0  0  0  0  0  0  0  0
   58.2321   21.4538   44.8883 H   0  0  0  0  0  0  0  0  0  0  0  0
   57.4620   23.3230   44.1010 C   0  0  0  0  0  0  0  0  0  0  0  0
   57.8309   23.1306   43.0827 H   0  0  0  0  0  0  0  0  0  0  0  0
   56.7890   24.4740   44.3690 N   0  0  0  0  0  0  0  0  0  0  0  0
   56.6430   25.1470   43.5840 H   0  0  0  0  0  0  0  0  0  0  0  0
  1  2  1  0
  2  3  2  0
  3  4  1  0
  3  5  1  0
  5  6  1  0
  6  7  2  0
  6  8  2  0
  6  9  1  0
  9 10  1  0
  9 11  1  0
  9 12  1  0
  5 13  2  0
 13 14  1  0
 13 15  1  0
 15 16  1  0
 15 17  2  0
 17 18  1  0
 18 19  1  0
 18 20  1  0
 18 21  1  0
 21 22  1  0
 22 23  2  0
 22 24  1  0
 24 25  2  0
 25 26  1  0
 25 27  1  0
 27 28  2  0
 28 29  1  0
 29 30  1  0
 29 31  1  0
 29 32  1  0
 27 33  1  0
 33 34  1  0
 33 35  2  0
 35 36  1  0
 35 37  1  0
 37 38  1  0
 17  2  1  0
 37 24  1  0
M  CHG  1  21  -1
M  END
>  <UniqueID>  (31) 
27

>  <SMILES>  (31) 
C/N=c1\cc[nH]c(C(=O)[N-]Cc2ccc(S(C)(=O)=O)cc2)c1

>  <Energy>  (31) 
34.87637909425368

>  <Genealogy>  (31) 
CN=c1cc[nH]c(C(=O)[N-]Cc2ccc(S(C)(=O)=O)cc2)c1 (protonated)
C/N=c1\cc[nH]c(C(=O)[N-]Cc2ccc(S(C)(=O)=O)cc2)c1 (cis-trans isomerization)
C/N=c1\cc[nH]c(C(=O)[N-]Cc2ccc(S(C)(=O)=O)cc2)c1 (3D coordinates assigned)
C/N=c1\cc[nH]c(C(=O)[N-]Cc2ccc(S(C)(=O)=O)cc2)c1 (optimized conformer: 34.87637909425368 kcal/mol)

>  <smiles>  (31) 
CN=c1cc[nH]c(C(=O)NCc2ccc(S(C)(=O)=O)cc2)c1

>  <score_type>  (31) 
oracle

>  <origin>  (31) 
adg

>  <m_score__min__energy>  (31) 
-9.2200000000000006

>  <m_primary>  (31) 
energy

$$$$
31:0
     RDKit          3D

 76 81  0  0  1  0  0  0  0  0999 V2000
   60.7890   30.0630   46.4760 O   0  0  0  0  0  0  0  0  0  0  0  0
   60.0600   29.9720   47.4970 C   0  0  0  0  0  0  0  0  0  0  0  0
   59.0710   28.9870   47.6780 N   0  0  0  0  0  0  0  0  0  0  0  0
   58.6600   27.9690   46.8090 C   0  0  0  0  0  0  0  0  0  0  0  0
   58.9830   26.6650   47.2160 C   0  0  0  0  0  0  0  0  0  0  0  0
   58.5910   25.5610   46.4820 C   0  0  0  0  0  0  0  0  0  0  0  0
   57.8680   25.6700   45.3220 C   0  0  0  0  0  0  0  0  0  0  0  0
   57.4160   24.5290   44.5320 C   0  0  0  0  0  0  0  0  0  0  0  0
   57.5300   23.1870   44.8700 C   0  0  0  0  0  0  0  0  0  0  0  0
   56.9850   22.4320   43.8530 C   0  0  0  0  0  0  0  0  0  0  0  0
   56.9050   21.1450   43.7580 N   0  0  0  0  0  0  0  0  0  0  0  0
   56.2610   20.3880   44.7730 C   0  0  0  0  0  0  0  0  0  0  0  0
   55.1540   19.7790   44.5840 O   0  0  0  0  0  0  0  0  0  0  0  0
   56.8210   20.2440   46.1230 C   0  0  0  0  0  0  0  0  0  0  0  0
   57.7700   19.2880   46.3760 C   0  0  0  0  0  0  0  0  0  0  0  0
   58.3200   19.1270   47.6520 C   0  0  0  0  0  0  0  0  0  0  0  0
   57.9400   19.9160   48.7170 C   0  0  0  0  0  0  0  0  0  0  0  0
   58.4500   19.8010   50.0810 C   0  0  0  0  0  0  0  0  0  0  0  0
   59.7350   20.3310   50.3650 N   0  0  0  0  0  0  0  0  0  0  0  0
   59.8870   21.1750   51.4880 C   0  0  0  0  0  0  0  0  0  0  0  0
   61.1230   21.0810   52.3000 C   0  0  0  0  0  0  0  0  0  0  0  0
   62.2070   20.6050   51.5770 O   0  0  0  0  0  0  0  0  0  0  0  0
   61.8350   19.3040   51.1970 C   0  0  0  0  0  0  0  0  0  0  0  0
   60.8390   19.4710   50.0780 C   0  0  0  0  0  0  0  0  0  0  0  0
   56.9780   20.8770   48.4390 C   0  0  0  0  0  0  0  0  0  0  0  0
   56.4260   21.0480   47.1800 C   0  0  0  0  0  0  0  0  0  0  0  0
   56.5530   23.3230   42.9250 N   0  0  0  0  0  0  0  0  0  0  0  0
   56.8010   24.5540   43.3150 N   0  0  0  0  0  0  0  0  0  0  0  0
   57.5470   26.9440   44.9070 C   0  0  0  0  0  0  0  0  0  0  0  0
   57.9480   28.0760   45.6530 C   0  0  0  0  0  0  0  0  0  0  0  0
   57.5020   29.7470   44.8580 Br  0  0  0  0  0  0  0  0  0  0  0  0
   60.3220   30.9920   48.4870 N   0  0  0  0  0  0  0  0  0  0  0  0
   61.3780   31.8820   48.1250 C   0  0  0  0  0  0  0  0  0  0  0  0
   62.6390   31.3330   47.9200 C   0  0  0  0  0  0  0  0  0  0  0  0
   63.7360   32.1220   47.6080 C   0  0  0  0  0  0  0  0  0  0  0  0
   63.5750   33.4860   47.4960 C   0  0  0  0  0  0  0  0  0  0  0  0
   62.3290   34.0130   47.6980 C   0  0  0  0  0  0  0  0  0  0  0  0
   61.2130   33.2340   48.0140 C   0  0  0  0  0  0  0  0  0  0  0  0
   60.0320   33.9280   48.1830 O   0  0  0  0  0  0  0  0  0  0  0  0
   59.1120   33.8450   47.1460 C   0  0  0  0  0  0  0  0  0  0  0  0
   59.4710   34.5690   45.9980 C   0  0  0  0  0  0  0  0  0  0  0  0
   58.6880   34.6050   44.8730 C   0  0  0  0  0  0  0  0  0  0  0  0
   57.4940   33.8930   44.8840 C   0  0  0  0  0  0  0  0  0  0  0  0
   57.1490   33.1830   46.0170 C   0  0  0  0  0  0  0  0  0  0  0  0
   57.9430   33.1480   47.1550 C   0  0  0  0  0  0  0  0  0  0  0  0
   58.5750   29.0270   48.6220 H   0  0  0  0  0  0  0  0  0  0  0  0
   59.5613   26.5182   48.1401 H   0  0  0  0  0  0  0  0  0  0  0  0
   58.8691   24.5592   46.8414 H   0  0  0  0  0  0  0  0  0  0  0  0
   57.9793   22.7927   45.7934 H   0  0  0  0  0  0  0  0  0  0  0  0
   58.1062   18.6335   45.5583 H   0  0  0  0  0  0  0  0  0  0  0  0
   59.0791   18.3469   47.8107 H   0  0  0  0  0  0  0  0  0  0  0  0
   57.7336   20.3123   50.7409 H   0  0  0  0  0  0  0  0  0  0  0  0
   58.5618   18.7181   50.2389 H   0  0  0  0  0  0  0  0  0  0  0  0
   59.8198   22.2106   51.1233 H   0  0  0  0  0  0  0  0  0  0  0  0
   59.0959   20.8413   52.1755 H   0  0  0  0  0  0  0  0  0  0  0  0
   61.3687   22.0824   52.6831 H   0  0  0  0  0  0  0  0  0  0  0  0
   60.9300   20.3679   53.1150 H   0  0  0  0  0  0  0  0  0  0  0  0
   62.7132   18.7414   50.8472 H   0  0  0  0  0  0  0  0  0  0  0  0
   61.4056   18.7435   52.0404 H   0  0  0  0  0  0  0  0  0  0  0  0
   61.3718   19.8814   49.2076 H   0  0  0  0  0  0  0  0  0  0  0  0
   60.4093   18.4737   49.9026 H   0  0  0  0  0  0  0  0  0  0  0  0
   56.6387   21.5322   49.2549 H   0  0  0  0  0  0  0  0  0  0  0  0
   55.6679   21.8284   47.0181 H   0  0  0  0  0  0  0  0  0  0  0  0
   56.0890   23.0900   42.0270 H   0  0  0  0  0  0  0  0  0  0  0  0
   56.5460   25.4030   42.7610 H   0  0  0  0  0  0  0  0  0  0  0  0
   56.9698   27.0825   43.9809 H   0  0  0  0  0  0  0  0  0  0  0  0
   59.7690   31.0550   49.3580 H   0  0  0  0  0  0  0  0  0  0  0  0
   62.7699   30.2443   48.0076 H   0  0  0  0  0  0  0  0  0  0  0  0
   64.7238   31.6640   47.4516 H   0  0  0  0  0  0  0  0  0  0  0  0
   64.4281   34.1355   47.2500 H   0  0  0  0  0  0  0  0  0  0  0  0
   62.1995   35.1016   47.6074 H   0  0  0  0  0  0  0  0  0  0  0  0
   60.4176   35.1294   46.0012 H   0  0  0  0  0  0  0  0  0  0  0  0
   58.9956   35.1805   43.9875 H   0  0  0  0  0  0  0  0  0  0  0  0
   56.8343   33.8952   44.0038 H   0  0  0  0  0  0  0  0  0  0  0  0
   56.2036   32.6206   46.0177 H   0  0  0  0  0  0  0  0  0  0  0  0
   57.6356   32.5723   48.0405 H   0  0  0  0  0  0  0  0  0  0  0  0
  1  2  2  0
  2  3  1  0
  3  4  1  0
  4  5  2  0
  5  6  1  0
  6  7  2  0
  7  8  1  0
  8  9  2  0
  9 10  1  0
 10 11  2  0
 11 12  1  0
 12 13  2  0
 12 14  1  0
 14 15  2  0
 15 16  1  0
 16 17  2  0
 17 18  1  0
 18 19  1  0
 19 20  1  0
 20 21  1  0
 21 22  1  0
 22 23  1  0
 23 24  1  0
 17 25  1  0
 25 26  2  0
 10 27  1  0
 27 28  1  0
  7 29  1  0
 29 30  2  0
 30 31  1  0
  2 32  1  0
 32 33  1  0
 33 34  2  0
 34 35  1  0
 35 36  2  0
 36 37  1  0
 37 38  2  0
 38 39  1  0
 39 40  1  0
 40 41  2  0
 41 42  1  0
 42 43  2  0
 43 44  1  0
 44 45  2  0
 30  4  1  0
 38 33  1  0
 45 40  1  0
 28  8  1  0
 26 14  1  0
 24 19  1  0
  3 46  1  0
  5 47  1  0
  6 48  1  0
  9 49  1  0
 15 50  1  0
 16 51  1  0
 18 52  1  0
 18 53  1  0
 20 54  1  0
 20 55  1  0
 21 56  1  0
 21 57  1  0
 23 58  1  0
 23 59  1  0
 24 60  1  0
 24 61  1  0
 25 62  1  0
 26 63  1  0
 27 64  1  0
 28 65  1  0
 29 66  1  0
 32 67  1  0
 34 68  1  0
 35 69  1  0
 36 70  1  0
 37 71  1  0
 41 72  1  0
 42 73  1  0
 43 74  1  0
 44 75  1  0
 45 76  1  0
M  END
>  <smiles>  (32) 
O=C(Nc1ccc(-c2cc(=NC(=O)c3ccc(CN4CCOCC4)cc3)[nH][nH]2)cc1Br)Nc1ccccc1Oc1ccccc1

>  <score_type>  (32) 
oracle

>  <origin>  (32) 
adg

>  <m_score__min__energy>  (32) 
-10.539999999999999

>  <m_primary>  (32) 
energy

$$$$
32:0
     RDKit          3D

 56 58  0  0  0  0  0  0  0  0999 V2000
   54.7360   23.9410   45.0090 C   0  0  0  0  0  0  0  0  0  0  0  0
   55.4940   24.0890   46.3240 C   0  0  0  0  0  0  0  0  0  0  0  0
   56.6610   25.0380   46.1620 C   0  0  0  0  0  0  0  0  0  0  0  0
   56.4500   26.4210   46.0480 C   0  0  0  0  0  0  0  0  0  0  0  0
   55.1440   26.9020   45.9900 O   0  0  0  0  0  0  0  0  0  0  0  0
   57.5100   27.2890   45.9780 N   0  0  0  0  0  0  0  0  0  0  0  0
   57.2440   28.7360   45.8200 C   0  0  0  0  0  0  0  0  0  0  0  0
   56.3030   29.0100   44.6370 C   0  0  0  0  0  0  0  0  0  0  0  0
   56.5860   30.3360   43.9680 C   0  0  0  0  0  0  0  0  0  0  0  0
   56.6540   30.4230   42.6280 C   0  0  0  0  0  0  0  0  0  0  0  0
   57.0340   31.7310   41.9910 C   0  0  0  0  0  0  0  0  0  0  0  0
   58.2490   32.3500   42.7090 C   0  0  0  0  0  0  0  0  0  0  0  0
   58.1970   32.2270   44.2560 C   0  0  0  0  0  0  0  0  0  0  0  0
   56.9080   31.5700   44.7780 C   0  0  0  0  0  0  0  0  0  0  0  0
   58.7970   26.7950   46.0190 C   0  0  0  0  0  0  0  0  0  0  0  0
   60.2460   27.8790   45.9190 S   0  0  0  0  0  0  0  0  0  0  0  0
   60.0920   28.6420   47.5760 C   0  0  0  0  0  0  0  0  0  0  0  0
   59.9130   30.1320   47.5050 C   0  0  0  0  0  0  0  0  0  0  0  0
   58.8080   30.7430   48.1140 C   0  0  0  0  0  0  0  0  0  0  0  0
   58.6530   32.1310   48.0640 C   0  0  0  0  0  0  0  0  0  0  0  0
   59.5950   32.9270   47.3830 C   0  0  0  0  0  0  0  0  0  0  0  0
   59.4710   34.3200   47.2830 O   0  0  0  0  0  0  0  0  0  0  0  0
   59.6240   35.0540   46.0730 C   0  0  0  0  0  0  0  0  0  0  0  0
   60.6960   32.3110   46.7760 C   0  0  0  0  0  0  0  0  0  0  0  0
   60.8580   30.9240   46.8360 C   0  0  0  0  0  0  0  0  0  0  0  0
   59.0070   25.4510   46.0650 N   0  0  0  0  0  0  0  0  0  0  0  0
   57.9800   24.5720   46.1680 C   0  0  0  0  0  0  0  0  0  0  0  0
   58.2240   23.3390   46.2660 O   0  0  0  0  0  0  0  0  0  0  0  0
   53.6761   23.7340   45.2180 H   0  0  0  0  0  0  0  0  0  0  0  0
   54.8205   24.8726   44.4302 H   0  0  0  0  0  0  0  0  0  0  0  0
   55.1647   23.1096   44.4302 H   0  0  0  0  0  0  0  0  0  0  0  0
   54.8120   24.4825   47.0921 H   0  0  0  0  0  0  0  0  0  0  0  0
   55.8778   23.1031   46.6250 H   0  0  0  0  0  0  0  0  0  0  0  0
   56.7796   29.1167   46.7416 H   0  0  0  0  0  0  0  0  0  0  0  0
   58.2003   29.2432   45.6247 H   0  0  0  0  0  0  0  0  0  0  0  0
   56.4258   28.2071   43.8951 H   0  0  0  0  0  0  0  0  0  0  0  0
   55.2755   29.0452   45.0281 H   0  0  0  0  0  0  0  0  0  0  0  0
   56.4336   29.5450   42.0031 H   0  0  0  0  0  0  0  0  0  0  0  0
   57.2873   31.5587   40.9345 H   0  0  0  0  0  0  0  0  0  0  0  0
   56.1838   32.4245   42.0697 H   0  0  0  0  0  0  0  0  0  0  0  0
   59.1574   31.8429   42.3518 H   0  0  0  0  0  0  0  0  0  0  0  0
   58.2445   33.4247   42.4743 H   0  0  0  0  0  0  0  0  0  0  0  0
   59.0542   31.6216   44.5858 H   0  0  0  0  0  0  0  0  0  0  0  0
   58.2258   33.2489   44.6622 H   0  0  0  0  0  0  0  0  0  0  0  0
   57.0456   31.2870   45.8320 H   0  0  0  0  0  0  0  0  0  0  0  0
   56.0779   32.2859   44.6865 H   0  0  0  0  0  0  0  0  0  0  0  0
   59.2210   28.2053   48.0866 H   0  0  0  0  0  0  0  0  0  0  0  0
   61.0234   28.4415   48.1259 H   0  0  0  0  0  0  0  0  0  0  0  0
   58.0594   30.1270   48.6337 H   0  0  0  0  0  0  0  0  0  0  0  0
   57.7918   32.6040   48.5585 H   0  0  0  0  0  0  0  0  0  0  0  0
   59.8433   36.1061   46.3076 H   0  0  0  0  0  0  0  0  0  0  0  0
   60.4527   34.6283   45.4882 H   0  0  0  0  0  0  0  0  0  0  0  0
   58.6942   34.9948   45.4882 H   0  0  0  0  0  0  0  0  0  0  0  0
   61.4404   32.9242   46.2470 H   0  0  0  0  0  0  0  0  0  0  0  0
   61.7288   30.4522   46.3574 H   0  0  0  0  0  0  0  0  0  0  0  0
   59.9840   25.0800   46.0380 H   0  0  0  0  0  0  0  0  0  0  0  0
  1  2  1  0
  2  3  1  0
  3  4  2  0
  4  5  1  0
  4  6  1  0
  6  7  1  0
  7  8  1  0
  8  9  1  0
  9 10  2  0
 10 11  1  0
 11 12  1  0
 12 13  1  0
 13 14  1  0
  6 15  1  0
 15 16  1  0
 16 17  1  0
 17 18  1  0
 18 19  2  0
 19 20  1  0
 20 21  2  0
 21 22  1  0
 22 23  1  0
 21 24  1  0
 24 25  2  0
 15 26  2  0
 26 27  1  0
 27 28  2  0
 27  3  1  0
 14  9  1  0
 25 18  1  0
  1 29  1  0
  1 30  1  0
  1 31  1  0
  2 32  1  0
  2 33  1  0
  7 34  1  0
  7 35  1  0
  8 36  1  0
  8 37  1  0
 10 38  1  0
 11 39  1  0
 11 40  1  0
 12 41  1  0
 12 42  1  0
 13 43  1  0
 13 44  1  0
 14 45  1  0
 14 46  1  0
 17 47  1  0
 17 48  1  0
 19 49  1  0
 20 50  1  0
 23 51  1  0
 23 52  1  0
 23 53  1  0
 24 54  1  0
 25 55  1  0
 26 56  1  0
M  CHG  2   5  -1  26   1
M  END
>  <UniqueID>  (33) 
28

>  <SMILES>  (33) 
CCc1c([O-])n(CCC2=CCCCC2)c(SCc2ccc(OC)cc2)[nH+]c1=O

>  <Energy>  (33) 
50.93534983705881

>  <Genealogy>  (33) 
CCc1c([O-])n(CCC2=CCCCC2)c(SCc2ccc(OC)cc2)[nH+]c1=O (protonated)
CCc1c([O-])n(CCC2=CCCCC2)c(SCc2ccc(OC)cc2)[nH+]c1=O (3D coordinates assigned)
CCc1c([O-])n(CCC2=CCCCC2)c(SCc2ccc(OC)cc2)[nH+]c1=O (nonaromatic ring conformer: 50.93534983705881 kcal/mol)

>  <smiles>  (33) 
CCc1c(O)n(CCC2=CCCCC2)c(SCc2ccc(OC)cc2)nc1=O

>  <score_type>  (33) 
oracle

>  <origin>  (33) 
adg

>  <m_score__min__energy>  (33) 
-9.4499999999999993

>  <m_primary>  (33) 
energy

$$$$
33:0
     RDKit          3D

 60 62  0  0  0  0  0  0  0  0999 V2000
   62.6690   31.5370   47.7660 C   0  0  0  0  0  0  0  0  0  0  0  0
   61.2170   31.3990   47.8370 N   0  0  0  0  0  0  0  0  0  0  0  0
   60.5280   30.1530   47.6310 C   0  0  0  0  0  0  0  0  0  0  0  0
   59.6030   29.7140   48.5930 C   0  0  0  0  0  0  0  0  0  0  0  0
   58.9030   28.5170   48.4070 C   0  0  0  0  0  0  0  0  0  0  0  0
   59.1080   27.7460   47.2500 C   0  0  0  0  0  0  0  0  0  0  0  0
   58.4300   26.4990   47.0430 N   0  0  0  0  0  0  0  0  0  0  0  0
   57.2620   26.3150   46.2340 C   0  0  0  0  0  0  0  0  0  0  0  0
   56.1210   26.3740   46.7630 O   0  0  0  0  0  0  0  0  0  0  0  0
   57.3930   26.1220   44.7710 C   0  0  0  0  0  0  0  0  0  0  0  0
   57.7730   27.0720   43.8340 C   0  0  0  0  0  0  0  0  0  0  0  0
   58.1290   28.4420   44.0770 N   0  0  0  0  0  0  0  0  0  0  0  0
   57.2060   29.4230   44.5780 C   0  0  0  0  0  0  0  0  0  0  0  0
   56.0260   29.0920   44.8710 O   0  0  0  0  0  0  0  0  0  0  0  0
   57.6180   30.8410   44.7030 C   0  0  0  0  0  0  0  0  0  0  0  0
   58.0860   31.3200   45.9410 C   0  0  0  0  0  0  0  0  0  0  0  0
   58.4110   32.6760   46.1090 C   0  0  0  0  0  0  0  0  0  0  0  0
   58.8140   33.2080   47.3770 N   0  0  0  0  0  0  0  0  0  0  0  0
   60.0660   34.3900   47.6100 S   0  0  0  0  0  0  0  0  0  0  0  0
   61.2960   33.9810   46.8410 O   0  0  0  0  0  0  0  0  0  0  0  0
   59.5980   35.7310   47.1190 O   0  0  0  0  0  0  0  0  0  0  0  0
   60.4790   34.4920   49.3010 N   0  0  0  0  0  0  0  0  0  0  0  0
   61.9110   34.2120   49.4620 C   0  0  0  0  0  0  0  0  0  0  0  0
   59.6870   33.5130   50.0570 C   0  0  0  0  0  0  0  0  0  0  0  0
   58.3190   33.5430   45.0180 C   0  0  0  0  0  0  0  0  0  0  0  0
   57.8550   33.0810   43.7860 C   0  0  0  0  0  0  0  0  0  0  0  0
   57.4780   31.7350   43.6200 C   0  0  0  0  0  0  0  0  0  0  0  0
   56.9950   31.2540   42.3900 O   0  0  0  0  0  0  0  0  0  0  0  0
   57.0490   31.9690   41.1590 C   0  0  0  0  0  0  0  0  0  0  0  0
   57.7830   26.4120   42.6170 C   0  0  0  0  0  0  0  0  0  0  0  0
   57.4280   25.1300   42.8140 N   0  0  0  0  0  0  0  0  0  0  0  0
   57.1980   24.9570   44.1080 N   0  0  0  0  0  0  0  0  0  0  0  0
   56.7940   23.6720   44.6740 C   0  0  0  0  0  0  0  0  0  0  0  0
   60.0490   28.1670   46.3030 C   0  0  0  0  0  0  0  0  0  0  0  0
   60.7420   29.3680   46.4790 C   0  0  0  0  0  0  0  0  0  0  0  0
   63.0838   31.5764   48.7840 H   0  0  0  0  0  0  0  0  0  0  0  0
   63.0935   30.6752   47.2302 H   0  0  0  0  0  0  0  0  0  0  0  0
   62.9235   32.4634   47.2302 H   0  0  0  0  0  0  0  0  0  0  0  0
   60.6560   32.2640   47.9950 H   0  0  0  0  0  0  0  0  0  0  0  0
   59.4281   30.3149   49.4976 H   0  0  0  0  0  0  0  0  0  0  0  0
   58.1880   28.1774   49.1708 H   0  0  0  0  0  0  0  0  0  0  0  0
   59.0630   28.7720   43.7580 H   0  0  0  0  0  0  0  0  0  0  0  0
   58.1984   30.6248   46.7860 H   0  0  0  0  0  0  0  0  0  0  0  0
   62.1570   34.1639   50.5331 H   0  0  0  0  0  0  0  0  0  0  0  0
   62.1521   33.2497   48.9868 H   0  0  0  0  0  0  0  0  0  0  0  0
   62.4968   35.0126   48.9868 H   0  0  0  0  0  0  0  0  0  0  0  0
   59.8250   33.6836   51.1349 H   0  0  0  0  0  0  0  0  0  0  0  0
   58.6231   33.6260   49.8012 H   0  0  0  0  0  0  0  0  0  0  0  0
   60.0197   32.4962   49.8012 H   0  0  0  0  0  0  0  0  0  0  0  0
   58.6142   34.5966   45.1307 H   0  0  0  0  0  0  0  0  0  0  0  0
   57.7831   33.7755   42.9360 H   0  0  0  0  0  0  0  0  0  0  0  0
   57.1304   33.0466   41.3642 H   0  0  0  0  0  0  0  0  0  0  0  0
   57.9247   31.6386   40.5812 H   0  0  0  0  0  0  0  0  0  0  0  0
   56.1336   31.7739   40.5812 H   0  0  0  0  0  0  0  0  0  0  0  0
   58.0395   26.8628   41.6470 H   0  0  0  0  0  0  0  0  0  0  0  0
   56.8131   23.7328   45.7722 H   0  0  0  0  0  0  0  0  0  0  0  0
   55.7756   23.4273   44.3380 H   0  0  0  0  0  0  0  0  0  0  0  0
   57.4892   22.8885   44.3380 H   0  0  0  0  0  0  0  0  0  0  0  0
   60.2443   27.5486   45.4145 H   0  0  0  0  0  0  0  0  0  0  0  0
   61.4585   29.7029   45.7145 H   0  0  0  0  0  0  0  0  0  0  0  0
  1  2  1  0
  2  3  1  0
  3  4  2  0
  4  5  1  0
  5  6  2  0
  6  7  1  0
  7  8  1  0
  8  9  2  0
  8 10  1  0
 10 11  2  0
 11 12  1  0
 12 13  1  0
 13 14  2  0
 13 15  1  0
 15 16  2  0
 16 17  1  0
 17 18  1  0
 18 19  1  0
 19 20  2  0
 19 21  2  0
 19 22  1  0
 22 23  1  0
 22 24  1  0
 17 25  2  0
 25 26  1  0
 26 27  2  0
 27 28  1  0
 28 29  1  0
 11 30  1  0
 30 31  2  0
 31 32  1  0
 32 33  1  0
  6 34  1  0
 34 35  2  0
 35  3  1  0
 32 10  1  0
 27 15  1  0
  1 36  1  0
  1 37  1  0
  1 38  1  0
  2 39  1  0
  4 40  1  0
  5 41  1  0
 12 42  1  0
 16 43  1  0
 23 44  1  0
 23 45  1  0
 23 46  1  0
 24 47  1  0
 24 48  1  0
 24 49  1  0
 25 50  1  0
 26 51  1  0
 29 52  1  0
 29 53  1  0
 29 54  1  0
 30 55  1  0
 33 56  1  0
 33 57  1  0
 33 58  1  0
 34 59  1  0
 35 60  1  0
M  CHG  2   7  -1  18  -1
M  END
>  <UniqueID>  (34) 
29

>  <SMILES>  (34) 
CNc1ccc([N-]C(=O)c2c(NC(=O)c3cc([N-]S(=O)(=O)N(C)C)ccc3OC)cnn2C)cc1

>  <Energy>  (34) 
104.12574536042268

>  <Genealogy>  (34) 
CNc1ccc([N-]C(=O)c2c(NC(=O)c3cc([N-]S(=O)(=O)N(C)C)ccc3OC)cnn2C)cc1 (protonated)
CNc1ccc([N-]C(=O)c2c(NC(=O)c3cc([N-]S(=O)(=O)N(C)C)ccc3OC)cnn2C)cc1 (3D coordinates assigned)
CNc1ccc([N-]C(=O)c2c(NC(=O)c3cc([N-]S(=O)(=O)N(C)C)ccc3OC)cnn2C)cc1 (optimized conformer: 104.12574536042268 kcal/mol)

>  <smiles>  (34) 
CNc1ccc(NC(=O)c2c(NC(=O)c3cc(NS(=O)(=O)N(C)C)ccc3OC)cnn2C)cc1

>  <score_type>  (34) 
oracle

>  <origin>  (34) 
adg

>  <m_score__min__energy>  (34) 
-11.029999999999999

>  <m_primary>  (34) 
energy

$$$$
34:0
     RDKit          3D

 46 48  0  0  0  0  0  0  0  0999 V2000
   54.8660   23.8000   46.5150 C   0  0  0  0  0  0  0  0  0  0  0  0
   55.8780   24.8850   46.3300 C   0  0  0  0  0  0  0  0  0  0  0  0
   57.2230   24.6570   46.6330 C   0  0  0  0  0  0  0  0  0  0  0  0
   58.1490   25.6800   46.4340 C   0  0  0  0  0  0  0  0  0  0  0  0
   57.7290   26.9190   45.9490 C   0  0  0  0  0  0  0  0  0  0  0  0
   56.3590   27.1340   45.6810 C   0  0  0  0  0  0  0  0  0  0  0  0
   55.8830   28.2710   45.2510 N   0  0  0  0  0  0  0  0  0  0  0  0
   56.5840   29.3830   44.6740 C   0  0  0  0  0  0  0  0  0  0  0  0
   57.1100   30.4010   45.3830 N   0  0  0  0  0  0  0  0  0  0  0  0
   57.5830   31.4030   44.5920 C   0  0  0  0  0  0  0  0  0  0  0  0
   58.2180   32.6200   45.1710 C   0  0  0  0  0  0  0  0  0  0  0  0
   58.2510   33.8230   44.4380 C   0  0  0  0  0  0  0  0  0  0  0  0
   58.8640   34.9620   44.9620 C   0  0  0  0  0  0  0  0  0  0  0  0
   59.4490   34.9220   46.2260 C   0  0  0  0  0  0  0  0  0  0  0  0
   59.4320   33.7410   46.9680 C   0  0  0  0  0  0  0  0  0  0  0  0
   58.8310   32.5810   46.4490 C   0  0  0  0  0  0  0  0  0  0  0  0
   58.7840   31.3980   47.2020 O   0  0  0  0  0  0  0  0  0  0  0  0
   59.5990   31.0930   48.3000 C   0  0  0  0  0  0  0  0  0  0  0  0
   60.4490   30.1640   48.2250 O   0  0  0  0  0  0  0  0  0  0  0  0
   59.4160   31.8040   49.5380 N   0  0  0  0  0  0  0  0  0  0  0  0
   60.4790   32.6830   50.0330 C   0  0  0  0  0  0  0  0  0  0  0  0
   58.1690   31.6490   50.2970 C   0  0  0  0  0  0  0  0  0  0  0  0
   58.1220   30.2980   50.9420 C   0  0  0  0  0  0  0  0  0  0  0  0
   59.2160   29.3890   50.8080 N   0  0  0  0  0  0  0  0  0  0  0  0
   57.0990   29.9530   51.5940 O   0  0  0  0  0  0  0  0  0  0  0  0
   57.3960   31.1840   43.2220 C   0  0  0  0  0  0  0  0  0  0  0  0
   56.6220   29.7010   43.0290 S   0  0  0  0  0  0  0  0  0  0  0  0
   55.4880   26.1040   45.8650 N   0  0  0  0  0  0  0  0  0  0  0  0
   54.7054   23.6278   47.5895 H   0  0  0  0  0  0  0  0  0  0  0  0
   53.9173   24.0996   46.0458 H   0  0  0  0  0  0  0  0  0  0  0  0
   55.2309   22.8744   46.0458 H   0  0  0  0  0  0  0  0  0  0  0  0
   57.5474   23.6814   47.0241 H   0  0  0  0  0  0  0  0  0  0  0  0
   59.2121   25.5101   46.6596 H   0  0  0  0  0  0  0  0  0  0  0  0
   58.4598   27.7228   45.7765 H   0  0  0  0  0  0  0  0  0  0  0  0
   57.7881   33.8648   43.4410 H   0  0  0  0  0  0  0  0  0  0  0  0
   58.8854   35.8928   44.3762 H   0  0  0  0  0  0  0  0  0  0  0  0
   59.9251   35.8234   46.6394 H   0  0  0  0  0  0  0  0  0  0  0  0
   59.8923   33.7172   47.9668 H   0  0  0  0  0  0  0  0  0  0  0  0
   60.4750   32.6797   51.1330 H   0  0  0  0  0  0  0  0  0  0  0  0
   61.4523   32.3224   49.6688 H   0  0  0  0  0  0  0  0  0  0  0  0
   60.3076   33.7067   49.6688 H   0  0  0  0  0  0  0  0  0  0  0  0
   58.1179   32.4252   51.0748 H   0  0  0  0  0  0  0  0  0  0  0  0
   57.3155   31.7494   49.6104 H   0  0  0  0  0  0  0  0  0  0  0  0
   60.0830   29.6660   50.2960 H   0  0  0  0  0  0  0  0  0  0  0  0
   59.1640   28.4390   51.2380 H   0  0  0  0  0  0  0  0  0  0  0  0
   57.7016   31.8628   42.4122 H   0  0  0  0  0  0  0  0  0  0  0  0
  1  2  1  0
  2  3  2  0
  3  4  1  0
  4  5  2  0
  5  6  1  0
  6  7  2  3
  7  8  1  0
  8  9  2  0
  9 10  1  0
 10 11  1  0
 11 12  2  0
 12 13  1  0
 13 14  2  0
 14 15  1  0
 15 16  2  0
 16 17  1  0
 17 18  1  0
 18 19  2  0
 18 20  1  0
 20 21  1  0
 20 22  1  0
 22 23  1  0
 23 24  1  0
 23 25  2  0
 10 26  2  0
 26 27  1  0
  6 28  1  0
 28  2  1  0
 27  8  1  0
 16 11  1  0
  1 29  1  0
  1 30  1  0
  1 31  1  0
  3 32  1  0
  4 33  1  0
  5 34  1  0
 12 35  1  0
 13 36  1  0
 14 37  1  0
 15 38  1  0
 21 39  1  0
 21 40  1  0
 21 41  1  0
 22 42  1  0
 22 43  1  0
 24 44  1  0
 24 45  1  0
 26 46  1  0
M  CHG  1  28  -1
M  END
>  <UniqueID>  (35) 
30

>  <SMILES>  (35) 
Cc1cccc(=Nc2nc(-c3ccccc3OC(=O)N(C)CC(N)=O)cs2)[n-]1

>  <Energy>  (35) 
83.50745925466019

>  <Genealogy>  (35) 
Cc1cccc(=Nc2nc(-c3ccccc3OC(=O)N(C)CC(N)=O)cs2)[n-]1 (protonated)
Cc1cccc(=Nc2nc(-c3ccccc3OC(=O)N(C)CC(N)=O)cs2)[n-]1 (3D coordinates assigned)
Cc1cccc(=Nc2nc(-c3ccccc3OC(=O)N(C)CC(N)=O)cs2)[n-]1 (optimized conformer: 83.50745925466019 kcal/mol)

>  <smiles>  (35) 
Cc1cccc(=Nc2nc(-c3ccccc3OC(=O)N(C)CC(N)=O)cs2)[nH]1

>  <score_type>  (35) 
oracle

>  <origin>  (35) 
adg

>  <m_score__min__energy>  (35) 
-10.24

>  <m_primary>  (35) 
energy

$$$$
35:0
     RDKit          3D

 27 28  0  0  0  0  0  0  0  0999 V2000
   61.1080   30.2540   48.8040 C   0  0  0  0  0  0  0  0  0  0  0  0
   61.3860   30.8310   47.1010 S   0  0  0  0  0  0  0  0  0  0  0  0
   62.4010   32.2210   47.6140 C   0  0  0  0  0  0  0  0  0  0  0  0
   63.7300   32.2810   47.4060 N   0  0  0  0  0  0  0  0  0  0  0  0
   64.1200   33.4650   47.9140 C   0  0  0  0  0  0  0  0  0  0  0  0
   63.0150   34.1080   48.4330 C   0  0  0  0  0  0  0  0  0  0  0  0
   61.9390   33.3190   48.2480 N   0  0  0  0  0  0  0  0  0  0  0  0
   60.5650   33.6130   48.6590 C   0  0  0  0  0  0  0  0  0  0  0  0
   59.6850   33.8150   47.4560 C   0  0  0  0  0  0  0  0  0  0  0  0
   58.4290   33.1900   47.3890 C   0  0  0  0  0  0  0  0  0  0  0  0
   57.6010   33.3900   46.2800 C   0  0  0  0  0  0  0  0  0  0  0  0
   58.0210   34.2100   45.2300 C   0  0  0  0  0  0  0  0  0  0  0  0
   59.2720   34.8320   45.2870 C   0  0  0  0  0  0  0  0  0  0  0  0
   60.1040   34.6340   46.3930 C   0  0  0  0  0  0  0  0  0  0  0  0
   61.4733   31.0122   49.5123 H   0  0  0  0  0  0  0  0  0  0  0  0
   60.0322   30.0903   48.9647 H   0  0  0  0  0  0  0  0  0  0  0  0
   61.6504   29.3106   48.9647 H   0  0  0  0  0  0  0  0  0  0  0  0
   64.3320   31.5650   46.9390 H   0  0  0  0  0  0  0  0  0  0  0  0
   65.1485   33.8550   47.9152 H   0  0  0  0  0  0  0  0  0  0  0  0
   63.0131   35.0965   48.9156 H   0  0  0  0  0  0  0  0  0  0  0  0
   60.1776   32.7724   49.2534 H   0  0  0  0  0  0  0  0  0  0  0  0
   60.5635   34.5352   49.2587 H   0  0  0  0  0  0  0  0  0  0  0  0
   58.0954   32.5408   48.2119 H   0  0  0  0  0  0  0  0  0  0  0  0
   56.6169   32.9006   46.2344 H   0  0  0  0  0  0  0  0  0  0  0  0
   57.3679   34.3663   44.3588 H   0  0  0  0  0  0  0  0  0  0  0  0
   59.6021   35.4782   44.4603 H   0  0  0  0  0  0  0  0  0  0  0  0
   61.0897   35.1207   46.4316 H   0  0  0  0  0  0  0  0  0  0  0  0
  1  2  1  0
  2  3  1  0
  3  4  2  0
  4  5  1  0
  5  6  2  0
  6  7  1  0
  7  8  1  0
  8  9  1  0
  9 10  2  0
 10 11  1  0
 11 12  2  0
 12 13  1  0
 13 14  2  0
  7  3  1  0
 14  9  1  0
  1 15  1  0
  1 16  1  0
  1 17  1  0
  4 18  1  0
  5 19  1  0
  6 20  1  0
  8 21  1  0
  8 22  1  0
 10 23  1  0
 11 24  1  0
 12 25  1  0
 13 26  1  0
 14 27  1  0
M  CHG  1   4   1
M  END
>  <UniqueID>  (36) 
31

>  <SMILES>  (36) 
CSc1[nH+]ccn1Cc1ccccc1

>  <Energy>  (36) 
51.280405831710056

>  <Genealogy>  (36) 
CSc1[nH+]ccn1Cc1ccccc1 (protonated)
CSc1[nH+]ccn1Cc1ccccc1 (3D coordinates assigned)
CSc1[nH+]ccn1Cc1ccccc1 (optimized conformer: 51.280405831710056 kcal/mol)

>  <smiles>  (36) 
CSc1nccn1Cc1ccccc1

>  <score_type>  (36) 
oracle

>  <origin>  (36) 
adg

>  <m_score__min__energy>  (36) 
-4.1500000000000004

>  <m_primary>  (36) 
energy

$$$$
36:0
     RDKit          3D

 49 52  0  0  0  0  0  0  0  0999 V2000
   62.8910   33.8970   47.1020 C   0  0  0  0  0  0  0  0  0  0  0  0
   63.3160   33.2070   48.3970 C   0  0  2  0  0  0  0  0  0  0  0  0
   62.9860   31.7780   48.3230 N   0  0  0  0  0  0  0  0  0  0  0  0
   61.7860   31.2310   48.8910 C   0  0  0  0  0  0  0  0  0  0  0  0
   61.3560   29.9420   48.5430 C   0  0  0  0  0  0  0  0  0  0  0  0
   60.1860   29.4020   49.1080 C   0  0  0  0  0  0  0  0  0  0  0  0
   59.7270   28.0440   48.7340 C   0  0  0  0  0  0  0  0  0  0  0  0
   60.3870   27.0340   49.1020 O   0  0  0  0  0  0  0  0  0  0  0  0
   58.5060   27.8750   48.0010 N   0  0  0  0  0  0  0  0  0  0  0  0
   58.3520   27.9560   46.5750 C   0  0  0  0  0  0  0  0  0  0  0  0
   57.4600   28.8730   45.9880 C   0  0  0  0  0  0  0  0  0  0  0  0
   57.3010   28.9170   44.5960 C   0  0  0  0  0  0  0  0  0  0  0  0
   56.1820   30.0740   43.8830 S   0  0  0  0  0  0  0  0  0  0  0  0
   56.6560   30.4270   42.5010 O   0  0  0  0  0  0  0  0  0  0  0  0
   54.8130   29.4580   43.8190 O   0  0  0  0  0  0  0  0  0  0  0  0
   56.1290   31.5140   44.8500 N   0  0  0  0  0  0  0  0  0  0  0  0
   57.2290   32.4080   45.0630 C   0  0  0  0  0  0  0  0  0  0  0  0
   57.8850   32.9400   43.9450 C   0  0  0  0  0  0  0  0  0  0  0  0
   58.9630   33.8150   44.1070 C   0  0  0  0  0  0  0  0  0  0  0  0
   59.3930   34.1680   45.3880 C   0  0  0  0  0  0  0  0  0  0  0  0
   58.7450   33.6440   46.5120 C   0  0  0  0  0  0  0  0  0  0  0  0
   59.2840   34.0880   48.1200 Cl  0  0  0  0  0  0  0  0  0  0  0  0
   57.6660   32.7650   46.3530 C   0  0  0  0  0  0  0  0  0  0  0  0
   58.0320   28.0400   43.7860 C   0  0  0  0  0  0  0  0  0  0  0  0
   58.8990   27.1110   44.3630 C   0  0  0  0  0  0  0  0  0  0  0  0
   59.0570   27.0560   45.7520 C   0  0  0  0  0  0  0  0  0  0  0  0
   59.9250   26.1060   46.2920 O   0  0  0  0  0  0  0  0  0  0  0  0
   59.4560   30.1740   50.0310 C   0  0  0  0  0  0  0  0  0  0  0  0
   59.8870   31.4560   50.3810 C   0  0  0  0  0  0  0  0  0  0  0  0
   61.0490   31.9840   49.8140 C   0  0  0  0  0  0  0  0  0  0  0  0
   61.5050   33.2820   50.1930 N   0  0  0  0  0  0  0  0  0  0  0  0
   62.6550   33.8680   49.5800 C   0  0  0  0  0  0  0  0  0  0  0  0
   63.0870   34.9720   50.0050 O   0  0  0  0  0  0  0  0  0  0  0  0
   62.3279   34.8112   47.3413 H   0  0  0  0  0  0  0  0  0  0  0  0
   63.7842   34.1594   46.5161 H   0  0  0  0  0  0  0  0  0  0  0  0
   62.2548   33.2173   46.5161 H   0  0  0  0  0  0  0  0  0  0  0  0
   64.4039   33.3030   48.5282 H   0  0  0  0  0  0  0  0  0  0  0  0
   63.5650   31.1780   47.6930 H   0  0  0  0  0  0  0  0  0  0  0  0
   61.9381   29.3486   47.8226 H   0  0  0  0  0  0  0  0  0  0  0  0
   56.8839   29.5596   46.6258 H   0  0  0  0  0  0  0  0  0  0  0  0
   57.5496   32.6674   42.9335 H   0  0  0  0  0  0  0  0  0  0  0  0
   59.4736   34.2263   43.2238 H   0  0  0  0  0  0  0  0  0  0  0  0
   60.2407   34.8577   45.5133 H   0  0  0  0  0  0  0  0  0  0  0  0
   57.1590   32.3527   47.2379 H   0  0  0  0  0  0  0  0  0  0  0  0
   57.9228   28.0832   42.6923 H   0  0  0  0  0  0  0  0  0  0  0  0
   59.4620   26.4173   43.7213 H   0  0  0  0  0  0  0  0  0  0  0  0
   60.1310   26.0580   47.2820 H   0  0  0  0  0  0  0  0  0  0  0  0
   58.5391   29.7648   50.4803 H   0  0  0  0  0  0  0  0  0  0  0  0
   59.3100   32.0507   51.1045 H   0  0  0  0  0  0  0  0  0  0  0  0
  1  2  1  0
  2  3  1  0
  3  4  1  0
  4  5  2  0
  5  6  1  0
  6  7  1  0
  7  8  2  0
  7  9  1  0
  9 10  1  0
 10 11  2  0
 11 12  1  0
 12 13  1  0
 13 14  2  0
 13 15  2  0
 13 16  1  0
 16 17  1  0
 17 18  2  0
 18 19  1  0
 19 20  2  0
 20 21  1  0
 21 22  1  0
 21 23  2  0
 12 24  2  0
 24 25  1  0
 25 26  2  0
 26 27  1  0
  6 28  2  0
 28 29  1  0
 29 30  2  0
 30 31  1  0
 31 32  1  0
 32 33  2  0
 32  2  1  0
 30  4  1  0
 26 10  1  0
 23 17  1  0
  1 34  1  0
  1 35  1  0
  1 36  1  0
  2 37  1  1
  3 38  1  0
  5 39  1  0
 11 40  1  0
 18 41  1  0
 19 42  1  0
 20 43  1  0
 23 44  1  0
 24 45  1  0
 25 46  1  0
 27 47  1  0
 28 48  1  0
 29 49  1  0
M  CHG  3   9  -1  16  -1  31  -1
M  END
>  <UniqueID>  (37) 
32

>  <SMILES>  (37) 
C[C@@H]1Nc2cc(C(=O)[N-]c3cc(S(=O)(=O)[N-]c4cccc(Cl)c4)ccc3O)ccc2[N-]C1=O

>  <Energy>  (37) 
60.14109513549707

>  <Genealogy>  (37) 
CC1Nc2cc(C(=O)[N-]c3cc(S(=O)(=O)[N-]c4cccc(Cl)c4)ccc3O)ccc2[N-]C1=O (protonated)
C[C@@H]1Nc2cc(C(=O)[N-]c3cc(S(=O)(=O)[N-]c4cccc(Cl)c4)ccc3O)ccc2[N-]C1=O (chirality)
C[C@@H]1Nc2cc(C(=O)[N-]c3cc(S(=O)(=O)[N-]c4cccc(Cl)c4)ccc3O)ccc2[N-]C1=O (3D coordinates assigned)
C[C@@H]1Nc2cc(C(=O)[N-]c3cc(S(=O)(=O)[N-]c4cccc(Cl)c4)ccc3O)ccc2[N-]C1=O (nonaromatic ring conformer: 60.14109513549707 kcal/mol)

>  <smiles>  (37) 
CC1Nc2cc(C(=O)Nc3cc(S(=O)(=O)Nc4cccc(Cl)c4)ccc3O)ccc2NC1=O

>  <score_type>  (37) 
oracle

>  <origin>  (37) 
adg

>  <m_score__min__energy>  (37) 
-14.07

>  <m_primary>  (37) 
energy

$$$$
37:0
     RDKit          3D

 35 37  0  0  0  0  0  0  0  0999 V2000
   57.8970   26.7590   47.5270 O   0  0  0  0  0  0  0  0  0  0  0  0
   57.4440   26.8000   46.3530 C   0  0  0  0  0  0  0  0  0  0  0  0
   58.0470   27.7020   45.4150 N   0  0  0  0  0  0  0  0  0  0  0  0
   58.0550   29.1340   45.5030 C   0  0  0  0  0  0  0  0  0  0  0  0
   58.6610   29.8060   46.5800 C   0  0  0  0  0  0  0  0  0  0  0  0
   58.6620   31.2020   46.6270 C   0  0  0  0  0  0  0  0  0  0  0  0
   58.0760   31.9440   45.5940 C   0  0  0  0  0  0  0  0  0  0  0  0
   58.0930   33.7030   45.6550 S   0  0  0  0  0  0  0  0  0  0  0  0
   57.4980   34.1510   46.9600 O   0  0  0  0  0  0  0  0  0  0  0  0
   57.2890   34.2800   44.5240 O   0  0  0  0  0  0  0  0  0  0  0  0
   59.7240   34.2840   45.5400 N   0  0  0  0  0  0  0  0  0  0  0  0
   60.6860   34.1280   46.5910 C   0  0  0  0  0  0  0  0  0  0  0  0
   60.3380   34.2510   47.9440 C   0  0  0  0  0  0  0  0  0  0  0  0
   61.4050   34.0610   48.8110 C   0  0  0  0  0  0  0  0  0  0  0  0
   62.7730   33.7410   47.8900 S   0  0  0  0  0  0  0  0  0  0  0  0
   62.0340   33.8410   46.3850 C   0  0  0  0  0  0  0  0  0  0  0  0
   57.4870   31.2770   44.5110 C   0  0  0  0  0  0  0  0  0  0  0  0
   57.4850   29.8800   44.4630 C   0  0  0  0  0  0  0  0  0  0  0  0
   56.3410   25.8900   45.9780 C   0  0  0  0  0  0  0  0  0  0  0  0
   56.5720   24.5470   45.6480 C   0  0  0  0  0  0  0  0  0  0  0  0
   55.4930   23.7320   45.3120 C   0  0  0  0  0  0  0  0  0  0  0  0
   54.2070   24.2680   45.3290 C   0  0  0  0  0  0  0  0  0  0  0  0
   53.2140   23.5530   45.0320 O   0  0  0  0  0  0  0  0  0  0  0  0
   54.0270   25.5690   45.6750 N   0  0  0  0  0  0  0  0  0  0  0  0
   55.0610   26.3520   45.9920 N   0  0  0  0  0  0  0  0  0  0  0  0
   59.1358   29.2301   47.3880 H   0  0  0  0  0  0  0  0  0  0  0  0
   59.1252   31.7208   47.4792 H   0  0  0  0  0  0  0  0  0  0  0  0
   59.9970   34.7990   44.6730 H   0  0  0  0  0  0  0  0  0  0  0  0
   59.3169   34.4765   48.2854 H   0  0  0  0  0  0  0  0  0  0  0  0
   61.3624   34.1112   49.9090 H   0  0  0  0  0  0  0  0  0  0  0  0
   62.5262   33.7044   45.4108 H   0  0  0  0  0  0  0  0  0  0  0  0
   57.0251   31.8545   43.6967 H   0  0  0  0  0  0  0  0  0  0  0  0
   57.0332   29.3632   43.6035 H   0  0  0  0  0  0  0  0  0  0  0  0
   57.5943   24.1411   45.6543 H   0  0  0  0  0  0  0  0  0  0  0  0
   55.6543   22.6792   45.0369 H   0  0  0  0  0  0  0  0  0  0  0  0
  1  2  2  0
  2  3  1  0
  3  4  1  0
  4  5  2  0
  5  6  1  0
  6  7  2  0
  7  8  1  0
  8  9  2  0
  8 10  2  0
  8 11  1  0
 11 12  1  0
 12 13  1  0
 13 14  2  0
 14 15  1  0
 15 16  1  0
  7 17  1  0
 17 18  2  0
  2 19  1  0
 19 20  1  0
 20 21  2  0
 21 22  1  0
 22 23  2  0
 22 24  1  0
 24 25  1  0
 18  4  1  0
 25 19  2  0
 16 12  2  0
  5 26  1  0
  6 27  1  0
 11 28  1  0
 13 29  1  0
 14 30  1  0
 16 31  1  0
 17 32  1  0
 18 33  1  0
 20 34  1  0
 21 35  1  0
M  CHG  2   3  -1  24  -1
M  END
>  <UniqueID>  (38) 
33

>  <SMILES>  (38) 
O=C([N-]c1ccc(S(=O)(=O)Nc2ccsc2)cc1)c1ccc(=O)[n-]n1

>  <Energy>  (38) 
72.41669648645373

>  <Genealogy>  (38) 
O=C([N-]c1ccc(S(=O)(=O)Nc2ccsc2)cc1)c1ccc(=O)[n-]n1 (protonated)
O=C([N-]c1ccc(S(=O)(=O)Nc2ccsc2)cc1)c1ccc(=O)[n-]n1 (3D coordinates assigned)
O=C([N-]c1ccc(S(=O)(=O)Nc2ccsc2)cc1)c1ccc(=O)[n-]n1 (optimized conformer: 72.41669648645373 kcal/mol)

>  <smiles>  (38) 
O=C(Nc1ccc(S(=O)(=O)Nc2ccsc2)cc1)c1ccc(=O)[nH]n1

>  <score_type>  (38) 
oracle

>  <origin>  (38) 
adg

>  <m_score__min__energy>  (38) 
-12.050000000000001

>  <m_primary>  (38) 
energy

$$$$
38:0
     RDKit          3D

 47 51  0  0  0  0  0  0  0  0999 V2000
   55.1420   27.4790   45.2790 H   0  0  0  0  0  0  0  0  0  0  0  0
   55.1160   26.7550   45.9840 O   0  0  0  0  0  0  0  0  0  0  0  0
   54.9340   25.4240   45.6270 C   0  0  0  0  0  0  0  0  0  0  0  0
   53.7830   24.7500   45.8080 N   0  0  0  0  0  0  0  0  0  0  0  0
   54.0590   23.5460   45.2570 C   0  0  0  0  0  0  0  0  0  0  0  0
   53.2150   22.6140   45.2180 O   0  0  0  0  0  0  0  0  0  0  0  0
   55.3020   23.4270   44.7410 N   0  0  0  0  0  0  0  0  0  0  0  0
   55.8620   24.6210   45.0010 C   0  0  0  0  0  0  0  0  0  0  0  0
   57.2250   24.9800   44.5690 C   0  0  0  0  0  0  0  0  0  0  0  0
   57.5369   24.7010   43.5517 H   0  0  0  0  0  0  0  0  0  0  0  0
   58.1060   25.6270   45.3450 C   0  0  0  0  0  0  0  0  0  0  0  0
   59.2360   25.1300   45.9970 C   0  0  0  0  0  0  0  0  0  0  0  0
   59.5583   24.0783   45.9949 H   0  0  0  0  0  0  0  0  0  0  0  0
   59.8750   26.1420   46.6330 N   0  0  0  0  0  0  0  0  0  0  0  0
   59.1870   27.2510   46.3960 N   0  0  0  0  0  0  0  0  0  0  0  0
   59.4340   28.5280   46.8170 C   0  0  0  0  0  0  0  0  0  0  0  0
   60.4520   28.8470   47.5630 N   0  0  0  0  0  0  0  0  0  0  0  0
   60.5180   28.7830   49.0200 C   0  0  0  0  0  0  0  0  0  0  0  0
   61.0601   27.8305   49.1138 H   0  0  0  0  0  0  0  0  0  0  0  0
   60.6370   30.1420   49.6910 C   0  0  0  0  0  0  0  0  0  0  0  0
   61.1889   30.2421   50.6373 H   0  0  0  0  0  0  0  0  0  0  0  0
   60.9915   31.1357   49.3797 H   0  0  0  0  0  0  0  0  0  0  0  0
   59.2960   29.4170   49.6630 C   0  0  0  0  0  0  0  0  0  0  0  0
   58.8798   28.9940   50.5892 H   0  0  0  0  0  0  0  0  0  0  0  0
   58.2811   29.6707   49.3231 H   0  0  0  0  0  0  0  0  0  0  0  0
   58.5730   29.5060   46.4240 N   0  0  0  0  0  0  0  0  0  0  0  0
   57.5060   29.2230   45.6170 C   0  0  0  0  0  0  0  0  0  0  0  0
   56.7440   30.1940   45.2160 N   0  0  0  0  0  0  0  0  0  0  0  0
   57.1230   31.1780   44.2070 C   0  0  0  0  0  0  0  0  0  0  0  0
   57.8283   30.7216   43.4969 H   0  0  0  0  0  0  0  0  0  0  0  0
   56.2249   31.5141   43.6681 H   0  0  0  0  0  0  0  0  0  0  0  0
   57.7750   32.3540   44.8730 C   0  0  0  0  0  0  0  0  0  0  0  0
   58.0090   33.5440   44.1640 C   0  0  0  0  0  0  0  0  0  0  0  0
   57.7013   33.6236   43.1109 H   0  0  0  0  0  0  0  0  0  0  0  0
   58.6310   34.6270   44.7910 C   0  0  0  0  0  0  0  0  0  0  0  0
   58.8188   35.5534   44.2284 H   0  0  0  0  0  0  0  0  0  0  0  0
   59.0150   34.5350   46.1320 C   0  0  0  0  0  0  0  0  0  0  0  0
   59.5136   35.3875   46.6164 H   0  0  0  0  0  0  0  0  0  0  0  0
   58.7690   33.3610   46.8670 C   0  0  0  0  0  0  0  0  0  0  0  0
   59.2140   33.2510   48.3010 C   0  0  0  0  0  0  0  0  0  0  0  0
   58.2990   32.4870   49.0060 F   0  0  0  0  0  0  0  0  0  0  0  0
   59.2950   34.5040   48.8840 F   0  0  0  0  0  0  0  0  0  0  0  0
   60.4620   32.6580   48.3830 F   0  0  0  0  0  0  0  0  0  0  0  0
   58.1790   32.2630   46.2160 C   0  0  0  0  0  0  0  0  0  0  0  0
   58.0319   31.3211   46.7648 H   0  0  0  0  0  0  0  0  0  0  0  0
   57.2770   27.9380   45.2120 N   0  0  0  0  0  0  0  0  0  0  0  0
   58.1300   26.9730   45.6300 C   0  0  0  0  0  0  0  0  0  0  0  0
  1  2  1  0
  2  3  1  0
  3  4  1  0
  4  5  1  0
  5  6  2  0
  5  7  1  0
  7  8  1  0
  8  9  1  0
  9 10  1  0
  9 11  2  3
 11 12  1  0
 12 13  1  0
 12 14  2  0
 14 15  1  0
 15 16  1  0
 16 17  2  3
 17 18  1  0
 18 19  1  0
 18 20  1  0
 20 21  1  0
 20 22  1  0
 20 23  1  0
 23 24  1  0
 23 25  1  0
 16 26  1  0
 26 27  1  0
 27 28  2  0
 28 29  1  0
 29 30  1  0
 29 31  1  0
 29 32  1  0
 32 33  2  0
 33 34  1  0
 33 35  1  0
 35 36  1  0
 35 37  2  0
 37 38  1  0
 37 39  1  0
 39 40  1  0
 40 41  1  0
 40 42  1  0
 40 43  1  0
 39 44  2  0
 44 45  1  0
 27 46  1  0
 46 47  2  0
  8  3  2  0
 47 11  1  0
 47 15  1  0
 23 18  1  0
 44 32  1  0
M  CHG  3   4  -1   7  -1  26  -1
M  END
>  <UniqueID>  (39) 
34

>  <SMILES>  (39) 
O=c1[n-]c(O)c(C=c2cnn3c(=NC4CC4)[n-]/c(=N/Cc4cccc(C(F)(F)F)c4)nc23)[n-]1

>  <Energy>  (39) 
392.99286027642154

>  <Genealogy>  (39) 
O=c1[n-]c(O)c(C=c2cnn3c(=NC4CC4)[n-]c(=NCc4cccc(C(F)(F)F)c4)nc23)[n-]1 (protonated)
O=c1[n-]c(O)c(C=c2cnn3c(=NC4CC4)[n-]/c(=N/Cc4cccc(C(F)(F)F)c4)nc23)[n-]1 (cis-trans isomerization)
O=c1[n-]c(O)c(C=c2cnn3c(=NC4CC4)[n-]/c(=N/Cc4cccc(C(F)(F)F)c4)nc23)[n-]1 (3D coordinates assigned)
O=c1[n-]c(O)c(C=c2cnn3c(=NC4CC4)[n-]/c(=N/Cc4cccc(C(F)(F)F)c4)nc23)[n-]1 (nonaromatic ring conformer: 392.99286027642154 kcal/mol)

>  <smiles>  (39) 
O=c1[nH]c(O)c(C=c2cnn3c(=NC4CC4)[nH]c(=NCc4cccc(C(F)(F)F)c4)nc23)[nH]1

>  <score_type>  (39) 
oracle

>  <origin>  (39) 
adg

>  <m_score__min__energy>  (39) 
-14.539999999999999

>  <m_primary>  (39) 
energy

$$$$
39:0
     RDKit          3D

 40 43  0  0  0  0  0  0  0  0999 V2000
   50.3710   32.7230   52.0300 O   0  0  0  0  0  0  0  0  0  0  0  0
   51.1510   32.1340   51.2370 C   0  0  0  0  0  0  0  0  0  0  0  0
   51.0200   32.3570   49.8710 O   0  0  0  0  0  0  0  0  0  0  0  0
   52.1930   31.2170   51.7490 C   0  0  0  0  0  0  0  0  0  0  0  0
   51.8320   29.9880   52.3640 C   0  0  0  0  0  0  0  0  0  0  0  0
   52.8150   29.1110   52.8520 C   0  0  0  0  0  0  0  0  0  0  0  0
   54.1500   29.4810   52.7160 C   0  0  0  0  0  0  0  0  0  0  0  0
   54.5110   30.6710   52.1250 C   0  0  0  0  0  0  0  0  0  0  0  0
   53.5590   31.5600   51.6300 C   0  0  0  0  0  0  0  0  0  0  0  0
   55.9670   30.7510   52.1420 C   0  0  0  0  0  0  0  0  0  0  0  0
   56.6530   31.6830   51.6430 O   0  0  0  0  0  0  0  0  0  0  0  0
   56.5160   29.5830   52.7620 N   0  0  0  0  0  0  0  0  0  0  0  0
   57.9030   29.2690   52.9790 C   0  0  0  0  0  0  0  0  0  0  0  0
   58.8240   29.3530   51.9220 C   0  0  0  0  0  0  0  0  0  0  0  0
   60.1720   29.0490   52.1310 C   0  0  0  0  0  0  0  0  0  0  0  0
   60.6200   28.6380   53.3950 C   0  0  0  0  0  0  0  0  0  0  0  0
   62.0160   28.3560   53.5930 N   0  0  0  0  0  0  0  0  0  0  0  0
   62.7230   27.2710   52.9670 C   0  0  0  0  0  0  0  0  0  0  0  0
   64.0990   27.3940   52.7240 C   0  0  0  0  0  0  0  0  0  0  0  0
   64.8010   26.3610   52.0930 C   0  0  0  0  0  0  0  0  0  0  0  0
   64.1290   25.2050   51.6860 C   0  0  0  0  0  0  0  0  0  0  0  0
   62.7550   25.0840   51.9030 C   0  0  0  0  0  0  0  0  0  0  0  0
   62.0500   26.1130   52.5340 C   0  0  0  0  0  0  0  0  0  0  0  0
   59.7040   28.5750   54.4590 C   0  0  0  0  0  0  0  0  0  0  0  0
   58.3570   28.8820   54.2490 C   0  0  0  0  0  0  0  0  0  0  0  0
   55.3730   28.7960   53.1180 C   0  0  0  0  0  0  0  0  0  0  0  0
   55.4250   27.6970   53.7340 O   0  0  0  0  0  0  0  0  0  0  0  0
   50.7694   29.7199   52.4592 H   0  0  0  0  0  0  0  0  0  0  0  0
   52.5376   28.1589   53.3281 H   0  0  0  0  0  0  0  0  0  0  0  0
   53.8632   32.5059   51.1580 H   0  0  0  0  0  0  0  0  0  0  0  0
   58.4820   29.6602   50.9227 H   0  0  0  0  0  0  0  0  0  0  0  0
   60.8864   29.1326   51.2987 H   0  0  0  0  0  0  0  0  0  0  0  0
   62.5540   28.9830   54.2340 H   0  0  0  0  0  0  0  0  0  0  0  0
   64.6292   28.3076   53.0312 H   0  0  0  0  0  0  0  0  0  0  0  0
   65.8824   26.4588   51.9172 H   0  0  0  0  0  0  0  0  0  0  0  0
   64.6823   24.3909   51.1950 H   0  0  0  0  0  0  0  0  0  0  0  0
   62.2259   24.1765   51.5765 H   0  0  0  0  0  0  0  0  0  0  0  0
   60.9657   26.0175   52.6927 H   0  0  0  0  0  0  0  0  0  0  0  0
   60.0490   28.2827   55.4618 H   0  0  0  0  0  0  0  0  0  0  0  0
   57.6465   28.8197   55.0865 H   0  0  0  0  0  0  0  0  0  0  0  0
  1  2  2  0
  2  3  1  0
  2  4  1  0
  4  5  2  0
  5  6  1  0
  6  7  2  0
  7  8  1  0
  8  9  2  0
  8 10  1  0
 10 11  2  0
 10 12  1  0
 12 13  1  0
 13 14  2  0
 14 15  1  0
 15 16  2  0
 16 17  1  0
 17 18  1  0
 18 19  2  0
 19 20  1  0
 20 21  2  0
 21 22  1  0
 22 23  2  0
 16 24  1  0
 24 25  2  0
 12 26  1  0
 26 27  2  0
  9  4  1  0
 25 13  1  0
 26  7  1  0
 23 18  1  0
  5 28  1  0
  6 29  1  0
  9 30  1  0
 14 31  1  0
 15 32  1  0
 17 33  1  0
 19 34  1  0
 20 35  1  0
 21 36  1  0
 22 37  1  0
 23 38  1  0
 24 39  1  0
 25 40  1  0
M  CHG  1   3  -1
M  END
>  <UniqueID>  (40) 
35

>  <SMILES>  (40) 
O=C([O-])c1ccc2c(c1)C(=O)N(c1ccc(Nc3ccccc3)cc1)C2=O

>  <Energy>  (40) 
87.86878616585108

>  <Genealogy>  (40) 
O=C([O-])c1ccc2c(c1)C(=O)N(c1ccc(Nc3ccccc3)cc1)C2=O (protonated)
O=C([O-])c1ccc2c(c1)C(=O)N(c1ccc(Nc3ccccc3)cc1)C2=O (3D coordinates assigned)
O=C([O-])c1ccc2c(c1)C(=O)N(c1ccc(Nc3ccccc3)cc1)C2=O (nonaromatic ring conformer: 87.86878616585108 kcal/mol)

>  <smiles>  (40) 
O=C(O)c1ccc2c(c1)C(=O)N(c1ccc(Nc3ccccc3)cc1)C2=O

>  <score_type>  (40) 
oracle

>  <origin>  (40) 
adg

>  <m_score__min__energy>  (40) 
-10.039999999999999

>  <m_primary>  (40) 
energy

$$$$
40:0
     RDKit          3D

 35 37  0  0  0  0  0  0  0  0999 V2000
   54.7910   26.3660   45.9990 O   0  0  0  0  0  0  0  0  0  0  0  0
   55.7610   25.3730   46.0940 C   0  0  0  0  0  0  0  0  0  0  0  0
   55.4080   24.1410   46.6580 C   0  0  0  0  0  0  0  0  0  0  0  0
   56.3520   23.1200   46.7700 C   0  0  0  0  0  0  0  0  0  0  0  0
   57.6570   23.3240   46.3190 C   0  0  0  0  0  0  0  0  0  0  0  0
   58.0200   24.5500   45.7540 C   0  0  0  0  0  0  0  0  0  0  0  0
   57.0800   25.5920   45.6330 C   0  0  0  0  0  0  0  0  0  0  0  0
   57.4930   26.8830   45.0290 C   0  0  0  0  0  0  0  0  0  0  0  0
   58.5130   27.0040   44.1540 N   0  0  0  0  0  0  0  0  0  0  0  0
   58.5600   28.2690   43.8640 O   0  0  0  0  0  0  0  0  0  0  0  0
   57.6190   28.9060   44.5160 C   0  0  0  0  0  0  0  0  0  0  0  0
   57.3940   30.4030   44.4380 C   0  0  1  0  0  0  0  0  0  0  0  0
   58.0100   30.9310   43.2840 O   0  0  0  0  0  0  0  0  0  0  0  0
   55.8700   30.6360   44.2980 C   0  0  0  0  0  0  0  0  0  0  0  0
   55.1420   29.7370   45.0960 O   0  0  0  0  0  0  0  0  0  0  0  0
   58.0000   31.0770   45.6820 C   0  0  0  0  0  0  0  0  0  0  0  0
   57.7900   32.4400   45.9990 C   0  0  0  0  0  0  0  0  0  0  0  0
   58.3870   33.0130   47.1270 C   0  0  0  0  0  0  0  0  0  0  0  0
   59.2110   32.2470   47.9510 C   0  0  0  0  0  0  0  0  0  0  0  0
   59.4450   30.9070   47.6480 C   0  0  0  0  0  0  0  0  0  0  0  0
   58.8530   30.3280   46.5240 C   0  0  0  0  0  0  0  0  0  0  0  0
   56.9010   28.0680   45.2900 N   0  0  0  0  0  0  0  0  0  0  0  0
   54.3804   23.9773   47.0148 H   0  0  0  0  0  0  0  0  0  0  0  0
   56.0679   22.1544   47.2137 H   0  0  0  0  0  0  0  0  0  0  0  0
   58.4010   22.5187   46.4083 H   0  0  0  0  0  0  0  0  0  0  0  0
   59.0503   24.7026   45.4003 H   0  0  0  0  0  0  0  0  0  0  0  0
   58.4520   30.1880   42.7950 H   0  0  0  0  0  0  0  0  0  0  0  0
   55.6343   31.6642   44.6098 H   0  0  0  0  0  0  0  0  0  0  0  0
   55.5886   30.4747   43.2469 H   0  0  0  0  0  0  0  0  0  0  0  0
   55.5970   29.7020   45.9790 H   0  0  0  0  0  0  0  0  0  0  0  0
   57.1497   33.0563   45.3508 H   0  0  0  0  0  0  0  0  0  0  0  0
   58.2058   34.0716   47.3648 H   0  0  0  0  0  0  0  0  0  0  0  0
   59.6758   32.7000   48.8392 H   0  0  0  0  0  0  0  0  0  0  0  0
   60.0979   30.3039   48.2961 H   0  0  0  0  0  0  0  0  0  0  0  0
   59.0536   29.2721   46.2900 H   0  0  0  0  0  0  0  0  0  0  0  0
  1  2  1  0
  2  3  2  0
  3  4  1  0
  4  5  2  0
  5  6  1  0
  6  7  2  0
  7  8  1  0
  8  9  2  0
  9 10  1  0
 10 11  1  0
 11 12  1  0
 12 13  1  6
 12 14  1  0
 14 15  1  0
 12 16  1  0
 16 17  2  0
 17 18  1  0
 18 19  2  0
 19 20  1  0
 20 21  2  0
 11 22  2  0
  7  2  1  0
 22  8  1  0
 21 16  1  0
  3 23  1  0
  4 24  1  0
  5 25  1  0
  6 26  1  0
 13 27  1  0
 14 28  1  0
 14 29  1  0
 15 30  1  0
 17 31  1  0
 18 32  1  0
 19 33  1  0
 20 34  1  0
 21 35  1  0
M  CHG  1   1  -1
M  END
>  <UniqueID>  (41) 
36

>  <SMILES>  (41) 
[O-]c1ccccc1-c1noc([C@@](O)(CO)c2ccccc2)n1

>  <Energy>  (41) 
78.36173639130608

>  <Genealogy>  (41) 
[O-]c1ccccc1-c1noc(C(O)(CO)c2ccccc2)n1 (protonated)
[O-]c1ccccc1-c1noc([C@@](O)(CO)c2ccccc2)n1 (chirality)
[O-]c1ccccc1-c1noc([C@@](O)(CO)c2ccccc2)n1 (3D coordinates assigned)
[O-]c1ccccc1-c1noc([C@@](O)(CO)c2ccccc2)n1 (optimized conformer: 78.36173639130608 kcal/mol)

>  <smiles>  (41) 
OCC(O)(c1ccccc1)c1nc(-c2ccccc2O)no1

>  <score_type>  (41) 
oracle

>  <origin>  (41) 
adg

>  <m_score__min__energy>  (41) 
-11.35

>  <m_primary>  (41) 
energy

$$$$
41:0
     RDKit          3D

 29 31  0  0  1  0  0  0  0  0999 V2000
   59.6760   35.7730   46.7370 O   0  0  0  0  0  0  0  0  0  0  0  0
   59.1220   34.7880   46.1710 C   0  0  0  0  0  0  0  0  0  0  0  0
   58.5570   34.8990   44.9600 N   0  0  0  0  0  0  0  0  0  0  0  0
   57.9930   33.8390   44.4140 N   0  0  0  0  0  0  0  0  0  0  0  0
   57.9330   32.6310   44.9790 C   0  0  0  0  0  0  0  0  0  0  0  0
   57.2950   31.5010   44.3230 C   0  0  0  0  0  0  0  0  0  0  0  0
   57.2330   31.2140   43.0000 C   0  0  0  0  0  0  0  0  0  0  0  0
   56.5200   30.0350   42.8510 C   0  0  0  0  0  0  0  0  0  0  0  0
   56.1710   29.6510   44.1320 C   0  0  0  0  0  0  0  0  0  0  0  0
   56.6480   30.5440   44.9640 O   0  0  0  0  0  0  0  0  0  0  0  0
   58.4880   32.4730   46.1980 N   0  0  0  0  0  0  0  0  0  0  0  0
   59.0690   33.5400   46.7720 C   0  0  0  0  0  0  0  0  0  0  0  0
   59.6170   33.4310   47.9480 N   0  0  0  0  0  0  0  0  0  0  0  0
   61.0360   33.4600   48.1150 C   0  0  0  0  0  0  0  0  0  0  0  0
   61.8250   33.0780   47.0300 C   0  0  0  0  0  0  0  0  0  0  0  0
   63.1910   33.0820   47.1170 C   0  0  0  0  0  0  0  0  0  0  0  0
   63.7890   33.4690   48.3030 C   0  0  0  0  0  0  0  0  0  0  0  0
   63.0100   33.8510   49.3920 C   0  0  0  0  0  0  0  0  0  0  0  0
   61.6290   33.8470   49.3000 C   0  0  0  0  0  0  0  0  0  0  0  0
   60.8480   34.2140   50.3460 F   0  0  0  0  0  0  0  0  0  0  0  0
   58.5530   35.7950   44.4400 H   0  0  0  0  0  0  0  0  0  0  0  0
   57.6715   31.8117   42.1873 H   0  0  0  0  0  0  0  0  0  0  0  0
   56.2821   29.5147   41.9115 H   0  0  0  0  0  0  0  0  0  0  0  0
   55.5949   28.7545   44.4048 H   0  0  0  0  0  0  0  0  0  0  0  0
   58.4820   31.5600   46.7040 H   0  0  0  0  0  0  0  0  0  0  0  0
   61.3425   32.7691   46.0910 H   0  0  0  0  0  0  0  0  0  0  0  0
   63.8052   32.7815   46.2553 H   0  0  0  0  0  0  0  0  0  0  0  0
   64.8858   33.4750   48.3861 H   0  0  0  0  0  0  0  0  0  0  0  0
   63.4948   34.1576   50.3306 H   0  0  0  0  0  0  0  0  0  0  0  0
  1  2  2  0
  2  3  1  0
  3  4  1  0
  4  5  2  0
  5  6  1  0
  6  7  2  0
  7  8  1  0
  8  9  2  0
  9 10  1  0
  5 11  1  0
 11 12  1  0
 12 13  2  0
 13 14  1  0
 14 15  2  0
 15 16  1  0
 16 17  2  0
 17 18  1  0
 18 19  2  0
 19 20  1  0
 12  2  1  0
 19 14  1  0
 10  6  1  0
  3 21  1  0
  7 22  1  0
  8 23  1  0
  9 24  1  0
 11 25  1  0
 15 26  1  0
 16 27  1  0
 17 28  1  0
 18 29  1  0
M  END
>  <smiles>  (42) 
O=c1[nH]nc(-c2ccco2)[nH]c1=Nc1ccccc1F

>  <score_type>  (42) 
oracle

>  <origin>  (42) 
adg

>  <m_score__min__energy>  (42) 
-6.7199999999999998

>  <m_primary>  (42) 
energy

$$$$
42:0
     RDKit          3D

 38 40  0  0  0  0  0  0  0  0999 V2000
   63.3790   33.2080   48.6520 C   0  0  0  0  0  0  0  0  0  0  0  0
   61.9870   33.3890   48.8900 O   0  0  0  0  0  0  0  0  0  0  0  0
   61.0060   33.3870   47.8880 C   0  0  0  0  0  0  0  0  0  0  0  0
   60.3890   34.5680   47.4330 C   0  0  0  0  0  0  0  0  0  0  0  0
   59.3860   34.5100   46.4600 C   0  0  0  0  0  0  0  0  0  0  0  0
   58.9840   33.2740   45.9340 C   0  0  0  0  0  0  0  0  0  0  0  0
   57.6290   33.1640   44.8140 S   0  0  0  0  0  0  0  0  0  0  0  0
   56.6620   34.2940   45.0440 O   0  0  0  0  0  0  0  0  0  0  0  0
   58.1530   33.2580   43.4100 O   0  0  0  0  0  0  0  0  0  0  0  0
   56.8260   31.6310   45.0250 N   0  0  0  0  0  0  0  0  0  0  0  0
   57.3780   30.6000   44.1400 C   0  0  0  0  0  0  0  0  0  0  0  0
   57.4940   29.2720   44.8400 C   0  0  0  0  0  0  0  0  0  0  0  0
   58.7720   28.7350   45.1500 C   0  0  0  0  0  0  0  0  0  0  0  0
   58.8920   27.4570   45.7250 C   0  0  0  0  0  0  0  0  0  0  0  0
   57.7220   26.7470   45.9770 C   0  0  0  0  0  0  0  0  0  0  0  0
   57.6050   25.5020   46.4590 N   0  0  0  0  0  0  0  0  0  0  0  0
   56.2610   25.3100   46.4480 C   0  0  0  0  0  0  0  0  0  0  0  0
   55.6250   24.0500   46.9300 C   0  0  0  0  0  0  0  0  0  0  0  0
   55.5380   26.3710   46.0000 N   0  0  0  0  0  0  0  0  0  0  0  0
   56.4930   27.2640   45.7050 C   0  0  0  0  0  0  0  0  0  0  0  0
   56.3300   28.5310   45.1500 C   0  0  0  0  0  0  0  0  0  0  0  0
   59.6190   32.1020   46.3640 C   0  0  0  0  0  0  0  0  0  0  0  0
   60.6240   32.1600   47.3340 C   0  0  0  0  0  0  0  0  0  0  0  0
   63.9094   33.1390   49.6132 H   0  0  0  0  0  0  0  0  0  0  0  0
   63.5357   32.2819   48.0795 H   0  0  0  0  0  0  0  0  0  0  0  0
   63.7673   34.0632   48.0795 H   0  0  0  0  0  0  0  0  0  0  0  0
   60.6971   35.5405   47.8446 H   0  0  0  0  0  0  0  0  0  0  0  0
   58.9110   35.4370   46.1063 H   0  0  0  0  0  0  0  0  0  0  0  0
   56.7172   30.4872   43.2679 H   0  0  0  0  0  0  0  0  0  0  0  0
   58.3857   30.9152   43.8315 H   0  0  0  0  0  0  0  0  0  0  0  0
   59.6764   29.3243   44.9384 H   0  0  0  0  0  0  0  0  0  0  0  0
   59.8776   27.0330   45.9674 H   0  0  0  0  0  0  0  0  0  0  0  0
   55.6197   24.0394   48.0299 H   0  0  0  0  0  0  0  0  0  0  0  0
   54.5913   23.9953   46.5578 H   0  0  0  0  0  0  0  0  0  0  0  0
   56.1949   23.1859   46.5578 H   0  0  0  0  0  0  0  0  0  0  0  0
   55.3278   28.9422   44.9589 H   0  0  0  0  0  0  0  0  0  0  0  0
   59.3257   31.1318   45.9366 H   0  0  0  0  0  0  0  0  0  0  0  0
   61.1182   31.2344   47.6642 H   0  0  0  0  0  0  0  0  0  0  0  0
  1  2  1  0
  2  3  1  0
  3  4  2  0
  4  5  1  0
  5  6  2  0
  6  7  1  0
  7  8  2  0
  7  9  2  0
  7 10  1  0
 10 11  1  0
 11 12  1  0
 12 13  2  0
 13 14  1  0
 14 15  2  0
 15 16  1  0
 16 17  1  0
 17 18  1  0
 17 19  2  0
 19 20  1  0
 20 21  2  0
  6 22  1  0
 22 23  2  0
 23  3  1  0
 21 12  1  0
 20 15  1  0
  1 24  1  0
  1 25  1  0
  1 26  1  0
  4 27  1  0
  5 28  1  0
 11 29  1  0
 11 30  1  0
 13 31  1  0
 14 32  1  0
 18 33  1  0
 18 34  1  0
 18 35  1  0
 21 36  1  0
 22 37  1  0
 23 38  1  0
M  CHG  2  10  -1  16  -1
M  END
>  <UniqueID>  (43) 
37

>  <SMILES>  (43) 
COc1ccc(S(=O)(=O)[N-]Cc2ccc3[n-]c(C)nc3c2)cc1

>  <Energy>  (43) 
66.8361463730582

>  <Genealogy>  (43) 
COc1ccc(S(=O)(=O)[N-]Cc2ccc3[n-]c(C)nc3c2)cc1 (protonated)
COc1ccc(S(=O)(=O)[N-]Cc2ccc3[n-]c(C)nc3c2)cc1 (3D coordinates assigned)
COc1ccc(S(=O)(=O)[N-]Cc2ccc3[n-]c(C)nc3c2)cc1 (optimized conformer: 66.8361463730582 kcal/mol)

>  <smiles>  (43) 
COc1ccc(S(=O)(=O)NCc2ccc3[nH]c(C)nc3c2)cc1

>  <score_type>  (43) 
oracle

>  <origin>  (43) 
adg

>  <m_score__min__energy>  (43) 
-10.27

>  <m_primary>  (43) 
energy

$$$$
43:0
     RDKit          3D

 76 81  0  0  0  0  0  0  0  0999 V2000
   66.5490   26.6270   54.7440 H   0  0  0  0  0  0  0  0  0  0  0  0
   65.7690   26.2820   54.2330 O   0  0  0  0  0  0  0  0  0  0  0  0
   65.2810   27.3360   53.4340 C   0  0  1  0  0  0  0  0  0  0  0  0
   66.1880   27.4730   52.1950 C   0  0  0  0  0  0  0  0  0  0  0  0
   66.3920   26.3450   51.3730 C   0  0  0  0  0  0  0  0  0  0  0  0
   65.9432   25.3810   51.6546 H   0  0  0  0  0  0  0  0  0  0  0  0
   67.1560   26.4340   50.2060 C   0  0  0  0  0  0  0  0  0  0  0  0
   67.3109   25.5414   49.5821 H   0  0  0  0  0  0  0  0  0  0  0  0
   67.7220   27.6510   49.8310 C   0  0  0  0  0  0  0  0  0  0  0  0
   68.3225   27.7192   48.9119 H   0  0  0  0  0  0  0  0  0  0  0  0
   67.5260   28.7830   50.6230 C   0  0  0  0  0  0  0  0  0  0  0  0
   67.9708   29.7438   50.3248 H   0  0  0  0  0  0  0  0  0  0  0  0
   66.7660   28.7010   51.7950 C   0  0  0  0  0  0  0  0  0  0  0  0
   66.6164   29.5998   52.4113 H   0  0  0  0  0  0  0  0  0  0  0  0
   63.8590   26.9470   52.9840 C   0  0  0  0  0  0  0  0  0  0  0  0
   63.9100   26.0513   52.3475 H   0  0  0  0  0  0  0  0  0  0  0  0
   63.2427   26.7381   53.8708 H   0  0  0  0  0  0  0  0  0  0  0  0
   63.2460   28.0690   52.2120 C   0  0  0  0  0  0  0  0  0  0  0  0
   62.4500   27.8220   51.2650 O   0  0  0  0  0  0  0  0  0  0  0  0
   63.5590   29.4220   52.5770 N   0  0  0  0  0  0  0  0  0  0  0  0
   63.1810   30.5140   51.7230 C   0  0  0  0  0  0  0  0  0  0  0  0
   64.0320   30.9530   50.7020 C   0  0  0  0  0  0  0  0  0  0  0  0
   65.0186   30.4852   50.5686 H   0  0  0  0  0  0  0  0  0  0  0  0
   63.6280   31.9840   49.8540 C   0  0  0  0  0  0  0  0  0  0  0  0
   64.3043   32.3514   49.0682 H   0  0  0  0  0  0  0  0  0  0  0  0
   62.3590   32.5470   50.0090 C   0  0  0  0  0  0  0  0  0  0  0  0
   61.9260   33.5640   49.0930 N   0  0  0  0  0  0  0  0  0  0  0  0
   60.8700   33.4840   48.3410 C   0  0  0  0  0  0  0  0  0  0  0  0
   60.4400   32.2750   47.8650 N   0  0  0  0  0  0  0  0  0  0  0  0
   59.3660   32.2380   47.0420 C   0  0  0  0  0  0  0  0  0  0  0  0
   58.7210   33.3710   46.6580 C   0  0  0  0  0  0  0  0  0  0  0  0
   59.1450   34.6050   47.1280 C   0  0  0  0  0  0  0  0  0  0  0  0
   58.6292   35.5313   46.8350 H   0  0  0  0  0  0  0  0  0  0  0  0
   60.2230   34.6340   47.9660 N   0  0  0  0  0  0  0  0  0  0  0  0
   57.7490   33.0110   45.7560 C   0  0  0  0  0  0  0  0  0  0  0  0
   57.0311   33.6696   45.2452 H   0  0  0  0  0  0  0  0  0  0  0  0
   57.8720   31.6280   45.6300 C   0  0  0  0  0  0  0  0  0  0  0  0
   57.0770   30.8410   44.6740 C   0  0  0  0  0  0  0  0  0  0  0  0
   56.3240   29.9330   45.1180 O   0  0  0  0  0  0  0  0  0  0  0  0
   57.1750   31.0680   43.2530 N   0  0  0  0  0  0  0  0  0  0  0  0
   58.1510   32.0220   42.7170 C   0  0  0  0  0  0  0  0  0  0  0  0
   58.6662   32.5256   43.5483 H   0  0  0  0  0  0  0  0  0  0  0  0
   58.8873   31.4858   42.1003 H   0  0  0  0  0  0  0  0  0  0  0  0
   57.6317   32.7703   42.1003 H   0  0  0  0  0  0  0  0  0  0  0  0
   56.2700   30.3500   42.3500 C   0  0  0  0  0  0  0  0  0  0  0  0
   55.5433   29.7735   42.9413 H   0  0  0  0  0  0  0  0  0  0  0  0
   55.7356   31.0725   41.7156 H   0  0  0  0  0  0  0  0  0  0  0  0
   56.8521   29.6653   41.7156 H   0  0  0  0  0  0  0  0  0  0  0  0
   58.8580   31.1420   46.4420 N   0  0  0  0  0  0  0  0  0  0  0  0
   59.4100   29.7800   46.5930 C   0  0  1  0  0  0  0  0  0  0  0  0
   58.8328   29.0802   45.9709 H   0  0  0  0  0  0  0  0  0  0  0  0
   60.8260   29.6370   45.9960 C   0  0  0  0  0  0  0  0  0  0  0  0
   61.5615   29.5627   46.8105 H   0  0  0  0  0  0  0  0  0  0  0  0
   60.8726   28.7296   45.3760 H   0  0  0  0  0  0  0  0  0  0  0  0
   61.0531   30.5168   45.3760 H   0  0  0  0  0  0  0  0  0  0  0  0
   59.2100   29.2730   48.0510 C   0  0  0  0  0  0  0  0  0  0  0  0
   58.2908   29.8477   48.2374 H   0  0  0  0  0  0  0  0  0  0  0  0
   59.2660   27.7520   48.2090 C   0  0  0  0  0  0  0  0  0  0  0  0
   58.3533   27.3107   48.6359 H   0  0  0  0  0  0  0  0  0  0  0  0
   59.3744   27.1037   47.3270 H   0  0  0  0  0  0  0  0  0  0  0  0
   60.4090   27.8990   49.2030 C   0  0  0  0  0  0  0  0  0  0  0  0
   60.1669   27.5515   50.2182 H   0  0  0  0  0  0  0  0  0  0  0  0
   61.3500   27.3505   49.0494 H   0  0  0  0  0  0  0  0  0  0  0  0
   60.3690   29.4130   49.0400 C   0  0  0  0  0  0  0  0  0  0  0  0
   60.1113   29.9575   49.9604 H   0  0  0  0  0  0  0  0  0  0  0  0
   61.2767   29.9680   48.7605 H   0  0  0  0  0  0  0  0  0  0  0  0
   61.5510   32.1250   51.0270 N   0  0  0  0  0  0  0  0  0  0  0  0
   60.6190   32.5730   51.1750 H   0  0  0  0  0  0  0  0  0  0  0  0
   61.9330   31.1340   51.8750 C   0  0  0  0  0  0  0  0  0  0  0  0
   61.2594   30.8168   52.6847 H   0  0  0  0  0  0  0  0  0  0  0  0
   64.1790   29.6980   53.8800 C   0  0  0  0  0  0  0  0  0  0  0  0
   64.6954   30.6675   53.8211 H   0  0  0  0  0  0  0  0  0  0  0  0
   63.3721   29.6986   54.6276 H   0  0  0  0  0  0  0  0  0  0  0  0
   65.2070   28.6200   54.3200 C   0  0  0  0  0  0  0  0  0  0  0  0
   66.2033   29.0862   54.3193 H   0  0  0  0  0  0  0  0  0  0  0  0
   64.8687   28.2765   55.3087 H   0  0  0  0  0  0  0  0  0  0  0  0
  1  2  1  0
  3  2  1  1
  3  4  1  0
  4  5  2  0
  5  6  1  0
  5  7  1  0
  7  8  1  0
  7  9  2  0
  9 10  1  0
  9 11  1  0
 11 12  1  0
 11 13  2  0
 13 14  1  0
  3 15  1  0
 15 16  1  0
 15 17  1  0
 15 18  1  0
 18 19  2  0
 18 20  1  0
 20 21  1  0
 21 22  2  0
 22 23  1  0
 22 24  1  0
 24 25  1  0
 24 26  2  0
 26 27  1  0
 27 28  2  0
 28 29  1  0
 29 30  2  0
 30 31  1  0
 31 32  2  0
 32 33  1  0
 32 34  1  0
 31 35  1  0
 35 36  1  0
 35 37  2  0
 37 38  1  0
 38 39  2  0
 38 40  1  0
 40 41  1  0
 41 42  1  0
 41 43  1  0
 41 44  1  0
 40 45  1  0
 45 46  1  0
 45 47  1  0
 45 48  1  0
 37 49  1  0
 49 50  1  0
 50 51  1  6
 50 52  1  0
 52 53  1  0
 52 54  1  0
 52 55  1  0
 50 56  1  0
 56 57  1  0
 56 58  1  0
 58 59  1  0
 58 60  1  0
 58 61  1  0
 61 62  1  0
 61 63  1  0
 61 64  1  0
 64 65  1  0
 64 66  1  0
 26 67  1  0
 67 68  1  0
 67 69  2  0
 69 70  1  0
 20 71  1  0
 71 72  1  0
 71 73  1  0
 71 74  1  0
 74 75  1  0
 74 76  1  0
 74  3  1  0
 13  4  1  0
 69 21  1  0
 34 28  1  0
 64 56  1  0
 49 30  1  0
M  CHG  2  34  -1  67   1
M  END
>  <UniqueID>  (44) 
38

>  <SMILES>  (44) 
C[C@@H](C1CCC1)n1c(C(=O)N(C)C)cc2c[n-]/c(=N/c3ccc(N4CC[C@](O)(c5ccccc5)CC4=O)c[nH+]3)nc21

>  <Energy>  (44) 
204.65365413300347

>  <Genealogy>  (44) 
CC(C1CCC1)n1c(C(=O)N(C)C)cc2c[n-]c(=Nc3ccc(N4CCC(O)(c5ccccc5)CC4=O)c[nH+]3)nc21 (protonated)
C[C@@H](C1CCC1)n1c(C(=O)N(C)C)cc2c[n-]c(=Nc3ccc(N4CC[C@](O)(c5ccccc5)CC4=O)c[nH+]3)nc21 (chirality)
C[C@@H](C1CCC1)n1c(C(=O)N(C)C)cc2c[n-]/c(=N/c3ccc(N4CC[C@](O)(c5ccccc5)CC4=O)c[nH+]3)nc21 (cis-trans isomerization)
C[C@@H](C1CCC1)n1c(C(=O)N(C)C)cc2c[n-]/c(=N/c3ccc(N4CC[C@](O)(c5ccccc5)CC4=O)c[nH+]3)nc21 (3D coordinates assigned)
C[C@@H](C1CCC1)n1c(C(=O)N(C)C)cc2c[n-]/c(=N/c3ccc(N4CC[C@](O)(c5ccccc5)CC4=O)c[nH+]3)nc21 (nonaromatic ring conformer: 204.65365413300347 kcal/mol)

>  <smiles>  (44) 
CC(C1CCC1)n1c(C(=O)N(C)C)cc2c[nH]c(=Nc3ccc(N4CCC(O)(c5ccccc5)CC4=O)cn3)nc21

>  <score_type>  (44) 
oracle

>  <origin>  (44) 
adg

>  <m_score__min__energy>  (44) 
-8.9700000000000006

>  <m_primary>  (44) 
energy

$$$$
44:0
     RDKit          3D

 54 57  0  0  0  0  0  0  0  0999 V2000
   49.9530   33.7370   51.9760 H   0  0  0  0  0  0  0  0  0  0  0  0
   50.1460   32.7220   52.1230 N   0  0  0  0  0  0  0  0  0  0  0  0
   51.0770   32.0250   51.2950 C   0  0  0  0  0  0  0  0  0  0  0  0
   50.8190   31.8830   50.0690 O   0  0  0  0  0  0  0  0  0  0  0  0
   52.3310   31.4790   51.8660 C   0  0  0  0  0  0  0  0  0  0  0  0
   52.3940   31.0810   53.2130 C   0  0  0  0  0  0  0  0  0  0  0  0
   51.5022   31.1717   53.8506 H   0  0  0  0  0  0  0  0  0  0  0  0
   53.5800   30.5710   53.7490 C   0  0  0  0  0  0  0  0  0  0  0  0
   53.6119   30.2562   54.8025 H   0  0  0  0  0  0  0  0  0  0  0  0
   54.7260   30.4580   52.9560 C   0  0  0  0  0  0  0  0  0  0  0  0
   55.8920   29.9280   53.5290 O   0  0  0  0  0  0  0  0  0  0  0  0
   57.1850   30.0760   53.0130 C   0  0  0  0  0  0  0  0  0  0  0  0
   57.6200   31.3510   52.6490 C   0  0  0  0  0  0  0  0  0  0  0  0
   56.9483   32.2153   52.7581 H   0  0  0  0  0  0  0  0  0  0  0  0
   58.9180   31.5270   52.1430 C   0  0  0  0  0  0  0  0  0  0  0  0
   59.4070   32.7890   51.7760 O   0  0  0  0  0  0  0  0  0  0  0  0
   59.7680   33.1790   50.4760 C   0  0  0  0  0  0  0  0  0  0  0  0
   58.8900   32.8960   49.4230 C   0  0  0  0  0  0  0  0  0  0  0  0
   57.9340   32.3925   49.6292 H   0  0  0  0  0  0  0  0  0  0  0  0
   59.2200   33.2490   48.1110 C   0  0  0  0  0  0  0  0  0  0  0  0
   58.5236   33.0213   47.2905 H   0  0  0  0  0  0  0  0  0  0  0  0
   60.4370   33.8930   47.8370 C   0  0  0  0  0  0  0  0  0  0  0  0
   60.8120   34.2410   46.4260 C   0  0  0  0  0  0  0  0  0  0  0  0
   61.6183   34.9892   46.4348 H   0  0  0  0  0  0  0  0  0  0  0  0
   61.1572   33.3361   45.9045 H   0  0  0  0  0  0  0  0  0  0  0  0
   59.9353   34.6528   45.9045 H   0  0  0  0  0  0  0  0  0  0  0  0
   61.3340   34.1480   48.8860 C   0  0  0  0  0  0  0  0  0  0  0  0
   62.3008   34.6287   48.6757 H   0  0  0  0  0  0  0  0  0  0  0  0
   61.0030   33.7930   50.1980 C   0  0  0  0  0  0  0  0  0  0  0  0
   61.7110   33.9947   51.0154 H   0  0  0  0  0  0  0  0  0  0  0  0
   59.7160   30.4420   51.9620 N   0  0  0  0  0  0  0  0  0  0  0  0
   59.3150   29.1790   52.2760 C   0  0  0  0  0  0  0  0  0  0  0  0
   60.1010   28.1560   52.0930 N   0  0  0  0  0  0  0  0  0  0  0  0
   60.6410   27.6900   50.8430 C   0  0  0  0  0  0  0  0  0  0  0  0
   61.5960   26.8670   50.8230 O   0  0  0  0  0  0  0  0  0  0  0  0
   60.0760   28.1830   49.5660 C   0  0  0  0  0  0  0  0  0  0  0  0
   60.0240   27.3490   48.4370 C   0  0  0  0  0  0  0  0  0  0  0  0
   60.3942   26.3149   48.4971 H   0  0  0  0  0  0  0  0  0  0  0  0
   59.5020   27.8360   47.2410 C   0  0  0  0  0  0  0  0  0  0  0  0
   59.4675   27.1863   46.3541 H   0  0  0  0  0  0  0  0  0  0  0  0
   59.0200   29.1510   47.1620 C   0  0  0  0  0  0  0  0  0  0  0  0
   58.4650   29.6850   45.9010 C   0  0  0  0  0  0  0  0  0  0  0  0
   59.2290   30.0120   44.9540 O   0  0  0  0  0  0  0  0  0  0  0  0
   57.0920   29.8400   45.7430 O   0  0  0  0  0  0  0  0  0  0  0  0
   59.0840   29.9530   48.3110 C   0  0  0  0  0  0  0  0  0  0  0  0
   58.7089   30.9865   48.2759 H   0  0  0  0  0  0  0  0  0  0  0  0
   59.6060   29.4640   49.4690 N   0  0  0  0  0  0  0  0  0  0  0  0
   59.6440   30.1040   50.2940 H   0  0  0  0  0  0  0  0  0  0  0  0
   58.0360   28.9740   52.8100 C   0  0  0  0  0  0  0  0  0  0  0  0
   57.6050   27.7120   53.0730 F   0  0  0  0  0  0  0  0  0  0  0  0
   54.6630   30.8350   51.6030 C   0  0  0  0  0  0  0  0  0  0  0  0
   55.5514   30.7269   50.9634 H   0  0  0  0  0  0  0  0  0  0  0  0
   53.4790   31.3460   51.0660 C   0  0  0  0  0  0  0  0  0  0  0  0
   53.4448   31.6467   50.0085 H   0  0  0  0  0  0  0  0  0  0  0  0
  1  2  1  0
  2  3  1  0
  3  4  2  0
  3  5  1  0
  5  6  2  0
  6  7  1  0
  6  8  1  0
  8  9  1  0
  8 10  2  0
 10 11  1  0
 11 12  1  0
 12 13  1  0
 13 14  1  0
 13 15  2  0
 15 16  1  0
 16 17  1  0
 17 18  2  0
 18 19  1  0
 18 20  1  0
 20 21  1  0
 20 22  2  0
 22 23  1  0
 23 24  1  0
 23 25  1  0
 23 26  1  0
 22 27  1  0
 27 28  1  0
 27 29  2  0
 29 30  1  0
 15 31  1  0
 31 32  1  0
 32 33  2  0
 33 34  1  0
 34 35  2  0
 34 36  1  0
 36 37  2  0
 37 38  1  0
 37 39  1  0
 39 40  1  0
 39 41  2  0
 41 42  1  0
 42 43  2  0
 42 44  1  0
 41 45  1  0
 45 46  1  0
 45 47  2  0
 47 48  1  0
 32 49  1  0
 49 50  1  0
 10 51  1  0
 51 52  1  0
 51 53  2  0
 53 54  1  0
 53  5  1  0
 49 12  2  0
 29 17  1  0
 47 36  1  0
M  CHG  4   2  -1  31  -1  44  -1  47   1
M  END
>  <UniqueID>  (45) 
39

>  <SMILES>  (45) 
Cc1ccc(Oc2cc(Oc3ccc(C([NH-])=O)cc3)c(F)/c(=N/C(=O)c3ccc(C(=O)[O-])c[nH+]3)[n-]2)cc1

>  <Energy>  (45) 
77.24171511198253

>  <Genealogy>  (45) 
Cc1ccc(Oc2cc(Oc3ccc(C([NH-])=O)cc3)c(F)c(=NC(=O)c3ccc(C(=O)[O-])c[nH+]3)[n-]2)cc1 (protonated)
Cc1ccc(Oc2cc(Oc3ccc(C([NH-])=O)cc3)c(F)/c(=N/C(=O)c3ccc(C(=O)[O-])c[nH+]3)[n-]2)cc1 (cis-trans isomerization)
Cc1ccc(Oc2cc(Oc3ccc(C([NH-])=O)cc3)c(F)/c(=N/C(=O)c3ccc(C(=O)[O-])c[nH+]3)[n-]2)cc1 (3D coordinates assigned)
Cc1ccc(Oc2cc(Oc3ccc(C([NH-])=O)cc3)c(F)/c(=N/C(=O)c3ccc(C(=O)[O-])c[nH+]3)[n-]2)cc1 (optimized conformer: 77.24171511198253 kcal/mol)

>  <smiles>  (45) 
Cc1ccc(Oc2cc(Oc3ccc(C(N)=O)cc3)c(F)c(=NC(=O)c3ccc(C(=O)O)cn3)[nH]2)cc1

>  <score_type>  (45) 
oracle

>  <origin>  (45) 
adg

>  <m_score__min__energy>  (45) 
-13.039999999999999

>  <m_primary>  (45) 
energy

$$$$
45:0
     RDKit          3D

 32 34  0  0  0  0  0  0  0  0999 V2000
   58.0780   31.7700   46.7790 O   0  0  0  0  0  0  0  0  0  0  0  0
   58.6270   30.6400   46.6900 C   0  0  0  0  0  0  0  0  0  0  0  0
   60.0100   30.4750   47.0500 N   0  0  0  0  0  0  0  0  0  0  0  0
   60.7460   31.4180   47.8470 C   0  0  0  0  0  0  0  0  0  0  0  0
   60.1530   31.9590   48.9990 C   0  0  0  0  0  0  0  0  0  0  0  0
   60.8410   32.8940   49.7780 C   0  0  0  0  0  0  0  0  0  0  0  0
   62.1230   33.3080   49.4060 C   0  0  0  0  0  0  0  0  0  0  0  0
   63.0590   34.5880   50.4700 Br  0  0  0  0  0  0  0  0  0  0  0  0
   62.7140   32.7930   48.2490 C   0  0  0  0  0  0  0  0  0  0  0  0
   62.0280   31.8570   47.4680 C   0  0  0  0  0  0  0  0  0  0  0  0
   57.8430   29.5060   46.1710 C   0  0  0  0  0  0  0  0  0  0  0  0
   58.0880   28.1630   46.3850 C   0  0  0  0  0  0  0  0  0  0  0  0
   57.0580   27.5310   45.7100 C   0  0  0  0  0  0  0  0  0  0  0  0
   56.7930   26.0760   45.6060 C   0  0  0  0  0  0  0  0  0  0  0  0
   57.8790   25.2070   45.3980 C   0  0  0  0  0  0  0  0  0  0  0  0
   57.6770   23.8290   45.2850 C   0  0  0  0  0  0  0  0  0  0  0  0
   56.3900   23.3000   45.3850 C   0  0  0  0  0  0  0  0  0  0  0  0
   55.3030   24.1460   45.6070 C   0  0  0  0  0  0  0  0  0  0  0  0
   55.4950   25.5280   45.7270 C   0  0  0  0  0  0  0  0  0  0  0  0
   54.3920   26.3320   45.9900 O   0  0  0  0  0  0  0  0  0  0  0  0
   56.2920   28.4520   45.1680 O   0  0  0  0  0  0  0  0  0  0  0  0
   56.7330   29.6480   45.4230 N   0  0  0  0  0  0  0  0  0  0  0  0
   60.5370   29.6780   46.6280 H   0  0  0  0  0  0  0  0  0  0  0  0
   59.1399   31.6449   49.2906 H   0  0  0  0  0  0  0  0  0  0  0  0
   60.3728   33.3044   50.6848 H   0  0  0  0  0  0  0  0  0  0  0  0
   63.7201   33.1242   47.9521 H   0  0  0  0  0  0  0  0  0  0  0  0
   62.4932   31.4621   46.5528 H   0  0  0  0  0  0  0  0  0  0  0  0
   58.9081   27.7043   46.9569 H   0  0  0  0  0  0  0  0  0  0  0  0
   58.8974   25.6161   45.3235 H   0  0  0  0  0  0  0  0  0  0  0  0
   58.5341   23.1603   45.1169 H   0  0  0  0  0  0  0  0  0  0  0  0
   56.2322   22.2156   45.2888 H   0  0  0  0  0  0  0  0  0  0  0  0
   54.2899   23.7253   45.6882 H   0  0  0  0  0  0  0  0  0  0  0  0
  1  2  2  0
  2  3  1  0
  3  4  1  0
  4  5  2  0
  5  6  1  0
  6  7  2  0
  7  8  1  0
  7  9  1  0
  9 10  2  0
  2 11  1  0
 11 12  1  0
 12 13  2  0
 13 14  1  0
 14 15  2  0
 15 16  1  0
 16 17  2  0
 17 18  1  0
 18 19  2  0
 19 20  1  0
 13 21  1  0
 21 22  1  0
 10  4  1  0
 22 11  2  0
 19 14  1  0
  3 23  1  0
  5 24  1  0
  6 25  1  0
  9 26  1  0
 10 27  1  0
 12 28  1  0
 15 29  1  0
 16 30  1  0
 17 31  1  0
 18 32  1  0
M  CHG  1  20  -1
M  END
>  <UniqueID>  (46) 
40

>  <SMILES>  (46) 
O=C(Nc1ccc(Br)cc1)c1cc(-c2ccccc2[O-])on1

>  <Energy>  (46) 
71.7706804110887

>  <Genealogy>  (46) 
O=C(Nc1ccc(Br)cc1)c1cc(-c2ccccc2[O-])on1 (protonated)
O=C(Nc1ccc(Br)cc1)c1cc(-c2ccccc2[O-])on1 (3D coordinates assigned)
O=C(Nc1ccc(Br)cc1)c1cc(-c2ccccc2[O-])on1 (optimized conformer: 71.7706804110887 kcal/mol)

>  <smiles>  (46) 
O=C(Nc1ccc(Br)cc1)c1cc(-c2ccccc2O)on1

>  <score_type>  (46) 
oracle

>  <origin>  (46) 
adg

>  <m_score__min__energy>  (46) 
-10.960000000000001

>  <m_primary>  (46) 
energy

$$$$
46:0
     RDKit          3D

 38 40  0  0  0  0  0  0  0  0999 V2000
   58.7608   34.2255   47.4389 H   0  0  0  0  0  0  0  0  0  0  0  0
   58.4200   33.4640   46.7220 C   0  0  0  0  0  0  0  0  0  0  0  0
   58.5560   32.1070   47.0270 C   0  0  0  0  0  0  0  0  0  0  0  0
   59.0073   31.8013   47.9824 H   0  0  0  0  0  0  0  0  0  0  0  0
   58.1190   31.1370   46.1190 C   0  0  0  0  0  0  0  0  0  0  0  0
   58.2320   30.0698   46.3605 H   0  0  0  0  0  0  0  0  0  0  0  0
   57.5360   31.5210   44.8990 C   0  0  0  0  0  0  0  0  0  0  0  0
   57.1070   30.4780   43.9050 C   0  0  0  0  0  0  0  0  0  0  0  0
   57.8384   30.4340   43.0845 H   0  0  0  0  0  0  0  0  0  0  0  0
   56.1163   30.7436   43.5076 H   0  0  0  0  0  0  0  0  0  0  0  0
   57.0270   29.1380   44.5710 C   0  0  0  0  0  0  0  0  0  0  0  0
   55.8870   28.6260   45.0660 N   0  0  0  0  0  0  0  0  0  0  0  0
   56.2760   27.4560   45.6200 C   0  0  0  0  0  0  0  0  0  0  0  0
   55.4650   26.6360   46.2210 N   0  0  0  0  0  0  0  0  0  0  0  0
   55.3090   25.2430   45.9160 C   0  0  0  0  0  0  0  0  0  0  0  0
   54.1590   24.8110   45.6380 O   0  0  0  0  0  0  0  0  0  0  0  0
   56.4240   24.3950   45.8580 O   0  0  0  0  0  0  0  0  0  0  0  0
   56.6690   23.4280   44.8730 C   0  0  0  0  0  0  0  0  0  0  0  0
   57.1470   22.1750   45.2710 C   0  0  0  0  0  0  0  0  0  0  0  0
   57.3310   21.9710   46.3361 H   0  0  0  0  0  0  0  0  0  0  0  0
   57.3910   21.1830   44.3200 C   0  0  0  0  0  0  0  0  0  0  0  0
   57.7747   20.1994   44.6288 H   0  0  0  0  0  0  0  0  0  0  0  0
   57.1430   21.4520   42.9730 C   0  0  0  0  0  0  0  0  0  0  0  0
   57.3392   20.6804   42.2139 H   0  0  0  0  0  0  0  0  0  0  0  0
   56.6590   22.6670   42.5970 N   0  0  0  0  0  0  0  0  0  0  0  0
   56.4640   22.8470   41.5870 H   0  0  0  0  0  0  0  0  0  0  0  0
   56.4140   23.6490   43.5080 C   0  0  0  0  0  0  0  0  0  0  0  0
   56.0152   24.6185   43.1749 H   0  0  0  0  0  0  0  0  0  0  0  0
   57.5970   27.2030   45.5090 N   0  0  0  0  0  0  0  0  0  0  0  0
   58.0680   28.2750   44.8480 C   0  0  0  0  0  0  0  0  0  0  0  0
   59.5090   28.4700   44.5030 C   0  0  0  0  0  0  0  0  0  0  0  0
   60.0998   28.5499   45.4274 H   0  0  0  0  0  0  0  0  0  0  0  0
   59.8644   27.6118   43.9138 H   0  0  0  0  0  0  0  0  0  0  0  0
   59.6235   29.3918   43.9138 H   0  0  0  0  0  0  0  0  0  0  0  0
   57.4140   32.8870   44.5940 C   0  0  0  0  0  0  0  0  0  0  0  0
   56.9735   33.1973   43.6350 H   0  0  0  0  0  0  0  0  0  0  0  0
   57.8510   33.8540   45.5060 C   0  0  0  0  0  0  0  0  0  0  0  0
   57.7467   34.9224   45.2659 H   0  0  0  0  0  0  0  0  0  0  0  0
  1  2  1  0
  2  3  2  0
  3  4  1  0
  3  5  1  0
  5  6  1  0
  5  7  2  0
  7  8  1  0
  8  9  1  0
  8 10  1  0
  8 11  1  0
 11 12  1  0
 12 13  1  0
 13 14  2  0
 14 15  1  0
 15 16  2  0
 15 17  1  0
 17 18  1  0
 18 19  2  0
 19 20  1  0
 19 21  1  0
 21 22  1  0
 21 23  2  0
 23 24  1  0
 23 25  1  0
 25 26  1  0
 25 27  2  0
 27 28  1  0
 13 29  1  0
 29 30  1  0
 30 31  1  0
 31 32  1  0
 31 33  1  0
 31 34  1  0
  7 35  1  0
 35 36  1  0
 35 37  2  0
 37 38  1  0
 37  2  1  0
 30 11  2  0
 27 18  1  0
M  CHG  3  12  -1  25   1  29  -1
M  END
>  <UniqueID>  (47) 
41

>  <SMILES>  (47) 
Cc1[n-]/c(=N/C(=O)Oc2ccc[nH+]c2)[n-]c1Cc1ccccc1

>  <Energy>  (47) 
70.45507820353136

>  <Genealogy>  (47) 
Cc1[n-]c(=NC(=O)Oc2ccc[nH+]c2)[n-]c1Cc1ccccc1 (protonated)
Cc1[n-]/c(=N/C(=O)Oc2ccc[nH+]c2)[n-]c1Cc1ccccc1 (cis-trans isomerization)
Cc1[n-]/c(=N/C(=O)Oc2ccc[nH+]c2)[n-]c1Cc1ccccc1 (3D coordinates assigned)
Cc1[n-]/c(=N/C(=O)Oc2ccc[nH+]c2)[n-]c1Cc1ccccc1 (optimized conformer: 70.45507820353136 kcal/mol)

>  <smiles>  (47) 
Cc1[nH]c(=NC(=O)Oc2cccnc2)[nH]c1Cc1ccccc1

>  <score_type>  (47) 
oracle

>  <origin>  (47) 
adg

>  <m_score__min__energy>  (47) 
-10.65

>  <m_primary>  (47) 
energy

$$$$
47:0
     RDKit          3D

 59 62  0  0  0  0  0  0  0  0999 V2000
   55.0080   30.7290   52.1960 C   0  0  0  0  0  0  0  0  0  0  0  0
   56.2110   29.9960   51.9920 O   0  0  0  0  0  0  0  0  0  0  0  0
   57.4990   30.5140   52.1960 C   0  0  0  0  0  0  0  0  0  0  0  0
   58.4810   29.8260   52.9340 C   0  0  0  0  0  0  0  0  0  0  0  0
   59.7490   30.3860   53.1090 C   0  0  0  0  0  0  0  0  0  0  0  0
   60.0500   31.6320   52.5530 C   0  0  0  0  0  0  0  0  0  0  0  0
   59.0830   32.3280   51.8120 C   0  0  0  0  0  0  0  0  0  0  0  0
   59.3940   33.6890   51.2410 C   0  0  0  0  0  0  0  0  0  0  0  0
   60.0860   33.5580   49.9410 N   0  0  0  0  0  0  0  0  0  0  0  0
   61.4360   33.7700   49.8560 C   0  0  0  0  0  0  0  0  0  0  0  0
   62.0940   34.0460   50.8990 O   0  0  0  0  0  0  0  0  0  0  0  0
   62.0800   33.6860   48.6500 N   0  0  0  0  0  0  0  0  0  0  0  0
   63.5450   33.8760   48.5730 C   0  0  0  0  0  0  0  0  0  0  0  0
   64.2520   32.8970   49.4730 C   0  0  0  0  0  0  0  0  0  0  0  0
   65.6060   33.0830   49.8030 C   0  0  0  0  0  0  0  0  0  0  0  0
   66.2690   32.1560   50.6110 C   0  0  0  0  0  0  0  0  0  0  0  0
   65.5910   31.0340   51.0930 C   0  0  0  0  0  0  0  0  0  0  0  0
   64.2450   30.8370   50.7680 C   0  0  0  0  0  0  0  0  0  0  0  0
   63.5890   29.7480   51.2360 F   0  0  0  0  0  0  0  0  0  0  0  0
   63.5780   31.7630   49.9610 C   0  0  0  0  0  0  0  0  0  0  0  0
   61.3620   33.3820   47.5250 C   0  0  0  0  0  0  0  0  0  0  0  0
   61.9480   33.2830   46.4090 O   0  0  0  0  0  0  0  0  0  0  0  0
   60.0150   33.1740   47.6010 N   0  0  0  0  0  0  0  0  0  0  0  0
   59.2630   32.8610   46.4090 C   0  0  0  0  0  0  0  0  0  0  0  0
   59.3190   33.7090   45.2960 C   0  0  0  0  0  0  0  0  0  0  0  0
   58.6010   33.3990   44.1380 C   0  0  0  0  0  0  0  0  0  0  0  0
   57.8160   32.2430   44.0780 C   0  0  0  0  0  0  0  0  0  0  0  0
   57.1850   31.9340   42.8730 O   0  0  0  0  0  0  0  0  0  0  0  0
   57.7140   31.4090   45.2150 C   0  0  0  0  0  0  0  0  0  0  0  0
   56.8780   30.2450   45.2340 N   0  0  0  0  0  0  0  0  0  0  0  0
   56.6570   29.3960   44.1020 C   0  0  0  0  0  0  0  0  0  0  0  0
   57.6570   28.3430   43.7640 C   0  0  0  0  0  0  0  0  0  0  0  0
   55.5920   29.4850   43.4330 O   0  0  0  0  0  0  0  0  0  0  0  0
   58.4630   31.7090   46.3590 C   0  0  0  0  0  0  0  0  0  0  0  0
   59.3790   33.2650   48.8060 C   0  0  0  0  0  0  0  0  0  0  0  0
   58.1290   33.0840   48.8690 O   0  0  0  0  0  0  0  0  0  0  0  0
   57.8090   31.7620   51.6410 C   0  0  0  0  0  0  0  0  0  0  0  0
   54.8250   30.8405   53.2749 H   0  0  0  0  0  0  0  0  0  0  0  0
   55.1020   31.7235   51.7354 H   0  0  0  0  0  0  0  0  0  0  0  0
   54.1673   30.1895   51.7354 H   0  0  0  0  0  0  0  0  0  0  0  0
   58.2493   28.8448   53.3740 H   0  0  0  0  0  0  0  0  0  0  0  0
   60.5127   29.8443   53.6863 H   0  0  0  0  0  0  0  0  0  0  0  0
   61.0492   32.0691   52.6968 H   0  0  0  0  0  0  0  0  0  0  0  0
   58.4556   34.2446   51.0974 H   0  0  0  0  0  0  0  0  0  0  0  0
   60.0497   34.2277   51.9409 H   0  0  0  0  0  0  0  0  0  0  0  0
   63.8764   33.7188   47.5360 H   0  0  0  0  0  0  0  0  0  0  0  0
   63.7887   34.8982   48.8982 H   0  0  0  0  0  0  0  0  0  0  0  0
   66.1460   33.9628   49.4231 H   0  0  0  0  0  0  0  0  0  0  0  0
   67.3274   32.3101   50.8682 H   0  0  0  0  0  0  0  0  0  0  0  0
   66.1157   30.3052   51.7283 H   0  0  0  0  0  0  0  0  0  0  0  0
   62.5198   31.6040   49.7061 H   0  0  0  0  0  0  0  0  0  0  0  0
   59.9305   34.6226   45.3335 H   0  0  0  0  0  0  0  0  0  0  0  0
   58.6536   34.0691   43.2672 H   0  0  0  0  0  0  0  0  0  0  0  0
   56.5390   31.1600   42.7740 H   0  0  0  0  0  0  0  0  0  0  0  0
   58.0648   27.9136   44.6910 H   0  0  0  0  0  0  0  0  0  0  0  0
   57.1707   27.5508   43.1758 H   0  0  0  0  0  0  0  0  0  0  0  0
   58.4732   28.7878   43.1758 H   0  0  0  0  0  0  0  0  0  0  0  0
   58.4241   31.0350   47.2275 H   0  0  0  0  0  0  0  0  0  0  0  0
   57.0458   32.3052   51.0645 H   0  0  0  0  0  0  0  0  0  0  0  0
  1  2  1  0
  2  3  1  0
  3  4  2  0
  4  5  1  0
  5  6  2  0
  6  7  1  0
  7  8  1  0
  8  9  1  0
  9 10  1  0
 10 11  2  0
 10 12  1  0
 12 13  1  0
 13 14  1  0
 14 15  2  0
 15 16  1  0
 16 17  2  0
 17 18  1  0
 18 19  1  0
 18 20  2  0
 12 21  1  0
 21 22  2  0
 21 23  1  0
 23 24  1  0
 24 25  2  0
 25 26  1  0
 26 27  2  0
 27 28  1  0
 27 29  1  0
 29 30  1  0
 30 31  1  0
 31 32  1  0
 31 33  2  0
 29 34  2  0
 23 35  1  0
 35 36  2  0
  7 37  2  0
 37  3  1  0
 35  9  1  0
 20 14  1  0
 34 24  1  0
  1 38  1  0
  1 39  1  0
  1 40  1  0
  4 41  1  0
  5 42  1  0
  6 43  1  0
  8 44  1  0
  8 45  1  0
 13 46  1  0
 13 47  1  0
 15 48  1  0
 16 49  1  0
 17 50  1  0
 20 51  1  0
 25 52  1  0
 26 53  1  0
 28 54  1  0
 32 55  1  0
 32 56  1  0
 32 57  1  0
 34 58  1  0
 37 59  1  0
M  CHG  1  30  -1
M  END
>  <UniqueID>  (48) 
42

>  <SMILES>  (48) 
COc1cccc(Cn2c(=O)n(Cc3cccc(F)c3)c(=O)n(-c3ccc(O)c([N-]C(C)=O)c3)c2=O)c1

>  <Energy>  (48) 
83.92027164049935

>  <Genealogy>  (48) 
COc1cccc(Cn2c(=O)n(Cc3cccc(F)c3)c(=O)n(-c3ccc(O)c([N-]C(C)=O)c3)c2=O)c1 (protonated)
COc1cccc(Cn2c(=O)n(Cc3cccc(F)c3)c(=O)n(-c3ccc(O)c([N-]C(C)=O)c3)c2=O)c1 (3D coordinates assigned)
COc1cccc(Cn2c(=O)n(Cc3cccc(F)c3)c(=O)n(-c3ccc(O)c([N-]C(C)=O)c3)c2=O)c1 (optimized conformer: 83.92027164049935 kcal/mol)

>  <smiles>  (48) 
COc1cccc(Cn2c(=O)n(Cc3cccc(F)c3)c(=O)n(-c3ccc(O)c(NC(C)=O)c3)c2=O)c1

>  <score_type>  (48) 
oracle

>  <origin>  (48) 
adg

>  <m_score__min__energy>  (48) 
-10.289999999999999

>  <m_primary>  (48) 
energy

$$$$
48:0
     RDKit          3D

 42 44  0  0  0  0  0  0  0  0999 V2000
   64.1893   33.3566   46.3068 H   0  0  0  0  0  0  0  0  0  0  0  0
   63.4100   33.6000   47.0440 C   0  0  0  0  0  0  0  0  0  0  0  0
   62.0760   33.6920   46.6420 C   0  0  0  0  0  0  0  0  0  0  0  0
   61.8056   33.5124   45.5910 H   0  0  0  0  0  0  0  0  0  0  0  0
   61.0770   34.0140   47.5790 C   0  0  0  0  0  0  0  0  0  0  0  0
   59.7250   34.1130   47.2190 O   0  0  0  0  0  0  0  0  0  0  0  0
   59.0370   33.1730   46.4390 C   0  0  0  0  0  0  0  0  0  0  0  0
   58.4760   33.5920   45.2270 C   0  0  0  0  0  0  0  0  0  0  0  0
   58.5906   34.6373   44.9043 H   0  0  0  0  0  0  0  0  0  0  0  0
   57.7720   32.6920   44.4250 C   0  0  0  0  0  0  0  0  0  0  0  0
   57.3269   33.0340   43.4790 H   0  0  0  0  0  0  0  0  0  0  0  0
   57.6300   31.3570   44.8190 C   0  0  0  0  0  0  0  0  0  0  0  0
   56.7210   30.2360   43.8110 S   0  0  0  0  0  0  0  0  0  0  0  0
   56.4860   30.8160   42.4440 O   0  0  0  0  0  0  0  0  0  0  0  0
   55.3940   29.9680   44.4610 O   0  0  0  0  0  0  0  0  0  0  0  0
   57.5870   28.7370   43.6530 N   0  0  0  0  0  0  0  0  0  0  0  0
   57.9580   27.9460   44.6210 C   0  0  0  0  0  0  0  0  0  0  0  0
   59.3040   27.8350   45.0310 C   0  0  0  0  0  0  0  0  0  0  0  0
   60.0865   28.4218   44.5276 H   0  0  0  0  0  0  0  0  0  0  0  0
   59.6350   26.9760   46.0790 C   0  0  0  0  0  0  0  0  0  0  0  0
   60.6810   26.8860   46.4072 H   0  0  0  0  0  0  0  0  0  0  0  0
   58.6400   26.2320   46.7100 C   0  0  0  0  0  0  0  0  0  0  0  0
   58.8939   25.5520   47.5365 H   0  0  0  0  0  0  0  0  0  0  0  0
   57.3180   26.3590   46.2820 C   0  0  0  0  0  0  0  0  0  0  0  0
   56.3420   25.6390   46.8890 F   0  0  0  0  0  0  0  0  0  0  0  0
   57.0070   27.2020   45.2590 N   0  0  0  0  0  0  0  0  0  0  0  0
   56.0080   27.2760   44.9610 H   0  0  0  0  0  0  0  0  0  0  0  0
   58.2180   30.9200   46.0140 C   0  0  0  0  0  0  0  0  0  0  0  0
   58.1243   29.8667   46.3170 H   0  0  0  0  0  0  0  0  0  0  0  0
   58.9250   31.8190   46.8250 C   0  0  0  0  0  0  0  0  0  0  0  0
   59.5690   31.3270   48.0180 C   0  0  0  0  0  0  0  0  0  0  0  0
   60.0850   30.9340   48.9750 N   0  0  0  0  0  0  0  0  0  0  0  0
   61.4310   34.2150   48.9190 C   0  0  0  0  0  0  0  0  0  0  0  0
   60.6512   34.4461   49.6596 H   0  0  0  0  0  0  0  0  0  0  0  0
   62.7770   34.1240   49.3280 C   0  0  0  0  0  0  0  0  0  0  0  0
   63.1820   34.3270   50.6570 O   0  0  0  0  0  0  0  0  0  0  0  0
   62.8660   33.4750   51.7560 C   0  0  0  0  0  0  0  0  0  0  0  0
   63.6930   33.7850   52.8160 F   0  0  0  0  0  0  0  0  0  0  0  0
   61.5520   33.6660   52.1440 F   0  0  0  0  0  0  0  0  0  0  0  0
   63.0670   32.1510   51.4050 F   0  0  0  0  0  0  0  0  0  0  0  0
   63.7580   33.8160   48.3790 C   0  0  0  0  0  0  0  0  0  0  0  0
   64.8115   33.7435   48.6870 H   0  0  0  0  0  0  0  0  0  0  0  0
  1  2  1  0
  2  3  2  0
  3  4  1  0
  3  5  1  0
  5  6  1  0
  6  7  1  0
  7  8  2  0
  8  9  1  0
  8 10  1  0
 10 11  1  0
 10 12  2  0
 12 13  1  0
 13 14  2  0
 13 15  2  0
 13 16  1  0
 16 17  2  0
 17 18  1  0
 18 19  1  0
 18 20  2  0
 20 21  1  0
 20 22  1  0
 22 23  1  0
 22 24  2  0
 24 25  1  0
 24 26  1  0
 26 27  1  0
 12 28  1  0
 28 29  1  0
 28 30  2  0
 30 31  1  0
 31 32  3  0
  5 33  2  0
 33 34  1  0
 33 35  1  0
 35 36  1  0
 36 37  1  0
 37 38  1  0
 37 39  1  0
 37 40  1  0
 35 41  2  0
 41 42  1  0
 41  2  1  0
 30  7  1  0
 26 17  1  0
M  END
>  <UniqueID>  (49) 
43

>  <SMILES>  (49) 
N#Cc1cc(S(=O)(=O)/N=c2\cccc(F)[nH]2)ccc1Oc1cccc(OC(F)(F)F)c1

>  <Energy>  (49) 
58.28986364032091

>  <Genealogy>  (49) 
N#Cc1cc(S(=O)(=O)/N=c2\cccc(F)[nH]2)ccc1Oc1cccc(OC(F)(F)F)c1 (cis-trans isomerization)
N#Cc1cc(S(=O)(=O)/N=c2\cccc(F)[nH]2)ccc1Oc1cccc(OC(F)(F)F)c1 (3D coordinates assigned)
N#Cc1cc(S(=O)(=O)/N=c2\cccc(F)[nH]2)ccc1Oc1cccc(OC(F)(F)F)c1 (optimized conformer: 58.28986364032091 kcal/mol)

>  <smiles>  (49) 
N#Cc1cc(S(=O)(=O)N=c2cccc(F)[nH]2)ccc1Oc1cccc(OC(F)(F)F)c1

>  <score_type>  (49) 
oracle

>  <origin>  (49) 
adg

>  <m_score__min__energy>  (49) 
-8.2400000000000002

>  <m_primary>  (49) 
energy

$$$$
49:0
     RDKit          3D

 29 30  0  0  0  0  0  0  0  0999 V2000
   56.8870   29.1540   42.8600 N   0  0  0  0  0  0  0  0  0  0  0  0
   56.6620   29.4200   44.5530 S   0  0  0  0  0  0  0  0  0  0  0  0
   57.2010   28.2470   45.3210 O   0  0  0  0  0  0  0  0  0  0  0  0
   55.1950   29.5590   44.8530 O   0  0  0  0  0  0  0  0  0  0  0  0
   57.5070   30.8880   45.0320 C   0  0  0  0  0  0  0  0  0  0  0  0
   58.5620   30.8280   45.9520 C   0  0  0  0  0  0  0  0  0  0  0  0
   59.2420   31.9920   46.3220 C   0  0  0  0  0  0  0  0  0  0  0  0
   58.8790   33.2350   45.7740 C   0  0  0  0  0  0  0  0  0  0  0  0
   59.6010   34.4640   46.1680 C   0  0  0  0  0  0  0  0  0  0  0  0
   59.6080   35.4650   45.3990 O   0  0  0  0  0  0  0  0  0  0  0  0
   60.2280   34.5290   47.4210 O   0  0  0  0  0  0  0  0  0  0  0  0
   61.5190   34.0630   47.7100 C   0  0  0  0  0  0  0  0  0  0  0  0
   62.3520   33.4810   46.7360 C   0  0  0  0  0  0  0  0  0  0  0  0
   63.5900   33.0330   47.0760 N   0  0  0  0  0  0  0  0  0  0  0  0
   64.0610   33.1250   48.3470 C   0  0  0  0  0  0  0  0  0  0  0  0
   63.2620   33.6790   49.3490 C   0  0  0  0  0  0  0  0  0  0  0  0
   63.8550   33.7900   50.9960 Cl  0  0  0  0  0  0  0  0  0  0  0  0
   61.9850   34.1420   49.0260 C   0  0  0  0  0  0  0  0  0  0  0  0
   57.8250   33.2870   44.8440 C   0  0  0  0  0  0  0  0  0  0  0  0
   57.1470   32.1210   44.4750 C   0  0  0  0  0  0  0  0  0  0  0  0
   56.7220   28.1370   42.6860 H   0  0  0  0  0  0  0  0  0  0  0  0
   57.8940   29.3360   42.6530 H   0  0  0  0  0  0  0  0  0  0  0  0
   58.8565   29.8607   46.3851 H   0  0  0  0  0  0  0  0  0  0  0  0
   60.0671   31.9351   47.0472 H   0  0  0  0  0  0  0  0  0  0  0  0
   62.0008   33.3884   45.6977 H   0  0  0  0  0  0  0  0  0  0  0  0
   65.0717   32.7631   48.5866 H   0  0  0  0  0  0  0  0  0  0  0  0
   61.3431   34.5705   49.8098 H   0  0  0  0  0  0  0  0  0  0  0  0
   57.5320   34.2516   44.4039 H   0  0  0  0  0  0  0  0  0  0  0  0
   56.3270   32.1728   43.7437 H   0  0  0  0  0  0  0  0  0  0  0  0
  1  2  1  0
  2  3  2  0
  2  4  2  0
  2  5  1  0
  5  6  2  0
  6  7  1  0
  7  8  2  0
  8  9  1  0
  9 10  2  0
  9 11  1  0
 11 12  1  0
 12 13  2  0
 13 14  1  0
 14 15  2  0
 15 16  1  0
 16 17  1  0
 16 18  2  0
  8 19  1  0
 19 20  2  0
 20  5  1  0
 18 12  1  0
  1 21  1  0
  1 22  1  0
  6 23  1  0
  7 24  1  0
 13 25  1  0
 15 26  1  0
 18 27  1  0
 19 28  1  0
 20 29  1  0
M  END
>  <UniqueID>  (50) 
44

>  <SMILES>  (50) 
NS(=O)(=O)c1ccc(C(=O)Oc2cncc(Cl)c2)cc1

>  <Energy>  (50) 
34.30581040959127

>  <Genealogy>  (50) 
NS(=O)(=O)c1ccc(C(=O)Oc2cncc(Cl)c2)cc1 (3D coordinates assigned)
NS(=O)(=O)c1ccc(C(=O)Oc2cncc(Cl)c2)cc1 (optimized conformer: 34.30581040959127 kcal/mol)

>  <smiles>  (50) 
NS(=O)(=O)c1ccc(C(=O)Oc2cncc(Cl)c2)cc1

>  <score_type>  (50) 
oracle

>  <origin>  (50) 
adg

>  <m_score__min__energy>  (50) 
-8.1300000000000008

>  <m_primary>  (50) 
energy

$$$$
50:0
     RDKit          3D

 51 54  0  0  0  0  0  0  0  0999 V2000
   63.0393   31.8311   46.2382 H   0  0  0  0  0  0  0  0  0  0  0  0
   62.7450   32.4310   47.1120 C   0  0  0  0  0  0  0  0  0  0  0  0
   63.5900   32.9100   48.0460 N   0  0  0  0  0  0  0  0  0  0  0  0
   62.8690   33.5690   48.9380 N   0  0  0  0  0  0  0  0  0  0  0  0
   63.4370   34.2790   50.0770 C   0  0  0  0  0  0  0  0  0  0  0  0
   62.6476   34.4698   50.8189 H   0  0  0  0  0  0  0  0  0  0  0  0
   63.8624   35.2338   49.7344 H   0  0  0  0  0  0  0  0  0  0  0  0
   64.5170   33.4530   50.7020 C   0  0  0  0  0  0  0  0  0  0  0  0
   64.5360   33.2980   51.9540 O   0  0  0  0  0  0  0  0  0  0  0  0
   65.5530   32.8900   49.8850 N   0  0  0  0  0  0  0  0  0  0  0  0
   65.5680   33.1130   48.8650 H   0  0  0  0  0  0  0  0  0  0  0  0
   66.6350   32.0750   50.4350 C   0  0  0  0  0  0  0  0  0  0  0  0
   67.0096   31.3968   49.6542 H   0  0  0  0  0  0  0  0  0  0  0  0
   66.2464   31.4969   51.2863 H   0  0  0  0  0  0  0  0  0  0  0  0
   67.7790   32.9600   50.9220 C   0  0  0  0  0  0  0  0  0  0  0  0
   67.7921   32.9701   52.0219 H   0  0  0  0  0  0  0  0  0  0  0  0
   68.7343   32.5635   50.5476 H   0  0  0  0  0  0  0  0  0  0  0  0
   67.6352   33.9843   50.5476 H   0  0  0  0  0  0  0  0  0  0  0  0
   61.5680   33.5420   48.5940 C   0  0  0  0  0  0  0  0  0  0  0  0
   60.7446   34.0176   49.1470 H   0  0  0  0  0  0  0  0  0  0  0  0
   61.4450   32.8110   47.4220 C   0  0  0  0  0  0  0  0  0  0  0  0
   60.2030   32.5140   46.6610 C   0  0  0  0  0  0  0  0  0  0  0  0
   59.5750   33.5160   45.8950 C   0  0  0  0  0  0  0  0  0  0  0  0
   60.0081   34.5266   45.8621 H   0  0  0  0  0  0  0  0  0  0  0  0
   58.4090   33.2410   45.1770 C   0  0  0  0  0  0  0  0  0  0  0  0
   57.9305   34.0345   44.5842 H   0  0  0  0  0  0  0  0  0  0  0  0
   57.8470   31.9590   45.2090 C   0  0  0  0  0  0  0  0  0  0  0  0
   56.6750   31.6660   44.5030 C   0  0  0  0  0  0  0  0  0  0  0  0
   56.1782   32.4502   43.9128 H   0  0  0  0  0  0  0  0  0  0  0  0
   56.1500   30.4130   44.5460 N   0  0  0  0  0  0  0  0  0  0  0  0
   56.7230   29.4010   45.2520 C   0  0  0  0  0  0  0  0  0  0  0  0
   56.1440   28.2330   45.2400 N   0  0  0  0  0  0  0  0  0  0  0  0
   56.7270   26.9650   45.5880 C   0  0  0  0  0  0  0  0  0  0  0  0
   56.3010   26.2770   46.7390 C   0  0  0  0  0  0  0  0  0  0  0  0
   55.4846   26.6882   47.3509 H   0  0  0  0  0  0  0  0  0  0  0  0
   56.9080   25.0760   47.1090 C   0  0  0  0  0  0  0  0  0  0  0  0
   56.5555   24.5335   47.9986 H   0  0  0  0  0  0  0  0  0  0  0  0
   57.9610   24.5630   46.3520 C   0  0  0  0  0  0  0  0  0  0  0  0
   58.4343   23.6135   46.6425 H   0  0  0  0  0  0  0  0  0  0  0  0
   58.4160   25.2530   45.2250 C   0  0  0  0  0  0  0  0  0  0  0  0
   59.2559   24.8509   44.6394 H   0  0  0  0  0  0  0  0  0  0  0  0
   57.8060   26.4580   44.8360 C   0  0  0  0  0  0  0  0  0  0  0  0
   58.3220   27.2070   43.6380 C   0  0  0  0  0  0  0  0  0  0  0  0
   58.9164   28.0698   43.9731 H   0  0  0  0  0  0  0  0  0  0  0  0
   58.9531   26.5399   43.0324 H   0  0  0  0  0  0  0  0  0  0  0  0
   57.4739   27.5590   43.0324 H   0  0  0  0  0  0  0  0  0  0  0  0
   57.8940   29.6620   45.9960 C   0  0  0  0  0  0  0  0  0  0  0  0
   58.3583   28.8640   46.5939 H   0  0  0  0  0  0  0  0  0  0  0  0
   58.4620   30.9430   45.9690 C   0  0  0  0  0  0  0  0  0  0  0  0
   59.6320   31.2270   46.6920 C   0  0  0  0  0  0  0  0  0  0  0  0
   60.1078   30.4352   47.2893 H   0  0  0  0  0  0  0  0  0  0  0  0
  1  2  1  0
  2  3  2  0
  3  4  1  0
  4  5  1  0
  5  6  1  0
  5  7  1  0
  5  8  1  0
  8  9  2  0
  8 10  1  0
 10 11  1  0
 10 12  1  0
 12 13  1  0
 12 14  1  0
 12 15  1  0
 15 16  1  0
 15 17  1  0
 15 18  1  0
  4 19  1  0
 19 20  1  0
 19 21  2  0
 21 22  1  0
 22 23  1  0
 23 24  1  0
 23 25  2  0
 25 26  1  0
 25 27  1  0
 27 28  2  0
 28 29  1  0
 28 30  1  0
 30 31  1  0
 31 32  2  0
 32 33  1  0
 33 34  2  0
 34 35  1  0
 34 36  1  0
 36 37  1  0
 36 38  2  0
 38 39  1  0
 38 40  1  0
 40 41  1  0
 40 42  2  0
 42 43  1  0
 43 44  1  0
 43 45  1  0
 43 46  1  0
 31 47  1  0
 47 48  1  0
 47 49  2  0
 49 50  1  0
 50 51  1  0
 21  2  1  0
 50 22  2  0
 49 27  1  0
 42 33  1  0
M  CHG  1  30  -1
M  END
>  <UniqueID>  (51) 
45

>  <SMILES>  (51) 
CCNC(=O)Cn1cc(-c2ccc3c[n-]/c(=N/c4ccccc4C)cc3c2)cn1

>  <Energy>  (51) 
93.05530378540844

>  <Genealogy>  (51) 
CCNC(=O)Cn1cc(-c2ccc3c[n-]c(=Nc4ccccc4C)cc3c2)cn1 (protonated)
CCNC(=O)Cn1cc(-c2ccc3c[n-]/c(=N/c4ccccc4C)cc3c2)cn1 (cis-trans isomerization)
CCNC(=O)Cn1cc(-c2ccc3c[n-]/c(=N/c4ccccc4C)cc3c2)cn1 (3D coordinates assigned)
CCNC(=O)Cn1cc(-c2ccc3c[n-]/c(=N/c4ccccc4C)cc3c2)cn1 (optimized conformer: 93.05530378540844 kcal/mol)

>  <smiles>  (51) 
CCNC(=O)Cn1cc(-c2ccc3c[nH]c(=Nc4ccccc4C)cc3c2)cn1

>  <score_type>  (51) 
oracle

>  <origin>  (51) 
adg

>  <m_score__min__energy>  (51) 
-9.8800000000000008

>  <m_primary>  (51) 
energy

$$$$
51:0
     RDKit          3D

 66 69  0  0  0  0  0  0  0  0999 V2000
   57.5880   32.1600   50.1100 N   0  0  0  0  0  0  0  0  0  0  0  0
   58.9370   32.7780   49.2210 S   0  0  0  0  0  0  0  0  0  0  0  0
   59.2640   34.1590   49.7100 O   0  0  0  0  0  0  0  0  0  0  0  0
   60.1300   31.8870   49.4380 O   0  0  0  0  0  0  0  0  0  0  0  0
   58.5210   32.8450   47.5130 C   0  0  0  0  0  0  0  0  0  0  0  0
   58.1950   34.0620   46.9030 C   0  0  0  0  0  0  0  0  0  0  0  0
   57.9880   34.1180   45.5220 C   0  0  0  0  0  0  0  0  0  0  0  0
   58.1270   32.9660   44.7430 C   0  0  0  0  0  0  0  0  0  0  0  0
   58.4470   31.7400   45.3480 C   0  0  0  0  0  0  0  0  0  0  0  0
   58.7620   30.5400   44.5000 C   0  0  0  0  0  0  0  0  0  0  0  0
   57.6060   29.1900   44.9370 S   0  0  0  0  0  0  0  0  0  0  0  0
   58.7520   28.2890   45.9880 C   0  0  0  0  0  0  0  0  0  0  0  0
   59.3770   27.1320   45.5040 C   0  0  0  0  0  0  0  0  0  0  0  0
   60.3040   26.4500   46.2990 C   0  0  0  0  0  0  0  0  0  0  0  0
   60.5920   26.9060   47.5900 C   0  0  0  0  0  0  0  0  0  0  0  0
   59.9470   28.0450   48.0900 C   0  0  0  0  0  0  0  0  0  0  0  0
   60.1760   28.4600   49.4410 N   0  0  0  0  0  0  0  0  0  0  0  0
   59.2480   29.3120   50.1270 C   0  0  0  0  0  0  0  0  0  0  0  0
   58.1460   29.6080   49.5880 O   0  0  0  0  0  0  0  0  0  0  0  0
   59.5640   29.8050   51.4350 N   0  0  0  0  0  0  0  0  0  0  0  0
   58.5670   30.1940   52.3900 C   0  0  0  0  0  0  0  0  0  0  0  0
   57.3500   29.9400   52.1930 O   0  0  0  0  0  0  0  0  0  0  0  0
   59.0670   30.9500   53.9350 S   0  0  0  0  0  0  0  0  0  0  0  0
   59.2020   32.5970   53.2300 C   0  0  0  0  0  0  0  0  0  0  0  0
   58.3380   33.0010   52.4690 O   0  0  0  0  0  0  0  0  0  0  0  0
   60.4100   33.4420   53.5220 C   0  0  0  0  0  0  0  0  0  0  0  0
   61.6280   32.7890   53.0490 N   0  0  0  0  0  0  0  0  0  0  0  0
   62.5610   32.1740   53.8030 C   0  0  0  0  0  0  0  0  0  0  0  0
   63.4950   31.6120   52.9600 C   0  0  0  0  0  0  0  0  0  0  0  0
   63.1430   31.8810   51.6860 N   0  0  0  0  0  0  0  0  0  0  0  0
   63.7930   31.3240   50.4960 C   0  0  0  0  0  0  0  0  0  0  0  0
   63.2950   31.9620   49.2250 C   0  0  0  0  0  0  0  0  0  0  0  0
   62.5740   31.2050   48.2870 C   0  0  0  0  0  0  0  0  0  0  0  0
   62.0490   31.8140   47.1440 C   0  0  0  0  0  0  0  0  0  0  0  0
   62.2360   33.1830   46.9310 C   0  0  0  0  0  0  0  0  0  0  0  0
   61.7170   33.7730   45.8250 F   0  0  0  0  0  0  0  0  0  0  0  0
   62.9490   33.9430   47.8610 C   0  0  0  0  0  0  0  0  0  0  0  0
   63.4700   33.3390   49.0100 C   0  0  0  0  0  0  0  0  0  0  0  0
   61.9970   32.5960   51.7690 C   0  0  0  0  0  0  0  0  0  0  0  0
   59.0590   28.7580   47.2720 C   0  0  0  0  0  0  0  0  0  0  0  0
   58.6130   31.6840   46.7390 C   0  0  0  0  0  0  0  0  0  0  0  0
   57.1760   32.9600   50.6400 H   0  0  0  0  0  0  0  0  0  0  0  0
   57.9660   31.4890   50.8170 H   0  0  0  0  0  0  0  0  0  0  0  0
   58.1018   34.9742   47.5106 H   0  0  0  0  0  0  0  0  0  0  0  0
   57.7148   35.0717   45.0467 H   0  0  0  0  0  0  0  0  0  0  0  0
   57.9854   33.0199   43.6535 H   0  0  0  0  0  0  0  0  0  0  0  0
   58.6450   30.7974   43.4370 H   0  0  0  0  0  0  0  0  0  0  0  0
   59.7984   30.2174   44.6787 H   0  0  0  0  0  0  0  0  0  0  0  0
   59.1382   26.7594   44.4970 H   0  0  0  0  0  0  0  0  0  0  0  0
   60.8076   25.5534   45.9085 H   0  0  0  0  0  0  0  0  0  0  0  0
   61.3244   26.3706   48.2121 H   0  0  0  0  0  0  0  0  0  0  0  0
   60.9010   27.9650   50.0030 H   0  0  0  0  0  0  0  0  0  0  0  0
   60.5660   29.8240   51.7290 H   0  0  0  0  0  0  0  0  0  0  0  0
   60.3017   34.4127   53.0160 H   0  0  0  0  0  0  0  0  0  0  0  0
   60.4861   33.5832   54.6102 H   0  0  0  0  0  0  0  0  0  0  0  0
   62.5744   32.1286   54.9020 H   0  0  0  0  0  0  0  0  0  0  0  0
   64.3802   31.0394   53.2738 H   0  0  0  0  0  0  0  0  0  0  0  0
   64.8776   31.4897   50.5743 H   0  0  0  0  0  0  0  0  0  0  0  0
   63.5545   30.2511   50.4516 H   0  0  0  0  0  0  0  0  0  0  0  0
   62.4219   30.1282   48.4528 H   0  0  0  0  0  0  0  0  0  0  0  0
   61.4880   31.2155   46.4111 H   0  0  0  0  0  0  0  0  0  0  0  0
   63.1011   35.0188   47.6895 H   0  0  0  0  0  0  0  0  0  0  0  0
   64.0182   33.9440   49.7472 H   0  0  0  0  0  0  0  0  0  0  0  0
   61.4375   32.9721   50.8998 H   0  0  0  0  0  0  0  0  0  0  0  0
   58.6019   29.6886   47.6396 H   0  0  0  0  0  0  0  0  0  0  0  0
   58.8173   30.7188   47.2255 H   0  0  0  0  0  0  0  0  0  0  0  0
  1  2  1  0
  2  3  2  0
  2  4  2  0
  2  5  1  0
  5  6  2  0
  6  7  1  0
  7  8  2  0
  8  9  1  0
  9 10  1  0
 10 11  1  0
 11 12  1  0
 12 13  2  0
 13 14  1  0
 14 15  2  0
 15 16  1  0
 16 17  1  0
 17 18  1  0
 18 19  2  0
 18 20  1  0
 20 21  1  0
 21 22  2  0
 21 23  1  0
 23 24  1  0
 24 25  2  0
 24 26  1  0
 26 27  1  0
 27 28  1  0
 28 29  2  0
 29 30  1  0
 30 31  1  0
 31 32  1  0
 32 33  2  0
 33 34  1  0
 34 35  2  0
 35 36  1  0
 35 37  1  0
 37 38  2  0
 30 39  2  0
 16 40  2  0
  9 41  2  0
 41  5  1  0
 40 12  1  0
 39 27  1  0
 38 32  1  0
  1 42  1  0
  1 43  1  0
  6 44  1  0
  7 45  1  0
  8 46  1  0
 10 47  1  0
 10 48  1  0
 13 49  1  0
 14 50  1  0
 15 51  1  0
 17 52  1  0
 20 53  1  0
 26 54  1  0
 26 55  1  0
 28 56  1  0
 29 57  1  0
 31 58  1  0
 31 59  1  0
 33 60  1  0
 34 61  1  0
 37 62  1  0
 38 63  1  0
 39 64  1  0
 40 65  1  0
 41 66  1  0
M  CHG  1  30   1
M  END
>  <UniqueID>  (52) 
46

>  <SMILES>  (52) 
NS(=O)(=O)c1cccc(CSc2cccc(NC(=O)NC(=O)SC(=O)Cn3cc[n+](Cc4ccc(F)cc4)c3)c2)c1

>  <Energy>  (52) 
89.23419324762592

>  <Genealogy>  (52) 
NS(=O)(=O)c1cccc(CSc2cccc(NC(=O)NC(=O)SC(=O)Cn3cc[n+](Cc4ccc(F)cc4)c3)c2)c1 (3D coordinates assigned)
NS(=O)(=O)c1cccc(CSc2cccc(NC(=O)NC(=O)SC(=O)Cn3cc[n+](Cc4ccc(F)cc4)c3)c2)c1 (optimized conformer: 89.23419324762592 kcal/mol)

>  <smiles>  (52) 
NS(=O)(=O)c1cccc(CSc2cccc(NC(=O)NC(=O)SC(=O)Cn3cc[n+](Cc4ccc(F)cc4)c3)c2)c1

>  <score_type>  (52) 
oracle

>  <origin>  (52) 
adg

>  <m_score__min__energy>  (52) 
-9.0099999999999998

>  <m_primary>  (52) 
energy

$$$$
52:0
     RDKit          3D

 51 54  0  0  0  0  0  0  0  0999 V2000
   54.2770   25.9530   45.6980 N   0  0  0  0  0  0  0  0  0  0  0  0
   55.5290   25.2750   45.7910 C   0  0  0  0  0  0  0  0  0  0  0  0
   55.5800   24.0530   45.4870 O   0  0  0  0  0  0  0  0  0  0  0  0
   56.7600   25.9850   46.2350 C   0  0  0  0  0  0  0  0  0  0  0  0
   56.8690   27.3750   46.0270 C   0  0  0  0  0  0  0  0  0  0  0  0
   58.0150   28.0850   46.4270 C   0  0  0  0  0  0  0  0  0  0  0  0
   58.1140   29.5500   46.2020 C   0  0  0  0  0  0  0  0  0  0  0  0
   57.6920   30.1150   44.9860 C   0  0  0  0  0  0  0  0  0  0  0  0
   57.7740   31.4940   44.7820 C   0  0  0  0  0  0  0  0  0  0  0  0
   58.2870   32.3230   45.7800 C   0  0  0  0  0  0  0  0  0  0  0  0
   58.7330   31.7780   46.9950 C   0  0  0  0  0  0  0  0  0  0  0  0
   59.2370   32.6220   48.0450 N   0  0  0  0  0  0  0  0  0  0  0  0
   58.9250   32.4430   49.3200 N   0  0  0  0  0  0  0  0  0  0  0  0
   59.5320   33.4130   50.0300 C   0  0  0  0  0  0  0  0  0  0  0  0
   59.3790   33.5900   51.5070 C   0  0  0  0  0  0  0  0  0  0  0  0
   58.8300   32.4440   52.0510 F   0  0  0  0  0  0  0  0  0  0  0  0
   58.5470   34.6630   51.7700 F   0  0  0  0  0  0  0  0  0  0  0  0
   60.6130   33.8230   52.0880 F   0  0  0  0  0  0  0  0  0  0  0  0
   60.2400   34.2460   49.1860 C   0  0  0  0  0  0  0  0  0  0  0  0
   60.0320   33.7130   47.9300 C   0  0  0  0  0  0  0  0  0  0  0  0
   60.6860   34.1770   46.6930 C   0  0  0  0  0  0  0  0  0  0  0  0
   59.9720   34.5650   45.7310 O   0  0  0  0  0  0  0  0  0  0  0  0
   62.1130   34.2070   46.5540 N   0  0  0  0  0  0  0  0  0  0  0  0
   63.0010   33.0610   46.7390 C   0  0  0  0  0  0  0  0  0  0  0  0
   63.0710   32.6820   48.1950 C   0  0  0  0  0  0  0  0  0  0  0  0
   62.4550   31.5070   48.6590 C   0  0  0  0  0  0  0  0  0  0  0  0
   62.4750   31.1940   50.0220 C   0  0  0  0  0  0  0  0  0  0  0  0
   63.1120   32.0470   50.9280 C   0  0  0  0  0  0  0  0  0  0  0  0
   63.7330   33.2130   50.4720 C   0  0  0  0  0  0  0  0  0  0  0  0
   63.7130   33.5310   49.1110 C   0  0  0  0  0  0  0  0  0  0  0  0
   58.6280   30.3930   47.2050 C   0  0  0  0  0  0  0  0  0  0  0  0
   59.0660   27.3890   47.0440 C   0  0  0  0  0  0  0  0  0  0  0  0
   58.9720   26.0140   47.2570 C   0  0  0  0  0  0  0  0  0  0  0  0
   57.8330   25.3090   46.8600 C   0  0  0  0  0  0  0  0  0  0  0  0
   57.7870   23.9400   47.0990 O   0  0  0  0  0  0  0  0  0  0  0  0
   54.0270   26.7150   46.3670 H   0  0  0  0  0  0  0  0  0  0  0  0
   56.0418   27.9145   45.5426 H   0  0  0  0  0  0  0  0  0  0  0  0
   57.2949   29.4672   44.1906 H   0  0  0  0  0  0  0  0  0  0  0  0
   57.4328   31.9283   43.8307 H   0  0  0  0  0  0  0  0  0  0  0  0
   58.3424   33.4090   45.6143 H   0  0  0  0  0  0  0  0  0  0  0  0
   60.8342   35.1322   49.4538 H   0  0  0  0  0  0  0  0  0  0  0  0
   62.6174   32.2078   46.1602 H   0  0  0  0  0  0  0  0  0  0  0  0
   64.0092   33.3304   46.3911 H   0  0  0  0  0  0  0  0  0  0  0  0
   61.9559   30.8318   47.9483 H   0  0  0  0  0  0  0  0  0  0  0  0
   61.9887   30.2752   50.3816 H   0  0  0  0  0  0  0  0  0  0  0  0
   63.1245   31.8004   51.9999 H   0  0  0  0  0  0  0  0  0  0  0  0
   64.2381   33.8813   51.1849 H   0  0  0  0  0  0  0  0  0  0  0  0
   64.2022   34.4501   48.7560 H   0  0  0  0  0  0  0  0  0  0  0  0
   58.9512   29.9624   48.1643 H   0  0  0  0  0  0  0  0  0  0  0  0
   59.9690   27.9311   47.3614 H   0  0  0  0  0  0  0  0  0  0  0  0
   59.8022   25.4796   47.7420 H   0  0  0  0  0  0  0  0  0  0  0  0
  1  2  1  0
  2  3  2  0
  2  4  1  0
  4  5  2  0
  5  6  1  0
  6  7  1  0
  7  8  2  0
  8  9  1  0
  9 10  2  0
 10 11  1  0
 11 12  1  0
 12 13  1  0
 13 14  2  0
 14 15  1  0
 15 16  1  0
 15 17  1  0
 15 18  1  0
 14 19  1  0
 19 20  2  0
 20 21  1  0
 21 22  2  0
 21 23  1  0
 23 24  1  0
 24 25  1  0
 25 26  2  0
 26 27  1  0
 27 28  2  0
 28 29  1  0
 29 30  2  0
 11 31  2  0
  6 32  2  0
 32 33  1  0
 33 34  2  0
 34 35  1  0
 34  4  1  0
 31  7  1  0
 20 12  1  0
 30 25  1  0
  1 36  1  0
  5 37  1  0
  8 38  1  0
  9 39  1  0
 10 40  1  0
 19 41  1  0
 24 42  1  0
 24 43  1  0
 26 44  1  0
 27 45  1  0
 28 46  1  0
 29 47  1  0
 30 48  1  0
 31 49  1  0
 32 50  1  0
 33 51  1  0
M  CHG  3   1  -1  23  -1  35  -1
M  END
>  <UniqueID>  (53) 
47

>  <SMILES>  (53) 
[NH-]C(=O)c1cc(-c2cccc(-n3nc(C(F)(F)F)cc3C(=O)[N-]Cc3ccccc3)c2)ccc1[O-]

>  <Energy>  (53) 
97.08717670052108

>  <Genealogy>  (53) 
[NH-]C(=O)c1cc(-c2cccc(-n3nc(C(F)(F)F)cc3C(=O)[N-]Cc3ccccc3)c2)ccc1[O-] (protonated)
[NH-]C(=O)c1cc(-c2cccc(-n3nc(C(F)(F)F)cc3C(=O)[N-]Cc3ccccc3)c2)ccc1[O-] (3D coordinates assigned)
[NH-]C(=O)c1cc(-c2cccc(-n3nc(C(F)(F)F)cc3C(=O)[N-]Cc3ccccc3)c2)ccc1[O-] (optimized conformer: 97.08717670052108 kcal/mol)

>  <smiles>  (53) 
NC(=O)c1cc(-c2cccc(-n3nc(C(F)(F)F)cc3C(=O)NCc3ccccc3)c2)ccc1O

>  <score_type>  (53) 
oracle

>  <origin>  (53) 
adg

>  <m_score__min__energy>  (53) 
-14.69

>  <m_primary>  (53) 
energy

$$$$
53:0
     RDKit          3D

 43 45  0  0  1  0  0  0  0  0999 V2000
   56.0040   31.2290   52.4350 C   0  0  0  0  0  0  0  0  0  0  0  0
   56.7090   30.2610   51.6260 N   0  0  0  0  0  0  0  0  0  0  0  0
   57.7830   30.5690   50.9960 C   0  0  0  0  0  0  0  0  0  0  0  0
   57.8500   31.7940   50.4510 N   0  0  0  0  0  0  0  0  0  0  0  0
   58.9620   32.1890   49.7680 C   0  0  0  0  0  0  0  0  0  0  0  0
   58.9310   33.4680   49.2460 O   0  0  0  0  0  0  0  0  0  0  0  0
   58.9400   33.7230   47.8840 C   0  0  0  0  0  0  0  0  0  0  0  0
   59.9230   34.5900   47.3900 C   0  0  0  0  0  0  0  0  0  0  0  0
   59.9390   34.8520   46.0170 C   0  0  0  0  0  0  0  0  0  0  0  0
   58.9970   34.2520   45.2080 C   0  0  0  0  0  0  0  0  0  0  0  0
   58.0240   33.4000   45.6610 C   0  0  0  0  0  0  0  0  0  0  0  0
   57.0390   32.7730   44.8810 N   0  0  0  0  0  0  0  0  0  0  0  0
   56.9400   31.1450   44.4610 S   0  0  0  0  0  0  0  0  0  0  0  0
   57.3800   30.9950   43.0090 O   0  0  0  0  0  0  0  0  0  0  0  0
   55.5540   30.5760   44.4870 O   0  0  0  0  0  0  0  0  0  0  0  0
   57.9680   30.0680   45.3700 C   0  0  0  0  0  0  0  0  0  0  0  0
   59.2370   30.4010   45.7930 C   0  0  0  0  0  0  0  0  0  0  0  0
   59.9840   29.5110   46.4990 C   0  0  0  0  0  0  0  0  0  0  0  0
   59.5420   28.2560   46.8310 C   0  0  0  0  0  0  0  0  0  0  0  0
   60.5050   27.1150   47.7380 Cl  0  0  0  0  0  0  0  0  0  0  0  0
   58.2750   27.8990   46.4190 C   0  0  0  0  0  0  0  0  0  0  0  0
   57.5700   26.3350   46.7650 Cl  0  0  0  0  0  0  0  0  0  0  0  0
   57.5010   28.7930   45.6990 C   0  0  0  0  0  0  0  0  0  0  0  0
   58.0090   33.1380   47.0350 C   0  0  0  0  0  0  0  0  0  0  0  0
   60.0190   31.3210   49.6380 C   0  0  0  0  0  0  0  0  0  0  0  0
   61.4440   31.8130   48.7680 Cl  0  0  0  0  0  0  0  0  0  0  0  0
   59.9090   30.0670   50.2150 C   0  0  0  0  0  0  0  0  0  0  0  0
   60.9020   29.2220   50.1070 N   0  0  0  0  0  0  0  0  0  0  0  0
   58.8090   29.6860   50.8880 N   0  0  0  0  0  0  0  0  0  0  0  0
   56.1669   31.0053   53.4996 H   0  0  0  0  0  0  0  0  0  0  0  0
   56.3802   32.2380   52.2106 H   0  0  0  0  0  0  0  0  0  0  0  0
   54.9282   31.1805   52.2106 H   0  0  0  0  0  0  0  0  0  0  0  0
   57.0340   32.4540   50.5550 H   0  0  0  0  0  0  0  0  0  0  0  0
   60.6609   35.0513   48.0629 H   0  0  0  0  0  0  0  0  0  0  0  0
   60.6931   35.5279   45.5875 H   0  0  0  0  0  0  0  0  0  0  0  0
   59.0287   34.4713   44.1305 H   0  0  0  0  0  0  0  0  0  0  0  0
   56.2700   33.4360   44.5230 H   0  0  0  0  0  0  0  0  0  0  0  0
   59.6482   31.3938   45.5577 H   0  0  0  0  0  0  0  0  0  0  0  0
   60.9922   29.8123   46.8196 H   0  0  0  0  0  0  0  0  0  0  0  0
   56.4929   28.4919   45.3779 H   0  0  0  0  0  0  0  0  0  0  0  0
   57.2491   32.4590   47.4491 H   0  0  0  0  0  0  0  0  0  0  0  0
   61.6110   29.2670   50.8790 H   0  0  0  0  0  0  0  0  0  0  0  0
   58.7090   28.7540   51.3250 H   0  0  0  0  0  0  0  0  0  0  0  0
  1  2  1  0
  2  3  2  0
  3  4  1  0
  4  5  1  0
  5  6  1  0
  6  7  1  0
  7  8  2  0
  8  9  1  0
  9 10  2  0
 10 11  1  0
 11 12  1  0
 12 13  1  0
 13 14  2  0
 13 15  2  0
 13 16  1  0
 16 17  2  0
 17 18  1  0
 18 19  2  0
 19 20  1  0
 19 21  1  0
 21 22  1  0
 21 23  2  0
 11 24  2  0
  5 25  2  0
 25 26  1  0
 25 27  1  0
 27 28  2  3
 27 29  1  0
 29  3  1  0
 24  7  1  0
 23 16  1  0
  1 30  1  0
  1 31  1  0
  1 32  1  0
  4 33  1  0
  8 34  1  0
  9 35  1  0
 10 36  1  0
 12 37  1  0
 17 38  1  0
 18 39  1  0
 23 40  1  0
 24 41  1  0
 28 42  1  0
 29 43  1  0
M  END
>  <smiles>  (54) 
CN=c1[nH]c(Oc2cccc(NS(=O)(=O)c3ccc(Cl)c(Cl)c3)c2)c(Cl)c(=N)[nH]1

>  <score_type>  (54) 
oracle

>  <origin>  (54) 
adg

>  <m_score__min__energy>  (54) 
-10.6

>  <m_primary>  (54) 
energy

$$$$
54:0
     RDKit          3D

 50 52  0  0  1  0  0  0  0  0999 V2000
   66.3210   32.3770   50.1970 C   0  0  0  0  0  0  0  0  0  0  0  0
   64.8870   32.3680   49.7630 C   0  0  0  0  0  0  0  0  0  0  0  0
   64.5780   33.5030   48.9940 O   0  0  0  0  0  0  0  0  0  0  0  0
   63.3220   33.6700   48.4670 C   0  0  0  0  0  0  0  0  0  0  0  0
   62.9670   33.5290   47.1570 C   0  0  0  0  0  0  0  0  0  0  0  0
   61.6700   33.7180   46.7020 C   0  0  0  0  0  0  0  0  0  0  0  0
   60.6760   34.0680   47.6070 C   0  0  0  0  0  0  0  0  0  0  0  0
   59.3360   34.2830   47.2180 N   0  0  0  0  0  0  0  0  0  0  0  0
   58.7540   33.4790   46.3650 C   0  0  0  0  0  0  0  0  0  0  0  0
   57.9890   32.4090   46.5300 N   0  0  0  0  0  0  0  0  0  0  0  0
   57.5870   31.8550   45.4380 N   0  0  0  0  0  0  0  0  0  0  0  0
   57.7680   32.1150   44.3280 C   0  0  0  0  0  0  0  0  0  0  0  0
   57.4020   31.6080   42.6280 S   0  0  0  0  0  0  0  0  0  0  0  0
   56.2710   30.1740   42.6680 C   0  0  0  0  0  0  0  0  0  0  0  0
   56.5730   29.3180   43.8660 C   0  0  0  0  0  0  0  0  0  0  0  0
   55.7450   29.2610   44.7960 O   0  0  0  0  0  0  0  0  0  0  0  0
   57.8120   28.6240   43.8410 N   0  0  0  0  0  0  0  0  0  0  0  0
   58.2670   27.7580   44.9080 C   0  0  0  0  0  0  0  0  0  0  0  0
   58.9780   28.5070   45.9740 C   0  0  0  0  0  0  0  0  0  0  0  0
   60.0180   29.3380   45.5360 C   0  0  0  0  0  0  0  0  0  0  0  0
   60.7600   30.0890   46.4220 C   0  0  0  0  0  0  0  0  0  0  0  0
   60.4470   30.0010   47.7680 C   0  0  0  0  0  0  0  0  0  0  0  0
   61.2730   30.8320   48.6930 C   0  0  0  0  0  0  0  0  0  0  0  0
   59.4310   29.1870   48.1840 C   0  0  0  0  0  0  0  0  0  0  0  0
   58.6680   28.4190   47.3120 C   0  0  0  0  0  0  0  0  0  0  0  0
   58.8850   33.6730   44.5540 S   0  0  0  0  0  0  0  0  0  0  0  0
   61.0030   34.2180   48.9380 C   0  0  0  0  0  0  0  0  0  0  0  0
   62.3100   34.0220   49.3690 C   0  0  0  0  0  0  0  0  0  0  0  0
   66.3715   32.3773   51.2958 H   0  0  0  0  0  0  0  0  0  0  0  0
   66.8278   31.4820   49.8069 H   0  0  0  0  0  0  0  0  0  0  0  0
   66.8165   33.2783   49.8069 H   0  0  0  0  0  0  0  0  0  0  0  0
   64.7006   31.4662   49.1613 H   0  0  0  0  0  0  0  0  0  0  0  0
   64.2527   32.3749   50.6617 H   0  0  0  0  0  0  0  0  0  0  0  0
   63.7441   33.2531   46.4290 H   0  0  0  0  0  0  0  0  0  0  0  0
   61.4313   33.5920   45.6356 H   0  0  0  0  0  0  0  0  0  0  0  0
   57.7400   32.0570   47.5080 H   0  0  0  0  0  0  0  0  0  0  0  0
   55.2320   30.5304   42.7269 H   0  0  0  0  0  0  0  0  0  0  0  0
   56.4084   29.5786   41.7534 H   0  0  0  0  0  0  0  0  0  0  0  0
   58.4580   28.7310   43.0030 H   0  0  0  0  0  0  0  0  0  0  0  0
   57.3955   27.2535   45.3507 H   0  0  0  0  0  0  0  0  0  0  0  0
   58.9730   27.0332   44.4765 H   0  0  0  0  0  0  0  0  0  0  0  0
   60.2471   29.3921   44.4615 H   0  0  0  0  0  0  0  0  0  0  0  0
   61.5756   30.7382   46.0708 H   0  0  0  0  0  0  0  0  0  0  0  0
   61.0229   30.5803   49.7342 H   0  0  0  0  0  0  0  0  0  0  0  0
   62.3394   30.6308   48.5132 H   0  0  0  0  0  0  0  0  0  0  0  0
   61.0654   31.8972   48.5132 H   0  0  0  0  0  0  0  0  0  0  0  0
   59.2064   29.1372   49.2597 H   0  0  0  0  0  0  0  0  0  0  0  0
   57.8554   27.7720   47.6740 H   0  0  0  0  0  0  0  0  0  0  0  0
   60.2242   34.4947   49.6639 H   0  0  0  0  0  0  0  0  0  0  0  0
   62.5531   34.1452   50.4347 H   0  0  0  0  0  0  0  0  0  0  0  0
  1  2  1  0
  2  3  1  0
  3  4  1  0
  4  5  2  0
  5  6  1  0
  6  7  2  0
  7  8  1  0
  8  9  2  0
  9 10  1  0
 10 11  1  0
 11 12  2  0
 12 13  1  0
 13 14  1  0
 14 15  1  0
 15 16  2  0
 15 17  1  0
 17 18  1  0
 18 19  1  0
 19 20  2  0
 20 21  1  0
 21 22  2  0
 22 23  1  0
 22 24  1  0
 24 25  2  0
 12 26  1  0
  7 27  1  0
 27 28  2  0
 28  4  1  0
 26  9  1  0
 25 19  1  0
  1 29  1  0
  1 30  1  0
  1 31  1  0
  2 32  1  0
  2 33  1  0
  5 34  1  0
  6 35  1  0
 10 36  1  0
 14 37  1  0
 14 38  1  0
 17 39  1  0
 18 40  1  0
 18 41  1  0
 20 42  1  0
 21 43  1  0
 23 44  1  0
 23 45  1  0
 23 46  1  0
 24 47  1  0
 25 48  1  0
 27 49  1  0
 28 50  1  0
M  END
>  <smiles>  (55) 
CCOc1ccc(N=c2[nH]nc(SCC(=O)NCc3ccc(C)cc3)s2)cc1

>  <score_type>  (55) 
oracle

>  <origin>  (55) 
adg

>  <m_score__min__energy>  (55) 
-8.8699999999999992

>  <m_primary>  (55) 
energy

$$$$
55:0
     RDKit          3D

 29 30  0  0  0  0  0  0  0  0999 V2000
   59.0737   35.6872   45.2221 H   0  0  0  0  0  0  0  0  0  0  0  0
   58.8330   34.6210   45.3460 C   0  0  0  0  0  0  0  0  0  0  0  0
   59.7730   33.7770   45.6480 N   0  0  0  0  0  0  0  0  0  0  0  0
   60.0600   33.3110   46.9750 C   0  0  0  0  0  0  0  0  0  0  0  0
   59.1160   32.8350   47.6600 O   0  0  0  0  0  0  0  0  0  0  0  0
   61.4130   33.3900   47.5750 C   0  0  0  0  0  0  0  0  0  0  0  0
   62.5510   33.3290   46.7520 C   0  0  0  0  0  0  0  0  0  0  0  0
   62.4330   33.2382   45.6621 H   0  0  0  0  0  0  0  0  0  0  0  0
   63.8320   33.3830   47.3100 C   0  0  0  0  0  0  0  0  0  0  0  0
   64.7172   33.3452   46.6581 H   0  0  0  0  0  0  0  0  0  0  0  0
   63.9890   33.4850   48.6950 C   0  0  0  0  0  0  0  0  0  0  0  0
   64.9972   33.5322   49.1324 H   0  0  0  0  0  0  0  0  0  0  0  0
   62.8650   33.5270   49.5240 C   0  0  0  0  0  0  0  0  0  0  0  0
   62.9892   33.6018   50.6144 H   0  0  0  0  0  0  0  0  0  0  0  0
   61.5820   33.4740   48.9690 C   0  0  0  0  0  0  0  0  0  0  0  0
   60.7003   33.4981   49.6263 H   0  0  0  0  0  0  0  0  0  0  0  0
   57.4490   34.1580   45.1690 C   0  0  0  0  0  0  0  0  0  0  0  0
   56.6400   34.8510   44.4960 O   0  0  0  0  0  0  0  0  0  0  0  0
   57.0300   32.8730   45.6500 N   0  0  0  0  0  0  0  0  0  0  0  0
   57.3430   31.7050   45.1630 C   0  0  0  0  0  0  0  0  0  0  0  0
   56.3780   30.9880   44.5270 N   0  0  0  0  0  0  0  0  0  0  0  0
   56.6360   29.7620   44.0040 C   0  0  0  0  0  0  0  0  0  0  0  0
   55.8398   29.2029   43.4907 H   0  0  0  0  0  0  0  0  0  0  0  0
   57.9110   29.2140   44.1190 C   0  0  0  0  0  0  0  0  0  0  0  0
   58.1401   28.2272   43.6904 H   0  0  0  0  0  0  0  0  0  0  0  0
   58.8890   29.9440   44.7890 C   0  0  0  0  0  0  0  0  0  0  0  0
   59.9021   29.5303   44.9008 H   0  0  0  0  0  0  0  0  0  0  0  0
   58.5950   31.1680   45.3060 N   0  0  0  0  0  0  0  0  0  0  0  0
   59.3430   31.6540   45.8460 H   0  0  0  0  0  0  0  0  0  0  0  0
  1  2  1  0
  2  3  2  0
  3  4  1  0
  4  5  2  0
  4  6  1  0
  6  7  2  0
  7  8  1  0
  7  9  1  0
  9 10  1  0
  9 11  2  0
 11 12  1  0
 11 13  1  0
 13 14  1  0
 13 15  2  0
 15 16  1  0
  2 17  1  0
 17 18  2  0
 17 19  1  0
 19 20  2  3
 20 21  1  0
 21 22  2  0
 22 23  1  0
 22 24  1  0
 24 25  1  0
 24 26  2  0
 26 27  1  0
 26 28  1  0
 28 29  1  0
 15  6  1  0
 28 20  1  0
M  END
>  <UniqueID>  (56) 
48

>  <SMILES>  (56) 
O=C(/C=N/C(=O)c1ccccc1)N=c1nccc[nH]1

>  <Energy>  (56) 
42.63344919615858

>  <Genealogy>  (56) 
O=C(/C=N/C(=O)c1ccccc1)N=c1nccc[nH]1 (cis-trans isomerization)
O=C(/C=N/C(=O)c1ccccc1)N=c1nccc[nH]1 (3D coordinates assigned)
O=C(/C=N/C(=O)c1ccccc1)N=c1nccc[nH]1 (optimized conformer: 42.63344919615858 kcal/mol)

>  <smiles>  (56) 
O=C(C=NC(=O)c1ccccc1)N=c1nccc[nH]1

>  <score_type>  (56) 
oracle

>  <origin>  (56) 
adg

>  <m_score__min__energy>  (56) 
-6.6399999999999997

>  <m_primary>  (56) 
energy

$$$$
56:0
     RDKit          3D

 33 34  0  0  0  0  0  0  0  0999 V2000
   59.1740   24.1280   45.8520 C   0  0  0  0  0  0  0  0  0  0  0  0
   58.0010   23.6990   45.0110 C   0  0  0  0  0  0  0  0  0  0  0  0
   58.1220   22.5380   44.2290 C   0  0  0  0  0  0  0  0  0  0  0  0
   57.0700   22.1150   43.4150 C   0  0  0  0  0  0  0  0  0  0  0  0
   55.8870   22.8510   43.3640 C   0  0  0  0  0  0  0  0  0  0  0  0
   55.7550   24.0170   44.1200 C   0  0  0  0  0  0  0  0  0  0  0  0
   56.8060   24.4620   44.9400 C   0  0  0  0  0  0  0  0  0  0  0  0
   56.5920   25.9630   45.8570 S   0  0  0  0  0  0  0  0  0  0  0  0
   57.1610   25.7750   47.2340 O   0  0  0  0  0  0  0  0  0  0  0  0
   55.1330   26.3070   45.9840 O   0  0  0  0  0  0  0  0  0  0  0  0
   57.4070   27.2800   45.0780 N   0  0  0  0  0  0  0  0  0  0  0  0
   58.2380   28.2530   45.7300 C   0  0  0  0  0  0  0  0  0  0  0  0
   59.3140   27.8660   46.5530 C   0  0  0  0  0  0  0  0  0  0  0  0
   60.0990   28.8300   47.1880 C   0  0  0  0  0  0  0  0  0  0  0  0
   59.8250   30.1850   47.0090 C   0  0  0  0  0  0  0  0  0  0  0  0
   58.7670   30.5830   46.1900 C   0  0  0  0  0  0  0  0  0  0  0  0
   57.9700   29.6250   45.5460 C   0  0  0  0  0  0  0  0  0  0  0  0
   56.6350   30.1480   44.5110 S   0  0  0  0  0  0  0  0  0  0  0  0
   55.2230   29.2200   44.8720 N   0  0  0  0  0  0  0  0  0  0  0  0
   57.0120   29.9490   43.0710 O   0  0  0  0  0  0  0  0  0  0  0  0
   56.3340   31.6030   44.7380 O   0  0  0  0  0  0  0  0  0  0  0  0
   58.9156   24.0335   46.9170 H   0  0  0  0  0  0  0  0  0  0  0  0
   60.0401   23.4884   45.6267 H   0  0  0  0  0  0  0  0  0  0  0  0
   59.4232   25.1754   45.6267 H   0  0  0  0  0  0  0  0  0  0  0  0
   59.0553   21.9565   44.2586 H   0  0  0  0  0  0  0  0  0  0  0  0
   57.1744   21.2001   42.8132 H   0  0  0  0  0  0  0  0  0  0  0  0
   55.0565   22.5124   42.7271 H   0  0  0  0  0  0  0  0  0  0  0  0
   54.8191   24.5932   44.0735 H   0  0  0  0  0  0  0  0  0  0  0  0
   59.5368   26.7983   46.6960 H   0  0  0  0  0  0  0  0  0  0  0  0
   60.9357   28.5196   47.8311 H   0  0  0  0  0  0  0  0  0  0  0  0
   60.4434   30.9417   47.5139 H   0  0  0  0  0  0  0  0  0  0  0  0
   58.5571   31.6535   46.0489 H   0  0  0  0  0  0  0  0  0  0  0  0
   55.5280   28.2250   44.9700 H   0  0  0  0  0  0  0  0  0  0  0  0
  1  2  1  0
  2  3  2  0
  3  4  1  0
  4  5  2  0
  5  6  1  0
  6  7  2  0
  7  8  1  0
  8  9  2  0
  8 10  2  0
  8 11  1  0
 11 12  1  0
 12 13  2  0
 13 14  1  0
 14 15  2  0
 15 16  1  0
 16 17  2  0
 17 18  1  0
 18 19  1  0
 18 20  2  0
 18 21  2  0
  7  2  1  0
 17 12  1  0
  1 22  1  0
  1 23  1  0
  1 24  1  0
  3 25  1  0
  4 26  1  0
  5 27  1  0
  6 28  1  0
 13 29  1  0
 14 30  1  0
 15 31  1  0
 16 32  1  0
 19 33  1  0
M  CHG  2  11  -1  19  -1
M  END
>  <UniqueID>  (57) 
49

>  <SMILES>  (57) 
Cc1ccccc1S(=O)(=O)[N-]c1ccccc1S([NH-])(=O)=O

>  <Energy>  (57) 
37.75615784680862

>  <Genealogy>  (57) 
Cc1ccccc1S(=O)(=O)[N-]c1ccccc1S([NH-])(=O)=O (protonated)
Cc1ccccc1S(=O)(=O)[N-]c1ccccc1S([NH-])(=O)=O (3D coordinates assigned)
Cc1ccccc1S(=O)(=O)[N-]c1ccccc1S([NH-])(=O)=O (optimized conformer: 37.75615784680862 kcal/mol)

>  <smiles>  (57) 
Cc1ccccc1S(=O)(=O)Nc1ccccc1S(N)(=O)=O

>  <score_type>  (57) 
oracle

>  <origin>  (57) 
adg

>  <m_score__min__energy>  (57) 
-12.94

>  <m_primary>  (57) 
energy

$$$$
57:0
     RDKit          3D

 33 34  0  0  0  0  0  0  0  0999 V2000
   57.8060   33.2050   46.7560 C   0  0  0  0  0  0  0  0  0  0  0  0
   57.4690   32.0080   46.0620 O   0  0  0  0  0  0  0  0  0  0  0  0
   57.4860   31.8630   44.6650 C   0  0  0  0  0  0  0  0  0  0  0  0
   58.0830   32.8280   43.8280 C   0  0  0  0  0  0  0  0  0  0  0  0
   58.0280   32.6920   42.4390 C   0  0  0  0  0  0  0  0  0  0  0  0
   57.3730   31.6010   41.8680 C   0  0  0  0  0  0  0  0  0  0  0  0
   56.7850   30.6340   42.6860 C   0  0  0  0  0  0  0  0  0  0  0  0
   56.8620   30.7380   44.0800 C   0  0  0  0  0  0  0  0  0  0  0  0
   56.2430   29.7170   44.8750 N   0  0  0  0  0  0  0  0  0  0  0  0
   56.9340   28.6530   45.5380 C   0  0  0  0  0  0  0  0  0  0  0  0
   58.1080   28.8260   45.9670 O   0  0  0  0  0  0  0  0  0  0  0  0
   56.3010   27.3740   45.6610 N   0  0  0  0  0  0  0  0  0  0  0  0
   56.9840   26.1950   46.1910 C   0  0  0  0  0  0  0  0  0  0  0  0
   56.7940   24.9920   45.2630 C   0  0  0  0  0  0  0  0  0  0  0  0
   55.3680   24.5320   45.2440 C   0  0  0  0  0  0  0  0  0  0  0  0
   54.9110   23.3250   44.7740 C   0  0  0  0  0  0  0  0  0  0  0  0
   53.5700   23.3060   44.8550 N   0  0  0  0  0  0  0  0  0  0  0  0
   53.2540   24.5130   45.3710 C   0  0  0  0  0  0  0  0  0  0  0  0
   54.3250   25.2960   45.6170 N   0  0  0  0  0  0  0  0  0  0  0  0
   57.7558   33.0267   47.8403 H   0  0  0  0  0  0  0  0  0  0  0  0
   58.8258   33.5131   46.4819 H   0  0  0  0  0  0  0  0  0  0  0  0
   57.0967   33.9998   46.4819 H   0  0  0  0  0  0  0  0  0  0  0  0
   58.5957   33.6940   44.2721 H   0  0  0  0  0  0  0  0  0  0  0  0
   58.5021   33.4467   41.7943 H   0  0  0  0  0  0  0  0  0  0  0  0
   57.3196   31.5023   40.7737 H   0  0  0  0  0  0  0  0  0  0  0  0
   56.2567   29.7831   42.2311 H   0  0  0  0  0  0  0  0  0  0  0  0
   55.3480   27.2500   45.2490 H   0  0  0  0  0  0  0  0  0  0  0  0
   58.0583   26.4123   46.2841 H   0  0  0  0  0  0  0  0  0  0  0  0
   56.5553   25.9522   47.1745 H   0  0  0  0  0  0  0  0  0  0  0  0
   57.0911   25.2772   44.2430 H   0  0  0  0  0  0  0  0  0  0  0  0
   57.4177   24.1665   45.6365 H   0  0  0  0  0  0  0  0  0  0  0  0
   55.5404   22.5071   44.3933 H   0  0  0  0  0  0  0  0  0  0  0  0
   52.2196   24.8287   45.5721 H   0  0  0  0  0  0  0  0  0  0  0  0
  1  2  1  0
  2  3  1  0
  3  4  2  0
  4  5  1  0
  5  6  2  0
  6  7  1  0
  7  8  2  0
  8  9  1  0
  9 10  1  0
 10 11  2  0
 10 12  1  0
 12 13  1  0
 13 14  1  0
 14 15  1  0
 15 16  2  0
 16 17  1  0
 17 18  1  0
 18 19  2  0
  8  3  1  0
 19 15  1  0
  1 20  1  0
  1 21  1  0
  1 22  1  0
  4 23  1  0
  5 24  1  0
  6 25  1  0
  7 26  1  0
 12 27  1  0
 13 28  1  0
 13 29  1  0
 14 30  1  0
 14 31  1  0
 16 32  1  0
 18 33  1  0
M  CHG  2   9  -1  17  -1
M  END
>  <UniqueID>  (58) 
50

>  <SMILES>  (58) 
COc1ccccc1[N-]C(=O)NCCc1c[n-]cn1

>  <Energy>  (58) 
59.97831419779988

>  <Genealogy>  (58) 
COc1ccccc1[N-]C(=O)NCCc1c[n-]cn1 (protonated)
COc1ccccc1[N-]C(=O)NCCc1c[n-]cn1 (3D coordinates assigned)
COc1ccccc1[N-]C(=O)NCCc1c[n-]cn1 (optimized conformer: 59.97831419779988 kcal/mol)

>  <smiles>  (58) 
COc1ccccc1NC(=O)NCCc1c[nH]cn1

>  <score_type>  (58) 
oracle

>  <origin>  (58) 
adg

>  <m_score__min__energy>  (58) 
-10.119999999999999

>  <m_primary>  (58) 
energy

$$$$
58:0
     RDKit          3D

 37 38  0  0  0  0  0  0  0  0999 V2000
   57.3230   33.4970   45.8360 C   0  0  0  0  0  0  0  0  0  0  0  0
   58.7440   33.1810   45.9040 N   0  0  0  0  0  0  0  0  0  0  0  0
   59.6170   33.8290   46.8410 C   0  0  0  0  0  0  0  0  0  0  0  0
   59.1670   34.7590   47.5630 O   0  0  0  0  0  0  0  0  0  0  0  0
   61.0350   33.4070   46.9660 C   0  0  0  0  0  0  0  0  0  0  0  0
   62.0320   34.2020   46.3660 C   0  0  0  0  0  0  0  0  0  0  0  0
   63.3830   33.8840   46.5120 C   0  0  0  0  0  0  0  0  0  0  0  0
   63.7630   32.7760   47.2670 C   0  0  0  0  0  0  0  0  0  0  0  0
   62.7920   31.9720   47.8630 C   0  0  0  0  0  0  0  0  0  0  0  0
   61.4280   32.2570   47.6990 C   0  0  0  0  0  0  0  0  0  0  0  0
   60.2390   31.1650   48.5050 S   0  0  0  0  0  0  0  0  0  0  0  0
   59.9870   30.1510   47.0430 C   0  0  0  0  0  0  0  0  0  0  0  0
   61.0930   29.7100   46.3060 C   0  0  0  0  0  0  0  0  0  0  0  0
   60.9080   28.9100   45.1760 C   0  0  0  0  0  0  0  0  0  0  0  0
   59.6190   28.5490   44.7760 C   0  0  0  0  0  0  0  0  0  0  0  0
   58.5030   28.9910   45.4970 C   0  0  0  0  0  0  0  0  0  0  0  0
   57.1970   28.5810   45.0670 N   0  0  0  0  0  0  0  0  0  0  0  0
   56.2500   29.3810   44.3470 C   0  0  0  0  0  0  0  0  0  0  0  0
   55.1430   29.6920   44.8640 O   0  0  0  0  0  0  0  0  0  0  0  0
   56.6210   29.9330   43.0110 C   0  0  0  0  0  0  0  0  0  0  0  0
   57.4850   31.1050   43.1800 C   0  0  0  0  0  0  0  0  0  0  0  0
   58.1670   32.0310   43.3140 N   0  0  0  0  0  0  0  0  0  0  0  0
   58.6960   29.7720   46.6520 C   0  0  0  0  0  0  0  0  0  0  0  0
   56.9182   33.5870   46.8549 H   0  0  0  0  0  0  0  0  0  0  0  0
   57.1841   34.4480   45.3009 H   0  0  0  0  0  0  0  0  0  0  0  0
   56.7941   32.6945   45.3009 H   0  0  0  0  0  0  0  0  0  0  0  0
   59.1310   32.4890   45.2230 H   0  0  0  0  0  0  0  0  0  0  0  0
   61.7419   35.0836   45.7756 H   0  0  0  0  0  0  0  0  0  0  0  0
   64.1493   34.5091   46.0303 H   0  0  0  0  0  0  0  0  0  0  0  0
   64.8290   32.5356   47.3928 H   0  0  0  0  0  0  0  0  0  0  0  0
   63.0984   31.1057   48.4677 H   0  0  0  0  0  0  0  0  0  0  0  0
   62.1090   29.9940   46.6174 H   0  0  0  0  0  0  0  0  0  0  0  0
   61.7788   28.5636   44.6000 H   0  0  0  0  0  0  0  0  0  0  0  0
   59.4799   27.9135   43.8890 H   0  0  0  0  0  0  0  0  0  0  0  0
   57.1568   29.1645   42.4344 H   0  0  0  0  0  0  0  0  0  0  0  0
   55.7077   30.2297   42.4745 H   0  0  0  0  0  0  0  0  0  0  0  0
   57.8286   30.0865   47.2509 H   0  0  0  0  0  0  0  0  0  0  0  0
  1  2  1  0
  2  3  1  0
  3  4  2  0
  3  5  1  0
  5  6  2  0
  6  7  1  0
  7  8  2  0
  8  9  1  0
  9 10  2  0
 10 11  1  0
 11 12  1  0
 12 13  2  0
 13 14  1  0
 14 15  2  0
 15 16  1  0
 16 17  1  0
 17 18  1  0
 18 19  2  0
 18 20  1  0
 20 21  1  0
 21 22  3  0
 16 23  2  0
 10  5  1  0
 23 12  1  0
  1 24  1  0
  1 25  1  0
  1 26  1  0
  2 27  1  0
  6 28  1  0
  7 29  1  0
  8 30  1  0
  9 31  1  0
 13 32  1  0
 14 33  1  0
 15 34  1  0
 20 35  1  0
 20 36  1  0
 23 37  1  0
M  CHG  1  17  -1
M  END
>  <UniqueID>  (59) 
51

>  <SMILES>  (59) 
CNC(=O)c1ccccc1Sc1cccc([N-]C(=O)CC#N)c1

>  <Energy>  (59) 
36.65906616159465

>  <Genealogy>  (59) 
CNC(=O)c1ccccc1Sc1cccc([N-]C(=O)CC#N)c1 (protonated)
CNC(=O)c1ccccc1Sc1cccc([N-]C(=O)CC#N)c1 (3D coordinates assigned)
CNC(=O)c1ccccc1Sc1cccc([N-]C(=O)CC#N)c1 (optimized conformer: 36.65906616159465 kcal/mol)

>  <smiles>  (59) 
CNC(=O)c1ccccc1Sc1cccc(NC(=O)CC#N)c1

>  <score_type>  (59) 
oracle

>  <origin>  (59) 
adg

>  <m_score__min__energy>  (59) 
-9.8300000000000001

>  <m_primary>  (59) 
energy

$$$$
59:0
     RDKit          3D

 29 29  0  0  0  0  0  0  0  0999 V2000
   58.7080   32.2290   46.9050 C   0  0  0  0  0  0  0  0  0  0  0  0
   58.2090   33.7590   46.1490 S   0  0  0  0  0  0  0  0  0  0  0  0
   59.6050   34.8590   46.0750 C   0  0  0  0  0  0  0  0  0  0  0  0
   57.5620   33.4280   44.5160 C   0  0  0  0  0  0  0  0  0  0  0  0
   57.6620   31.9420   44.1620 C   0  0  0  0  0  0  0  0  0  0  0  0
   56.6580   31.1590   44.8750 N   0  0  0  0  0  0  0  0  0  0  0  0
   56.2860   29.8270   44.5070 C   0  0  0  0  0  0  0  0  0  0  0  0
   55.1710   29.3530   44.8600 O   0  0  0  0  0  0  0  0  0  0  0  0
   57.2370   28.9810   43.7220 C   0  0  0  0  0  0  0  0  0  0  0  0
   58.3090   28.4440   44.6170 C   0  0  0  0  0  0  0  0  0  0  0  0
   59.6350   28.8560   44.6370 C   0  0  0  0  0  0  0  0  0  0  0  0
   60.3980   28.2060   45.6150 C   0  0  0  0  0  0  0  0  0  0  0  0
   59.6750   27.2880   46.3670 C   0  0  0  0  0  0  0  0  0  0  0  0
   58.0860   27.2870   45.8170 S   0  0  0  0  0  0  0  0  0  0  0  0
   58.6742   32.3327   47.9996 H   0  0  0  0  0  0  0  0  0  0  0  0
   58.0254   31.4254   46.5916 H   0  0  0  0  0  0  0  0  0  0  0  0
   59.7331   31.9824   46.5916 H   0  0  0  0  0  0  0  0  0  0  0  0
   59.9266   35.1124   47.0959 H   0  0  0  0  0  0  0  0  0  0  0  0
   60.4317   34.3669   45.5417 H   0  0  0  0  0  0  0  0  0  0  0  0
   59.3199   35.7778   45.5417 H   0  0  0  0  0  0  0  0  0  0  0  0
   56.5057   33.7330   44.4817 H   0  0  0  0  0  0  0  0  0  0  0  0
   58.1584   33.9967   43.7873 H   0  0  0  0  0  0  0  0  0  0  0  0
   57.5091   31.8203   43.0795 H   0  0  0  0  0  0  0  0  0  0  0  0
   58.6582   31.5808   44.4570 H   0  0  0  0  0  0  0  0  0  0  0  0
   56.6883   28.1425   43.2684 H   0  0  0  0  0  0  0  0  0  0  0  0
   57.6997   29.5955   42.9357 H   0  0  0  0  0  0  0  0  0  0  0  0
   60.0442   29.6153   43.9544 H   0  0  0  0  0  0  0  0  0  0  0  0
   61.4685   28.4035   45.7730 H   0  0  0  0  0  0  0  0  0  0  0  0
   60.0741   26.6677   47.1830 H   0  0  0  0  0  0  0  0  0  0  0  0
  1  2  1  0
  2  3  1  0
  2  4  1  0
  4  5  1  0
  5  6  1  0
  6  7  1  0
  7  8  2  0
  7  9  1  0
  9 10  1  0
 10 11  2  0
 11 12  1  0
 12 13  2  0
 13 14  1  0
 14 10  1  0
  1 15  1  0
  1 16  1  0
  1 17  1  0
  3 18  1  0
  3 19  1  0
  3 20  1  0
  4 21  1  0
  4 22  1  0
  5 23  1  0
  5 24  1  0
  9 25  1  0
  9 26  1  0
 11 27  1  0
 12 28  1  0
 13 29  1  0
M  CHG  2   2   1   6  -1
M  END
>  <UniqueID>  (60) 
52

>  <SMILES>  (60) 
C[S+](C)CC[N-]C(=O)Cc1cccs1

>  <Energy>  (60) 
34.61002120591345

>  <Genealogy>  (60) 
C[S+](C)CC[N-]C(=O)Cc1cccs1 (protonated)
C[S+](C)CC[N-]C(=O)Cc1cccs1 (3D coordinates assigned)
C[S+](C)CC[N-]C(=O)Cc1cccs1 (optimized conformer: 34.61002120591345 kcal/mol)

>  <smiles>  (60) 
C[S+](C)CCNC(=O)Cc1cccs1

>  <score_type>  (60) 
oracle

>  <origin>  (60) 
adg

>  <m_score__min__energy>  (60) 
-6.04

>  <m_primary>  (60) 
energy

$$$$
60:0
     RDKit          3D

 53 56  0  0  0  0  0  0  0  0999 V2000
   60.1060   28.8000   45.3620 O   0  0  0  0  0  0  0  0  0  0  0  0
   58.9860   28.4870   45.8470 C   0  0  0  0  0  0  0  0  0  0  0  0
   58.8560   28.4090   47.2740 N   0  0  0  0  0  0  0  0  0  0  0  0
   59.4060   29.3360   48.2170 C   0  0  0  0  0  0  0  0  0  0  0  0
   60.7860   29.5620   48.2950 C   0  0  0  0  0  0  0  0  0  0  0  0
   61.2960   30.5150   49.1770 C   0  0  0  0  0  0  0  0  0  0  0  0
   60.4310   31.2450   50.0130 C   0  0  0  0  0  0  0  0  0  0  0  0
   60.8960   32.2520   50.8750 O   0  0  0  0  0  0  0  0  0  0  0  0
   61.1700   33.5990   50.4890 C   0  0  0  0  0  0  0  0  0  0  0  0
   61.8350   33.6300   49.1390 C   0  0  0  0  0  0  0  0  0  0  0  0
   61.0650   33.8590   47.9870 C   0  0  0  0  0  0  0  0  0  0  0  0
   61.6680   33.8670   46.7260 C   0  0  0  0  0  0  0  0  0  0  0  0
   63.0410   33.6390   46.6050 C   0  0  0  0  0  0  0  0  0  0  0  0
   63.8150   33.4090   47.7470 C   0  0  0  0  0  0  0  0  0  0  0  0
   63.2170   33.4110   49.0100 C   0  0  0  0  0  0  0  0  0  0  0  0
   59.0560   30.9620   49.9850 C   0  0  0  0  0  0  0  0  0  0  0  0
   57.8430   31.9150   51.1170 Br  0  0  0  0  0  0  0  0  0  0  0  0
   58.5500   30.0050   49.0980 C   0  0  0  0  0  0  0  0  0  0  0  0
   57.8450   28.1220   44.9170 C   0  0  2  0  0  0  0  0  0  0  0  0
   56.7860   29.2380   44.8500 C   0  0  0  0  0  0  0  0  0  0  0  0
   57.1240   30.4400   43.5080 S   0  0  0  0  0  0  0  0  0  0  0  0
   57.5780   31.7950   44.5980 C   0  0  0  0  0  0  0  0  0  0  0  0
   57.7800   31.5630   45.9640 C   0  0  0  0  0  0  0  0  0  0  0  0
   58.1340   32.6200   46.8090 C   0  0  0  0  0  0  0  0  0  0  0  0
   58.2950   33.9090   46.2890 C   0  0  0  0  0  0  0  0  0  0  0  0
   58.1050   34.1410   44.9240 C   0  0  0  0  0  0  0  0  0  0  0  0
   57.7550   33.0840   44.0780 C   0  0  0  0  0  0  0  0  0  0  0  0
   57.2180   26.8620   45.3310 N   0  0  0  0  0  0  0  0  0  0  0  0
   57.3880   25.6600   44.7520 C   0  0  0  0  0  0  0  0  0  0  0  0
   56.5760   24.7580   45.4000 C   0  0  0  0  0  0  0  0  0  0  0  0
   55.8830   25.3870   46.3710 N   0  0  0  0  0  0  0  0  0  0  0  0
   56.2960   26.6700   46.2970 C   0  0  0  0  0  0  0  0  0  0  0  0
   61.4716   28.9848   47.6572 H   0  0  0  0  0  0  0  0  0  0  0  0
   62.3801   30.6967   49.2191 H   0  0  0  0  0  0  0  0  0  0  0  0
   60.2263   34.1622   50.4418 H   0  0  0  0  0  0  0  0  0  0  0  0
   61.8433   34.0540   51.2303 H   0  0  0  0  0  0  0  0  0  0  0  0
   59.9826   34.0328   48.0775 H   0  0  0  0  0  0  0  0  0  0  0  0
   61.0608   34.0530   45.8279 H   0  0  0  0  0  0  0  0  0  0  0  0
   63.5133   33.6404   45.6116 H   0  0  0  0  0  0  0  0  0  0  0  0
   64.8955   33.2264   47.6509 H   0  0  0  0  0  0  0  0  0  0  0  0
   63.8306   33.2404   49.9069 H   0  0  0  0  0  0  0  0  0  0  0  0
   57.4737   29.7778   49.0937 H   0  0  0  0  0  0  0  0  0  0  0  0
   58.2731   27.9963   43.9115 H   0  0  0  0  0  0  0  0  0  0  0  0
   55.8010   28.7806   44.6751 H   0  0  0  0  0  0  0  0  0  0  0  0
   56.8123   29.7840   45.8046 H   0  0  0  0  0  0  0  0  0  0  0  0
   57.6602   30.5489   46.3729 H   0  0  0  0  0  0  0  0  0  0  0  0
   58.2859   32.4377   47.8831 H   0  0  0  0  0  0  0  0  0  0  0  0
   58.5712   34.7400   46.9548 H   0  0  0  0  0  0  0  0  0  0  0  0
   58.2307   35.1545   44.5153 H   0  0  0  0  0  0  0  0  0  0  0  0
   57.6183   33.2649   43.0016 H   0  0  0  0  0  0  0  0  0  0  0  0
   58.0583   25.4373   43.9087 H   0  0  0  0  0  0  0  0  0  0  0  0
   56.5031   23.6865   45.1622 H   0  0  0  0  0  0  0  0  0  0  0  0
   55.9221   27.4707   46.9521 H   0  0  0  0  0  0  0  0  0  0  0  0
  1  2  2  0
  2  3  1  0
  3  4  1  0
  4  5  2  0
  5  6  1  0
  6  7  2  0
  7  8  1  0
  8  9  1  0
  9 10  1  0
 10 11  2  0
 11 12  1  0
 12 13  2  0
 13 14  1  0
 14 15  2  0
  7 16  1  0
 16 17  1  0
 16 18  2  0
  2 19  1  0
 19 20  1  0
 20 21  1  0
 21 22  1  0
 22 23  2  0
 23 24  1  0
 24 25  2  0
 25 26  1  0
 26 27  2  0
 19 28  1  0
 28 29  1  0
 29 30  2  0
 30 31  1  0
 31 32  2  0
 18  4  1  0
 27 22  1  0
 32 28  1  0
 15 10  1  0
  5 33  1  0
  6 34  1  0
  9 35  1  0
  9 36  1  0
 11 37  1  0
 12 38  1  0
 13 39  1  0
 14 40  1  0
 15 41  1  0
 18 42  1  0
 19 43  1  6
 20 44  1  0
 20 45  1  0
 23 46  1  0
 24 47  1  0
 25 48  1  0
 26 49  1  0
 27 50  1  0
 29 51  1  0
 30 52  1  0
 32 53  1  0
M  CHG  1   3  -1
M  END
>  <UniqueID>  (61) 
53

>  <SMILES>  (61) 
O=C([N-]c1ccc(OCc2ccccc2)c(Br)c1)[C@H](CSc1ccccc1)n1ccnc1

>  <Energy>  (61) 
81.37539506495663

>  <Genealogy>  (61) 
O=C([N-]c1ccc(OCc2ccccc2)c(Br)c1)C(CSc1ccccc1)n1ccnc1 (protonated)
O=C([N-]c1ccc(OCc2ccccc2)c(Br)c1)[C@H](CSc1ccccc1)n1ccnc1 (chirality)
O=C([N-]c1ccc(OCc2ccccc2)c(Br)c1)[C@H](CSc1ccccc1)n1ccnc1 (3D coordinates assigned)
O=C([N-]c1ccc(OCc2ccccc2)c(Br)c1)[C@H](CSc1ccccc1)n1ccnc1 (optimized conformer: 81.37539506495663 kcal/mol)

>  <smiles>  (61) 
O=C(Nc1ccc(OCc2ccccc2)c(Br)c1)C(CSc1ccccc1)n1ccnc1

>  <score_type>  (61) 
oracle

>  <origin>  (61) 
adg

>  <m_score__min__energy>  (61) 
-9.7200000000000006

>  <m_primary>  (61) 
energy

$$$$
61:0
     RDKit          3D

 30 32  0  0  0  0  0  0  0  0999 V2000
   59.7583   33.4395   49.3446 H   0  0  0  0  0  0  0  0  0  0  0  0
   59.4790   33.7000   48.3130 C   0  0  0  0  0  0  0  0  0  0  0  0
   58.1230   33.1410   47.4890 S   0  0  0  0  0  0  0  0  0  0  0  0
   58.4360   33.9560   46.0520 C   0  0  0  0  0  0  0  0  0  0  0  0
   57.5480   33.9590   44.8500 C   0  0  0  0  0  0  0  0  0  0  0  0
   57.9165   34.7017   44.1271 H   0  0  0  0  0  0  0  0  0  0  0  0
   56.5238   34.2144   45.1594 H   0  0  0  0  0  0  0  0  0  0  0  0
   57.5440   32.6080   44.2120 C   0  0  0  0  0  0  0  0  0  0  0  0
   58.1460   32.4380   43.1180 O   0  0  0  0  0  0  0  0  0  0  0  0
   56.9620   31.5000   44.9180 N   0  0  0  0  0  0  0  0  0  0  0  0
   57.5950   30.6490   45.6320 N   0  0  0  0  0  0  0  0  0  0  0  0
   57.5190   29.2220   45.4940 C   0  0  0  0  0  0  0  0  0  0  0  0
   56.3900   28.4610   45.2080 C   0  0  0  0  0  0  0  0  0  0  0  0
   55.1390   28.9640   44.8760 O   0  0  0  0  0  0  0  0  0  0  0  0
   56.6490   27.1410   45.3450 N   0  0  0  0  0  0  0  0  0  0  0  0
   55.9830   26.3500   45.2040 H   0  0  0  0  0  0  0  0  0  0  0  0
   57.9290   27.0690   45.7610 C   0  0  0  0  0  0  0  0  0  0  0  0
   58.6460   25.9190   46.0870 C   0  0  0  0  0  0  0  0  0  0  0  0
   58.1936   24.9211   45.9896 H   0  0  0  0  0  0  0  0  0  0  0  0
   59.9680   26.0760   46.5450 C   0  0  0  0  0  0  0  0  0  0  0  0
   60.5647   25.1893   46.8051 H   0  0  0  0  0  0  0  0  0  0  0  0
   60.5340   27.3650   46.6730 C   0  0  0  0  0  0  0  0  0  0  0  0
   61.5670   27.4742   47.0349 H   0  0  0  0  0  0  0  0  0  0  0  0
   59.7860   28.5090   46.3410 C   0  0  0  0  0  0  0  0  0  0  0  0
   60.2142   29.5173   46.4403 H   0  0  0  0  0  0  0  0  0  0  0  0
   58.4840   28.3210   45.8820 C   0  0  0  0  0  0  0  0  0  0  0  0
   59.6000   34.6980   46.2050 C   0  0  0  0  0  0  0  0  0  0  0  0
   60.0188   35.3387   45.4150 H   0  0  0  0  0  0  0  0  0  0  0  0
   60.1860   34.5470   47.4680 C   0  0  0  0  0  0  0  0  0  0  0  0
   61.1180   35.0512   47.7633 H   0  0  0  0  0  0  0  0  0  0  0  0
  1  2  1  0
  2  3  1  0
  3  4  1  0
  4  5  1  0
  5  6  1  0
  5  7  1  0
  5  8  1  0
  8  9  2  0
  8 10  1  0
 10 11  2  0
 11 12  1  0
 12 13  2  0
 13 14  1  0
 13 15  1  0
 15 16  1  0
 15 17  1  0
 17 18  2  0
 18 19  1  0
 18 20  1  0
 20 21  1  0
 20 22  2  0
 22 23  1  0
 22 24  1  0
 24 25  1  0
 24 26  2  0
  4 27  2  0
 27 28  1  0
 27 29  1  0
 29 30  1  0
 29  2  2  0
 26 12  1  0
 26 17  1  0
M  CHG  1  14  -1
M  END
>  <UniqueID>  (62) 
54

>  <SMILES>  (62) 
O=C(Cc1cccs1)/N=N\c1c([O-])[nH]c2ccccc12

>  <Energy>  (62) 
102.19705960578874

>  <Genealogy>  (62) 
O=C(Cc1cccs1)N=Nc1c([O-])[nH]c2ccccc12 (protonated)
O=C(Cc1cccs1)/N=N\c1c([O-])[nH]c2ccccc12 (cis-trans isomerization)
O=C(Cc1cccs1)/N=N\c1c([O-])[nH]c2ccccc12 (3D coordinates assigned)
O=C(Cc1cccs1)/N=N\c1c([O-])[nH]c2ccccc12 (optimized conformer: 102.19705960578874 kcal/mol)

>  <smiles>  (62) 
O=C(Cc1cccs1)N=Nc1c(O)[nH]c2ccccc12

>  <score_type>  (62) 
oracle

>  <origin>  (62) 
adg

>  <m_score__min__energy>  (62) 
-11.82

>  <m_primary>  (62) 
energy

$$$$
62:0
     RDKit          3D

 60 63  0  0  0  0  0  0  0  0999 V2000
   58.5270   26.9240   42.4770 O   0  0  0  0  0  0  0  0  0  0  0  0
   57.9260   27.2960   43.5240 C   0  0  0  0  0  0  0  0  0  0  0  0
   57.8150   28.7510   43.7550 C   0  0  0  0  0  0  0  0  0  0  0  0
   56.7820   29.4670   43.1370 C   0  0  0  0  0  0  0  0  0  0  0  0
   56.6520   30.8420   43.3490 C   0  0  0  0  0  0  0  0  0  0  0  0
   57.5320   31.5120   44.2130 C   0  0  0  0  0  0  0  0  0  0  0  0
   57.3790   32.9950   44.4410 C   0  0  0  0  0  0  0  0  0  0  0  0
   58.3730   33.4640   45.4260 N   0  0  0  0  0  0  0  0  0  0  0  0
   58.6810   34.8970   45.2430 C   0  0  0  0  0  0  0  0  0  0  0  0
   59.9230   35.2640   46.0670 C   0  0  0  0  0  0  0  0  0  0  0  0
   60.0700   34.3510   47.2060 N   0  0  0  0  0  0  0  0  0  0  0  0
   61.3750   33.9850   47.6800 C   0  0  0  0  0  0  0  0  0  0  0  0
   62.3990   33.6810   46.7690 C   0  0  0  0  0  0  0  0  0  0  0  0
   63.6740   33.3350   47.2330 C   0  0  0  0  0  0  0  0  0  0  0  0
   63.9340   33.3010   48.6070 C   0  0  0  0  0  0  0  0  0  0  0  0
   62.9220   33.6190   49.5210 C   0  0  0  0  0  0  0  0  0  0  0  0
   61.6460   33.9620   49.0600 C   0  0  0  0  0  0  0  0  0  0  0  0
   60.6810   34.3070   49.9550 F   0  0  0  0  0  0  0  0  0  0  0  0
   58.8680   33.8200   47.8560 C   0  0  0  0  0  0  0  0  0  0  0  0
   57.9050   33.2190   46.8080 C   0  0  0  0  0  0  0  0  0  0  0  0
   58.5540   30.7890   44.8490 C   0  0  0  0  0  0  0  0  0  0  0  0
   58.6880   29.4130   44.6300 C   0  0  0  0  0  0  0  0  0  0  0  0
   57.3250   26.2980   44.3970 N   0  0  0  0  0  0  0  0  0  0  0  0
   57.9970   26.0960   45.7060 C   0  0  0  0  0  0  0  0  0  0  0  0
   57.1860   25.2810   46.7400 C   0  0  0  0  0  0  0  0  0  0  0  0
   57.5740   23.7940   46.7550 C   0  0  0  0  0  0  0  0  0  0  0  0
   57.4080   23.0870   45.3960 C   0  0  0  0  0  0  0  0  0  0  0  0
   57.9670   23.8390   44.1810 C   0  0  0  0  0  0  0  0  0  0  0  0
   57.0800   25.0110   43.6890 C   0  0  0  0  0  0  0  0  0  0  0  0
   56.0697   28.9444   42.4816 H   0  0  0  0  0  0  0  0  0  0  0  0
   55.8561   31.4020   42.8362 H   0  0  0  0  0  0  0  0  0  0  0  0
   57.5310   33.5265   43.4900 H   0  0  0  0  0  0  0  0  0  0  0  0
   56.3687   33.1967   44.8264 H   0  0  0  0  0  0  0  0  0  0  0  0
   58.8749   35.0971   44.1789 H   0  0  0  0  0  0  0  0  0  0  0  0
   57.8260   35.5013   45.5805 H   0  0  0  0  0  0  0  0  0  0  0  0
   60.8156   35.1930   45.4281 H   0  0  0  0  0  0  0  0  0  0  0  0
   59.8093   36.2906   46.4453 H   0  0  0  0  0  0  0  0  0  0  0  0
   62.1992   33.7147   45.6878 H   0  0  0  0  0  0  0  0  0  0  0  0
   64.4718   33.0897   46.5165 H   0  0  0  0  0  0  0  0  0  0  0  0
   64.9348   33.0241   48.9700 H   0  0  0  0  0  0  0  0  0  0  0  0
   63.1299   33.5992   50.6010 H   0  0  0  0  0  0  0  0  0  0  0  0
   59.1595   33.0363   48.5708 H   0  0  0  0  0  0  0  0  0  0  0  0
   58.3557   34.6405   48.3798 H   0  0  0  0  0  0  0  0  0  0  0  0
   57.8328   32.1337   46.9721 H   0  0  0  0  0  0  0  0  0  0  0  0
   56.9247   33.7036   46.9275 H   0  0  0  0  0  0  0  0  0  0  0  0
   59.2528   31.3065   45.5227 H   0  0  0  0  0  0  0  0  0  0  0  0
   59.4799   28.8498   45.1455 H   0  0  0  0  0  0  0  0  0  0  0  0
   56.3710   26.6750   44.6250 H   0  0  0  0  0  0  0  0  0  0  0  0
   58.9453   25.5690   45.5246 H   0  0  0  0  0  0  0  0  0  0  0  0
   58.1292   27.0978   46.1407 H   0  0  0  0  0  0  0  0  0  0  0  0
   57.3658   25.7023   47.7401 H   0  0  0  0  0  0  0  0  0  0  0  0
   56.1249   25.3459   46.4576 H   0  0  0  0  0  0  0  0  0  0  0  0
   58.6282   23.7151   47.0590 H   0  0  0  0  0  0  0  0  0  0  0  0
   56.8907   23.2949   47.4579 H   0  0  0  0  0  0  0  0  0  0  0  0
   57.9194   22.1150   45.4562 H   0  0  0  0  0  0  0  0  0  0  0  0
   56.3235   23.0114   45.2283 H   0  0  0  0  0  0  0  0  0  0  0  0
   58.9534   24.2441   44.4512 H   0  0  0  0  0  0  0  0  0  0  0  0
   58.0127   23.1125   43.3563 H   0  0  0  0  0  0  0  0  0  0  0  0
   57.2735   25.1642   42.6170 H   0  0  0  0  0  0  0  0  0  0  0  0
   56.0374   24.7284   43.8965 H   0  0  0  0  0  0  0  0  0  0  0  0
  1  2  2  0
  2  3  1  0
  3  4  2  0
  4  5  1  0
  5  6  2  0
  6  7  1  0
  7  8  1  0
  8  9  1  0
  9 10  1  0
 10 11  1  0
 11 12  1  0
 12 13  2  0
 13 14  1  0
 14 15  2  0
 15 16  1  0
 16 17  2  0
 17 18  1  0
 11 19  1  0
 19 20  1  0
  6 21  1  0
 21 22  2  0
  2 23  1  0
 23 24  1  0
 24 25  1  0
 25 26  1  0
 26 27  1  0
 27 28  1  0
 28 29  1  0
 22  3  1  0
 29 23  1  0
 20  8  1  0
 17 12  1  0
  4 30  1  0
  5 31  1  0
  7 32  1  0
  7 33  1  0
  9 34  1  0
  9 35  1  0
 10 36  1  0
 10 37  1  0
 13 38  1  0
 14 39  1  0
 15 40  1  0
 16 41  1  0
 19 42  1  0
 19 43  1  0
 20 44  1  0
 20 45  1  0
 21 46  1  0
 22 47  1  0
 23 48  1  0
 24 49  1  0
 24 50  1  0
 25 51  1  0
 25 52  1  0
 26 53  1  0
 26 54  1  0
 27 55  1  0
 27 56  1  0
 28 57  1  0
 28 58  1  0
 29 59  1  0
 29 60  1  0
M  CHG  1  23   1
M  END
>  <UniqueID>  (63) 
55

>  <SMILES>  (63) 
O=C(c1ccc(CN2CCN(c3ccccc3F)CC2)cc1)[NH+]1CCCCCC1

>  <Energy>  (63) 
94.66914498123045

>  <Genealogy>  (63) 
O=C(c1ccc(CN2CCN(c3ccccc3F)CC2)cc1)[NH+]1CCCCCC1 (protonated)
O=C(c1ccc(CN2CCN(c3ccccc3F)CC2)cc1)[NH+]1CCCCCC1 (3D coordinates assigned)
O=C(c1ccc(CN2CCN(c3ccccc3F)CC2)cc1)[NH+]1CCCCCC1 (nonaromatic ring conformer: 94.66914498123045 kcal/mol)

>  <smiles>  (63) 
O=C(c1ccc(CN2CCN(c3ccccc3F)CC2)cc1)N1CCCCCC1

>  <score_type>  (63) 
oracle

>  <origin>  (63) 
adg

>  <m_score__min__energy>  (63) 
-6.0800000000000001

>  <m_primary>  (63) 
energy

$$$$
63:0
     RDKit          3D

 60 62  0  0  0  0  0  0  0  0999 V2000
   57.2870   34.2090   45.0670 C   0  0  0  0  0  0  0  0  0  0  0  0
   58.3150   33.1330   45.4460 C   0  0  2  0  0  0  0  0  0  0  0  0
   57.8530   31.7360   45.1040 C   0  0  0  0  0  0  0  0  0  0  0  0
   56.6560   31.5200   44.7640 O   0  0  0  0  0  0  0  0  0  0  0  0
   58.7930   30.6520   45.1610 N   0  0  0  0  0  0  0  0  0  0  0  0
   58.4200   29.2680   45.2690 C   0  0  0  0  0  0  0  0  0  0  0  0
   58.3770   28.4760   44.1150 C   0  0  0  0  0  0  0  0  0  0  0  0
   58.0460   27.1200   44.1930 C   0  0  0  0  0  0  0  0  0  0  0  0
   57.7660   26.5160   45.4370 C   0  0  0  0  0  0  0  0  0  0  0  0
   57.4270   25.1040   45.5220 N   0  0  0  0  0  0  0  0  0  0  0  0
   57.1680   24.4750   46.8230 C   0  0  0  0  0  0  0  0  0  0  0  0
   57.3460   24.2810   44.3080 C   0  0  0  0  0  0  0  0  0  0  0  0
   57.8340   27.3160   46.5970 C   0  0  0  0  0  0  0  0  0  0  0  0
   58.1630   28.6720   46.5140 C   0  0  0  0  0  0  0  0  0  0  0  0
   58.6550   33.2260   46.9200 C   0  0  0  0  0  0  0  0  0  0  0  0
   58.1950   32.2550   47.8290 C   0  0  0  0  0  0  0  0  0  0  0  0
   58.5250   32.3400   49.1830 C   0  0  0  0  0  0  0  0  0  0  0  0
   59.3070   33.4000   49.6530 C   0  0  0  0  0  0  0  0  0  0  0  0
   59.7500   33.4710   51.3580 S   0  0  0  0  0  0  0  0  0  0  0  0
   58.9320   34.5170   52.0640 O   0  0  0  0  0  0  0  0  0  0  0  0
   59.4660   32.1380   51.9900 O   0  0  0  0  0  0  0  0  0  0  0  0
   61.4450   33.8300   51.5200 N   0  0  0  0  0  0  0  0  0  0  0  0
   62.1980   32.6510   51.9520 C   0  0  0  0  0  0  0  0  0  0  0  0
   62.1260   31.5540   50.8890 C   0  0  0  0  0  0  0  0  0  0  0  0
   62.4670   32.1100   49.5320 C   0  0  0  0  0  0  0  0  0  0  0  0
   61.8340   31.6070   48.3830 C   0  0  0  0  0  0  0  0  0  0  0  0
   62.1750   32.0990   47.1190 C   0  0  0  0  0  0  0  0  0  0  0  0
   63.1570   33.0870   46.9940 C   0  0  0  0  0  0  0  0  0  0  0  0
   63.8030   33.5810   48.1320 C   0  0  0  0  0  0  0  0  0  0  0  0
   63.4630   33.0920   49.3970 C   0  0  0  0  0  0  0  0  0  0  0  0
   59.7590   34.3780   48.7560 C   0  0  0  0  0  0  0  0  0  0  0  0
   59.4330   34.2930   47.4000 C   0  0  0  0  0  0  0  0  0  0  0  0
   56.8647   34.6510   45.9815 H   0  0  0  0  0  0  0  0  0  0  0  0
   57.7794   34.9938   44.4740 H   0  0  0  0  0  0  0  0  0  0  0  0
   56.4805   33.7530   44.4740 H   0  0  0  0  0  0  0  0  0  0  0  0
   59.2164   33.3283   44.8465 H   0  0  0  0  0  0  0  0  0  0  0  0
   59.8110   30.8860   45.1050 H   0  0  0  0  0  0  0  0  0  0  0  0
   58.6059   28.9253   43.1374 H   0  0  0  0  0  0  0  0  0  0  0  0
   58.0034   26.5170   43.2740 H   0  0  0  0  0  0  0  0  0  0  0  0
   57.4532   25.1677   47.6285 H   0  0  0  0  0  0  0  0  0  0  0  0
   56.0979   24.2350   46.9077 H   0  0  0  0  0  0  0  0  0  0  0  0
   57.7588   23.5510   46.9077 H   0  0  0  0  0  0  0  0  0  0  0  0
   57.2418   23.2226   44.5888 H   0  0  0  0  0  0  0  0  0  0  0  0
   56.4739   24.5900   43.7130 H   0  0  0  0  0  0  0  0  0  0  0  0
   58.2616   24.4141   43.7130 H   0  0  0  0  0  0  0  0  0  0  0  0
   57.6255   26.8670   47.5793 H   0  0  0  0  0  0  0  0  0  0  0  0
   58.2210   29.2767   47.4310 H   0  0  0  0  0  0  0  0  0  0  0  0
   57.5710   31.4232   47.4702 H   0  0  0  0  0  0  0  0  0  0  0  0
   58.1684   31.5700   49.8830 H   0  0  0  0  0  0  0  0  0  0  0  0
   63.2494   32.9313   52.1130 H   0  0  0  0  0  0  0  0  0  0  0  0
   61.7608   32.2711   52.8872 H   0  0  0  0  0  0  0  0  0  0  0  0
   62.8399   30.7566   51.1431 H   0  0  0  0  0  0  0  0  0  0  0  0
   61.1022   31.1526   50.8615 H   0  0  0  0  0  0  0  0  0  0  0  0
   61.0676   30.8236   48.4779 H   0  0  0  0  0  0  0  0  0  0  0  0
   61.6706   31.7087   46.2227 H   0  0  0  0  0  0  0  0  0  0  0  0
   63.4216   33.4760   45.9997 H   0  0  0  0  0  0  0  0  0  0  0  0
   64.5787   34.3544   48.0317 H   0  0  0  0  0  0  0  0  0  0  0  0
   63.9771   33.4774   50.2898 H   0  0  0  0  0  0  0  0  0  0  0  0
   60.3723   35.2150   49.1209 H   0  0  0  0  0  0  0  0  0  0  0  0
   59.7879   35.0668   46.7034 H   0  0  0  0  0  0  0  0  0  0  0  0
  1  2  1  0
  2  3  1  0
  3  4  2  0
  3  5  1  0
  5  6  1  0
  6  7  2  0
  7  8  1  0
  8  9  2  0
  9 10  1  0
 10 11  1  0
 10 12  1  0
  9 13  1  0
 13 14  2  0
  2 15  1  0
 15 16  2  0
 16 17  1  0
 17 18  2  0
 18 19  1  0
 19 20  2  0
 19 21  2  0
 19 22  1  0
 22 23  1  0
 23 24  1  0
 24 25  1  0
 25 26  2  0
 26 27  1  0
 27 28  2  0
 28 29  1  0
 29 30  2  0
 18 31  1  0
 31 32  2  0
 14  6  1  0
 32 15  1  0
 30 25  1  0
  1 33  1  0
  1 34  1  0
  1 35  1  0
  2 36  1  6
  5 37  1  0
  7 38  1  0
  8 39  1  0
 11 40  1  0
 11 41  1  0
 11 42  1  0
 12 43  1  0
 12 44  1  0
 12 45  1  0
 13 46  1  0
 14 47  1  0
 16 48  1  0
 17 49  1  0
 23 50  1  0
 23 51  1  0
 24 52  1  0
 24 53  1  0
 26 54  1  0
 27 55  1  0
 28 56  1  0
 29 57  1  0
 30 58  1  0
 31 59  1  0
 32 60  1  0
M  CHG  1  22  -1
M  END
>  <UniqueID>  (64) 
56

>  <SMILES>  (64) 
C[C@H](C(=O)Nc1ccc(N(C)C)cc1)c1ccc(S(=O)(=O)[N-]CCc2ccccc2)cc1

>  <Energy>  (64) 
61.8087471412301

>  <Genealogy>  (64) 
CC(C(=O)Nc1ccc(N(C)C)cc1)c1ccc(S(=O)(=O)[N-]CCc2ccccc2)cc1 (protonated)
C[C@H](C(=O)Nc1ccc(N(C)C)cc1)c1ccc(S(=O)(=O)[N-]CCc2ccccc2)cc1 (chirality)
C[C@H](C(=O)Nc1ccc(N(C)C)cc1)c1ccc(S(=O)(=O)[N-]CCc2ccccc2)cc1 (3D coordinates assigned)
C[C@H](C(=O)Nc1ccc(N(C)C)cc1)c1ccc(S(=O)(=O)[N-]CCc2ccccc2)cc1 (optimized conformer: 61.8087471412301 kcal/mol)

>  <smiles>  (64) 
CC(C(=O)Nc1ccc(N(C)C)cc1)c1ccc(S(=O)(=O)NCCc2ccccc2)cc1

>  <score_type>  (64) 
oracle

>  <origin>  (64) 
adg

>  <m_score__min__energy>  (64) 
-10.98

>  <m_primary>  (64) 
energy

$$$$
64:0
     RDKit          3D

 44 46  0  0  0  0  0  0  0  0999 V2000
   61.8520   33.7390   46.7910 C   0  0  0  0  0  0  0  0  0  0  0  0
   60.7040   33.2250   47.4620 O   0  0  0  0  0  0  0  0  0  0  0  0
   59.8250   32.2730   46.9220 C   0  0  0  0  0  0  0  0  0  0  0  0
   59.9480   30.8990   47.2100 C   0  0  0  0  0  0  0  0  0  0  0  0
   59.0610   29.9770   46.6520 C   0  0  0  0  0  0  0  0  0  0  0  0
   58.0480   30.4010   45.7860 C   0  0  0  0  0  0  0  0  0  0  0  0
   57.1450   29.4250   45.2530 N   0  0  0  0  0  0  0  0  0  0  0  0
   57.3590   28.0080   45.2220 C   0  0  0  0  0  0  0  0  0  0  0  0
   57.6670   27.4250   44.1480 O   0  0  0  0  0  0  0  0  0  0  0  0
   57.2520   27.2180   46.4870 C   0  0  0  0  0  0  0  0  0  0  0  0
   56.7940   25.8610   46.1930 N   0  0  0  0  0  0  0  0  0  0  0  0
   55.5180   25.4610   45.9920 C   0  0  0  0  0  0  0  0  0  0  0  0
   54.4230   26.3170   45.9720 O   0  0  0  0  0  0  0  0  0  0  0  0
   55.4660   24.0920   45.8150 C   0  0  0  0  0  0  0  0  0  0  0  0
   56.7650   23.6390   45.8840 C   0  0  0  0  0  0  0  0  0  0  0  0
   57.5520   24.7430   46.1470 C   0  0  0  0  0  0  0  0  0  0  0  0
   58.9290   24.7210   46.3520 O   0  0  0  0  0  0  0  0  0  0  0  0
   57.1540   22.1940   45.8010 C   0  0  0  0  0  0  0  0  0  0  0  0
   56.0250   21.3730   45.1470 C   0  0  0  0  0  0  0  0  0  0  0  0
   54.6400   21.7360   45.7320 C   0  0  0  0  0  0  0  0  0  0  0  0
   54.2880   23.2200   45.4950 C   0  0  0  0  0  0  0  0  0  0  0  0
   57.9010   31.7720   45.5170 C   0  0  0  0  0  0  0  0  0  0  0  0
   58.7870   32.7080   46.0740 C   0  0  0  0  0  0  0  0  0  0  0  0
   58.5990   34.4260   45.7130 S   0  0  0  0  0  0  0  0  0  0  0  0
   58.8920   35.3440   47.1480 N   0  0  0  0  0  0  0  0  0  0  0  0
   57.2010   34.6830   45.2210 O   0  0  0  0  0  0  0  0  0  0  0  0
   59.5770   34.8520   44.6520 O   0  0  0  0  0  0  0  0  0  0  0  0
   62.5928   34.0707   47.5335 H   0  0  0  0  0  0  0  0  0  0  0  0
   62.2915   32.9517   46.1609 H   0  0  0  0  0  0  0  0  0  0  0  0
   61.5575   34.5912   46.1609 H   0  0  0  0  0  0  0  0  0  0  0  0
   60.7486   30.5507   47.8792 H   0  0  0  0  0  0  0  0  0  0  0  0
   59.1595   28.9088   46.8952 H   0  0  0  0  0  0  0  0  0  0  0  0
   58.2381   27.1723   46.9723 H   0  0  0  0  0  0  0  0  0  0  0  0
   56.5284   27.7057   47.1567 H   0  0  0  0  0  0  0  0  0  0  0  0
   58.0686   22.0985   45.1974 H   0  0  0  0  0  0  0  0  0  0  0  0
   57.3317   21.8122   46.8172 H   0  0  0  0  0  0  0  0  0  0  0  0
   56.0188   21.5739   44.0655 H   0  0  0  0  0  0  0  0  0  0  0  0
   56.2141   20.3085   45.3495 H   0  0  0  0  0  0  0  0  0  0  0  0
   53.8752   21.1077   45.2521 H   0  0  0  0  0  0  0  0  0  0  0  0
   54.6713   21.5615   46.8176 H   0  0  0  0  0  0  0  0  0  0  0  0
   54.0067   23.3624   44.4411 H   0  0  0  0  0  0  0  0  0  0  0  0
   53.4489   23.4977   46.1498 H   0  0  0  0  0  0  0  0  0  0  0  0
   57.0847   32.1151   44.8644 H   0  0  0  0  0  0  0  0  0  0  0  0
   59.9030   35.2320   47.3870 H   0  0  0  0  0  0  0  0  0  0  0  0
  1  2  1  0
  2  3  1  0
  3  4  2  0
  4  5  1  0
  5  6  2  0
  6  7  1  0
  7  8  1  0
  8  9  2  0
  8 10  1  0
 10 11  1  0
 11 12  1  0
 12 13  1  0
 12 14  2  0
 14 15  1  0
 15 16  2  0
 16 17  1  0
 15 18  1  0
 18 19  1  0
 19 20  1  0
 20 21  1  0
  6 22  1  0
 22 23  2  0
 23 24  1  0
 24 25  1  0
 24 26  2  0
 24 27  2  0
 23  3  1  0
 16 11  1  0
 21 14  1  0
  1 28  1  0
  1 29  1  0
  1 30  1  0
  4 31  1  0
  5 32  1  0
 10 33  1  0
 10 34  1  0
 18 35  1  0
 18 36  1  0
 19 37  1  0
 19 38  1  0
 20 39  1  0
 20 40  1  0
 21 41  1  0
 21 42  1  0
 22 43  1  0
 25 44  1  0
M  CHG  4   7  -1  13  -1  17  -1  25  -1
M  END
>  <UniqueID>  (65) 
57

>  <SMILES>  (65) 
COc1ccc([N-]C(=O)Cn2c([O-])c3c(c2[O-])CCCC3)cc1S([NH-])(=O)=O

>  <Energy>  (65) 
75.37176598839972

>  <Genealogy>  (65) 
COc1ccc([N-]C(=O)Cn2c([O-])c3c(c2[O-])CCCC3)cc1S([NH-])(=O)=O (protonated)
COc1ccc([N-]C(=O)Cn2c([O-])c3c(c2[O-])CCCC3)cc1S([NH-])(=O)=O (3D coordinates assigned)
COc1ccc([N-]C(=O)Cn2c([O-])c3c(c2[O-])CCCC3)cc1S([NH-])(=O)=O (nonaromatic ring conformer: 75.37176598839972 kcal/mol)

>  <smiles>  (65) 
COc1ccc(NC(=O)Cn2c(O)c3c(c2O)CCCC3)cc1S(N)(=O)=O

>  <score_type>  (65) 
oracle

>  <origin>  (65) 
adg

>  <m_score__min__energy>  (65) 
-15.74

>  <m_primary>  (65) 
energy

$$$$
65:0
     RDKit          3D

 62 65  0  0  0  0  0  0  0  0999 V2000
   62.1300   29.5910   51.6710 C   0  0  0  0  0  0  0  0  0  0  0  0
   62.4350   30.4040   50.4600 C   0  0  0  0  0  0  0  0  0  0  0  0
   61.8350   30.1550   49.3810 O   0  0  0  0  0  0  0  0  0  0  0  0
   63.4420   31.4260   50.5160 N   0  0  0  0  0  0  0  0  0  0  0  0
   63.8500   32.1940   49.3380 C   0  0  2  0  0  0  0  0  0  0  0  0
   64.9710   33.1680   49.7190 C   0  0  0  0  0  0  0  0  0  0  0  0
   62.6280   32.8500   48.7150 C   0  0  0  0  0  0  0  0  0  0  0  0
   61.6170   33.3240   49.5650 C   0  0  0  0  0  0  0  0  0  0  0  0
   60.5090   33.9980   49.0520 C   0  0  0  0  0  0  0  0  0  0  0  0
   60.3910   34.2200   47.6820 C   0  0  0  0  0  0  0  0  0  0  0  0
   59.2380   34.8720   47.2170 O   0  0  0  0  0  0  0  0  0  0  0  0
   58.2560   34.2910   46.3550 C   0  0  1  0  0  0  0  0  0  0  0  0
   58.5730   34.5710   44.8810 C   0  0  0  0  0  0  0  0  0  0  0  0
   58.2040   33.3020   44.1270 C   0  0  0  0  0  0  0  0  0  0  0  0
   58.0980   32.2680   45.1390 N   0  0  0  0  0  0  0  0  0  0  0  0
   58.0790   30.8690   44.8250 C   0  0  0  0  0  0  0  0  0  0  0  0
   57.0780   30.3650   43.9770 C   0  0  0  0  0  0  0  0  0  0  0  0
   57.0150   29.0010   43.6830 C   0  0  0  0  0  0  0  0  0  0  0  0
   57.9470   28.1160   44.2290 C   0  0  0  0  0  0  0  0  0  0  0  0
   57.8290   26.7530   43.9240 O   0  0  0  0  0  0  0  0  0  0  0  0
   57.4370   25.7470   44.8600 C   0  0  0  0  0  0  0  0  0  0  0  0
   58.5510   25.3950   45.8400 C   0  0  0  0  0  0  0  0  0  0  0  0
   57.7280   25.9740   46.9780 C   0  0  0  0  0  0  0  0  0  0  0  0
   56.6200   26.3370   46.0010 C   0  0  0  0  0  0  0  0  0  0  0  0
   58.9610   28.6160   45.0690 C   0  0  0  0  0  0  0  0  0  0  0  0
   59.0470   29.9890   45.3560 C   0  0  0  0  0  0  0  0  0  0  0  0
   60.1520   30.4860   46.2510 C   0  0  0  0  0  0  0  0  0  0  0  0
   58.2710   32.7730   46.4890 C   0  0  0  0  0  0  0  0  0  0  0  0
   61.4210   33.7840   46.8260 C   0  0  0  0  0  0  0  0  0  0  0  0
   62.5280   33.1080   47.3390 C   0  0  0  0  0  0  0  0  0  0  0  0
   62.3510   30.1801   52.5733 H   0  0  0  0  0  0  0  0  0  0  0  0
   61.0660   29.3119   51.6668 H   0  0  0  0  0  0  0  0  0  0  0  0
   62.7478   28.6809   51.6668 H   0  0  0  0  0  0  0  0  0  0  0  0
   63.9760   31.5460   51.4080 H   0  0  0  0  0  0  0  0  0  0  0  0
   64.2737   31.5397   48.5618 H   0  0  0  0  0  0  0  0  0  0  0  0
   65.0445   33.2319   50.8147 H   0  0  0  0  0  0  0  0  0  0  0  0
   65.9255   32.8075   49.3078 H   0  0  0  0  0  0  0  0  0  0  0  0
   64.7473   34.1634   49.3078 H   0  0  0  0  0  0  0  0  0  0  0  0
   61.6995   33.1619   50.6499 H   0  0  0  0  0  0  0  0  0  0  0  0
   59.7235   34.3565   49.7335 H   0  0  0  0  0  0  0  0  0  0  0  0
   57.2886   34.7271   46.6447 H   0  0  0  0  0  0  0  0  0  0  0  0
   57.9766   35.4201   44.5159 H   0  0  0  0  0  0  0  0  0  0  0  0
   59.6319   34.8323   44.7381 H   0  0  0  0  0  0  0  0  0  0  0  0
   57.2439   33.4298   43.6057 H   0  0  0  0  0  0  0  0  0  0  0  0
   58.9526   33.0493   43.3616 H   0  0  0  0  0  0  0  0  0  0  0  0
   56.3372   31.0512   43.5407 H   0  0  0  0  0  0  0  0  0  0  0  0
   56.2261   28.6215   43.0170 H   0  0  0  0  0  0  0  0  0  0  0  0
   57.0170   24.9748   44.1987 H   0  0  0  0  0  0  0  0  0  0  0  0
   58.7464   24.3162   45.9300 H   0  0  0  0  0  0  0  0  0  0  0  0
   59.5799   25.7415   45.6630 H   0  0  0  0  0  0  0  0  0  0  0  0
   57.4316   25.2355   47.7375 H   0  0  0  0  0  0  0  0  0  0  0  0
   58.1579   26.7412   47.6388 H   0  0  0  0  0  0  0  0  0  0  0  0
   55.6683   25.8180   46.1876 H   0  0  0  0  0  0  0  0  0  0  0  0
   56.2441   27.3691   45.9423 H   0  0  0  0  0  0  0  0  0  0  0  0
   59.6950   27.9229   45.5060 H   0  0  0  0  0  0  0  0  0  0  0  0
   59.8590   30.3542   47.3030 H   0  0  0  0  0  0  0  0  0  0  0  0
   61.0704   29.9143   46.0518 H   0  0  0  0  0  0  0  0  0  0  0  0
   60.3335   31.5525   46.0518 H   0  0  0  0  0  0  0  0  0  0  0  0
   57.4476   32.4350   47.1354 H   0  0  0  0  0  0  0  0  0  0  0  0
   59.2036   32.4107   46.9462 H   0  0  0  0  0  0  0  0  0  0  0  0
   61.3520   33.9779   45.7454 H   0  0  0  0  0  0  0  0  0  0  0  0
   63.3276   32.7750   46.6609 H   0  0  0  0  0  0  0  0  0  0  0  0
  1  2  1  0
  2  3  2  0
  2  4  1  0
  4  5  1  0
  5  6  1  0
  5  7  1  0
  7  8  2  0
  8  9  1  0
  9 10  2  0
 10 11  1  0
 11 12  1  0
 12 13  1  0
 13 14  1  0
 14 15  1  0
 15 16  1  0
 16 17  2  0
 17 18  1  0
 18 19  2  0
 19 20  1  0
 20 21  1  0
 21 22  1  0
 22 23  1  0
 23 24  1  0
 19 25  1  0
 25 26  2  0
 26 27  1  0
 15 28  1  0
 10 29  1  0
 29 30  2  0
 30  7  1  0
 28 12  1  0
 26 16  1  0
 24 21  1  0
  1 31  1  0
  1 32  1  0
  1 33  1  0
  4 34  1  0
  5 35  1  6
  6 36  1  0
  6 37  1  0
  6 38  1  0
  8 39  1  0
  9 40  1  0
 12 41  1  1
 13 42  1  0
 13 43  1  0
 14 44  1  0
 14 45  1  0
 17 46  1  0
 18 47  1  0
 21 48  1  0
 22 49  1  0
 22 50  1  0
 23 51  1  0
 23 52  1  0
 24 53  1  0
 24 54  1  0
 25 55  1  0
 27 56  1  0
 27 57  1  0
 27 58  1  0
 28 59  1  0
 28 60  1  0
 29 61  1  0
 30 62  1  0
M  END
>  <UniqueID>  (66) 
58

>  <SMILES>  (66) 
CC(=O)N[C@H](C)c1ccc(O[C@H]2CCN(c3ccc(OC4CCC4)cc3C)C2)cc1

>  <Energy>  (66) 
126.1644809647959

>  <Genealogy>  (66) 
CC(=O)N[C@H](C)c1ccc(O[C@H]2CCN(c3ccc(OC4CCC4)cc3C)C2)cc1 (chirality)
CC(=O)N[C@H](C)c1ccc(O[C@H]2CCN(c3ccc(OC4CCC4)cc3C)C2)cc1 (3D coordinates assigned)
CC(=O)N[C@H](C)c1ccc(O[C@H]2CCN(c3ccc(OC4CCC4)cc3C)C2)cc1 (nonaromatic ring conformer: 126.1644809647959 kcal/mol)

>  <smiles>  (66) 
CC(=O)NC(C)c1ccc(OC2CCN(c3ccc(OC4CCC4)cc3C)C2)cc1

>  <score_type>  (66) 
oracle

>  <origin>  (66) 
adg

>  <m_score__min__energy>  (66) 
-8.9199999999999999

>  <m_primary>  (66) 
energy

$$$$
66:0
     RDKit          3D

 44 46  0  0  0  0  0  0  0  0999 V2000
   56.1030   34.1754   44.8327 H   0  0  0  0  0  0  0  0  0  0  0  0
   57.0170   33.6950   45.2120 C   0  0  0  0  0  0  0  0  0  0  0  0
   57.3950   32.4440   44.7310 C   0  0  0  0  0  0  0  0  0  0  0  0
   56.7685   31.9342   43.9843 H   0  0  0  0  0  0  0  0  0  0  0  0
   58.5650   31.8310   45.1900 C   0  0  0  0  0  0  0  0  0  0  0  0
   58.9250   30.5500   44.6490 N   0  0  0  0  0  0  0  0  0  0  0  0
   58.4860   29.3950   45.0670 C   0  0  0  0  0  0  0  0  0  0  0  0
   59.0760   28.6980   46.2390 C   0  0  0  0  0  0  0  0  0  0  0  0
   58.8550   29.1770   47.5400 C   0  0  0  0  0  0  0  0  0  0  0  0
   58.2422   30.0775   47.6935 H   0  0  0  0  0  0  0  0  0  0  0  0
   59.4080   28.5180   48.6420 C   0  0  0  0  0  0  0  0  0  0  0  0
   59.2183   28.8944   49.6580 H   0  0  0  0  0  0  0  0  0  0  0  0
   60.2070   27.3740   48.4550 C   0  0  0  0  0  0  0  0  0  0  0  0
   60.7800   26.6750   49.5280 O   0  0  0  0  0  0  0  0  0  0  0  0
   61.1450   27.2670   50.7710 C   0  0  0  0  0  0  0  0  0  0  0  0
   60.7640   26.6490   51.5974 H   0  0  0  0  0  0  0  0  0  0  0  0
   62.2410   27.3332   50.8378 H   0  0  0  0  0  0  0  0  0  0  0  0
   60.7119   28.2760   50.8378 H   0  0  0  0  0  0  0  0  0  0  0  0
   60.4430   26.9110   47.1570 C   0  0  0  0  0  0  0  0  0  0  0  0
   61.0694   26.0203   47.0012 H   0  0  0  0  0  0  0  0  0  0  0  0
   59.8900   27.5700   46.0560 C   0  0  0  0  0  0  0  0  0  0  0  0
   60.0941   27.2022   45.0396 H   0  0  0  0  0  0  0  0  0  0  0  0
   57.4390   28.6950   44.2490 C   0  0  0  0  0  0  0  0  0  0  0  0
   57.2542   29.2652   43.3267 H   0  0  0  0  0  0  0  0  0  0  0  0
   57.7914   27.6844   43.9949 H   0  0  0  0  0  0  0  0  0  0  0  0
   56.2020   28.5960   45.0130 N   0  0  0  0  0  0  0  0  0  0  0  0
   55.9280   27.5430   45.6240 O   0  0  0  0  0  0  0  0  0  0  0  0
   55.2360   29.5670   44.8740 O   0  0  0  0  0  0  0  0  0  0  0  0
   59.3370   32.4500   46.2040 C   0  0  0  0  0  0  0  0  0  0  0  0
   58.9570   33.7350   46.6730 C   0  0  0  0  0  0  0  0  0  0  0  0
   57.7940   34.3400   46.1730 C   0  0  0  0  0  0  0  0  0  0  0  0
   57.4929   35.3314   46.5423 H   0  0  0  0  0  0  0  0  0  0  0  0
   59.7010   34.4300   47.7920 C   0  0  0  0  0  0  0  0  0  0  0  0
   59.1136   34.3325   48.7169 H   0  0  0  0  0  0  0  0  0  0  0  0
   59.8312   35.4816   47.4968 H   0  0  0  0  0  0  0  0  0  0  0  0
   61.0940   33.8480   48.0360 C   0  0  0  0  0  0  0  0  0  0  0  0
   61.4840   34.2288   48.9915 H   0  0  0  0  0  0  0  0  0  0  0  0
   61.7568   34.1491   47.2113 H   0  0  0  0  0  0  0  0  0  0  0  0
   61.0300   32.3230   48.0900 C   0  0  0  0  0  0  0  0  0  0  0  0
   60.3110   32.0158   48.8637 H   0  0  0  0  0  0  0  0  0  0  0  0
   62.0281   31.9280   48.3303 H   0  0  0  0  0  0  0  0  0  0  0  0
   60.5840   31.7700   46.7360 C   0  0  0  0  0  0  0  0  0  0  0  0
   60.3780   30.6951   46.8462 H   0  0  0  0  0  0  0  0  0  0  0  0
   61.3956   31.9591   46.0180 H   0  0  0  0  0  0  0  0  0  0  0  0
  1  2  1  0
  2  3  2  0
  3  4  1  0
  3  5  1  0
  5  6  1  0
  6  7  2  0
  7  8  1  0
  8  9  2  0
  9 10  1  0
  9 11  1  0
 11 12  1  0
 11 13  2  0
 13 14  1  0
 14 15  1  0
 15 16  1  0
 15 17  1  0
 15 18  1  0
 13 19  1  0
 19 20  1  0
 19 21  2  0
 21 22  1  0
  7 23  1  0
 23 24  1  0
 23 25  1  0
 23 26  1  0
 26 27  2  0
 26 28  1  0
  5 29  2  0
 29 30  1  0
 30 31  2  0
 31 32  1  0
 30 33  1  0
 33 34  1  0
 33 35  1  0
 33 36  1  0
 36 37  1  0
 36 38  1  0
 36 39  1  0
 39 40  1  0
 39 41  1  0
 39 42  1  0
 42 43  1  0
 42 44  1  0
 31  2  1  0
 21  8  1  0
 42 29  1  0
M  CHG  2  26   1  28  -1
M  END
>  <UniqueID>  (67) 
59

>  <SMILES>  (67) 
COc1ccc(/C(C[N+](=O)[O-])=N\c2cccc3c2CCCC3)cc1

>  <Energy>  (67) 
55.53812911036767

>  <Genealogy>  (67) 
COc1ccc(/C(C[N+](=O)[O-])=N\c2cccc3c2CCCC3)cc1 (cis-trans isomerization)
COc1ccc(/C(C[N+](=O)[O-])=N\c2cccc3c2CCCC3)cc1 (3D coordinates assigned)
COc1ccc(/C(C[N+](=O)[O-])=N\c2cccc3c2CCCC3)cc1 (nonaromatic ring conformer: 55.53812911036767 kcal/mol)

>  <smiles>  (67) 
COc1ccc(C(C[N+](=O)[O-])=Nc2cccc3c2CCCC3)cc1

>  <score_type>  (67) 
oracle

>  <origin>  (67) 
adg

>  <m_score__min__energy>  (67) 
-8.4900000000000002

>  <m_primary>  (67) 
energy

$$$$
67:0
     RDKit          3D

 72 75  0  0  0  0  0  0  0  0999 V2000
   66.4540   32.7230   49.7680 N   0  0  0  0  0  0  0  0  0  0  0  0
   65.3930   32.0640   50.1130 C   0  0  0  0  0  0  0  0  0  0  0  0
   65.5490   30.8560   50.8650 N   0  0  0  0  0  0  0  0  0  0  0  0
   64.0350   32.5550   49.7520 C   0  0  0  0  0  0  0  0  0  0  0  0
   63.0250   32.6400   50.7280 C   0  0  0  0  0  0  0  0  0  0  0  0
   61.7550   33.1220   50.4000 C   0  0  0  0  0  0  0  0  0  0  0  0
   61.4650   33.5330   49.0880 C   0  0  0  0  0  0  0  0  0  0  0  0
   60.1030   34.0150   48.7430 C   0  0  0  0  0  0  0  0  0  0  0  0
   59.6220   35.0000   49.3700 O   0  0  0  0  0  0  0  0  0  0  0  0
   59.2800   33.3700   47.6950 C   0  0  0  0  0  0  0  0  0  0  0  0
   58.4760   34.1570   46.8540 C   0  0  0  0  0  0  0  0  0  0  0  0
   57.6730   33.5550   45.8800 C   0  0  0  0  0  0  0  0  0  0  0  0
   57.6920   32.1600   45.7080 C   0  0  0  0  0  0  0  0  0  0  0  0
   56.8180   31.5060   44.7790 N   0  0  0  0  0  0  0  0  0  0  0  0
   57.1920   30.9750   43.5010 C   0  0  0  0  0  0  0  0  0  0  0  0
   57.6580   31.7580   42.6330 O   0  0  0  0  0  0  0  0  0  0  0  0
   56.9980   29.5170   43.1650 C   0  0  0  0  0  0  0  0  0  0  0  0
   57.7020   28.5840   44.1670 C   0  0  0  0  0  0  0  0  0  0  0  0
   57.2040   28.7260   45.6160 C   0  0  0  0  0  0  0  0  0  0  0  0
   57.7860   27.6770   46.4930 N   0  0  0  0  0  0  0  0  0  0  0  0
   57.4970   26.3010   46.0290 C   0  0  0  0  0  0  0  0  0  0  0  0
   56.0890   25.9100   46.3440 C   0  0  0  0  0  0  0  0  0  0  0  0
   55.1360   26.6640   46.0200 O   0  0  0  0  0  0  0  0  0  0  0  0
   55.8280   24.7240   47.0200 O   0  0  0  0  0  0  0  0  0  0  0  0
   59.2290   27.8860   46.7670 C   0  0  0  0  0  0  0  0  0  0  0  0
   59.5200   28.3940   48.1650 C   0  0  0  0  0  0  0  0  0  0  0  0
   60.7590   28.1190   48.7690 C   0  0  0  0  0  0  0  0  0  0  0  0
   61.0370   28.5810   50.0560 C   0  0  0  0  0  0  0  0  0  0  0  0
   60.0830   29.3160   50.7600 C   0  0  0  0  0  0  0  0  0  0  0  0
   58.8350   29.5970   50.1740 C   0  0  0  0  0  0  0  0  0  0  0  0
   57.8510   30.3430   50.8410 O   0  0  0  0  0  0  0  0  0  0  0  0
   58.1410   31.3970   51.7100 C   0  0  0  0  0  0  0  0  0  0  0  0
   58.3220   32.6920   51.2090 C   0  0  0  0  0  0  0  0  0  0  0  0
   58.6180   33.7440   52.0810 C   0  0  0  0  0  0  0  0  0  0  0  0
   58.7300   33.5040   53.4560 C   0  0  0  0  0  0  0  0  0  0  0  0
   58.5410   32.2110   53.9600 C   0  0  0  0  0  0  0  0  0  0  0  0
   58.2460   31.1590   53.0870 C   0  0  0  0  0  0  0  0  0  0  0  0
   58.5610   29.1290   48.8830 C   0  0  0  0  0  0  0  0  0  0  0  0
   58.5040   31.3770   46.5380 C   0  0  0  0  0  0  0  0  0  0  0  0
   59.3020   31.9770   47.5170 C   0  0  0  0  0  0  0  0  0  0  0  0
   62.4700   33.4320   48.1090 C   0  0  0  0  0  0  0  0  0  0  0  0
   63.7420   32.9610   48.4380 C   0  0  0  0  0  0  0  0  0  0  0  0
   66.8310   32.7270   48.7920 H   0  0  0  0  0  0  0  0  0  0  0  0
   64.7280   30.3180   51.2140 H   0  0  0  0  0  0  0  0  0  0  0  0
   66.5060   30.4960   51.0810 H   0  0  0  0  0  0  0  0  0  0  0  0
   63.2373   32.3237   51.7599 H   0  0  0  0  0  0  0  0  0  0  0  0
   60.9764   33.1801   51.1748 H   0  0  0  0  0  0  0  0  0  0  0  0
   58.4780   35.2517   46.9620 H   0  0  0  0  0  0  0  0  0  0  0  0
   57.0235   34.1760   45.2456 H   0  0  0  0  0  0  0  0  0  0  0  0
   55.9210   29.2935   43.1712 H   0  0  0  0  0  0  0  0  0  0  0  0
   57.4413   29.3398   42.1740 H   0  0  0  0  0  0  0  0  0  0  0  0
   57.5374   27.5450   43.8456 H   0  0  0  0  0  0  0  0  0  0  0  0
   58.7654   28.8654   44.1685 H   0  0  0  0  0  0  0  0  0  0  0  0
   57.4947   29.7152   45.9994 H   0  0  0  0  0  0  0  0  0  0  0  0
   56.1098   28.6131   45.6194 H   0  0  0  0  0  0  0  0  0  0  0  0
   57.6489   26.2498   44.9407 H   0  0  0  0  0  0  0  0  0  0  0  0
   58.1758   25.6082   46.5479 H   0  0  0  0  0  0  0  0  0  0  0  0
   59.7500   26.9268   46.6313 H   0  0  0  0  0  0  0  0  0  0  0  0
   59.5790   28.6586   46.0666 H   0  0  0  0  0  0  0  0  0  0  0  0
   61.5150   27.5354   48.2232 H   0  0  0  0  0  0  0  0  0  0  0  0
   62.0120   28.3648   50.5171 H   0  0  0  0  0  0  0  0  0  0  0  0
   60.3067   29.6765   51.7749 H   0  0  0  0  0  0  0  0  0  0  0  0
   58.2313   32.8816   50.1293 H   0  0  0  0  0  0  0  0  0  0  0  0
   58.7630   34.7606   51.6868 H   0  0  0  0  0  0  0  0  0  0  0  0
   58.9666   34.3316   54.1409 H   0  0  0  0  0  0  0  0  0  0  0  0
   58.6245   32.0232   55.0406 H   0  0  0  0  0  0  0  0  0  0  0  0
   58.0962   30.1433   53.4818 H   0  0  0  0  0  0  0  0  0  0  0  0
   57.5832   29.3392   48.4251 H   0  0  0  0  0  0  0  0  0  0  0  0
   58.5141   30.2835   46.4191 H   0  0  0  0  0  0  0  0  0  0  0  0
   59.9505   31.3547   48.1512 H   0  0  0  0  0  0  0  0  0  0  0  0
   62.2509   33.7276   47.0724 H   0  0  0  0  0  0  0  0  0  0  0  0
   64.5212   32.9070   47.6635 H   0  0  0  0  0  0  0  0  0  0  0  0
  1  2  2  3
  2  3  1  0
  2  4  1  0
  4  5  2  0
  5  6  1  0
  6  7  2  0
  7  8  1  0
  8  9  2  0
  8 10  1  0
 10 11  2  0
 11 12  1  0
 12 13  2  0
 13 14  1  0
 14 15  1  0
 15 16  2  0
 15 17  1  0
 17 18  1  0
 18 19  1  0
 19 20  1  0
 20 21  1  0
 21 22  1  0
 22 23  2  0
 22 24  1  0
 20 25  1  0
 25 26  1  0
 26 27  2  0
 27 28  1  0
 28 29  2  0
 29 30  1  0
 30 31  1  0
 31 32  1  0
 32 33  2  0
 33 34  1  0
 34 35  2  0
 35 36  1  0
 36 37  2  0
 30 38  2  0
 13 39  1  0
 39 40  2  0
  7 41  1  0
 41 42  2  0
 42  4  1  0
 40 10  1  0
 38 26  1  0
 37 32  1  0
  1 43  1  0
  3 44  1  0
  3 45  1  0
  5 46  1  0
  6 47  1  0
 11 48  1  0
 12 49  1  0
 17 50  1  0
 17 51  1  0
 18 52  1  0
 18 53  1  0
 19 54  1  0
 19 55  1  0
 21 56  1  0
 21 57  1  0
 25 58  1  0
 25 59  1  0
 27 60  1  0
 28 61  1  0
 29 62  1  0
 33 63  1  0
 34 64  1  0
 35 65  1  0
 36 66  1  0
 37 67  1  0
 38 68  1  0
 39 69  1  0
 40 70  1  0
 41 71  1  0
 42 72  1  0
M  CHG  2  14  -1  24  -1
M  END
>  <UniqueID>  (68) 
60

>  <SMILES>  (68) 
N=C(N)c1ccc(C(=O)c2ccc([N-]C(=O)CCCN(CC(=O)[O-])Cc3cccc(Oc4ccccc4)c3)cc2)cc1

>  <Energy>  (68) 
103.11258559583786

>  <Genealogy>  (68) 
N=C(N)c1ccc(C(=O)c2ccc([N-]C(=O)CCCN(CC(=O)[O-])Cc3cccc(Oc4ccccc4)c3)cc2)cc1 (protonated)
N=C(N)c1ccc(C(=O)c2ccc([N-]C(=O)CCCN(CC(=O)[O-])Cc3cccc(Oc4ccccc4)c3)cc2)cc1 (3D coordinates assigned)
N=C(N)c1ccc(C(=O)c2ccc([N-]C(=O)CCCN(CC(=O)[O-])Cc3cccc(Oc4ccccc4)c3)cc2)cc1 (optimized conformer: 103.11258559583786 kcal/mol)

>  <smiles>  (68) 
N=C(N)c1ccc(C(=O)c2ccc(NC(=O)CCCN(CC(=O)O)Cc3cccc(Oc4ccccc4)c3)cc2)cc1

>  <score_type>  (68) 
oracle

>  <origin>  (68) 
adg

>  <m_score__min__energy>  (68) 
-15.970000000000001

>  <m_primary>  (68) 
energy

$$$$
68:0
     RDKit          3D

 45 47  0  0  0  0  0  0  0  0999 V2000
   57.1210   21.2250   43.0200 C   0  0  0  0  0  0  0  0  0  0  0  0
   56.0260   22.1340   43.0220 O   0  0  0  0  0  0  0  0  0  0  0  0
   55.8800   23.1950   43.9280 C   0  0  0  0  0  0  0  0  0  0  0  0
   54.6870   23.4230   44.6390 C   0  0  0  0  0  0  0  0  0  0  0  0
   54.5970   24.4890   45.5380 C   0  0  0  0  0  0  0  0  0  0  0  0
   55.6870   25.3400   45.7310 C   0  0  0  0  0  0  0  0  0  0  0  0
   56.8780   25.1390   45.0120 C   0  0  0  0  0  0  0  0  0  0  0  0
   58.0230   25.9860   45.2080 N   0  0  0  0  0  0  0  0  0  0  0  0
   58.5090   26.9190   44.2290 C   0  0  0  0  0  0  0  0  0  0  0  0
   57.9950   26.9700   43.0790 O   0  0  0  0  0  0  0  0  0  0  0  0
   59.6440   27.8430   44.5650 C   0  0  0  0  0  0  0  0  0  0  0  0
   59.2710   28.7370   45.6750 N   0  0  0  0  0  0  0  0  0  0  0  0
   59.3670   28.2620   47.0370 C   0  0  0  0  0  0  0  0  0  0  0  0
   59.8150   27.1110   47.2890 O   0  0  0  0  0  0  0  0  0  0  0  0
   58.8580   29.1070   48.1670 C   0  0  0  0  0  0  0  0  0  0  0  0
   58.9030   30.4920   47.8350 O   0  0  0  0  0  0  0  0  0  0  0  0
   58.6560   30.9550   46.5410 C   0  0  0  0  0  0  0  0  0  0  0  0
   58.2850   32.2880   46.3500 C   0  0  0  0  0  0  0  0  0  0  0  0
   58.0050   32.7770   45.0660 C   0  0  0  0  0  0  0  0  0  0  0  0
   57.5880   34.2150   44.9000 C   0  0  0  0  0  0  0  0  0  0  0  0
   58.0830   31.9010   43.9600 C   0  0  0  0  0  0  0  0  0  0  0  0
   57.7740   32.3770   42.5630 C   0  0  0  0  0  0  0  0  0  0  0  0
   58.4910   30.5700   44.1570 C   0  0  0  0  0  0  0  0  0  0  0  0
   58.7940   30.0880   45.4450 C   0  0  0  0  0  0  0  0  0  0  0  0
   56.9700   24.0530   44.1280 C   0  0  0  0  0  0  0  0  0  0  0  0
   57.4042   20.9899   44.0566 H   0  0  0  0  0  0  0  0  0  0  0  0
   56.8289   20.3002   42.5009 H   0  0  0  0  0  0  0  0  0  0  0  0
   57.9762   21.6823   42.5009 H   0  0  0  0  0  0  0  0  0  0  0  0
   53.8226   22.7599   44.4865 H   0  0  0  0  0  0  0  0  0  0  0  0
   53.6641   24.6583   46.0956 H   0  0  0  0  0  0  0  0  0  0  0  0
   55.6134   26.1707   46.4483 H   0  0  0  0  0  0  0  0  0  0  0  0
   58.5960   25.8340   46.0690 H   0  0  0  0  0  0  0  0  0  0  0  0
   60.5207   27.2473   44.8591 H   0  0  0  0  0  0  0  0  0  0  0  0
   59.8793   28.4534   43.6806 H   0  0  0  0  0  0  0  0  0  0  0  0
   57.8179   28.8241   48.3864 H   0  0  0  0  0  0  0  0  0  0  0  0
   59.4991   28.9380   49.0448 H   0  0  0  0  0  0  0  0  0  0  0  0
   58.2117   32.9617   47.2165 H   0  0  0  0  0  0  0  0  0  0  0  0
   57.4547   34.6748   45.8904 H   0  0  0  0  0  0  0  0  0  0  0  0
   58.3650   34.7603   44.3442 H   0  0  0  0  0  0  0  0  0  0  0  0
   56.6398   34.2600   44.3442 H   0  0  0  0  0  0  0  0  0  0  0  0
   57.1757   33.2987   42.6136 H   0  0  0  0  0  0  0  0  0  0  0  0
   58.7138   32.5788   42.0281 H   0  0  0  0  0  0  0  0  0  0  0  0
   57.2071   31.6008   42.0281 H   0  0  0  0  0  0  0  0  0  0  0  0
   58.5748   29.8952   43.2923 H   0  0  0  0  0  0  0  0  0  0  0  0
   57.9096   23.8729   43.5851 H   0  0  0  0  0  0  0  0  0  0  0  0
  1  2  1  0
  2  3  1  0
  3  4  2  0
  4  5  1  0
  5  6  2  0
  6  7  1  0
  7  8  1  0
  8  9  1  0
  9 10  2  0
  9 11  1  0
 11 12  1  0
 12 13  1  0
 13 14  2  0
 13 15  1  0
 15 16  1  0
 16 17  1  0
 17 18  2  0
 18 19  1  0
 19 20  1  0
 19 21  2  0
 21 22  1  0
 21 23  1  0
 23 24  2  0
  7 25  2  0
 25  3  1  0
 24 12  1  0
 24 17  1  0
  1 26  1  0
  1 27  1  0
  1 28  1  0
  4 29  1  0
  5 30  1  0
  6 31  1  0
  8 32  1  0
 11 33  1  0
 11 34  1  0
 15 35  1  0
 15 36  1  0
 18 37  1  0
 20 38  1  0
 20 39  1  0
 20 40  1  0
 22 41  1  0
 22 42  1  0
 22 43  1  0
 23 44  1  0
 25 45  1  0
M  END
>  <UniqueID>  (69) 
61

>  <SMILES>  (69) 
COc1cccc(NC(=O)CN2C(=O)COc3cc(C)c(C)cc32)c1

>  <Energy>  (69) 
53.35112323581048

>  <Genealogy>  (69) 
COc1cccc(NC(=O)CN2C(=O)COc3cc(C)c(C)cc32)c1 (3D coordinates assigned)
COc1cccc(NC(=O)CN2C(=O)COc3cc(C)c(C)cc32)c1 (nonaromatic ring conformer: 53.35112323581048 kcal/mol)

>  <smiles>  (69) 
COc1cccc(NC(=O)CN2C(=O)COc3cc(C)c(C)cc32)c1

>  <score_type>  (69) 
oracle

>  <origin>  (69) 
adg

>  <m_score__min__energy>  (69) 
-7.5999999999999996

>  <m_primary>  (69) 
energy

$$$$
69:0
     RDKit          3D

 54 56  0  0  0  0  0  0  0  0999 V2000
   56.1900   26.9820   45.8690 N   0  0  0  0  0  0  0  0  0  0  0  0
   57.5170   27.5160   45.9030 C   0  0  0  0  0  0  0  0  0  0  0  0
   58.2790   27.5850   44.7290 C   0  0  0  0  0  0  0  0  0  0  0  0
   59.5810   28.0920   44.7660 C   0  0  0  0  0  0  0  0  0  0  0  0
   60.1230   28.5420   45.9720 C   0  0  0  0  0  0  0  0  0  0  0  0
   59.3600   28.5030   47.1530 C   0  0  0  0  0  0  0  0  0  0  0  0
   59.9600   28.9860   48.4600 C   0  0  0  0  0  0  0  0  0  0  0  0
   60.2080   30.4510   48.5410 N   0  0  2  0  0  0  0  0  0  0  0  0
   61.4220   30.8080   49.3140 C   0  0  0  0  0  0  0  0  0  0  0  0
   62.2310   31.9100   48.6580 C   0  0  0  0  0  0  0  0  0  0  0  0
   62.9850   31.6500   47.5000 C   0  0  0  0  0  0  0  0  0  0  0  0
   63.7350   32.6670   46.9020 C   0  0  0  0  0  0  0  0  0  0  0  0
   63.7520   33.9470   47.4590 C   0  0  0  0  0  0  0  0  0  0  0  0
   63.0280   34.2100   48.6250 C   0  0  0  0  0  0  0  0  0  0  0  0
   62.2770   33.1960   49.2290 C   0  0  0  0  0  0  0  0  0  0  0  0
   59.0580   31.1830   49.0490 C   0  0  0  0  0  0  0  0  0  0  0  0
   58.2480   30.6280   49.7810 O   0  0  0  0  0  0  0  0  0  0  0  0
   58.8810   32.6590   48.7730 C   0  0  0  0  0  0  0  0  0  0  0  0
   58.0630   32.9140   47.4910 C   0  0  0  0  0  0  0  0  0  0  0  0
   59.0600   32.7650   46.0140 S   0  0  0  0  0  0  0  0  0  0  0  0
   59.4710   34.1360   45.5560 O   0  0  0  0  0  0  0  0  0  0  0  0
   60.3000   31.9720   46.3170 O   0  0  0  0  0  0  0  0  0  0  0  0
   58.1410   31.9780   44.7350 C   0  0  0  0  0  0  0  0  0  0  0  0
   57.3890   30.8250   45.0060 C   0  0  0  0  0  0  0  0  0  0  0  0
   56.6490   30.2130   43.9890 C   0  0  0  0  0  0  0  0  0  0  0  0
   56.6590   30.7480   42.6970 C   0  0  0  0  0  0  0  0  0  0  0  0
   57.4060   31.8980   42.4220 C   0  0  0  0  0  0  0  0  0  0  0  0
   58.1420   32.5140   43.4380 C   0  0  0  0  0  0  0  0  0  0  0  0
   58.0630   27.9680   47.1120 C   0  0  0  0  0  0  0  0  0  0  0  0
   55.6190   26.9130   46.7410 H   0  0  0  0  0  0  0  0  0  0  0  0
   55.7770   26.6360   44.9740 H   0  0  0  0  0  0  0  0  0  0  0  0
   57.8515   27.2394   43.7762 H   0  0  0  0  0  0  0  0  0  0  0  0
   60.1795   28.1366   43.8442 H   0  0  0  0  0  0  0  0  0  0  0  0
   61.1523   28.9291   45.9984 H   0  0  0  0  0  0  0  0  0  0  0  0
   59.2708   28.7123   49.2724 H   0  0  0  0  0  0  0  0  0  0  0  0
   60.9461   28.5050   48.5390 H   0  0  0  0  0  0  0  0  0  0  0  0
   60.3630   30.7630   47.5550 H   0  0  0  0  0  0  0  0  0  0  0  0
   61.1152   31.1451   50.3151 H   0  0  0  0  0  0  0  0  0  0  0  0
   62.0593   29.9128   49.3635 H   0  0  0  0  0  0  0  0  0  0  0  0
   62.9847   30.6409   47.0622 H   0  0  0  0  0  0  0  0  0  0  0  0
   64.3134   32.4581   45.9900 H   0  0  0  0  0  0  0  0  0  0  0  0
   64.3348   34.7479   46.9805 H   0  0  0  0  0  0  0  0  0  0  0  0
   63.0487   35.2163   49.0687 H   0  0  0  0  0  0  0  0  0  0  0  0
   61.7199   33.4044   50.1543 H   0  0  0  0  0  0  0  0  0  0  0  0
   58.3587   33.1192   49.6247 H   0  0  0  0  0  0  0  0  0  0  0  0
   59.8789   33.0999   48.6321 H   0  0  0  0  0  0  0  0  0  0  0  0
   57.2442   32.1811   47.4414 H   0  0  0  0  0  0  0  0  0  0  0  0
   57.6765   33.9429   47.5356 H   0  0  0  0  0  0  0  0  0  0  0  0
   57.3813   30.4011   46.0210 H   0  0  0  0  0  0  0  0  0  0  0  0
   56.0588   29.3103   44.2056 H   0  0  0  0  0  0  0  0  0  0  0  0
   56.0793   30.2643   41.8970 H   0  0  0  0  0  0  0  0  0  0  0  0
   57.4142   32.3180   41.4054 H   0  0  0  0  0  0  0  0  0  0  0  0
   58.7239   33.4218   43.2203 H   0  0  0  0  0  0  0  0  0  0  0  0
   57.4703   27.9030   48.0364 H   0  0  0  0  0  0  0  0  0  0  0  0
  1  2  1  0
  2  3  2  0
  3  4  1  0
  4  5  2  0
  5  6  1  0
  6  7  1  0
  7  8  1  0
  8  9  1  0
  9 10  1  0
 10 11  2  0
 11 12  1  0
 12 13  2  0
 13 14  1  0
 14 15  2  0
  8 16  1  0
 16 17  2  0
 16 18  1  0
 18 19  1  0
 19 20  1  0
 20 21  2  0
 20 22  2  0
 20 23  1  0
 23 24  2  0
 24 25  1  0
 25 26  2  0
 26 27  1  0
 27 28  2  0
  6 29  2  0
 29  2  1  0
 15 10  1  0
 28 23  1  0
  1 30  1  0
  1 31  1  0
  3 32  1  0
  4 33  1  0
  5 34  1  0
  7 35  1  0
  7 36  1  0
  8 37  1  6
  9 38  1  0
  9 39  1  0
 11 40  1  0
 12 41  1  0
 13 42  1  0
 14 43  1  0
 15 44  1  0
 18 45  1  0
 18 46  1  0
 19 47  1  0
 19 48  1  0
 24 49  1  0
 25 50  1  0
 26 51  1  0
 27 52  1  0
 28 53  1  0
 29 54  1  0
M  CHG  1   8   1
M  END
>  <UniqueID>  (70) 
62

>  <SMILES>  (70) 
Nc1cccc(C[N@H+](Cc2ccccc2)C(=O)CCS(=O)(=O)c2ccccc2)c1

>  <Energy>  (70) 
55.26040524542792

>  <Genealogy>  (70) 
Nc1cccc(C[NH+](Cc2ccccc2)C(=O)CCS(=O)(=O)c2ccccc2)c1 (protonated)
Nc1cccc(C[N@H+](Cc2ccccc2)C(=O)CCS(=O)(=O)c2ccccc2)c1 (chirality)
Nc1cccc(C[N@H+](Cc2ccccc2)C(=O)CCS(=O)(=O)c2ccccc2)c1 (3D coordinates assigned)
Nc1cccc(C[N@H+](Cc2ccccc2)C(=O)CCS(=O)(=O)c2ccccc2)c1 (optimized conformer: 55.26040524542792 kcal/mol)

>  <smiles>  (70) 
Nc1cccc(CN(Cc2ccccc2)C(=O)CCS(=O)(=O)c2ccccc2)c1

>  <score_type>  (70) 
oracle

>  <origin>  (70) 
adg

>  <m_score__min__energy>  (70) 
-8.0700000000000003

>  <m_primary>  (70) 
energy

$$$$
70:0
     RDKit          3D

 36 38  0  0  0  0  0  0  0  0999 V2000
   59.7857   26.4415   47.6434 H   0  0  0  0  0  0  0  0  0  0  0  0
   59.0810   26.9540   46.9720 C   0  0  0  0  0  0  0  0  0  0  0  0
   59.5010   28.0630   46.2370 C   0  0  0  0  0  0  0  0  0  0  0  0
   60.5348   28.4262   46.3334 H   0  0  0  0  0  0  0  0  0  0  0  0
   58.6120   28.7120   45.3800 C   0  0  0  0  0  0  0  0  0  0  0  0
   58.9471   29.5899   44.8082 H   0  0  0  0  0  0  0  0  0  0  0  0
   57.2910   28.2520   45.2420 C   0  0  0  0  0  0  0  0  0  0  0  0
   56.3390   28.9890   44.3360 C   0  0  0  0  0  0  0  0  0  0  0  0
   56.3176   28.4973   43.3522 H   0  0  0  0  0  0  0  0  0  0  0  0
   55.3330   28.9759   44.7808 H   0  0  0  0  0  0  0  0  0  0  0  0
   56.7850   30.4050   44.1720 C   0  0  0  0  0  0  0  0  0  0  0  0
   57.1160   30.9670   42.9890 N   0  0  0  0  0  0  0  0  0  0  0  0
   57.4750   32.2070   43.2760 N   0  0  0  0  0  0  0  0  0  0  0  0
   57.7890   32.9180   42.5800 H   0  0  0  0  0  0  0  0  0  0  0  0
   57.3610   32.3530   44.6050 C   0  0  0  0  0  0  0  0  0  0  0  0
   57.6260   33.4610   45.2330 N   0  0  0  0  0  0  0  0  0  0  0  0
   58.6760   33.6510   46.1960 C   0  0  0  0  0  0  0  0  0  0  0  0
   58.4770   33.4330   47.5750 C   0  0  0  0  0  0  0  0  0  0  0  0
   57.4885   33.1219   47.9438 H   0  0  0  0  0  0  0  0  0  0  0  0
   59.5320   33.6110   48.4750 C   0  0  0  0  0  0  0  0  0  0  0  0
   59.3677   33.4540   49.5513 H   0  0  0  0  0  0  0  0  0  0  0  0
   60.7950   33.9880   48.0100 C   0  0  0  0  0  0  0  0  0  0  0  0
   62.1180   34.2080   49.1420 Cl  0  0  0  0  0  0  0  0  0  0  0  0
   61.0070   34.1740   46.6410 C   0  0  0  0  0  0  0  0  0  0  0  0
   62.0037   34.4591   46.2732 H   0  0  0  0  0  0  0  0  0  0  0  0
   59.9530   33.9980   45.7380 C   0  0  0  0  0  0  0  0  0  0  0  0
   60.1287   34.1332   44.6606 H   0  0  0  0  0  0  0  0  0  0  0  0
   56.9320   31.2510   45.1680 O   0  0  0  0  0  0  0  0  0  0  0  0
   56.8570   27.1400   45.9960 C   0  0  0  0  0  0  0  0  0  0  0  0
   55.5250   26.7110   45.8730 O   0  0  0  0  0  0  0  0  0  0  0  0
   55.1270   25.3640   45.6440 C   0  0  0  0  0  0  0  0  0  0  0  0
   54.9772   24.8569   46.6086 H   0  0  0  0  0  0  0  0  0  0  0  0
   54.1868   25.3515   45.0732 H   0  0  0  0  0  0  0  0  0  0  0  0
   55.9094   24.8425   45.0732 H   0  0  0  0  0  0  0  0  0  0  0  0
   57.7670   26.4930   46.8570 C   0  0  0  0  0  0  0  0  0  0  0  0
   57.4406   25.6202   47.4416 H   0  0  0  0  0  0  0  0  0  0  0  0
  1  2  1  0
  2  3  2  0
  3  4  1  0
  3  5  1  0
  5  6  1  0
  5  7  2  0
  7  8  1  0
  8  9  1  0
  8 10  1  0
  8 11  1  0
 11 12  2  0
 12 13  1  0
 13 14  1  0
 13 15  1  0
 15 16  2  0
 16 17  1  0
 17 18  2  0
 18 19  1  0
 18 20  1  0
 20 21  1  0
 20 22  2  0
 22 23  1  0
 22 24  1  0
 24 25  1  0
 24 26  2  0
 26 27  1  0
 15 28  1  0
  7 29  1  0
 29 30  1  0
 30 31  1  0
 31 32  1  0
 31 33  1  0
 31 34  1  0
 29 35  2  0
 35 36  1  0
 35  2  1  0
 28 11  1  0
 26 17  1  0
M  END
>  <UniqueID>  (71) 
63

>  <SMILES>  (71) 
COc1ccccc1Cc1n[nH]/c(=N/c2ccc(Cl)cc2)o1

>  <Energy>  (71) 
75.86646400058589

>  <Genealogy>  (71) 
COc1ccccc1Cc1n[nH]/c(=N/c2ccc(Cl)cc2)o1 (cis-trans isomerization)
COc1ccccc1Cc1n[nH]/c(=N/c2ccc(Cl)cc2)o1 (3D coordinates assigned)
COc1ccccc1Cc1n[nH]/c(=N/c2ccc(Cl)cc2)o1 (optimized conformer: 75.86646400058589 kcal/mol)

>  <smiles>  (71) 
COc1ccccc1Cc1n[nH]c(=Nc2ccc(Cl)cc2)o1

>  <score_type>  (71) 
oracle

>  <origin>  (71) 
adg

>  <m_score__min__energy>  (71) 
-7.9100000000000001

>  <m_primary>  (71) 
energy

$$$$
71:0
     RDKit          3D

 46 48  0  0  0  0  0  0  0  0999 V2000
   63.5520   30.3310   51.4910 C   0  0  0  0  0  0  0  0  0  0  0  0
   64.7210   30.9890   50.9280 N   0  0  0  0  0  0  0  0  0  0  0  0
   64.7210   32.0500   49.9620 C   0  0  0  0  0  0  0  0  0  0  0  0
   65.6150   32.9310   50.0490 O   0  0  0  0  0  0  0  0  0  0  0  0
   63.7020   32.1890   48.8980 C   0  0  0  0  0  0  0  0  0  0  0  0
   63.4620   33.2890   48.0870 C   0  0  0  0  0  0  0  0  0  0  0  0
   62.3680   32.9180   47.3230 C   0  0  0  0  0  0  0  0  0  0  0  0
   61.7560   33.6770   46.3200 O   0  0  0  0  0  0  0  0  0  0  0  0
   60.7640   34.6620   46.5860 C   0  0  0  0  0  0  0  0  0  0  0  0
   59.4330   34.1520   46.1170 C   0  0  0  0  0  0  0  0  0  0  0  0
   59.2500   33.7760   44.7760 C   0  0  0  0  0  0  0  0  0  0  0  0
   58.0220   33.2570   44.3530 C   0  0  0  0  0  0  0  0  0  0  0  0
   56.9760   33.0980   45.2650 C   0  0  0  0  0  0  0  0  0  0  0  0
   57.1570   33.4540   46.6050 C   0  0  0  0  0  0  0  0  0  0  0  0
   58.3840   33.9740   47.0330 C   0  0  0  0  0  0  0  0  0  0  0  0
   61.9730   31.6780   47.6760 N   0  0  0  0  0  0  0  0  0  0  0  0
   60.8690   30.9280   47.1370 C   0  0  0  0  0  0  0  0  0  0  0  0
   61.0750   30.0380   46.0700 C   0  0  0  0  0  0  0  0  0  0  0  0
   60.0080   29.3040   45.5440 C   0  0  0  0  0  0  0  0  0  0  0  0
   58.7220   29.4440   46.0820 C   0  0  0  0  0  0  0  0  0  0  0  0
   57.3700   28.5370   45.4130 S   0  0  0  0  0  0  0  0  0  0  0  0
   57.8380   27.8550   43.8400 C   0  0  0  0  0  0  0  0  0  0  0  0
   56.9840   27.4220   46.3440 O   0  0  0  0  0  0  0  0  0  0  0  0
   56.1890   29.4490   45.2370 O   0  0  0  0  0  0  0  0  0  0  0  0
   58.5120   30.3280   47.1480 C   0  0  0  0  0  0  0  0  0  0  0  0
   59.5770   31.0610   47.6760 C   0  0  0  0  0  0  0  0  0  0  0  0
   62.7810   31.2390   48.6290 N   0  0  0  0  0  0  0  0  0  0  0  0
   63.6071   30.3620   52.5892 H   0  0  0  0  0  0  0  0  0  0  0  0
   62.6419   30.8494   51.1548 H   0  0  0  0  0  0  0  0  0  0  0  0
   63.5230   29.2841   51.1548 H   0  0  0  0  0  0  0  0  0  0  0  0
   64.0149   34.2395   48.0576 H   0  0  0  0  0  0  0  0  0  0  0  0
   60.7227   34.8616   47.6669 H   0  0  0  0  0  0  0  0  0  0  0  0
   61.0132   35.5936   46.0568 H   0  0  0  0  0  0  0  0  0  0  0  0
   60.0745   33.8900   44.0568 H   0  0  0  0  0  0  0  0  0  0  0  0
   57.8796   32.9734   43.2998 H   0  0  0  0  0  0  0  0  0  0  0  0
   56.0101   32.6928   44.9291 H   0  0  0  0  0  0  0  0  0  0  0  0
   56.3342   33.3253   47.3236 H   0  0  0  0  0  0  0  0  0  0  0  0
   58.5268   34.2439   48.0898 H   0  0  0  0  0  0  0  0  0  0  0  0
   62.0827   29.9178   45.6455 H   0  0  0  0  0  0  0  0  0  0  0  0
   60.1787   28.6139   44.7046 H   0  0  0  0  0  0  0  0  0  0  0  0
   58.4539   26.9574   43.9981 H   0  0  0  0  0  0  0  0  0  0  0  0
   56.9343   27.5845   43.2741 H   0  0  0  0  0  0  0  0  0  0  0  0
   58.4154   28.6009   43.2741 H   0  0  0  0  0  0  0  0  0  0  0  0
   57.5035   30.4454   47.5713 H   0  0  0  0  0  0  0  0  0  0  0  0
   59.4042   31.7466   48.5187 H   0  0  0  0  0  0  0  0  0  0  0  0
   62.6950   30.3130   49.1080 H   0  0  0  0  0  0  0  0  0  0  0  0
  1  2  1  0
  2  3  1  0
  3  4  2  0
  3  5  1  0
  5  6  1  0
  6  7  2  0
  7  8  1  0
  8  9  1  0
  9 10  1  0
 10 11  2  0
 11 12  1  0
 12 13  2  0
 13 14  1  0
 14 15  2  0
  7 16  1  0
 16 17  1  0
 17 18  2  0
 18 19  1  0
 19 20  2  0
 20 21  1  0
 21 22  1  0
 21 23  2  0
 21 24  2  0
 20 25  1  0
 25 26  2  0
 16 27  1  0
 27  5  2  0
 15 10  1  0
 26 17  1  0
  1 28  1  0
  1 29  1  0
  1 30  1  0
  6 31  1  0
  9 32  1  0
  9 33  1  0
 11 34  1  0
 12 35  1  0
 13 36  1  0
 14 37  1  0
 15 38  1  0
 18 39  1  0
 19 40  1  0
 22 41  1  0
 22 42  1  0
 22 43  1  0
 25 44  1  0
 26 45  1  0
 27 46  1  0
M  CHG  2   2  -1  27   1
M  END
>  <UniqueID>  (72) 
64

>  <SMILES>  (72) 
C[N-]C(=O)c1cc(OCc2ccccc2)n(-c2ccc(S(C)(=O)=O)cc2)[nH+]1

>  <Energy>  (72) 
79.96226105157916

>  <Genealogy>  (72) 
C[N-]C(=O)c1cc(OCc2ccccc2)n(-c2ccc(S(C)(=O)=O)cc2)[nH+]1 (protonated)
C[N-]C(=O)c1cc(OCc2ccccc2)n(-c2ccc(S(C)(=O)=O)cc2)[nH+]1 (3D coordinates assigned)
C[N-]C(=O)c1cc(OCc2ccccc2)n(-c2ccc(S(C)(=O)=O)cc2)[nH+]1 (optimized conformer: 79.96226105157916 kcal/mol)

>  <smiles>  (72) 
CNC(=O)c1cc(OCc2ccccc2)n(-c2ccc(S(C)(=O)=O)cc2)n1

>  <score_type>  (72) 
oracle

>  <origin>  (72) 
adg

>  <m_score__min__energy>  (72) 
-8.2200000000000006

>  <m_primary>  (72) 
energy

$$$$
72:0
     RDKit          3D

 37 38  0  0  0  0  0  0  0  0999 V2000
   56.2960   35.0303   45.5812 H   0  0  0  0  0  0  0  0  0  0  0  0
   57.0220   34.2790   45.2370 C   0  0  0  0  0  0  0  0  0  0  0  0
   56.8266   33.7055   44.3189 H   0  0  0  0  0  0  0  0  0  0  0  0
   58.1410   34.0630   45.9340 C   0  0  0  0  0  0  0  0  0  0  0  0
   58.3210   34.6451   46.8499 H   0  0  0  0  0  0  0  0  0  0  0  0
   59.1610   33.0470   45.5020 C   0  0  0  0  0  0  0  0  0  0  0  0
   59.3754   33.1841   44.4318 H   0  0  0  0  0  0  0  0  0  0  0  0
   60.0747   33.1902   46.0976 H   0  0  0  0  0  0  0  0  0  0  0  0
   58.6640   31.6790   45.7230 N   0  0  0  0  0  0  0  0  0  0  0  0
   58.9130   30.9010   46.8020 C   0  0  0  0  0  0  0  0  0  0  0  0
   59.7870   31.2840   47.9590 C   0  0  0  0  0  0  0  0  0  0  0  0
   59.2679   31.0565   48.9017 H   0  0  0  0  0  0  0  0  0  0  0  0
   60.7276   30.7156   47.9119 H   0  0  0  0  0  0  0  0  0  0  0  0
   60.0066   32.3608   47.9119 H   0  0  0  0  0  0  0  0  0  0  0  0
   58.2720   29.6840   46.6830 C   0  0  0  0  0  0  0  0  0  0  0  0
   58.2937   28.8564   47.4073 H   0  0  0  0  0  0  0  0  0  0  0  0
   57.5950   29.7080   45.4720 C   0  0  0  0  0  0  0  0  0  0  0  0
   56.8070   28.7320   44.9810 C   0  0  0  0  0  0  0  0  0  0  0  0
   55.9493   29.0234   44.3570 H   0  0  0  0  0  0  0  0  0  0  0  0
   57.0270   27.2980   45.2310 C   0  0  0  0  0  0  0  0  0  0  0  0
   58.5150   26.5280   45.0860 S   0  0  0  0  0  0  0  0  0  0  0  0
   57.9250   25.0450   45.6110 C   0  0  0  0  0  0  0  0  0  0  0  0
   58.8470   23.6940   45.7080 S   0  0  0  0  0  0  0  0  0  0  0  0
   56.6070   25.1190   45.9360 N   0  0  0  0  0  0  0  0  0  0  0  0
   55.7860   23.9920   46.3990 C   0  0  0  0  0  0  0  0  0  0  0  0
   56.4295   23.1128   46.5505 H   0  0  0  0  0  0  0  0  0  0  0  0
   55.2982   24.2704   47.3448 H   0  0  0  0  0  0  0  0  0  0  0  0
   54.7130   23.6580   45.3680 C   0  0  0  0  0  0  0  0  0  0  0  0
   53.7856   23.3693   45.8843 H   0  0  0  0  0  0  0  0  0  0  0  0
   54.5228   24.5394   44.7380 H   0  0  0  0  0  0  0  0  0  0  0  0
   55.0567   22.8243   44.7380 H   0  0  0  0  0  0  0  0  0  0  0  0
   56.1090   26.3730   45.7310 C   0  0  0  0  0  0  0  0  0  0  0  0
   54.7920   26.7080   46.0350 O   0  0  0  0  0  0  0  0  0  0  0  0
   57.8530   30.9590   44.9020 C   0  0  0  0  0  0  0  0  0  0  0  0
   57.3960   31.4010   43.7200 C   0  0  0  0  0  0  0  0  0  0  0  0
   57.6639   32.4083   43.3686 H   0  0  0  0  0  0  0  0  0  0  0  0
   56.7536   30.7559   43.1026 H   0  0  0  0  0  0  0  0  0  0  0  0
  1  2  1  0
  2  3  1  0
  2  4  2  0
  4  5  1  0
  4  6  1  0
  6  7  1  0
  6  8  1  0
  6  9  1  0
  9 10  1  0
 10 11  1  0
 11 12  1  0
 11 13  1  0
 11 14  1  0
 10 15  2  0
 15 16  1  0
 15 17  1  0
 17 18  2  0
 18 19  1  0
 18 20  1  0
 20 21  1  0
 21 22  1  0
 22 23  2  0
 22 24  1  0
 24 25  1  0
 25 26  1  0
 25 27  1  0
 25 28  1  0
 28 29  1  0
 28 30  1  0
 28 31  1  0
 24 32  1  0
 32 33  1  0
 17 34  1  0
 34 35  2  0
 35 36  1  0
 35 37  1  0
 34  9  1  0
 32 20  2  0
M  CHG  1  33  -1
M  END
>  <UniqueID>  (73) 
65

>  <SMILES>  (73) 
C=CCn1c(C)c/c(=C\c2sc(=S)n(CC)c2[O-])c1=C

>  <Energy>  (73) 
97.57961421923817

>  <Genealogy>  (73) 
C=CCn1c(C)cc(=Cc2sc(=S)n(CC)c2[O-])c1=C (protonated)
C=CCn1c(C)c/c(=C\c2sc(=S)n(CC)c2[O-])c1=C (cis-trans isomerization)
C=CCn1c(C)c/c(=C\c2sc(=S)n(CC)c2[O-])c1=C (3D coordinates assigned)
C=CCn1c(C)c/c(=C\c2sc(=S)n(CC)c2[O-])c1=C (optimized conformer: 97.57961421923817 kcal/mol)

>  <smiles>  (73) 
C=CCn1c(C)cc(=Cc2sc(=S)n(CC)c2O)c1=C

>  <score_type>  (73) 
oracle

>  <origin>  (73) 
adg

>  <m_score__min__energy>  (73) 
-11.07

>  <m_primary>  (73) 
energy

$$$$
73:0
     RDKit          3D

 40 41  0  0  0  0  0  0  0  0999 V2000
   61.4050   30.9040   47.4430 C   0  0  0  0  0  0  0  0  0  0  0  0
   60.3250   30.6200   48.1750 C   0  0  0  0  0  0  0  0  0  0  0  0
   58.9500   31.0900   47.7800 C   0  0  0  0  0  0  0  0  0  0  0  0
   59.0190   32.3500   47.0070 N   0  0  0  0  0  0  0  0  0  0  0  0
   59.1860   33.5570   47.6580 C   0  0  0  0  0  0  0  0  0  0  0  0
   59.2950   33.6470   49.0890 N   0  0  0  0  0  0  0  0  0  0  0  0
   59.2520   34.7450   46.9230 C   0  0  0  0  0  0  0  0  0  0  0  0
   59.1780   34.6890   45.5400 C   0  0  0  0  0  0  0  0  0  0  0  0
   59.2390   35.7440   44.8560 O   0  0  0  0  0  0  0  0  0  0  0  0
   59.0410   33.4950   44.9250 N   0  0  0  0  0  0  0  0  0  0  0  0
   58.9540   32.3350   45.6270 C   0  0  0  0  0  0  0  0  0  0  0  0
   58.7640   30.8170   44.6700 S   0  0  0  0  0  0  0  0  0  0  0  0
   56.9440   30.7720   44.8110 C   0  0  0  0  0  0  0  0  0  0  0  0
   56.4300   29.3650   44.6790 C   0  0  0  0  0  0  0  0  0  0  0  0
   55.1860   29.1740   44.6710 O   0  0  0  0  0  0  0  0  0  0  0  0
   57.3000   28.2470   44.4500 N   0  0  0  0  0  0  0  0  0  0  0  0
   58.1270   27.5820   45.4180 C   0  0  0  0  0  0  0  0  0  0  0  0
   59.3350   28.1690   45.8350 C   0  0  0  0  0  0  0  0  0  0  0  0
   60.1570   27.5250   46.7580 C   0  0  0  0  0  0  0  0  0  0  0  0
   59.7730   26.3000   47.2970 C   0  0  0  0  0  0  0  0  0  0  0  0
   58.5530   25.7270   46.9350 C   0  0  0  0  0  0  0  0  0  0  0  0
   57.7010   26.3650   46.0120 C   0  0  0  0  0  0  0  0  0  0  0  0
   56.3840   25.7470   45.6960 C   0  0  0  0  0  0  0  0  0  0  0  0
   55.1730   26.4360   46.0000 N   0  0  0  0  0  0  0  0  0  0  0  0
   56.3170   24.6150   45.1470 O   0  0  0  0  0  0  0  0  0  0  0  0
   62.3949   30.5447   47.7608 H   0  0  0  0  0  0  0  0  0  0  0  0
   61.3048   31.4973   46.5221 H   0  0  0  0  0  0  0  0  0  0  0  0
   60.4431   30.0256   49.0930 H   0  0  0  0  0  0  0  0  0  0  0  0
   58.4692   30.3162   47.1635 H   0  0  0  0  0  0  0  0  0  0  0  0
   58.3672   31.2730   48.6948 H   0  0  0  0  0  0  0  0  0  0  0  0
   59.4840   34.5670   49.5440 H   0  0  0  0  0  0  0  0  0  0  0  0
   59.2120   32.8270   49.7250 H   0  0  0  0  0  0  0  0  0  0  0  0
   59.3613   35.7119   47.4361 H   0  0  0  0  0  0  0  0  0  0  0  0
   56.6488   31.1727   45.7920 H   0  0  0  0  0  0  0  0  0  0  0  0
   56.5137   31.3806   44.0020 H   0  0  0  0  0  0  0  0  0  0  0  0
   59.6341   29.1464   45.4285 H   0  0  0  0  0  0  0  0  0  0  0  0
   61.1094   27.9846   47.0607 H   0  0  0  0  0  0  0  0  0  0  0  0
   60.4325   25.7828   48.0095 H   0  0  0  0  0  0  0  0  0  0  0  0
   58.2528   24.7650   47.3760 H   0  0  0  0  0  0  0  0  0  0  0  0
   55.1340   27.4790   46.0000 H   0  0  0  0  0  0  0  0  0  0  0  0
  1  2  2  0
  2  3  1  0
  3  4  1  0
  4  5  1  0
  5  6  1  0
  5  7  2  0
  7  8  1  0
  8  9  2  0
  8 10  1  0
 10 11  2  0
 11 12  1  0
 12 13  1  0
 13 14  1  0
 14 15  2  0
 14 16  1  0
 16 17  1  0
 17 18  2  0
 18 19  1  0
 19 20  2  0
 20 21  1  0
 21 22  2  0
 22 23  1  0
 23 24  1  0
 23 25  2  0
 11  4  1  0
 22 17  1  0
  1 26  1  0
  1 27  1  0
  2 28  1  0
  3 29  1  0
  3 30  1  0
  6 31  1  0
  6 32  1  0
  7 33  1  0
 13 34  1  0
 13 35  1  0
 18 36  1  0
 19 37  1  0
 20 38  1  0
 21 39  1  0
 24 40  1  0
M  CHG  2  16  -1  24  -1
M  END
>  <UniqueID>  (74) 
66

>  <SMILES>  (74) 
C=CCn1c(N)cc(=O)nc1SCC(=O)[N-]c1ccccc1C([NH-])=O

>  <Energy>  (74) 
43.52462182227174

>  <Genealogy>  (74) 
C=CCn1c(N)cc(=O)nc1SCC(=O)[N-]c1ccccc1C([NH-])=O (protonated)
C=CCn1c(N)cc(=O)nc1SCC(=O)[N-]c1ccccc1C([NH-])=O (3D coordinates assigned)
C=CCn1c(N)cc(=O)nc1SCC(=O)[N-]c1ccccc1C([NH-])=O (optimized conformer: 43.52462182227174 kcal/mol)

>  <smiles>  (74) 
C=CCn1c(N)cc(=O)nc1SCC(=O)Nc1ccccc1C(N)=O

>  <score_type>  (74) 
oracle

>  <origin>  (74) 
adg

>  <m_score__min__energy>  (74) 
-11.85

>  <m_primary>  (74) 
energy

$$$$
74:0
     RDKit          3D

 30 32  0  0  0  0  0  0  0  0999 V2000
   54.7790   26.6910   46.2700 O   0  0  0  0  0  0  0  0  0  0  0  0
   55.9750   25.9870   46.3390 C   0  0  0  0  0  0  0  0  0  0  0  0
   56.0410   24.6820   46.4620 O   0  0  0  0  0  0  0  0  0  0  0  0
   57.3110   24.3520   46.5130 C   0  0  0  0  0  0  0  0  0  0  0  0
   57.7690   23.0440   46.6280 O   0  0  0  0  0  0  0  0  0  0  0  0
   58.1110   25.4720   46.4290 C   0  0  0  0  0  0  0  0  0  0  0  0
   59.8670   25.4820   46.3640 Cl  0  0  0  0  0  0  0  0  0  0  0  0
   57.2440   26.5460   46.3110 C   0  0  0  0  0  0  0  0  0  0  0  0
   57.5860   27.9790   46.1690 C   0  0  0  0  0  0  0  0  0  0  0  0
   58.4160   28.6100   47.1090 C   0  0  0  0  0  0  0  0  0  0  0  0
   58.7340   29.9650   46.9760 C   0  0  0  0  0  0  0  0  0  0  0  0
   58.2290   30.7150   45.9000 C   0  0  0  0  0  0  0  0  0  0  0  0
   58.5690   32.1540   45.7580 C   0  0  0  0  0  0  0  0  0  0  0  0
   59.7240   32.6810   46.3660 C   0  0  0  0  0  0  0  0  0  0  0  0
   60.0400   34.0360   46.2310 C   0  0  0  0  0  0  0  0  0  0  0  0
   59.2110   34.8790   45.4870 C   0  0  0  0  0  0  0  0  0  0  0  0
   58.0620   34.3680   44.8790 C   0  0  0  0  0  0  0  0  0  0  0  0
   57.7410   33.0140   45.0120 C   0  0  0  0  0  0  0  0  0  0  0  0
   57.3950   30.0820   44.9630 C   0  0  0  0  0  0  0  0  0  0  0  0
   57.0740   28.7280   45.0990 C   0  0  0  0  0  0  0  0  0  0  0  0
   57.7770   22.5800   47.5290 H   0  0  0  0  0  0  0  0  0  0  0  0
   58.8188   28.0347   47.9556 H   0  0  0  0  0  0  0  0  0  0  0  0
   59.3848   30.4481   47.7197 H   0  0  0  0  0  0  0  0  0  0  0  0
   60.3823   32.0222   46.9513 H   0  0  0  0  0  0  0  0  0  0  0  0
   60.9435   34.4393   46.7117 H   0  0  0  0  0  0  0  0  0  0  0  0
   59.4629   35.9444   45.3800 H   0  0  0  0  0  0  0  0  0  0  0  0
   57.4085   35.0323   44.2944 H   0  0  0  0  0  0  0  0  0  0  0  0
   56.8350   32.6177   44.5303 H   0  0  0  0  0  0  0  0  0  0  0  0
   56.9915   30.6561   44.1159 H   0  0  0  0  0  0  0  0  0  0  0  0
   56.4151   28.2464   44.3615 H   0  0  0  0  0  0  0  0  0  0  0  0
  1  2  1  0
  2  3  1  0
  3  4  1  0
  4  5  1  0
  4  6  2  0
  6  7  1  0
  6  8  1  0
  8  9  1  0
  9 10  2  0
 10 11  1  0
 11 12  2  0
 12 13  1  0
 13 14  2  0
 14 15  1  0
 15 16  2  0
 16 17  1  0
 17 18  2  0
 12 19  1  0
 19 20  2  0
  8  2  2  0
 20  9  1  0
 18 13  1  0
  5 21  1  0
 10 22  1  0
 11 23  1  0
 14 24  1  0
 15 25  1  0
 16 26  1  0
 17 27  1  0
 18 28  1  0
 19 29  1  0
 20 30  1  0
M  CHG  1   1  -1
M  END
>  <UniqueID>  (75) 
67

>  <SMILES>  (75) 
[O-]c1oc(O)c(Cl)c1-c1ccc(-c2ccccc2)cc1

>  <Energy>  (75) 
71.56476596438922

>  <Genealogy>  (75) 
[O-]c1oc(O)c(Cl)c1-c1ccc(-c2ccccc2)cc1 (protonated)
[O-]c1oc(O)c(Cl)c1-c1ccc(-c2ccccc2)cc1 (3D coordinates assigned)
[O-]c1oc(O)c(Cl)c1-c1ccc(-c2ccccc2)cc1 (optimized conformer: 71.56476596438922 kcal/mol)

>  <smiles>  (75) 
Oc1oc(O)c(-c2ccc(-c3ccccc3)cc2)c1Cl

>  <score_type>  (75) 
oracle

>  <origin>  (75) 
adg

>  <m_score__min__energy>  (75) 
-10.380000000000001

>  <m_primary>  (75) 
energy

$$$$
75:0
     RDKit          3D

 41 43  0  0  0  0  0  0  0  0999 V2000
   51.6410   23.0500   45.9570 C   0  0  0  0  0  0  0  0  0  0  0  0
   52.5130   23.9850   45.3330 O   0  0  0  0  0  0  0  0  0  0  0  0
   53.1310   23.7370   44.1020 C   0  0  0  0  0  0  0  0  0  0  0  0
   52.4610   23.8010   43.0340 O   0  0  0  0  0  0  0  0  0  0  0  0
   54.5710   23.3980   44.0560 C   0  0  0  0  0  0  0  0  0  0  0  0
   55.2420   23.2840   42.8250 C   0  0  0  0  0  0  0  0  0  0  0  0
   56.5980   22.9520   42.7890 C   0  0  0  0  0  0  0  0  0  0  0  0
   57.3030   22.7400   43.9760 C   0  0  0  0  0  0  0  0  0  0  0  0
   56.6560   22.8730   45.2150 C   0  0  0  0  0  0  0  0  0  0  0  0
   57.3350   22.6380   46.4570 N   0  0  0  0  0  0  0  0  0  0  0  0
   56.9960   23.1990   47.7320 C   0  0  0  0  0  0  0  0  0  0  0  0
   57.3540   22.6370   48.8020 O   0  0  0  0  0  0  0  0  0  0  0  0
   56.2130   24.4710   47.7900 C   0  0  0  0  0  0  0  0  0  0  0  0
   56.9970   25.5770   47.1590 C   0  0  0  0  0  0  0  0  0  0  0  0
   58.3140   25.7860   47.3720 N   0  0  0  0  0  0  0  0  0  0  0  0
   58.5740   26.9190   46.6830 C   0  0  0  0  0  0  0  0  0  0  0  0
   59.7250   27.4250   46.6190 O   0  0  0  0  0  0  0  0  0  0  0  0
   57.4910   27.4400   46.0610 N   0  0  0  0  0  0  0  0  0  0  0  0
   57.4110   28.6360   45.2620 C   0  0  0  0  0  0  0  0  0  0  0  0
   57.0350   28.5670   43.9090 C   0  0  0  0  0  0  0  0  0  0  0  0
   56.9620   29.7300   43.1360 C   0  0  0  0  0  0  0  0  0  0  0  0
   57.2630   30.9700   43.7050 C   0  0  0  0  0  0  0  0  0  0  0  0
   57.6380   31.0490   45.0480 C   0  0  0  0  0  0  0  0  0  0  0  0
   57.7130   29.8890   45.8250 C   0  0  0  0  0  0  0  0  0  0  0  0
   56.4960   26.5900   46.3720 C   0  0  0  0  0  0  0  0  0  0  0  0
   55.1680   26.7440   45.9870 O   0  0  0  0  0  0  0  0  0  0  0  0
   55.2890   23.1820   45.2460 C   0  0  0  0  0  0  0  0  0  0  0  0
   51.7265   23.1417   47.0498 H   0  0  0  0  0  0  0  0  0  0  0  0
   50.6043   23.2553   45.6518 H   0  0  0  0  0  0  0  0  0  0  0  0
   51.9180   22.0301   45.6518 H   0  0  0  0  0  0  0  0  0  0  0  0
   54.6959   23.4572   41.8860 H   0  0  0  0  0  0  0  0  0  0  0  0
   57.1131   22.8570   41.8217 H   0  0  0  0  0  0  0  0  0  0  0  0
   58.3682   22.4680   43.9400 H   0  0  0  0  0  0  0  0  0  0  0  0
   55.2642   24.3409   47.2488 H   0  0  0  0  0  0  0  0  0  0  0  0
   56.0083   24.7242   48.8407 H   0  0  0  0  0  0  0  0  0  0  0  0
   56.7970   27.5932   43.4562 H   0  0  0  0  0  0  0  0  0  0  0  0
   56.6671   29.6685   42.0781 H   0  0  0  0  0  0  0  0  0  0  0  0
   57.2046   31.8838   43.0954 H   0  0  0  0  0  0  0  0  0  0  0  0
   57.8748   32.0256   45.4953 H   0  0  0  0  0  0  0  0  0  0  0  0
   58.0097   29.9567   46.8821 H   0  0  0  0  0  0  0  0  0  0  0  0
   54.7711   23.2565   46.2136 H   0  0  0  0  0  0  0  0  0  0  0  0
  1  2  1  0
  2  3  1  0
  3  4  2  0
  3  5  1  0
  5  6  2  0
  6  7  1  0
  7  8  2  0
  8  9  1  0
  9 10  1  0
 10 11  1  0
 11 12  2  0
 11 13  1  0
 13 14  1  0
 14 15  1  0
 15 16  1  0
 16 17  2  0
 16 18  1  0
 18 19  1  0
 19 20  2  0
 20 21  1  0
 21 22  2  0
 22 23  1  0
 23 24  2  0
 18 25  1  0
 25 26  1  0
  9 27  2  0
 27  5  1  0
 25 14  2  0
 24 19  1  0
  1 28  1  0
  1 29  1  0
  1 30  1  0
  6 31  1  0
  7 32  1  0
  8 33  1  0
 13 34  1  0
 13 35  1  0
 20 36  1  0
 21 37  1  0
 22 38  1  0
 23 39  1  0
 24 40  1  0
 27 41  1  0
M  CHG  3  10  -1  15  -1  26  -1
M  END
>  <UniqueID>  (76) 
68

>  <SMILES>  (76) 
COC(=O)c1cccc([N-]C(=O)Cc2[n-]c(=O)n(-c3ccccc3)c2[O-])c1

>  <Energy>  (76) 
80.45939914056586

>  <Genealogy>  (76) 
COC(=O)c1cccc([N-]C(=O)Cc2[n-]c(=O)n(-c3ccccc3)c2[O-])c1 (protonated)
COC(=O)c1cccc([N-]C(=O)Cc2[n-]c(=O)n(-c3ccccc3)c2[O-])c1 (3D coordinates assigned)
COC(=O)c1cccc([N-]C(=O)Cc2[n-]c(=O)n(-c3ccccc3)c2[O-])c1 (optimized conformer: 80.45939914056586 kcal/mol)

>  <smiles>  (76) 
COC(=O)c1cccc(NC(=O)Cc2[nH]c(=O)n(-c3ccccc3)c2O)c1

>  <score_type>  (76) 
oracle

>  <origin>  (76) 
adg

>  <m_score__min__energy>  (76) 
-13.75

>  <m_primary>  (76) 
energy

$$$$
76:0
     RDKit          3D

 49 52  0  0  0  0  0  0  0  0999 V2000
   60.0375   34.7457   48.0897 H   0  0  0  0  0  0  0  0  0  0  0  0
   59.4260   33.9040   48.4470 C   0  0  0  0  0  0  0  0  0  0  0  0
   59.3490   33.6980   49.7700 C   0  0  0  0  0  0  0  0  0  0  0  0
   59.4232   34.5635   50.4448 H   0  0  0  0  0  0  0  0  0  0  0  0
   59.1680   32.3510   50.3580 C   0  0  0  0  0  0  0  0  0  0  0  0
   57.8990   32.0120   50.8520 C   0  0  0  0  0  0  0  0  0  0  0  0
   57.0806   32.7442   50.7877 H   0  0  0  0  0  0  0  0  0  0  0  0
   57.6560   30.7540   51.4270 C   0  0  0  0  0  0  0  0  0  0  0  0
   56.2930   30.4230   51.9140 C   0  0  0  0  0  0  0  0  0  0  0  0
   55.2650   31.1560   51.4850 O   0  0  0  0  0  0  0  0  0  0  0  0
   54.0100   30.9380   51.8640 C   0  0  0  0  0  0  0  0  0  0  0  0
   52.9850   31.7500   51.3650 C   0  0  0  0  0  0  0  0  0  0  0  0
   53.2218   32.5638   50.6638 H   0  0  0  0  0  0  0  0  0  0  0  0
   51.6600   31.5290   51.7560 C   0  0  0  0  0  0  0  0  0  0  0  0
   50.6470   32.3380   51.2570 O   0  0  0  0  0  0  0  0  0  0  0  0
   51.3540   30.4950   52.6470 C   0  0  0  0  0  0  0  0  0  0  0  0
   50.3108   30.3241   52.9513 H   0  0  0  0  0  0  0  0  0  0  0  0
   52.3700   29.6780   53.1520 C   0  0  0  0  0  0  0  0  0  0  0  0
   52.1252   28.8665   53.8531 H   0  0  0  0  0  0  0  0  0  0  0  0
   53.7060   29.8930   52.7640 C   0  0  0  0  0  0  0  0  0  0  0  0
   54.7620   29.1050   53.2460 C   0  0  0  0  0  0  0  0  0  0  0  0
   54.5540   28.1640   54.0600 O   0  0  0  0  0  0  0  0  0  0  0  0
   56.0650   29.3720   52.8200 C   0  0  0  0  0  0  0  0  0  0  0  0
   56.9051   28.7658   53.1898 H   0  0  0  0  0  0  0  0  0  0  0  0
   58.7090   29.8250   51.4950 C   0  0  0  0  0  0  0  0  0  0  0  0
   58.5282   28.8246   51.9151 H   0  0  0  0  0  0  0  0  0  0  0  0
   59.9830   30.1630   51.0330 C   0  0  0  0  0  0  0  0  0  0  0  0
   60.7995   29.4293   51.1039 H   0  0  0  0  0  0  0  0  0  0  0  0
   60.2340   31.4310   50.4780 C   0  0  0  0  0  0  0  0  0  0  0  0
   61.5220   31.8100   50.0660 O   0  0  0  0  0  0  0  0  0  0  0  0
   62.0910   31.5030   48.7980 C   0  0  0  0  0  0  0  0  0  0  0  0
   63.0507   30.9852   48.9424 H   0  0  0  0  0  0  0  0  0  0  0  0
   61.4046   30.8528   48.2358 H   0  0  0  0  0  0  0  0  0  0  0  0
   62.2575   32.4337   48.2358 H   0  0  0  0  0  0  0  0  0  0  0  0
   58.7360   33.0650   47.4360 C   0  0  0  0  0  0  0  0  0  0  0  0
   57.7910   33.6730   46.5940 C   0  0  0  0  0  0  0  0  0  0  0  0
   57.5763   34.7465   46.7018 H   0  0  0  0  0  0  0  0  0  0  0  0
   57.1210   32.9280   45.6210 C   0  0  0  0  0  0  0  0  0  0  0  0
   56.3785   33.4187   44.9745 H   0  0  0  0  0  0  0  0  0  0  0  0
   57.3850   31.5650   45.4610 C   0  0  0  0  0  0  0  0  0  0  0  0
   56.6840   30.8600   44.4710 O   0  0  0  0  0  0  0  0  0  0  0  0
   57.0220   30.8650   43.0880 C   0  0  0  0  0  0  0  0  0  0  0  0
   58.1164   30.8812   42.9781 H   0  0  0  0  0  0  0  0  0  0  0  0
   56.6187   29.9608   42.6087 H   0  0  0  0  0  0  0  0  0  0  0  0
   56.5921   31.7569   42.6087 H   0  0  0  0  0  0  0  0  0  0  0  0
   58.3420   30.9500   46.2900 C   0  0  0  0  0  0  0  0  0  0  0  0
   58.5628   29.8791   46.1703 H   0  0  0  0  0  0  0  0  0  0  0  0
   59.0140   31.6950   47.2660 C   0  0  0  0  0  0  0  0  0  0  0  0
   59.7647   31.2068   47.9048 H   0  0  0  0  0  0  0  0  0  0  0  0
  1  2  1  0
  2  3  2  0
  3  4  1  0
  3  5  1  0
  5  6  2  0
  6  7  1  0
  6  8  1  0
  8  9  1  0
  9 10  1  0
 10 11  1  0
 11 12  2  0
 12 13  1  0
 12 14  1  0
 14 15  1  0
 14 16  2  0
 16 17  1  0
 16 18  1  0
 18 19  1  0
 18 20  2  0
 20 21  1  0
 21 22  2  0
 21 23  1  0
 23 24  1  0
  8 25  2  0
 25 26  1  0
 25 27  1  0
 27 28  1  0
 27 29  2  0
 29 30  1  0
 30 31  1  0
 31 32  1  0
 31 33  1  0
 31 34  1  0
  2 35  1  0
 35 36  2  0
 36 37  1  0
 36 38  1  0
 38 39  1  0
 38 40  2  0
 40 41  1  0
 41 42  1  0
 42 43  1  0
 42 44  1  0
 42 45  1  0
 40 46  1  0
 46 47  1  0
 46 48  2  0
 48 49  1  0
 29  5  1  0
 48 35  1  0
 23  9  2  0
 20 11  1  0
M  CHG  1  15  -1
M  END
>  <UniqueID>  (77) 
69

>  <SMILES>  (77) 
COc1ccc(/C=C/c2cc(-c3cc(=O)c4ccc([O-])cc4o3)ccc2OC)cc1

>  <Energy>  (77) 
68.59605876816237

>  <Genealogy>  (77) 
COc1ccc(C=Cc2cc(-c3cc(=O)c4ccc([O-])cc4o3)ccc2OC)cc1 (protonated)
COc1ccc(/C=C/c2cc(-c3cc(=O)c4ccc([O-])cc4o3)ccc2OC)cc1 (cis-trans isomerization)
COc1ccc(/C=C/c2cc(-c3cc(=O)c4ccc([O-])cc4o3)ccc2OC)cc1 (3D coordinates assigned)
COc1ccc(/C=C/c2cc(-c3cc(=O)c4ccc([O-])cc4o3)ccc2OC)cc1 (optimized conformer: 68.59605876816237 kcal/mol)

>  <smiles>  (77) 
COc1ccc(C=Cc2cc(-c3cc(=O)c4ccc(O)cc4o3)ccc2OC)cc1

>  <score_type>  (77) 
oracle

>  <origin>  (77) 
adg

>  <m_score__min__energy>  (77) 
-12.16

>  <m_primary>  (77) 
energy

$$$$
77:0
     RDKit          3D

 59 64  0  0  0  0  0  0  0  0999 V2000
   57.5522   32.5411   47.4853 H   0  0  0  0  0  0  0  0  0  0  0  0
   58.2810   33.3430   47.2960 C   0  0  0  0  0  0  0  0  0  0  0  0
   58.1090   34.0530   46.2150 N   0  0  0  0  0  0  0  0  0  0  0  0
   58.5500   33.7450   44.8900 C   0  0  0  0  0  0  0  0  0  0  0  0
   59.4750   34.4370   44.3770 O   0  0  0  0  0  0  0  0  0  0  0  0
   57.9290   32.6470   44.1160 C   0  0  0  0  0  0  0  0  0  0  0  0
   57.4410   31.5540   44.7670 N   0  0  0  0  0  0  0  0  0  0  0  0
   56.9410   30.4780   44.1000 C   0  0  0  0  0  0  0  0  0  0  0  0
   56.4270   29.3250   44.8620 C   0  0  0  0  0  0  0  0  0  0  0  0
   55.2060   29.0270   44.7850 O   0  0  0  0  0  0  0  0  0  0  0  0
   57.2940   28.5100   45.6640 N   0  0  0  0  0  0  0  0  0  0  0  0
   58.2430   28.9590   46.4370 C   0  0  0  0  0  0  0  0  0  0  0  0
   58.5410   28.4640   48.0390 S   0  0  0  0  0  0  0  0  0  0  0  0
   59.8900   29.4610   48.1710 C   0  0  0  0  0  0  0  0  0  0  0  0
   60.7650   29.6030   49.2470 C   0  0  0  0  0  0  0  0  0  0  0  0
   60.6090   29.0417   50.1801 H   0  0  0  0  0  0  0  0  0  0  0  0
   61.8520   30.4830   49.1070 C   0  0  0  0  0  0  0  0  0  0  0  0
   62.7410   30.6270   50.1250 F   0  0  0  0  0  0  0  0  0  0  0  0
   62.0250   31.2160   47.9170 C   0  0  0  0  0  0  0  0  0  0  0  0
   62.8642   31.9215   47.8270 H   0  0  0  0  0  0  0  0  0  0  0  0
   61.1320   31.0520   46.8430 C   0  0  0  0  0  0  0  0  0  0  0  0
   61.2680   31.6181   45.9097 H   0  0  0  0  0  0  0  0  0  0  0  0
   60.0670   30.1550   46.9840 C   0  0  0  0  0  0  0  0  0  0  0  0
   59.1530   29.8710   46.0160 N   0  0  0  0  0  0  0  0  0  0  0  0
   59.1590   30.2880   45.0560 H   0  0  0  0  0  0  0  0  0  0  0  0
   56.9350   30.4730   42.6980 C   0  0  0  0  0  0  0  0  0  0  0  0
   56.5676   29.5943   42.1476 H   0  0  0  0  0  0  0  0  0  0  0  0
   57.3990   31.5920   42.0080 C   0  0  0  0  0  0  0  0  0  0  0  0
   57.3744   31.6098   40.9084 H   0  0  0  0  0  0  0  0  0  0  0  0
   57.8940   32.6880   42.7120 C   0  0  0  0  0  0  0  0  0  0  0  0
   58.2540   33.5770   42.1735 H   0  0  0  0  0  0  0  0  0  0  0  0
   59.3700   33.5140   48.2990 C   0  0  0  0  0  0  0  0  0  0  0  0
   60.5520   34.2610   48.2160 C   0  0  0  0  0  0  0  0  0  0  0  0
   60.8601   34.8518   47.3408 H   0  0  0  0  0  0  0  0  0  0  0  0
   61.2630   34.1540   49.3650 N   0  0  0  0  0  0  0  0  0  0  0  0
   62.5660   34.7840   49.6150 C   0  0  0  0  0  0  0  0  0  0  0  0
   62.9527   35.2060   48.6756 H   0  0  0  0  0  0  0  0  0  0  0  0
   62.4432   35.5832   50.3608 H   0  0  0  0  0  0  0  0  0  0  0  0
   63.5400   33.7630   50.1410 C   0  0  0  0  0  0  0  0  0  0  0  0
   64.2620   32.9430   49.2530 C   0  0  0  0  0  0  0  0  0  0  0  0
   64.0604   32.9943   48.1728 H   0  0  0  0  0  0  0  0  0  0  0  0
   65.2340   32.0640   49.7390 C   0  0  0  0  0  0  0  0  0  0  0  0
   65.7940   31.4214   49.0437 H   0  0  0  0  0  0  0  0  0  0  0  0
   65.4930   32.0040   51.1160 C   0  0  0  0  0  0  0  0  0  0  0  0
   66.2636   31.3185   51.4986 H   0  0  0  0  0  0  0  0  0  0  0  0
   64.7750   32.8130   52.0070 C   0  0  0  0  0  0  0  0  0  0  0  0
   64.9805   32.7607   53.0864 H   0  0  0  0  0  0  0  0  0  0  0  0
   63.7990   33.6850   51.5230 C   0  0  0  0  0  0  0  0  0  0  0  0
   63.2299   34.3138   52.2235 H   0  0  0  0  0  0  0  0  0  0  0  0
   60.5270   33.3850   50.2030 C   0  0  0  0  0  0  0  0  0  0  0  0
   60.8170   33.0170   51.5250 C   0  0  0  0  0  0  0  0  0  0  0  0
   61.7457   33.3474   52.0133 H   0  0  0  0  0  0  0  0  0  0  0  0
   59.8850   32.2120   52.2100 C   0  0  0  0  0  0  0  0  0  0  0  0
   60.0854   31.9080   53.2480 H   0  0  0  0  0  0  0  0  0  0  0  0
   58.6970   31.7930   51.5750 C   0  0  0  0  0  0  0  0  0  0  0  0
   57.9758   31.1670   52.1209 H   0  0  0  0  0  0  0  0  0  0  0  0
   58.4300   32.1730   50.2440 C   0  0  0  0  0  0  0  0  0  0  0  0
   57.5091   31.8486   49.7373 H   0  0  0  0  0  0  0  0  0  0  0  0
   59.3710   32.9760   49.5840 C   0  0  0  0  0  0  0  0  0  0  0  0
  1  2  1  0
  2  3  2  3
  3  4  1  0
  4  5  2  0
  4  6  1  0
  6  7  2  0
  7  8  1  0
  8  9  1  0
  9 10  2  0
  9 11  1  0
 11 12  2  0
 12 13  1  0
 13 14  1  0
 14 15  2  0
 15 16  1  0
 15 17  1  0
 17 18  1  0
 17 19  2  0
 19 20  1  0
 19 21  1  0
 21 22  1  0
 21 23  2  0
 23 24  1  0
 24 25  1  0
  8 26  2  0
 26 27  1  0
 26 28  1  0
 28 29  1  0
 28 30  2  0
 30 31  1  0
  2 32  1  0
 32 33  2  0
 33 34  1  0
 33 35  1  0
 35 36  1  0
 36 37  1  0
 36 38  1  0
 36 39  1  0
 39 40  2  0
 40 41  1  0
 40 42  1  0
 42 43  1  0
 42 44  2  0
 44 45  1  0
 44 46  1  0
 46 47  1  0
 46 48  2  0
 48 49  1  0
 35 50  1  0
 50 51  2  0
 51 52  1  0
 51 53  1  0
 53 54  1  0
 53 55  2  0
 55 56  1  0
 55 57  1  0
 57 58  1  0
 57 59  2  0
 30  6  1  0
 59 32  1  0
 24 12  1  0
 48 39  1  0
 59 50  1  0
 23 14  1  0
M  END
>  <UniqueID>  (78) 
70

>  <SMILES>  (78) 
O=C(N=Cc1cn(Cc2ccccc2)c2ccccc12)c1cccc(C(=O)/N=c2/[nH]c3ccc(F)cc3s2)n1

>  <Energy>  (78) 
152.7024946791244

>  <Genealogy>  (78) 
O=C(N=Cc1cn(Cc2ccccc2)c2ccccc12)c1cccc(C(=O)/N=c2/[nH]c3ccc(F)cc3s2)n1 (cis-trans isomerization)
O=C(N=Cc1cn(Cc2ccccc2)c2ccccc12)c1cccc(C(=O)/N=c2/[nH]c3ccc(F)cc3s2)n1 (3D coordinates assigned)
O=C(N=Cc1cn(Cc2ccccc2)c2ccccc12)c1cccc(C(=O)/N=c2/[nH]c3ccc(F)cc3s2)n1 (optimized conformer: 152.7024946791244 kcal/mol)

>  <smiles>  (78) 
O=C(N=Cc1cn(Cc2ccccc2)c2ccccc12)c1cccc(C(=O)N=c2[nH]c3ccc(F)cc3s2)n1

>  <score_type>  (78) 
oracle

>  <origin>  (78) 
adg

>  <m_score__min__energy>  (78) 
-10.94

>  <m_primary>  (78) 
energy

$$$$
78:0
     RDKit          3D

 39 40  0  0  0  0  0  0  0  0999 V2000
   56.2220   24.0310   43.8780 C   0  0  0  0  0  0  0  0  0  0  0  0
   57.4050   24.9780   43.9930 C   0  0  0  0  0  0  0  0  0  0  0  0
   57.4480   25.5300   45.3050 O   0  0  0  0  0  0  0  0  0  0  0  0
   56.6660   26.6230   45.6920 C   0  0  0  0  0  0  0  0  0  0  0  0
   55.4640   26.4490   46.0370 O   0  0  0  0  0  0  0  0  0  0  0  0
   57.2510   27.9820   45.6990 C   0  0  0  0  0  0  0  0  0  0  0  0
   56.9450   28.9010   44.6790 C   0  0  0  0  0  0  0  0  0  0  0  0
   57.5040   30.1830   44.6890 C   0  0  0  0  0  0  0  0  0  0  0  0
   58.3870   30.5650   45.7120 C   0  0  0  0  0  0  0  0  0  0  0  0
   58.9630   31.8800   45.7520 N   0  0  0  0  0  0  0  0  0  0  0  0
   58.2640   33.0740   45.3650 C   0  0  0  0  0  0  0  0  0  0  0  0
   57.0840   33.0180   44.9260 O   0  0  0  0  0  0  0  0  0  0  0  0
   58.9650   34.3970   45.4000 C   0  0  0  0  0  0  0  0  0  0  0  0
   59.2000   34.9660   47.1200 S   0  0  0  0  0  0  0  0  0  0  0  0
   60.6080   33.9000   47.4510 C   0  0  0  0  0  0  0  0  0  0  0  0
   61.4410   33.4660   46.4820 N   0  0  0  0  0  0  0  0  0  0  0  0
   62.3630   32.7370   47.1440 C   0  0  0  0  0  0  0  0  0  0  0  0
   62.0770   32.7370   48.4910 C   0  0  0  0  0  0  0  0  0  0  0  0
   60.9590   33.4580   48.6770 N   0  0  0  0  0  0  0  0  0  0  0  0
   60.3210   33.7510   49.9580 C   0  0  0  0  0  0  0  0  0  0  0  0
   58.6750   29.6570   46.7410 C   0  0  0  0  0  0  0  0  0  0  0  0
   58.1190   28.3750   46.7310 C   0  0  0  0  0  0  0  0  0  0  0  0
   55.8753   23.7535   44.8844 H   0  0  0  0  0  0  0  0  0  0  0  0
   55.4059   24.5282   43.3332 H   0  0  0  0  0  0  0  0  0  0  0  0
   56.5285   23.1259   43.3332 H   0  0  0  0  0  0  0  0  0  0  0  0
   58.3362   24.4263   43.7971 H   0  0  0  0  0  0  0  0  0  0  0  0
   57.2967   25.7894   43.2582 H   0  0  0  0  0  0  0  0  0  0  0  0
   56.2614   28.6094   43.8680 H   0  0  0  0  0  0  0  0  0  0  0  0
   57.2505   30.8963   43.8909 H   0  0  0  0  0  0  0  0  0  0  0  0
   59.9910   31.9530   45.9280 H   0  0  0  0  0  0  0  0  0  0  0  0
   59.9480   34.2965   44.9166 H   0  0  0  0  0  0  0  0  0  0  0  0
   58.3480   35.1355   44.8671 H   0  0  0  0  0  0  0  0  0  0  0  0
   63.2150   32.2203   46.6780 H   0  0  0  0  0  0  0  0  0  0  0  0
   62.6612   32.2350   49.2763 H   0  0  0  0  0  0  0  0  0  0  0  0
   60.9873   33.4450   50.7780 H   0  0  0  0  0  0  0  0  0  0  0  0
   60.1225   34.8305   50.0303 H   0  0  0  0  0  0  0  0  0  0  0  0
   59.3728   33.1981   50.0303 H   0  0  0  0  0  0  0  0  0  0  0  0
   59.3433   29.9560   47.5619 H   0  0  0  0  0  0  0  0  0  0  0  0
   58.3630   27.6681   47.5377 H   0  0  0  0  0  0  0  0  0  0  0  0
  1  2  1  0
  2  3  1  0
  3  4  1  0
  4  5  2  0
  4  6  1  0
  6  7  2  0
  7  8  1  0
  8  9  2  0
  9 10  1  0
 10 11  1  0
 11 12  2  0
 11 13  1  0
 13 14  1  0
 14 15  1  0
 15 16  2  0
 16 17  1  0
 17 18  2  0
 18 19  1  0
 19 20  1  0
  9 21  1  0
 21 22  2  0
 22  6  1  0
 19 15  1  0
  1 23  1  0
  1 24  1  0
  1 25  1  0
  2 26  1  0
  2 27  1  0
  7 28  1  0
  8 29  1  0
 10 30  1  0
 13 31  1  0
 13 32  1  0
 17 33  1  0
 18 34  1  0
 20 35  1  0
 20 36  1  0
 20 37  1  0
 21 38  1  0
 22 39  1  0
M  END
>  <UniqueID>  (79) 
71

>  <SMILES>  (79) 
CCOC(=O)c1ccc(NC(=O)CSc2nccn2C)cc1

>  <Energy>  (79) 
59.54409989597147

>  <Genealogy>  (79) 
CCOC(=O)c1ccc(NC(=O)CSc2nccn2C)cc1 (3D coordinates assigned)
CCOC(=O)c1ccc(NC(=O)CSc2nccn2C)cc1 (optimized conformer: 59.54409989597147 kcal/mol)

>  <smiles>  (79) 
CCOC(=O)c1ccc(NC(=O)CSc2nccn2C)cc1

>  <score_type>  (79) 
oracle

>  <origin>  (79) 
adg

>  <m_score__min__energy>  (79) 
-6.6900000000000004

>  <m_primary>  (79) 
energy

$$$$
79:0
     RDKit          3D

 60 63  0  0  0  0  0  0  0  0999 V2000
   56.5140   29.3730   43.6970 C   0  0  0  0  0  0  0  0  0  0  0  0
   56.7390   29.8930   45.0050 O   0  0  0  0  0  0  0  0  0  0  0  0
   57.3960   31.1070   45.2390 C   0  0  0  0  0  0  0  0  0  0  0  0
   57.0820   32.2560   44.4980 C   0  0  0  0  0  0  0  0  0  0  0  0
   57.7590   33.4550   44.7340 C   0  0  0  0  0  0  0  0  0  0  0  0
   58.7460   33.5210   45.7160 C   0  0  0  0  0  0  0  0  0  0  0  0
   59.6650   35.1570   46.0400 Br  0  0  0  0  0  0  0  0  0  0  0  0
   59.0530   32.3870   46.4750 C   0  0  0  0  0  0  0  0  0  0  0  0
   58.3880   31.1710   46.2400 C   0  0  0  0  0  0  0  0  0  0  0  0
   58.7300   29.9600   47.0680 C   0  0  0  0  0  0  0  0  0  0  0  0
   58.1360   28.7530   46.4950 N   0  0  0  0  0  0  0  0  0  0  0  0
   58.9260   27.7320   45.8620 C   0  0  0  0  0  0  0  0  0  0  0  0
   60.1520   27.9360   45.6190 O   0  0  0  0  0  0  0  0  0  0  0  0
   58.3290   26.4360   45.4990 C   0  0  0  0  0  0  0  0  0  0  0  0
   57.8120   26.2290   44.2090 C   0  0  0  0  0  0  0  0  0  0  0  0
   57.1800   25.0270   43.8850 C   0  0  0  0  0  0  0  0  0  0  0  0
   57.0810   24.0010   44.8460 C   0  0  0  0  0  0  0  0  0  0  0  0
   56.4750   22.7620   44.5630 C   0  0  0  0  0  0  0  0  0  0  0  0
   55.9580   22.5680   43.4300 O   0  0  0  0  0  0  0  0  0  0  0  0
   56.4500   21.7720   45.5160 N   0  0  0  0  0  0  0  0  0  0  0  0
   55.8360   20.4640   45.2040 C   0  0  0  0  0  0  0  0  0  0  0  0
   54.6520   20.1270   46.1310 C   0  0  0  0  0  0  0  0  0  0  0  0
   53.9360   21.3540   46.7560 C   0  0  0  0  0  0  0  0  0  0  0  0
   52.9670   22.0430   45.8770 N   0  0  0  0  0  0  0  0  0  0  0  0
   53.3700   23.3970   45.4650 C   0  0  0  0  0  0  0  0  0  0  0  0
   52.3020   24.0030   44.5360 C   0  0  0  0  0  0  0  0  0  0  0  0
   51.3750   23.0190   44.1030 O   0  0  0  0  0  0  0  0  0  0  0  0
   50.6540   22.5090   45.2160 C   0  0  0  0  0  0  0  0  0  0  0  0
   51.5790   22.0310   46.3550 C   0  0  0  0  0  0  0  0  0  0  0  0
   57.0220   21.9980   46.7450 C   0  0  0  0  0  0  0  0  0  0  0  0
   57.0270   21.1040   47.6330 O   0  0  0  0  0  0  0  0  0  0  0  0
   57.6010   23.1920   47.0260 N   0  0  0  0  0  0  0  0  0  0  0  0
   57.6340   24.1940   46.1230 C   0  0  0  0  0  0  0  0  0  0  0  0
   58.2410   25.4110   46.4510 C   0  0  0  0  0  0  0  0  0  0  0  0
   56.0782   28.3658   43.7728 H   0  0  0  0  0  0  0  0  0  0  0  0
   55.8208   30.0326   43.1544 H   0  0  0  0  0  0  0  0  0  0  0  0
   57.4694   29.3193   43.1544 H   0  0  0  0  0  0  0  0  0  0  0  0
   56.2986   32.2127   43.7271 H   0  0  0  0  0  0  0  0  0  0  0  0
   57.5125   34.3495   44.1432 H   0  0  0  0  0  0  0  0  0  0  0  0
   59.8200   32.4471   47.2612 H   0  0  0  0  0  0  0  0  0  0  0  0
   59.8233   29.8429   47.1009 H   0  0  0  0  0  0  0  0  0  0  0  0
   58.3288   30.1023   48.0823 H   0  0  0  0  0  0  0  0  0  0  0  0
   57.0950   28.6640   46.4860 H   0  0  0  0  0  0  0  0  0  0  0  0
   57.9058   27.0191   43.4494 H   0  0  0  0  0  0  0  0  0  0  0  0
   56.7592   24.8808   42.8793 H   0  0  0  0  0  0  0  0  0  0  0  0
   55.4752   20.4834   44.1650 H   0  0  0  0  0  0  0  0  0  0  0  0
   56.6051   19.6918   45.3529 H   0  0  0  0  0  0  0  0  0  0  0  0
   53.9115   19.5615   45.5463 H   0  0  0  0  0  0  0  0  0  0  0  0
   55.0736   19.5569   46.9719 H   0  0  0  0  0  0  0  0  0  0  0  0
   53.3969   21.0116   47.6516 H   0  0  0  0  0  0  0  0  0  0  0  0
   54.7267   22.0889   46.9675 H   0  0  0  0  0  0  0  0  0  0  0  0
   53.4801   24.0317   46.3566 H   0  0  0  0  0  0  0  0  0  0  0  0
   54.3278   23.3413   44.9270 H   0  0  0  0  0  0  0  0  0  0  0  0
   51.7601   24.7910   45.0795 H   0  0  0  0  0  0  0  0  0  0  0  0
   52.8071   24.4168   43.6508 H   0  0  0  0  0  0  0  0  0  0  0  0
   49.9984   23.3023   45.6043 H   0  0  0  0  0  0  0  0  0  0  0  0
   50.0772   21.6392   44.8685 H   0  0  0  0  0  0  0  0  0  0  0  0
   51.4800   22.7051   47.2186 H   0  0  0  0  0  0  0  0  0  0  0  0
   51.2986   21.0120   46.6600 H   0  0  0  0  0  0  0  0  0  0  0  0
   58.6509   25.5642   47.4602 H   0  0  0  0  0  0  0  0  0  0  0  0
  1  2  1  0
  2  3  1  0
  3  4  2  0
  4  5  1  0
  5  6  2  0
  6  7  1  0
  6  8  1  0
  8  9  2  0
  9 10  1  0
 10 11  1  0
 11 12  1  0
 12 13  2  0
 12 14  1  0
 14 15  2  0
 15 16  1  0
 16 17  2  0
 17 18  1  0
 18 19  2  0
 18 20  1  0
 20 21  1  0
 21 22  1  0
 22 23  1  0
 23 24  1  0
 24 25  1  0
 25 26  1  0
 26 27  1  0
 27 28  1  0
 28 29  1  0
 20 30  1  0
 30 31  2  0
 30 32  1  0
 32 33  1  0
 33 34  2  0
  9  3  1  0
 34 14  1  0
 33 17  1  0
 29 24  1  0
  1 35  1  0
  1 36  1  0
  1 37  1  0
  4 38  1  0
  5 39  1  0
  8 40  1  0
 10 41  1  0
 10 42  1  0
 11 43  1  0
 15 44  1  0
 16 45  1  0
 21 46  1  0
 21 47  1  0
 22 48  1  0
 22 49  1  0
 23 50  1  0
 23 51  1  0
 25 52  1  0
 25 53  1  0
 26 54  1  0
 26 55  1  0
 28 56  1  0
 28 57  1  0
 29 58  1  0
 29 59  1  0
 34 60  1  0
M  CHG  1  32  -1
M  END
>  <UniqueID>  (80) 
72

>  <SMILES>  (80) 
COc1ccc(Br)cc1CNC(=O)c1ccc2c(=O)n(CCCN3CCOCC3)c(=O)[n-]c2c1

>  <Energy>  (80) 
92.19588468218976

>  <Genealogy>  (80) 
COc1ccc(Br)cc1CNC(=O)c1ccc2c(=O)n(CCCN3CCOCC3)c(=O)[n-]c2c1 (protonated)
COc1ccc(Br)cc1CNC(=O)c1ccc2c(=O)n(CCCN3CCOCC3)c(=O)[n-]c2c1 (3D coordinates assigned)
COc1ccc(Br)cc1CNC(=O)c1ccc2c(=O)n(CCCN3CCOCC3)c(=O)[n-]c2c1 (nonaromatic ring conformer: 92.19588468218976 kcal/mol)

>  <smiles>  (80) 
COc1ccc(Br)cc1CNC(=O)c1ccc2c(=O)n(CCCN3CCOCC3)c(=O)[nH]c2c1

>  <score_type>  (80) 
oracle

>  <origin>  (80) 
adg

>  <m_score__min__energy>  (80) 
-11

>  <m_primary>  (80) 
energy

$$$$
80:0
     RDKit          3D

 47 51  0  0  0  0  0  0  0  0999 V2000
   54.7660   27.0910   46.4030 H   0  0  0  0  0  0  0  0  0  0  0  0
   55.1600   26.1690   46.1150 N   0  0  0  0  0  0  0  0  0  0  0  0
   56.4550   25.7560   46.5500 C   0  0  0  0  0  0  0  0  0  0  0  0
   56.5730   24.6700   47.1760 O   0  0  0  0  0  0  0  0  0  0  0  0
   57.6440   26.5950   46.2720 C   0  0  0  0  0  0  0  0  0  0  0  0
   58.0930   26.7870   44.9530 C   0  0  0  0  0  0  0  0  0  0  0  0
   57.5637   26.3018   44.1197 H   0  0  0  0  0  0  0  0  0  0  0  0
   59.2070   27.5900   44.6940 C   0  0  0  0  0  0  0  0  0  0  0  0
   59.5500   27.7340   43.6588 H   0  0  0  0  0  0  0  0  0  0  0  0
   59.8860   28.2100   45.7440 C   0  0  0  0  0  0  0  0  0  0  0  0
   60.7542   28.8514   45.5323 H   0  0  0  0  0  0  0  0  0  0  0  0
   59.4650   28.0180   47.0690 C   0  0  0  0  0  0  0  0  0  0  0  0
   60.1790   28.7240   48.1900 C   0  0  0  0  0  0  0  0  0  0  0  0
   60.2225   28.0626   49.0679 H   0  0  0  0  0  0  0  0  0  0  0  0
   61.1982   28.9796   47.8645 H   0  0  0  0  0  0  0  0  0  0  0  0
   59.4660   29.9510   48.5430 N   0  0  0  0  0  0  0  0  0  0  0  0
   59.6590   31.1130   47.9950 C   0  0  0  0  0  0  0  0  0  0  0  0
   58.8990   31.5250   46.9380 N   0  0  0  0  0  0  0  0  0  0  0  0
   59.1380   32.7470   46.4060 C   0  0  0  0  0  0  0  0  0  0  0  0
   58.5350   33.3630   45.3230 C   0  0  0  0  0  0  0  0  0  0  0  0
   57.5090   32.9790   44.5460 C   0  0  0  0  0  0  0  0  0  0  0  0
   56.9219   33.7683   44.0537 H   0  0  0  0  0  0  0  0  0  0  0  0
   57.1090   31.5810   44.3020 C   0  0  0  0  0  0  0  0  0  0  0  0
   56.6520   30.7370   45.2460 N   0  0  0  0  0  0  0  0  0  0  0  0
   56.3020   29.6390   44.5450 C   0  0  0  0  0  0  0  0  0  0  0  0
   55.8340   28.6060   45.0910 O   0  0  0  0  0  0  0  0  0  0  0  0
   56.4850   29.7360   43.2110 N   0  0  0  0  0  0  0  0  0  0  0  0
   56.9860   30.9740   43.0700 C   0  0  0  0  0  0  0  0  0  0  0  0
   57.3220   31.5260   41.8370 O   0  0  0  0  0  0  0  0  0  0  0  0
   58.2180   31.3440   41.4020 H   0  0  0  0  0  0  0  0  0  0  0  0
   59.2650   34.5390   45.1720 C   0  0  0  0  0  0  0  0  0  0  0  0
   59.0896   35.2942   44.3916 H   0  0  0  0  0  0  0  0  0  0  0  0
   60.2220   34.6170   46.1260 N   0  0  0  0  0  0  0  0  0  0  0  0
   60.1280   33.5220   46.8640 N   0  0  0  0  0  0  0  0  0  0  0  0
   60.8970   33.1380   47.9240 C   0  0  0  0  0  0  0  0  0  0  0  0
   61.8540   33.8710   48.4160 N   0  0  0  0  0  0  0  0  0  0  0  0
   63.2540   33.8680   48.0020 C   0  0  0  0  0  0  0  0  0  0  0  0
   63.6546   34.4768   48.8260 H   0  0  0  0  0  0  0  0  0  0  0  0
   63.6920   32.5890   47.3140 C   0  0  0  0  0  0  0  0  0  0  0  0
   64.7242   32.2271   47.4306 H   0  0  0  0  0  0  0  0  0  0  0  0
   63.3301   31.5504   47.2981 H   0  0  0  0  0  0  0  0  0  0  0  0
   63.4120   33.8390   46.4940 C   0  0  0  0  0  0  0  0  0  0  0  0
   64.2416   34.3815   46.0172 H   0  0  0  0  0  0  0  0  0  0  0  0
   62.7635   34.0797   45.6387 H   0  0  0  0  0  0  0  0  0  0  0  0
   60.6430   31.9240   48.4850 N   0  0  0  0  0  0  0  0  0  0  0  0
   58.3400   27.2180   47.3260 C   0  0  0  0  0  0  0  0  0  0  0  0
   57.9985   27.0763   48.3620 H   0  0  0  0  0  0  0  0  0  0  0  0
  1  2  1  0
  2  3  1  0
  3  4  2  0
  3  5  1  0
  5  6  2  0
  6  7  1  0
  6  8  1  0
  8  9  1  0
  8 10  2  0
 10 11  1  0
 10 12  1  0
 12 13  1  0
 13 14  1  0
 13 15  1  0
 13 16  1  0
 16 17  2  3
 17 18  1  0
 18 19  2  0
 19 20  1  0
 20 21  2  3
 21 22  1  0
 21 23  1  0
 23 24  1  0
 24 25  1  0
 25 26  2  0
 25 27  1  0
 27 28  1  0
 28 29  1  0
 29 30  1  0
 20 31  1  0
 31 32  1  0
 31 33  2  0
 33 34  1  0
 34 35  1  0
 35 36  2  0
 36 37  1  0
 37 38  1  0
 37 39  1  0
 39 40  1  0
 39 41  1  0
 39 42  1  0
 42 43  1  0
 42 44  1  0
 35 45  1  0
 12 46  2  0
 46 47  1  0
 46  5  1  0
 45 17  1  0
 34 19  1  0
 42 37  1  0
 28 23  2  0
M  CHG  4   2  -1  24  -1  27  -1  45  -1
M  END
>  <UniqueID>  (81) 
73

>  <SMILES>  (81) 
[NH-]C(=O)c1cccc(CN=c2nc3c(=Cc4[n-]c(=O)[n-]c4O)cnn3/c(=N\C3CC3)[n-]2)c1

>  <Energy>  (81) 
389.10042211457807

>  <Genealogy>  (81) 
[NH-]C(=O)c1cccc(CN=c2nc3c(=Cc4[n-]c(=O)[n-]c4O)cnn3c(=NC3CC3)[n-]2)c1 (protonated)
[NH-]C(=O)c1cccc(CN=c2nc3c(=Cc4[n-]c(=O)[n-]c4O)cnn3/c(=N\C3CC3)[n-]2)c1 (cis-trans isomerization)
[NH-]C(=O)c1cccc(CN=c2nc3c(=Cc4[n-]c(=O)[n-]c4O)cnn3/c(=N\C3CC3)[n-]2)c1 (3D coordinates assigned)
[NH-]C(=O)c1cccc(CN=c2nc3c(=Cc4[n-]c(=O)[n-]c4O)cnn3/c(=N\C3CC3)[n-]2)c1 (nonaromatic ring conformer: 389.10042211457807 kcal/mol)

>  <smiles>  (81) 
NC(=O)c1cccc(CN=c2nc3c(=Cc4[nH]c(=O)[nH]c4O)cnn3c(=NC3CC3)[nH]2)c1

>  <score_type>  (81) 
oracle

>  <origin>  (81) 
adg

>  <m_score__min__energy>  (81) 
-17.649999999999999

>  <m_primary>  (81) 
energy

$$$$
81:0
     RDKit          3D

 49 52  0  0  0  0  0  0  0  0999 V2000
   54.6520   24.8740   45.6080 C   0  0  0  0  0  0  0  0  0  0  0  0
   55.2380   26.1130   45.9890 O   0  0  0  0  0  0  0  0  0  0  0  0
   56.6170   26.3680   45.9970 C   0  0  0  0  0  0  0  0  0  0  0  0
   57.5710   25.3640   45.7450 C   0  0  0  0  0  0  0  0  0  0  0  0
   58.9340   25.6720   45.7580 C   0  0  0  0  0  0  0  0  0  0  0  0
   59.3590   26.9750   46.0270 C   0  0  0  0  0  0  0  0  0  0  0  0
   58.4190   27.9840   46.3010 C   0  0  0  0  0  0  0  0  0  0  0  0
   58.8280   29.3390   46.5590 N   0  0  0  0  0  0  0  0  0  0  0  0
   59.0610   29.8660   47.8750 C   0  0  0  0  0  0  0  0  0  0  0  0
   58.5300   29.3130   48.8770 O   0  0  0  0  0  0  0  0  0  0  0  0
   59.8350   31.0680   48.0540 N   0  0  0  0  0  0  0  0  0  0  0  0
   60.9360   31.4110   47.1480 C   0  0  0  0  0  0  0  0  0  0  0  0
   60.8450   32.8890   46.7210 C   0  0  0  0  0  0  0  0  0  0  0  0
   60.2380   33.7820   47.7450 N   0  0  0  0  0  0  0  0  0  0  0  0
   58.8460   34.1570   47.4130 C   0  0  0  0  0  0  0  0  0  0  0  0
   58.4070   33.4560   46.1680 C   0  0  0  0  0  0  0  0  0  0  0  0
   57.7570   32.2650   46.1740 N   0  0  0  0  0  0  0  0  0  0  0  0
   57.5010   31.8470   44.9090 C   0  0  0  0  0  0  0  0  0  0  0  0
   56.8440   30.6570   44.5890 C   0  0  0  0  0  0  0  0  0  0  0  0
   56.6430   30.3400   43.2350 C   0  0  0  0  0  0  0  0  0  0  0  0
   57.0970   31.2100   42.2230 C   0  0  0  0  0  0  0  0  0  0  0  0
   57.7560   32.4040   42.5560 C   0  0  0  0  0  0  0  0  0  0  0  0
   57.9430   32.6950   43.9050 C   0  0  0  0  0  0  0  0  0  0  0  0
   58.6900   34.0270   44.5980 S   0  0  0  0  0  0  0  0  0  0  0  0
   60.3490   33.2410   49.1160 C   0  0  0  0  0  0  0  0  0  0  0  0
   59.6240   31.8920   49.2490 C   0  0  0  0  0  0  0  0  0  0  0  0
   57.0510   27.6720   46.2670 C   0  0  0  0  0  0  0  0  0  0  0  0
   54.3822   24.3036   46.5090 H   0  0  0  0  0  0  0  0  0  0  0  0
   53.7484   25.0642   45.0102 H   0  0  0  0  0  0  0  0  0  0  0  0
   55.3723   24.2962   45.0102 H   0  0  0  0  0  0  0  0  0  0  0  0
   57.2429   24.3348   45.5374 H   0  0  0  0  0  0  0  0  0  0  0  0
   59.6753   24.8849   45.5555 H   0  0  0  0  0  0  0  0  0  0  0  0
   60.4330   27.2126   46.0245 H   0  0  0  0  0  0  0  0  0  0  0  0
   58.8430   30.0080   45.7590 H   0  0  0  0  0  0  0  0  0  0  0  0
   61.8936   31.2412   47.6619 H   0  0  0  0  0  0  0  0  0  0  0  0
   60.8686   30.7775   46.2513 H   0  0  0  0  0  0  0  0  0  0  0  0
   61.8619   33.2499   46.5074 H   0  0  0  0  0  0  0  0  0  0  0  0
   60.1872   32.9243   45.8400 H   0  0  0  0  0  0  0  0  0  0  0  0
   58.1843   33.8710   48.2439 H   0  0  0  0  0  0  0  0  0  0  0  0
   58.7954   35.2438   47.2506 H   0  0  0  0  0  0  0  0  0  0  0  0
   56.4907   29.9810   45.3816 H   0  0  0  0  0  0  0  0  0  0  0  0
   56.1280   29.4069   42.9629 H   0  0  0  0  0  0  0  0  0  0  0  0
   56.9340   30.9518   41.1662 H   0  0  0  0  0  0  0  0  0  0  0  0
   58.1143   33.0898   41.7741 H   0  0  0  0  0  0  0  0  0  0  0  0
   61.4124   33.1010   49.3602 H   0  0  0  0  0  0  0  0  0  0  0  0
   59.8794   33.9553   49.8083 H   0  0  0  0  0  0  0  0  0  0  0  0
   60.0134   31.3583   50.1285 H   0  0  0  0  0  0  0  0  0  0  0  0
   58.5461   32.0803   49.3620 H   0  0  0  0  0  0  0  0  0  0  0  0
   56.3095   28.4625   46.4550 H   0  0  0  0  0  0  0  0  0  0  0  0
  1  2  1  0
  2  3  1  0
  3  4  2  0
  4  5  1  0
  5  6  2  0
  6  7  1  0
  7  8  1  0
  8  9  1  0
  9 10  2  0
  9 11  1  0
 11 12  1  0
 12 13  1  0
 13 14  1  0
 14 15  1  0
 15 16  1  0
 16 17  2  0
 17 18  1  0
 18 19  2  0
 19 20  1  0
 20 21  2  0
 21 22  1  0
 22 23  2  0
 23 24  1  0
 14 25  1  0
 25 26  1  0
  7 27  2  0
 27  3  1  0
 26 11  1  0
 24 16  1  0
 23 18  1  0
  1 28  1  0
  1 29  1  0
  1 30  1  0
  4 31  1  0
  5 32  1  0
  6 33  1  0
  8 34  1  0
 12 35  1  0
 12 36  1  0
 13 37  1  0
 13 38  1  0
 15 39  1  0
 15 40  1  0
 19 41  1  0
 20 42  1  0
 21 43  1  0
 22 44  1  0
 25 45  1  0
 25 46  1  0
 26 47  1  0
 26 48  1  0
 27 49  1  0
M  END
>  <UniqueID>  (82) 
74

>  <SMILES>  (82) 
COc1cccc(NC(=O)N2CCN(Cc3nc4ccccc4s3)CC2)c1

>  <Energy>  (82) 
97.63620079714856

>  <Genealogy>  (82) 
COc1cccc(NC(=O)N2CCN(Cc3nc4ccccc4s3)CC2)c1 (3D coordinates assigned)
COc1cccc(NC(=O)N2CCN(Cc3nc4ccccc4s3)CC2)c1 (nonaromatic ring conformer: 97.63620079714856 kcal/mol)

>  <smiles>  (82) 
COc1cccc(NC(=O)N2CCN(Cc3nc4ccccc4s3)CC2)c1

>  <score_type>  (82) 
oracle

>  <origin>  (82) 
adg

>  <m_score__min__energy>  (82) 
-8.8100000000000005

>  <m_primary>  (82) 
energy

$$$$
82:0
     RDKit          3D

 37 39  0  0  0  0  0  0  0  0999 V2000
   60.1500   29.8590   48.2520 C   0  0  0  0  0  0  0  0  0  0  0  0
   60.0120   29.6120   46.8560 O   0  0  0  0  0  0  0  0  0  0  0  0
   59.0900   28.7200   46.2860 C   0  0  0  0  0  0  0  0  0  0  0  0
   59.4180   27.3690   46.0690 C   0  0  0  0  0  0  0  0  0  0  0  0
   58.5050   26.5080   45.4610 C   0  0  0  0  0  0  0  0  0  0  0  0
   57.2570   26.9790   45.0580 C   0  0  0  0  0  0  0  0  0  0  0  0
   56.9020   28.3220   45.2740 C   0  0  0  0  0  0  0  0  0  0  0  0
   55.6520   28.8310   44.8880 O   0  0  0  0  0  0  0  0  0  0  0  0
   55.4450   29.7230   43.7970 C   0  0  0  0  0  0  0  0  0  0  0  0
   57.8090   29.1910   45.9040 C   0  0  0  0  0  0  0  0  0  0  0  0
   57.3990   30.5200   46.1120 O   0  0  0  0  0  0  0  0  0  0  0  0
   57.8870   31.6390   45.4230 C   0  0  0  0  0  0  0  0  0  0  0  0
   57.7820   31.6520   44.0320 C   0  0  0  0  0  0  0  0  0  0  0  0
   58.3050   32.7230   43.3030 C   0  0  0  0  0  0  0  0  0  0  0  0
   58.2260   32.7210   42.0450 O   0  0  0  0  0  0  0  0  0  0  0  0
   58.9030   33.7630   43.9460 N   0  0  0  0  0  0  0  0  0  0  0  0
   58.9920   33.8050   45.3070 C   0  0  0  0  0  0  0  0  0  0  0  0
   59.5950   34.9040   45.9410 C   0  0  0  0  0  0  0  0  0  0  0  0
   59.6610   34.9630   47.3340 C   0  0  0  0  0  0  0  0  0  0  0  0
   59.1190   33.9350   48.1060 C   0  0  0  0  0  0  0  0  0  0  0  0
   58.5190   32.8340   47.4910 C   0  0  0  0  0  0  0  0  0  0  0  0
   58.4670   32.7440   46.0860 C   0  0  0  0  0  0  0  0  0  0  0  0
   59.6898   29.0353   48.8174 H   0  0  0  0  0  0  0  0  0  0  0  0
   61.2175   29.9282   48.5084 H   0  0  0  0  0  0  0  0  0  0  0  0
   59.6493   30.8043   48.5084 H   0  0  0  0  0  0  0  0  0  0  0  0
   60.4020   26.9892   46.3813 H   0  0  0  0  0  0  0  0  0  0  0  0
   58.7710   25.4530   45.2989 H   0  0  0  0  0  0  0  0  0  0  0  0
   56.5463   26.2968   44.5686 H   0  0  0  0  0  0  0  0  0  0  0  0
   55.2121   30.7264   44.1829 H   0  0  0  0  0  0  0  0  0  0  0  0
   56.3564   29.7688   43.1828 H   0  0  0  0  0  0  0  0  0  0  0  0
   54.6066   29.3627   43.1828 H   0  0  0  0  0  0  0  0  0  0  0  0
   57.2878   30.8197   43.5095 H   0  0  0  0  0  0  0  0  0  0  0  0
   59.2910   34.5490   43.3750 H   0  0  0  0  0  0  0  0  0  0  0  0
   60.0168   35.7212   45.3374 H   0  0  0  0  0  0  0  0  0  0  0  0
   60.1416   35.8223   47.8244 H   0  0  0  0  0  0  0  0  0  0  0  0
   59.1644   33.9919   49.2036 H   0  0  0  0  0  0  0  0  0  0  0  0
   58.0847   32.0328   48.1069 H   0  0  0  0  0  0  0  0  0  0  0  0
  1  2  1  0
  2  3  1  0
  3  4  2  0
  4  5  1  0
  5  6  2  0
  6  7  1  0
  7  8  1  0
  8  9  1  0
  7 10  2  0
 10 11  1  0
 11 12  1  0
 12 13  2  0
 13 14  1  0
 14 15  2  0
 14 16  1  0
 16 17  1  0
 17 18  2  0
 18 19  1  0
 19 20  2  0
 20 21  1  0
 21 22  2  0
 10  3  1  0
 22 12  1  0
 22 17  1  0
  1 23  1  0
  1 24  1  0
  1 25  1  0
  4 26  1  0
  5 27  1  0
  6 28  1  0
  9 29  1  0
  9 30  1  0
  9 31  1  0
 13 32  1  0
 16 33  1  0
 18 34  1  0
 19 35  1  0
 20 36  1  0
 21 37  1  0
M  END
>  <UniqueID>  (83) 
75

>  <SMILES>  (83) 
COc1cccc(OC)c1Oc1cc(=O)[nH]c2ccccc12

>  <Energy>  (83) 
52.44272487906599

>  <Genealogy>  (83) 
COc1cccc(OC)c1Oc1cc(=O)[nH]c2ccccc12 (3D coordinates assigned)
COc1cccc(OC)c1Oc1cc(=O)[nH]c2ccccc12 (optimized conformer: 52.44272487906599 kcal/mol)

>  <smiles>  (83) 
COc1cccc(OC)c1Oc1cc(=O)[nH]c2ccccc12

>  <score_type>  (83) 
oracle

>  <origin>  (83) 
adg

>  <m_score__min__energy>  (83) 
-6.6799999999999997

>  <m_primary>  (83) 
energy

$$$$
83:0
     RDKit          3D

 50 54  0  0  0  0  0  0  0  0999 V2000
   58.5550   29.3540   48.5220 O   0  0  0  0  0  0  0  0  0  0  0  0
   59.4210   30.2730   48.5220 C   0  0  0  0  0  0  0  0  0  0  0  0
   60.0220   30.6840   49.8400 C   0  0  0  0  0  0  0  0  0  0  0  0
   59.1660   32.1530   50.5190 S   0  0  0  0  0  0  0  0  0  0  0  0
   57.9040   31.2350   51.4030 C   0  0  0  0  0  0  0  0  0  0  0  0
   58.2720   30.2140   52.2720 C   0  0  0  0  0  0  0  0  0  0  0  0
   57.2730   29.5220   52.9620 C   0  0  0  0  0  0  0  0  0  0  0  0
   57.6260   28.4800   53.8340 C   0  0  0  0  0  0  0  0  0  0  0  0
   56.6320   27.8010   54.5320 C   0  0  0  0  0  0  0  0  0  0  0  0
   55.2980   28.1600   54.3590 C   0  0  0  0  0  0  0  0  0  0  0  0
   54.9700   29.1960   53.4840 C   0  0  0  0  0  0  0  0  0  0  0  0
   55.9470   29.8670   52.7910 N   0  0  0  0  0  0  0  0  0  0  0  0
   55.6180   30.8830   51.9230 C   0  0  0  0  0  0  0  0  0  0  0  0
   54.4130   31.2190   51.7490 O   0  0  0  0  0  0  0  0  0  0  0  0
   56.5920   31.5450   51.2390 N   0  0  0  0  0  0  0  0  0  0  0  0
   59.7750   30.9140   47.2730 N   0  0  0  0  0  0  0  0  0  0  0  0
   60.8640   31.8530   47.1680 C   0  0  0  0  0  0  0  0  0  0  0  0
   62.1560   31.4120   47.5080 C   0  0  0  0  0  0  0  0  0  0  0  0
   63.2460   32.2780   47.4500 C   0  0  0  0  0  0  0  0  0  0  0  0
   63.0710   33.5940   47.0310 C   0  0  0  0  0  0  0  0  0  0  0  0
   61.8050   34.0440   46.6540 C   0  0  0  0  0  0  0  0  0  0  0  0
   60.6820   33.1950   46.7060 C   0  0  0  0  0  0  0  0  0  0  0  0
   59.3740   33.7930   46.1900 C   0  0  0  0  0  0  0  0  0  0  0  0
   58.0890   33.0060   46.4510 C   0  0  0  0  0  0  0  0  0  0  0  0
   58.0980   31.7120   45.6900 C   0  0  0  0  0  0  0  0  0  0  0  0
   57.2950   31.5150   44.5540 C   0  0  0  0  0  0  0  0  0  0  0  0
   57.3360   30.2930   43.8730 C   0  0  0  0  0  0  0  0  0  0  0  0
   58.1740   29.2660   44.3240 C   0  0  0  0  0  0  0  0  0  0  0  0
   58.9830   29.4640   45.4460 C   0  0  0  0  0  0  0  0  0  0  0  0
   58.9520   30.6920   46.1220 C   0  0  0  0  0  0  0  0  0  0  0  0
   59.9294   29.8516   50.5532 H   0  0  0  0  0  0  0  0  0  0  0  0
   61.0805   30.9370   49.6798 H   0  0  0  0  0  0  0  0  0  0  0  0
   59.3317   29.9553   52.4140 H   0  0  0  0  0  0  0  0  0  0  0  0
   58.6822   28.2019   53.9647 H   0  0  0  0  0  0  0  0  0  0  0  0
   56.8992   26.9836   55.2179 H   0  0  0  0  0  0  0  0  0  0  0  0
   54.5068   27.6296   54.9093 H   0  0  0  0  0  0  0  0  0  0  0  0
   53.9157   29.4787   53.3477 H   0  0  0  0  0  0  0  0  0  0  0  0
   56.3270   32.3150   50.5830 H   0  0  0  0  0  0  0  0  0  0  0  0
   62.3077   30.3693   47.8239 H   0  0  0  0  0  0  0  0  0  0  0  0
   64.2465   31.9212   47.7358 H   0  0  0  0  0  0  0  0  0  0  0  0
   63.9308   34.2793   46.9971 H   0  0  0  0  0  0  0  0  0  0  0  0
   61.6816   35.0814   46.3097 H   0  0  0  0  0  0  0  0  0  0  0  0
   59.2561   34.7817   46.6576 H   0  0  0  0  0  0  0  0  0  0  0  0
   59.4812   33.8014   45.0953 H   0  0  0  0  0  0  0  0  0  0  0  0
   58.0084   32.7920   47.5270 H   0  0  0  0  0  0  0  0  0  0  0  0
   57.2307   33.6077   46.1173 H   0  0  0  0  0  0  0  0  0  0  0  0
   56.6347   32.3205   44.2002 H   0  0  0  0  0  0  0  0  0  0  0  0
   56.7091   30.1392   42.9823 H   0  0  0  0  0  0  0  0  0  0  0  0
   58.1955   28.3021   43.7944 H   0  0  0  0  0  0  0  0  0  0  0  0
   59.6431   28.6577   45.7983 H   0  0  0  0  0  0  0  0  0  0  0  0
  1  2  2  0
  2  3  1  0
  3  4  1  0
  4  5  1  0
  5  6  1  0
  6  7  2  0
  7  8  1  0
  8  9  2  0
  9 10  1  0
 10 11  2  0
 11 12  1  0
 12 13  1  0
 13 14  2  0
 13 15  1  0
  2 16  1  0
 16 17  1  0
 17 18  2  0
 18 19  1  0
 19 20  2  0
 20 21  1  0
 21 22  2  0
 22 23  1  0
 23 24  1  0
 24 25  1  0
 25 26  2  0
 26 27  1  0
 27 28  2  0
 28 29  1  0
 29 30  2  0
 15  5  2  0
 30 16  1  0
 12  7  1  0
 22 17  1  0
 30 25  1  0
  3 31  1  0
  3 32  1  0
  6 33  1  0
  8 34  1  0
  9 35  1  0
 10 36  1  0
 11 37  1  0
 15 38  1  0
 18 39  1  0
 19 40  1  0
 20 41  1  0
 21 42  1  0
 23 43  1  0
 23 44  1  0
 24 45  1  0
 24 46  1  0
 26 47  1  0
 27 48  1  0
 28 49  1  0
 29 50  1  0
M  CHG  1  15   1
M  END
>  <UniqueID>  (84) 
76

>  <SMILES>  (84) 
O=C(CSc1cc2ccccn2c(=O)[nH+]1)N1c2ccccc2CCc2ccccc21

>  <Energy>  (84) 
79.61514437501344

>  <Genealogy>  (84) 
O=C(CSc1cc2ccccn2c(=O)[nH+]1)N1c2ccccc2CCc2ccccc21 (protonated)
O=C(CSc1cc2ccccn2c(=O)[nH+]1)N1c2ccccc2CCc2ccccc21 (3D coordinates assigned)
O=C(CSc1cc2ccccn2c(=O)[nH+]1)N1c2ccccc2CCc2ccccc21 (nonaromatic ring conformer: 79.61514437501344 kcal/mol)

>  <smiles>  (84) 
O=C(CSc1cc2ccccn2c(=O)n1)N1c2ccccc2CCc2ccccc21

>  <score_type>  (84) 
oracle

>  <origin>  (84) 
adg

>  <m_score__min__energy>  (84) 
-6.3300000000000001

>  <m_primary>  (84) 
energy

$$$$
84:0
     RDKit          3D

 44 48  0  0  0  0  0  0  0  0999 V2000
   61.9720   33.2740   49.8580 O   0  0  0  0  0  0  0  0  0  0  0  0
   61.2940   32.5640   49.0880 C   0  0  0  0  0  0  0  0  0  0  0  0
   61.4070   31.2350   49.1800 N   0  0  0  0  0  0  0  0  0  0  0  0
   60.7260   30.3630   48.4020 C   0  0  0  0  0  0  0  0  0  0  0  0
   59.8880   30.9020   47.4850 N   0  0  0  0  0  0  0  0  0  0  0  0
   59.7300   32.2420   47.3470 C   0  0  0  0  0  0  0  0  0  0  0  0
   58.8440   32.7320   46.4030 C   0  0  0  0  0  0  0  0  0  0  0  0
   58.1120   31.8600   45.5020 C   0  0  0  0  0  0  0  0  0  0  0  0
   57.4440   30.7670   45.9540 N   0  0  0  0  0  0  0  0  0  0  0  0
   56.8910   30.2390   44.8760 N   0  0  0  0  0  0  0  0  0  0  0  0
   56.1030   29.0100   44.9320 C   0  0  0  0  0  0  0  0  0  0  0  0
   56.9620   27.8880   45.4230 C   0  0  0  0  0  0  0  0  0  0  0  0
   58.3250   28.0510   45.2690 C   0  0  0  0  0  0  0  0  0  0  0  0
   59.2500   27.1320   45.7070 C   0  0  0  0  0  0  0  0  0  0  0  0
   58.7520   26.0070   46.3260 C   0  0  0  0  0  0  0  0  0  0  0  0
   57.4070   25.8200   46.4920 C   0  0  0  0  0  0  0  0  0  0  0  0
   56.4850   26.7710   46.0370 C   0  0  0  0  0  0  0  0  0  0  0  0
   55.1210   26.6100   46.1910 O   0  0  0  0  0  0  0  0  0  0  0  0
   57.1570   30.9270   43.7690 C   0  0  0  0  0  0  0  0  0  0  0  0
   56.8100   30.7650   42.4470 C   0  0  0  0  0  0  0  0  0  0  0  0
   57.2370   31.6350   41.4760 C   0  0  0  0  0  0  0  0  0  0  0  0
   58.0350   32.6950   41.8530 C   0  0  0  0  0  0  0  0  0  0  0  0
   58.3980   32.8760   43.1970 C   0  0  0  0  0  0  0  0  0  0  0  0
   57.9460   31.9770   44.1390 C   0  0  0  0  0  0  0  0  0  0  0  0
   58.6890   34.1040   46.2930 C   0  0  0  0  0  0  0  0  0  0  0  0
   59.3930   34.9780   47.0940 C   0  0  0  0  0  0  0  0  0  0  0  0
   60.2910   34.4990   48.0500 C   0  0  0  0  0  0  0  0  0  0  0  0
   60.4290   33.1260   48.1440 C   0  0  0  0  0  0  0  0  0  0  0  0
   60.8464   29.2748   48.5084 H   0  0  0  0  0  0  0  0  0  0  0  0
   59.3530   30.2140   46.8780 H   0  0  0  0  0  0  0  0  0  0  0  0
   55.2546   29.1495   45.6182 H   0  0  0  0  0  0  0  0  0  0  0  0
   55.7263   28.7702   43.9267 H   0  0  0  0  0  0  0  0  0  0  0  0
   58.6891   28.9617   44.7709 H   0  0  0  0  0  0  0  0  0  0  0  0
   60.3303   27.2874   45.5701 H   0  0  0  0  0  0  0  0  0  0  0  0
   59.4510   25.2420   46.6950 H   0  0  0  0  0  0  0  0  0  0  0  0
   57.0442   24.9090   46.9904 H   0  0  0  0  0  0  0  0  0  0  0  0
   54.7650   26.7230   47.1280 H   0  0  0  0  0  0  0  0  0  0  0  0
   56.1730   29.9149   42.1613 H   0  0  0  0  0  0  0  0  0  0  0  0
   56.9503   31.4909   40.4238 H   0  0  0  0  0  0  0  0  0  0  0  0
   58.3907   33.4059   41.0927 H   0  0  0  0  0  0  0  0  0  0  0  0
   59.0339   33.7230   43.4940 H   0  0  0  0  0  0  0  0  0  0  0  0
   57.9868   34.5064   45.5480 H   0  0  0  0  0  0  0  0  0  0  0  0
   59.2460   36.0620   46.9789 H   0  0  0  0  0  0  0  0  0  0  0  0
   60.8615   35.1811   48.6975 H   0  0  0  0  0  0  0  0  0  0  0  0
  1  2  2  0
  2  3  1  0
  3  4  2  0
  4  5  1  0
  5  6  1  0
  6  7  2  0
  7  8  1  0
  8  9  2  0
  9 10  1  0
 10 11  1  0
 11 12  1  0
 12 13  2  0
 13 14  1  0
 14 15  2  0
 15 16  1  0
 16 17  2  0
 17 18  1  0
 10 19  1  0
 19 20  2  0
 20 21  1  0
 21 22  2  0
 22 23  1  0
 23 24  2  0
  7 25  1  0
 25 26  2  0
 26 27  1  0
 27 28  2  0
 28  2  1  0
 28  6  1  0
 24  8  1  0
 17 12  1  0
 24 19  1  0
  4 29  1  0
  5 30  1  0
 11 31  1  0
 11 32  1  0
 13 33  1  0
 14 34  1  0
 15 35  1  0
 16 36  1  0
 18 37  1  0
 20 38  1  0
 21 39  1  0
 22 40  1  0
 23 41  1  0
 25 42  1  0
 26 43  1  0
 27 44  1  0
M  END
>  <smiles>  (85) 
O=c1nc[nH]c2c(-c3nn(Cc4ccccc4O)c4ccccc34)cccc12

>  <score_type>  (85) 
oracle

>  <origin>  (85) 
adg

>  <m_score__min__energy>  (85) 
-10.01

>  <m_primary>  (85) 
energy

$$$$
85:0
     RDKit          3D

 42 44  0  0  0  0  0  0  0  0999 V2000
   55.4880   29.2130   44.9820 O   0  0  0  0  0  0  0  0  0  0  0  0
   56.4270   29.8890   44.4860 C   0  0  0  0  0  0  0  0  0  0  0  0
   56.3710   31.3160   44.5400 N   0  0  0  0  0  0  0  0  0  0  0  0
   57.4650   32.1770   44.0980 C   0  0  0  0  0  0  0  0  0  0  0  0
   58.0380   32.9270   45.2730 C   0  0  0  0  0  0  0  0  0  0  0  0
   58.6140   34.1980   45.1000 C   0  0  0  0  0  0  0  0  0  0  0  0
   59.2180   34.8490   46.1800 C   0  0  0  0  0  0  0  0  0  0  0  0
   59.2460   34.2420   47.4390 C   0  0  0  0  0  0  0  0  0  0  0  0
   58.6640   32.9850   47.6220 C   0  0  0  0  0  0  0  0  0  0  0  0
   58.6930   32.3960   48.8420 F   0  0  0  0  0  0  0  0  0  0  0  0
   58.0620   32.3280   46.5430 C   0  0  0  0  0  0  0  0  0  0  0  0
   57.5490   29.2230   43.8960 N   0  0  0  0  0  0  0  0  0  0  0  0
   58.3260   28.2460   44.6050 C   0  0  0  0  0  0  0  0  0  0  0  0
   59.5730   28.6010   45.1330 C   0  0  0  0  0  0  0  0  0  0  0  0
   60.3060   27.6830   45.8870 C   0  0  0  0  0  0  0  0  0  0  0  0
   59.7880   26.4100   46.1420 C   0  0  0  0  0  0  0  0  0  0  0  0
   58.5330   26.0360   45.6340 C   0  0  0  0  0  0  0  0  0  0  0  0
   57.9510   24.7140   45.9840 C   0  0  0  0  0  0  0  0  0  0  0  0
   57.7340   24.4430   47.1970 O   0  0  0  0  0  0  0  0  0  0  0  0
   57.5870   23.7090   44.9590 C   0  0  0  0  0  0  0  0  0  0  0  0
   56.5440   23.9510   44.0460 C   0  0  0  0  0  0  0  0  0  0  0  0
   56.2110   22.9920   43.0850 C   0  0  0  0  0  0  0  0  0  0  0  0
   56.9210   21.7920   43.0170 C   0  0  0  0  0  0  0  0  0  0  0  0
   57.9720   21.5510   43.9060 C   0  0  0  0  0  0  0  0  0  0  0  0
   58.3080   22.5060   44.8690 C   0  0  0  0  0  0  0  0  0  0  0  0
   57.8090   26.9640   44.8630 C   0  0  0  0  0  0  0  0  0  0  0  0
   58.2524   31.5597   43.6408 H   0  0  0  0  0  0  0  0  0  0  0  0
   57.0816   32.8985   43.3615 H   0  0  0  0  0  0  0  0  0  0  0  0
   58.5894   34.6815   44.1123 H   0  0  0  0  0  0  0  0  0  0  0  0
   59.6721   35.8409   46.0387 H   0  0  0  0  0  0  0  0  0  0  0  0
   59.7263   34.7541   48.2858 H   0  0  0  0  0  0  0  0  0  0  0  0
   57.6056   31.3380   46.6902 H   0  0  0  0  0  0  0  0  0  0  0  0
   57.8420   29.5030   42.9340 H   0  0  0  0  0  0  0  0  0  0  0  0
   59.9771   29.6081   44.9529 H   0  0  0  0  0  0  0  0  0  0  0  0
   61.2941   27.9622   46.2816 H   0  0  0  0  0  0  0  0  0  0  0  0
   60.3676   25.6956   46.7451 H   0  0  0  0  0  0  0  0  0  0  0  0
   55.9881   24.8992   44.0887 H   0  0  0  0  0  0  0  0  0  0  0  0
   55.3878   23.1833   42.3809 H   0  0  0  0  0  0  0  0  0  0  0  0
   56.6533   21.0363   42.2638 H   0  0  0  0  0  0  0  0  0  0  0  0
   58.5355   20.6081   43.8475 H   0  0  0  0  0  0  0  0  0  0  0  0
   59.1417   22.3151   45.5607 H   0  0  0  0  0  0  0  0  0  0  0  0
   56.8261   26.6831   44.4569 H   0  0  0  0  0  0  0  0  0  0  0  0
  1  2  2  0
  2  3  1  0
  3  4  1  0
  4  5  1  0
  5  6  2  0
  6  7  1  0
  7  8  2  0
  8  9  1  0
  9 10  1  0
  9 11  2  0
  2 12  1  0
 12 13  1  0
 13 14  2  0
 14 15  1  0
 15 16  2  0
 16 17  1  0
 17 18  1  0
 18 19  2  0
 18 20  1  0
 20 21  2  0
 21 22  1  0
 22 23  2  0
 23 24  1  0
 24 25  2  0
 17 26  2  0
 11  5  1  0
 26 13  1  0
 25 20  1  0
  4 27  1  0
  4 28  1  0
  6 29  1  0
  7 30  1  0
  8 31  1  0
 11 32  1  0
 12 33  1  0
 14 34  1  0
 15 35  1  0
 16 36  1  0
 21 37  1  0
 22 38  1  0
 23 39  1  0
 24 40  1  0
 25 41  1  0
 26 42  1  0
M  CHG  1   3  -1
M  END
>  <UniqueID>  (86) 
77

>  <SMILES>  (86) 
O=C([N-]Cc1cccc(F)c1)Nc1cccc(C(=O)c2ccccc2)c1

>  <Energy>  (86) 
50.250251352300275

>  <Genealogy>  (86) 
O=C([N-]Cc1cccc(F)c1)Nc1cccc(C(=O)c2ccccc2)c1 (protonated)
O=C([N-]Cc1cccc(F)c1)Nc1cccc(C(=O)c2ccccc2)c1 (3D coordinates assigned)
O=C([N-]Cc1cccc(F)c1)Nc1cccc(C(=O)c2ccccc2)c1 (optimized conformer: 50.250251352300275 kcal/mol)

>  <smiles>  (86) 
O=C(NCc1cccc(F)c1)Nc1cccc(C(=O)c2ccccc2)c1

>  <score_type>  (86) 
oracle

>  <origin>  (86) 
adg

>  <m_score__min__energy>  (86) 
-11.16

>  <m_primary>  (86) 
energy

$$$$
86:0
     RDKit          3D

 52 56  0  0  0  0  0  0  0  0999 V2000
   57.0986   34.8654   44.3603 H   0  0  0  0  0  0  0  0  0  0  0  0
   57.8690   34.2980   44.9030 C   0  0  0  0  0  0  0  0  0  0  0  0
   57.7940   32.9410   44.9660 N   0  0  0  0  0  0  0  0  0  0  0  0
   58.7250   32.2080   45.6320 C   0  0  0  0  0  0  0  0  0  0  0  0
   58.6210   30.8570   45.6670 N   0  0  0  0  0  0  0  0  0  0  0  0
   59.5380   30.0910   46.3200 C   0  0  0  0  0  0  0  0  0  0  0  0
   59.3720   28.6180   46.3350 C   0  0  0  0  0  0  0  0  0  0  0  0
   58.7710   27.9410   45.2590 C   0  0  0  0  0  0  0  0  0  0  0  0
   58.4169   28.5091   44.3861 H   0  0  0  0  0  0  0  0  0  0  0  0
   58.6200   26.5510   45.2900 C   0  0  0  0  0  0  0  0  0  0  0  0
   58.1578   26.0330   44.4368 H   0  0  0  0  0  0  0  0  0  0  0  0
   59.0520   25.8150   46.3970 C   0  0  0  0  0  0  0  0  0  0  0  0
   58.9070   24.3860   46.3790 N   0  0  0  0  0  0  0  0  0  0  0  0
   57.6680   23.6660   46.4020 C   0  0  0  0  0  0  0  0  0  0  0  0
   57.3920   22.9610   47.4080 O   0  0  0  0  0  0  0  0  0  0  0  0
   56.7210   23.7420   45.3270 N   0  0  0  0  0  0  0  0  0  0  0  0
   55.5290   24.2560   45.4070 C   0  0  0  0  0  0  0  0  0  0  0  0
   55.2520   25.4940   45.8630 N   0  0  0  0  0  0  0  0  0  0  0  0
   53.9650   25.6440   45.7430 O   0  0  0  0  0  0  0  0  0  0  0  0
   53.4060   24.5680   45.2330 C   0  0  0  0  0  0  0  0  0  0  0  0
   51.9480   24.4270   44.9450 C   0  0  0  0  0  0  0  0  0  0  0  0
   51.3907   24.3731   45.8919 H   0  0  0  0  0  0  0  0  0  0  0  0
   51.6030   25.2960   44.3655 H   0  0  0  0  0  0  0  0  0  0  0  0
   51.7759   23.5080   44.3655 H   0  0  0  0  0  0  0  0  0  0  0  0
   54.3800   23.6260   44.9810 C   0  0  0  0  0  0  0  0  0  0  0  0
   54.2680   22.6212   44.5476 H   0  0  0  0  0  0  0  0  0  0  0  0
   59.6610   26.4860   47.4710 C   0  0  0  0  0  0  0  0  0  0  0  0
   60.0253   25.9145   48.3374 H   0  0  0  0  0  0  0  0  0  0  0  0
   59.8060   27.8740   47.4440 C   0  0  0  0  0  0  0  0  0  0  0  0
   60.2649   28.3902   48.3001 H   0  0  0  0  0  0  0  0  0  0  0  0
   60.5760   30.6940   46.9720 N   0  0  0  0  0  0  0  0  0  0  0  0
   61.2630   30.1230   47.5130 H   0  0  0  0  0  0  0  0  0  0  0  0
   60.7220   32.0500   46.9700 C   0  0  0  0  0  0  0  0  0  0  0  0
   61.8080   32.6480   47.6920 N   0  0  0  0  0  0  0  0  0  0  0  0
   61.5640   33.1240   49.0550 C   0  0  0  0  0  0  0  0  0  0  0  0
   60.5914   33.6366   49.0918 H   0  0  0  0  0  0  0  0  0  0  0  0
   61.5622   32.2632   49.7399 H   0  0  0  0  0  0  0  0  0  0  0  0
   62.6670   34.1000   49.4830 C   0  0  0  0  0  0  0  0  0  0  0  0
   62.5452   35.0436   48.9309 H   0  0  0  0  0  0  0  0  0  0  0  0
   62.5802   34.2706   50.5662 H   0  0  0  0  0  0  0  0  0  0  0  0
   63.9520   33.5700   49.2140 O   0  0  0  0  0  0  0  0  0  0  0  0
   64.1230   33.4220   47.8170 C   0  0  0  0  0  0  0  0  0  0  0  0
   63.9044   34.3796   47.3217 H   0  0  0  0  0  0  0  0  0  0  0  0
   65.1612   33.1199   47.6149 H   0  0  0  0  0  0  0  0  0  0  0  0
   63.1800   32.3480   47.2750 C   0  0  0  0  0  0  0  0  0  0  0  0
   63.2344   32.3326   46.1765 H   0  0  0  0  0  0  0  0  0  0  0  0
   63.4771   31.3654   47.6703 H   0  0  0  0  0  0  0  0  0  0  0  0
   59.7960   32.8480   46.2840 C   0  0  0  0  0  0  0  0  0  0  0  0
   59.8890   34.2480   46.2260 C   0  0  0  0  0  0  0  0  0  0  0  0
   60.7173   34.7690   46.7284 H   0  0  0  0  0  0  0  0  0  0  0  0
   58.9240   34.9740   45.5270 C   0  0  0  0  0  0  0  0  0  0  0  0
   58.9918   36.0702   45.4667 H   0  0  0  0  0  0  0  0  0  0  0  0
  1  2  1  0
  2  3  2  0
  3  4  1  0
  4  5  2  0
  5  6  1  0
  6  7  1  0
  7  8  2  0
  8  9  1  0
  8 10  1  0
 10 11  1  0
 10 12  2  0
 12 13  1  0
 13 14  1  0
 14 15  2  0
 14 16  1  0
 16 17  2  0
 17 18  1  0
 18 19  1  0
 19 20  1  0
 20 21  1  0
 21 22  1  0
 21 23  1  0
 21 24  1  0
 20 25  2  0
 25 26  1  0
 12 27  1  0
 27 28  1  0
 27 29  2  0
 29 30  1  0
  6 31  2  0
 31 32  1  0
 31 33  1  0
 33 34  1  0
 34 35  1  0
 35 36  1  0
 35 37  1  0
 35 38  1  0
 38 39  1  0
 38 40  1  0
 38 41  1  0
 41 42  1  0
 42 43  1  0
 42 44  1  0
 42 45  1  0
 45 46  1  0
 45 47  1  0
 33 48  2  0
 48 49  1  0
 49 50  1  0
 49 51  2  0
 51 52  1  0
 51  2  1  0
 48  4  1  0
 29  7  1  0
 45 34  1  0
 25 17  1  0
M  CHG  3  13  -1  18  -1  31   1
M  END
>  <UniqueID>  (87) 
78

>  <SMILES>  (87) 
Cc1c/c(=N/C(=O)[N-]c2ccc(-c3nc4ncccc4c(N4CCOCC4)[nH+]3)cc2)[n-]o1

>  <Energy>  (87) 
109.33623900782311

>  <Genealogy>  (87) 
Cc1cc(=NC(=O)[N-]c2ccc(-c3nc4ncccc4c(N4CCOCC4)[nH+]3)cc2)[n-]o1 (protonated)
Cc1c/c(=N/C(=O)[N-]c2ccc(-c3nc4ncccc4c(N4CCOCC4)[nH+]3)cc2)[n-]o1 (cis-trans isomerization)
Cc1c/c(=N/C(=O)[N-]c2ccc(-c3nc4ncccc4c(N4CCOCC4)[nH+]3)cc2)[n-]o1 (3D coordinates assigned)
Cc1c/c(=N/C(=O)[N-]c2ccc(-c3nc4ncccc4c(N4CCOCC4)[nH+]3)cc2)[n-]o1 (nonaromatic ring conformer: 109.33623900782311 kcal/mol)

>  <smiles>  (87) 
Cc1cc(=NC(=O)Nc2ccc(-c3nc(N4CCOCC4)c4cccnc4n3)cc2)[nH]o1

>  <score_type>  (87) 
oracle

>  <origin>  (87) 
adg

>  <m_score__min__energy>  (87) 
-10.609999999999999

>  <m_primary>  (87) 
energy

$$$$
87:0
     RDKit          3D

 54 57  0  0  0  0  0  0  0  0999 V2000
   57.5860   34.5870   44.8630 C   0  0  0  0  0  0  0  0  0  0  0  0
   58.3950   33.2910   44.8100 C   0  0  0  0  0  0  0  0  0  0  0  0
   57.8100   32.1920   45.7170 C   0  0  2  0  0  0  0  0  0  0  0  0
   58.4800   32.2050   47.0180 N   0  0  0  0  0  0  0  0  0  0  0  0
   59.3980   33.2060   47.4790 C   0  0  0  0  0  0  0  0  0  0  0  0
   58.9400   34.2740   47.9630 O   0  0  0  0  0  0  0  0  0  0  0  0
   60.8580   33.0400   47.3700 C   0  0  0  0  0  0  0  0  0  0  0  0
   61.5420   33.7870   46.3830 C   0  0  0  0  0  0  0  0  0  0  0  0
   62.9500   33.8490   46.3610 C   0  0  0  0  0  0  0  0  0  0  0  0
   63.7040   33.1930   47.3430 C   0  0  0  0  0  0  0  0  0  0  0  0
   63.0170   32.4620   48.3040 C   0  0  0  0  0  0  0  0  0  0  0  0
   63.4610   31.7470   49.3850 C   0  0  0  0  0  0  0  0  0  0  0  0
   64.6630   31.6050   49.7370 O   0  0  0  0  0  0  0  0  0  0  0  0
   62.4020   31.2040   50.0210 N   0  0  0  0  0  0  0  0  0  0  0  0
   62.4830   30.3480   51.2070 C   0  0  0  0  0  0  0  0  0  0  0  0
   61.2870   31.5160   49.3500 N   0  0  0  0  0  0  0  0  0  0  0  0
   59.9690   30.9150   49.6240 C   0  0  0  0  0  0  0  0  0  0  0  0
   59.7500   29.6550   48.8210 C   0  0  0  0  0  0  0  0  0  0  0  0
   60.7650   28.6860   48.7480 C   0  0  0  0  0  0  0  0  0  0  0  0
   60.5580   27.4970   48.0400 C   0  0  0  0  0  0  0  0  0  0  0  0
   59.3340   27.2610   47.4100 C   0  0  0  0  0  0  0  0  0  0  0  0
   59.0760   25.7700   46.5220 Cl  0  0  0  0  0  0  0  0  0  0  0  0
   58.3130   28.2130   47.4890 C   0  0  0  0  0  0  0  0  0  0  0  0
   58.5160   29.4010   48.1960 C   0  0  0  0  0  0  0  0  0  0  0  0
   61.6430   32.3390   48.3180 C   0  0  0  0  0  0  0  0  0  0  0  0
   57.9720   30.8220   45.0930 C   0  0  0  0  0  0  0  0  0  0  0  0
   56.8790   30.1920   44.4720 C   0  0  0  0  0  0  0  0  0  0  0  0
   57.0320   28.9370   43.8760 C   0  0  0  0  0  0  0  0  0  0  0  0
   58.2750   28.3000   43.8920 C   0  0  0  0  0  0  0  0  0  0  0  0
   59.3690   28.9180   44.5000 C   0  0  0  0  0  0  0  0  0  0  0  0
   59.2230   30.1750   45.0970 C   0  0  0  0  0  0  0  0  0  0  0  0
   57.4110   34.8674   45.9122 H   0  0  0  0  0  0  0  0  0  0  0  0
   58.1443   35.3887   44.3575 H   0  0  0  0  0  0  0  0  0  0  0  0
   56.6205   34.4375   44.3575 H   0  0  0  0  0  0  0  0  0  0  0  0
   58.4054   32.9240   43.7731 H   0  0  0  0  0  0  0  0  0  0  0  0
   59.4098   33.5159   45.1700 H   0  0  0  0  0  0  0  0  0  0  0  0
   56.7372   32.3992   45.8441 H   0  0  0  0  0  0  0  0  0  0  0  0
   60.9652   34.3291   45.6192 H   0  0  0  0  0  0  0  0  0  0  0  0
   63.4599   34.4158   45.5681 H   0  0  0  0  0  0  0  0  0  0  0  0
   64.8022   33.2547   47.3527 H   0  0  0  0  0  0  0  0  0  0  0  0
   62.4242   30.9697   52.1126 H   0  0  0  0  0  0  0  0  0  0  0  0
   61.6487   29.6312   51.1995 H   0  0  0  0  0  0  0  0  0  0  0  0
   63.4370   29.8004   51.1995 H   0  0  0  0  0  0  0  0  0  0  0  0
   59.9046   30.6708   50.6946 H   0  0  0  0  0  0  0  0  0  0  0  0
   59.1951   31.6422   49.3374 H   0  0  0  0  0  0  0  0  0  0  0  0
   61.7275   28.8631   49.2502 H   0  0  0  0  0  0  0  0  0  0  0  0
   61.3604   26.7470   47.9795 H   0  0  0  0  0  0  0  0  0  0  0  0
   57.3486   28.0265   46.9939 H   0  0  0  0  0  0  0  0  0  0  0  0
   57.7058   30.1420   48.2641 H   0  0  0  0  0  0  0  0  0  0  0  0
   55.8981   30.6896   44.4552 H   0  0  0  0  0  0  0  0  0  0  0  0
   56.1718   28.4500   43.3934 H   0  0  0  0  0  0  0  0  0  0  0  0
   58.3918   27.3108   43.4252 H   0  0  0  0  0  0  0  0  0  0  0  0
   60.3477   28.4159   44.5098 H   0  0  0  0  0  0  0  0  0  0  0  0
   60.0889   30.6599   45.5714 H   0  0  0  0  0  0  0  0  0  0  0  0
  1  2  1  0
  2  3  1  0
  3  4  1  0
  4  5  1  0
  5  6  2  0
  5  7  1  0
  7  8  2  0
  8  9  1  0
  9 10  2  0
 10 11  1  0
 11 12  1  0
 12 13  2  0
 12 14  1  0
 14 15  1  0
 14 16  1  0
 16 17  1  0
 17 18  1  0
 18 19  2  0
 19 20  1  0
 20 21  2  0
 21 22  1  0
 21 23  1  0
 23 24  2  0
 16 25  1  0
  3 26  1  0
 26 27  2  0
 27 28  1  0
 28 29  2  0
 29 30  1  0
 30 31  2  0
 25  7  1  0
 31 26  1  0
 25 11  2  0
 24 18  1  0
  1 32  1  0
  1 33  1  0
  1 34  1  0
  2 35  1  0
  2 36  1  0
  3 37  1  1
  8 38  1  0
  9 39  1  0
 10 40  1  0
 15 41  1  0
 15 42  1  0
 15 43  1  0
 17 44  1  0
 17 45  1  0
 19 46  1  0
 20 47  1  0
 23 48  1  0
 24 49  1  0
 27 50  1  0
 28 51  1  0
 29 52  1  0
 30 53  1  0
 31 54  1  0
M  CHG  1   4  -1
M  END
>  <UniqueID>  (88) 
79

>  <SMILES>  (88) 
CC[C@H]([N-]C(=O)c1cccc2c(=O)n(C)n(Cc3ccc(Cl)cc3)c12)c1ccccc1

>  <Energy>  (88) 
105.63966493017959

>  <Genealogy>  (88) 
CCC([N-]C(=O)c1cccc2c(=O)n(C)n(Cc3ccc(Cl)cc3)c12)c1ccccc1 (protonated)
CC[C@H]([N-]C(=O)c1cccc2c(=O)n(C)n(Cc3ccc(Cl)cc3)c12)c1ccccc1 (chirality)
CC[C@H]([N-]C(=O)c1cccc2c(=O)n(C)n(Cc3ccc(Cl)cc3)c12)c1ccccc1 (3D coordinates assigned)
CC[C@H]([N-]C(=O)c1cccc2c(=O)n(C)n(Cc3ccc(Cl)cc3)c12)c1ccccc1 (optimized conformer: 105.63966493017959 kcal/mol)

>  <smiles>  (88) 
CCC(NC(=O)c1cccc2c(=O)n(C)n(Cc3ccc(Cl)cc3)c12)c1ccccc1

>  <score_type>  (88) 
oracle

>  <origin>  (88) 
adg

>  <m_score__min__energy>  (88) 
-10.359999999999999

>  <m_primary>  (88) 
energy

$$$$
88:0
     RDKit          3D

 51 55  0  0  0  0  0  0  0  0999 V2000
   55.9040   28.4560   45.2360 O   0  0  0  0  0  0  0  0  0  0  0  0
   57.0910   28.7390   44.9210 C   0  0  0  0  0  0  0  0  0  0  0  0
   58.1560   27.8030   45.1600 N   0  0  0  0  0  0  0  0  0  0  0  0
   57.9700   26.5000   45.7370 C   0  0  0  0  0  0  0  0  0  0  0  0
   57.6570   25.3820   44.9420 C   0  0  0  0  0  0  0  0  0  0  0  0
   57.4570   24.1300   45.5340 C   0  0  0  0  0  0  0  0  0  0  0  0
   57.5530   23.9870   46.9210 C   0  0  0  0  0  0  0  0  0  0  0  0
   57.3560   22.7430   47.5070 O   0  0  0  0  0  0  0  0  0  0  0  0
   57.8420   25.0970   47.7190 C   0  0  0  0  0  0  0  0  0  0  0  0
   58.0410   26.3510   47.1310 C   0  0  0  0  0  0  0  0  0  0  0  0
   57.3750   30.0520   44.3090 C   0  0  0  0  0  0  0  0  0  0  0  0
   56.9800   30.2590   42.9790 C   0  0  0  0  0  0  0  0  0  0  0  0
   57.1790   31.4930   42.3620 C   0  0  0  0  0  0  0  0  0  0  0  0
   57.7840   32.5360   43.0600 C   0  0  0  0  0  0  0  0  0  0  0  0
   58.2160   32.3470   44.3820 C   0  0  0  0  0  0  0  0  0  0  0  0
   58.0340   31.0930   45.0130 C   0  0  0  0  0  0  0  0  0  0  0  0
   58.5090   30.9120   46.4440 C   0  0  0  0  0  0  0  0  0  0  0  0
   59.7560   31.7530   46.7320 C   0  0  0  0  0  0  0  0  0  0  0  0
   59.5200   33.1560   46.3790 N   0  0  0  0  0  0  0  0  0  0  0  0
   60.0530   34.2320   47.2220 C   0  0  0  0  0  0  0  0  0  0  0  0
   61.4440   33.8910   47.6820 C   0  0  0  0  0  0  0  0  0  0  0  0
   62.4650   33.6450   46.7280 C   0  0  0  0  0  0  0  0  0  0  0  0
   63.7790   33.3590   47.1400 C   0  0  0  0  0  0  0  0  0  0  0  0
   64.0410   33.3310   48.5080 C   0  0  0  0  0  0  0  0  0  0  0  0
   65.2150   33.0830   49.1100 N   0  0  0  0  0  0  0  0  0  0  0  0
   64.9750   33.1690   50.4380 C   0  0  0  0  0  0  0  0  0  0  0  0
   63.6390   33.4740   50.6800 C   0  0  0  0  0  0  0  0  0  0  0  0
   63.0610   33.5710   49.4330 C   0  0  0  0  0  0  0  0  0  0  0  0
   61.7500   33.8580   49.0610 C   0  0  0  0  0  0  0  0  0  0  0  0
   58.8850   33.4420   45.1200 C   0  0  0  0  0  0  0  0  0  0  0  0
   58.8880   34.6150   44.6560 O   0  0  0  0  0  0  0  0  0  0  0  0
   59.1140   28.0480   44.8230 H   0  0  0  0  0  0  0  0  0  0  0  0
   57.5692   25.4926   43.8511 H   0  0  0  0  0  0  0  0  0  0  0  0
   57.2239   23.2569   44.9068 H   0  0  0  0  0  0  0  0  0  0  0  0
   57.9132   24.9849   48.8110 H   0  0  0  0  0  0  0  0  0  0  0  0
   58.2542   27.2247   47.7645 H   0  0  0  0  0  0  0  0  0  0  0  0
   56.5084   29.4392   42.4173 H   0  0  0  0  0  0  0  0  0  0  0  0
   56.8574   31.6438   41.3209 H   0  0  0  0  0  0  0  0  0  0  0  0
   57.9238   33.5122   42.5727 H   0  0  0  0  0  0  0  0  0  0  0  0
   57.7049   31.2188   47.1290 H   0  0  0  0  0  0  0  0  0  0  0  0
   58.7657   29.8525   46.5911 H   0  0  0  0  0  0  0  0  0  0  0  0
   59.9996   31.6848   47.8025 H   0  0  0  0  0  0  0  0  0  0  0  0
   60.5918   31.3694   46.1285 H   0  0  0  0  0  0  0  0  0  0  0  0
   60.0807   35.1671   46.6433 H   0  0  0  0  0  0  0  0  0  0  0  0
   59.4038   34.3538   48.1016 H   0  0  0  0  0  0  0  0  0  0  0  0
   62.2263   33.6783   45.6547 H   0  0  0  0  0  0  0  0  0  0  0  0
   64.5743   33.1637   46.4056 H   0  0  0  0  0  0  0  0  0  0  0  0
   66.1290   32.8690   48.6510 H   0  0  0  0  0  0  0  0  0  0  0  0
   65.7330   33.0183   51.2208 H   0  0  0  0  0  0  0  0  0  0  0  0
   63.1500   33.6086   51.6561 H   0  0  0  0  0  0  0  0  0  0  0  0
   60.9761   34.0531   49.8179 H   0  0  0  0  0  0  0  0  0  0  0  0
  1  2  2  0
  2  3  1  0
  3  4  1  0
  4  5  2  0
  5  6  1  0
  6  7  2  0
  7  8  1  0
  7  9  1  0
  9 10  2  0
  2 11  1  0
 11 12  2  0
 12 13  1  0
 13 14  2  0
 14 15  1  0
 15 16  2  0
 16 17  1  0
 17 18  1  0
 18 19  1  0
 19 20  1  0
 20 21  1  0
 21 22  2  0
 22 23  1  0
 23 24  2  0
 24 25  1  0
 25 26  1  0
 26 27  2  0
 27 28  1  0
 28 29  2  0
 19 30  1  0
 30 31  2  0
 10  4  1  0
 16 11  1  0
 29 21  1  0
 30 15  1  0
 28 24  1  0
  3 32  1  0
  5 33  1  0
  6 34  1  0
  9 35  1  0
 10 36  1  0
 12 37  1  0
 13 38  1  0
 14 39  1  0
 17 40  1  0
 17 41  1  0
 18 42  1  0
 18 43  1  0
 20 44  1  0
 20 45  1  0
 22 46  1  0
 23 47  1  0
 25 48  1  0
 26 49  1  0
 27 50  1  0
 29 51  1  0
M  CHG  1   8  -1
M  END
>  <UniqueID>  (89) 
80

>  <SMILES>  (89) 
O=C(Nc1ccc([O-])cc1)c1cccc2c1CCN(Cc1ccc3[nH]ccc3c1)C2=O

>  <Energy>  (89) 
99.90405535314281

>  <Genealogy>  (89) 
O=C(Nc1ccc([O-])cc1)c1cccc2c1CCN(Cc1ccc3[nH]ccc3c1)C2=O (protonated)
O=C(Nc1ccc([O-])cc1)c1cccc2c1CCN(Cc1ccc3[nH]ccc3c1)C2=O (3D coordinates assigned)
O=C(Nc1ccc([O-])cc1)c1cccc2c1CCN(Cc1ccc3[nH]ccc3c1)C2=O (nonaromatic ring conformer: 99.90405535314281 kcal/mol)

>  <smiles>  (89) 
O=C(Nc1ccc(O)cc1)c1cccc2c1CCN(Cc1ccc3[nH]ccc3c1)C2=O

>  <score_type>  (89) 
oracle

>  <origin>  (89) 
adg

>  <m_score__min__energy>  (89) 
-12.35

>  <m_primary>  (89) 
energy

$$$$
89:0
     RDKit          3D

 54 58  0  0  0  0  0  0  0  0999 V2000
   58.4525   21.1772   45.0278 H   0  0  0  0  0  0  0  0  0  0  0  0
   57.6680   21.9370   45.1590 C   0  0  0  0  0  0  0  0  0  0  0  0
   57.9170   23.2640   44.8010 C   0  0  0  0  0  0  0  0  0  0  0  0
   58.8974   23.5438   44.3882 H   0  0  0  0  0  0  0  0  0  0  0  0
   56.9220   24.2450   44.9650 C   0  0  0  0  0  0  0  0  0  0  0  0
   57.1840   25.6560   44.5830 C   0  0  0  0  0  0  0  0  0  0  0  0
   57.8940   25.9660   43.3930 C   0  0  0  0  0  0  0  0  0  0  0  0
   58.2521   25.1522   42.7453 H   0  0  0  0  0  0  0  0  0  0  0  0
   58.1440   27.3010   43.0340 C   0  0  0  0  0  0  0  0  0  0  0  0
   58.6939   27.5509   42.1147 H   0  0  0  0  0  0  0  0  0  0  0  0
   57.6710   28.2940   43.8830 C   0  0  0  0  0  0  0  0  0  0  0  0
   57.8110   29.6210   43.7230 N   0  0  0  0  0  0  0  0  0  0  0  0
   57.1680   30.0830   44.8300 C   0  0  0  0  0  0  0  0  0  0  0  0
   57.0660   31.3420   45.1420 N   0  0  0  0  0  0  0  0  0  0  0  0
   57.9870   32.1020   45.9430 C   0  0  0  0  0  0  0  0  0  0  0  0
   57.6310   33.4010   46.3190 C   0  0  0  0  0  0  0  0  0  0  0  0
   56.6572   33.8102   46.0122 H   0  0  0  0  0  0  0  0  0  0  0  0
   58.5020   34.1830   47.0810 C   0  0  0  0  0  0  0  0  0  0  0  0
   58.2058   35.2000   47.3777 H   0  0  0  0  0  0  0  0  0  0  0  0
   59.7510   33.6800   47.4700 C   0  0  0  0  0  0  0  0  0  0  0  0
   60.1450   32.3930   47.0460 C   0  0  0  0  0  0  0  0  0  0  0  0
   59.2570   31.6100   46.2920 C   0  0  0  0  0  0  0  0  0  0  0  0
   59.5576   30.6017   45.9711 H   0  0  0  0  0  0  0  0  0  0  0  0
   61.4730   31.8070   47.4700 C   0  0  0  0  0  0  0  0  0  0  0  0
   61.3027   31.1358   48.3247 H   0  0  0  0  0  0  0  0  0  0  0  0
   61.8876   31.2721   46.6028 H   0  0  0  0  0  0  0  0  0  0  0  0
   62.4580   32.8330   47.8670 N   0  0  0  0  0  0  0  0  0  0  0  0
   63.0640   33.4960   46.6990 C   0  0  0  0  0  0  0  0  0  0  0  0
   63.7694   34.2678   47.0406 H   0  0  0  0  0  0  0  0  0  0  0  0
   63.6004   32.7516   46.0922 H   0  0  0  0  0  0  0  0  0  0  0  0
   62.2745   33.9635   46.0922 H   0  0  0  0  0  0  0  0  0  0  0  0
   61.8800   33.7910   48.8290 C   0  0  0  0  0  0  0  0  0  0  0  0
   61.5372   33.2373   49.7155 H   0  0  0  0  0  0  0  0  0  0  0  0
   62.6624   34.5205   49.0854 H   0  0  0  0  0  0  0  0  0  0  0  0
   60.6910   34.5680   48.2430 C   0  0  0  0  0  0  0  0  0  0  0  0
   60.1352   35.0383   49.0675 H   0  0  0  0  0  0  0  0  0  0  0  0
   61.0913   35.3199   47.5470 H   0  0  0  0  0  0  0  0  0  0  0  0
   56.6780   29.1040   45.6230 N   0  0  0  0  0  0  0  0  0  0  0  0
   57.0040   27.9880   45.0010 N   0  0  0  0  0  0  0  0  0  0  0  0
   56.7360   26.7200   45.3960 C   0  0  0  0  0  0  0  0  0  0  0  0
   56.1833   26.5243   46.3267 H   0  0  0  0  0  0  0  0  0  0  0  0
   55.6750   23.8680   45.4950 C   0  0  0  0  0  0  0  0  0  0  0  0
   54.8877   24.6248   45.6267 H   0  0  0  0  0  0  0  0  0  0  0  0
   55.4260   22.5370   45.8570 C   0  0  0  0  0  0  0  0  0  0  0  0
   53.8460   22.0850   46.4960 S   0  0  0  0  0  0  0  0  0  0  0  0
   53.5300   22.9550   47.6790 O   0  0  0  0  0  0  0  0  0  0  0  0
   53.8600   20.6510   46.9480 O   0  0  0  0  0  0  0  0  0  0  0  0
   52.6230   22.3060   45.2840 N   0  0  0  0  0  0  0  0  0  0  0  0
   52.3750   23.7300   45.0850 C   0  0  0  0  0  0  0  0  0  0  0  0
   52.2884   24.2272   46.0624 H   0  0  0  0  0  0  0  0  0  0  0  0
   53.2096   24.1723   44.5213 H   0  0  0  0  0  0  0  0  0  0  0  0
   51.4400   23.8641   44.5213 H   0  0  0  0  0  0  0  0  0  0  0  0
   56.4260   21.5720   45.6830 C   0  0  0  0  0  0  0  0  0  0  0  0
   56.2329   20.5250   45.9595 H   0  0  0  0  0  0  0  0  0  0  0  0
  1  2  1  0
  2  3  2  0
  3  4  1  0
  3  5  1  0
  5  6  1  0
  6  7  1  0
  7  8  1  0
  7  9  2  0
  9 10  1  0
  9 11  1  0
 11 12  2  0
 12 13  1  0
 13 14  2  0
 14 15  1  0
 15 16  2  0
 16 17  1  0
 16 18  1  0
 18 19  1  0
 18 20  2  0
 20 21  1  0
 21 22  2  0
 22 23  1  0
 21 24  1  0
 24 25  1  0
 24 26  1  0
 24 27  1  0
 27 28  1  0
 28 29  1  0
 28 30  1  0
 28 31  1  0
 27 32  1  0
 32 33  1  0
 32 34  1  0
 32 35  1  0
 35 36  1  0
 35 37  1  0
 13 38  1  0
 38 39  1  0
 39 40  1  0
 40 41  1  0
  5 42  2  0
 42 43  1  0
 42 44  1  0
 44 45  1  0
 45 46  2  0
 45 47  2  0
 45 48  1  0
 48 49  1  0
 49 50  1  0
 49 51  1  0
 49 52  1  0
 44 53  2  0
 53 54  1  0
 53  2  1  0
 40  6  2  0
 39 11  1  0
 22 15  1  0
 35 20  1  0
M  CHG  2  38  -1  48  -1
M  END
>  <UniqueID>  (90) 
81

>  <SMILES>  (90) 
C[N-]S(=O)(=O)c1cccc(-c2ccc3n/c(=N\c4ccc5c(c4)CN(C)CC5)[n-]n3c2)c1

>  <Energy>  (90) 
112.06720755525065

>  <Genealogy>  (90) 
C[N-]S(=O)(=O)c1cccc(-c2ccc3nc(=Nc4ccc5c(c4)CN(C)CC5)[n-]n3c2)c1 (protonated)
C[N-]S(=O)(=O)c1cccc(-c2ccc3n/c(=N\c4ccc5c(c4)CN(C)CC5)[n-]n3c2)c1 (cis-trans isomerization)
C[N-]S(=O)(=O)c1cccc(-c2ccc3n/c(=N\c4ccc5c(c4)CN(C)CC5)[n-]n3c2)c1 (3D coordinates assigned)
C[N-]S(=O)(=O)c1cccc(-c2ccc3n/c(=N\c4ccc5c(c4)CN(C)CC5)[n-]n3c2)c1 (nonaromatic ring conformer: 112.06720755525065 kcal/mol)

>  <smiles>  (90) 
CNS(=O)(=O)c1cccc(-c2ccc3nc(=Nc4ccc5c(c4)CN(C)CC5)[nH]n3c2)c1

>  <score_type>  (90) 
oracle

>  <origin>  (90) 
adg

>  <m_score__min__energy>  (90) 
-11.94

>  <m_primary>  (90) 
energy

$$$$
90:0
     RDKit          3D

 38 40  0  0  0  0  0  0  0  0999 V2000
   51.2930   23.3580   45.2140 C   0  0  0  0  0  0  0  0  0  0  0  0
   52.5030   22.6080   45.1670 O   0  0  0  0  0  0  0  0  0  0  0  0
   53.7830   23.1590   45.3290 C   0  0  0  0  0  0  0  0  0  0  0  0
   54.9540   22.3820   45.2460 C   0  0  0  0  0  0  0  0  0  0  0  0
   56.2090   22.9740   45.4140 C   0  0  0  0  0  0  0  0  0  0  0  0
   56.3160   24.3540   45.6680 C   0  0  0  0  0  0  0  0  0  0  0  0
   57.5630   24.9860   45.8400 C   0  0  0  0  0  0  0  0  0  0  0  0
   58.6290   24.3160   45.7570 O   0  0  0  0  0  0  0  0  0  0  0  0
   57.6170   26.3740   46.0860 C   0  0  0  0  0  0  0  0  0  0  0  0
   58.9120   27.0770   46.2770 C   0  0  0  0  0  0  0  0  0  0  0  0
   59.6730   26.7200   47.2180 O   0  0  0  0  0  0  0  0  0  0  0  0
   59.3050   28.1690   45.4200 N   0  0  0  0  0  0  0  0  0  0  0  0
   60.7040   28.2680   44.9940 C   0  0  0  0  0  0  0  0  0  0  0  0
   58.3110   28.9880   44.7710 C   0  0  0  0  0  0  0  0  0  0  0  0
   57.6200   28.5120   43.6430 C   0  0  0  0  0  0  0  0  0  0  0  0
   56.6450   29.3020   43.0280 C   0  0  0  0  0  0  0  0  0  0  0  0
   56.3510   30.5710   43.5320 C   0  0  0  0  0  0  0  0  0  0  0  0
   57.0310   31.0520   44.6540 C   0  0  0  0  0  0  0  0  0  0  0  0
   58.0070   30.2650   45.2730 C   0  0  0  0  0  0  0  0  0  0  0  0
   56.4130   27.0920   46.1660 C   0  0  0  0  0  0  0  0  0  0  0  0
   55.2220   26.4630   45.9970 N   0  0  0  0  0  0  0  0  0  0  0  0
   55.1400   25.1310   45.7510 C   0  0  0  0  0  0  0  0  0  0  0  0
   53.8870   24.5310   45.5820 C   0  0  0  0  0  0  0  0  0  0  0  0
   51.0106   23.5330   46.2626 H   0  0  0  0  0  0  0  0  0  0  0  0
   51.4401   24.3235   44.7078 H   0  0  0  0  0  0  0  0  0  0  0  0
   50.4938   22.7967   44.7078 H   0  0  0  0  0  0  0  0  0  0  0  0
   54.8809   21.3025   45.0477 H   0  0  0  0  0  0  0  0  0  0  0  0
   57.1178   22.3579   45.3473 H   0  0  0  0  0  0  0  0  0  0  0  0
   61.3546   28.3140   45.8798 H   0  0  0  0  0  0  0  0  0  0  0  0
   60.9670   27.3862   44.3913 H   0  0  0  0  0  0  0  0  0  0  0  0
   60.8402   29.1780   44.3913 H   0  0  0  0  0  0  0  0  0  0  0  0
   57.8478   27.5131   43.2426 H   0  0  0  0  0  0  0  0  0  0  0  0
   56.1082   28.9238   42.1455 H   0  0  0  0  0  0  0  0  0  0  0  0
   55.5841   31.1918   43.0457 H   0  0  0  0  0  0  0  0  0  0  0  0
   56.7981   32.0512   45.0508 H   0  0  0  0  0  0  0  0  0  0  0  0
   58.5392   30.6470   46.1567 H   0  0  0  0  0  0  0  0  0  0  0  0
   56.4351   28.1732   46.3673 H   0  0  0  0  0  0  0  0  0  0  0  0
   52.9758   25.1436   45.6487 H   0  0  0  0  0  0  0  0  0  0  0  0
  1  2  1  0
  2  3  1  0
  3  4  2  0
  4  5  1  0
  5  6  2  0
  6  7  1  0
  7  8  2  0
  7  9  1  0
  9 10  1  0
 10 11  2  0
 10 12  1  0
 12 13  1  0
 12 14  1  0
 14 15  2  0
 15 16  1  0
 16 17  2  0
 17 18  1  0
 18 19  2  0
  9 20  2  0
 20 21  1  0
 21 22  1  0
 22 23  2  0
 23  3  1  0
 22  6  1  0
 19 14  1  0
  1 24  1  0
  1 25  1  0
  1 26  1  0
  4 27  1  0
  5 28  1  0
 13 29  1  0
 13 30  1  0
 13 31  1  0
 15 32  1  0
 16 33  1  0
 17 34  1  0
 18 35  1  0
 19 36  1  0
 20 37  1  0
 23 38  1  0
M  CHG  1  21  -1
M  END
>  <UniqueID>  (91) 
82

>  <SMILES>  (91) 
COc1ccc2c(=O)c(C(=O)N(C)c3ccccc3)c[n-]c2c1

>  <Energy>  (91) 
54.74680990312586

>  <Genealogy>  (91) 
COc1ccc2c(=O)c(C(=O)N(C)c3ccccc3)c[n-]c2c1 (protonated)
COc1ccc2c(=O)c(C(=O)N(C)c3ccccc3)c[n-]c2c1 (3D coordinates assigned)
COc1ccc2c(=O)c(C(=O)N(C)c3ccccc3)c[n-]c2c1 (optimized conformer: 54.74680990312586 kcal/mol)

>  <smiles>  (91) 
COc1ccc2c(=O)c(C(=O)N(C)c3ccccc3)c[nH]c2c1

>  <score_type>  (91) 
oracle

>  <origin>  (91) 
adg

>  <m_score__min__energy>  (91) 
-9.0600000000000005

>  <m_primary>  (91) 
energy

$$$$
91:0
     RDKit          3D

 30 32  0  0  0  0  0  0  0  0999 V2000
   57.9280   33.9560   45.1340 C   0  0  0  0  0  0  0  0  0  0  0  0
   57.9100   32.4650   45.2970 C   0  0  0  0  0  0  0  0  0  0  0  0
   58.6200   31.8610   46.3430 C   0  0  0  0  0  0  0  0  0  0  0  0
   58.6360   30.4700   46.4740 C   0  0  0  0  0  0  0  0  0  0  0  0
   57.9450   29.6560   45.5590 C   0  0  0  0  0  0  0  0  0  0  0  0
   57.9870   28.1800   45.7170 C   0  0  0  0  0  0  0  0  0  0  0  0
   59.2000   27.4750   45.7770 C   0  0  0  0  0  0  0  0  0  0  0  0
   59.1820   26.0870   45.9250 C   0  0  0  0  0  0  0  0  0  0  0  0
   60.2760   25.4630   45.9770 O   0  0  0  0  0  0  0  0  0  0  0  0
   57.9480   25.4140   46.0090 C   0  0  0  0  0  0  0  0  0  0  0  0
   57.8400   24.0120   46.1620 C   0  0  0  0  0  0  0  0  0  0  0  0
   58.9700   23.2020   46.2440 O   0  0  0  0  0  0  0  0  0  0  0  0
   56.5790   23.4110   46.2320 C   0  0  0  0  0  0  0  0  0  0  0  0
   55.4210   24.1870   46.1540 C   0  0  0  0  0  0  0  0  0  0  0  0
   55.5120   25.5730   46.0030 C   0  0  0  0  0  0  0  0  0  0  0  0
   54.3520   26.3350   45.9260 O   0  0  0  0  0  0  0  0  0  0  0  0
   56.7670   26.1910   45.9320 C   0  0  0  0  0  0  0  0  0  0  0  0
   56.8380   27.5120   45.7900 O   0  0  0  0  0  0  0  0  0  0  0  0
   57.2600   30.2670   44.4910 C   0  0  0  0  0  0  0  0  0  0  0  0
   57.2460   31.6590   44.3620 C   0  0  0  0  0  0  0  0  0  0  0  0
   57.9338   34.4332   46.1251 H   0  0  0  0  0  0  0  0  0  0  0  0
   58.8298   34.2533   44.5787 H   0  0  0  0  0  0  0  0  0  0  0  0
   57.0336   34.2750   44.5787 H   0  0  0  0  0  0  0  0  0  0  0  0
   59.1676   32.4850   47.0647 H   0  0  0  0  0  0  0  0  0  0  0  0
   59.1946   30.0072   47.3009 H   0  0  0  0  0  0  0  0  0  0  0  0
   60.1573   28.0125   45.7079 H   0  0  0  0  0  0  0  0  0  0  0  0
   56.4991   22.3202   46.3492 H   0  0  0  0  0  0  0  0  0  0  0  0
   54.4336   23.7056   46.2116 H   0  0  0  0  0  0  0  0  0  0  0  0
   56.7323   29.6447   43.7532 H   0  0  0  0  0  0  0  0  0  0  0  0
   56.7105   32.1246   43.5215 H   0  0  0  0  0  0  0  0  0  0  0  0
  1  2  1  0
  2  3  2  0
  3  4  1  0
  4  5  2  0
  5  6  1  0
  6  7  2  0
  7  8  1  0
  8  9  2  0
  8 10  1  0
 10 11  2  0
 11 12  1  0
 11 13  1  0
 13 14  2  0
 14 15  1  0
 15 16  1  0
 15 17  2  0
 17 18  1  0
  5 19  1  0
 19 20  2  0
 20  2  1  0
 18  6  1  0
 17 10  1  0
  1 21  1  0
  1 22  1  0
  1 23  1  0
  3 24  1  0
  4 25  1  0
  7 26  1  0
 13 27  1  0
 14 28  1  0
 19 29  1  0
 20 30  1  0
M  CHG  2  12  -1  16  -1
M  END
>  <UniqueID>  (92) 
83

>  <SMILES>  (92) 
Cc1ccc(-c2cc(=O)c3c([O-])ccc([O-])c3o2)cc1

>  <Energy>  (92) 
42.73441094200749

>  <Genealogy>  (92) 
Cc1ccc(-c2cc(=O)c3c([O-])ccc([O-])c3o2)cc1 (protonated)
Cc1ccc(-c2cc(=O)c3c([O-])ccc([O-])c3o2)cc1 (3D coordinates assigned)
Cc1ccc(-c2cc(=O)c3c([O-])ccc([O-])c3o2)cc1 (optimized conformer: 42.73441094200749 kcal/mol)

>  <smiles>  (92) 
Cc1ccc(-c2cc(=O)c3c(O)ccc(O)c3o2)cc1

>  <score_type>  (92) 
oracle

>  <origin>  (92) 
adg

>  <m_score__min__energy>  (92) 
-12.51

>  <m_primary>  (92) 
energy

$$$$
92:0
     RDKit          3D

 27 28  0  0  0  0  0  0  0  0999 V2000
   57.4790   31.6020   51.2780 C   0  0  0  0  0  0  0  0  0  0  0  0
   56.8610   30.3520   51.5650 O   0  0  0  0  0  0  0  0  0  0  0  0
   56.4380   29.9460   52.8420 C   0  0  0  0  0  0  0  0  0  0  0  0
   57.2670   30.0800   53.9750 C   0  0  0  0  0  0  0  0  0  0  0  0
   56.7980   29.7210   55.2410 C   0  0  0  0  0  0  0  0  0  0  0  0
   55.4990   29.2350   55.3940 C   0  0  0  0  0  0  0  0  0  0  0  0
   54.6710   29.0900   54.2780 C   0  0  0  0  0  0  0  0  0  0  0  0
   55.1380   29.4180   53.0000 C   0  0  0  0  0  0  0  0  0  0  0  0
   54.2700   29.2470   51.9120 O   0  0  0  0  0  0  0  0  0  0  0  0
   52.8740   29.3260   51.9940 C   0  0  0  0  0  0  0  0  0  0  0  0
   52.2530   28.6420   52.8540 O   0  0  0  0  0  0  0  0  0  0  0  0
   52.1380   30.2520   51.0960 C   0  0  0  0  0  0  0  0  0  0  0  0
   51.8400   29.8600   49.7810 C   0  0  0  0  0  0  0  0  0  0  0  0
   51.1660   30.6980   48.9510 N   0  0  0  0  0  0  0  0  0  0  0  0
   50.7670   31.9250   49.3700 C   0  0  0  0  0  0  0  0  0  0  0  0
   50.1440   32.6850   48.5850 O   0  0  0  0  0  0  0  0  0  0  0  0
   51.0380   32.3320   50.6360 N   0  0  0  0  0  0  0  0  0  0  0  0
   51.7090   31.5320   51.5050 C   0  0  0  0  0  0  0  0  0  0  0  0
   51.9350   31.9530   52.6710 O   0  0  0  0  0  0  0  0  0  0  0  0
   57.7308   32.1114   52.2199 H   0  0  0  0  0  0  0  0  0  0  0  0
   58.3970   31.4322   50.6962 H   0  0  0  0  0  0  0  0  0  0  0  0
   56.7867   32.2283   50.6962 H   0  0  0  0  0  0  0  0  0  0  0  0
   58.2894   30.4697   53.8612 H   0  0  0  0  0  0  0  0  0  0  0  0
   57.4537   29.8216   56.1185 H   0  0  0  0  0  0  0  0  0  0  0  0
   55.1267   28.9660   56.3935 H   0  0  0  0  0  0  0  0  0  0  0  0
   53.6446   28.7153   54.4047 H   0  0  0  0  0  0  0  0  0  0  0  0
   52.1540   28.8691   49.4210 H   0  0  0  0  0  0  0  0  0  0  0  0
  1  2  1  0
  2  3  1  0
  3  4  2  0
  4  5  1  0
  5  6  2  0
  6  7  1  0
  7  8  2  0
  8  9  1  0
  9 10  1  0
 10 11  2  0
 10 12  1  0
 12 13  2  0
 13 14  1  0
 14 15  1  0
 15 16  2  0
 15 17  1  0
 17 18  1  0
 18 19  2  0
  8  3  1  0
 18 12  1  0
  1 20  1  0
  1 21  1  0
  1 22  1  0
  4 23  1  0
  5 24  1  0
  6 25  1  0
  7 26  1  0
 13 27  1  0
M  CHG  2  14  -1  17  -1
M  END
>  <UniqueID>  (93) 
84

>  <SMILES>  (93) 
COc1ccccc1OC(=O)c1c[n-]c(=O)[n-]c1=O

>  <Energy>  (93) 
36.84627186074461

>  <Genealogy>  (93) 
COc1ccccc1OC(=O)c1c[n-]c(=O)[n-]c1=O (protonated)
COc1ccccc1OC(=O)c1c[n-]c(=O)[n-]c1=O (3D coordinates assigned)
COc1ccccc1OC(=O)c1c[n-]c(=O)[n-]c1=O (optimized conformer: 36.84627186074461 kcal/mol)

>  <smiles>  (93) 
COc1ccccc1OC(=O)c1c[nH]c(=O)[nH]c1=O

>  <score_type>  (93) 
oracle

>  <origin>  (93) 
adg

>  <m_score__min__energy>  (93) 
-11.08

>  <m_primary>  (93) 
energy

$$$$
93:0
     RDKit          3D

 77 81  0  0  0  0  0  0  0  0999 V2000
   50.6450   31.8280   48.8570 C   0  0  0  0  0  0  0  0  0  0  0  0
   51.0310   32.3360   50.1290 O   0  0  0  0  0  0  0  0  0  0  0  0
   51.7000   31.5840   51.1070 C   0  0  0  0  0  0  0  0  0  0  0  0
   51.0630   31.1250   52.2720 C   0  0  0  0  0  0  0  0  0  0  0  0
   51.7970   30.3940   53.2090 C   0  0  0  0  0  0  0  0  0  0  0  0
   53.1040   30.1050   52.9770 N   0  0  0  0  0  0  0  0  0  0  0  0
   53.7500   30.4930   51.8470 C   0  0  0  0  0  0  0  0  0  0  0  0
   54.9910   30.1170   51.6990 N   0  0  0  0  0  0  0  0  0  0  0  0
   56.2090   30.6900   52.2050 C   0  0  0  0  0  0  0  0  0  0  0  0
   56.1680   31.3080   53.3000 O   0  0  0  0  0  0  0  0  0  0  0  0
   57.4710   30.4510   51.5770 N   0  0  0  0  0  0  0  0  0  0  0  0
   58.5050   31.7420   51.0570 S   0  0  0  0  0  0  0  0  0  0  0  0
   59.7820   31.7110   51.8400 O   0  0  0  0  0  0  0  0  0  0  0  0
   57.8100   33.0530   51.2830 O   0  0  0  0  0  0  0  0  0  0  0  0
   58.8340   31.5230   49.3470 C   0  0  0  0  0  0  0  0  0  0  0  0
   58.1860   32.1860   48.3200 C   0  0  0  0  0  0  0  0  0  0  0  0
   58.6410   31.7440   47.1340 N   0  0  0  0  0  0  0  0  0  0  0  0
   58.1370   32.1290   45.8170 C   0  0  0  0  0  0  0  0  0  0  0  0
   57.6300   30.9310   45.0710 C   0  0  0  0  0  0  0  0  0  0  0  0
   56.4020   30.8630   44.8020 O   0  0  0  0  0  0  0  0  0  0  0  0
   58.5300   29.8770   44.6820 N   0  0  0  0  0  0  0  0  0  0  0  0
   58.1830   28.4810   44.6050 C   0  0  0  0  0  0  0  0  0  0  0  0
   57.9870   27.7710   45.8010 C   0  0  0  0  0  0  0  0  0  0  0  0
   57.6790   26.4110   45.7700 C   0  0  0  0  0  0  0  0  0  0  0  0
   57.5980   25.7540   44.5380 C   0  0  0  0  0  0  0  0  0  0  0  0
   57.3110   24.3880   44.5020 O   0  0  0  0  0  0  0  0  0  0  0  0
   56.6510   23.7780   43.3960 C   0  0  0  0  0  0  0  0  0  0  0  0
   57.8290   26.4440   43.3880 N   0  0  0  0  0  0  0  0  0  0  0  0
   58.1200   27.7730   43.3920 C   0  0  0  0  0  0  0  0  0  0  0  0
   59.5680   30.7990   47.3850 C   0  0  0  0  0  0  0  0  0  0  0  0
   59.7150   30.6410   48.7520 C   0  0  0  0  0  0  0  0  0  0  0  0
   60.7300   29.4330   49.5300 S   0  0  0  0  0  0  0  0  0  0  0  0
   60.1070   28.9810   50.8230 O   0  0  0  0  0  0  0  0  0  0  0  0
   60.8690   28.2600   48.6010 O   0  0  0  0  0  0  0  0  0  0  0  0
   62.2820   30.1730   49.8150 N   0  0  0  0  0  0  0  0  0  0  0  0
   62.3420   31.4910   49.1640 C   0  0  0  0  0  0  0  0  0  0  0  0
   63.7770   32.0020   49.2050 C   0  0  0  0  0  0  0  0  0  0  0  0
   64.3180   31.9450   50.5710 N   0  0  0  0  0  0  0  0  0  0  0  0
   65.4590   32.7560   50.9180 C   0  0  0  0  0  0  0  0  0  0  0  0
   65.2630   34.0220   51.4950 C   0  0  0  0  0  0  0  0  0  0  0  0
   66.3580   34.8090   51.8630 C   0  0  0  0  0  0  0  0  0  0  0  0
   67.6560   34.3370   51.6690 C   0  0  0  0  0  0  0  0  0  0  0  0
   67.8650   33.0810   51.0930 C   0  0  0  0  0  0  0  0  0  0  0  0
   66.7760   32.2900   50.7140 C   0  0  0  0  0  0  0  0  0  0  0  0
   67.0120   31.0580   50.2010 F   0  0  0  0  0  0  0  0  0  0  0  0
   63.9960   30.8020   51.4440 C   0  0  0  0  0  0  0  0  0  0  0  0
   62.5500   30.3230   51.2490 C   0  0  0  0  0  0  0  0  0  0  0  0
   53.0480   31.2720   50.9010 C   0  0  0  0  0  0  0  0  0  0  0  0
   49.9847   30.9590   48.9942 H   0  0  0  0  0  0  0  0  0  0  0  0
   50.1108   32.6095   48.2968 H   0  0  0  0  0  0  0  0  0  0  0  0
   51.5411   31.5228   48.2968 H   0  0  0  0  0  0  0  0  0  0  0  0
   49.9979   31.3389   52.4444 H   0  0  0  0  0  0  0  0  0  0  0  0
   51.3156   30.0515   54.1369 H   0  0  0  0  0  0  0  0  0  0  0  0
   57.4145   32.9586   48.4534 H   0  0  0  0  0  0  0  0  0  0  0  0
   57.3161   32.8505   45.9416 H   0  0  0  0  0  0  0  0  0  0  0  0
   58.9592   32.5807   45.2425 H   0  0  0  0  0  0  0  0  0  0  0  0
   59.5150   30.1360   44.4730 H   0  0  0  0  0  0  0  0  0  0  0  0
   58.0768   28.2900   46.7667 H   0  0  0  0  0  0  0  0  0  0  0  0
   57.5015   25.8604   46.7056 H   0  0  0  0  0  0  0  0  0  0  0  0
   55.8901   23.0748   43.7655 H   0  0  0  0  0  0  0  0  0  0  0  0
   56.1671   24.5538   42.7844 H   0  0  0  0  0  0  0  0  0  0  0  0
   57.3863   23.2346   42.7844 H   0  0  0  0  0  0  0  0  0  0  0  0
   58.3067   28.2957   42.4423 H   0  0  0  0  0  0  0  0  0  0  0  0
   60.1238   30.2380   46.6193 H   0  0  0  0  0  0  0  0  0  0  0  0
   62.0128   31.4008   48.1183 H   0  0  0  0  0  0  0  0  0  0  0  0
   61.6823   32.1955   49.6917 H   0  0  0  0  0  0  0  0  0  0  0  0
   64.3994   31.3796   48.5454 H   0  0  0  0  0  0  0  0  0  0  0  0
   63.7858   33.0491   48.8681 H   0  0  0  0  0  0  0  0  0  0  0  0
   64.2415   34.3961   51.6581 H   0  0  0  0  0  0  0  0  0  0  0  0
   66.1957   35.8025   52.3064 H   0  0  0  0  0  0  0  0  0  0  0  0
   68.5158   34.9538   51.9696 H   0  0  0  0  0  0  0  0  0  0  0  0
   68.8899   32.7133   50.9372 H   0  0  0  0  0  0  0  0  0  0  0  0
   64.6800   29.9726   51.2110 H   0  0  0  0  0  0  0  0  0  0  0  0
   64.1096   31.1277   52.4885 H   0  0  0  0  0  0  0  0  0  0  0  0
   62.4119   29.3548   51.7525 H   0  0  0  0  0  0  0  0  0  0  0  0
   61.8552   31.0587   51.6803 H   0  0  0  0  0  0  0  0  0  0  0  0
   53.5630   31.6346   49.9992 H   0  0  0  0  0  0  0  0  0  0  0  0
  1  2  1  0
  2  3  1  0
  3  4  1  0
  4  5  2  0
  5  6  1  0
  6  7  1  0
  7  8  2  3
  8  9  1  0
  9 10  2  0
  9 11  1  0
 11 12  1  0
 12 13  2  0
 12 14  2  0
 12 15  1  0
 15 16  2  0
 16 17  1  0
 17 18  1  0
 18 19  1  0
 19 20  2  0
 19 21  1  0
 21 22  1  0
 22 23  2  0
 23 24  1  0
 24 25  2  0
 25 26  1  0
 26 27  1  0
 25 28  1  0
 28 29  2  0
 17 30  1  0
 30 31  2  0
 31 32  1  0
 32 33  2  0
 32 34  2  0
 32 35  1  0
 35 36  1  0
 36 37  1  0
 37 38  1  0
 38 39  1  0
 39 40  2  0
 40 41  1  0
 41 42  2  0
 42 43  1  0
 43 44  2  0
 44 45  1  0
 38 46  1  0
 46 47  1  0
  7 48  1  0
 48  3  2  0
 31 15  1  0
 47 35  1  0
 29 22  1  0
 44 39  1  0
  1 49  1  0
  1 50  1  0
  1 51  1  0
  4 52  1  0
  5 53  1  0
 16 54  1  0
 18 55  1  0
 18 56  1  0
 21 57  1  0
 23 58  1  0
 24 59  1  0
 27 60  1  0
 27 61  1  0
 27 62  1  0
 29 63  1  0
 30 64  1  0
 36 65  1  0
 36 66  1  0
 37 67  1  0
 37 68  1  0
 40 69  1  0
 41 70  1  0
 42 71  1  0
 43 72  1  0
 46 73  1  0
 46 74  1  0
 47 75  1  0
 47 76  1  0
 48 77  1  0
M  CHG  2   6  -1  11  -1
M  END
>  <UniqueID>  (94) 
85

>  <SMILES>  (94) 
COc1cc[n-]c(=NC(=O)[N-]S(=O)(=O)c2cn(CC(=O)Nc3ccc(OC)nc3)cc2S(=O)(=O)N2CCN(c3ccccc3F)CC2)c1

>  <Energy>  (94) 
132.1844345213749

>  <Genealogy>  (94) 
COc1cc[n-]c(=NC(=O)[N-]S(=O)(=O)c2cn(CC(=O)Nc3ccc(OC)nc3)cc2S(=O)(=O)N2CCN(c3ccccc3F)CC2)c1 (protonated)
COc1cc[n-]c(=NC(=O)[N-]S(=O)(=O)c2cn(CC(=O)Nc3ccc(OC)nc3)cc2S(=O)(=O)N2CCN(c3ccccc3F)CC2)c1 (3D coordinates assigned)
COc1cc[n-]c(=NC(=O)[N-]S(=O)(=O)c2cn(CC(=O)Nc3ccc(OC)nc3)cc2S(=O)(=O)N2CCN(c3ccccc3F)CC2)c1 (nonaromatic ring conformer: 132.1844345213749 kcal/mol)

>  <smiles>  (94) 
COc1cc[nH]c(=NC(=O)NS(=O)(=O)c2cn(CC(=O)Nc3ccc(OC)nc3)cc2S(=O)(=O)N2CCN(c3ccccc3F)CC2)c1

>  <score_type>  (94) 
oracle

>  <origin>  (94) 
adg

>  <m_score__min__energy>  (94) 
-12.25

>  <m_primary>  (94) 
energy

$$$$
94:0
     RDKit          3D

 39 41  0  0  0  0  0  0  0  0999 V2000
   50.6400   33.0820   52.0400 O   0  0  0  0  0  0  0  0  0  0  0  0
   51.2860   32.3340   51.2580 C   0  0  0  0  0  0  0  0  0  0  0  0
   50.9450   32.3140   49.9100 O   0  0  0  0  0  0  0  0  0  0  0  0
   52.3900   31.4900   51.7650 C   0  0  0  0  0  0  0  0  0  0  0  0
   53.3820   31.0070   50.8940 C   0  0  0  0  0  0  0  0  0  0  0  0
   54.4230   30.2070   51.3770 C   0  0  0  0  0  0  0  0  0  0  0  0
   54.4860   29.8700   52.7420 C   0  0  0  0  0  0  0  0  0  0  0  0
   55.4980   29.0560   53.2770 O   0  0  0  0  0  0  0  0  0  0  0  0
   56.7150   29.5280   53.8560 C   0  0  0  0  0  0  0  0  0  0  0  0
   57.4210   30.4730   52.9200 C   0  0  0  0  0  0  0  0  0  0  0  0
   57.0280   31.8190   52.8490 C   0  0  0  0  0  0  0  0  0  0  0  0
   57.7010   32.7060   52.0040 C   0  0  0  0  0  0  0  0  0  0  0  0
   58.7680   32.2540   51.2190 C   0  0  0  0  0  0  0  0  0  0  0  0
   59.6650   33.4030   50.1750 S   0  0  0  0  0  0  0  0  0  0  0  0
   59.1790   32.5490   48.6740 C   0  0  0  0  0  0  0  0  0  0  0  0
   59.7630   31.3180   48.3470 C   0  0  0  0  0  0  0  0  0  0  0  0
   59.3710   30.6450   47.1860 C   0  0  0  0  0  0  0  0  0  0  0  0
   58.3980   31.2020   46.3490 C   0  0  0  0  0  0  0  0  0  0  0  0
   57.8170   32.4310   46.6730 C   0  0  0  0  0  0  0  0  0  0  0  0
   58.2090   33.1060   47.8330 C   0  0  0  0  0  0  0  0  0  0  0  0
   59.1450   30.9070   51.2630 C   0  0  0  0  0  0  0  0  0  0  0  0
   58.4740   30.0190   52.1070 C   0  0  0  0  0  0  0  0  0  0  0  0
   53.5030   30.3600   53.6100 C   0  0  0  0  0  0  0  0  0  0  0  0
   52.4640   31.1610   53.1300 C   0  0  0  0  0  0  0  0  0  0  0  0
   53.3394   31.2601   49.8244 H   0  0  0  0  0  0  0  0  0  0  0  0
   55.1963   29.8395   50.6864 H   0  0  0  0  0  0  0  0  0  0  0  0
   56.4875   30.0535   54.7952 H   0  0  0  0  0  0  0  0  0  0  0  0
   57.3713   28.6665   54.0486 H   0  0  0  0  0  0  0  0  0  0  0  0
   56.1869   32.1770   53.4609 H   0  0  0  0  0  0  0  0  0  0  0  0
   57.3917   33.7605   51.9559 H   0  0  0  0  0  0  0  0  0  0  0  0
   60.5298   30.8812   49.0037 H   0  0  0  0  0  0  0  0  0  0  0  0
   59.8276   29.6774   46.9305 H   0  0  0  0  0  0  0  0  0  0  0  0
   58.0902   30.6723   45.4354 H   0  0  0  0  0  0  0  0  0  0  0  0
   57.0510   32.8675   46.0152 H   0  0  0  0  0  0  0  0  0  0  0  0
   57.7546   34.0756   48.0848 H   0  0  0  0  0  0  0  0  0  0  0  0
   59.9710   30.5470   50.6320 H   0  0  0  0  0  0  0  0  0  0  0  0
   58.7708   28.9602   52.1355 H   0  0  0  0  0  0  0  0  0  0  0  0
   53.5492   30.1118   54.6806 H   0  0  0  0  0  0  0  0  0  0  0  0
   51.6985   31.5369   53.8247 H   0  0  0  0  0  0  0  0  0  0  0  0
  1  2  2  0
  2  3  1  0
  2  4  1  0
  4  5  2  0
  5  6  1  0
  6  7  2  0
  7  8  1  0
  8  9  1  0
  9 10  1  0
 10 11  2  0
 11 12  1  0
 12 13  2  0
 13 14  1  0
 14 15  1  0
 15 16  2  0
 16 17  1  0
 17 18  2  0
 18 19  1  0
 19 20  2  0
 13 21  1  0
 21 22  2  0
  7 23  1  0
 23 24  2  0
 24  4  1  0
 22 10  1  0
 20 15  1  0
  5 25  1  0
  6 26  1  0
  9 27  1  0
  9 28  1  0
 11 29  1  0
 12 30  1  0
 16 31  1  0
 17 32  1  0
 18 33  1  0
 19 34  1  0
 20 35  1  0
 21 36  1  0
 22 37  1  0
 23 38  1  0
 24 39  1  0
M  CHG  1   3  -1
M  END
>  <UniqueID>  (95) 
86

>  <SMILES>  (95) 
O=C([O-])c1ccc(OCc2ccc(Sc3ccccc3)cc2)cc1

>  <Energy>  (95) 
37.155499974630274

>  <Genealogy>  (95) 
O=C([O-])c1ccc(OCc2ccc(Sc3ccccc3)cc2)cc1 (protonated)
O=C([O-])c1ccc(OCc2ccc(Sc3ccccc3)cc2)cc1 (3D coordinates assigned)
O=C([O-])c1ccc(OCc2ccc(Sc3ccccc3)cc2)cc1 (optimized conformer: 37.155499974630274 kcal/mol)

>  <smiles>  (95) 
O=C(O)c1ccc(OCc2ccc(Sc3ccccc3)cc2)cc1

>  <score_type>  (95) 
oracle

>  <origin>  (95) 
adg

>  <m_score__min__energy>  (95) 
-11.15

>  <m_primary>  (95) 
energy

$$$$
95:0
     RDKit          3D

 43 46  0  0  0  0  0  0  0  0999 V2000
   58.8930   34.9670   44.9290 C   0  0  0  0  0  0  0  0  0  0  0  0
   57.7690   34.1230   45.3160 N   0  0  0  0  0  0  0  0  0  0  0  0
   57.8730   32.8480   45.5270 C   0  0  0  0  0  0  0  0  0  0  0  0
   57.1590   31.9130   44.8610 N   0  0  0  0  0  0  0  0  0  0  0  0
   57.4700   30.6520   45.2730 C   0  0  0  0  0  0  0  0  0  0  0  0
   56.8260   29.4570   44.6320 C   0  0  0  0  0  0  0  0  0  0  0  0
   55.5610   29.7710   43.8440 C   0  0  0  0  0  0  0  0  0  0  0  0
   56.8480   29.4440   43.1100 C   0  0  0  0  0  0  0  0  0  0  0  0
   58.4260   30.5940   46.3010 C   0  0  0  0  0  0  0  0  0  0  0  0
   58.9850   29.4010   46.9690 C   0  0  0  0  0  0  0  0  0  0  0  0
   59.2780   29.3880   48.3390 C   0  0  0  0  0  0  0  0  0  0  0  0
   59.8220   28.2320   48.8950 C   0  0  0  0  0  0  0  0  0  0  0  0
   60.0700   27.1530   48.1090 N   0  0  0  0  0  0  0  0  0  0  0  0
   59.7900   27.1750   46.7770 C   0  0  0  0  0  0  0  0  0  0  0  0
   60.0530   26.1560   46.0130 N   0  0  0  0  0  0  0  0  0  0  0  0
   59.1520   25.1000   45.6380 C   0  0  0  0  0  0  0  0  0  0  0  0
   59.6240   23.7810   45.6380 C   0  0  0  0  0  0  0  0  0  0  0  0
   58.7890   22.7290   45.2500 C   0  0  0  0  0  0  0  0  0  0  0  0
   57.4780   22.9880   44.8310 C   0  0  0  0  0  0  0  0  0  0  0  0
   56.4210   21.6600   44.3570 S   0  0  0  0  0  0  0  0  0  0  0  0
   57.0950   20.1620   44.8950 N   0  0  0  0  0  0  0  0  0  0  0  0
   56.2730   21.6360   42.8620 O   0  0  0  0  0  0  0  0  0  0  0  0
   55.0630   21.8480   44.9720 O   0  0  0  0  0  0  0  0  0  0  0  0
   57.0080   24.3060   44.8070 C   0  0  0  0  0  0  0  0  0  0  0  0
   57.8420   25.3590   45.1950 C   0  0  0  0  0  0  0  0  0  0  0  0
   59.2670   28.2990   46.2220 N   0  0  0  0  0  0  0  0  0  0  0  0
   58.9130   32.1700   46.6520 S   0  0  0  0  0  0  0  0  0  0  0  0
   59.3958   35.3446   45.8316 H   0  0  0  0  0  0  0  0  0  0  0  0
   59.6049   34.3784   44.3317 H   0  0  0  0  0  0  0  0  0  0  0  0
   58.5263   35.8148   44.3317 H   0  0  0  0  0  0  0  0  0  0  0  0
   57.1052   28.7403   45.4184 H   0  0  0  0  0  0  0  0  0  0  0  0
   54.7263   29.0546   43.8360 H   0  0  0  0  0  0  0  0  0  0  0  0
   54.8451   30.6059   43.8235 H   0  0  0  0  0  0  0  0  0  0  0  0
   56.9457   28.4907   42.5699 H   0  0  0  0  0  0  0  0  0  0  0  0
   57.4504   29.9442   42.3374 H   0  0  0  0  0  0  0  0  0  0  0  0
   59.0825   30.2725   48.9630 H   0  0  0  0  0  0  0  0  0  0  0  0
   60.0505   28.1935   49.9703 H   0  0  0  0  0  0  0  0  0  0  0  0
   60.6592   23.5715   45.9455 H   0  0  0  0  0  0  0  0  0  0  0  0
   59.1628   21.6947   45.2739 H   0  0  0  0  0  0  0  0  0  0  0  0
   56.9150   19.4600   44.1420 H   0  0  0  0  0  0  0  0  0  0  0  0
   58.1300   20.2930   44.9430 H   0  0  0  0  0  0  0  0  0  0  0  0
   55.9781   24.5144   44.4815 H   0  0  0  0  0  0  0  0  0  0  0  0
   57.4724   26.3942   45.1537 H   0  0  0  0  0  0  0  0  0  0  0  0
  1  2  1  0
  2  3  2  3
  3  4  1  0
  4  5  1  0
  5  6  1  0
  6  7  1  0
  7  8  1  0
  5  9  2  0
  9 10  1  0
 10 11  1  0
 11 12  2  0
 12 13  1  0
 13 14  1  0
 14 15  2  3
 15 16  1  0
 16 17  2  0
 17 18  1  0
 18 19  2  0
 19 20  1  0
 20 21  1  0
 20 22  2  0
 20 23  2  0
 19 24  1  0
 24 25  2  0
 14 26  1  0
  9 27  1  0
 27  3  1  0
  8  6  1  0
 26 10  2  0
 25 16  1  0
  1 28  1  0
  1 29  1  0
  1 30  1  0
  6 31  1  0
  7 32  1  0
  7 33  1  0
  8 34  1  0
  8 35  1  0
 11 36  1  0
 12 37  1  0
 17 38  1  0
 18 39  1  0
 21 40  1  0
 21 41  1  0
 24 42  1  0
 25 43  1  0
M  CHG  2   4  -1  13  -1
M  END
>  <UniqueID>  (96) 
87

>  <SMILES>  (96) 
CN=c1[n-]c(C2CC2)c(-c2cc[n-]c(=Nc3ccc(S(N)(=O)=O)cc3)n2)s1

>  <Energy>  (96) 
347.47854346653327

>  <Genealogy>  (96) 
CN=c1[n-]c(C2CC2)c(-c2cc[n-]c(=Nc3ccc(S(N)(=O)=O)cc3)n2)s1 (protonated)
CN=c1[n-]c(C2CC2)c(-c2cc[n-]c(=Nc3ccc(S(N)(=O)=O)cc3)n2)s1 (3D coordinates assigned)
CN=c1[n-]c(C2CC2)c(-c2cc[n-]c(=Nc3ccc(S(N)(=O)=O)cc3)n2)s1 (nonaromatic ring conformer: 347.47854346653327 kcal/mol)

>  <smiles>  (96) 
CN=c1[nH]c(C2CC2)c(-c2cc[nH]c(=Nc3ccc(S(N)(=O)=O)cc3)n2)s1

>  <score_type>  (96) 
oracle

>  <origin>  (96) 
adg

>  <m_score__min__energy>  (96) 
-11.470000000000001

>  <m_primary>  (96) 
energy

$$$$
