0:0
     RDKit          3D

 48 51  0  0  0  0  0  0  0  0999 V2000
   55.9300   29.7030   43.9080 C   0  0  0  0  0  0  0  0  0  0  0  0
   56.8490   29.1960   44.9730 C   0  0  0  0  0  0  0  0  0  0  0  0
   56.9760   27.8320   45.2060 C   0  0  0  0  0  0  0  0  0  0  0  0
   57.8380   27.3880   46.2130 C   0  0  0  0  0  0  0  0  0  0  0  0
   57.9390   25.9720   46.4290 N   0  0  0  0  0  0  0  0  0  0  0  0
   56.9090   25.2650   47.1900 C   0  0  0  0  0  0  0  0  0  0  0  0
   56.2540   24.2180   46.2840 C   0  0  0  0  0  0  0  0  0  0  0  0
   57.2320   23.3760   45.7000 O   0  0  0  0  0  0  0  0  0  0  0  0
   58.0770   24.1260   44.8430 C   0  0  0  0  0  0  0  0  0  0  0  0
   58.8700   25.1680   45.6380 C   0  0  0  0  0  0  0  0  0  0  0  0
   58.5540   28.2970   46.9690 N   0  0  0  0  0  0  0  0  0  0  0  0
   59.4270   27.9160   47.9690 C   0  0  0  0  0  0  0  0  0  0  0  0
   59.6250   26.7020   48.2460 O   0  0  0  0  0  0  0  0  0  0  0  0
   60.1230   28.8760   48.7050 C   0  0  0  0  0  0  0  0  0  0  0  0
   59.9240   30.2240   48.4230 C   0  0  0  0  0  0  0  0  0  0  0  0
   60.6850   31.2900   49.1560 C   0  0  0  0  0  0  0  0  0  0  0  0
   61.1660   32.3080   48.2080 N   0  0  0  0  0  0  0  0  0  0  0  0
   60.2450   33.0810   47.5510 C   0  0  0  0  0  0  0  0  0  0  0  0
   60.6470   34.0350   46.6020 C   0  0  0  0  0  0  0  0  0  0  0  0
   59.6290   34.9150   45.9220 C   0  0  0  0  0  0  0  0  0  0  0  0
   60.0090   36.2450   45.9850 F   0  0  0  0  0  0  0  0  0  0  0  0
   58.4070   34.7660   46.5500 F   0  0  0  0  0  0  0  0  0  0  0  0
   59.4980   34.5660   44.5890 F   0  0  0  0  0  0  0  0  0  0  0  0
   62.0170   34.2100   46.3680 C   0  0  0  0  0  0  0  0  0  0  0  0
   62.9460   33.4120   47.0310 C   0  0  0  0  0  0  0  0  0  0  0  0
   62.5050   32.4530   47.9470 C   0  0  0  0  0  0  0  0  0  0  0  0
   63.3590   31.7290   48.5300 O   0  0  0  0  0  0  0  0  0  0  0  0
   59.0740   30.5730   47.4280 N   0  0  0  0  0  0  0  0  0  0  0  0
   58.3940   29.6450   46.7100 C   0  0  0  0  0  0  0  0  0  0  0  0
   57.5560   30.0680   45.7300 N   0  0  0  0  0  0  0  0  0  0  0  0
   55.0579   30.1841   44.3748 H   0  0  0  0  0  0  0  0  0  0  0  0
   56.4619   30.4353   43.2829 H   0  0  0  0  0  0  0  0  0  0  0  0
   55.5942   28.8625   43.2829 H   0  0  0  0  0  0  0  0  0  0  0  0
   56.4046   27.1096   44.6047 H   0  0  0  0  0  0  0  0  0  0  0  0
   57.3670   24.7678   48.0578 H   0  0  0  0  0  0  0  0  0  0  0  0
   56.1505   25.9790   47.5434 H   0  0  0  0  0  0  0  0  0  0  0  0
   55.5618   23.6064   46.8814 H   0  0  0  0  0  0  0  0  0  0  0  0
   55.7105   24.7371   45.4808 H   0  0  0  0  0  0  0  0  0  0  0  0
   58.7792   23.4439   44.3414 H   0  0  0  0  0  0  0  0  0  0  0  0
   57.4542   24.6472   44.1011 H   0  0  0  0  0  0  0  0  0  0  0  0
   59.5794   24.6596   46.3076 H   0  0  0  0  0  0  0  0  0  0  0  0
   59.4280   25.8172   44.9472 H   0  0  0  0  0  0  0  0  0  0  0  0
   60.8207   28.5706   49.4987 H   0  0  0  0  0  0  0  0  0  0  0  0
   60.0246   31.7650   49.8965 H   0  0  0  0  0  0  0  0  0  0  0  0
   61.5475   30.8334   49.6635 H   0  0  0  0  0  0  0  0  0  0  0  0
   59.1747   32.9524   47.7701 H   0  0  0  0  0  0  0  0  0  0  0  0
   62.3595   34.9787   45.6596 H   0  0  0  0  0  0  0  0  0  0  0  0
   64.0212   33.5358   46.8348 H   0  0  0  0  0  0  0  0  0  0  0  0
  1  2  1  0
  2  3  1  0
  3  4  2  0
  4  5  1  0
  5  6  1  0
  6  7  1  0
  7  8  1  0
  8  9  1  0
  9 10  1  0
  4 11  1  0
 11 12  1  0
 12 13  2  0
 12 14  1  0
 14 15  2  0
 15 16  1  0
 16 17  1  0
 17 18  1  0
 18 19  2  0
 19 20  1  0
 20 21  1  0
 20 22  1  0
 20 23  1  0
 19 24  1  0
 24 25  2  0
 25 26  1  0
 26 27  2  0
 15 28  1  0
 28 29  2  0
 29 30  1  0
 30  2  2  0
 10  5  1  0
 29 11  1  0
 26 17  1  0
  1 31  1  0
  1 32  1  0
  1 33  1  0
  3 34  1  0
  6 35  1  0
  6 36  1  0
  7 37  1  0
  7 38  1  0
  9 39  1  0
  9 40  1  0
 10 41  1  0
 10 42  1  0
 14 43  1  0
 16 44  1  0
 16 45  1  0
 18 46  1  0
 24 47  1  0
 25 48  1  0
M  END
>  <UniqueID>  (1) 
1

>  <SMILES>  (1) 
Cc1cc(N2CCOCC2)n2c(=O)cc(Cn3cc(C(F)(F)F)ccc3=O)nc2n1

>  <Energy>  (1) 
68.58796093548762

>  <Genealogy>  (1) 
Cc1cc(N2CCOCC2)n2c(=O)cc(Cn3cc(C(F)(F)F)ccc3=O)nc2n1 (3D coordinates assigned)
Cc1cc(N2CCOCC2)n2c(=O)cc(Cn3cc(C(F)(F)F)ccc3=O)nc2n1 (nonaromatic ring conformer: 68.58796093548762 kcal/mol)

>  <smiles>  (1) 
Cc1cc(N2CCOCC2)n2c(=O)cc(Cn3cc(C(F)(F)F)ccc3=O)nc2n1

>  <score_type>  (1) 
oracle

>  <origin>  (1) 
adg

>  <m_score__min__energy>  (1) 
-7.2300000000000004

>  <m_primary>  (1) 
energy

$$$$
1:0
     RDKit          3D

 51 53  0  0  0  0  0  0  0  0999 V2000
   58.2010   31.2160   44.0160 C   0  0  0  0  0  0  0  0  0  0  0  0
   57.2320   30.2010   44.4480 N   0  0  0  0  0  0  0  0  0  0  0  0
   55.8960   30.1570   43.8430 C   0  0  0  0  0  0  0  0  0  0  0  0
   57.5920   29.1900   45.4220 C   0  0  0  0  0  0  0  0  0  0  0  0
   56.8230   28.2050   45.6120 O   0  0  0  0  0  0  0  0  0  0  0  0
   58.9020   29.2210   46.1710 C   0  0  0  0  0  0  0  0  0  0  0  0
   58.7930   30.2500   47.6760 S   0  0  0  0  0  0  0  0  0  0  0  0
   60.4680   30.8850   47.5370 C   0  0  0  0  0  0  0  0  0  0  0  0
   61.5320   30.1070   47.2600 N   0  0  0  0  0  0  0  0  0  0  0  0
   62.5980   30.8970   47.2580 N   0  0  0  0  0  0  0  0  0  0  0  0
   62.1690   32.1440   47.5340 C   0  0  0  0  0  0  0  0  0  0  0  0
   63.1070   33.3090   47.7120 C   0  0  0  0  0  0  0  0  0  0  0  0
   64.4540   32.8340   48.0610 N   0  0  0  0  0  0  0  0  0  0  0  0
   64.7500   33.1420   49.4390 C   0  0  0  0  0  0  0  0  0  0  0  0
   65.9740   32.7550   50.0100 C   0  0  0  0  0  0  0  0  0  0  0  0
   66.2580   33.0520   51.3480 C   0  0  0  0  0  0  0  0  0  0  0  0
   65.3200   33.7330   52.1280 C   0  0  0  0  0  0  0  0  0  0  0  0
   65.5980   34.0240   53.4240 F   0  0  0  0  0  0  0  0  0  0  0  0
   64.0920   34.1100   51.5760 C   0  0  0  0  0  0  0  0  0  0  0  0
   63.8030   33.8130   50.2390 C   0  0  0  0  0  0  0  0  0  0  0  0
   60.8290   32.1720   47.7200 N   0  0  0  0  0  0  0  0  0  0  0  0
   59.9790   33.3010   48.1160 C   0  0  0  0  0  0  0  0  0  0  0  0
   59.0850   33.7270   46.9800 C   0  0  0  0  0  0  0  0  0  0  0  0
   57.7390   33.3260   46.9490 C   0  0  0  0  0  0  0  0  0  0  0  0
   56.9060   33.7260   45.8980 C   0  0  0  0  0  0  0  0  0  0  0  0
   57.4110   34.5320   44.8710 C   0  0  0  0  0  0  0  0  0  0  0  0
   58.7470   34.9400   44.8960 C   0  0  0  0  0  0  0  0  0  0  0  0
   59.5790   34.5470   45.9520 C   0  0  0  0  0  0  0  0  0  0  0  0
   58.6537   31.6902   44.8993 H   0  0  0  0  0  0  0  0  0  0  0  0
   58.9873   30.7389   43.4125 H   0  0  0  0  0  0  0  0  0  0  0  0
   57.6880   31.9793   43.4125 H   0  0  0  0  0  0  0  0  0  0  0  0
   55.1347   30.1319   44.6366 H   0  0  0  0  0  0  0  0  0  0  0  0
   55.7463   31.0507   43.2194 H   0  0  0  0  0  0  0  0  0  0  0  0
   55.8054   29.2554   43.2194 H   0  0  0  0  0  0  0  0  0  0  0  0
   59.1725   28.1945   46.4594 H   0  0  0  0  0  0  0  0  0  0  0  0
   59.6653   29.6580   45.5104 H   0  0  0  0  0  0  0  0  0  0  0  0
   63.1563   33.8812   46.7739 H   0  0  0  0  0  0  0  0  0  0  0  0
   62.7321   33.9478   48.5253 H   0  0  0  0  0  0  0  0  0  0  0  0
   64.5170   31.8000   47.9080 H   0  0  0  0  0  0  0  0  0  0  0  0
   65.1640   33.2940   47.4400 H   0  0  0  0  0  0  0  0  0  0  0  0
   66.7142   32.2149   49.4014 H   0  0  0  0  0  0  0  0  0  0  0  0
   67.2206   32.7490   51.7858 H   0  0  0  0  0  0  0  0  0  0  0  0
   63.3521   34.6407   52.1932 H   0  0  0  0  0  0  0  0  0  0  0  0
   62.8326   34.1045   49.8107 H   0  0  0  0  0  0  0  0  0  0  0  0
   59.3558   32.9998   48.9710 H   0  0  0  0  0  0  0  0  0  0  0  0
   60.6254   34.1477   48.3903 H   0  0  0  0  0  0  0  0  0  0  0  0
   57.3377   32.6942   47.7551 H   0  0  0  0  0  0  0  0  0  0  0  0
   55.8535   33.4068   45.8789 H   0  0  0  0  0  0  0  0  0  0  0  0
   56.7560   34.8442   44.0443 H   0  0  0  0  0  0  0  0  0  0  0  0
   59.1453   35.5696   44.0867 H   0  0  0  0  0  0  0  0  0  0  0  0
   60.6262   34.8827   45.9765 H   0  0  0  0  0  0  0  0  0  0  0  0
  1  2  1  0
  2  3  1  0
  2  4  1  0
  4  5  2  0
  4  6  1  0
  6  7  1  0
  7  8  1  0
  8  9  2  0
  9 10  1  0
 10 11  2  0
 11 12  1  0
 12 13  1  0
 13 14  1  0
 14 15  2  0
 15 16  1  0
 16 17  2  0
 17 18  1  0
 17 19  1  0
 19 20  2  0
 11 21  1  0
 21 22  1  0
 22 23  1  0
 23 24  2  0
 24 25  1  0
 25 26  2  0
 26 27  1  0
 27 28  2  0
 21  8  1  0
 28 23  1  0
 20 14  1  0
  1 29  1  0
  1 30  1  0
  1 31  1  0
  3 32  1  0
  3 33  1  0
  3 34  1  0
  6 35  1  0
  6 36  1  0
 12 37  1  0
 12 38  1  0
 13 39  1  0
 13 40  1  0
 15 41  1  0
 16 42  1  0
 19 43  1  0
 20 44  1  0
 22 45  1  0
 22 46  1  0
 24 47  1  0
 25 48  1  0
 26 49  1  0
 27 50  1  0
 28 51  1  0
M  CHG  1  13   1
M  END
>  <UniqueID>  (2) 
2

>  <SMILES>  (2) 
CN(C)C(=O)CSc1nnc(C[NH2+]c2ccc(F)cc2)n1Cc1ccccc1

>  <Energy>  (2) 
78.71904368604635

>  <Genealogy>  (2) 
CN(C)C(=O)CSc1nnc(C[NH2+]c2ccc(F)cc2)n1Cc1ccccc1 (protonated)
CN(C)C(=O)CSc1nnc(C[NH2+]c2ccc(F)cc2)n1Cc1ccccc1 (3D coordinates assigned)
CN(C)C(=O)CSc1nnc(C[NH2+]c2ccc(F)cc2)n1Cc1ccccc1 (optimized conformer: 78.71904368604635 kcal/mol)

>  <smiles>  (2) 
CN(C)C(=O)CSc1nnc(CNc2ccc(F)cc2)n1Cc1ccccc1

>  <score_type>  (2) 
oracle

>  <origin>  (2) 
adg

>  <m_score__min__energy>  (2) 
-6.8799999999999999

>  <m_primary>  (2) 
energy

$$$$
2:0
     RDKit          3D

 41 43  0  0  0  0  0  0  0  0999 V2000
   51.0350   23.7150   44.5370 C   0  0  0  0  0  0  0  0  0  0  0  0
   51.7940   22.5810   44.9410 O   0  0  0  0  0  0  0  0  0  0  0  0
   52.7770   22.6010   45.9420 C   0  0  0  0  0  0  0  0  0  0  0  0
   52.7070   21.6470   46.9630 C   0  0  0  0  0  0  0  0  0  0  0  0
   53.6660   21.6220   47.9770 C   0  0  0  0  0  0  0  0  0  0  0  0
   54.6980   22.5620   47.9870 C   0  0  0  0  0  0  0  0  0  0  0  0
   54.7700   23.5420   46.9910 C   0  0  0  0  0  0  0  0  0  0  0  0
   55.8370   24.4980   47.0310 N   0  0  0  0  0  0  0  0  0  0  0  0
   55.9170   25.7170   46.2770 C   0  0  0  0  0  0  0  0  0  0  0  0
   54.8500   26.3140   45.9790 O   0  0  0  0  0  0  0  0  0  0  0  0
   57.2260   26.2860   45.7910 C   0  0  0  0  0  0  0  0  0  0  0  0
   57.0840   27.6880   45.4020 N   0  0  0  0  0  0  0  0  0  0  0  0
   57.8020   28.7450   46.0550 C   0  0  0  0  0  0  0  0  0  0  0  0
   58.4720   28.5010   47.0950 O   0  0  0  0  0  0  0  0  0  0  0  0
   57.7250   30.1320   45.5680 C   0  0  0  0  0  0  0  0  0  0  0  0
   56.6330   30.5550   44.8570 N   0  0  0  0  0  0  0  0  0  0  0  0
   56.6580   31.8330   44.4890 N   0  0  0  0  0  0  0  0  0  0  0  0
   58.0640   32.4930   45.0660 S   0  0  0  0  0  0  0  0  0  0  0  0
   58.6830   31.1330   45.8060 C   0  0  0  0  0  0  0  0  0  0  0  0
   59.9400   31.0940   46.6290 C   0  0  0  0  0  0  0  0  0  0  0  0
   60.1900   32.3820   47.2750 N   0  0  0  0  0  0  0  0  0  0  0  0
   59.3700   33.0350   48.1140 C   0  0  0  0  0  0  0  0  0  0  0  0
   60.0170   34.1750   48.5350 C   0  0  0  0  0  0  0  0  0  0  0  0
   61.2460   34.2300   47.9780 N   0  0  0  0  0  0  0  0  0  0  0  0
   61.3190   33.1150   47.2200 C   0  0  0  0  0  0  0  0  0  0  0  0
   53.8250   23.5430   45.9510 C   0  0  0  0  0  0  0  0  0  0  0  0
   50.6757   24.2518   45.4273 H   0  0  0  0  0  0  0  0  0  0  0  0
   51.6677   24.3844   43.9357 H   0  0  0  0  0  0  0  0  0  0  0  0
   50.1749   23.3853   43.9357 H   0  0  0  0  0  0  0  0  0  0  0  0
   51.8897   20.9108   46.9667 H   0  0  0  0  0  0  0  0  0  0  0  0
   53.6085   20.8608   48.7690 H   0  0  0  0  0  0  0  0  0  0  0  0
   55.4581   22.5321   48.7816 H   0  0  0  0  0  0  0  0  0  0  0  0
   57.9705   26.2115   46.5973 H   0  0  0  0  0  0  0  0  0  0  0  0
   57.5482   25.7121   44.9096 H   0  0  0  0  0  0  0  0  0  0  0  0
   56.4050   27.9200   44.6470 H   0  0  0  0  0  0  0  0  0  0  0  0
   59.8384   30.3185   47.4025 H   0  0  0  0  0  0  0  0  0  0  0  0
   60.7856   30.8690   45.9624 H   0  0  0  0  0  0  0  0  0  0  0  0
   58.3604   32.7158   48.4121 H   0  0  0  0  0  0  0  0  0  0  0  0
   59.5971   34.9261   49.2202 H   0  0  0  0  0  0  0  0  0  0  0  0
   62.2010   32.8365   46.6246 H   0  0  0  0  0  0  0  0  0  0  0  0
   53.9037   24.2824   45.1403 H   0  0  0  0  0  0  0  0  0  0  0  0
  1  2  1  0
  2  3  1  0
  3  4  2  0
  4  5  1  0
  5  6  2  0
  6  7  1  0
  7  8  1  0
  8  9  1  0
  9 10  2  0
  9 11  1  0
 11 12  1  0
 12 13  1  0
 13 14  2  0
 13 15  1  0
 15 16  1  0
 16 17  2  0
 17 18  1  0
 18 19  1  0
 19 20  1  0
 20 21  1  0
 21 22  1  0
 22 23  2  0
 23 24  1  0
 24 25  2  0
  7 26  2  0
 26  3  1  0
 19 15  2  0
 25 21  1  0
  1 27  1  0
  1 28  1  0
  1 29  1  0
  4 30  1  0
  5 31  1  0
  6 32  1  0
 11 33  1  0
 11 34  1  0
 12 35  1  0
 20 36  1  0
 20 37  1  0
 22 38  1  0
 23 39  1  0
 25 40  1  0
 26 41  1  0
M  CHG  1   8  -1
M  END
>  <UniqueID>  (3) 
3

>  <SMILES>  (3) 
COc1cccc([N-]C(=O)CNC(=O)c2nnsc2Cn2ccnc2)c1

>  <Energy>  (3) 
111.16577638404448

>  <Genealogy>  (3) 
COc1cccc([N-]C(=O)CNC(=O)c2nnsc2Cn2ccnc2)c1 (protonated)
COc1cccc([N-]C(=O)CNC(=O)c2nnsc2Cn2ccnc2)c1 (3D coordinates assigned)
COc1cccc([N-]C(=O)CNC(=O)c2nnsc2Cn2ccnc2)c1 (optimized conformer: 111.16577638404448 kcal/mol)

>  <smiles>  (3) 
COc1cccc(NC(=O)CNC(=O)c2nnsc2Cn2ccnc2)c1

>  <score_type>  (3) 
oracle

>  <origin>  (3) 
adg

>  <m_score__min__energy>  (3) 
-9.7300000000000004

>  <m_primary>  (3) 
energy

$$$$
3:0
     RDKit          3D

 41 42  0  0  0  0  0  0  0  0999 V2000
   56.7290   23.4170   43.6420 C   0  0  0  0  0  0  0  0  0  0  0  0
   57.5390   24.4640   44.4080 C   0  0  0  0  0  0  0  0  0  0  0  0
   57.8530   24.0390   45.8570 C   0  0  0  0  0  0  0  0  0  0  0  0
   57.5740   25.1300   46.9080 C   0  0  0  0  0  0  0  0  0  0  0  0
   57.5810   26.5260   46.3170 C   0  0  0  0  0  0  0  0  0  0  0  0
   56.3710   27.0730   45.8360 C   0  0  0  0  0  0  0  0  0  0  0  0
   55.2070   26.3010   45.8460 O   0  0  0  0  0  0  0  0  0  0  0  0
   56.3380   28.3900   45.3520 C   0  0  0  0  0  0  0  0  0  0  0  0
   55.1530   28.9350   44.8700 O   0  0  0  0  0  0  0  0  0  0  0  0
   57.4920   29.1680   45.3620 C   0  0  0  0  0  0  0  0  0  0  0  0
   58.6970   28.6470   45.8400 C   0  0  0  0  0  0  0  0  0  0  0  0
   60.1260   29.7380   45.9240 S   0  0  0  0  0  0  0  0  0  0  0  0
   59.5260   30.5440   47.4110 C   0  0  0  0  0  0  0  0  0  0  0  0
   59.5840   31.9340   47.5300 C   0  0  0  0  0  0  0  0  0  0  0  0
   59.1670   32.5580   48.7070 C   0  0  0  0  0  0  0  0  0  0  0  0
   58.6730   31.8020   49.7910 C   0  0  0  0  0  0  0  0  0  0  0  0
   58.2470   32.4820   51.0520 C   0  0  0  0  0  0  0  0  0  0  0  0
   57.1140   31.9630   51.8890 C   0  0  0  0  0  0  0  0  0  0  0  0
   58.8400   33.5260   51.4400 O   0  0  0  0  0  0  0  0  0  0  0  0
   58.5970   30.3950   49.6500 C   0  0  0  0  0  0  0  0  0  0  0  0
   58.1090   29.5910   50.6740 O   0  0  0  0  0  0  0  0  0  0  0  0
   59.0190   29.7790   48.4660 C   0  0  0  0  0  0  0  0  0  0  0  0
   58.7600   27.3130   46.2870 C   0  0  0  0  0  0  0  0  0  0  0  0
   60.3140   26.6500   46.8070 Cl  0  0  0  0  0  0  0  0  0  0  0  0
   56.2170   22.7552   44.3560 H   0  0  0  0  0  0  0  0  0  0  0  0
   55.9833   23.9210   43.0095 H   0  0  0  0  0  0  0  0  0  0  0  0
   57.4041   22.8218   43.0095 H   0  0  0  0  0  0  0  0  0  0  0  0
   58.4883   24.6301   43.8776 H   0  0  0  0  0  0  0  0  0  0  0  0
   56.9314   25.3796   44.4573 H   0  0  0  0  0  0  0  0  0  0  0  0
   57.2378   23.1601   46.1000 H   0  0  0  0  0  0  0  0  0  0  0  0
   58.9317   23.8278   45.8984 H   0  0  0  0  0  0  0  0  0  0  0  0
   56.5873   24.9426   47.3566 H   0  0  0  0  0  0  0  0  0  0  0  0
   58.3771   25.0824   47.6581 H   0  0  0  0  0  0  0  0  0  0  0  0
   54.2840   26.7120   45.9210 H   0  0  0  0  0  0  0  0  0  0  0  0
   57.4550   30.2026   44.9901 H   0  0  0  0  0  0  0  0  0  0  0  0
   59.9600   32.5400   46.6925 H   0  0  0  0  0  0  0  0  0  0  0  0
   59.2243   33.6533   48.7904 H   0  0  0  0  0  0  0  0  0  0  0  0
   57.3630   32.0770   52.9544 H   0  0  0  0  0  0  0  0  0  0  0  0
   56.2004   32.5324   51.6630 H   0  0  0  0  0  0  0  0  0  0  0  0
   56.9485   30.8993   51.6630 H   0  0  0  0  0  0  0  0  0  0  0  0
   58.9513   28.6858   48.3648 H   0  0  0  0  0  0  0  0  0  0  0  0
  1  2  1  0
  2  3  1  0
  3  4  1  0
  4  5  1  0
  5  6  2  0
  6  7  1  0
  6  8  1  0
  8  9  1  0
  8 10  2  0
 10 11  1  0
 11 12  1  0
 12 13  1  0
 13 14  2  0
 14 15  1  0
 15 16  2  0
 16 17  1  0
 17 18  1  0
 17 19  2  0
 16 20  1  0
 20 21  1  0
 20 22  2  0
 11 23  2  0
 23 24  1  0
 23  5  1  0
 22 13  1  0
  1 25  1  0
  1 26  1  0
  1 27  1  0
  2 28  1  0
  2 29  1  0
  3 30  1  0
  3 31  1  0
  4 32  1  0
  4 33  1  0
  7 34  1  0
 10 35  1  0
 14 36  1  0
 15 37  1  0
 18 38  1  0
 18 39  1  0
 18 40  1  0
 22 41  1  0
M  CHG  2   9  -1  21  -1
M  END
>  <UniqueID>  (4) 
4

>  <SMILES>  (4) 
CCCCc1c(O)c([O-])cc(Sc2ccc(C(C)=O)c([O-])c2)c1Cl

>  <Energy>  (4) 
36.34865648659943

>  <Genealogy>  (4) 
CCCCc1c(O)c([O-])cc(Sc2ccc(C(C)=O)c([O-])c2)c1Cl (protonated)
CCCCc1c(O)c([O-])cc(Sc2ccc(C(C)=O)c([O-])c2)c1Cl (3D coordinates assigned)
CCCCc1c(O)c([O-])cc(Sc2ccc(C(C)=O)c([O-])c2)c1Cl (optimized conformer: 36.34865648659943 kcal/mol)

>  <smiles>  (4) 
CCCCc1c(O)c(O)cc(Sc2ccc(C(C)=O)c(O)c2)c1Cl

>  <score_type>  (4) 
oracle

>  <origin>  (4) 
adg

>  <m_score__min__energy>  (4) 
-12.859999999999999

>  <m_primary>  (4) 
energy

$$$$
4:0
     RDKit          3D

 52 54  0  0  0  0  0  0  0  0999 V2000
   62.4170   30.7910   46.8330 O   0  0  0  0  0  0  0  0  0  0  0  0
   61.4050   31.4280   47.2370 C   0  0  0  0  0  0  0  0  0  0  0  0
   60.0870   30.9570   46.9170 N   0  0  0  0  0  0  0  0  0  0  0  0
   59.8560   29.7940   46.0650 C   0  0  0  0  0  0  0  0  0  0  0  0
   58.5670   29.9540   45.3070 C   0  0  0  0  0  0  0  0  0  0  0  0
   58.4800   30.8880   44.2610 C   0  0  0  0  0  0  0  0  0  0  0  0
   57.2930   31.0230   43.5330 C   0  0  0  0  0  0  0  0  0  0  0  0
   56.1900   30.2210   43.8400 C   0  0  0  0  0  0  0  0  0  0  0  0
   56.2710   29.2850   44.8740 C   0  0  0  0  0  0  0  0  0  0  0  0
   57.4560   29.1480   45.6040 C   0  0  0  0  0  0  0  0  0  0  0  0
   61.5740   32.6580   48.1010 C   0  0  2  0  0  0  0  0  0  0  0  0
   62.7610   32.5010   49.0320 C   0  0  0  0  0  0  0  0  0  0  0  0
   62.9090   31.3590   49.8430 C   0  0  0  0  0  0  0  0  0  0  0  0
   64.0260   31.2190   50.6710 C   0  0  0  0  0  0  0  0  0  0  0  0
   65.0120   32.2070   50.6910 C   0  0  0  0  0  0  0  0  0  0  0  0
   64.8860   33.3360   49.8780 C   0  0  0  0  0  0  0  0  0  0  0  0
   63.7710   33.4820   49.0480 C   0  0  0  0  0  0  0  0  0  0  0  0
   60.3470   33.0260   48.8540 N   0  0  0  0  0  0  0  0  0  0  0  0
   59.6380   34.2960   48.5850 C   0  0  0  0  0  0  0  0  0  0  0  0
   58.9070   34.2530   47.2640 C   0  0  0  0  0  0  0  0  0  0  0  0
   59.4420   34.9170   46.1460 C   0  0  0  0  0  0  0  0  0  0  0  0
   58.7710   34.8890   44.9190 C   0  0  0  0  0  0  0  0  0  0  0  0
   57.5690   34.1870   44.7940 C   0  0  0  0  0  0  0  0  0  0  0  0
   57.0410   33.5060   45.8940 C   0  0  0  0  0  0  0  0  0  0  0  0
   57.7090   33.5310   47.1230 C   0  0  0  0  0  0  0  0  0  0  0  0
   59.8580   32.0870   49.8490 C   0  0  0  0  0  0  0  0  0  0  0  0
   59.1950   31.0770   49.4810 O   0  0  0  0  0  0  0  0  0  0  0  0
   60.0590   32.2830   51.3250 C   0  0  0  0  0  0  0  0  0  0  0  0
   58.8920   33.4810   51.9390 Cl  0  0  0  0  0  0  0  0  0  0  0  0
   59.2580   31.4460   47.3230 H   0  0  0  0  0  0  0  0  0  0  0  0
   60.6874   29.6953   45.3515 H   0  0  0  0  0  0  0  0  0  0  0  0
   59.7931   28.8943   46.6947 H   0  0  0  0  0  0  0  0  0  0  0  0
   59.3488   31.5157   44.0135 H   0  0  0  0  0  0  0  0  0  0  0  0
   57.2277   31.7601   42.7191 H   0  0  0  0  0  0  0  0  0  0  0  0
   55.2572   30.3270   43.2668 H   0  0  0  0  0  0  0  0  0  0  0  0
   55.4018   28.6551   45.1142 H   0  0  0  0  0  0  0  0  0  0  0  0
   57.5180   28.4062   46.4138 H   0  0  0  0  0  0  0  0  0  0  0  0
   61.7677   33.4948   47.4138 H   0  0  0  0  0  0  0  0  0  0  0  0
   62.1404   30.5723   49.8245 H   0  0  0  0  0  0  0  0  0  0  0  0
   64.1285   30.3284   51.3084 H   0  0  0  0  0  0  0  0  0  0  0  0
   65.8881   32.0965   51.3469 H   0  0  0  0  0  0  0  0  0  0  0  0
   65.6659   34.1116   49.8911 H   0  0  0  0  0  0  0  0  0  0  0  0
   63.6819   34.3688   48.4033 H   0  0  0  0  0  0  0  0  0  0  0  0
   58.9107   34.4768   49.3902 H   0  0  0  0  0  0  0  0  0  0  0  0
   60.3827   35.1044   48.5411 H   0  0  0  0  0  0  0  0  0  0  0  0
   60.3935   35.4615   46.2368 H   0  0  0  0  0  0  0  0  0  0  0  0
   59.1898   35.4201   44.0515 H   0  0  0  0  0  0  0  0  0  0  0  0
   57.0389   34.1706   43.8303 H   0  0  0  0  0  0  0  0  0  0  0  0
   56.0979   32.9489   45.7934 H   0  0  0  0  0  0  0  0  0  0  0  0
   57.2951   32.9834   47.9826 H   0  0  0  0  0  0  0  0  0  0  0  0
   59.9069   31.3255   51.8446 H   0  0  0  0  0  0  0  0  0  0  0  0
   61.0815   32.6453   51.5074 H   0  0  0  0  0  0  0  0  0  0  0  0
  1  2  2  0
  2  3  1  0
  3  4  1  0
  4  5  1  0
  5  6  2  0
  6  7  1  0
  7  8  2  0
  8  9  1  0
  9 10  2  0
  2 11  1  0
 11 12  1  0
 12 13  2  0
 13 14  1  0
 14 15  2  0
 15 16  1  0
 16 17  2  0
 11 18  1  0
 18 19  1  0
 19 20  1  0
 20 21  2  0
 21 22  1  0
 22 23  2  0
 23 24  1  0
 24 25  2  0
 18 26  1  0
 26 27  2  0
 26 28  1  0
 28 29  1  0
 10  5  1  0
 17 12  1  0
 25 20  1  0
  3 30  1  0
  4 31  1  0
  4 32  1  0
  6 33  1  0
  7 34  1  0
  8 35  1  0
  9 36  1  0
 10 37  1  0
 11 38  1  6
 13 39  1  0
 14 40  1  0
 15 41  1  0
 16 42  1  0
 17 43  1  0
 19 44  1  0
 19 45  1  0
 21 46  1  0
 22 47  1  0
 23 48  1  0
 24 49  1  0
 25 50  1  0
 28 51  1  0
 28 52  1  0
M  END
>  <UniqueID>  (5) 
5

>  <SMILES>  (5) 
O=C(NCc1ccccc1)[C@H](c1ccccc1)N(Cc1ccccc1)C(=O)CCl

>  <Energy>  (5) 
52.03332654213987

>  <Genealogy>  (5) 
O=C(NCc1ccccc1)[C@H](c1ccccc1)N(Cc1ccccc1)C(=O)CCl (chirality)
O=C(NCc1ccccc1)[C@H](c1ccccc1)N(Cc1ccccc1)C(=O)CCl (3D coordinates assigned)
O=C(NCc1ccccc1)[C@H](c1ccccc1)N(Cc1ccccc1)C(=O)CCl (optimized conformer: 52.03332654213987 kcal/mol)

>  <smiles>  (5) 
O=C(NCc1ccccc1)C(c1ccccc1)N(Cc1ccccc1)C(=O)CCl

>  <score_type>  (5) 
oracle

>  <origin>  (5) 
adg

>  <m_score__min__energy>  (5) 
-8.1799999999999997

>  <m_primary>  (5) 
energy

$$$$
5:0
     RDKit          3D

 65 68  0  0  0  0  0  0  0  0999 V2000
   55.9100   19.8810   44.1900 C   0  0  0  0  0  0  0  0  0  0  0  0
   56.6470   20.6540   43.1060 C   0  0  0  0  0  0  0  0  0  0  0  0
   56.7500   22.0250   43.4820 O   0  0  0  0  0  0  0  0  0  0  0  0
   57.5220   22.4560   44.5670 C   0  0  0  0  0  0  0  0  0  0  0  0
   58.0590   21.6050   45.3310 O   0  0  0  0  0  0  0  0  0  0  0  0
   57.7110   23.8650   44.8060 N   0  0  0  0  0  0  0  0  0  0  0  0
   58.4370   24.3290   45.9930 C   0  0  0  0  0  0  0  0  0  0  0  0
   59.2390   25.6000   45.6770 C   0  0  0  0  0  0  0  0  0  0  0  0
   58.4550   26.6210   44.9540 N   0  0  0  0  0  0  0  0  0  0  0  0
   57.3850   27.5360   45.9960 S   0  0  0  0  0  0  0  0  0  0  0  0
   55.9540   27.2180   45.6620 O   0  0  0  0  0  0  0  0  0  0  0  0
   57.6370   27.2010   47.4390 O   0  0  0  0  0  0  0  0  0  0  0  0
   57.6420   29.2590   45.7340 C   0  0  0  0  0  0  0  0  0  0  0  0
   58.6050   29.9440   46.4870 C   0  0  0  0  0  0  0  0  0  0  0  0
   58.8080   31.3140   46.2920 C   0  0  0  0  0  0  0  0  0  0  0  0
   58.0540   32.0080   45.3380 C   0  0  0  0  0  0  0  0  0  0  0  0
   58.2640   33.7430   45.1090 S   0  0  0  0  0  0  0  0  0  0  0  0
   56.9310   34.4370   45.1620 O   0  0  0  0  0  0  0  0  0  0  0  0
   58.8780   33.9740   43.7560 O   0  0  0  0  0  0  0  0  0  0  0  0
   59.3100   34.3830   46.3530 N   0  0  0  0  0  0  0  0  0  0  0  0
   60.7400   34.1970   45.9960 C   0  0  0  0  0  0  0  0  0  0  0  0
   61.4520   33.1310   46.8410 C   0  0  0  0  0  0  0  0  0  0  0  0
   61.2670   33.4140   48.2710 N   0  0  0  0  0  0  0  0  0  0  0  0
   62.2750   33.0400   49.2370 C   0  0  0  0  0  0  0  0  0  0  0  0
   61.9750   33.0200   50.6120 C   0  0  0  0  0  0  0  0  0  0  0  0
   62.9520   32.6580   51.5460 C   0  0  0  0  0  0  0  0  0  0  0  0
   64.2350   32.3110   51.1190 C   0  0  0  0  0  0  0  0  0  0  0  0
   64.5450   32.3250   49.7570 C   0  0  0  0  0  0  0  0  0  0  0  0
   63.5740   32.6890   48.8200 C   0  0  0  0  0  0  0  0  0  0  0  0
   60.0080   34.0270   48.7170 C   0  0  0  0  0  0  0  0  0  0  0  0
   58.9170   33.8210   47.6630 C   0  0  0  0  0  0  0  0  0  0  0  0
   57.1040   31.3190   44.5710 C   0  0  0  0  0  0  0  0  0  0  0  0
   56.9010   29.9490   44.7660 C   0  0  0  0  0  0  0  0  0  0  0  0
   57.7810   26.0880   43.7560 C   0  0  0  0  0  0  0  0  0  0  0  0
   56.9290   24.8510   44.0560 C   0  0  0  0  0  0  0  0  0  0  0  0
   56.2422   20.2294   45.1791 H   0  0  0  0  0  0  0  0  0  0  0  0
   54.8275   20.0472   44.0873 H   0  0  0  0  0  0  0  0  0  0  0  0
   56.1276   18.8076   44.0873 H   0  0  0  0  0  0  0  0  0  0  0  0
   57.6551   20.2330   42.9773 H   0  0  0  0  0  0  0  0  0  0  0  0
   56.0915   20.5756   42.1598 H   0  0  0  0  0  0  0  0  0  0  0  0
   57.7161   24.5470   46.7948 H   0  0  0  0  0  0  0  0  0  0  0  0
   59.1350   23.5406   46.3110 H   0  0  0  0  0  0  0  0  0  0  0  0
   59.5903   26.0356   46.6240 H   0  0  0  0  0  0  0  0  0  0  0  0
   60.0720   25.3050   45.0220 H   0  0  0  0  0  0  0  0  0  0  0  0
   59.2035   29.4022   47.2342 H   0  0  0  0  0  0  0  0  0  0  0  0
   59.5618   31.8475   46.8896 H   0  0  0  0  0  0  0  0  0  0  0  0
   60.7983   33.8985   44.9389 H   0  0  0  0  0  0  0  0  0  0  0  0
   61.2474   35.1535   46.1899 H   0  0  0  0  0  0  0  0  0  0  0  0
   61.0313   32.1416   46.6085 H   0  0  0  0  0  0  0  0  0  0  0  0
   62.5268   33.1449   46.6072 H   0  0  0  0  0  0  0  0  0  0  0  0
   60.9655   33.2908   50.9547 H   0  0  0  0  0  0  0  0  0  0  0  0
   62.7086   32.6468   52.6187 H   0  0  0  0  0  0  0  0  0  0  0  0
   65.0016   32.0266   51.8548 H   0  0  0  0  0  0  0  0  0  0  0  0
   65.5555   32.0490   49.4213 H   0  0  0  0  0  0  0  0  0  0  0  0
   63.8259   32.7015   47.7493 H   0  0  0  0  0  0  0  0  0  0  0  0
   59.6923   33.5617   49.6624 H   0  0  0  0  0  0  0  0  0  0  0  0
   60.1662   35.1056   48.8636 H   0  0  0  0  0  0  0  0  0  0  0  0
   58.7318   32.7429   47.5474 H   0  0  0  0  0  0  0  0  0  0  0  0
   58.0096   34.3424   48.0018 H   0  0  0  0  0  0  0  0  0  0  0  0
   56.5162   31.8578   43.8132 H   0  0  0  0  0  0  0  0  0  0  0  0
   56.1579   29.4122   44.1580 H   0  0  0  0  0  0  0  0  0  0  0  0
   57.1296   26.8714   43.3413 H   0  0  0  0  0  0  0  0  0  0  0  0
   58.5622   25.7873   43.0424 H   0  0  0  0  0  0  0  0  0  0  0  0
   56.0536   25.1490   44.6517 H   0  0  0  0  0  0  0  0  0  0  0  0
   56.6032   24.4019   43.1062 H   0  0  0  0  0  0  0  0  0  0  0  0
  1  2  1  0
  2  3  1  0
  3  4  1  0
  4  5  2  0
  4  6  1  0
  6  7  1  0
  7  8  1  0
  8  9  1  0
  9 10  1  0
 10 11  2  0
 10 12  2  0
 10 13  1  0
 13 14  2  0
 14 15  1  0
 15 16  2  0
 16 17  1  0
 17 18  2  0
 17 19  2  0
 17 20  1  0
 20 21  1  0
 21 22  1  0
 22 23  1  0
 23 24  1  0
 24 25  2  0
 25 26  1  0
 26 27  2  0
 27 28  1  0
 28 29  2  0
 23 30  1  0
 30 31  1  0
 16 32  1  0
 32 33  2  0
  9 34  1  0
 34 35  1  0
 35  6  1  0
 33 13  1  0
 31 20  1  0
 29 24  1  0
  1 36  1  0
  1 37  1  0
  1 38  1  0
  2 39  1  0
  2 40  1  0
  7 41  1  0
  7 42  1  0
  8 43  1  0
  8 44  1  0
 14 45  1  0
 15 46  1  0
 21 47  1  0
 21 48  1  0
 22 49  1  0
 22 50  1  0
 25 51  1  0
 26 52  1  0
 27 53  1  0
 28 54  1  0
 29 55  1  0
 30 56  1  0
 30 57  1  0
 31 58  1  0
 31 59  1  0
 32 60  1  0
 33 61  1  0
 34 62  1  0
 34 63  1  0
 35 64  1  0
 35 65  1  0
M  END
>  <UniqueID>  (6) 
6

>  <SMILES>  (6) 
CCOC(=O)N1CCN(S(=O)(=O)c2ccc(S(=O)(=O)N3CCN(c4ccccc4)CC3)cc2)CC1

>  <Energy>  (6) 
73.65148378909048

>  <Genealogy>  (6) 
CCOC(=O)N1CCN(S(=O)(=O)c2ccc(S(=O)(=O)N3CCN(c4ccccc4)CC3)cc2)CC1 (3D coordinates assigned)
CCOC(=O)N1CCN(S(=O)(=O)c2ccc(S(=O)(=O)N3CCN(c4ccccc4)CC3)cc2)CC1 (nonaromatic ring conformer: 73.65148378909048 kcal/mol)

>  <smiles>  (6) 
CCOC(=O)N1CCN(S(=O)(=O)c2ccc(S(=O)(=O)N3CCN(c4ccccc4)CC3)cc2)CC1

>  <score_type>  (6) 
oracle

>  <origin>  (6) 
adg

>  <m_score__min__energy>  (6) 
-9.6300000000000008

>  <m_primary>  (6) 
energy

$$$$
6:0
     RDKit          3D

 43 45  0  0  0  0  0  0  0  0999 V2000
   59.5310   30.8800   46.0160 O   0  0  0  0  0  0  0  0  0  0  0  0
   58.5500   30.4640   45.3430 C   0  0  0  0  0  0  0  0  0  0  0  0
   58.6900   29.2300   44.5090 C   0  0  0  0  0  0  0  0  0  0  0  0
   58.0860   28.0810   45.2020 N   0  0  0  0  0  0  0  0  0  0  0  0
   58.9100   27.0990   45.6800 C   0  0  0  0  0  0  0  0  0  0  0  0
   58.3870   25.9760   46.3220 C   0  0  0  0  0  0  0  0  0  0  0  0
   57.0090   25.8540   46.4930 C   0  0  0  0  0  0  0  0  0  0  0  0
   56.4970   24.6860   47.1510 N   0  0  0  0  0  0  0  0  0  0  0  0
   56.7520   23.3330   46.7540 C   0  0  0  0  0  0  0  0  0  0  0  0
   57.0640   22.4680   47.6190 O   0  0  0  0  0  0  0  0  0  0  0  0
   56.6940   22.9730   45.3260 C   0  0  0  0  0  0  0  0  0  0  0  0
   55.8940   23.6920   44.4210 C   0  0  0  0  0  0  0  0  0  0  0  0
   55.8680   23.3170   43.0760 C   0  0  0  0  0  0  0  0  0  0  0  0
   56.6360   22.2350   42.6420 C   0  0  0  0  0  0  0  0  0  0  0  0
   57.4210   21.5420   43.5660 C   0  0  0  0  0  0  0  0  0  0  0  0
   57.4330   21.9210   44.8720 N   0  0  0  0  0  0  0  0  0  0  0  0
   56.1630   26.8390   45.9550 C   0  0  0  0  0  0  0  0  0  0  0  0
   54.7790   26.7030   46.0190 O   0  0  0  0  0  0  0  0  0  0  0  0
   56.7220   27.9540   45.3130 C   0  0  0  0  0  0  0  0  0  0  0  0
   55.9540   28.8300   44.8290 O   0  0  0  0  0  0  0  0  0  0  0  0
   57.3100   31.1820   45.3450 N   0  0  0  0  0  0  0  0  0  0  0  0
   57.1610   32.5360   44.8270 C   0  0  0  0  0  0  0  0  0  0  0  0
   58.0470   33.4870   45.5860 C   0  0  0  0  0  0  0  0  0  0  0  0
   58.0930   33.4550   46.9910 C   0  0  0  0  0  0  0  0  0  0  0  0
   58.9010   34.3580   47.6880 C   0  0  0  0  0  0  0  0  0  0  0  0
   59.6650   35.3010   46.9910 C   0  0  0  0  0  0  0  0  0  0  0  0
   59.6180   35.3420   45.5930 C   0  0  0  0  0  0  0  0  0  0  0  0
   58.8110   34.4420   44.8920 C   0  0  0  0  0  0  0  0  0  0  0  0
   58.1816   29.3823   43.5455 H   0  0  0  0  0  0  0  0  0  0  0  0
   59.7581   29.0283   44.3404 H   0  0  0  0  0  0  0  0  0  0  0  0
   59.9987   27.1960   45.5566 H   0  0  0  0  0  0  0  0  0  0  0  0
   59.0604   25.1889   46.6922 H   0  0  0  0  0  0  0  0  0  0  0  0
   55.2925   24.5443   44.7699 H   0  0  0  0  0  0  0  0  0  0  0  0
   55.2441   23.8727   42.3605 H   0  0  0  0  0  0  0  0  0  0  0  0
   56.6230   21.9319   41.5847 H   0  0  0  0  0  0  0  0  0  0  0  0
   58.0309   20.6878   43.2368 H   0  0  0  0  0  0  0  0  0  0  0  0
   57.4408   32.5502   43.7633 H   0  0  0  0  0  0  0  0  0  0  0  0
   56.1138   32.8510   44.9459 H   0  0  0  0  0  0  0  0  0  0  0  0
   57.4917   32.7176   47.5430 H   0  0  0  0  0  0  0  0  0  0  0  0
   58.9364   34.3273   48.7870 H   0  0  0  0  0  0  0  0  0  0  0  0
   60.3017   36.0092   47.5415 H   0  0  0  0  0  0  0  0  0  0  0  0
   60.2173   36.0840   45.0450 H   0  0  0  0  0  0  0  0  0  0  0  0
   58.7732   34.4807   43.7933 H   0  0  0  0  0  0  0  0  0  0  0  0
  1  2  2  0
  2  3  1  0
  3  4  1  0
  4  5  1  0
  5  6  2  0
  6  7  1  0
  7  8  1  0
  8  9  1  0
  9 10  2  0
  9 11  1  0
 11 12  2  0
 12 13  1  0
 13 14  2  0
 14 15  1  0
 15 16  2  0
  7 17  2  0
 17 18  1  0
 17 19  1  0
 19 20  2  0
  2 21  1  0
 21 22  1  0
 22 23  1  0
 23 24  2  0
 24 25  1  0
 25 26  2  0
 26 27  1  0
 27 28  2  0
 19  4  1  0
 28 23  1  0
 16 11  1  0
  3 29  1  0
  3 30  1  0
  5 31  1  0
  6 32  1  0
 12 33  1  0
 13 34  1  0
 14 35  1  0
 15 36  1  0
 22 37  1  0
 22 38  1  0
 24 39  1  0
 25 40  1  0
 26 41  1  0
 27 42  1  0
 28 43  1  0
M  CHG  3   8  -1  18  -1  21  -1
M  END
>  <UniqueID>  (7) 
7

>  <SMILES>  (7) 
O=C(Cn1ccc([N-]C(=O)c2ccccn2)c([O-])c1=O)[N-]Cc1ccccc1

>  <Energy>  (7) 
51.14197403024005

>  <Genealogy>  (7) 
O=C(Cn1ccc([N-]C(=O)c2ccccn2)c([O-])c1=O)[N-]Cc1ccccc1 (protonated)
O=C(Cn1ccc([N-]C(=O)c2ccccn2)c([O-])c1=O)[N-]Cc1ccccc1 (3D coordinates assigned)
O=C(Cn1ccc([N-]C(=O)c2ccccn2)c([O-])c1=O)[N-]Cc1ccccc1 (optimized conformer: 51.14197403024005 kcal/mol)

>  <smiles>  (7) 
O=C(Cn1ccc(NC(=O)c2ccccn2)c(O)c1=O)NCc1ccccc1

>  <score_type>  (7) 
oracle

>  <origin>  (7) 
adg

>  <m_score__min__energy>  (7) 
-15.609999999999999

>  <m_primary>  (7) 
energy

$$$$
7:0
     RDKit          3D

 40 42  0  0  0  0  0  0  0  0999 V2000
   64.6590   33.1030   50.2450 C   0  0  0  0  0  0  0  0  0  0  0  0
   63.6940   33.3420   49.1210 C   0  0  0  0  0  0  0  0  0  0  0  0
   64.0820   33.0990   47.7950 C   0  0  0  0  0  0  0  0  0  0  0  0
   63.1780   33.2890   46.7470 C   0  0  0  0  0  0  0  0  0  0  0  0
   61.8710   33.7090   47.0140 C   0  0  0  0  0  0  0  0  0  0  0  0
   61.0010   33.9030   45.9890 N   0  0  0  0  0  0  0  0  0  0  0  0
   59.7190   34.3090   46.1970 C   0  0  0  0  0  0  0  0  0  0  0  0
   58.8310   34.5810   45.0180 C   0  0  0  0  0  0  0  0  0  0  0  0
   57.1880   33.8100   45.2480 S   0  0  0  0  0  0  0  0  0  0  0  0
   57.8350   32.1860   45.6800 C   0  0  0  0  0  0  0  0  0  0  0  0
   58.1630   31.9490   46.9780 N   0  0  0  0  0  0  0  0  0  0  0  0
   58.6970   30.7700   47.3860 C   0  0  0  0  0  0  0  0  0  0  0  0
   59.0430   30.5760   48.8280 C   0  0  0  0  0  0  0  0  0  0  0  0
   58.8990   29.7410   46.4610 C   0  0  0  0  0  0  0  0  0  0  0  0
   58.5670   29.9410   45.1130 C   0  0  0  0  0  0  0  0  0  0  0  0
   58.7920   28.8320   44.1190 C   0  0  0  0  0  0  0  0  0  0  0  0
   58.0270   31.1820   44.7130 C   0  0  0  0  0  0  0  0  0  0  0  0
   57.6770   31.4250   43.3310 C   0  0  0  0  0  0  0  0  0  0  0  0
   57.3960   31.6190   42.2250 N   0  0  0  0  0  0  0  0  0  0  0  0
   59.2660   34.5420   47.5040 C   0  0  0  0  0  0  0  0  0  0  0  0
   60.1370   34.3610   48.5820 C   0  0  0  0  0  0  0  0  0  0  0  0
   59.7260   34.5850   49.7540 O   0  0  0  0  0  0  0  0  0  0  0  0
   61.4600   33.9400   48.3480 C   0  0  0  0  0  0  0  0  0  0  0  0
   62.3770   33.7460   49.3960 C   0  0  0  0  0  0  0  0  0  0  0  0
   64.1407   33.2314   51.2067 H   0  0  0  0  0  0  0  0  0  0  0  0
   65.0559   32.0794   50.1761 H   0  0  0  0  0  0  0  0  0  0  0  0
   65.4877   33.8230   50.1761 H   0  0  0  0  0  0  0  0  0  0  0  0
   65.1048   32.7566   47.5790 H   0  0  0  0  0  0  0  0  0  0  0  0
   63.4949   33.1078   45.7093 H   0  0  0  0  0  0  0  0  0  0  0  0
   58.7062   35.6679   44.9041 H   0  0  0  0  0  0  0  0  0  0  0  0
   59.2982   34.1521   44.1193 H   0  0  0  0  0  0  0  0  0  0  0  0
   58.2556   31.0175   49.4566 H   0  0  0  0  0  0  0  0  0  0  0  0
   59.1247   29.5005   49.0440 H   0  0  0  0  0  0  0  0  0  0  0  0
   60.0032   31.0673   49.0440 H   0  0  0  0  0  0  0  0  0  0  0  0
   59.3169   28.7779   46.7894 H   0  0  0  0  0  0  0  0  0  0  0  0
   58.9829   27.8913   44.6562 H   0  0  0  0  0  0  0  0  0  0  0  0
   57.8985   28.7188   43.4874 H   0  0  0  0  0  0  0  0  0  0  0  0
   59.6589   29.0760   43.4874 H   0  0  0  0  0  0  0  0  0  0  0  0
   58.2295   34.8658   47.6798 H   0  0  0  0  0  0  0  0  0  0  0  0
   62.0615   33.9114   50.4367 H   0  0  0  0  0  0  0  0  0  0  0  0
  1  2  1  0
  2  3  2  0
  3  4  1  0
  4  5  2  0
  5  6  1  0
  6  7  1  0
  7  8  1  0
  8  9  1  0
  9 10  1  0
 10 11  2  0
 11 12  1  0
 12 13  1  0
 12 14  2  0
 14 15  1  0
 15 16  1  0
 15 17  2  0
 17 18  1  0
 18 19  3  0
  7 20  2  0
 20 21  1  0
 21 22  2  0
 21 23  1  0
 23 24  2  0
 24  2  1  0
 23  5  1  0
 17 10  1  0
  1 25  1  0
  1 26  1  0
  1 27  1  0
  3 28  1  0
  4 29  1  0
  8 30  1  0
  8 31  1  0
 13 32  1  0
 13 33  1  0
 13 34  1  0
 14 35  1  0
 16 36  1  0
 16 37  1  0
 16 38  1  0
 20 39  1  0
 24 40  1  0
M  CHG  1   6  -1
M  END
>  <UniqueID>  (8) 
8

>  <SMILES>  (8) 
Cc1ccc2[n-]c(CSc3nc(C)cc(C)c3C#N)cc(=O)c2c1

>  <Energy>  (8) 
40.06053455772997

>  <Genealogy>  (8) 
Cc1ccc2[n-]c(CSc3nc(C)cc(C)c3C#N)cc(=O)c2c1 (protonated)
Cc1ccc2[n-]c(CSc3nc(C)cc(C)c3C#N)cc(=O)c2c1 (3D coordinates assigned)
Cc1ccc2[n-]c(CSc3nc(C)cc(C)c3C#N)cc(=O)c2c1 (optimized conformer: 40.06053455772997 kcal/mol)

>  <smiles>  (8) 
Cc1ccc2[nH]c(CSc3nc(C)cc(C)c3C#N)cc(=O)c2c1

>  <score_type>  (8) 
oracle

>  <origin>  (8) 
adg

>  <m_score__min__energy>  (8) 
-9.0700000000000003

>  <m_primary>  (8) 
energy

$$$$
8:0
     RDKit          3D

 41 42  0  0  0  0  0  0  0  0999 V2000
   60.0670   35.2950   48.3610 H   0  0  0  0  0  0  0  0  0  0  0  0
   59.2860   35.3120   47.7540 O   0  0  0  0  0  0  0  0  0  0  0  0
   59.8240   34.6100   46.3230 S   0  0  0  0  0  0  0  0  0  0  0  0
   61.5110   34.2350   46.3700 N   0  0  0  0  0  0  0  0  0  0  0  0
   61.9460   33.1540   46.9330 C   0  0  0  0  0  0  0  0  0  0  0  0
   61.7088   32.1767   46.4873 H   0  0  0  0  0  0  0  0  0  0  0  0
   62.7560   33.2150   48.1650 C   0  0  0  0  0  0  0  0  0  0  0  0
   63.7720   32.2650   48.3710 C   0  0  0  0  0  0  0  0  0  0  0  0
   63.9556   31.4873   47.6150 H   0  0  0  0  0  0  0  0  0  0  0  0
   64.5500   32.3040   49.5320 C   0  0  0  0  0  0  0  0  0  0  0  0
   65.3436   31.5580   49.6860 H   0  0  0  0  0  0  0  0  0  0  0  0
   64.3220   33.2880   50.4970 C   0  0  0  0  0  0  0  0  0  0  0  0
   65.0780   33.3240   51.6230 F   0  0  0  0  0  0  0  0  0  0  0  0
   63.3140   34.2370   50.3030 C   0  0  0  0  0  0  0  0  0  0  0  0
   63.1348   35.0114   51.0634 H   0  0  0  0  0  0  0  0  0  0  0  0
   62.5330   34.2030   49.1430 C   0  0  0  0  0  0  0  0  0  0  0  0
   61.7409   34.9516   48.9942 H   0  0  0  0  0  0  0  0  0  0  0  0
   58.8410   33.2600   45.7570 C   0  0  0  0  0  0  0  0  0  0  0  0
   58.3290   33.3300   44.4550 C   0  0  0  0  0  0  0  0  0  0  0  0
   58.4932   34.2354   43.8523 H   0  0  0  0  0  0  0  0  0  0  0  0
   57.6120   32.2600   43.9160 C   0  0  0  0  0  0  0  0  0  0  0  0
   57.2085   32.3294   42.8950 H   0  0  0  0  0  0  0  0  0  0  0  0
   57.4050   31.1000   44.6700 C   0  0  0  0  0  0  0  0  0  0  0  0
   56.5270   29.7390   43.9790 S   0  0  0  0  0  0  0  0  0  0  0  0
   55.4070   29.3380   44.8980 O   0  0  0  0  0  0  0  0  0  0  0  0
   55.9410   30.1290   42.6510 O   0  0  0  0  0  0  0  0  0  0  0  0
   57.6020   28.4040   43.7630 N   0  0  0  0  0  0  0  0  0  0  0  0
   58.2390   28.6500   42.9730 H   0  0  0  0  0  0  0  0  0  0  0  0
   57.0240   27.5950   43.4420 H   0  0  0  0  0  0  0  0  0  0  0  0
   57.9270   31.0140   45.9660 C   0  0  0  0  0  0  0  0  0  0  0  0
   57.7831   30.0939   46.5514 H   0  0  0  0  0  0  0  0  0  0  0  0
   58.6330   32.0920   46.5260 C   0  0  0  0  0  0  0  0  0  0  0  0
   59.1660   31.9460   47.8920 C   0  0  0  0  0  0  0  0  0  0  0  0
   59.7580   30.8800   48.2120 O   0  0  0  0  0  0  0  0  0  0  0  0
   58.9560   32.9820   48.8630 N   0  0  0  0  0  0  0  0  0  0  0  0
   58.2550   33.7250   48.6420 H   0  0  0  0  0  0  0  0  0  0  0  0
   59.6470   33.0530   50.1180 C   0  0  0  0  0  0  0  0  0  0  0  0
   60.5250   32.2000   50.4200 O   0  0  0  0  0  0  0  0  0  0  0  0
   59.3500   34.1060   51.0340 N   0  0  0  0  0  0  0  0  0  0  0  0
   58.6320   34.8270   50.8000 H   0  0  0  0  0  0  0  0  0  0  0  0
   59.8510   34.1670   51.9480 H   0  0  0  0  0  0  0  0  0  0  0  0
  1  2  1  0
  3  2  1  1
  3  4  1  0
  4  5  2  0
  5  6  1  0
  5  7  1  0
  7  8  2  0
  8  9  1  0
  8 10  1  0
 10 11  1  0
 10 12  2  0
 12 13  1  0
 12 14  1  0
 14 15  1  0
 14 16  2  0
 16 17  1  0
  3 18  1  0
 18 19  2  0
 19 20  1  0
 19 21  1  0
 21 22  1  0
 21 23  2  0
 23 24  1  0
 24 25  2  0
 24 26  2  0
 24 27  1  0
 27 28  1  0
 27 29  1  0
 23 30  1  0
 30 31  1  0
 30 32  2  0
 32 33  1  0
 33 34  2  0
 33 35  1  0
 35 36  1  0
 35 37  1  0
 37 38  2  0
 37 39  1  0
 39 40  1  0
 39 41  1  0
 16  7  1  0
 32 18  1  0
M  CHG  1   3   1
M  END
>  <UniqueID>  (9) 
9

>  <SMILES>  (9) 
NC(=O)NC(=O)c1cc(S(N)(=O)=O)ccc1[S@@+](O)/N=C/c1ccc(F)cc1

>  <Energy>  (9) 
43.45139476831289

>  <Genealogy>  (9) 
NC(=O)NC(=O)c1cc(S(N)(=O)=O)ccc1[S+](O)N=Cc1ccc(F)cc1 (protonated)
NC(=O)NC(=O)c1cc(S(N)(=O)=O)ccc1[S@@+](O)N=Cc1ccc(F)cc1 (chirality)
NC(=O)NC(=O)c1cc(S(N)(=O)=O)ccc1[S@@+](O)/N=C/c1ccc(F)cc1 (cis-trans isomerization)
NC(=O)NC(=O)c1cc(S(N)(=O)=O)ccc1[S@@+](O)/N=C/c1ccc(F)cc1 (3D coordinates assigned)
NC(=O)NC(=O)c1cc(S(N)(=O)=O)ccc1[S@@+](O)/N=C/c1ccc(F)cc1 (optimized conformer: 43.45139476831289 kcal/mol)

>  <smiles>  (9) 
NC(=O)NC(=O)c1cc(S(N)(=O)=O)ccc1[S+]([O-])N=Cc1ccc(F)cc1

>  <score_type>  (9) 
oracle

>  <origin>  (9) 
adg

>  <m_score__min__energy>  (9) 
-7.7800000000000002

>  <m_primary>  (9) 
energy

$$$$
9:0
     RDKit          3D

 35 37  0  0  0  0  0  0  0  0999 V2000
   55.1370   28.9670   44.4580 N   0  0  0  0  0  0  0  0  0  0  0  0
   56.2640   29.7870   44.1640 C   0  0  0  0  0  0  0  0  0  0  0  0
   56.4750   30.1480   42.9760 O   0  0  0  0  0  0  0  0  0  0  0  0
   57.2180   30.1700   45.2180 C   0  0  0  0  0  0  0  0  0  0  0  0
   57.4970   31.4510   45.5240 N   0  0  0  0  0  0  0  0  0  0  0  0
   58.4650   31.4150   46.4270 N   0  0  0  0  0  0  0  0  0  0  0  0
   59.0550   32.5850   47.0140 C   0  0  0  0  0  0  0  0  0  0  0  0
   59.3720   32.6140   48.3900 C   0  0  0  0  0  0  0  0  0  0  0  0
   59.1230   31.2130   49.4260 Cl  0  0  0  0  0  0  0  0  0  0  0  0
   59.9460   33.7600   48.9540 C   0  0  0  0  0  0  0  0  0  0  0  0
   60.2080   34.8780   48.1640 C   0  0  0  0  0  0  0  0  0  0  0  0
   59.8980   34.8620   46.8040 C   0  0  0  0  0  0  0  0  0  0  0  0
   59.3240   33.7250   46.2240 C   0  0  0  0  0  0  0  0  0  0  0  0
   58.9000   33.7870   44.5170 Cl  0  0  0  0  0  0  0  0  0  0  0  0
   58.8330   30.1770   46.7230 N   0  0  0  0  0  0  0  0  0  0  0  0
   58.0580   29.3670   45.9790 C   0  0  0  0  0  0  0  0  0  0  0  0
   58.1080   27.8990   46.0710 C   0  0  0  0  0  0  0  0  0  0  0  0
   58.6230   27.3700   47.0930 O   0  0  0  0  0  0  0  0  0  0  0  0
   57.4810   27.0800   45.0730 N   0  0  0  0  0  0  0  0  0  0  0  0
   57.7610   25.6800   44.8900 C   0  0  0  0  0  0  0  0  0  0  0  0
   58.6540   25.0380   45.7630 C   0  0  0  0  0  0  0  0  0  0  0  0
   58.9230   23.6730   45.6200 C   0  0  0  0  0  0  0  0  0  0  0  0
   58.2930   22.9360   44.6140 C   0  0  0  0  0  0  0  0  0  0  0  0
   57.3870   23.5610   43.7550 C   0  0  0  0  0  0  0  0  0  0  0  0
   57.1150   24.9260   43.8930 C   0  0  0  0  0  0  0  0  0  0  0  0
   55.2260   27.9280   44.5070 H   0  0  0  0  0  0  0  0  0  0  0  0
   60.1914   33.7780   50.0261 H   0  0  0  0  0  0  0  0  0  0  0  0
   60.6600   35.7744   48.6137 H   0  0  0  0  0  0  0  0  0  0  0  0
   60.1056   35.7470   46.1847 H   0  0  0  0  0  0  0  0  0  0  0  0
   56.7170   27.5070   44.5030 H   0  0  0  0  0  0  0  0  0  0  0  0
   59.1444   25.6115   46.5633 H   0  0  0  0  0  0  0  0  0  0  0  0
   59.6318   23.1788   46.3007 H   0  0  0  0  0  0  0  0  0  0  0  0
   58.5107   21.8639   44.4988 H   0  0  0  0  0  0  0  0  0  0  0  0
   56.8859   22.9785   42.9678 H   0  0  0  0  0  0  0  0  0  0  0  0
   56.3935   25.4118   43.2197 H   0  0  0  0  0  0  0  0  0  0  0  0
  1  2  1  0
  2  3  2  0
  2  4  1  0
  4  5  2  0
  5  6  1  0
  6  7  1  0
  7  8  2  0
  8  9  1  0
  8 10  1  0
 10 11  2  0
 11 12  1  0
 12 13  2  0
 13 14  1  0
  6 15  1  0
 15 16  2  0
 16 17  1  0
 17 18  2  0
 17 19  1  0
 19 20  1  0
 20 21  2  0
 21 22  1  0
 22 23  2  0
 23 24  1  0
 24 25  2  0
 16  4  1  0
 25 20  1  0
 13  7  1  0
  1 26  1  0
 10 27  1  0
 11 28  1  0
 12 29  1  0
 19 30  1  0
 21 31  1  0
 22 32  1  0
 23 33  1  0
 24 34  1  0
 25 35  1  0
M  CHG  1   1  -1
M  END
>  <UniqueID>  (10) 
10

>  <SMILES>  (10) 
[NH-]C(=O)c1nn(-c2c(Cl)cccc2Cl)nc1C(=O)Nc1ccccc1

>  <Energy>  (10) 
85.09815527443881

>  <Genealogy>  (10) 
[NH-]C(=O)c1nn(-c2c(Cl)cccc2Cl)nc1C(=O)Nc1ccccc1 (protonated)
[NH-]C(=O)c1nn(-c2c(Cl)cccc2Cl)nc1C(=O)Nc1ccccc1 (3D coordinates assigned)
[NH-]C(=O)c1nn(-c2c(Cl)cccc2Cl)nc1C(=O)Nc1ccccc1 (optimized conformer: 85.09815527443881 kcal/mol)

>  <smiles>  (10) 
NC(=O)c1nn(-c2c(Cl)cccc2Cl)nc1C(=O)Nc1ccccc1

>  <score_type>  (10) 
oracle

>  <origin>  (10) 
adg

>  <m_score__min__energy>  (10) 
-11.220000000000001

>  <m_primary>  (10) 
energy

$$$$
10:0
     RDKit          3D

 36 37  0  0  0  0  0  0  0  0999 V2000
   55.9710   30.5400   44.8480 O   0  0  0  0  0  0  0  0  0  0  0  0
   57.1610   30.8090   44.5270 C   0  0  0  0  0  0  0  0  0  0  0  0
   57.9120   29.8690   43.7400 N   0  0  0  0  0  0  0  0  0  0  0  0
   57.3870   28.5530   43.3760 C   0  0  0  0  0  0  0  0  0  0  0  0
   57.7080   27.5150   44.4550 C   0  0  0  0  0  0  0  0  0  0  0  0
   57.1360   27.9360   45.7450 N   0  0  0  0  0  0  0  0  0  0  0  0
   58.0160   27.6000   46.8730 C   0  0  0  0  0  0  0  0  0  0  0  0
   59.0050   28.7100   47.0830 C   0  0  0  0  0  0  0  0  0  0  0  0
   58.9570   29.4950   48.2450 C   0  0  0  0  0  0  0  0  0  0  0  0
   59.8590   30.5460   48.4160 C   0  0  0  0  0  0  0  0  0  0  0  0
   60.7950   30.8110   47.4140 C   0  0  0  0  0  0  0  0  0  0  0  0
   60.8200   30.0540   46.2850 N   0  0  0  0  0  0  0  0  0  0  0  0
   59.9520   29.0240   46.0970 C   0  0  0  0  0  0  0  0  0  0  0  0
   57.7760   32.0680   45.0080 C   0  0  0  0  0  0  0  0  0  0  0  0
   58.2630   33.0080   44.0800 C   0  0  0  0  0  0  0  0  0  0  0  0
   58.8300   34.2080   44.5170 C   0  0  0  0  0  0  0  0  0  0  0  0
   58.9240   34.4820   45.8830 C   0  0  0  0  0  0  0  0  0  0  0  0
   58.4580   33.5530   46.8150 C   0  0  0  0  0  0  0  0  0  0  0  0
   58.5610   33.8150   48.1420 F   0  0  0  0  0  0  0  0  0  0  0  0
   57.8890   32.3500   46.3830 C   0  0  0  0  0  0  0  0  0  0  0  0
   58.9000   30.0770   43.4750 H   0  0  0  0  0  0  0  0  0  0  0  0
   56.2957   28.6218   43.2567 H   0  0  0  0  0  0  0  0  0  0  0  0
   57.8591   28.2362   42.4343 H   0  0  0  0  0  0  0  0  0  0  0  0
   57.2790   26.5443   44.1657 H   0  0  0  0  0  0  0  0  0  0  0  0
   58.7996   27.4252   44.5562 H   0  0  0  0  0  0  0  0  0  0  0  0
   57.0120   28.9770   45.7340 H   0  0  0  0  0  0  0  0  0  0  0  0
   57.4122   27.4696   47.7832 H   0  0  0  0  0  0  0  0  0  0  0  0
   58.5538   26.6659   46.6534 H   0  0  0  0  0  0  0  0  0  0  0  0
   58.2078   29.2818   49.0217 H   0  0  0  0  0  0  0  0  0  0  0  0
   59.8331   31.1585   49.3293 H   0  0  0  0  0  0  0  0  0  0  0  0
   61.5138   31.6343   47.5386 H   0  0  0  0  0  0  0  0  0  0  0  0
   59.9927   28.4353   45.1687 H   0  0  0  0  0  0  0  0  0  0  0  0
   58.1966   32.7962   43.0026 H   0  0  0  0  0  0  0  0  0  0  0  0
   59.2030   34.9381   43.7836 H   0  0  0  0  0  0  0  0  0  0  0  0
   59.3653   35.4299   46.2247 H   0  0  0  0  0  0  0  0  0  0  0  0
   57.5276   31.6199   47.1221 H   0  0  0  0  0  0  0  0  0  0  0  0
  1  2  2  0
  2  3  1  0
  3  4  1  0
  4  5  1  0
  5  6  1  0
  6  7  1  0
  7  8  1  0
  8  9  2  0
  9 10  1  0
 10 11  2  0
 11 12  1  0
 12 13  2  0
  2 14  1  0
 14 15  2  0
 15 16  1  0
 16 17  2  0
 17 18  1  0
 18 19  1  0
 18 20  2  0
 13  8  1  0
 20 14  1  0
  3 21  1  0
  4 22  1  0
  4 23  1  0
  5 24  1  0
  5 25  1  0
  6 26  1  0
  7 27  1  0
  7 28  1  0
  9 29  1  0
 10 30  1  0
 11 31  1  0
 13 32  1  0
 15 33  1  0
 16 34  1  0
 17 35  1  0
 20 36  1  0
M  END
>  <UniqueID>  (11) 
11

>  <SMILES>  (11) 
O=C(NCCNCc1cccnc1)c1cccc(F)c1

>  <Energy>  (11) 
34.534350846869856

>  <Genealogy>  (11) 
O=C(NCCNCc1cccnc1)c1cccc(F)c1 (3D coordinates assigned)
O=C(NCCNCc1cccnc1)c1cccc(F)c1 (optimized conformer: 34.534350846869856 kcal/mol)

>  <smiles>  (11) 
O=C(NCCNCc1cccnc1)c1cccc(F)c1

>  <score_type>  (11) 
oracle

>  <origin>  (11) 
adg

>  <m_score__min__energy>  (11) 
-7.6200000000000001

>  <m_primary>  (11) 
energy

$$$$
11:0
     RDKit          3D

 25 26  0  0  0  0  0  0  0  0999 V2000
   55.5680   28.9640   44.9180 O   0  0  0  0  0  0  0  0  0  0  0  0
   56.6230   29.6530   44.8470 C   0  0  0  0  0  0  0  0  0  0  0  0
   56.5690   30.9930   44.4390 O   0  0  0  0  0  0  0  0  0  0  0  0
   57.3790   32.0260   44.9320 C   0  0  0  0  0  0  0  0  0  0  0  0
   57.7610   33.1270   44.1400 C   0  0  0  0  0  0  0  0  0  0  0  0
   58.5590   34.1400   44.6800 C   0  0  0  0  0  0  0  0  0  0  0  0
   58.9750   34.0700   46.0130 C   0  0  0  0  0  0  0  0  0  0  0  0
   59.9750   35.3430   46.6900 Cl  0  0  0  0  0  0  0  0  0  0  0  0
   58.5830   32.9900   46.8100 C   0  0  0  0  0  0  0  0  0  0  0  0
   57.7840   31.9770   46.2720 C   0  0  0  0  0  0  0  0  0  0  0  0
   57.9300   29.0260   45.1380 C   0  0  0  0  0  0  0  0  0  0  0  0
   58.1080   28.2770   46.3140 C   0  0  0  0  0  0  0  0  0  0  0  0
   59.3460   27.6880   46.5760 C   0  0  0  0  0  0  0  0  0  0  0  0
   60.3950   27.8460   45.6710 C   0  0  0  0  0  0  0  0  0  0  0  0
   60.1890   28.5940   44.5120 C   0  0  0  0  0  0  0  0  0  0  0  0
   58.9760   29.1630   44.2670 N   0  0  0  0  0  0  0  0  0  0  0  0
   57.4301   33.1897   43.0928 H   0  0  0  0  0  0  0  0  0  0  0  0
   58.8601   34.9936   44.0550 H   0  0  0  0  0  0  0  0  0  0  0  0
   58.9036   32.9375   47.8609 H   0  0  0  0  0  0  0  0  0  0  0  0
   57.4708   31.1345   46.9061 H   0  0  0  0  0  0  0  0  0  0  0  0
   57.2764   28.1557   47.0238 H   0  0  0  0  0  0  0  0  0  0  0  0
   59.4938   27.1006   47.4942 H   0  0  0  0  0  0  0  0  0  0  0  0
   61.3743   27.3857   45.8690 H   0  0  0  0  0  0  0  0  0  0  0  0
   61.0103   28.7251   43.7921 H   0  0  0  0  0  0  0  0  0  0  0  0
   58.8620   29.7150   43.3880 H   0  0  0  0  0  0  0  0  0  0  0  0
  1  2  2  0
  2  3  1  0
  3  4  1  0
  4  5  2  0
  5  6  1  0
  6  7  2  0
  7  8  1  0
  7  9  1  0
  9 10  2  0
  2 11  1  0
 11 12  2  0
 12 13  1  0
 13 14  2  0
 14 15  1  0
 15 16  2  0
 10  4  1  0
 16 11  1  0
  5 17  1  0
  6 18  1  0
  9 19  1  0
 10 20  1  0
 12 21  1  0
 13 22  1  0
 14 23  1  0
 15 24  1  0
 16 25  1  0
M  CHG  1  16   1
M  END
>  <UniqueID>  (12) 
12

>  <SMILES>  (12) 
O=C(Oc1ccc(Cl)cc1)c1cccc[nH+]1

>  <Energy>  (12) 
30.68580709568512

>  <Genealogy>  (12) 
O=C(Oc1ccc(Cl)cc1)c1cccc[nH+]1 (protonated)
O=C(Oc1ccc(Cl)cc1)c1cccc[nH+]1 (3D coordinates assigned)
O=C(Oc1ccc(Cl)cc1)c1cccc[nH+]1 (optimized conformer: 30.68580709568512 kcal/mol)

>  <smiles>  (12) 
O=C(Oc1ccc(Cl)cc1)c1ccccn1

>  <score_type>  (12) 
oracle

>  <origin>  (12) 
adg

>  <m_score__min__energy>  (12) 
-5.1600000000000001

>  <m_primary>  (12) 
energy

$$$$
12:0
     RDKit          3D

 54 57  0  0  0  0  0  0  0  0999 V2000
   59.3500   34.1790   54.2180 C   0  0  0  0  0  0  0  0  0  0  0  0
   58.8580   32.9790   53.6330 O   0  0  0  0  0  0  0  0  0  0  0  0
   58.7160   32.7670   52.2540 C   0  0  0  0  0  0  0  0  0  0  0  0
   59.4100   33.6060   51.3740 C   0  0  0  0  0  0  0  0  0  0  0  0
   59.3050   33.4280   49.9930 C   0  0  0  0  0  0  0  0  0  0  0  0
   58.5450   32.3730   49.4630 C   0  0  0  0  0  0  0  0  0  0  0  0
   58.5030   32.1930   47.9600 C   0  0  0  0  0  0  0  0  0  0  0  0
   59.5030   33.0120   47.2300 N   0  0  0  0  0  0  0  0  0  0  0  0
   59.0880   34.2400   46.7590 C   0  0  0  0  0  0  0  0  0  0  0  0
   57.8610   34.5440   46.7410 O   0  0  0  0  0  0  0  0  0  0  0  0
   60.0190   35.1780   46.3070 C   0  0  0  0  0  0  0  0  0  0  0  0
   59.6440   36.2940   45.8630 O   0  0  0  0  0  0  0  0  0  0  0  0
   61.3370   34.8970   46.3740 N   0  0  0  0  0  0  0  0  0  0  0  0
   61.7820   33.6960   46.8130 C   0  0  0  0  0  0  0  0  0  0  0  0
   63.1600   33.4890   46.9080 C   0  0  0  0  0  0  0  0  0  0  0  0
   63.6540   32.2700   47.3540 C   0  0  0  0  0  0  0  0  0  0  0  0
   62.7810   31.2250   47.6310 C   0  0  0  0  0  0  0  0  0  0  0  0
   61.3930   31.3880   47.4960 C   0  0  0  0  0  0  0  0  0  0  0  0
   60.6140   30.1400   47.4880 C   0  0  0  0  0  0  0  0  0  0  0  0
   60.5380   29.4540   48.5450 O   0  0  0  0  0  0  0  0  0  0  0  0
   59.8680   29.7630   46.3190 N   0  0  0  0  0  0  0  0  0  0  0  0
   58.9630   28.6480   46.3100 C   0  0  0  0  0  0  0  0  0  0  0  0
   59.3590   27.4560   46.9390 C   0  0  0  0  0  0  0  0  0  0  0  0
   58.5200   26.3440   46.9570 C   0  0  0  0  0  0  0  0  0  0  0  0
   57.2690   26.3990   46.3390 C   0  0  0  0  0  0  0  0  0  0  0  0
   56.2010   24.9970   46.3520 S   0  0  0  0  0  0  0  0  0  0  0  0
   54.6590   25.4030   45.6820 N   0  0  0  0  0  0  0  0  0  0  0  0
   56.0050   24.5260   47.7650 O   0  0  0  0  0  0  0  0  0  0  0  0
   56.8180   23.8950   45.5370 O   0  0  0  0  0  0  0  0  0  0  0  0
   56.8550   27.5850   45.7240 C   0  0  0  0  0  0  0  0  0  0  0  0
   57.6820   28.7270   45.7000 C   0  0  0  0  0  0  0  0  0  0  0  0
   57.2190   29.9140   45.0180 N   0  0  0  0  0  0  0  0  0  0  0  0
   58.0420   30.7320   44.5540 O   0  0  0  0  0  0  0  0  0  0  0  0
   55.8790   30.1880   44.8620 O   0  0  0  0  0  0  0  0  0  0  0  0
   60.8550   32.6790   47.1730 C   0  0  0  0  0  0  0  0  0  0  0  0
   57.8250   31.5470   50.3480 C   0  0  0  0  0  0  0  0  0  0  0  0
   57.9050   31.7450   51.7300 C   0  0  0  0  0  0  0  0  0  0  0  0
   59.3150   34.0937   55.3141 H   0  0  0  0  0  0  0  0  0  0  0  0
   60.3887   34.3448   53.8961 H   0  0  0  0  0  0  0  0  0  0  0  0
   58.7267   35.0262   53.8961 H   0  0  0  0  0  0  0  0  0  0  0  0
   60.0431   34.4119   51.7737 H   0  0  0  0  0  0  0  0  0  0  0  0
   59.8228   34.1211   49.3136 H   0  0  0  0  0  0  0  0  0  0  0  0
   58.6901   31.1332   47.7323 H   0  0  0  0  0  0  0  0  0  0  0  0
   57.5098   32.5268   47.6251 H   0  0  0  0  0  0  0  0  0  0  0  0
   63.8560   34.2937   46.6288 H   0  0  0  0  0  0  0  0  0  0  0  0
   64.7370   32.1317   47.4880 H   0  0  0  0  0  0  0  0  0  0  0  0
   63.1833   30.2558   47.9609 H   0  0  0  0  0  0  0  0  0  0  0  0
   59.9230   30.3750   45.4750 H   0  0  0  0  0  0  0  0  0  0  0  0
   60.3448   27.3999   47.4238 H   0  0  0  0  0  0  0  0  0  0  0  0
   58.8438   25.4204   47.4592 H   0  0  0  0  0  0  0  0  0  0  0  0
   54.6830   26.4200   45.4440 H   0  0  0  0  0  0  0  0  0  0  0  0
   55.8637   27.6279   45.2492 H   0  0  0  0  0  0  0  0  0  0  0  0
   57.1943   30.7391   49.9486 H   0  0  0  0  0  0  0  0  0  0  0  0
   57.3310   31.0984   52.4100 H   0  0  0  0  0  0  0  0  0  0  0  0
  1  2  1  0
  2  3  1  0
  3  4  2  0
  4  5  1  0
  5  6  2  0
  6  7  1  0
  7  8  1  0
  8  9  1  0
  9 10  2  0
  9 11  1  0
 11 12  2  0
 11 13  1  0
 13 14  1  0
 14 15  2  0
 15 16  1  0
 16 17  2  0
 17 18  1  0
 18 19  1  0
 19 20  2  0
 19 21  1  0
 21 22  1  0
 22 23  2  0
 23 24  1  0
 24 25  2  0
 25 26  1  0
 26 27  1  0
 26 28  2  0
 26 29  2  0
 25 30  1  0
 30 31  2  0
 31 32  1  0
 32 33  2  0
 32 34  1  0
 18 35  2  0
  6 36  1  0
 36 37  2  0
 37  3  1  0
 35  8  1  0
 35 14  1  0
 31 22  1  0
  1 38  1  0
  1 39  1  0
  1 40  1  0
  4 41  1  0
  5 42  1  0
  7 43  1  0
  7 44  1  0
 15 45  1  0
 16 46  1  0
 17 47  1  0
 21 48  1  0
 23 49  1  0
 24 50  1  0
 27 51  1  0
 30 52  1  0
 36 53  1  0
 37 54  1  0
M  CHG  4  13  -1  27  -1  32   1  34  -1
M  END
>  <UniqueID>  (13) 
13

>  <SMILES>  (13) 
COc1ccc(Cn2c(=O)c(=O)[n-]c3cccc(C(=O)Nc4ccc(S([NH-])(=O)=O)cc4[N+](=O)[O-])c32)cc1

>  <Energy>  (13) 
94.46661743777969

>  <Genealogy>  (13) 
COc1ccc(Cn2c(=O)c(=O)[n-]c3cccc(C(=O)Nc4ccc(S([NH-])(=O)=O)cc4[N+](=O)[O-])c32)cc1 (protonated)
COc1ccc(Cn2c(=O)c(=O)[n-]c3cccc(C(=O)Nc4ccc(S([NH-])(=O)=O)cc4[N+](=O)[O-])c32)cc1 (3D coordinates assigned)
COc1ccc(Cn2c(=O)c(=O)[n-]c3cccc(C(=O)Nc4ccc(S([NH-])(=O)=O)cc4[N+](=O)[O-])c32)cc1 (optimized conformer: 94.46661743777969 kcal/mol)

>  <smiles>  (13) 
COc1ccc(Cn2c(=O)c(=O)[nH]c3cccc(C(=O)Nc4ccc(S(N)(=O)=O)cc4[N+](=O)[O-])c32)cc1

>  <score_type>  (13) 
oracle

>  <origin>  (13) 
adg

>  <m_score__min__energy>  (13) 
-12.07

>  <m_primary>  (13) 
energy

$$$$
13:0
     RDKit          3D

 65 67  0  0  0  0  0  0  0  0999 V2000
   60.5420   34.1570   49.5370 C   0  0  0  0  0  0  0  0  0  0  0  0
   60.0290   34.7390   48.3420 O   0  0  0  0  0  0  0  0  0  0  0  0
   59.3670   34.0250   47.3340 C   0  0  0  0  0  0  0  0  0  0  0  0
   59.2530   34.5070   46.0150 C   0  0  0  0  0  0  0  0  0  0  0  0
   58.5550   33.7680   45.0560 C   0  0  0  0  0  0  0  0  0  0  0  0
   57.9450   32.5520   45.4000 C   0  0  0  0  0  0  0  0  0  0  0  0
   57.1730   31.7820   44.4040 C   0  0  0  0  0  0  0  0  0  0  0  0
   57.4710   31.8890   43.1820 O   0  0  0  0  0  0  0  0  0  0  0  0
   56.1230   30.8750   44.7820 N   0  0  0  0  0  0  0  0  0  0  0  0
   56.1500   29.4290   44.5920 C   0  0  0  0  0  0  0  0  0  0  0  0
   57.6000   28.9580   44.4650 C   0  0  0  0  0  0  0  0  0  0  0  0
   58.0220   28.0460   45.6470 C   0  0  0  0  0  0  0  0  0  0  0  0
   58.1240   26.6130   45.2990 N   0  0  0  0  0  0  0  0  0  0  0  0
   58.0790   26.3780   43.8450 C   0  0  0  0  0  0  0  0  0  0  0  0
   59.2510   25.9150   45.9590 C   0  0  0  0  0  0  0  0  0  0  0  0
   60.3470   26.9250   46.3170 C   0  0  0  0  0  0  0  0  0  0  0  0
   60.6890   26.9040   47.8110 C   0  0  0  0  0  0  0  0  0  0  0  0
   59.5720   27.4440   48.5820 N   0  0  0  0  0  0  0  0  0  0  0  0
   59.4890   28.7790   49.0880 C   0  0  0  0  0  0  0  0  0  0  0  0
   58.3950   29.3990   49.0040 O   0  0  0  0  0  0  0  0  0  0  0  0
   60.6350   29.4260   49.7530 C   0  0  0  0  0  0  0  0  0  0  0  0
   60.9250   29.0820   51.0800 C   0  0  0  0  0  0  0  0  0  0  0  0
   62.0020   29.6690   51.7460 C   0  0  0  0  0  0  0  0  0  0  0  0
   62.7980   30.6170   51.1020 C   0  0  0  0  0  0  0  0  0  0  0  0
   62.5180   30.9900   49.7790 C   0  0  0  0  0  0  0  0  0  0  0  0
   63.2980   31.9690   49.1420 C   0  0  0  0  0  0  0  0  0  0  0  0
   63.0150   32.3710   47.8320 C   0  0  0  0  0  0  0  0  0  0  0  0
   63.8040   33.3810   47.2600 O   0  0  0  0  0  0  0  0  0  0  0  0
   63.4000   34.1830   46.1550 C   0  0  0  0  0  0  0  0  0  0  0  0
   61.9550   31.7610   47.1380 C   0  0  0  0  0  0  0  0  0  0  0  0
   61.1790   30.7790   47.7560 C   0  0  0  0  0  0  0  0  0  0  0  0
   61.4380   30.3870   49.0860 C   0  0  0  0  0  0  0  0  0  0  0  0
   58.0990   32.0520   46.7020 C   0  0  0  0  0  0  0  0  0  0  0  0
   58.7930   32.7910   47.6640 C   0  0  0  0  0  0  0  0  0  0  0  0
   60.0988   34.6598   50.4093 H   0  0  0  0  0  0  0  0  0  0  0  0
   60.2878   33.0871   49.5622 H   0  0  0  0  0  0  0  0  0  0  0  0
   61.6354   34.2748   49.5622 H   0  0  0  0  0  0  0  0  0  0  0  0
   59.7143   35.4669   45.7395 H   0  0  0  0  0  0  0  0  0  0  0  0
   58.4833   34.1422   44.0241 H   0  0  0  0  0  0  0  0  0  0  0  0
   55.6790   28.9369   45.4557 H   0  0  0  0  0  0  0  0  0  0  0  0
   55.5987   29.1693   43.6762 H   0  0  0  0  0  0  0  0  0  0  0  0
   57.7094   28.3954   43.5261 H   0  0  0  0  0  0  0  0  0  0  0  0
   58.2475   29.8472   44.4747 H   0  0  0  0  0  0  0  0  0  0  0  0
   59.0039   28.3838   46.0101 H   0  0  0  0  0  0  0  0  0  0  0  0
   57.2338   28.1312   46.4096 H   0  0  0  0  0  0  0  0  0  0  0  0
   57.8753   25.3145   43.6516 H   0  0  0  0  0  0  0  0  0  0  0  0
   57.2819   26.9910   43.3990 H   0  0  0  0  0  0  0  0  0  0  0  0
   59.0462   26.6531   43.3990 H   0  0  0  0  0  0  0  0  0  0  0  0
   58.8911   25.4258   46.8761 H   0  0  0  0  0  0  0  0  0  0  0  0
   59.6624   25.1593   45.2737 H   0  0  0  0  0  0  0  0  0  0  0  0
   61.2533   26.6824   45.7428 H   0  0  0  0  0  0  0  0  0  0  0  0
   59.9734   27.9298   46.0705 H   0  0  0  0  0  0  0  0  0  0  0  0
   60.8837   25.8684   48.1265 H   0  0  0  0  0  0  0  0  0  0  0  0
   61.5834   27.5196   47.9875 H   0  0  0  0  0  0  0  0  0  0  0  0
   60.2986   28.3431   51.6012 H   0  0  0  0  0  0  0  0  0  0  0  0
   62.2246   29.3827   52.7845 H   0  0  0  0  0  0  0  0  0  0  0  0
   63.6468   31.0728   51.6328 H   0  0  0  0  0  0  0  0  0  0  0  0
   64.1421   32.4255   49.6798 H   0  0  0  0  0  0  0  0  0  0  0  0
   62.9339   35.1083   46.5245 H   0  0  0  0  0  0  0  0  0  0  0  0
   64.2791   34.4342   45.5434 H   0  0  0  0  0  0  0  0  0  0  0  0
   62.6749   33.6261   45.5434 H   0  0  0  0  0  0  0  0  0  0  0  0
   61.7361   32.0594   46.1021 H   0  0  0  0  0  0  0  0  0  0  0  0
   60.3565   30.3057   47.1997 H   0  0  0  0  0  0  0  0  0  0  0  0
   57.6714   31.0737   46.9668 H   0  0  0  0  0  0  0  0  0  0  0  0
   58.8891   32.4005   48.6879 H   0  0  0  0  0  0  0  0  0  0  0  0
  1  2  1  0
  2  3  1  0
  3  4  2  0
  4  5  1  0
  5  6  2  0
  6  7  1  0
  7  8  2  0
  7  9  1  0
  9 10  1  0
 10 11  1  0
 11 12  1  0
 12 13  1  0
 13 14  1  0
 13 15  1  0
 15 16  1  0
 16 17  1  0
 17 18  1  0
 18 19  1  0
 19 20  2  0
 19 21  1  0
 21 22  2  0
 22 23  1  0
 23 24  2  0
 24 25  1  0
 25 26  2  0
 26 27  1  0
 27 28  1  0
 28 29  1  0
 27 30  2  0
 30 31  1  0
 31 32  2  0
  6 33  1  0
 33 34  2  0
 34  3  1  0
 32 21  1  0
 32 25  1  0
  1 35  1  0
  1 36  1  0
  1 37  1  0
  4 38  1  0
  5 39  1  0
 10 40  1  0
 10 41  1  0
 11 42  1  0
 11 43  1  0
 12 44  1  0
 12 45  1  0
 14 46  1  0
 14 47  1  0
 14 48  1  0
 15 49  1  0
 15 50  1  0
 16 51  1  0
 16 52  1  0
 17 53  1  0
 17 54  1  0
 22 55  1  0
 23 56  1  0
 24 57  1  0
 26 58  1  0
 29 59  1  0
 29 60  1  0
 29 61  1  0
 30 62  1  0
 31 63  1  0
 33 64  1  0
 34 65  1  0
M  CHG  2   9  -1  18  -1
M  END
>  <UniqueID>  (14) 
14

>  <SMILES>  (14) 
COc1ccc(C(=O)[N-]CCCN(C)CCC[N-]C(=O)c2cccc3cc(OC)ccc23)cc1

>  <Energy>  (14) 
76.90248519606298

>  <Genealogy>  (14) 
COc1ccc(C(=O)[N-]CCCN(C)CCC[N-]C(=O)c2cccc3cc(OC)ccc23)cc1 (protonated)
COc1ccc(C(=O)[N-]CCCN(C)CCC[N-]C(=O)c2cccc3cc(OC)ccc23)cc1 (3D coordinates assigned)
COc1ccc(C(=O)[N-]CCCN(C)CCC[N-]C(=O)c2cccc3cc(OC)ccc23)cc1 (optimized conformer: 76.90248519606298 kcal/mol)

>  <smiles>  (14) 
COc1ccc(C(=O)NCCCN(C)CCCNC(=O)c2cccc3cc(OC)ccc23)cc1

>  <score_type>  (14) 
oracle

>  <origin>  (14) 
adg

>  <m_score__min__energy>  (14) 
-10.83

>  <m_primary>  (14) 
energy

$$$$
14:0
     RDKit          3D

 47 50  0  0  0  0  0  0  0  0999 V2000
   55.5660   28.5910   45.0790 O   0  0  0  0  0  0  0  0  0  0  0  0
   56.5160   29.4020   45.2370 C   0  0  0  0  0  0  0  0  0  0  0  0
   56.3770   30.7220   44.6990 N   0  0  0  0  0  0  0  0  0  0  0  0
   57.5300   31.5720   43.7140 S   0  0  0  0  0  0  0  0  0  0  0  0
   58.8780   30.9290   43.8480 O   0  0  0  0  0  0  0  0  0  0  0  0
   57.0930   31.4570   42.2820 O   0  0  0  0  0  0  0  0  0  0  0  0
   57.5820   33.3190   44.1250 C   0  0  0  0  0  0  0  0  0  0  0  0
   58.3370   33.5720   45.4070 C   0  0  0  0  0  0  0  0  0  0  0  0
   57.8300   33.1100   46.6340 C   0  0  0  0  0  0  0  0  0  0  0  0
   58.5180   33.3690   47.8260 C   0  0  0  0  0  0  0  0  0  0  0  0
   59.7260   34.0730   47.8010 C   0  0  0  0  0  0  0  0  0  0  0  0
   60.2520   34.5070   46.5820 C   0  0  0  0  0  0  0  0  0  0  0  0
   59.5680   34.2500   45.3880 C   0  0  0  0  0  0  0  0  0  0  0  0
   57.7160   28.9540   45.9770 C   0  0  0  0  0  0  0  0  0  0  0  0
   57.9500   27.5810   46.1460 C   0  0  0  0  0  0  0  0  0  0  0  0
   59.0960   27.1360   46.8060 C   0  0  0  0  0  0  0  0  0  0  0  0
   60.0220   28.0550   47.3020 C   0  0  0  0  0  0  0  0  0  0  0  0
   59.8160   29.4370   47.1290 C   0  0  0  0  0  0  0  0  0  0  0  0
   60.7780   30.4160   47.6970 C   0  0  0  0  0  0  0  0  0  0  0  0
   61.8870   30.8400   46.9450 C   0  0  0  0  0  0  0  0  0  0  0  0
   62.7680   31.7970   47.4500 C   0  0  0  0  0  0  0  0  0  0  0  0
   62.5600   32.3440   48.7230 C   0  0  0  0  0  0  0  0  0  0  0  0
   63.4370   33.3110   49.2380 C   0  0  0  0  0  0  0  0  0  0  0  0
   63.2180   33.8490   50.5090 C   0  0  0  0  0  0  0  0  0  0  0  0
   62.1280   33.4260   51.2740 C   0  0  0  0  0  0  0  0  0  0  0  0
   61.2470   32.4640   50.7720 C   0  0  0  0  0  0  0  0  0  0  0  0
   61.4550   31.9180   49.4960 C   0  0  0  0  0  0  0  0  0  0  0  0
   60.5720   30.9580   48.9790 C   0  0  0  0  0  0  0  0  0  0  0  0
   58.6690   29.8750   46.4420 C   0  0  0  0  0  0  0  0  0  0  0  0
   58.0776   33.8624   43.3070 H   0  0  0  0  0  0  0  0  0  0  0  0
   56.5481   33.6682   44.2630 H   0  0  0  0  0  0  0  0  0  0  0  0
   56.8882   32.5422   46.6580 H   0  0  0  0  0  0  0  0  0  0  0  0
   58.1072   33.0179   48.7841 H   0  0  0  0  0  0  0  0  0  0  0  0
   60.2606   34.2844   48.7388 H   0  0  0  0  0  0  0  0  0  0  0  0
   61.2069   35.0526   46.5602 H   0  0  0  0  0  0  0  0  0  0  0  0
   59.9961   34.5803   44.4301 H   0  0  0  0  0  0  0  0  0  0  0  0
   57.2256   26.8509   45.7558 H   0  0  0  0  0  0  0  0  0  0  0  0
   59.2702   26.0577   46.9358 H   0  0  0  0  0  0  0  0  0  0  0  0
   60.9177   27.6975   47.8310 H   0  0  0  0  0  0  0  0  0  0  0  0
   62.0625   30.4125   45.9468 H   0  0  0  0  0  0  0  0  0  0  0  0
   63.6283   32.1229   46.8469 H   0  0  0  0  0  0  0  0  0  0  0  0
   64.2978   33.6458   48.6405 H   0  0  0  0  0  0  0  0  0  0  0  0
   63.9063   34.6083   50.9087 H   0  0  0  0  0  0  0  0  0  0  0  0
   61.9626   33.8515   52.2748 H   0  0  0  0  0  0  0  0  0  0  0  0
   60.3898   32.1346   51.3776 H   0  0  0  0  0  0  0  0  0  0  0  0
   59.7125   30.6267   49.5803 H   0  0  0  0  0  0  0  0  0  0  0  0
   58.5170   30.9503   46.2672 H   0  0  0  0  0  0  0  0  0  0  0  0
  1  2  2  0
  2  3  1  0
  3  4  1  0
  4  5  2  0
  4  6  2  0
  4  7  1  0
  7  8  1  0
  8  9  2  0
  9 10  1  0
 10 11  2  0
 11 12  1  0
 12 13  2  0
  2 14  1  0
 14 15  2  0
 15 16  1  0
 16 17  2  0
 17 18  1  0
 18 19  1  0
 19 20  2  0
 20 21  1  0
 21 22  2  0
 22 23  1  0
 23 24  2  0
 24 25  1  0
 25 26  2  0
 26 27  1  0
 27 28  2  0
 18 29  2  0
 13  8  1  0
 29 14  1  0
 28 19  1  0
 27 22  1  0
  7 30  1  0
  7 31  1  0
  9 32  1  0
 10 33  1  0
 11 34  1  0
 12 35  1  0
 13 36  1  0
 15 37  1  0
 16 38  1  0
 17 39  1  0
 20 40  1  0
 21 41  1  0
 23 42  1  0
 24 43  1  0
 25 44  1  0
 26 45  1  0
 28 46  1  0
 29 47  1  0
M  CHG  1   3  -1
M  END
>  <UniqueID>  (15) 
15

>  <SMILES>  (15) 
O=C([N-]S(=O)(=O)Cc1ccccc1)c1cccc(-c2ccc3ccccc3c2)c1

>  <Energy>  (15) 
60.58905187799702

>  <Genealogy>  (15) 
O=C([N-]S(=O)(=O)Cc1ccccc1)c1cccc(-c2ccc3ccccc3c2)c1 (protonated)
O=C([N-]S(=O)(=O)Cc1ccccc1)c1cccc(-c2ccc3ccccc3c2)c1 (3D coordinates assigned)
O=C([N-]S(=O)(=O)Cc1ccccc1)c1cccc(-c2ccc3ccccc3c2)c1 (optimized conformer: 60.58905187799702 kcal/mol)

>  <smiles>  (15) 
O=C(NS(=O)(=O)Cc1ccccc1)c1cccc(-c2ccc3ccccc3c2)c1

>  <score_type>  (15) 
oracle

>  <origin>  (15) 
adg

>  <m_score__min__energy>  (15) 
-12.369999999999999

>  <m_primary>  (15) 
energy

$$$$
15:0
     RDKit          3D

 61 65  0  0  0  0  0  0  0  0999 V2000
   60.0500   30.0210   45.2470 O   0  0  0  0  0  0  0  0  0  0  0  0
   59.1290   29.2320   45.5960 C   0  0  0  0  0  0  0  0  0  0  0  0
   57.8120   29.4720   45.1660 C   0  0  0  0  0  0  0  0  0  0  0  0
   57.4560   30.7900   44.4850 C   0  0  0  0  0  0  0  0  0  0  0  0
   58.0380   31.9730   45.2230 C   0  0  0  0  0  0  0  0  0  0  0  0
   58.4990   33.0970   44.5180 C   0  0  0  0  0  0  0  0  0  0  0  0
   59.1010   34.1570   45.2010 C   0  0  0  0  0  0  0  0  0  0  0  0
   59.2440   34.1050   46.5900 C   0  0  0  0  0  0  0  0  0  0  0  0
   58.7700   32.9980   47.3190 C   0  0  0  0  0  0  0  0  0  0  0  0
   58.9320   32.9460   48.7950 C   0  0  0  0  0  0  0  0  0  0  0  0
   59.7940   33.8310   49.4610 C   0  0  0  0  0  0  0  0  0  0  0  0
   59.8880   33.8010   50.8490 C   0  0  0  0  0  0  0  0  0  0  0  0
   59.1360   32.8730   51.5670 C   0  0  0  0  0  0  0  0  0  0  0  0
   58.3200   32.0100   50.9150 N   0  0  0  0  0  0  0  0  0  0  0  0
   58.2030   32.0240   49.5640 C   0  0  0  0  0  0  0  0  0  0  0  0
   58.1570   31.9390   46.6250 C   0  0  0  0  0  0  0  0  0  0  0  0
   56.8410   28.4870   45.4370 C   0  0  0  0  0  0  0  0  0  0  0  0
   55.5510   28.5790   44.9020 O   0  0  0  0  0  0  0  0  0  0  0  0
   57.1570   27.4070   46.2200 N   0  0  0  0  0  0  0  0  0  0  0  0
   56.1250   26.3890   46.4900 C   0  0  0  0  0  0  0  0  0  0  0  0
   56.1580   25.3140   45.4370 C   0  0  0  0  0  0  0  0  0  0  0  0
   57.2970   25.1350   44.6310 C   0  0  0  0  0  0  0  0  0  0  0  0
   57.3290   24.1190   43.6700 C   0  0  0  0  0  0  0  0  0  0  0  0
   56.2260   23.2760   43.5060 C   0  0  0  0  0  0  0  0  0  0  0  0
   56.2590   22.2920   42.5710 F   0  0  0  0  0  0  0  0  0  0  0  0
   55.0880   23.4490   44.3010 C   0  0  0  0  0  0  0  0  0  0  0  0
   55.0540   24.4620   45.2630 C   0  0  0  0  0  0  0  0  0  0  0  0
   58.4310   27.2560   46.7120 C   0  0  0  0  0  0  0  0  0  0  0  0
   58.7030   26.2660   47.4500 O   0  0  0  0  0  0  0  0  0  0  0  0
   59.4130   28.1620   46.4010 N   0  0  0  0  0  0  0  0  0  0  0  0
   60.7510   28.0510   47.0210 C   0  0  0  0  0  0  0  0  0  0  0  0
   60.7660   28.7790   48.3430 C   0  0  0  0  0  0  0  0  0  0  0  0
   61.2060   30.1120   48.4100 C   0  0  0  0  0  0  0  0  0  0  0  0
   61.2740   30.7710   49.6410 C   0  0  0  0  0  0  0  0  0  0  0  0
   60.9110   30.1050   50.8140 C   0  0  0  0  0  0  0  0  0  0  0  0
   60.4800   28.7770   50.7580 C   0  0  0  0  0  0  0  0  0  0  0  0
   60.1390   28.1290   51.9000 F   0  0  0  0  0  0  0  0  0  0  0  0
   60.4100   28.1140   49.5290 C   0  0  0  0  0  0  0  0  0  0  0  0
   57.8518   30.7797   43.4587 H   0  0  0  0  0  0  0  0  0  0  0  0
   56.3607   30.8911   44.4829 H   0  0  0  0  0  0  0  0  0  0  0  0
   58.3858   33.1429   43.4248 H   0  0  0  0  0  0  0  0  0  0  0  0
   59.4630   35.0339   44.6442 H   0  0  0  0  0  0  0  0  0  0  0  0
   59.7317   34.9371   47.1189 H   0  0  0  0  0  0  0  0  0  0  0  0
   60.3960   34.5492   48.8850 H   0  0  0  0  0  0  0  0  0  0  0  0
   60.5505   34.5040   51.3752 H   0  0  0  0  0  0  0  0  0  0  0  0
   59.2050   32.8411   52.6644 H   0  0  0  0  0  0  0  0  0  0  0  0
   57.5322   31.3080   49.0667 H   0  0  0  0  0  0  0  0  0  0  0  0
   57.7667   31.0756   47.1837 H   0  0  0  0  0  0  0  0  0  0  0  0
   54.7650   28.9670   45.4110 H   0  0  0  0  0  0  0  0  0  0  0  0
   56.3114   25.9367   47.4752 H   0  0  0  0  0  0  0  0  0  0  0  0
   55.1365   26.8714   46.4756 H   0  0  0  0  0  0  0  0  0  0  0  0
   58.1664   25.7970   44.7570 H   0  0  0  0  0  0  0  0  0  0  0  0
   58.2226   23.9833   43.0430 H   0  0  0  0  0  0  0  0  0  0  0  0
   54.2194   22.7872   44.1688 H   0  0  0  0  0  0  0  0  0  0  0  0
   54.1581   24.5933   45.8876 H   0  0  0  0  0  0  0  0  0  0  0  0
   60.9897   26.9900   47.1861 H   0  0  0  0  0  0  0  0  0  0  0  0
   61.4991   28.5004   46.3514 H   0  0  0  0  0  0  0  0  0  0  0  0
   61.4982   30.6391   47.4898 H   0  0  0  0  0  0  0  0  0  0  0  0
   61.6141   31.8161   49.6860 H   0  0  0  0  0  0  0  0  0  0  0  0
   60.9644   30.6258   51.7814 H   0  0  0  0  0  0  0  0  0  0  0  0
   60.0747   27.0671   49.4901 H   0  0  0  0  0  0  0  0  0  0  0  0
  1  2  2  0
  2  3  1  0
  3  4  1  0
  4  5  1  0
  5  6  2  0
  6  7  1  0
  7  8  2  0
  8  9  1  0
  9 10  1  0
 10 11  2  0
 11 12  1  0
 12 13  2  0
 13 14  1  0
 14 15  2  0
  9 16  2  0
  3 17  2  0
 17 18  1  0
 17 19  1  0
 19 20  1  0
 20 21  1  0
 21 22  2  0
 22 23  1  0
 23 24  2  0
 24 25  1  0
 24 26  1  0
 26 27  2  0
 19 28  1  0
 28 29  2  0
 28 30  1  0
 30 31  1  0
 31 32  1  0
 32 33  2  0
 33 34  1  0
 34 35  2  0
 35 36  1  0
 36 37  1  0
 36 38  2  0
 30  2  1  0
 38 32  1  0
 16  5  1  0
 27 21  1  0
 15 10  1  0
  4 39  1  0
  4 40  1  0
  6 41  1  0
  7 42  1  0
  8 43  1  0
 11 44  1  0
 12 45  1  0
 13 46  1  0
 15 47  1  0
 16 48  1  0
 18 49  1  0
 20 50  1  0
 20 51  1  0
 22 52  1  0
 23 53  1  0
 26 54  1  0
 27 55  1  0
 31 56  1  0
 31 57  1  0
 33 58  1  0
 34 59  1  0
 35 60  1  0
 38 61  1  0
M  END
>  <UniqueID>  (16) 
16

>  <SMILES>  (16) 
O=c1c(Cc2cccc(-c3cccnc3)c2)c(O)n(Cc2ccc(F)cc2)c(=O)n1Cc1cccc(F)c1

>  <Energy>  (16) 
83.51889686678221

>  <Genealogy>  (16) 
O=c1c(Cc2cccc(-c3cccnc3)c2)c(O)n(Cc2ccc(F)cc2)c(=O)n1Cc1cccc(F)c1 (3D coordinates assigned)
O=c1c(Cc2cccc(-c3cccnc3)c2)c(O)n(Cc2ccc(F)cc2)c(=O)n1Cc1cccc(F)c1 (optimized conformer: 83.51889686678221 kcal/mol)

>  <smiles>  (16) 
O=c1c(Cc2cccc(-c3cccnc3)c2)c(O)n(Cc2ccc(F)cc2)c(=O)n1Cc1cccc(F)c1

>  <score_type>  (16) 
oracle

>  <origin>  (16) 
adg

>  <m_score__min__energy>  (16) 
-10.74

>  <m_primary>  (16) 
energy

$$$$
16:0
     RDKit          3D

 37 39  0  0  0  0  0  0  0  0999 V2000
   55.1420   29.9100   44.9060 O   0  0  0  0  0  0  0  0  0  0  0  0
   55.9990   28.9920   44.8180 C   0  0  0  0  0  0  0  0  0  0  0  0
   55.8810   27.8610   45.6170 O   0  0  0  0  0  0  0  0  0  0  0  0
   57.1090   29.0910   43.8210 C   0  0  0  0  0  0  0  0  0  0  0  0
   58.2290   29.9850   44.3550 C   0  0  0  0  0  0  0  0  0  0  0  0
   59.7900   29.0510   44.5100 S   0  0  0  0  0  0  0  0  0  0  0  0
   60.0890   29.5250   46.2190 C   0  0  0  0  0  0  0  0  0  0  0  0
   61.0420   30.4570   46.4730 N   0  0  0  0  0  0  0  0  0  0  0  0
   61.2860   30.8960   47.7310 C   0  0  0  0  0  0  0  0  0  0  0  0
   62.2760   31.8600   47.9580 C   0  0  0  0  0  0  0  0  0  0  0  0
   62.5210   32.3210   49.2550 C   0  0  0  0  0  0  0  0  0  0  0  0
   61.7780   31.8210   50.3280 C   0  0  0  0  0  0  0  0  0  0  0  0
   60.7880   30.8570   50.1110 C   0  0  0  0  0  0  0  0  0  0  0  0
   60.5350   30.3880   48.8080 C   0  0  0  0  0  0  0  0  0  0  0  0
   59.5550   29.4200   48.5320 C   0  0  0  0  0  0  0  0  0  0  0  0
   58.8600   28.9380   49.4700 O   0  0  0  0  0  0  0  0  0  0  0  0
   59.3580   28.9900   47.2490 N   0  0  0  0  0  0  0  0  0  0  0  0
   58.3630   28.0260   46.9910 N   0  0  0  0  0  0  0  0  0  0  0  0
   58.7040   26.6520   46.7550 C   0  0  0  0  0  0  0  0  0  0  0  0
   59.8950   26.2690   46.9100 O   0  0  0  0  0  0  0  0  0  0  0  0
   57.6820   25.6750   46.3410 C   0  0  0  0  0  0  0  0  0  0  0  0
   56.6250   25.1960   47.1090 C   0  0  0  0  0  0  0  0  0  0  0  0
   55.8090   24.2860   46.4220 C   0  0  0  0  0  0  0  0  0  0  0  0
   56.2150   24.0480   45.1160 C   0  0  0  0  0  0  0  0  0  0  0  0
   57.5870   24.9710   44.8160 S   0  0  0  0  0  0  0  0  0  0  0  0
   57.5104   28.0858   43.6248 H   0  0  0  0  0  0  0  0  0  0  0  0
   56.7154   29.5295   42.8921 H   0  0  0  0  0  0  0  0  0  0  0  0
   58.3798   30.8260   43.6622 H   0  0  0  0  0  0  0  0  0  0  0  0
   57.9399   30.3541   45.3501 H   0  0  0  0  0  0  0  0  0  0  0  0
   62.8617   32.2550   47.1148 H   0  0  0  0  0  0  0  0  0  0  0  0
   63.2994   33.0780   49.4311 H   0  0  0  0  0  0  0  0  0  0  0  0
   61.9725   32.1869   51.3469 H   0  0  0  0  0  0  0  0  0  0  0  0
   60.2069   30.4652   50.9588 H   0  0  0  0  0  0  0  0  0  0  0  0
   57.3650   28.2830   47.1620 H   0  0  0  0  0  0  0  0  0  0  0  0
   56.4474   25.5008   48.1509 H   0  0  0  0  0  0  0  0  0  0  0  0
   54.9294   23.8056   46.8754 H   0  0  0  0  0  0  0  0  0  0  0  0
   55.7235   23.3719   44.4009 H   0  0  0  0  0  0  0  0  0  0  0  0
  1  2  2  0
  2  3  1  0
  2  4  1  0
  4  5  1  0
  5  6  1  0
  6  7  1  0
  7  8  2  0
  8  9  1  0
  9 10  2  0
 10 11  1  0
 11 12  2  0
 12 13  1  0
 13 14  2  0
 14 15  1  0
 15 16  2  0
 15 17  1  0
 17 18  1  0
 18 19  1  0
 19 20  2  0
 19 21  1  0
 21 22  2  0
 22 23  1  0
 23 24  2  0
 24 25  1  0
 17  7  1  0
 25 21  1  0
 14  9  1  0
  4 26  1  0
  4 27  1  0
  5 28  1  0
  5 29  1  0
 10 30  1  0
 11 31  1  0
 12 32  1  0
 13 33  1  0
 18 34  1  0
 22 35  1  0
 23 36  1  0
 24 37  1  0
M  CHG  1   3  -1
M  END
>  <UniqueID>  (17) 
17

>  <SMILES>  (17) 
O=C([O-])CCSc1nc2ccccc2c(=O)n1NC(=O)c1cccs1

>  <Energy>  (17) 
69.77943915860438

>  <Genealogy>  (17) 
O=C([O-])CCSc1nc2ccccc2c(=O)n1NC(=O)c1cccs1 (protonated)
O=C([O-])CCSc1nc2ccccc2c(=O)n1NC(=O)c1cccs1 (3D coordinates assigned)
O=C([O-])CCSc1nc2ccccc2c(=O)n1NC(=O)c1cccs1 (optimized conformer: 69.77943915860438 kcal/mol)

>  <smiles>  (17) 
O=C(O)CCSc1nc2ccccc2c(=O)n1NC(=O)c1cccs1

>  <score_type>  (17) 
oracle

>  <origin>  (17) 
adg

>  <m_score__min__energy>  (17) 
-9.7699999999999996

>  <m_primary>  (17) 
energy

$$$$
17:0
     RDKit          3D

 70 75  0  0  0  0  0  0  0  0999 V2000
   65.0690   32.7320   49.5550 C   0  0  0  0  0  0  0  0  0  0  0  0
   64.6470   32.8180   51.0180 C   0  0  0  0  0  0  0  0  0  0  0  0
   63.2230   32.8020   51.1340 O   0  0  0  0  0  0  0  0  0  0  0  0
   62.3110   32.9910   50.0830 C   0  0  0  0  0  0  0  0  0  0  0  0
   61.8550   34.2630   49.7020 C   0  0  0  0  0  0  0  0  0  0  0  0
   60.9440   34.3830   48.6560 C   0  0  0  0  0  0  0  0  0  0  0  0
   60.4830   33.2460   47.9800 C   0  0  0  0  0  0  0  0  0  0  0  0
   59.4560   33.4080   46.9230 C   0  0  0  0  0  0  0  0  0  0  0  0
   58.1250   33.0270   47.1650 C   0  0  0  0  0  0  0  0  0  0  0  0
   57.1550   33.1850   46.1700 C   0  0  0  0  0  0  0  0  0  0  0  0
   57.5070   33.7150   44.9260 C   0  0  0  0  0  0  0  0  0  0  0  0
   58.8300   34.0830   44.6720 C   0  0  0  0  0  0  0  0  0  0  0  0
   59.8040   33.9270   45.6620 C   0  0  0  0  0  0  0  0  0  0  0  0
   60.9860   31.9800   48.3660 C   0  0  0  0  0  0  0  0  0  0  0  0
   60.6030   30.7370   47.6530 C   0  0  0  0  0  0  0  0  0  0  0  0
   59.7510   29.8080   48.2690 C   0  0  0  0  0  0  0  0  0  0  0  0
   59.3790   28.6390   47.6000 C   0  0  0  0  0  0  0  0  0  0  0  0
   59.8600   28.3800   46.3070 C   0  0  0  0  0  0  0  0  0  0  0  0
   59.4720   27.1160   45.5840 C   0  0  0  0  0  0  0  0  0  0  0  0
   58.1260   27.2330   44.9780 N   0  0  0  0  0  0  0  0  0  0  0  0
   57.0750   27.5370   45.9880 C   0  0  0  0  0  0  0  0  0  0  0  0
   56.0850   26.3820   46.2460 C   0  0  0  0  0  0  0  0  0  0  0  0
   56.8040   25.0270   46.2160 C   0  0  0  0  0  0  0  0  0  0  0  0
   55.8690   23.9280   46.5180 N   0  0  0  0  0  0  0  0  0  0  0  0
   56.0970   22.8730   47.3440 C   0  0  0  0  0  0  0  0  0  0  0  0
   57.1880   22.6880   47.9450 O   0  0  0  0  0  0  0  0  0  0  0  0
   55.0440   22.0280   47.4760 N   0  0  0  0  0  0  0  0  0  0  0  0
   54.1130   22.5960   46.6900 C   0  0  0  0  0  0  0  0  0  0  0  0
   52.8170   22.1400   46.4560 C   0  0  0  0  0  0  0  0  0  0  0  0
   52.0020   22.8940   45.5930 C   0  0  0  0  0  0  0  0  0  0  0  0
   52.4950   24.0710   44.9900 C   0  0  0  0  0  0  0  0  0  0  0  0
   53.8090   24.5080   45.2470 C   0  0  0  0  0  0  0  0  0  0  0  0
   54.5960   23.7380   46.1100 C   0  0  0  0  0  0  0  0  0  0  0  0
   57.5520   24.7880   44.8840 C   0  0  0  0  0  0  0  0  0  0  0  0
   57.7780   26.0930   44.0990 C   0  0  0  0  0  0  0  0  0  0  0  0
   60.7290   29.2970   45.6980 C   0  0  0  0  0  0  0  0  0  0  0  0
   61.1020   30.4650   46.3670 C   0  0  0  0  0  0  0  0  0  0  0  0
   61.8680   31.8950   49.4070 N   0  0  0  0  0  0  0  0  0  0  0  0
   66.1453   32.5127   49.4961 H   0  0  0  0  0  0  0  0  0  0  0  0
   64.5037   31.9306   49.0568 H   0  0  0  0  0  0  0  0  0  0  0  0
   64.8624   33.6907   49.0568 H   0  0  0  0  0  0  0  0  0  0  0  0
   65.0637   31.9595   51.5652 H   0  0  0  0  0  0  0  0  0  0  0  0
   65.0260   33.7601   51.4409 H   0  0  0  0  0  0  0  0  0  0  0  0
   62.2155   35.1599   50.2270 H   0  0  0  0  0  0  0  0  0  0  0  0
   60.5834   35.3786   48.3580 H   0  0  0  0  0  0  0  0  0  0  0  0
   57.8452   32.6030   48.1406 H   0  0  0  0  0  0  0  0  0  0  0  0
   56.1133   32.8916   46.3670 H   0  0  0  0  0  0  0  0  0  0  0  0
   56.7416   33.8425   44.1463 H   0  0  0  0  0  0  0  0  0  0  0  0
   59.1060   34.4965   43.6907 H   0  0  0  0  0  0  0  0  0  0  0  0
   60.8464   34.2109   45.4549 H   0  0  0  0  0  0  0  0  0  0  0  0
   59.3738   30.0009   49.2841 H   0  0  0  0  0  0  0  0  0  0  0  0
   58.7064   27.9187   48.0887 H   0  0  0  0  0  0  0  0  0  0  0  0
   60.2065   26.9181   44.7894 H   0  0  0  0  0  0  0  0  0  0  0  0
   59.4539   26.2917   46.3122 H   0  0  0  0  0  0  0  0  0  0  0  0
   57.5719   27.7828   46.9381 H   0  0  0  0  0  0  0  0  0  0  0  0
   56.4841   28.3723   45.5841 H   0  0  0  0  0  0  0  0  0  0  0  0
   55.6192   26.5207   47.2328 H   0  0  0  0  0  0  0  0  0  0  0  0
   55.3204   26.3915   45.4552 H   0  0  0  0  0  0  0  0  0  0  0  0
   57.5705   25.0479   47.0047 H   0  0  0  0  0  0  0  0  0  0  0  0
   52.4439   21.2205   46.9308 H   0  0  0  0  0  0  0  0  0  0  0  0
   50.9731   22.5642   45.3865 H   0  0  0  0  0  0  0  0  0  0  0  0
   51.8486   24.6509   44.3148 H   0  0  0  0  0  0  0  0  0  0  0  0
   54.2035   25.4247   44.7843 H   0  0  0  0  0  0  0  0  0  0  0  0
   58.5293   24.3334   45.1036 H   0  0  0  0  0  0  0  0  0  0  0  0
   56.9312   24.1250   44.2635 H   0  0  0  0  0  0  0  0  0  0  0  0
   58.5988   25.9363   43.3837 H   0  0  0  0  0  0  0  0  0  0  0  0
   56.8364   26.3417   43.5877 H   0  0  0  0  0  0  0  0  0  0  0  0
   61.1185   29.0955   44.6892 H   0  0  0  0  0  0  0  0  0  0  0  0
   61.7897   31.1757   45.8853 H   0  0  0  0  0  0  0  0  0  0  0  0
   62.2400   30.9590   49.6900 H   0  0  0  0  0  0  0  0  0  0  0  0
  1  2  1  0
  2  3  1  0
  3  4  1  0
  4  5  2  0
  5  6  1  0
  6  7  2  0
  7  8  1  0
  8  9  2  0
  9 10  1  0
 10 11  2  0
 11 12  1  0
 12 13  2  0
  7 14  1  0
 14 15  1  0
 15 16  2  0
 16 17  1  0
 17 18  2  0
 18 19  1  0
 19 20  1  0
 20 21  1  0
 21 22  1  0
 22 23  1  0
 23 24  1  0
 24 25  1  0
 25 26  2  0
 25 27  1  0
 27 28  1  0
 28 29  2  0
 29 30  1  0
 30 31  2  0
 31 32  1  0
 32 33  2  0
 23 34  1  0
 34 35  1  0
 18 36  1  0
 36 37  2  0
 14 38  2  0
 38  4  1  0
 13  8  1  0
 37 15  1  0
 35 20  1  0
 33 24  1  0
 33 28  1  0
  1 39  1  0
  1 40  1  0
  1 41  1  0
  2 42  1  0
  2 43  1  0
  5 44  1  0
  6 45  1  0
  9 46  1  0
 10 47  1  0
 11 48  1  0
 12 49  1  0
 13 50  1  0
 16 51  1  0
 17 52  1  0
 19 53  1  0
 19 54  1  0
 21 55  1  0
 21 56  1  0
 22 57  1  0
 22 58  1  0
 23 59  1  0
 29 60  1  0
 30 61  1  0
 31 62  1  0
 32 63  1  0
 34 64  1  0
 34 65  1  0
 35 66  1  0
 35 67  1  0
 36 68  1  0
 37 69  1  0
 38 70  1  0
M  CHG  2  27  -1  38   1
M  END
>  <UniqueID>  (18) 
18

>  <SMILES>  (18) 
CCOc1ccc(-c2ccccc2)c(-c2ccc(CN3CCC(n4c(=O)[n-]c5ccccc54)CC3)cc2)[nH+]1

>  <Energy>  (18) 
137.0760301677325

>  <Genealogy>  (18) 
CCOc1ccc(-c2ccccc2)c(-c2ccc(CN3CCC(n4c(=O)[n-]c5ccccc54)CC3)cc2)[nH+]1 (protonated)
CCOc1ccc(-c2ccccc2)c(-c2ccc(CN3CCC(n4c(=O)[n-]c5ccccc54)CC3)cc2)[nH+]1 (3D coordinates assigned)
CCOc1ccc(-c2ccccc2)c(-c2ccc(CN3CCC(n4c(=O)[n-]c5ccccc54)CC3)cc2)[nH+]1 (nonaromatic ring conformer: 137.0760301677325 kcal/mol)

>  <smiles>  (18) 
CCOc1ccc(-c2ccccc2)c(-c2ccc(CN3CCC(n4c(=O)[nH]c5ccccc54)CC3)cc2)n1

>  <score_type>  (18) 
oracle

>  <origin>  (18) 
adg

>  <m_score__min__energy>  (18) 
-10.449999999999999

>  <m_primary>  (18) 
energy

$$$$
18:0
     RDKit          3D

 34 36  0  0  1  0  0  0  0  0999 V2000
   57.5820   28.5850   43.7620 N   0  0  0  0  0  0  0  0  0  0  0  0
   56.6050   29.9940   43.9490 S   0  0  0  0  0  0  0  0  0  0  0  0
   56.1190   30.3830   42.5610 O   0  0  0  0  0  0  0  0  0  0  0  0
   55.4510   29.7210   44.8680 O   0  0  0  0  0  0  0  0  0  0  0  0
   57.5300   31.3200   44.6030 C   0  0  0  0  0  0  0  0  0  0  0  0
   58.3950   31.0560   45.6390 C   0  0  0  0  0  0  0  0  0  0  0  0
   59.1540   32.0610   46.1980 C   0  0  0  0  0  0  0  0  0  0  0  0
   59.0570   33.3670   45.7190 C   0  0  0  0  0  0  0  0  0  0  0  0
   59.8730   34.3310   46.3510 N   0  0  0  0  0  0  0  0  0  0  0  0
   60.4170   34.0660   47.4870 C   0  0  0  0  0  0  0  0  0  0  0  0
   59.5940   33.8240   48.5170 N   0  0  0  0  0  0  0  0  0  0  0  0
   60.1020   33.5440   49.7220 C   0  0  0  0  0  0  0  0  0  0  0  0
   59.2630   33.2720   50.8840 C   0  0  0  0  0  0  0  0  0  0  0  0
   59.3190   33.8770   52.0610 C   0  0  0  0  0  0  0  0  0  0  0  0
   58.4960   33.5600   53.0920 C   0  0  0  0  0  0  0  0  0  0  0  0
   57.4310   32.1750   52.3440 S   0  0  0  0  0  0  0  0  0  0  0  0
   58.2330   32.2310   50.7970 C   0  0  0  0  0  0  0  0  0  0  0  0
   61.4750   33.5200   49.8330 C   0  0  0  0  0  0  0  0  0  0  0  0
   62.3200   33.7720   48.7580 C   0  0  0  0  0  0  0  0  0  0  0  0
   61.7570   34.0490   47.5690 N   0  0  0  0  0  0  0  0  0  0  0  0
   58.1950   33.6300   44.6850 C   0  0  0  0  0  0  0  0  0  0  0  0
   57.4160   32.6230   44.1040 C   0  0  0  0  0  0  0  0  0  0  0  0
   58.2710   28.6580   42.9940 H   0  0  0  0  0  0  0  0  0  0  0  0
   57.0250   27.7190   43.5820 H   0  0  0  0  0  0  0  0  0  0  0  0
   58.4820   30.0301   46.0261 H   0  0  0  0  0  0  0  0  0  0  0  0
   59.8402   31.8318   47.0266 H   0  0  0  0  0  0  0  0  0  0  0  0
   60.0655   34.6713   52.2090 H   0  0  0  0  0  0  0  0  0  0  0  0
   58.4555   33.9936   54.1021 H   0  0  0  0  0  0  0  0  0  0  0  0
   58.0090   31.6042   49.9212 H   0  0  0  0  0  0  0  0  0  0  0  0
   61.9211   33.2921   50.8123 H   0  0  0  0  0  0  0  0  0  0  0  0
   63.4133   33.7456   48.8765 H   0  0  0  0  0  0  0  0  0  0  0  0
   62.3460   34.2390   46.7570 H   0  0  0  0  0  0  0  0  0  0  0  0
   58.1140   34.6583   44.3028 H   0  0  0  0  0  0  0  0  0  0  0  0
   56.7301   32.8500   43.2745 H   0  0  0  0  0  0  0  0  0  0  0  0
  1  2  1  0
  2  3  2  0
  2  4  2  0
  2  5  1  0
  5  6  2  0
  6  7  1  0
  7  8  2  0
  8  9  1  0
  9 10  2  0
 10 11  1  0
 11 12  2  0
 12 13  1  0
 13 14  1  0
 14 15  2  0
 15 16  1  0
 16 17  1  0
 12 18  1  0
 18 19  2  0
 19 20  1  0
  8 21  1  0
 21 22  2  0
 22  5  1  0
 20 10  1  0
 17 13  2  0
  1 23  1  0
  1 24  1  0
  6 25  1  0
  7 26  1  0
 14 27  1  0
 15 28  1  0
 17 29  1  0
 18 30  1  0
 19 31  1  0
 20 32  1  0
 21 33  1  0
 22 34  1  0
M  END
>  <smiles>  (19) 
NS(=O)(=O)c1ccc(N=c2nc(-c3ccsc3)cc[nH]2)cc1

>  <score_type>  (19) 
oracle

>  <origin>  (19) 
adg

>  <m_score__min__energy>  (19) 
-8.4399999999999995

>  <m_primary>  (19) 
energy

$$$$
19:0
     RDKit          3D

 42 44  0  0  0  0  0  0  0  0999 V2000
   61.5140   30.7330   47.1480 C   0  0  0  0  0  0  0  0  0  0  0  0
   60.2120   31.2470   46.9380 O   0  0  0  0  0  0  0  0  0  0  0  0
   59.2270   30.3570   46.5330 C   0  0  0  0  0  0  0  0  0  0  0  0
   59.2370   29.0180   46.9300 C   0  0  0  0  0  0  0  0  0  0  0  0
   58.2760   28.1210   46.5420 C   0  0  0  0  0  0  0  0  0  0  0  0
   58.2120   26.7740   46.9140 N   0  0  0  0  0  0  0  0  0  0  0  0
   57.8550   25.6850   46.0840 C   0  0  0  0  0  0  0  0  0  0  0  0
   56.6580   25.5570   45.4310 C   0  0  0  0  0  0  0  0  0  0  0  0
   56.3430   24.4550   44.6350 C   0  0  0  0  0  0  0  0  0  0  0  0
   57.2510   23.4350   44.4750 C   0  0  0  0  0  0  0  0  0  0  0  0
   57.0070   22.3160   43.7040 C   0  0  0  0  0  0  0  0  0  0  0  0
   55.8950   22.2130   43.1080 O   0  0  0  0  0  0  0  0  0  0  0  0
   57.9590   21.3670   43.6070 N   0  0  0  0  0  0  0  0  0  0  0  0
   59.1260   21.4710   44.2310 N   0  0  0  0  0  0  0  0  0  0  0  0
   59.4210   22.5490   45.0030 C   0  0  0  0  0  0  0  0  0  0  0  0
   60.5220   22.6660   45.6020 O   0  0  0  0  0  0  0  0  0  0  0  0
   58.4600   23.5390   45.1190 C   0  0  0  0  0  0  0  0  0  0  0  0
   58.7610   24.6320   45.9040 C   0  0  0  0  0  0  0  0  0  0  0  0
   57.2690   28.6360   45.7110 C   0  0  0  0  0  0  0  0  0  0  0  0
   57.2580   29.9570   45.3180 C   0  0  0  0  0  0  0  0  0  0  0  0
   56.2430   30.4280   44.4940 O   0  0  0  0  0  0  0  0  0  0  0  0
   56.2740   30.0530   43.1270 C   0  0  0  0  0  0  0  0  0  0  0  0
   58.2350   30.8430   45.7190 C   0  0  0  0  0  0  0  0  0  0  0  0
   58.1800   32.1450   45.3030 O   0  0  0  0  0  0  0  0  0  0  0  0
   57.7800   33.2280   46.1160 C   0  0  0  0  0  0  0  0  0  0  0  0
   61.7082   30.6564   48.2280 H   0  0  0  0  0  0  0  0  0  0  0  0
   61.5930   29.7362   46.6896 H   0  0  0  0  0  0  0  0  0  0  0  0
   62.2526   31.4070   46.6896 H   0  0  0  0  0  0  0  0  0  0  0  0
   60.0510   28.6683   47.5820 H   0  0  0  0  0  0  0  0  0  0  0  0
   58.4530   26.5350   47.9090 H   0  0  0  0  0  0  0  0  0  0  0  0
   55.9120   26.3582   45.5387 H   0  0  0  0  0  0  0  0  0  0  0  0
   55.3652   24.4022   44.1339 H   0  0  0  0  0  0  0  0  0  0  0  0
   57.7490   20.5340   43.0190 H   0  0  0  0  0  0  0  0  0  0  0  0
   59.8620   20.7330   44.1540 H   0  0  0  0  0  0  0  0  0  0  0  0
   59.7402   24.6783   46.4029 H   0  0  0  0  0  0  0  0  0  0  0  0
   56.4672   27.9676   45.3641 H   0  0  0  0  0  0  0  0  0  0  0  0
   56.3644   28.9595   43.0487 H   0  0  0  0  0  0  0  0  0  0  0  0
   55.3457   30.3803   42.6359 H   0  0  0  0  0  0  0  0  0  0  0  0
   57.1359   30.5283   42.6359 H   0  0  0  0  0  0  0  0  0  0  0  0
   57.8830   32.9491   47.1751 H   0  0  0  0  0  0  0  0  0  0  0  0
   58.4152   34.1005   45.9031 H   0  0  0  0  0  0  0  0  0  0  0  0
   56.7302   33.4781   45.9031 H   0  0  0  0  0  0  0  0  0  0  0  0
  1  2  1  0
  2  3  1  0
  3  4  2  0
  4  5  1  0
  5  6  1  0
  6  7  1  0
  7  8  2  0
  8  9  1  0
  9 10  2  0
 10 11  1  0
 11 12  2  0
 11 13  1  0
 13 14  1  0
 14 15  1  0
 15 16  2  0
 15 17  1  0
 17 18  2  0
  5 19  2  0
 19 20  1  0
 20 21  1  0
 21 22  1  0
 20 23  2  0
 23 24  1  0
 24 25  1  0
 23  3  1  0
 18  7  1  0
 17 10  1  0
  1 26  1  0
  1 27  1  0
  1 28  1  0
  4 29  1  0
  6 30  1  0
  8 31  1  0
  9 32  1  0
 13 33  1  0
 14 34  1  0
 18 35  1  0
 19 36  1  0
 22 37  1  0
 22 38  1  0
 22 39  1  0
 25 40  1  0
 25 41  1  0
 25 42  1  0
M  END
>  <smiles>  (20) 
COc1cc(Nc2ccc3c(=O)[nH][nH]c(=O)c3c2)cc(OC)c1OC

>  <score_type>  (20) 
oracle

>  <origin>  (20) 
adg

>  <m_score__min__energy>  (20) 
-7.1799999999999997

>  <m_primary>  (20) 
energy

$$$$
20:0
     RDKit          3D

 28 29  0  0  0  0  0  0  0  0999 V2000
   55.6390   30.0720   53.2890 O   0  0  0  0  0  0  0  0  0  0  0  0
   55.7670   30.7960   52.2620 C   0  0  0  0  0  0  0  0  0  0  0  0
   54.6160   31.0980   51.4570 N   0  0  0  0  0  0  0  0  0  0  0  0
   53.2630   31.0310   51.9410 C   0  0  0  0  0  0  0  0  0  0  0  0
   52.8170   29.8620   52.5810 C   0  0  0  0  0  0  0  0  0  0  0  0
   51.5000   29.7670   53.0410 C   0  0  0  0  0  0  0  0  0  0  0  0
   50.6130   30.8300   52.8540 C   0  0  0  0  0  0  0  0  0  0  0  0
   51.0400   31.9890   52.1980 C   0  0  0  0  0  0  0  0  0  0  0  0
   50.1520   33.0390   51.9990 O   0  0  0  0  0  0  0  0  0  0  0  0
   52.3570   32.0890   51.7380 C   0  0  0  0  0  0  0  0  0  0  0  0
   57.1140   31.2820   51.8750 C   0  0  0  0  0  0  0  0  0  0  0  0
   57.6340   32.4680   52.4150 C   0  0  0  0  0  0  0  0  0  0  0  0
   58.9030   32.9170   52.0480 C   0  0  0  0  0  0  0  0  0  0  0  0
   59.6830   32.1870   51.1460 C   0  0  0  0  0  0  0  0  0  0  0  0
   61.2410   32.8650   50.6800 Cl  0  0  0  0  0  0  0  0  0  0  0  0
   59.1900   30.9760   50.6080 C   0  0  0  0  0  0  0  0  0  0  0  0
   59.9620   30.1820   49.6870 N   0  0  0  0  0  0  0  0  0  0  0  0
   60.8680   29.4270   50.0960 O   0  0  0  0  0  0  0  0  0  0  0  0
   59.6110   30.1300   48.3580 O   0  0  0  0  0  0  0  0  0  0  0  0
   57.9030   30.5420   50.9760 C   0  0  0  0  0  0  0  0  0  0  0  0
   54.7610   31.2630   50.4350 H   0  0  0  0  0  0  0  0  0  0  0  0
   53.5076   29.0173   52.7208 H   0  0  0  0  0  0  0  0  0  0  0  0
   51.1616   28.8532   53.5513 H   0  0  0  0  0  0  0  0  0  0  0  0
   49.5793   30.7554   53.2225 H   0  0  0  0  0  0  0  0  0  0  0  0
   52.6864   32.9989   51.2150 H   0  0  0  0  0  0  0  0  0  0  0  0
   57.0365   33.0484   53.1334 H   0  0  0  0  0  0  0  0  0  0  0  0
   59.2934   33.8538   52.4722 H   0  0  0  0  0  0  0  0  0  0  0  0
   57.5068   29.6071   50.5529 H   0  0  0  0  0  0  0  0  0  0  0  0
  1  2  2  0
  2  3  1  0
  3  4  1  0
  4  5  2  0
  5  6  1  0
  6  7  2  0
  7  8  1  0
  8  9  1  0
  8 10  2  0
  2 11  1  0
 11 12  2  0
 12 13  1  0
 13 14  2  0
 14 15  1  0
 14 16  1  0
 16 17  1  0
 17 18  2  0
 17 19  1  0
 16 20  2  0
 10  4  1  0
 20 11  1  0
  3 21  1  0
  5 22  1  0
  6 23  1  0
  7 24  1  0
 10 25  1  0
 12 26  1  0
 13 27  1  0
 20 28  1  0
M  CHG  3   9  -1  17   1  19  -1
M  END
>  <UniqueID>  (21) 
19

>  <SMILES>  (21) 
O=C(Nc1cccc([O-])c1)c1ccc(Cl)c([N+](=O)[O-])c1

>  <Energy>  (21) 
39.475052323418446

>  <Genealogy>  (21) 
O=C(Nc1cccc([O-])c1)c1ccc(Cl)c([N+](=O)[O-])c1 (protonated)
O=C(Nc1cccc([O-])c1)c1ccc(Cl)c([N+](=O)[O-])c1 (3D coordinates assigned)
O=C(Nc1cccc([O-])c1)c1ccc(Cl)c([N+](=O)[O-])c1 (optimized conformer: 39.475052323418446 kcal/mol)

>  <smiles>  (21) 
O=C(Nc1cccc(O)c1)c1ccc(Cl)c([N+](=O)[O-])c1

>  <score_type>  (21) 
oracle

>  <origin>  (21) 
adg

>  <m_score__min__energy>  (21) 
-10.210000000000001

>  <m_primary>  (21) 
energy

$$$$
21:0
     RDKit          3D

 31 32  0  0  0  0  0  0  0  0999 V2000
   56.7619   33.3532   44.6520 H   0  0  0  0  0  0  0  0  0  0  0  0
   57.4960   32.5340   44.6640 C   0  0  0  0  0  0  0  0  0  0  0  0
   57.5150   31.6810   43.6350 C   0  0  0  0  0  0  0  0  0  0  0  0
   58.0402   31.9816   42.7164 H   0  0  0  0  0  0  0  0  0  0  0  0
   56.7400   30.0980   43.6770 S   0  0  0  0  0  0  0  0  0  0  0  0
   55.8260   30.0350   44.8690 O   0  0  0  0  0  0  0  0  0  0  0  0
   55.9340   29.9080   42.4230 O   0  0  0  0  0  0  0  0  0  0  0  0
   57.9550   28.8630   43.7720 N   0  0  0  0  0  0  0  0  0  0  0  0
   58.4570   28.6250   42.8880 H   0  0  0  0  0  0  0  0  0  0  0  0
   58.4030   28.2890   45.0100 C   0  0  0  0  0  0  0  0  0  0  0  0
   59.7600   28.3270   45.3840 C   0  0  0  0  0  0  0  0  0  0  0  0
   60.4969   28.8048   44.7217 H   0  0  0  0  0  0  0  0  0  0  0  0
   60.1760   27.7600   46.5940 C   0  0  0  0  0  0  0  0  0  0  0  0
   61.2388   27.7864   46.8763 H   0  0  0  0  0  0  0  0  0  0  0  0
   59.2440   27.1610   47.4430 C   0  0  0  0  0  0  0  0  0  0  0  0
   59.5740   26.7098   48.3904 H   0  0  0  0  0  0  0  0  0  0  0  0
   57.8940   27.1340   47.0910 C   0  0  0  0  0  0  0  0  0  0  0  0
   57.1607   26.6664   47.7645 H   0  0  0  0  0  0  0  0  0  0  0  0
   57.4710   27.7000   45.8840 C   0  0  0  0  0  0  0  0  0  0  0  0
   56.1530   27.6630   45.5610 F   0  0  0  0  0  0  0  0  0  0  0  0
   58.4120   32.4290   45.8140 C   0  0  0  0  0  0  0  0  0  0  0  0
   58.4550   31.2380   46.5520 C   0  0  0  0  0  0  0  0  0  0  0  0
   57.8199   30.3887   46.2597 H   0  0  0  0  0  0  0  0  0  0  0  0
   59.3030   31.1260   47.6590 C   0  0  0  0  0  0  0  0  0  0  0  0
   59.3246   30.1935   48.2420 H   0  0  0  0  0  0  0  0  0  0  0  0
   60.1220   32.1960   48.0250 C   0  0  0  0  0  0  0  0  0  0  0  0
   60.9400   32.0860   49.1010 F   0  0  0  0  0  0  0  0  0  0  0  0
   60.1020   33.3790   47.2810 C   0  0  0  0  0  0  0  0  0  0  0  0
   60.7529   34.2180   47.5681 H   0  0  0  0  0  0  0  0  0  0  0  0
   59.2560   33.5000   46.1710 C   0  0  0  0  0  0  0  0  0  0  0  0
   59.2710   35.0020   45.2520 Cl  0  0  0  0  0  0  0  0  0  0  0  0
  1  2  1  0
  2  3  2  0
  3  4  1  0
  3  5  1  0
  5  6  2  0
  5  7  2  0
  5  8  1  0
  8  9  1  0
  8 10  1  0
 10 11  2  0
 11 12  1  0
 11 13  1  0
 13 14  1  0
 13 15  2  0
 15 16  1  0
 15 17  1  0
 17 18  1  0
 17 19  2  0
 19 20  1  0
  2 21  1  0
 21 22  2  0
 22 23  1  0
 22 24  1  0
 24 25  1  0
 24 26  2  0
 26 27  1  0
 26 28  1  0
 28 29  1  0
 28 30  2  0
 30 31  1  0
 19 10  1  0
 30 21  1  0
M  END
>  <UniqueID>  (22) 
20

>  <SMILES>  (22) 
O=S(=O)(/C=C\c1ccc(F)cc1Cl)Nc1ccccc1F

>  <Energy>  (22) 
42.32994798550778

>  <Genealogy>  (22) 
O=S(=O)(/C=C\c1ccc(F)cc1Cl)Nc1ccccc1F (cis-trans isomerization)
O=S(=O)(/C=C\c1ccc(F)cc1Cl)Nc1ccccc1F (3D coordinates assigned)
O=S(=O)(/C=C\c1ccc(F)cc1Cl)Nc1ccccc1F (optimized conformer: 42.32994798550778 kcal/mol)

>  <smiles>  (22) 
O=S(=O)(C=Cc1ccc(F)cc1Cl)Nc1ccccc1F

>  <score_type>  (22) 
oracle

>  <origin>  (22) 
adg

>  <m_score__min__energy>  (22) 
-7.9699999999999998

>  <m_primary>  (22) 
energy

$$$$
22:0
     RDKit          3D

 54 57  0  0  0  0  0  0  0  0999 V2000
   69.3050   34.6760   53.1950 C   0  0  0  0  0  0  0  0  0  0  0  0
   69.0360   34.0360   51.9510 O   0  0  0  0  0  0  0  0  0  0  0  0
   67.7500   33.7510   51.4690 C   0  0  0  0  0  0  0  0  0  0  0  0
   67.5030   32.7380   50.5260 C   0  0  0  0  0  0  0  0  0  0  0  0
   66.2020   32.4930   50.0770 C   0  0  0  0  0  0  0  0  0  0  0  0
   65.1220   33.2510   50.5610 C   0  0  0  0  0  0  0  0  0  0  0  0
   63.7770   32.9980   50.1000 N   0  0  0  0  0  0  0  0  0  0  0  0
   63.2340   33.7220   48.9420 C   0  0  0  0  0  0  0  0  0  0  0  0
   62.1640   32.8720   48.2410 C   0  0  0  0  0  0  0  0  0  0  0  0
   61.0840   32.4220   49.1510 N   0  0  0  0  0  0  0  0  0  0  0  0
   59.6180   33.3460   48.9080 S   0  0  0  0  0  0  0  0  0  0  0  0
   59.7080   34.6400   49.6690 O   0  0  0  0  0  0  0  0  0  0  0  0
   58.4470   32.5710   49.4460 O   0  0  0  0  0  0  0  0  0  0  0  0
   59.3500   33.6940   47.1970 C   0  0  0  0  0  0  0  0  0  0  0  0
   59.6390   34.9660   46.6820 C   0  0  0  0  0  0  0  0  0  0  0  0
   59.3930   35.2510   45.3380 C   0  0  0  0  0  0  0  0  0  0  0  0
   58.8700   34.2660   44.4960 C   0  0  0  0  0  0  0  0  0  0  0  0
   58.6040   32.9830   44.9880 C   0  0  0  0  0  0  0  0  0  0  0  0
   58.0680   32.0250   44.1160 O   0  0  0  0  0  0  0  0  0  0  0  0
   57.6250   30.7470   44.4860 C   0  0  0  0  0  0  0  0  0  0  0  0
   56.2800   30.3610   44.3760 C   0  0  0  0  0  0  0  0  0  0  0  0
   55.9080   29.1150   44.7690 N   0  0  0  0  0  0  0  0  0  0  0  0
   56.8070   28.2270   45.2740 C   0  0  0  0  0  0  0  0  0  0  0  0
   56.3610   26.8860   45.6840 C   0  0  0  0  0  0  0  0  0  0  0  0
   55.1550   26.6890   45.9910 O   0  0  0  0  0  0  0  0  0  0  0  0
   57.2580   25.8250   45.7360 O   0  0  0  0  0  0  0  0  0  0  0  0
   58.1470   28.6200   45.4000 C   0  0  0  0  0  0  0  0  0  0  0  0
   58.5190   29.8670   45.0090 N   0  0  0  0  0  0  0  0  0  0  0  0
   58.8330   32.7060   46.3480 C   0  0  0  0  0  0  0  0  0  0  0  0
   61.4420   32.3980   50.5860 C   0  0  0  0  0  0  0  0  0  0  0  0
   62.9150   32.0370   50.8030 C   0  0  0  0  0  0  0  0  0  0  0  0
   65.3760   34.2640   51.5040 C   0  0  0  0  0  0  0  0  0  0  0  0
   66.6770   34.5090   51.9510 C   0  0  0  0  0  0  0  0  0  0  0  0
   69.0233   34.0059   54.0206 H   0  0  0  0  0  0  0  0  0  0  0  0
   70.3777   34.9101   53.2625 H   0  0  0  0  0  0  0  0  0  0  0  0
   68.7217   35.6062   53.2625 H   0  0  0  0  0  0  0  0  0  0  0  0
   68.3378   32.1350   50.1394 H   0  0  0  0  0  0  0  0  0  0  0  0
   66.0218   31.6989   49.3374 H   0  0  0  0  0  0  0  0  0  0  0  0
   62.7832   34.6660   49.2821 H   0  0  0  0  0  0  0  0  0  0  0  0
   64.0492   33.9298   48.2333 H   0  0  0  0  0  0  0  0  0  0  0  0
   61.7147   33.4712   47.4353 H   0  0  0  0  0  0  0  0  0  0  0  0
   62.6638   31.9703   47.8575 H   0  0  0  0  0  0  0  0  0  0  0  0
   60.0606   35.7410   47.3389 H   0  0  0  0  0  0  0  0  0  0  0  0
   59.6113   36.2532   44.9407 H   0  0  0  0  0  0  0  0  0  0  0  0
   58.6662   34.5003   43.4407 H   0  0  0  0  0  0  0  0  0  0  0  0
   55.5331   31.0618   43.9748 H   0  0  0  0  0  0  0  0  0  0  0  0
   58.8919   27.9237   45.8125 H   0  0  0  0  0  0  0  0  0  0  0  0
   58.6047   31.7070   46.7479 H   0  0  0  0  0  0  0  0  0  0  0  0
   61.2528   33.3926   51.0161 H   0  0  0  0  0  0  0  0  0  0  0  0
   60.8274   31.6292   51.0772 H   0  0  0  0  0  0  0  0  0  0  0  0
   63.1418   32.0635   51.8790 H   0  0  0  0  0  0  0  0  0  0  0  0
   63.1015   31.0278   50.4071 H   0  0  0  0  0  0  0  0  0  0  0  0
   64.5431   34.8683   51.8927 H   0  0  0  0  0  0  0  0  0  0  0  0
   66.8593   35.3047   52.6883 H   0  0  0  0  0  0  0  0  0  0  0  0
  1  2  1  0
  2  3  1  0
  3  4  2  0
  4  5  1  0
  5  6  2  0
  6  7  1  0
  7  8  1  0
  8  9  1  0
  9 10  1  0
 10 11  1  0
 11 12  2  0
 11 13  2  0
 11 14  1  0
 14 15  2  0
 15 16  1  0
 16 17  2  0
 17 18  1  0
 18 19  1  0
 19 20  1  0
 20 21  2  0
 21 22  1  0
 22 23  2  0
 23 24  1  0
 24 25  2  0
 24 26  1  0
 23 27  1  0
 27 28  2  0
 18 29  2  0
 10 30  1  0
 30 31  1  0
  6 32  1  0
 32 33  2  0
 33  3  1  0
 31  7  1  0
 29 14  1  0
 28 20  1  0
  1 34  1  0
  1 35  1  0
  1 36  1  0
  4 37  1  0
  5 38  1  0
  8 39  1  0
  8 40  1  0
  9 41  1  0
  9 42  1  0
 15 43  1  0
 16 44  1  0
 17 45  1  0
 21 46  1  0
 27 47  1  0
 29 48  1  0
 30 49  1  0
 30 50  1  0
 31 51  1  0
 31 52  1  0
 32 53  1  0
 33 54  1  0
M  CHG  1  26  -1
M  END
>  <UniqueID>  (23) 
21

>  <SMILES>  (23) 
COc1ccc(N2CCN(S(=O)(=O)c3cccc(Oc4cnc(C(=O)[O-])cn4)c3)CC2)cc1

>  <Energy>  (23) 
72.5082731943721

>  <Genealogy>  (23) 
COc1ccc(N2CCN(S(=O)(=O)c3cccc(Oc4cnc(C(=O)[O-])cn4)c3)CC2)cc1 (protonated)
COc1ccc(N2CCN(S(=O)(=O)c3cccc(Oc4cnc(C(=O)[O-])cn4)c3)CC2)cc1 (3D coordinates assigned)
COc1ccc(N2CCN(S(=O)(=O)c3cccc(Oc4cnc(C(=O)[O-])cn4)c3)CC2)cc1 (nonaromatic ring conformer: 72.5082731943721 kcal/mol)

>  <smiles>  (23) 
COc1ccc(N2CCN(S(=O)(=O)c3cccc(Oc4cnc(C(=O)O)cn4)c3)CC2)cc1

>  <score_type>  (23) 
oracle

>  <origin>  (23) 
adg

>  <m_score__min__energy>  (23) 
-11.890000000000001

>  <m_primary>  (23) 
energy

$$$$
23:0
     RDKit          3D

 42 45  0  0  0  0  0  0  0  0999 V2000
   61.7020   30.9720   49.1320 C   0  0  0  0  0  0  0  0  0  0  0  0
   61.2680   31.3010   47.8280 O   0  0  0  0  0  0  0  0  0  0  0  0
   59.8570   31.3110   47.5530 C   0  0  2  0  0  0  0  0  0  0  0  0
   58.8450   31.5910   48.7490 C   0  0  0  0  0  0  0  0  0  0  0  0
   59.0770   32.8470   49.6120 C   0  0  0  0  0  0  0  0  0  0  0  0
   58.7350   32.4490   51.0410 C   0  0  0  0  0  0  0  0  0  0  0  0
   58.8770   30.9360   51.1110 C   0  0  0  0  0  0  0  0  0  0  0  0
   58.5970   30.4160   49.7070 C   0  0  0  0  0  0  0  0  0  0  0  0
   59.5550   29.8920   47.0990 C   0  0  0  0  0  0  0  0  0  0  0  0
   60.2640   28.9310   47.5120 O   0  0  0  0  0  0  0  0  0  0  0  0
   58.3620   29.6180   46.2750 C   0  0  0  0  0  0  0  0  0  0  0  0
   57.7610   28.3480   46.2850 C   0  0  0  0  0  0  0  0  0  0  0  0
   56.5710   28.1270   45.5910 C   0  0  0  0  0  0  0  0  0  0  0  0
   55.9810   26.8680   45.6110 O   0  0  0  0  0  0  0  0  0  0  0  0
   55.9680   29.1750   44.8900 C   0  0  0  0  0  0  0  0  0  0  0  0
   54.7690   28.9650   44.2180 O   0  0  0  0  0  0  0  0  0  0  0  0
   56.5680   30.4380   44.8630 C   0  0  0  0  0  0  0  0  0  0  0  0
   57.7890   30.6680   45.5330 C   0  0  0  0  0  0  0  0  0  0  0  0
   58.5150   31.9720   45.4530 C   0  0  0  0  0  0  0  0  0  0  0  0
   58.2530   32.8830   44.4070 C   0  0  0  0  0  0  0  0  0  0  0  0
   58.9820   34.0650   44.2890 C   0  0  0  0  0  0  0  0  0  0  0  0
   59.9980   34.3500   45.1920 C   0  0  0  0  0  0  0  0  0  0  0  0
   60.2920   33.4560   46.2210 C   0  0  0  0  0  0  0  0  0  0  0  0
   59.5630   32.2570   46.3750 C   0  0  0  0  0  0  0  0  0  0  0  0
   61.0520   31.4648   49.8700 H   0  0  0  0  0  0  0  0  0  0  0  0
   61.6533   29.8818   49.2705 H   0  0  0  0  0  0  0  0  0  0  0  0
   62.7385   31.3133   49.2705 H   0  0  0  0  0  0  0  0  0  0  0  0
   57.9523   31.7710   48.1319 H   0  0  0  0  0  0  0  0  0  0  0  0
   60.1276   33.1663   49.5461 H   0  0  0  0  0  0  0  0  0  0  0  0
   58.4562   33.6884   49.2706 H   0  0  0  0  0  0  0  0  0  0  0  0
   59.4292   32.9293   51.7462 H   0  0  0  0  0  0  0  0  0  0  0  0
   57.7171   32.7670   51.3108 H   0  0  0  0  0  0  0  0  0  0  0  0
   59.8961   30.6629   51.4223 H   0  0  0  0  0  0  0  0  0  0  0  0
   58.1815   30.5022   51.8446 H   0  0  0  0  0  0  0  0  0  0  0  0
   59.2736   29.5821   49.4687 H   0  0  0  0  0  0  0  0  0  0  0  0
   57.5661   30.0423   49.6195 H   0  0  0  0  0  0  0  0  0  0  0  0
   58.2308   27.5243   46.8425 H   0  0  0  0  0  0  0  0  0  0  0  0
   56.0840   31.2597   44.3147 H   0  0  0  0  0  0  0  0  0  0  0  0
   57.4632   32.6571   43.6755 H   0  0  0  0  0  0  0  0  0  0  0  0
   58.7523   34.7733   43.4794 H   0  0  0  0  0  0  0  0  0  0  0  0
   60.5722   35.2832   45.0952 H   0  0  0  0  0  0  0  0  0  0  0  0
   61.1052   33.6889   46.9242 H   0  0  0  0  0  0  0  0  0  0  0  0
  1  2  1  0
  3  2  1  1
  3  4  1  0
  4  5  1  0
  5  6  1  0
  6  7  1  0
  7  8  1  0
  3  9  1  0
  9 10  2  0
  9 11  1  0
 11 12  2  0
 12 13  1  0
 13 14  1  0
 13 15  2  0
 15 16  1  0
 15 17  1  0
 17 18  2  0
 18 19  1  0
 19 20  2  0
 20 21  1  0
 21 22  2  0
 22 23  1  0
 23 24  2  0
 24  3  1  0
  8  4  1  0
 18 11  1  0
 24 19  1  0
  1 25  1  0
  1 26  1  0
  1 27  1  0
  4 28  1  0
  5 29  1  0
  5 30  1  0
  6 31  1  0
  6 32  1  0
  7 33  1  0
  7 34  1  0
  8 35  1  0
  8 36  1  0
 12 37  1  0
 17 38  1  0
 20 39  1  0
 21 40  1  0
 22 41  1  0
 23 42  1  0
M  CHG  2  14  -1  16  -1
M  END
>  <UniqueID>  (24) 
22

>  <SMILES>  (24) 
CO[C@]1(C2CCCC2)C(=O)c2cc([O-])c([O-])cc2-c2ccccc21

>  <Energy>  (24) 
82.61586367230802

>  <Genealogy>  (24) 
COC1(C2CCCC2)C(=O)c2cc([O-])c([O-])cc2-c2ccccc21 (protonated)
CO[C@]1(C2CCCC2)C(=O)c2cc([O-])c([O-])cc2-c2ccccc21 (chirality)
CO[C@]1(C2CCCC2)C(=O)c2cc([O-])c([O-])cc2-c2ccccc21 (3D coordinates assigned)
CO[C@]1(C2CCCC2)C(=O)c2cc([O-])c([O-])cc2-c2ccccc21 (nonaromatic ring conformer: 82.61586367230802 kcal/mol)

>  <smiles>  (24) 
COC1(C2CCCC2)C(=O)c2cc(O)c(O)cc2-c2ccccc21

>  <score_type>  (24) 
oracle

>  <origin>  (24) 
adg

>  <m_score__min__energy>  (24) 
-12.130000000000001

>  <m_primary>  (24) 
energy

$$$$
24:0
     RDKit          3D

 33 34  0  0  0  0  0  0  0  0999 V2000
   60.3920   28.2280   48.0780 C   0  0  0  0  0  0  0  0  0  0  0  0
   59.3570   27.8100   47.0750 C   0  0  0  0  0  0  0  0  0  0  0  0
   58.5560   26.6850   47.3170 C   0  0  0  0  0  0  0  0  0  0  0  0
   57.5710   26.3050   46.3950 C   0  0  0  0  0  0  0  0  0  0  0  0
   56.6990   25.1160   46.6690 C   0  0  0  0  0  0  0  0  0  0  0  0
   57.3560   27.0860   45.2490 C   0  0  0  0  0  0  0  0  0  0  0  0
   58.1310   28.2360   45.0110 C   0  0  0  0  0  0  0  0  0  0  0  0
   57.9220   29.0660   43.8530 N   0  0  0  0  0  0  0  0  0  0  0  0
   56.8750   30.4490   43.8300 S   0  0  0  0  0  0  0  0  0  0  0  0
   55.5900   30.1040   44.5310 O   0  0  0  0  0  0  0  0  0  0  0  0
   56.5720   30.8180   42.4050 O   0  0  0  0  0  0  0  0  0  0  0  0
   57.6650   31.8150   44.6120 C   0  0  0  0  0  0  0  0  0  0  0  0
   58.0800   32.9230   43.8600 C   0  0  0  0  0  0  0  0  0  0  0  0
   58.6890   34.0120   44.4920 C   0  0  0  0  0  0  0  0  0  0  0  0
   58.8890   33.9970   45.8760 C   0  0  0  0  0  0  0  0  0  0  0  0
   59.6500   35.3650   46.6670 Cl  0  0  0  0  0  0  0  0  0  0  0  0
   58.4800   32.8910   46.6280 C   0  0  0  0  0  0  0  0  0  0  0  0
   57.8720   31.8010   45.9990 C   0  0  0  0  0  0  0  0  0  0  0  0
   59.1330   28.5860   45.9290 C   0  0  0  0  0  0  0  0  0  0  0  0
   60.0022   28.0706   49.0945 H   0  0  0  0  0  0  0  0  0  0  0  0
   61.3026   27.6271   47.9374 H   0  0  0  0  0  0  0  0  0  0  0  0
   60.6299   29.2927   47.9374 H   0  0  0  0  0  0  0  0  0  0  0  0
   58.7014   26.0974   48.2355 H   0  0  0  0  0  0  0  0  0  0  0  0
   56.5979   24.9781   47.7556 H   0  0  0  0  0  0  0  0  0  0  0  0
   55.7055   25.2801   46.2262 H   0  0  0  0  0  0  0  0  0  0  0  0
   57.1540   24.2177   46.2262 H   0  0  0  0  0  0  0  0  0  0  0  0
   56.5749   26.7966   44.5306 H   0  0  0  0  0  0  0  0  0  0  0  0
   58.4930   28.8920   42.9950 H   0  0  0  0  0  0  0  0  0  0  0  0
   57.9264   32.9359   42.7709 H   0  0  0  0  0  0  0  0  0  0  0  0
   59.0110   34.8812   43.8998 H   0  0  0  0  0  0  0  0  0  0  0  0
   58.6371   32.8790   47.7166 H   0  0  0  0  0  0  0  0  0  0  0  0
   57.5554   30.9308   46.5927 H   0  0  0  0  0  0  0  0  0  0  0  0
   59.7494   29.4788   45.7475 H   0  0  0  0  0  0  0  0  0  0  0  0
  1  2  1  0
  2  3  2  0
  3  4  1  0
  4  5  1  0
  4  6  2  0
  6  7  1  0
  7  8  1  0
  8  9  1  0
  9 10  2  0
  9 11  2  0
  9 12  1  0
 12 13  2  0
 13 14  1  0
 14 15  2  0
 15 16  1  0
 15 17  1  0
 17 18  2  0
  7 19  2  0
 19  2  1  0
 18 12  1  0
  1 20  1  0
  1 21  1  0
  1 22  1  0
  3 23  1  0
  5 24  1  0
  5 25  1  0
  5 26  1  0
  6 27  1  0
  8 28  1  0
 13 29  1  0
 14 30  1  0
 17 31  1  0
 18 32  1  0
 19 33  1  0
M  END
>  <UniqueID>  (25) 
23

>  <SMILES>  (25) 
Cc1cc(C)cc(NS(=O)(=O)c2ccc(Cl)cc2)c1

>  <Energy>  (25) 
34.0002704000434

>  <Genealogy>  (25) 
Cc1cc(C)cc(NS(=O)(=O)c2ccc(Cl)cc2)c1 (3D coordinates assigned)
Cc1cc(C)cc(NS(=O)(=O)c2ccc(Cl)cc2)c1 (optimized conformer: 34.0002704000434 kcal/mol)

>  <smiles>  (25) 
Cc1cc(C)cc(NS(=O)(=O)c2ccc(Cl)cc2)c1

>  <score_type>  (25) 
oracle

>  <origin>  (25) 
adg

>  <m_score__min__energy>  (25) 
-7.9800000000000004

>  <m_primary>  (25) 
energy

$$$$
25:0
     RDKit          3D

 55 58  0  0  0  0  0  0  0  0999 V2000
   61.0940   29.0990   44.8190 C   0  0  0  0  0  0  0  0  0  0  0  0
   60.6830   29.4240   46.1870 N   0  0  0  0  0  0  0  0  0  0  0  0
   60.6820   30.8330   46.6070 C   0  0  0  0  0  0  0  0  0  0  0  0
   61.7680   31.1120   47.6750 C   0  0  2  0  0  0  0  0  0  0  0  0
   61.3040   30.6330   48.9890 N   0  0  0  0  0  0  0  0  0  0  0  0
   60.1770   31.1160   49.7420 C   0  0  0  0  0  0  0  0  0  0  0  0
   59.1940   30.1920   50.1270 C   0  0  0  0  0  0  0  0  0  0  0  0
   58.0730   30.6030   50.8500 C   0  0  0  0  0  0  0  0  0  0  0  0
   57.9230   31.9410   51.2100 C   0  0  0  0  0  0  0  0  0  0  0  0
   58.9030   32.8730   50.8600 C   0  0  0  0  0  0  0  0  0  0  0  0
   60.0420   32.4750   50.1390 C   0  0  0  0  0  0  0  0  0  0  0  0
   61.0860   33.5070   49.7930 C   0  0  0  0  0  0  0  0  0  0  0  0
   61.2880   33.5330   48.3410 N   0  0  0  0  0  0  0  0  0  0  0  0
   60.5420   34.4850   47.5010 C   0  0  0  0  0  0  0  0  0  0  0  0
   59.5670   33.7390   46.6270 C   0  0  0  0  0  0  0  0  0  0  0  0
   59.6550   33.8250   45.2270 C   0  0  0  0  0  0  0  0  0  0  0  0
   58.7070   33.1780   44.4220 C   0  0  0  0  0  0  0  0  0  0  0  0
   57.6780   32.4330   45.0040 C   0  0  0  0  0  0  0  0  0  0  0  0
   57.5970   32.3280   46.3960 C   0  0  0  0  0  0  0  0  0  0  0  0
   58.5320   32.9840   47.2060 C   0  0  0  0  0  0  0  0  0  0  0  0
   62.1760   32.5720   47.7390 C   0  0  0  0  0  0  0  0  0  0  0  0
   63.2370   32.9690   47.1730 O   0  0  0  0  0  0  0  0  0  0  0  0
   60.0680   28.3990   46.9930 C   0  0  0  0  0  0  0  0  0  0  0  0
   60.6770   27.9600   48.0060 O   0  0  0  0  0  0  0  0  0  0  0  0
   58.7270   27.8590   46.6590 C   0  0  0  0  0  0  0  0  0  0  0  0
   58.2800   26.6470   47.2140 C   0  0  0  0  0  0  0  0  0  0  0  0
   57.0140   26.1480   46.8920 C   0  0  0  0  0  0  0  0  0  0  0  0
   56.1850   26.8510   46.0110 C   0  0  0  0  0  0  0  0  0  0  0  0
   54.9300   26.3560   45.6920 O   0  0  0  0  0  0  0  0  0  0  0  0
   56.6260   28.0480   45.4440 C   0  0  0  0  0  0  0  0  0  0  0  0
   57.8950   28.5430   45.7550 C   0  0  0  0  0  0  0  0  0  0  0  0
   61.9565   28.4169   44.8475 H   0  0  0  0  0  0  0  0  0  0  0  0
   60.2600   28.6135   44.2911 H   0  0  0  0  0  0  0  0  0  0  0  0
   61.3741   30.0225   44.2911 H   0  0  0  0  0  0  0  0  0  0  0  0
   60.8741   31.4671   45.7289 H   0  0  0  0  0  0  0  0  0  0  0  0
   59.7002   31.0589   47.0485 H   0  0  0  0  0  0  0  0  0  0  0  0
   62.6720   30.5592   47.3796 H   0  0  0  0  0  0  0  0  0  0  0  0
   61.8610   29.8570   49.4320 H   0  0  0  0  0  0  0  0  0  0  0  0
   59.3080   29.1320   49.8561 H   0  0  0  0  0  0  0  0  0  0  0  0
   57.3057   29.8687   51.1365 H   0  0  0  0  0  0  0  0  0  0  0  0
   57.0327   32.2633   51.7699 H   0  0  0  0  0  0  0  0  0  0  0  0
   58.7823   33.9269   51.1510 H   0  0  0  0  0  0  0  0  0  0  0  0
   60.7493   34.4972   50.1338 H   0  0  0  0  0  0  0  0  0  0  0  0
   62.0333   33.2498   50.2896 H   0  0  0  0  0  0  0  0  0  0  0  0
   59.9921   35.1871   48.1449 H   0  0  0  0  0  0  0  0  0  0  0  0
   61.2482   35.0400   46.8659 H   0  0  0  0  0  0  0  0  0  0  0  0
   60.4689   34.4008   44.7622 H   0  0  0  0  0  0  0  0  0  0  0  0
   58.7735   33.2572   43.3269 H   0  0  0  0  0  0  0  0  0  0  0  0
   56.9337   31.9305   44.3688 H   0  0  0  0  0  0  0  0  0  0  0  0
   56.7972   31.7289   46.8556 H   0  0  0  0  0  0  0  0  0  0  0  0
   58.4563   32.9082   48.3008 H   0  0  0  0  0  0  0  0  0  0  0  0
   58.9291   26.0887   47.9047 H   0  0  0  0  0  0  0  0  0  0  0  0
   56.6692   25.2008   47.3323 H   0  0  0  0  0  0  0  0  0  0  0  0
   55.9742   28.6017   44.7522 H   0  0  0  0  0  0  0  0  0  0  0  0
   58.2461   29.4754   45.2889 H   0  0  0  0  0  0  0  0  0  0  0  0
  1  2  1  0
  2  3  1  0
  3  4  1  0
  4  5  1  0
  5  6  1  0
  6  7  2  0
  7  8  1  0
  8  9  2  0
  9 10  1  0
 10 11  2  0
 11 12  1  0
 12 13  1  0
 13 14  1  0
 14 15  1  0
 15 16  2  0
 16 17  1  0
 17 18  2  0
 18 19  1  0
 19 20  2  0
 13 21  1  0
 21 22  2  0
  2 23  1  0
 23 24  2  0
 23 25  1  0
 25 26  2  0
 26 27  1  0
 27 28  2  0
 28 29  1  0
 28 30  1  0
 30 31  2  0
 21  4  1  0
 31 25  1  0
 11  6  1  0
 20 15  1  0
  1 32  1  0
  1 33  1  0
  1 34  1  0
  3 35  1  0
  3 36  1  0
  4 37  1  6
  5 38  1  0
  7 39  1  0
  8 40  1  0
  9 41  1  0
 10 42  1  0
 12 43  1  0
 12 44  1  0
 14 45  1  0
 14 46  1  0
 16 47  1  0
 17 48  1  0
 18 49  1  0
 19 50  1  0
 20 51  1  0
 26 52  1  0
 27 53  1  0
 30 54  1  0
 31 55  1  0
M  CHG  1  29  -1
M  END
>  <UniqueID>  (26) 
24

>  <SMILES>  (26) 
CN(C[C@@H]1Nc2ccccc2CN(Cc2ccccc2)C1=O)C(=O)c1ccc([O-])cc1

>  <Energy>  (26) 
69.52927904463657

>  <Genealogy>  (26) 
CN(CC1Nc2ccccc2CN(Cc2ccccc2)C1=O)C(=O)c1ccc([O-])cc1 (protonated)
CN(C[C@@H]1Nc2ccccc2CN(Cc2ccccc2)C1=O)C(=O)c1ccc([O-])cc1 (chirality)
CN(C[C@@H]1Nc2ccccc2CN(Cc2ccccc2)C1=O)C(=O)c1ccc([O-])cc1 (3D coordinates assigned)
CN(C[C@@H]1Nc2ccccc2CN(Cc2ccccc2)C1=O)C(=O)c1ccc([O-])cc1 (nonaromatic ring conformer: 69.52927904463657 kcal/mol)

>  <smiles>  (26) 
CN(CC1Nc2ccccc2CN(Cc2ccccc2)C1=O)C(=O)c1ccc(O)cc1

>  <score_type>  (26) 
oracle

>  <origin>  (26) 
adg

>  <m_score__min__energy>  (26) 
-10.390000000000001

>  <m_primary>  (26) 
energy

$$$$
26:0
     RDKit          3D

 34 36  0  0  0  0  0  0  0  0999 V2000
   57.5060   21.6700   45.6270 C   0  0  0  0  0  0  0  0  0  0  0  0
   57.3540   22.6480   46.6510 O   0  0  0  0  0  0  0  0  0  0  0  0
   57.2750   24.0300   46.4210 C   0  0  0  0  0  0  0  0  0  0  0  0
   58.4640   24.7500   46.2920 C   0  0  0  0  0  0  0  0  0  0  0  0
   58.4420   26.1270   46.0610 C   0  0  0  0  0  0  0  0  0  0  0  0
   57.2210   26.8200   45.9500 C   0  0  0  0  0  0  0  0  0  0  0  0
   57.2510   28.2870   45.6980 C   0  0  0  0  0  0  0  0  0  0  0  0
   56.3340   28.9230   44.9290 N   0  0  0  0  0  0  0  0  0  0  0  0
   56.5230   30.2390   44.8350 N   0  0  0  0  0  0  0  0  0  0  0  0
   57.5940   30.6790   45.5310 C   0  0  0  0  0  0  0  0  0  0  0  0
   57.9990   32.0620   45.5790 N   0  0  0  0  0  0  0  0  0  0  0  0
   58.1540   32.7190   46.8820 C   0  0  0  0  0  0  0  0  0  0  0  0
   59.0810   33.9320   46.7650 C   0  0  0  0  0  0  0  0  0  0  0  0
   58.6700   34.7770   45.7090 O   0  0  0  0  0  0  0  0  0  0  0  0
   58.8330   34.1050   44.4780 C   0  0  0  0  0  0  0  0  0  0  0  0
   57.8870   32.9040   44.3800 C   0  0  0  0  0  0  0  0  0  0  0  0
   58.3650   29.3990   46.3120 S   0  0  0  0  0  0  0  0  0  0  0  0
   56.0170   26.0910   46.0870 C   0  0  0  0  0  0  0  0  0  0  0  0
   54.7780   26.7140   46.0080 O   0  0  0  0  0  0  0  0  0  0  0  0
   56.0500   24.7100   46.3170 C   0  0  0  0  0  0  0  0  0  0  0  0
   57.6597   20.6813   46.0841 H   0  0  0  0  0  0  0  0  0  0  0  0
   56.6004   21.6487   45.0030 H   0  0  0  0  0  0  0  0  0  0  0  0
   58.3754   21.9246   45.0030 H   0  0  0  0  0  0  0  0  0  0  0  0
   59.4284   24.2271   46.3732 H   0  0  0  0  0  0  0  0  0  0  0  0
   59.3897   26.6770   45.9646 H   0  0  0  0  0  0  0  0  0  0  0  0
   57.1680   33.0503   47.2397 H   0  0  0  0  0  0  0  0  0  0  0  0
   58.5941   32.0025   47.5912 H   0  0  0  0  0  0  0  0  0  0  0  0
   59.0574   34.4965   47.7088 H   0  0  0  0  0  0  0  0  0  0  0  0
   60.1013   33.5776   46.5567 H   0  0  0  0  0  0  0  0  0  0  0  0
   58.6156   34.8025   43.6556 H   0  0  0  0  0  0  0  0  0  0  0  0
   59.8692   33.7420   44.4109 H   0  0  0  0  0  0  0  0  0  0  0  0
   56.8521   33.2649   44.2864 H   0  0  0  0  0  0  0  0  0  0  0  0
   58.1610   32.3061   43.4983 H   0  0  0  0  0  0  0  0  0  0  0  0
   55.1073   24.1520   46.4172 H   0  0  0  0  0  0  0  0  0  0  0  0
  1  2  1  0
  2  3  1  0
  3  4  2  0
  4  5  1  0
  5  6  2  0
  6  7  1  0
  7  8  2  0
  8  9  1  0
  9 10  2  0
 10 11  1  0
 11 12  1  0
 12 13  1  0
 13 14  1  0
 14 15  1  0
 15 16  1  0
 10 17  1  0
  6 18  1  0
 18 19  1  0
 18 20  2  0
 20  3  1  0
 17  7  1  0
 16 11  1  0
  1 21  1  0
  1 22  1  0
  1 23  1  0
  4 24  1  0
  5 25  1  0
 12 26  1  0
 12 27  1  0
 13 28  1  0
 13 29  1  0
 15 30  1  0
 15 31  1  0
 16 32  1  0
 16 33  1  0
 20 34  1  0
M  CHG  1  19  -1
M  END
>  <UniqueID>  (27) 
25

>  <SMILES>  (27) 
COc1ccc(-c2nnc(N3CCOCC3)s2)c([O-])c1

>  <Energy>  (27) 
74.12418126282661

>  <Genealogy>  (27) 
COc1ccc(-c2nnc(N3CCOCC3)s2)c([O-])c1 (protonated)
COc1ccc(-c2nnc(N3CCOCC3)s2)c([O-])c1 (3D coordinates assigned)
COc1ccc(-c2nnc(N3CCOCC3)s2)c([O-])c1 (nonaromatic ring conformer: 74.12418126282661 kcal/mol)

>  <smiles>  (27) 
COc1ccc(-c2nnc(N3CCOCC3)s2)c(O)c1

>  <score_type>  (27) 
oracle

>  <origin>  (27) 
adg

>  <m_score__min__energy>  (27) 
-11.43

>  <m_primary>  (27) 
energy

$$$$
27:0
     RDKit          3D

 56 59  0  0  0  0  0  0  0  0999 V2000
   58.7570   33.2780   50.8580 H   0  0  0  0  0  0  0  0  0  0  0  0
   58.2930   32.4080   50.5010 N   0  0  0  0  0  0  0  0  0  0  0  0
   58.5060   31.9630   49.1640 C   0  0  0  0  0  0  0  0  0  0  0  0
   58.5500   30.7210   48.9400 O   0  0  0  0  0  0  0  0  0  0  0  0
   58.6880   32.9290   48.0450 C   0  0  0  0  0  0  0  0  0  0  0  0
   58.1330   32.6220   46.7870 C   0  0  0  0  0  0  0  0  0  0  0  0
   57.5712   31.6847   46.6607 H   0  0  0  0  0  0  0  0  0  0  0  0
   58.2810   33.4830   45.6960 C   0  0  0  0  0  0  0  0  0  0  0  0
   57.6400   33.1300   44.4580 N   0  0  0  0  0  0  0  0  0  0  0  0
   57.2850   31.9480   44.0440 C   0  0  0  0  0  0  0  0  0  0  0  0
   57.0700   31.7540   42.7180 N   0  0  0  0  0  0  0  0  0  0  0  0
   56.6510   30.5460   42.2610 C   0  0  0  0  0  0  0  0  0  0  0  0
   56.4883   30.3919   41.1841 H   0  0  0  0  0  0  0  0  0  0  0  0
   56.4330   29.5290   43.1320 N   0  0  0  0  0  0  0  0  0  0  0  0
   56.6500   29.7080   44.4600 C   0  0  0  0  0  0  0  0  0  0  0  0
   56.4110   28.7260   45.2790 N   0  0  0  0  0  0  0  0  0  0  0  0
   57.4060   27.9850   45.9960 C   0  0  0  0  0  0  0  0  0  0  0  0
   58.4140   28.6710   46.6820 C   0  0  0  0  0  0  0  0  0  0  0  0
   58.4504   29.7699   46.6486 H   0  0  0  0  0  0  0  0  0  0  0  0
   59.3740   27.9640   47.4090 C   0  0  0  0  0  0  0  0  0  0  0  0
   60.1803   28.5064   47.9245 H   0  0  0  0  0  0  0  0  0  0  0  0
   59.3140   26.5700   47.4840 C   0  0  0  0  0  0  0  0  0  0  0  0
   60.0825   26.0179   48.0449 H   0  0  0  0  0  0  0  0  0  0  0  0
   58.2730   25.8690   46.8440 C   0  0  0  0  0  0  0  0  0  0  0  0
   58.1800   24.4330   46.8980 N   0  0  0  0  0  0  0  0  0  0  0  0
   58.9800   23.8890   46.5080 H   0  0  0  0  0  0  0  0  0  0  0  0
   57.0050   23.7070   47.3050 C   0  0  0  0  0  0  0  0  0  0  0  0
   55.9080   24.3070   47.4760 O   0  0  0  0  0  0  0  0  0  0  0  0
   57.0460   22.2880   47.4980 N   0  0  0  0  0  0  0  0  0  0  0  0
   57.2430   21.3270   46.4250 C   0  0  0  0  0  0  0  0  0  0  0  0
   57.4464   20.3348   46.8542 H   0  0  0  0  0  0  0  0  0  0  0  0
   56.3360   21.2792   45.8045 H   0  0  0  0  0  0  0  0  0  0  0  0
   58.0957   21.6399   45.8045 H   0  0  0  0  0  0  0  0  0  0  0  0
   57.3300   26.5860   46.0960 C   0  0  0  0  0  0  0  0  0  0  0  0
   56.5209   26.0472   45.5812 H   0  0  0  0  0  0  0  0  0  0  0  0
   57.0690   30.9240   44.9140 N   0  0  0  0  0  0  0  0  0  0  0  0
   58.9600   34.6950   45.8700 C   0  0  0  0  0  0  0  0  0  0  0  0
   59.0458   35.3996   45.0297 H   0  0  0  0  0  0  0  0  0  0  0  0
   59.5290   35.0140   47.1050 C   0  0  0  0  0  0  0  0  0  0  0  0
   60.0859   35.9556   47.2200 H   0  0  0  0  0  0  0  0  0  0  0  0
   59.3980   34.1440   48.2050 C   0  0  0  0  0  0  0  0  0  0  0  0
   59.9390   34.4700   49.4610 O   0  0  0  0  0  0  0  0  0  0  0  0
   61.0580   33.8300   50.0780 C   0  0  0  0  0  0  0  0  0  0  0  0
   61.6239   34.5740   50.6579 H   0  0  0  0  0  0  0  0  0  0  0  0
   60.6870   33.0310   50.7368 H   0  0  0  0  0  0  0  0  0  0  0  0
   61.9650   33.2180   49.0420 C   0  0  0  0  0  0  0  0  0  0  0  0
   62.9230   34.0130   48.3860 C   0  0  0  0  0  0  0  0  0  0  0  0
   63.0233   35.0769   48.6468 H   0  0  0  0  0  0  0  0  0  0  0  0
   63.7480   33.4560   47.4040 C   0  0  0  0  0  0  0  0  0  0  0  0
   64.5046   34.0786   46.9040 H   0  0  0  0  0  0  0  0  0  0  0  0
   63.6120   32.1080   47.0570 C   0  0  0  0  0  0  0  0  0  0  0  0
   64.2658   31.6689   46.2890 H   0  0  0  0  0  0  0  0  0  0  0  0
   62.6440   31.3180   47.6870 C   0  0  0  0  0  0  0  0  0  0  0  0
   62.5294   30.2611   47.4044 H   0  0  0  0  0  0  0  0  0  0  0  0
   61.8220   31.8690   48.6750 C   0  0  0  0  0  0  0  0  0  0  0  0
   61.0612   31.2447   49.1664 H   0  0  0  0  0  0  0  0  0  0  0  0
  1  2  1  0
  2  3  1  0
  3  4  2  0
  3  5  1  0
  5  6  2  0
  6  7  1  0
  6  8  1  0
  8  9  1  0
  9 10  2  0
 10 11  1  0
 11 12  1  0
 12 13  1  0
 12 14  2  0
 14 15  1  0
 15 16  2  0
 16 17  1  0
 17 18  2  0
 18 19  1  0
 18 20  1  0
 20 21  1  0
 20 22  2  0
 22 23  1  0
 22 24  1  0
 24 25  1  0
 25 26  1  0
 25 27  1  0
 27 28  2  0
 27 29  1  0
 29 30  1  0
 30 31  1  0
 30 32  1  0
 30 33  1  0
 24 34  2  0
 34 35  1  0
 15 36  1  0
  8 37  2  0
 37 38  1  0
 37 39  1  0
 39 40  1  0
 39 41  2  0
 41 42  1  0
 42 43  1  0
 43 44  1  0
 43 45  1  0
 43 46  1  0
 46 47  2  0
 47 48  1  0
 47 49  1  0
 49 50  1  0
 49 51  2  0
 51 52  1  0
 51 53  1  0
 53 54  1  0
 53 55  2  0
 55 56  1  0
 41  5  1  0
 55 46  1  0
 36 10  1  0
 34 17  1  0
M  CHG  4   2  -1  11  -1  29  -1  36  -1
M  END
>  <UniqueID>  (28) 
26

>  <SMILES>  (28) 
C[N-]C(=O)Nc1cccc(/N=c2/nc[n-]/c(=N/c3ccc(OCc4ccccc4)c(C([NH-])=O)c3)[n-]2)c1

>  <Energy>  (28) 
72.41291976782621

>  <Genealogy>  (28) 
C[N-]C(=O)Nc1cccc(N=c2nc[n-]c(=Nc3ccc(OCc4ccccc4)c(C([NH-])=O)c3)[n-]2)c1 (protonated)
C[N-]C(=O)Nc1cccc(/N=c2/nc[n-]/c(=N/c3ccc(OCc4ccccc4)c(C([NH-])=O)c3)[n-]2)c1 (cis-trans isomerization)
C[N-]C(=O)Nc1cccc(/N=c2/nc[n-]/c(=N/c3ccc(OCc4ccccc4)c(C([NH-])=O)c3)[n-]2)c1 (3D coordinates assigned)
C[N-]C(=O)Nc1cccc(/N=c2/nc[n-]/c(=N/c3ccc(OCc4ccccc4)c(C([NH-])=O)c3)[n-]2)c1 (optimized conformer: 72.41291976782621 kcal/mol)

>  <smiles>  (28) 
CNC(=O)Nc1cccc(N=c2nc[nH]c(=Nc3ccc(OCc4ccccc4)c(C(N)=O)c3)[nH]2)c1

>  <score_type>  (28) 
oracle

>  <origin>  (28) 
adg

>  <m_score__min__energy>  (28) 
-16.93

>  <m_primary>  (28) 
energy

$$$$
28:0
     RDKit          3D

 37 39  0  0  0  0  0  0  0  0999 V2000
   55.9720   29.7310   43.5070 C   0  0  0  0  0  0  0  0  0  0  0  0
   56.3070   29.7800   44.8900 O   0  0  0  0  0  0  0  0  0  0  0  0
   57.5440   30.2140   45.3930 C   0  0  0  0  0  0  0  0  0  0  0  0
   58.5550   29.3090   45.7720 C   0  0  0  0  0  0  0  0  0  0  0  0
   59.7730   29.7780   46.2670 C   0  0  0  0  0  0  0  0  0  0  0  0
   60.0040   31.1490   46.3950 C   0  0  0  0  0  0  0  0  0  0  0  0
   59.0100   32.0700   46.0250 C   0  0  0  0  0  0  0  0  0  0  0  0
   59.2160   33.4590   46.1380 C   0  0  0  0  0  0  0  0  0  0  0  0
   60.4430   33.9320   46.6380 O   0  0  0  0  0  0  0  0  0  0  0  0
   60.7580   34.1290   48.0160 C   0  0  0  0  0  0  0  0  0  0  0  0
   61.9760   33.3410   48.3990 C   0  0  0  0  0  0  0  0  0  0  0  0
   62.0890   32.6670   49.5620 N   0  0  0  0  0  0  0  0  0  0  0  0
   63.3300   32.1410   49.4620 C   0  0  0  0  0  0  0  0  0  0  0  0
   63.9760   31.3470   50.5470 C   0  0  0  0  0  0  0  0  0  0  0  0
   63.9560   32.4830   48.3190 N   0  0  0  0  0  0  0  0  0  0  0  0
   63.0880   33.2180   47.6480 N   0  0  0  0  0  0  0  0  0  0  0  0
   63.3750   33.8550   46.3670 C   0  0  0  0  0  0  0  0  0  0  0  0
   58.1850   34.3340   45.7480 C   0  0  0  0  0  0  0  0  0  0  0  0
   56.9860   33.8180   45.2560 C   0  0  0  0  0  0  0  0  0  0  0  0
   56.8080   32.4770   45.1540 N   0  0  0  0  0  0  0  0  0  0  0  0
   57.7760   31.5930   45.5200 C   0  0  0  0  0  0  0  0  0  0  0  0
   54.8890   29.5726   43.3975 H   0  0  0  0  0  0  0  0  0  0  0  0
   56.2541   30.6800   43.0275 H   0  0  0  0  0  0  0  0  0  0  0  0
   56.5141   28.9026   43.0275 H   0  0  0  0  0  0  0  0  0  0  0  0
   58.3836   28.2266   45.6773 H   0  0  0  0  0  0  0  0  0  0  0  0
   60.5562   29.0626   46.5582 H   0  0  0  0  0  0  0  0  0  0  0  0
   60.9669   31.5089   46.7866 H   0  0  0  0  0  0  0  0  0  0  0  0
   60.9486   35.1977   48.1937 H   0  0  0  0  0  0  0  0  0  0  0  0
   59.9088   33.7865   48.6256 H   0  0  0  0  0  0  0  0  0  0  0  0
   63.6587   31.7370   51.5254 H   0  0  0  0  0  0  0  0  0  0  0  0
   63.6762   30.2924   50.4579 H   0  0  0  0  0  0  0  0  0  0  0  0
   65.0695   31.4261   50.4579 H   0  0  0  0  0  0  0  0  0  0  0  0
   63.8211   34.8452   46.5417 H   0  0  0  0  0  0  0  0  0  0  0  0
   64.0790   33.2311   45.7968 H   0  0  0  0  0  0  0  0  0  0  0  0
   62.4412   33.9690   45.7968 H   0  0  0  0  0  0  0  0  0  0  0  0
   58.3243   35.4220   45.8309 H   0  0  0  0  0  0  0  0  0  0  0  0
   56.1809   34.5018   44.9492 H   0  0  0  0  0  0  0  0  0  0  0  0
  1  2  1  0
  2  3  1  0
  3  4  2  0
  4  5  1  0
  5  6  2  0
  6  7  1  0
  7  8  2  0
  8  9  1  0
  9 10  1  0
 10 11  1  0
 11 12  2  0
 12 13  1  0
 13 14  1  0
 13 15  2  0
 15 16  1  0
 16 17  1  0
  8 18  1  0
 18 19  2  0
 19 20  1  0
 20 21  2  0
 21  3  1  0
 21  7  1  0
 16 11  1  0
  1 22  1  0
  1 23  1  0
  1 24  1  0
  4 25  1  0
  5 26  1  0
  6 27  1  0
 10 28  1  0
 10 29  1  0
 14 30  1  0
 14 31  1  0
 14 32  1  0
 17 33  1  0
 17 34  1  0
 17 35  1  0
 18 36  1  0
 19 37  1  0
M  END
>  <UniqueID>  (29) 
27

>  <SMILES>  (29) 
COc1cccc2c(OCc3nc(C)nn3C)ccnc12

>  <Energy>  (29) 
72.01826286073987

>  <Genealogy>  (29) 
COc1cccc2c(OCc3nc(C)nn3C)ccnc12 (3D coordinates assigned)
COc1cccc2c(OCc3nc(C)nn3C)ccnc12 (optimized conformer: 72.01826286073987 kcal/mol)

>  <smiles>  (29) 
COc1cccc2c(OCc3nc(C)nn3C)ccnc12

>  <score_type>  (29) 
oracle

>  <origin>  (29) 
adg

>  <m_score__min__energy>  (29) 
-6.5899999999999999

>  <m_primary>  (29) 
energy

$$$$
29:0
     RDKit          3D

 48 51  0  0  0  0  0  0  0  0999 V2000
   53.8040   24.3490   45.2950 C   0  0  0  0  0  0  0  0  0  0  0  0
   54.5550   25.5130   45.6260 O   0  0  0  0  0  0  0  0  0  0  0  0
   55.9010   25.5040   46.0230 C   0  0  0  0  0  0  0  0  0  0  0  0
   56.5500   24.3280   46.4490 C   0  0  0  0  0  0  0  0  0  0  0  0
   57.8930   24.3610   46.8350 C   0  0  0  0  0  0  0  0  0  0  0  0
   58.6050   25.5620   46.8050 C   0  0  0  0  0  0  0  0  0  0  0  0
   57.9720   26.7390   46.3850 C   0  0  0  0  0  0  0  0  0  0  0  0
   58.6540   27.9570   46.3460 C   0  0  0  0  0  0  0  0  0  0  0  0
   57.9880   29.1200   45.9320 C   0  0  0  0  0  0  0  0  0  0  0  0
   58.7210   30.4110   45.8950 C   0  0  0  0  0  0  0  0  0  0  0  0
   59.8870   30.4470   45.4130 O   0  0  0  0  0  0  0  0  0  0  0  0
   58.1450   31.6080   46.4420 N   0  0  0  0  0  0  0  0  0  0  0  0
   58.6910   32.9130   46.2000 C   0  0  0  0  0  0  0  0  0  0  0  0
   58.2090   33.6580   45.1130 C   0  0  0  0  0  0  0  0  0  0  0  0
   58.6920   34.9440   44.8630 C   0  0  0  0  0  0  0  0  0  0  0  0
   59.6710   35.4950   45.6900 C   0  0  0  0  0  0  0  0  0  0  0  0
   60.1810   34.7560   46.7590 C   0  0  0  0  0  0  0  0  0  0  0  0
   59.7080   33.4600   47.0220 C   0  0  0  0  0  0  0  0  0  0  0  0
   60.3180   32.6840   48.0700 N   0  0  0  0  0  0  0  0  0  0  0  0
   59.5940   32.3930   49.3070 C   0  0  0  0  0  0  0  0  0  0  0  0
   59.5610   30.8750   49.5150 C   0  0  0  0  0  0  0  0  0  0  0  0
   60.8690   30.3310   49.4650 O   0  0  0  0  0  0  0  0  0  0  0  0
   61.4260   30.5160   48.1740 C   0  0  0  0  0  0  0  0  0  0  0  0
   61.6000   32.0060   47.8670 C   0  0  0  0  0  0  0  0  0  0  0  0
   56.6360   29.0030   45.5390 C   0  0  0  0  0  0  0  0  0  0  0  0
   55.9970   30.0020   45.1130 O   0  0  0  0  0  0  0  0  0  0  0  0
   56.0190   27.8260   45.5900 O   0  0  0  0  0  0  0  0  0  0  0  0
   56.6180   26.7090   45.9930 C   0  0  0  0  0  0  0  0  0  0  0  0
   53.4800   23.8468   46.2185 H   0  0  0  0  0  0  0  0  0  0  0  0
   52.9213   24.6375   44.7054 H   0  0  0  0  0  0  0  0  0  0  0  0
   54.4307   23.6637   44.7054 H   0  0  0  0  0  0  0  0  0  0  0  0
   55.9962   23.3780   46.4780 H   0  0  0  0  0  0  0  0  0  0  0  0
   58.3912   23.4370   47.1638 H   0  0  0  0  0  0  0  0  0  0  0  0
   59.6614   25.5838   47.1108 H   0  0  0  0  0  0  0  0  0  0  0  0
   59.7130   28.0044   46.6398 H   0  0  0  0  0  0  0  0  0  0  0  0
   57.4470   31.5080   47.2130 H   0  0  0  0  0  0  0  0  0  0  0  0
   57.4438   33.2250   44.4519 H   0  0  0  0  0  0  0  0  0  0  0  0
   58.3004   35.5229   44.0136 H   0  0  0  0  0  0  0  0  0  0  0  0
   60.0416   36.5130   45.4996 H   0  0  0  0  0  0  0  0  0  0  0  0
   60.9602   35.1926   47.4010 H   0  0  0  0  0  0  0  0  0  0  0  0
   60.1050   32.8713   50.1556 H   0  0  0  0  0  0  0  0  0  0  0  0
   58.5678   32.7833   49.2398 H   0  0  0  0  0  0  0  0  0  0  0  0
   59.1164   30.6552   50.4969 H   0  0  0  0  0  0  0  0  0  0  0  0
   58.9602   30.4224   48.7124 H   0  0  0  0  0  0  0  0  0  0  0  0
   62.4076   30.0214   48.1302 H   0  0  0  0  0  0  0  0  0  0  0  0
   60.7444   30.0791   47.4293 H   0  0  0  0  0  0  0  0  0  0  0  0
   62.3561   32.4361   48.5403 H   0  0  0  0  0  0  0  0  0  0  0  0
   61.9303   32.1364   46.8259 H   0  0  0  0  0  0  0  0  0  0  0  0
  1  2  1  0
  2  3  1  0
  3  4  2  0
  4  5  1  0
  5  6  2  0
  6  7  1  0
  7  8  1  0
  8  9  2  0
  9 10  1  0
 10 11  2  0
 10 12  1  0
 12 13  1  0
 13 14  2  0
 14 15  1  0
 15 16  2  0
 16 17  1  0
 17 18  2  0
 18 19  1  0
 19 20  1  0
 20 21  1  0
 21 22  1  0
 22 23  1  0
 23 24  1  0
  9 25  1  0
 25 26  2  0
 25 27  1  0
 27 28  1  0
 28  3  1  0
 28  7  2  0
 18 13  1  0
 24 19  1  0
  1 29  1  0
  1 30  1  0
  1 31  1  0
  4 32  1  0
  5 33  1  0
  6 34  1  0
  8 35  1  0
 12 36  1  0
 14 37  1  0
 15 38  1  0
 16 39  1  0
 17 40  1  0
 20 41  1  0
 20 42  1  0
 21 43  1  0
 21 44  1  0
 23 45  1  0
 23 46  1  0
 24 47  1  0
 24 48  1  0
M  END
>  <UniqueID>  (30) 
28

>  <SMILES>  (30) 
COc1cccc2cc(C(=O)Nc3ccccc3N3CCOCC3)c(=O)oc12

>  <Energy>  (30) 
69.68091218141328

>  <Genealogy>  (30) 
COc1cccc2cc(C(=O)Nc3ccccc3N3CCOCC3)c(=O)oc12 (3D coordinates assigned)
COc1cccc2cc(C(=O)Nc3ccccc3N3CCOCC3)c(=O)oc12 (nonaromatic ring conformer: 69.68091218141328 kcal/mol)

>  <smiles>  (30) 
COc1cccc2cc(C(=O)Nc3ccccc3N3CCOCC3)c(=O)oc12

>  <score_type>  (30) 
oracle

>  <origin>  (30) 
adg

>  <m_score__min__energy>  (30) 
-8.9399999999999995

>  <m_primary>  (30) 
energy

$$$$
30:0
     RDKit          3D

 46 48  0  0  0  0  0  0  0  0999 V2000
   57.0140   20.7050   42.8860 C   0  0  0  0  0  0  0  0  0  0  0  0
   55.9310   21.6060   43.0940 O   0  0  0  0  0  0  0  0  0  0  0  0
   56.0090   22.7720   43.8690 C   0  0  0  0  0  0  0  0  0  0  0  0
   54.8830   23.3340   44.5030 C   0  0  0  0  0  0  0  0  0  0  0  0
   55.0140   24.4980   45.2670 C   0  0  0  0  0  0  0  0  0  0  0  0
   56.2630   25.1200   45.4060 C   0  0  0  0  0  0  0  0  0  0  0  0
   56.3980   26.3570   46.2500 C   0  0  0  0  0  0  0  0  0  0  0  0
   55.7010   27.4750   45.6250 N   0  0  0  0  0  0  0  0  0  0  0  0
   56.3370   28.7030   45.2530 C   0  0  0  0  0  0  0  0  0  0  0  0
   55.6280   29.6770   44.8770 O   0  0  0  0  0  0  0  0  0  0  0  0
   57.8190   28.8450   45.3100 C   0  0  0  0  0  0  0  0  0  0  0  0
   58.3900   29.7190   46.2570 C   0  0  0  0  0  0  0  0  0  0  0  0
   59.7800   29.8870   46.3420 C   0  0  0  0  0  0  0  0  0  0  0  0
   60.3720   30.7950   47.3860 C   0  0  0  0  0  0  0  0  0  0  0  0
   59.9870   32.2230   47.1100 C   0  0  0  0  0  0  0  0  0  0  0  0
   60.9590   33.1550   46.7110 C   0  0  0  0  0  0  0  0  0  0  0  0
   60.5940   34.4730   46.4190 C   0  0  0  0  0  0  0  0  0  0  0  0
   59.2560   34.8670   46.5140 C   0  0  0  0  0  0  0  0  0  0  0  0
   58.2820   33.9420   46.9000 C   0  0  0  0  0  0  0  0  0  0  0  0
   58.6420   32.6240   47.1930 C   0  0  0  0  0  0  0  0  0  0  0  0
   60.6140   29.1600   45.4850 C   0  0  0  0  0  0  0  0  0  0  0  0
   60.0670   28.2930   44.5420 C   0  0  0  0  0  0  0  0  0  0  0  0
   58.6780   28.1280   44.4430 C   0  0  0  0  0  0  0  0  0  0  0  0
   58.1650   27.2510   43.4870 O   0  0  0  0  0  0  0  0  0  0  0  0
   57.3860   24.5560   44.7790 C   0  0  0  0  0  0  0  0  0  0  0  0
   57.2550   23.3920   44.0150 C   0  0  0  0  0  0  0  0  0  0  0  0
   57.4093   20.3761   43.8584 H   0  0  0  0  0  0  0  0  0  0  0  0
   56.6602   19.8310   42.3195 H   0  0  0  0  0  0  0  0  0  0  0  0
   57.8090   21.2119   42.3195 H   0  0  0  0  0  0  0  0  0  0  0  0
   53.8981   22.8558   44.3967 H   0  0  0  0  0  0  0  0  0  0  0  0
   54.1312   24.9286   45.7623 H   0  0  0  0  0  0  0  0  0  0  0  0
   55.9637   26.1680   47.2428 H   0  0  0  0  0  0  0  0  0  0  0  0
   57.4643   26.6093   46.3468 H   0  0  0  0  0  0  0  0  0  0  0  0
   57.7347   30.2786   46.9407 H   0  0  0  0  0  0  0  0  0  0  0  0
   59.9963   30.5024   48.3776 H   0  0  0  0  0  0  0  0  0  0  0  0
   61.4681   30.7068   47.3592 H   0  0  0  0  0  0  0  0  0  0  0  0
   62.0117   32.8469   46.6278 H   0  0  0  0  0  0  0  0  0  0  0  0
   61.3606   35.2006   46.1142 H   0  0  0  0  0  0  0  0  0  0  0  0
   58.9701   35.9042   46.2851 H   0  0  0  0  0  0  0  0  0  0  0  0
   57.2292   34.2523   46.9734 H   0  0  0  0  0  0  0  0  0  0  0  0
   57.8707   31.8979   47.4895 H   0  0  0  0  0  0  0  0  0  0  0  0
   61.7058   29.2737   45.5564 H   0  0  0  0  0  0  0  0  0  0  0  0
   60.7313   27.7321   43.8682 H   0  0  0  0  0  0  0  0  0  0  0  0
   57.1800   27.0150   43.4530 H   0  0  0  0  0  0  0  0  0  0  0  0
   58.3718   25.0314   44.8892 H   0  0  0  0  0  0  0  0  0  0  0  0
   58.1396   22.9598   43.5243 H   0  0  0  0  0  0  0  0  0  0  0  0
  1  2  1  0
  2  3  1  0
  3  4  2  0
  4  5  1  0
  5  6  2  0
  6  7  1  0
  7  8  1  0
  8  9  1  0
  9 10  2  0
  9 11  1  0
 11 12  2  0
 12 13  1  0
 13 14  1  0
 14 15  1  0
 15 16  2  0
 16 17  1  0
 17 18  2  0
 18 19  1  0
 19 20  2  0
 13 21  2  0
 21 22  1  0
 22 23  2  0
 23 24  1  0
  6 25  1  0
 25 26  2  0
 26  3  1  0
 23 11  1  0
 20 15  1  0
  1 27  1  0
  1 28  1  0
  1 29  1  0
  4 30  1  0
  5 31  1  0
  7 32  1  0
  7 33  1  0
 12 34  1  0
 14 35  1  0
 14 36  1  0
 16 37  1  0
 17 38  1  0
 18 39  1  0
 19 40  1  0
 20 41  1  0
 21 42  1  0
 22 43  1  0
 24 44  1  0
 25 45  1  0
 26 46  1  0
M  CHG  1   8  -1
M  END
>  <UniqueID>  (31) 
29

>  <SMILES>  (31) 
COc1ccc(C[N-]C(=O)c2cc(Cc3ccccc3)ccc2O)cc1

>  <Energy>  (31) 
46.3975436953854

>  <Genealogy>  (31) 
COc1ccc(C[N-]C(=O)c2cc(Cc3ccccc3)ccc2O)cc1 (protonated)
COc1ccc(C[N-]C(=O)c2cc(Cc3ccccc3)ccc2O)cc1 (3D coordinates assigned)
COc1ccc(C[N-]C(=O)c2cc(Cc3ccccc3)ccc2O)cc1 (optimized conformer: 46.3975436953854 kcal/mol)

>  <smiles>  (31) 
COc1ccc(CNC(=O)c2cc(Cc3ccccc3)ccc2O)cc1

>  <score_type>  (31) 
oracle

>  <origin>  (31) 
adg

>  <m_score__min__energy>  (31) 
-10.57

>  <m_primary>  (31) 
energy

$$$$
31:0
     RDKit          3D

 32 34  0  0  0  0  0  0  0  0999 V2000
   60.0656   35.4945   47.1409 H   0  0  0  0  0  0  0  0  0  0  0  0
   59.4270   34.7540   46.6370 C   0  0  0  0  0  0  0  0  0  0  0  0
   58.7450   33.7950   47.3880 C   0  0  0  0  0  0  0  0  0  0  0  0
   58.8546   33.7749   48.4823 H   0  0  0  0  0  0  0  0  0  0  0  0
   57.9220   32.8590   46.7510 C   0  0  0  0  0  0  0  0  0  0  0  0
   57.3976   32.0954   47.3443 H   0  0  0  0  0  0  0  0  0  0  0  0
   57.7640   32.8930   45.3510 C   0  0  0  0  0  0  0  0  0  0  0  0
   56.9560   31.9330   44.6490 N   0  0  0  0  0  0  0  0  0  0  0  0
   56.9400   30.6460   44.8360 C   0  0  0  0  0  0  0  0  0  0  0  0
   55.8210   29.8910   44.8750 N   0  0  0  0  0  0  0  0  0  0  0  0
   56.0740   28.5930   45.0350 N   0  0  0  0  0  0  0  0  0  0  0  0
   57.3950   28.3030   45.1170 C   0  0  0  0  0  0  0  0  0  0  0  0
   57.9210   26.9290   45.2930 C   0  0  0  0  0  0  0  0  0  0  0  0
   57.1580   25.8090   44.9180 C   0  0  0  0  0  0  0  0  0  0  0  0
   56.1551   25.9509   44.4891 H   0  0  0  0  0  0  0  0  0  0  0  0
   57.6640   24.5160   45.0860 C   0  0  0  0  0  0  0  0  0  0  0  0
   57.0578   23.6480   44.7876 H   0  0  0  0  0  0  0  0  0  0  0  0
   58.9450   24.3200   45.6350 C   0  0  0  0  0  0  0  0  0  0  0  0
   59.4960   23.0450   45.8240 O   0  0  0  0  0  0  0  0  0  0  0  0
   59.6610   22.0790   44.7910 C   0  0  0  0  0  0  0  0  0  0  0  0
   59.8302   21.0886   45.2388 H   0  0  0  0  0  0  0  0  0  0  0  0
   58.7548   22.0498   44.1681 H   0  0  0  0  0  0  0  0  0  0  0  0
   60.5255   22.3523   44.1681 H   0  0  0  0  0  0  0  0  0  0  0  0
   59.7040   25.4350   46.0070 C   0  0  0  0  0  0  0  0  0  0  0  0
   60.7070   25.2929   46.4358 H   0  0  0  0  0  0  0  0  0  0  0  0
   59.2000   26.7270   45.8390 C   0  0  0  0  0  0  0  0  0  0  0  0
   59.8092   27.5932   46.1365 H   0  0  0  0  0  0  0  0  0  0  0  0
   58.3260   29.7090   44.9830 S   0  0  0  0  0  0  0  0  0  0  0  0
   58.4780   33.8410   44.6050 C   0  0  0  0  0  0  0  0  0  0  0  0
   58.3919   33.8510   43.5084 H   0  0  0  0  0  0  0  0  0  0  0  0
   59.2990   34.7740   45.2460 C   0  0  0  0  0  0  0  0  0  0  0  0
   59.8444   35.5242   44.6546 H   0  0  0  0  0  0  0  0  0  0  0  0
  1  2  1  0
  2  3  2  0
  3  4  1  0
  3  5  1  0
  5  6  1  0
  5  7  2  0
  7  8  1  0
  8  9  2  0
  9 10  1  0
 10 11  1  0
 11 12  2  0
 12 13  1  0
 13 14  2  0
 14 15  1  0
 14 16  1  0
 16 17  1  0
 16 18  2  0
 18 19  1  0
 19 20  1  0
 20 21  1  0
 20 22  1  0
 20 23  1  0
 18 24  1  0
 24 25  1  0
 24 26  2  0
 26 27  1  0
 12 28  1  0
  7 29  1  0
 29 30  1  0
 29 31  2  0
 31 32  1  0
 31  2  1  0
 28  9  1  0
 26 13  1  0
M  CHG  1  10  -1
M  END
>  <UniqueID>  (32) 
30

>  <SMILES>  (32) 
COc1ccc(-c2n[n-]/c(=N\c3ccccc3)s2)cc1

>  <Energy>  (32) 
75.26702384639559

>  <Genealogy>  (32) 
COc1ccc(-c2n[n-]c(=Nc3ccccc3)s2)cc1 (protonated)
COc1ccc(-c2n[n-]/c(=N\c3ccccc3)s2)cc1 (cis-trans isomerization)
COc1ccc(-c2n[n-]/c(=N\c3ccccc3)s2)cc1 (3D coordinates assigned)
COc1ccc(-c2n[n-]/c(=N\c3ccccc3)s2)cc1 (optimized conformer: 75.26702384639559 kcal/mol)

>  <smiles>  (32) 
COc1ccc(-c2n[nH]c(=Nc3ccccc3)s2)cc1

>  <score_type>  (32) 
oracle

>  <origin>  (32) 
adg

>  <m_score__min__energy>  (32) 
-9.0099999999999998

>  <m_primary>  (32) 
energy

$$$$
32:0
     RDKit          3D

 46 48  0  0  0  0  0  0  0  0999 V2000
   56.3480   25.8140   45.9840 C   0  0  0  0  0  0  0  0  0  0  0  0
   56.7810   27.1510   46.2150 O   0  0  0  0  0  0  0  0  0  0  0  0
   58.0910   27.6120   46.0040 C   0  0  0  0  0  0  0  0  0  0  0  0
   59.1220   27.3680   46.9340 C   0  0  0  0  0  0  0  0  0  0  0  0
   60.4120   27.8480   46.7010 C   0  0  0  0  0  0  0  0  0  0  0  0
   60.6920   28.5660   45.5410 C   0  0  0  0  0  0  0  0  0  0  0  0
   59.6830   28.8110   44.6080 C   0  0  0  0  0  0  0  0  0  0  0  0
   58.3730   28.3480   44.8320 C   0  0  0  0  0  0  0  0  0  0  0  0
   57.3230   28.6070   43.8810 N   0  0  0  0  0  0  0  0  0  0  0  0
   56.5210   30.1410   43.7460 S   0  0  0  0  0  0  0  0  0  0  0  0
   55.1490   30.0430   44.3510 O   0  0  0  0  0  0  0  0  0  0  0  0
   56.3910   30.5010   42.2920 O   0  0  0  0  0  0  0  0  0  0  0  0
   57.4360   31.3690   44.6160 C   0  0  0  0  0  0  0  0  0  0  0  0
   57.8630   32.5360   43.9670 C   0  0  0  0  0  0  0  0  0  0  0  0
   58.6290   33.4820   44.6540 C   0  0  0  0  0  0  0  0  0  0  0  0
   58.9740   33.2670   45.9960 C   0  0  0  0  0  0  0  0  0  0  0  0
   59.9710   34.4310   46.8650 S   0  0  0  0  0  0  0  0  0  0  0  0
   59.4140   34.5930   48.2510 O   0  0  0  0  0  0  0  0  0  0  0  0
   59.9390   35.7600   46.1620 O   0  0  0  0  0  0  0  0  0  0  0  0
   61.6180   33.8430   46.9540 N   0  0  0  0  0  0  0  0  0  0  0  0
   62.1810   34.0850   48.2870 C   0  0  0  0  0  0  0  0  0  0  0  0
   61.9630   32.8370   49.1290 C   0  0  0  0  0  0  0  0  0  0  0  0
   61.6130   31.7370   48.1450 C   0  0  0  0  0  0  0  0  0  0  0  0
   61.6550   32.3890   46.7710 C   0  0  0  0  0  0  0  0  0  0  0  0
   58.5330   32.1080   46.6480 C   0  0  0  0  0  0  0  0  0  0  0  0
   57.7670   31.1640   45.9610 C   0  0  0  0  0  0  0  0  0  0  0  0
   56.1847   25.3098   46.9479 H   0  0  0  0  0  0  0  0  0  0  0  0
   55.4080   25.8265   45.4129 H   0  0  0  0  0  0  0  0  0  0  0  0
   57.1169   25.2731   45.4129 H   0  0  0  0  0  0  0  0  0  0  0  0
   58.9087   26.7958   47.8489 H   0  0  0  0  0  0  0  0  0  0  0  0
   61.2090   27.6587   47.4352 H   0  0  0  0  0  0  0  0  0  0  0  0
   61.7102   28.9408   45.3596 H   0  0  0  0  0  0  0  0  0  0  0  0
   59.9138   29.3708   43.6897 H   0  0  0  0  0  0  0  0  0  0  0  0
   56.9200   27.8200   43.3270 H   0  0  0  0  0  0  0  0  0  0  0  0
   57.5945   32.7076   42.9142 H   0  0  0  0  0  0  0  0  0  0  0  0
   58.9617   34.3965   44.1411 H   0  0  0  0  0  0  0  0  0  0  0  0
   63.2576   34.2948   48.2040 H   0  0  0  0  0  0  0  0  0  0  0  0
   61.6893   34.9502   48.7557 H   0  0  0  0  0  0  0  0  0  0  0  0
   62.8795   32.5812   49.6808 H   0  0  0  0  0  0  0  0  0  0  0  0
   61.1684   32.9833   49.8754 H   0  0  0  0  0  0  0  0  0  0  0  0
   62.3472   30.9201   48.2050 H   0  0  0  0  0  0  0  0  0  0  0  0
   60.6267   31.2990   48.3578 H   0  0  0  0  0  0  0  0  0  0  0  0
   62.5808   32.1024   46.2507 H   0  0  0  0  0  0  0  0  0  0  0  0
   60.7966   32.0596   46.1671 H   0  0  0  0  0  0  0  0  0  0  0  0
   58.7909   31.9412   47.7042 H   0  0  0  0  0  0  0  0  0  0  0  0
   57.4225   30.2563   46.4781 H   0  0  0  0  0  0  0  0  0  0  0  0
  1  2  1  0
  2  3  1  0
  3  4  2  0
  4  5  1  0
  5  6  2  0
  6  7  1  0
  7  8  2  0
  8  9  1  0
  9 10  1  0
 10 11  2  0
 10 12  2  0
 10 13  1  0
 13 14  2  0
 14 15  1  0
 15 16  2  0
 16 17  1  0
 17 18  2  0
 17 19  2  0
 17 20  1  0
 20 21  1  0
 21 22  1  0
 22 23  1  0
 23 24  1  0
 16 25  1  0
 25 26  2  0
  8  3  1  0
 26 13  1  0
 24 20  1  0
  1 27  1  0
  1 28  1  0
  1 29  1  0
  4 30  1  0
  5 31  1  0
  6 32  1  0
  7 33  1  0
  9 34  1  0
 14 35  1  0
 15 36  1  0
 21 37  1  0
 21 38  1  0
 22 39  1  0
 22 40  1  0
 23 41  1  0
 23 42  1  0
 24 43  1  0
 24 44  1  0
 25 45  1  0
 26 46  1  0
M  END
>  <UniqueID>  (33) 
31

>  <SMILES>  (33) 
COc1ccccc1NS(=O)(=O)c1ccc(S(=O)(=O)N2CCCC2)cc1

>  <Energy>  (33) 
50.57215375566273

>  <Genealogy>  (33) 
COc1ccccc1NS(=O)(=O)c1ccc(S(=O)(=O)N2CCCC2)cc1 (3D coordinates assigned)
COc1ccccc1NS(=O)(=O)c1ccc(S(=O)(=O)N2CCCC2)cc1 (nonaromatic ring conformer: 50.57215375566273 kcal/mol)

>  <smiles>  (33) 
COc1ccccc1NS(=O)(=O)c1ccc(S(=O)(=O)N2CCCC2)cc1

>  <score_type>  (33) 
oracle

>  <origin>  (33) 
adg

>  <m_score__min__energy>  (33) 
-9.7200000000000006

>  <m_primary>  (33) 
energy

$$$$
33:0
     RDKit          3D

 65 68  0  0  0  0  0  0  0  0999 V2000
   58.0090   24.9350   44.4710 C   0  0  0  0  0  0  0  0  0  0  0  0
   58.5210   25.7090   45.6550 C   0  0  0  0  0  0  0  0  0  0  0  0
   59.8450   25.5000   46.0670 C   0  0  0  0  0  0  0  0  0  0  0  0
   60.3840   26.2380   47.1210 C   0  0  0  0  0  0  0  0  0  0  0  0
   59.5900   27.1870   47.7620 C   0  0  0  0  0  0  0  0  0  0  0  0
   58.3020   27.3670   47.3750 N   0  0  0  0  0  0  0  0  0  0  0  0
   57.7330   26.6510   46.3660 C   0  0  0  0  0  0  0  0  0  0  0  0
   56.3170   26.9170   46.0470 C   0  0  0  0  0  0  0  0  0  0  0  0
   55.4540   26.0570   46.3580 O   0  0  0  0  0  0  0  0  0  0  0  0
   55.8970   28.1030   45.3570 N   0  0  0  0  0  0  0  0  0  0  0  0
   56.7080   29.2580   45.1030 C   0  0  0  0  0  0  0  0  0  0  0  0
   57.6740   29.6010   46.0590 C   0  0  0  0  0  0  0  0  0  0  0  0
   58.5770   30.6530   45.8330 C   0  0  0  0  0  0  0  0  0  0  0  0
   59.6080   30.9790   46.8480 C   0  0  0  0  0  0  0  0  0  0  0  0
   60.4450   31.8900   46.6040 O   0  0  0  0  0  0  0  0  0  0  0  0
   59.6910   30.2380   48.0790 N   0  0  0  0  0  0  0  0  0  0  0  0
   60.4800   30.6440   49.2080 C   0  0  0  0  0  0  0  0  0  0  0  0
   60.8440   31.9450   49.4900 C   0  0  0  0  0  0  0  0  0  0  0  0
   61.5900   31.8830   50.6520 C   0  0  0  0  0  0  0  0  0  0  0  0
   62.1270   33.0620   51.3530 C   0  0  0  0  0  0  0  0  0  0  0  0
   63.1900   33.5900   50.9320 O   0  0  0  0  0  0  0  0  0  0  0  0
   61.4980   33.6000   52.5230 N   0  0  0  0  0  0  0  0  0  0  0  0
   60.0620   33.8180   52.6510 C   0  0  0  0  0  0  0  0  0  0  0  0
   59.4040   32.5660   53.2370 C   0  0  0  0  0  0  0  0  0  0  0  0
   58.0250   32.3940   52.7310 N   0  0  0  0  0  0  0  0  0  0  0  0
   58.0210   32.0090   51.2980 C   0  0  0  0  0  0  0  0  0  0  0  0
   57.8530   30.4880   51.1170 C   0  0  0  0  0  0  0  0  0  0  0  0
   56.6550   29.9670   51.6790 O   0  0  0  0  0  0  0  0  0  0  0  0
   56.1460   30.7440   52.7550 C   0  0  0  0  0  0  0  0  0  0  0  0
   57.2460   31.4490   53.5700 C   0  0  0  0  0  0  0  0  0  0  0  0
   61.6810   30.6020   51.0830 N   0  0  0  0  0  0  0  0  0  0  0  0
   62.2920   30.1070   52.3140 C   0  0  0  0  0  0  0  0  0  0  0  0
   61.0160   29.8350   50.1950 C   0  0  0  0  0  0  0  0  0  0  0  0
   58.5050   31.3590   44.6190 C   0  0  0  0  0  0  0  0  0  0  0  0
   57.5090   31.0610   43.6860 C   0  0  0  0  0  0  0  0  0  0  0  0
   56.5800   30.0440   43.9300 C   0  0  0  0  0  0  0  0  0  0  0  0
   55.4920   29.8950   43.0060 N   0  0  0  0  0  0  0  0  0  0  0  0
   54.3940   29.4040   43.3370 O   0  0  0  0  0  0  0  0  0  0  0  0
   57.4339   24.0656   44.8222 H   0  0  0  0  0  0  0  0  0  0  0  0
   57.3603   25.5823   43.8625 H   0  0  0  0  0  0  0  0  0  0  0  0
   58.8585   24.5912   43.8625 H   0  0  0  0  0  0  0  0  0  0  0  0
   60.4635   24.7481   45.5550 H   0  0  0  0  0  0  0  0  0  0  0  0
   61.4230   26.0728   47.4422 H   0  0  0  0  0  0  0  0  0  0  0  0
   60.0074   27.7902   48.5817 H   0  0  0  0  0  0  0  0  0  0  0  0
   57.7258   29.0370   47.0020 H   0  0  0  0  0  0  0  0  0  0  0  0
   59.2490   29.2930   48.1240 H   0  0  0  0  0  0  0  0  0  0  0  0
   60.5925   32.8452   48.9100 H   0  0  0  0  0  0  0  0  0  0  0  0
   59.8794   34.6738   53.3175 H   0  0  0  0  0  0  0  0  0  0  0  0
   59.6338   34.0263   51.6594 H   0  0  0  0  0  0  0  0  0  0  0  0
   60.0001   31.6846   52.9581 H   0  0  0  0  0  0  0  0  0  0  0  0
   59.3601   32.6776   54.3304 H   0  0  0  0  0  0  0  0  0  0  0  0
   57.1891   32.5221   50.7933 H   0  0  0  0  0  0  0  0  0  0  0  0
   58.9874   32.3016   50.8616 H   0  0  0  0  0  0  0  0  0  0  0  0
   57.8548   30.2657   50.0397 H   0  0  0  0  0  0  0  0  0  0  0  0
   58.6883   30.0101   51.6498 H   0  0  0  0  0  0  0  0  0  0  0  0
   55.4708   31.5092   52.3444 H   0  0  0  0  0  0  0  0  0  0  0  0
   55.6256   30.0554   53.4369 H   0  0  0  0  0  0  0  0  0  0  0  0
   56.7779   32.0061   54.3949 H   0  0  0  0  0  0  0  0  0  0  0  0
   57.9343   30.6824   53.9554 H   0  0  0  0  0  0  0  0  0  0  0  0
   61.7663   30.5329   53.1813 H   0  0  0  0  0  0  0  0  0  0  0  0
   62.2195   29.0098   52.3439 H   0  0  0  0  0  0  0  0  0  0  0  0
   63.3503   30.4055   52.3439 H   0  0  0  0  0  0  0  0  0  0  0  0
   60.9156   28.7408   50.2469 H   0  0  0  0  0  0  0  0  0  0  0  0
   59.2374   32.1507   44.4027 H   0  0  0  0  0  0  0  0  0  0  0  0
   57.4545   31.6330   42.7480 H   0  0  0  0  0  0  0  0  0  0  0  0
  1  2  1  0
  2  3  2  0
  3  4  1  0
  4  5  2  0
  5  6  1  0
  6  7  2  0
  7  8  1  0
  8  9  2  0
  8 10  1  0
 10 11  1  0
 11 12  2  0
 12 13  1  0
 13 14  1  0
 14 15  2  0
 14 16  1  0
 16 17  1  0
 17 18  1  0
 18 19  2  0
 19 20  1  0
 20 21  2  0
 20 22  1  0
 22 23  1  0
 23 24  1  0
 24 25  1  0
 25 26  1  0
 26 27  1  0
 27 28  1  0
 28 29  1  0
 29 30  1  0
 19 31  1  0
 31 32  1  0
 31 33  1  0
 13 34  2  0
 34 35  1  0
 35 36  2  0
 36 37  1  0
 37 38  2  0
  7  2  1  0
 36 11  1  0
 33 17  2  0
 30 25  1  0
  1 39  1  0
  1 40  1  0
  1 41  1  0
  3 42  1  0
  4 43  1  0
  5 44  1  0
 12 45  1  0
 16 46  1  0
 18 47  1  0
 23 48  1  0
 23 49  1  0
 24 50  1  0
 24 51  1  0
 26 52  1  0
 26 53  1  0
 27 54  1  0
 27 55  1  0
 29 56  1  0
 29 57  1  0
 30 58  1  0
 30 59  1  0
 32 60  1  0
 32 61  1  0
 32 62  1  0
 33 63  1  0
 34 64  1  0
 35 65  1  0
M  CHG  2  10  -1  22  -1
M  END
>  <UniqueID>  (34) 
32

>  <SMILES>  (34) 
Cc1cccnc1C(=O)[N-]c1cc(C(=O)Nc2cc(C(=O)[N-]CCN3CCOCC3)n(C)c2)ccc1N=O

>  <Energy>  (34) 
132.2691591931187

>  <Genealogy>  (34) 
Cc1cccnc1C(=O)[N-]c1cc(C(=O)Nc2cc(C(=O)[N-]CCN3CCOCC3)n(C)c2)ccc1N=O (protonated)
Cc1cccnc1C(=O)[N-]c1cc(C(=O)Nc2cc(C(=O)[N-]CCN3CCOCC3)n(C)c2)ccc1N=O (3D coordinates assigned)
Cc1cccnc1C(=O)[N-]c1cc(C(=O)Nc2cc(C(=O)[N-]CCN3CCOCC3)n(C)c2)ccc1N=O (nonaromatic ring conformer: 132.2691591931187 kcal/mol)

>  <smiles>  (34) 
Cc1cccnc1C(=O)Nc1cc(C(=O)Nc2cc(C(=O)NCCN3CCOCC3)n(C)c2)ccc1N=O

>  <score_type>  (34) 
oracle

>  <origin>  (34) 
adg

>  <m_score__min__energy>  (34) 
-11.970000000000001

>  <m_primary>  (34) 
energy

$$$$
34:0
     RDKit          3D

 74 77  0  0  0  0  0  0  0  0999 V2000
   60.6460   28.6480   44.8580 C   0  0  0  0  0  0  0  0  0  0  0  0
   59.2510   27.7330   45.5910 S   0  0  0  0  0  0  0  0  0  0  0  0
   58.2010   29.2000   45.9090 C   0  0  0  0  0  0  0  0  0  0  0  0
   57.4630   29.6320   44.6390 C   0  0  2  0  0  0  0  0  0  0  0  0
   57.6740   31.0290   44.4230 O   0  0  0  0  0  0  0  0  0  0  0  0
   58.1630   31.9360   45.3770 C   0  0  0  0  0  0  0  0  0  0  0  0
   57.3560   32.9230   45.9730 C   0  0  0  0  0  0  0  0  0  0  0  0
   57.8990   33.8100   46.9060 C   0  0  0  0  0  0  0  0  0  0  0  0
   59.2620   33.7470   47.2410 C   0  0  0  0  0  0  0  0  0  0  0  0
   59.8470   34.6970   48.2640 C   0  0  0  0  0  0  0  0  0  0  0  0
   60.3710   34.0580   49.5810 C   0  0  2  0  0  0  0  0  0  0  0  0
   61.8460   33.6790   49.5370 C   0  0  0  0  0  0  0  0  0  0  0  0
   62.6030   33.7320   48.3480 C   0  0  0  0  0  0  0  0  0  0  0  0
   63.9650   33.4200   48.3600 C   0  0  0  0  0  0  0  0  0  0  0  0
   64.5970   33.0560   49.5540 C   0  0  0  0  0  0  0  0  0  0  0  0
   65.9540   32.7430   49.5760 O   0  0  0  0  0  0  0  0  0  0  0  0
   63.8590   33.0100   50.7400 C   0  0  0  0  0  0  0  0  0  0  0  0
   62.4980   33.3250   50.7340 C   0  0  0  0  0  0  0  0  0  0  0  0
   59.4780   32.9650   50.1650 C   0  0  0  0  0  0  0  0  0  0  0  0
   59.3560   31.6920   49.5780 C   0  0  0  0  0  0  0  0  0  0  0  0
   58.5360   30.7150   50.1470 C   0  0  0  0  0  0  0  0  0  0  0  0
   57.8290   30.9810   51.3340 C   0  0  0  0  0  0  0  0  0  0  0  0
   56.9950   30.0350   51.9520 O   0  0  0  0  0  0  0  0  0  0  0  0
   55.8280   30.3360   52.7180 C   0  0  0  0  0  0  0  0  0  0  0  0
   54.5800   29.7450   52.0540 C   0  0  0  0  0  0  0  0  0  0  0  0
   53.8130   30.8260   51.2630 C   0  0  0  0  0  0  0  0  0  0  0  0
   52.3420   30.6410   51.2400 N   0  0  0  0  0  0  0  0  0  0  0  0
   51.5950   31.8680   50.9340 C   0  0  0  0  0  0  0  0  0  0  0  0
   50.9890   32.3830   52.2300 C   0  0  0  0  0  0  0  0  0  0  0  0
   51.0370   31.2190   53.2040 C   0  0  0  0  0  0  0  0  0  0  0  0
   51.7930   30.1020   52.4930 C   0  0  0  0  0  0  0  0  0  0  0  0
   57.9590   32.2380   51.9300 C   0  0  0  0  0  0  0  0  0  0  0  0
   58.7760   33.2170   51.3600 C   0  0  0  0  0  0  0  0  0  0  0  0
   60.0520   32.7310   46.6800 C   0  0  0  0  0  0  0  0  0  0  0  0
   59.5090   31.8450   45.7460 C   0  0  0  0  0  0  0  0  0  0  0  0
   55.9950   29.3520   44.7890 C   0  0  0  0  0  0  0  0  0  0  0  0
   55.1480   30.2240   44.4620 O   0  0  0  0  0  0  0  0  0  0  0  0
   55.5650   28.1110   45.2450 O   0  0  0  0  0  0  0  0  0  0  0  0
   61.2755   29.0609   45.6600 H   0  0  0  0  0  0  0  0  0  0  0  0
   61.2449   27.9667   44.2358 H   0  0  0  0  0  0  0  0  0  0  0  0
   60.2597   29.4687   44.2358 H   0  0  0  0  0  0  0  0  0  0  0  0
   57.4637   28.9529   46.6871 H   0  0  0  0  0  0  0  0  0  0  0  0
   58.8460   30.0279   46.2384 H   0  0  0  0  0  0  0  0  0  0  0  0
   57.8483   29.0682   43.7767 H   0  0  0  0  0  0  0  0  0  0  0  0
   56.2922   32.9965   45.7029 H   0  0  0  0  0  0  0  0  0  0  0  0
   57.2543   34.5636   47.3820 H   0  0  0  0  0  0  0  0  0  0  0  0
   60.6884   35.2231   47.7894 H   0  0  0  0  0  0  0  0  0  0  0  0
   59.0144   35.3490   48.5668 H   0  0  0  0  0  0  0  0  0  0  0  0
   60.3022   34.8772   50.3118 H   0  0  0  0  0  0  0  0  0  0  0  0
   62.1175   34.0211   47.4042 H   0  0  0  0  0  0  0  0  0  0  0  0
   64.5436   33.4608   47.4254 H   0  0  0  0  0  0  0  0  0  0  0  0
   66.5090   32.7350   48.7280 H   0  0  0  0  0  0  0  0  0  0  0  0
   64.3515   32.7248   51.6813 H   0  0  0  0  0  0  0  0  0  0  0  0
   61.9291   33.2962   51.6750 H   0  0  0  0  0  0  0  0  0  0  0  0
   59.9142   31.4631   48.6582 H   0  0  0  0  0  0  0  0  0  0  0  0
   58.4423   29.7312   49.6640 H   0  0  0  0  0  0  0  0  0  0  0  0
   55.9374   29.9097   53.7261 H   0  0  0  0  0  0  0  0  0  0  0  0
   55.7146   31.4285   52.7772 H   0  0  0  0  0  0  0  0  0  0  0  0
   54.8840   28.9427   51.3656 H   0  0  0  0  0  0  0  0  0  0  0  0
   53.9190   29.3481   52.8385 H   0  0  0  0  0  0  0  0  0  0  0  0
   54.0296   31.8037   51.7181 H   0  0  0  0  0  0  0  0  0  0  0  0
   54.1546   30.7530   50.2199 H   0  0  0  0  0  0  0  0  0  0  0  0
   52.2744   32.6238   50.5131 H   0  0  0  0  0  0  0  0  0  0  0  0
   50.8045   31.6612   50.1975 H   0  0  0  0  0  0  0  0  0  0  0  0
   51.5754   33.2296   52.6165 H   0  0  0  0  0  0  0  0  0  0  0  0
   49.9599   32.7415   52.0799 H   0  0  0  0  0  0  0  0  0  0  0  0
   51.5652   31.5122   54.1232 H   0  0  0  0  0  0  0  0  0  0  0  0
   50.0262   30.8974   53.4952 H   0  0  0  0  0  0  0  0  0  0  0  0
   52.6117   29.7410   53.1329 H   0  0  0  0  0  0  0  0  0  0  0  0
   51.1156   29.2620   52.2796 H   0  0  0  0  0  0  0  0  0  0  0  0
   57.4119   32.4590   52.8583 H   0  0  0  0  0  0  0  0  0  0  0  0
   58.8725   34.1969   51.8503 H   0  0  0  0  0  0  0  0  0  0  0  0
   61.1062   32.6318   46.9780 H   0  0  0  0  0  0  0  0  0  0  0  0
   60.1459   31.0688   45.2968 H   0  0  0  0  0  0  0  0  0  0  0  0
  1  2  1  0
  2  3  1  0
  3  4  1  0
  4  5  1  0
  5  6  1  0
  6  7  2  0
  7  8  1  0
  8  9  2  0
  9 10  1  0
 10 11  1  0
 11 12  1  0
 12 13  2  0
 13 14  1  0
 14 15  2  0
 15 16  1  0
 15 17  1  0
 17 18  2  0
 11 19  1  0
 19 20  2  0
 20 21  1  0
 21 22  2  0
 22 23  1  0
 23 24  1  0
 24 25  1  0
 25 26  1  0
 26 27  1  0
 27 28  1  0
 28 29  1  0
 29 30  1  0
 30 31  1  0
 22 32  1  0
 32 33  2  0
  9 34  1  0
 34 35  2  0
  4 36  1  0
 36 37  2  0
 36 38  1  0
 35  6  1  0
 18 12  1  0
 33 19  1  0
 31 27  1  0
  1 39  1  0
  1 40  1  0
  1 41  1  0
  3 42  1  0
  3 43  1  0
  4 44  1  6
  7 45  1  0
  8 46  1  0
 10 47  1  0
 10 48  1  0
 11 49  1  1
 13 50  1  0
 14 51  1  0
 16 52  1  0
 17 53  1  0
 18 54  1  0
 20 55  1  0
 21 56  1  0
 24 57  1  0
 24 58  1  0
 25 59  1  0
 25 60  1  0
 26 61  1  0
 26 62  1  0
 28 63  1  0
 28 64  1  0
 29 65  1  0
 29 66  1  0
 30 67  1  0
 30 68  1  0
 31 69  1  0
 31 70  1  0
 32 71  1  0
 33 72  1  0
 34 73  1  0
 35 74  1  0
M  CHG  1  38  -1
M  END
>  <UniqueID>  (35) 
33

>  <SMILES>  (35) 
CSC[C@H](Oc1ccc(C[C@H](c2ccc(O)cc2)c2ccc(OCCCN3CCCC3)cc2)cc1)C(=O)[O-]

>  <Energy>  (35) 
78.87506719545415

>  <Genealogy>  (35) 
CSCC(Oc1ccc(CC(c2ccc(O)cc2)c2ccc(OCCCN3CCCC3)cc2)cc1)C(=O)[O-] (protonated)
CSC[C@H](Oc1ccc(C[C@H](c2ccc(O)cc2)c2ccc(OCCCN3CCCC3)cc2)cc1)C(=O)[O-] (chirality)
CSC[C@H](Oc1ccc(C[C@H](c2ccc(O)cc2)c2ccc(OCCCN3CCCC3)cc2)cc1)C(=O)[O-] (3D coordinates assigned)
CSC[C@H](Oc1ccc(C[C@H](c2ccc(O)cc2)c2ccc(OCCCN3CCCC3)cc2)cc1)C(=O)[O-] (nonaromatic ring conformer: 78.87506719545415 kcal/mol)

>  <smiles>  (35) 
CSCC(Oc1ccc(CC(c2ccc(O)cc2)c2ccc(OCCCN3CCCC3)cc2)cc1)C(=O)O

>  <score_type>  (35) 
oracle

>  <origin>  (35) 
adg

>  <m_score__min__energy>  (35) 
-12.289999999999999

>  <m_primary>  (35) 
energy

$$$$
35:0
     RDKit          3D

 27 28  0  0  0  0  0  0  0  0999 V2000
   59.7990   28.6760   45.1090 C   0  0  0  0  0  0  0  0  0  0  0  0
   58.3950   28.0730   45.0870 C   0  0  0  0  0  0  0  0  0  0  0  0
   57.7630   28.4790   43.7910 C   0  0  0  0  0  0  0  0  0  0  0  0
   56.5630   29.7580   43.9260 S   0  0  0  0  0  0  0  0  0  0  0  0
   55.4920   29.3010   44.8760 O   0  0  0  0  0  0  0  0  0  0  0  0
   55.9270   30.0910   42.6110 O   0  0  0  0  0  0  0  0  0  0  0  0
   57.3480   31.1720   44.6230 C   0  0  0  0  0  0  0  0  0  0  0  0
   57.4750   31.4940   45.9230 N   0  0  0  0  0  0  0  0  0  0  0  0
   58.1390   32.6550   46.0660 C   0  0  0  0  0  0  0  0  0  0  0  0
   58.5420   33.4350   47.1310 C   0  0  0  0  0  0  0  0  0  0  0  0
   59.2390   34.6240   46.9280 C   0  0  0  0  0  0  0  0  0  0  0  0
   59.5270   35.0190   45.6320 C   0  0  0  0  0  0  0  0  0  0  0  0
   59.1350   34.2570   44.5360 C   0  0  0  0  0  0  0  0  0  0  0  0
   58.4480   33.0890   44.7970 C   0  0  0  0  0  0  0  0  0  0  0  0
   57.9640   32.1850   43.9590 N   0  0  0  0  0  0  0  0  0  0  0  0
   60.1222   28.8148   46.1513 H   0  0  0  0  0  0  0  0  0  0  0  0
   60.4972   27.9984   44.5958 H   0  0  0  0  0  0  0  0  0  0  0  0
   59.7883   29.6489   44.5958 H   0  0  0  0  0  0  0  0  0  0  0  0
   58.4540   26.9765   45.1511 H   0  0  0  0  0  0  0  0  0  0  0  0
   57.8015   28.4301   45.9415 H   0  0  0  0  0  0  0  0  0  0  0  0
   58.5590   28.8261   43.1158 H   0  0  0  0  0  0  0  0  0  0  0  0
   57.2310   27.5930   43.4143 H   0  0  0  0  0  0  0  0  0  0  0  0
   58.3091   33.1126   48.1566 H   0  0  0  0  0  0  0  0  0  0  0  0
   59.5555   35.2392   47.7832 H   0  0  0  0  0  0  0  0  0  0  0  0
   60.0781   35.9563   45.4656 H   0  0  0  0  0  0  0  0  0  0  0  0
   59.3626   34.5717   43.5068 H   0  0  0  0  0  0  0  0  0  0  0  0
   58.0260   32.2090   42.9070 H   0  0  0  0  0  0  0  0  0  0  0  0
  1  2  1  0
  2  3  1  0
  3  4  1  0
  4  5  2  0
  4  6  2  0
  4  7  1  0
  7  8  2  0
  8  9  1  0
  9 10  2  0
 10 11  1  0
 11 12  2  0
 12 13  1  0
 13 14  2  0
 14 15  1  0
 15  7  1  0
 14  9  1  0
  1 16  1  0
  1 17  1  0
  1 18  1  0
  2 19  1  0
  2 20  1  0
  3 21  1  0
  3 22  1  0
 10 23  1  0
 11 24  1  0
 12 25  1  0
 13 26  1  0
 15 27  1  0
M  END
>  <smiles>  (36) 
CCCS(=O)(=O)c1nc2ccccc2[nH]1

>  <score_type>  (36) 
oracle

>  <origin>  (36) 
adg

>  <m_score__min__energy>  (36) 
-6.6600000000000001

>  <m_primary>  (36) 
energy

$$$$
36:0
     RDKit          3D

 39 41  0  0  0  0  0  0  0  0999 V2000
   62.9760   33.8410   46.3750 C   0  0  0  0  0  0  0  0  0  0  0  0
   62.9420   34.1940   47.7540 O   0  0  0  0  0  0  0  0  0  0  0  0
   63.3360   33.3470   48.8050 C   0  0  0  0  0  0  0  0  0  0  0  0
   64.6890   33.0420   49.0510 C   0  0  0  0  0  0  0  0  0  0  0  0
   65.0410   32.1880   50.0990 C   0  0  0  0  0  0  0  0  0  0  0  0
   64.0530   31.6350   50.9130 C   0  0  0  0  0  0  0  0  0  0  0  0
   62.7080   31.9320   50.6820 C   0  0  0  0  0  0  0  0  0  0  0  0
   62.3400   32.7790   49.6230 C   0  0  0  0  0  0  0  0  0  0  0  0
   60.9610   33.1130   49.3970 N   0  0  0  0  0  0  0  0  0  0  0  0
   59.9060   32.1400   49.3320 C   0  0  0  0  0  0  0  0  0  0  0  0
   60.1430   30.9180   49.5300 O   0  0  0  0  0  0  0  0  0  0  0  0
   58.5330   32.5650   48.9130 C   0  0  0  0  0  0  0  0  0  0  0  0
   58.5500   32.9390   47.4950 N   0  0  0  0  0  0  0  0  0  0  0  0
   57.9920   32.0950   46.6200 N   0  0  0  0  0  0  0  0  0  0  0  0
   57.8960   32.3740   45.2930 C   0  0  0  0  0  0  0  0  0  0  0  0
   57.2350   31.3950   44.4090 C   0  0  0  0  0  0  0  0  0  0  0  0
   57.4440   31.2170   43.0510 C   0  0  0  0  0  0  0  0  0  0  0  0
   56.5950   30.1980   42.6750 C   0  0  0  0  0  0  0  0  0  0  0  0
   55.9230   29.8170   43.8170 C   0  0  0  0  0  0  0  0  0  0  0  0
   56.3260   30.5470   44.8310 O   0  0  0  0  0  0  0  0  0  0  0  0
   58.4020   33.5890   44.8190 C   0  0  0  0  0  0  0  0  0  0  0  0
   58.9780   34.4790   45.7190 C   0  0  0  0  0  0  0  0  0  0  0  0
   59.0390   34.1470   47.0720 C   0  0  0  0  0  0  0  0  0  0  0  0
   59.5390   34.9680   47.8890 O   0  0  0  0  0  0  0  0  0  0  0  0
   63.0811   32.7503   46.2782 H   0  0  0  0  0  0  0  0  0  0  0  0
   62.0426   34.1639   45.8907 H   0  0  0  0  0  0  0  0  0  0  0  0
   63.8306   34.3361   45.8907 H   0  0  0  0  0  0  0  0  0  0  0  0
   65.4727   33.4786   48.4144 H   0  0  0  0  0  0  0  0  0  0  0  0
   66.0995   31.9513   50.2824 H   0  0  0  0  0  0  0  0  0  0  0  0
   64.3334   30.9639   51.7382 H   0  0  0  0  0  0  0  0  0  0  0  0
   61.9328   31.5006   51.3324 H   0  0  0  0  0  0  0  0  0  0  0  0
   60.7350   34.0920   49.1110 H   0  0  0  0  0  0  0  0  0  0  0  0
   57.8292   31.7334   49.0647 H   0  0  0  0  0  0  0  0  0  0  0  0
   58.2154   33.4280   49.5167 H   0  0  0  0  0  0  0  0  0  0  0  0
   58.1417   31.7727   42.4072 H   0  0  0  0  0  0  0  0  0  0  0  0
   56.4774   29.7742   41.6668 H   0  0  0  0  0  0  0  0  0  0  0  0
   55.1645   29.0222   43.8704 H   0  0  0  0  0  0  0  0  0  0  0  0
   58.3450   33.8370   43.7488 H   0  0  0  0  0  0  0  0  0  0  0  0
   59.3829   35.4388   45.3658 H   0  0  0  0  0  0  0  0  0  0  0  0
  1  2  1  0
  2  3  1  0
  3  4  2  0
  4  5  1  0
  5  6  2  0
  6  7  1  0
  7  8  2  0
  8  9  1  0
  9 10  1  0
 10 11  2  0
 10 12  1  0
 12 13  1  0
 13 14  1  0
 14 15  2  0
 15 16  1  0
 16 17  2  0
 17 18  1  0
 18 19  2  0
 19 20  1  0
 15 21  1  0
 21 22  2  0
 22 23  1  0
 23 24  2  0
  8  3  1  0
 23 13  1  0
 20 16  1  0
  1 25  1  0
  1 26  1  0
  1 27  1  0
  4 28  1  0
  5 29  1  0
  6 30  1  0
  7 31  1  0
  9 32  1  0
 12 33  1  0
 12 34  1  0
 17 35  1  0
 18 36  1  0
 19 37  1  0
 21 38  1  0
 22 39  1  0
M  END
>  <UniqueID>  (37) 
34

>  <SMILES>  (37) 
COc1ccccc1NC(=O)Cn1nc(-c2ccco2)ccc1=O

>  <Energy>  (37) 
70.46387871835529

>  <Genealogy>  (37) 
COc1ccccc1NC(=O)Cn1nc(-c2ccco2)ccc1=O (3D coordinates assigned)
COc1ccccc1NC(=O)Cn1nc(-c2ccco2)ccc1=O (optimized conformer: 70.46387871835529 kcal/mol)

>  <smiles>  (37) 
COc1ccccc1NC(=O)Cn1nc(-c2ccco2)ccc1=O

>  <score_type>  (37) 
oracle

>  <origin>  (37) 
adg

>  <m_score__min__energy>  (37) 
-6.9400000000000004

>  <m_primary>  (37) 
energy

$$$$
37:0
     RDKit          3D

 43 45  0  0  0  0  0  0  0  0999 V2000
   59.3170   31.1820   48.4900 O   0  0  0  0  0  0  0  0  0  0  0  0
   60.1120   30.2200   48.2980 C   0  0  0  0  0  0  0  0  0  0  0  0
   61.5290   30.4330   48.3980 N   0  0  0  0  0  0  0  0  0  0  0  0
   62.1600   31.7120   48.2210 C   0  0  0  0  0  0  0  0  0  0  0  0
   63.1890   32.0980   49.0920 C   0  0  0  0  0  0  0  0  0  0  0  0
   63.8340   33.3250   48.9230 C   0  0  0  0  0  0  0  0  0  0  0  0
   63.4670   34.1690   47.8730 C   0  0  0  0  0  0  0  0  0  0  0  0
   62.4580   33.7820   46.9850 C   0  0  0  0  0  0  0  0  0  0  0  0
   61.8110   32.5570   47.1510 C   0  0  0  0  0  0  0  0  0  0  0  0
   59.5650   28.8690   48.0370 C   0  0  0  0  0  0  0  0  0  0  0  0
   58.4920   28.7180   47.1400 C   0  0  0  0  0  0  0  0  0  0  0  0
   57.9840   27.4460   46.8400 C   0  0  0  0  0  0  0  0  0  0  0  0
   56.7040   27.2450   45.6450 S   0  0  0  0  0  0  0  0  0  0  0  0
   55.6340   26.3250   46.1690 O   0  0  0  0  0  0  0  0  0  0  0  0
   57.2940   26.6310   44.4070 O   0  0  0  0  0  0  0  0  0  0  0  0
   56.0170   28.7940   45.2390 N   0  0  0  0  0  0  0  0  0  0  0  0
   56.6220   29.3500   44.0250 C   0  0  0  0  0  0  0  0  0  0  0  0
   57.3140   30.6580   44.3090 C   0  0  0  0  0  0  0  0  0  0  0  0
   57.5480   31.5770   43.2730 C   0  0  0  0  0  0  0  0  0  0  0  0
   58.1400   32.8130   43.5460 C   0  0  0  0  0  0  0  0  0  0  0  0
   58.5000   33.1430   44.8560 C   0  0  0  0  0  0  0  0  0  0  0  0
   59.2370   34.8610   45.2380 Br  0  0  0  0  0  0  0  0  0  0  0  0
   58.3020   32.2210   45.8870 C   0  0  0  0  0  0  0  0  0  0  0  0
   57.7250   30.9750   45.6140 C   0  0  0  0  0  0  0  0  0  0  0  0
   58.5400   26.3170   47.4510 C   0  0  0  0  0  0  0  0  0  0  0  0
   59.6040   26.4540   48.3440 C   0  0  0  0  0  0  0  0  0  0  0  0
   60.1270   27.7180   48.6300 C   0  0  0  0  0  0  0  0  0  0  0  0
   61.2260   27.8130   49.4790 O   0  0  0  0  0  0  0  0  0  0  0  0
   62.1220   29.6270   48.7010 H   0  0  0  0  0  0  0  0  0  0  0  0
   63.4898   31.4305   49.9130 H   0  0  0  0  0  0  0  0  0  0  0  0
   64.6318   33.6268   49.6176 H   0  0  0  0  0  0  0  0  0  0  0  0
   63.9713   35.1381   47.7442 H   0  0  0  0  0  0  0  0  0  0  0  0
   62.1740   34.4447   46.1542 H   0  0  0  0  0  0  0  0  0  0  0  0
   61.0261   32.2509   46.4437 H   0  0  0  0  0  0  0  0  0  0  0  0
   58.0469   29.6069   46.6691 H   0  0  0  0  0  0  0  0  0  0  0  0
   57.3576   28.6335   43.6305 H   0  0  0  0  0  0  0  0  0  0  0  0
   55.8236   29.5315   43.2904 H   0  0  0  0  0  0  0  0  0  0  0  0
   57.2638   31.3225   42.2413 H   0  0  0  0  0  0  0  0  0  0  0  0
   58.3229   33.5270   42.7294 H   0  0  0  0  0  0  0  0  0  0  0  0
   58.6000   32.4746   46.9150 H   0  0  0  0  0  0  0  0  0  0  0  0
   57.5932   30.2423   46.4238 H   0  0  0  0  0  0  0  0  0  0  0  0
   58.1374   25.3181   47.2270 H   0  0  0  0  0  0  0  0  0  0  0  0
   60.0330   25.5626   48.8250 H   0  0  0  0  0  0  0  0  0  0  0  0
  1  2  2  0
  2  3  1  0
  3  4  1  0
  4  5  2  0
  5  6  1  0
  6  7  2  0
  7  8  1  0
  8  9  2  0
  2 10  1  0
 10 11  2  0
 11 12  1  0
 12 13  1  0
 13 14  2  0
 13 15  2  0
 13 16  1  0
 16 17  1  0
 17 18  1  0
 18 19  2  0
 19 20  1  0
 20 21  2  0
 21 22  1  0
 21 23  1  0
 23 24  2  0
 12 25  2  0
 25 26  1  0
 26 27  2  0
 27 28  1  0
  9  4  1  0
 27 10  1  0
 24 18  1  0
  3 29  1  0
  5 30  1  0
  6 31  1  0
  7 32  1  0
  8 33  1  0
  9 34  1  0
 11 35  1  0
 17 36  1  0
 17 37  1  0
 19 38  1  0
 20 39  1  0
 23 40  1  0
 24 41  1  0
 25 42  1  0
 26 43  1  0
M  CHG  2  16  -1  28  -1
M  END
>  <UniqueID>  (38) 
35

>  <SMILES>  (38) 
O=C(Nc1ccccc1)c1cc(S(=O)(=O)[N-]Cc2ccc(Br)cc2)ccc1[O-]

>  <Energy>  (38) 
47.48269004924105

>  <Genealogy>  (38) 
O=C(Nc1ccccc1)c1cc(S(=O)(=O)[N-]Cc2ccc(Br)cc2)ccc1[O-] (protonated)
O=C(Nc1ccccc1)c1cc(S(=O)(=O)[N-]Cc2ccc(Br)cc2)ccc1[O-] (3D coordinates assigned)
O=C(Nc1ccccc1)c1cc(S(=O)(=O)[N-]Cc2ccc(Br)cc2)ccc1[O-] (optimized conformer: 47.48269004924105 kcal/mol)

>  <smiles>  (38) 
O=C(Nc1ccccc1)c1cc(S(=O)(=O)NCc2ccc(Br)cc2)ccc1O

>  <score_type>  (38) 
oracle

>  <origin>  (38) 
adg

>  <m_score__min__energy>  (38) 
-12.279999999999999

>  <m_primary>  (38) 
energy

$$$$
38:0
     RDKit          3D

 54 56  0  0  0  0  0  0  0  0999 V2000
   61.1506   28.0087   48.8511 H   0  0  0  0  0  0  0  0  0  0  0  0
   60.3960   28.8090   48.8380 C   0  0  0  0  0  0  0  0  0  0  0  0
   60.0480   29.3120   47.6300 C   0  0  0  0  0  0  0  0  0  0  0  0
   58.8780   28.8640   46.7970 C   0  0  0  0  0  0  0  0  0  0  0  0
   58.2880   27.6550   46.9650 C   0  0  0  0  0  0  0  0  0  0  0  0
   58.3404   27.1985   47.9644 H   0  0  0  0  0  0  0  0  0  0  0  0
   57.5660   26.8890   45.8870 C   0  0  0  0  0  0  0  0  0  0  0  0
   57.2803   27.5829   45.0828 H   0  0  0  0  0  0  0  0  0  0  0  0
   58.2385   26.1082   45.5022 H   0  0  0  0  0  0  0  0  0  0  0  0
   56.3350   26.2330   46.4270 C   0  0  0  0  0  0  0  0  0  0  0  0
   56.4310   25.2870   47.2560 O   0  0  0  0  0  0  0  0  0  0  0  0
   55.0790   26.6700   46.0310 O   0  0  0  0  0  0  0  0  0  0  0  0
   58.5220   29.7910   45.6770 C   0  0  0  0  0  0  0  0  0  0  0  0
   58.3120   29.2910   44.4340 C   0  0  0  0  0  0  0  0  0  0  0  0
   59.0435   28.5658   44.0480 H   0  0  0  0  0  0  0  0  0  0  0  0
   57.1530   29.6530   43.5410 C   0  0  0  0  0  0  0  0  0  0  0  0
   57.4284   30.5260   42.9311 H   0  0  0  0  0  0  0  0  0  0  0  0
   56.9236   28.7897   42.8990 H   0  0  0  0  0  0  0  0  0  0  0  0
   55.9340   29.9840   44.3470 C   0  0  0  0  0  0  0  0  0  0  0  0
   55.6200   31.1850   44.5540 O   0  0  0  0  0  0  0  0  0  0  0  0
   55.1480   28.9670   44.8720 O   0  0  0  0  0  0  0  0  0  0  0  0
   58.8530   31.2280   45.8790 C   0  0  0  0  0  0  0  0  0  0  0  0
   59.9790   31.5320   46.5510 C   0  0  0  0  0  0  0  0  0  0  0  0
   60.7430   30.4870   47.1790 N   0  0  0  0  0  0  0  0  0  0  0  0
   61.6820   30.7240   47.5770 H   0  0  0  0  0  0  0  0  0  0  0  0
   60.4380   32.9670   46.6610 C   0  0  0  0  0  0  0  0  0  0  0  0
   61.1063   33.1900   45.8162 H   0  0  0  0  0  0  0  0  0  0  0  0
   60.9556   33.0809   47.6249 H   0  0  0  0  0  0  0  0  0  0  0  0
   59.3550   33.8840   46.6400 O   0  0  0  0  0  0  0  0  0  0  0  0
   58.5650   33.6710   45.4890 C   0  0  0  0  0  0  0  0  0  0  0  0
   59.2089   33.6811   44.5972 H   0  0  0  0  0  0  0  0  0  0  0  0
   57.8126   34.4697   45.4122 H   0  0  0  0  0  0  0  0  0  0  0  0
   57.8570   32.3180   45.5890 C   0  0  0  0  0  0  0  0  0  0  0  0
   57.3500   32.1024   44.6369 H   0  0  0  0  0  0  0  0  0  0  0  0
   57.1221   32.3581   46.4065 H   0  0  0  0  0  0  0  0  0  0  0  0
   59.8490   29.2430   50.1400 C   0  0  0  0  0  0  0  0  0  0  0  0
   60.6860   29.3080   51.2600 C   0  0  0  0  0  0  0  0  0  0  0  0
   61.7456   29.0269   51.1689 H   0  0  0  0  0  0  0  0  0  0  0  0
   60.1820   29.7280   52.4920 C   0  0  0  0  0  0  0  0  0  0  0  0
   60.8411   29.7515   53.3723 H   0  0  0  0  0  0  0  0  0  0  0  0
   58.8350   30.1220   52.6160 C   0  0  0  0  0  0  0  0  0  0  0  0
   58.2910   30.5490   53.8390 O   0  0  0  0  0  0  0  0  0  0  0  0
   58.1240   31.9130   54.2130 C   0  0  0  0  0  0  0  0  0  0  0  0
   58.1141   31.9938   55.3100 H   0  0  0  0  0  0  0  0  0  0  0  0
   58.9559   32.5085   53.8089 H   0  0  0  0  0  0  0  0  0  0  0  0
   57.1730   32.2902   53.8089 H   0  0  0  0  0  0  0  0  0  0  0  0
   58.0000   30.0960   51.4900 C   0  0  0  0  0  0  0  0  0  0  0  0
   56.6670   30.5040   51.6380 O   0  0  0  0  0  0  0  0  0  0  0  0
   55.7210   29.8630   52.4870 C   0  0  0  0  0  0  0  0  0  0  0  0
   55.9894   30.0448   53.5381 H   0  0  0  0  0  0  0  0  0  0  0  0
   54.7175   30.2680   52.2894 H   0  0  0  0  0  0  0  0  0  0  0  0
   55.7251   28.7809   52.2894 H   0  0  0  0  0  0  0  0  0  0  0  0
   58.5140   29.6660   50.2520 C   0  0  0  0  0  0  0  0  0  0  0  0
   57.8645   29.6612   49.3643 H   0  0  0  0  0  0  0  0  0  0  0  0
  1  2  1  0
  2  3  2  3
  3  4  1  0
  4  5  2  0
  5  6  1  0
  5  7  1  0
  7  8  1  0
  7  9  1  0
  7 10  1  0
 10 11  2  0
 10 12  1  0
  4 13  1  0
 13 14  2  0
 14 15  1  0
 14 16  1  0
 16 17  1  0
 16 18  1  0
 16 19  1  0
 19 20  2  0
 19 21  1  0
 13 22  1  0
 22 23  2  0
 23 24  1  0
 24 25  1  0
 23 26  1  0
 26 27  1  0
 26 28  1  0
 26 29  1  0
 29 30  1  0
 30 31  1  0
 30 32  1  0
 30 33  1  0
 33 34  1  0
 33 35  1  0
  2 36  1  0
 36 37  2  0
 37 38  1  0
 37 39  1  0
 39 40  1  0
 39 41  2  0
 41 42  1  0
 42 43  1  0
 43 44  1  0
 43 45  1  0
 43 46  1  0
 41 47  1  0
 47 48  1  0
 48 49  1  0
 49 50  1  0
 49 51  1  0
 49 52  1  0
 47 53  2  0
 53 54  1  0
 24  3  1  0
 53 36  1  0
 33 22  1  0
M  CHG  2  12  -1  21  -1
M  END
>  <UniqueID>  (39) 
36

>  <SMILES>  (39) 
COc1ccc(C=C2NC3=C(CCOC3)C(=C\CC(=O)[O-])/C2=C\CC(=O)[O-])cc1OC

>  <Energy>  (39) 
91.72398303600113

>  <Genealogy>  (39) 
COc1ccc(C=C2NC3=C(CCOC3)C(=CCC(=O)[O-])C2=CCC(=O)[O-])cc1OC (protonated)
COc1ccc(C=C2NC3=C(CCOC3)C(=C\CC(=O)[O-])/C2=C\CC(=O)[O-])cc1OC (cis-trans isomerization)
COc1ccc(C=C2NC3=C(CCOC3)C(=C\CC(=O)[O-])/C2=C\CC(=O)[O-])cc1OC (3D coordinates assigned)
COc1ccc(C=C2NC3=C(CCOC3)C(=C\CC(=O)[O-])/C2=C\CC(=O)[O-])cc1OC (nonaromatic ring conformer: 91.72398303600113 kcal/mol)

>  <smiles>  (39) 
COc1ccc(C=C2NC3=C(CCOC3)C(=CCC(=O)O)C2=CCC(=O)O)cc1OC

>  <score_type>  (39) 
oracle

>  <origin>  (39) 
adg

>  <m_score__min__energy>  (39) 
-13.720000000000001

>  <m_primary>  (39) 
energy

$$$$
39:0
     RDKit          3D

 44 46  0  0  0  0  0  0  0  0999 V2000
   57.3577   35.2320   45.2879 H   0  0  0  0  0  0  0  0  0  0  0  0
   57.8710   34.2600   45.2460 C   0  0  0  0  0  0  0  0  0  0  0  0
   57.4100   33.3490   44.3770 C   0  0  0  0  0  0  0  0  0  0  0  0
   56.3328   33.1266   44.3938 H   0  0  0  0  0  0  0  0  0  0  0  0
   58.2650   32.6050   43.3750 C   0  0  0  0  0  0  0  0  0  0  0  0
   58.0213   32.9627   42.3637 H   0  0  0  0  0  0  0  0  0  0  0  0
   59.3208   32.7957   43.6177 H   0  0  0  0  0  0  0  0  0  0  0  0
   58.0350   31.1420   43.4350 N   0  0  0  0  0  0  0  0  0  0  0  0
   58.4900   30.7150   42.5930 H   0  0  0  0  0  0  0  0  0  0  0  0
   56.5800   30.8290   43.3740 C   0  0  0  0  0  0  0  0  0  0  0  0
   56.0237   31.6160   43.9043 H   0  0  0  0  0  0  0  0  0  0  0  0
   56.2841   30.7812   42.3156 H   0  0  0  0  0  0  0  0  0  0  0  0
   56.2620   29.4730   44.0210 C   0  0  0  0  0  0  0  0  0  0  0  0
   55.1836   29.2783   43.9252 H   0  0  0  0  0  0  0  0  0  0  0  0
   56.8536   28.7034   43.5036 H   0  0  0  0  0  0  0  0  0  0  0  0
   56.6260   29.4420   45.4500 N   0  0  0  0  0  0  0  0  0  0  0  0
   55.7860   29.7120   46.0140 H   0  0  0  0  0  0  0  0  0  0  0  0
   57.7250   30.3600   45.8020 C   0  0  0  0  0  0  0  0  0  0  0  0
   57.2995   31.3365   46.0767 H   0  0  0  0  0  0  0  0  0  0  0  0
   58.2816   29.9213   46.6433 H   0  0  0  0  0  0  0  0  0  0  0  0
   58.7010   30.5540   44.6320 C   0  0  0  0  0  0  0  0  0  0  0  0
   59.5101   31.2264   44.9533 H   0  0  0  0  0  0  0  0  0  0  0  0
   59.0909   29.5649   44.3498 H   0  0  0  0  0  0  0  0  0  0  0  0
   59.0180   34.0510   46.1500 C   0  0  0  0  0  0  0  0  0  0  0  0
   58.8330   33.9370   47.5360 C   0  0  0  0  0  0  0  0  0  0  0  0
   57.8174   33.9714   47.9571 H   0  0  0  0  0  0  0  0  0  0  0  0
   59.9320   33.7800   48.3840 C   0  0  0  0  0  0  0  0  0  0  0  0
   59.7750   33.6752   49.4677 H   0  0  0  0  0  0  0  0  0  0  0  0
   61.2380   33.7550   47.8620 C   0  0  0  0  0  0  0  0  0  0  0  0
   62.4080   33.5860   48.7620 C   0  0  0  0  0  0  0  0  0  0  0  0
   62.4870   34.2980   49.9750 C   0  0  0  0  0  0  0  0  0  0  0  0
   61.6766   34.9851   50.2597 H   0  0  0  0  0  0  0  0  0  0  0  0
   63.5900   34.1360   50.8190 C   0  0  0  0  0  0  0  0  0  0  0  0
   63.6439   34.6960   51.7643 H   0  0  0  0  0  0  0  0  0  0  0  0
   64.6230   33.2660   50.4660 C   0  0  0  0  0  0  0  0  0  0  0  0
   65.4892   33.1412   51.1324 H   0  0  0  0  0  0  0  0  0  0  0  0
   64.5560   32.5540   49.2660 C   0  0  0  0  0  0  0  0  0  0  0  0
   65.3702   31.8684   48.9884 H   0  0  0  0  0  0  0  0  0  0  0  0
   63.4560   32.7110   48.4170 C   0  0  0  0  0  0  0  0  0  0  0  0
   63.4091   32.1473   47.4736 H   0  0  0  0  0  0  0  0  0  0  0  0
   61.4180   33.9010   46.4750 C   0  0  0  0  0  0  0  0  0  0  0  0
   62.4338   33.8916   46.0529 H   0  0  0  0  0  0  0  0  0  0  0  0
   60.3170   34.0580   45.6280 C   0  0  0  0  0  0  0  0  0  0  0  0
   60.4720   34.1876   44.5467 H   0  0  0  0  0  0  0  0  0  0  0  0
  1  2  1  0
  2  3  2  0
  3  4  1  0
  3  5  1  0
  5  6  1  0
  5  7  1  0
  5  8  1  0
  8  9  1  0
  8 10  1  0
 10 11  1  0
 10 12  1  0
 10 13  1  0
 13 14  1  0
 13 15  1  0
 13 16  1  0
 16 17  1  0
 16 18  1  0
 18 19  1  0
 18 20  1  0
 18 21  1  0
 21 22  1  0
 21 23  1  0
  2 24  1  0
 24 25  2  0
 25 26  1  0
 25 27  1  0
 27 28  1  0
 27 29  2  0
 29 30  1  0
 30 31  2  0
 31 32  1  0
 31 33  1  0
 33 34  1  0
 33 35  2  0
 35 36  1  0
 35 37  1  0
 37 38  1  0
 37 39  2  0
 39 40  1  0
 29 41  1  0
 41 42  1  0
 41 43  2  0
 43 44  1  0
 21  8  1  0
 43 24  1  0
 39 30  1  0
M  CHG  1   8   1
M  END
>  <UniqueID>  (40) 
37

>  <SMILES>  (40) 
C(=C\c1ccc(-c2ccccc2)cc1)\C[NH+]1CCNCC1

>  <Energy>  (40) 
68.55058573093102

>  <Genealogy>  (40) 
C(=Cc1ccc(-c2ccccc2)cc1)C[NH+]1CCNCC1 (protonated)
C(=C\c1ccc(-c2ccccc2)cc1)\C[NH+]1CCNCC1 (cis-trans isomerization)
C(=C\c1ccc(-c2ccccc2)cc1)\C[NH+]1CCNCC1 (3D coordinates assigned)
C(=C\c1ccc(-c2ccccc2)cc1)\C[NH+]1CCNCC1 (nonaromatic ring conformer: 68.55058573093102 kcal/mol)

>  <smiles>  (40) 
C(=Cc1ccc(-c2ccccc2)cc1)CN1CCNCC1

>  <score_type>  (40) 
oracle

>  <origin>  (40) 
adg

>  <m_score__min__energy>  (40) 
-6.7199999999999998

>  <m_primary>  (40) 
energy

$$$$
40:0
     RDKit          3D

 42 45  0  0  0  0  0  0  0  0999 V2000
   55.1520   28.9850   44.6830 N   0  0  0  0  0  0  0  0  0  0  0  0
   56.6260   29.8030   44.3000 S   0  0  0  0  0  0  0  0  0  0  0  0
   56.4290   31.2810   44.4790 O   0  0  0  0  0  0  0  0  0  0  0  0
   56.9930   29.5410   42.8660 O   0  0  0  0  0  0  0  0  0  0  0  0
   57.9100   29.2630   45.3790 C   0  0  0  0  0  0  0  0  0  0  0  0
   59.0340   30.3040   46.0680 S   0  0  0  0  0  0  0  0  0  0  0  0
   59.9690   29.1200   46.8060 C   0  0  0  0  0  0  0  0  0  0  0  0
   59.4140   27.8820   46.5120 C   0  0  0  0  0  0  0  0  0  0  0  0
   58.2560   27.9520   45.7190 C   0  0  0  0  0  0  0  0  0  0  0  0
   57.5190   26.7420   45.3060 C   0  0  0  0  0  0  0  0  0  0  0  0
   57.9300   26.0030   44.1870 C   0  0  0  0  0  0  0  0  0  0  0  0
   57.2150   24.8700   43.7870 C   0  0  0  0  0  0  0  0  0  0  0  0
   56.0630   24.4730   44.4850 C   0  0  0  0  0  0  0  0  0  0  0  0
   55.3050   23.2770   44.0490 C   0  0  0  0  0  0  0  0  0  0  0  0
   55.5020   22.8080   42.8960 O   0  0  0  0  0  0  0  0  0  0  0  0
   54.3870   22.5980   44.9170 N   0  0  0  0  0  0  0  0  0  0  0  0
   54.5760   22.3460   46.3170 C   0  0  0  0  0  0  0  0  0  0  0  0
   53.4580   22.3510   47.1630 C   0  0  0  0  0  0  0  0  0  0  0  0
   53.6040   22.1210   48.5360 C   0  0  0  0  0  0  0  0  0  0  0  0
   54.8760   21.9020   49.0710 C   0  0  0  0  0  0  0  0  0  0  0  0
   55.9990   21.8910   48.2330 C   0  0  0  0  0  0  0  0  0  0  0  0
   55.8560   22.1370   46.8650 C   0  0  0  0  0  0  0  0  0  0  0  0
   57.2570   21.6340   48.7860 O   0  0  0  0  0  0  0  0  0  0  0  0
   57.3870   21.1100   50.1110 C   0  0  0  0  0  0  0  0  0  0  0  0
   56.3480   21.7500   51.0400 C   0  0  0  0  0  0  0  0  0  0  0  0
   55.0490   21.6960   50.4440 O   0  0  0  0  0  0  0  0  0  0  0  0
   55.6540   25.2160   45.6060 C   0  0  0  0  0  0  0  0  0  0  0  0
   56.3690   26.3470   46.0050 C   0  0  0  0  0  0  0  0  0  0  0  0
   55.2440   28.6150   45.6540 H   0  0  0  0  0  0  0  0  0  0  0  0
   60.8667   29.2953   47.4171 H   0  0  0  0  0  0  0  0  0  0  0  0
   59.8416   26.9329   46.8673 H   0  0  0  0  0  0  0  0  0  0  0  0
   58.8196   26.3165   43.6211 H   0  0  0  0  0  0  0  0  0  0  0  0
   57.5571   24.2859   42.9200 H   0  0  0  0  0  0  0  0  0  0  0  0
   52.4580   22.5372   46.7444 H   0  0  0  0  0  0  0  0  0  0  0  0
   52.7206   22.1127   49.1913 H   0  0  0  0  0  0  0  0  0  0  0  0
   56.7436   22.1674   46.2160 H   0  0  0  0  0  0  0  0  0  0  0  0
   57.2314   20.0213   50.0877 H   0  0  0  0  0  0  0  0  0  0  0  0
   58.3944   21.3383   50.4892 H   0  0  0  0  0  0  0  0  0  0  0  0
   56.3316   21.2057   51.9957 H   0  0  0  0  0  0  0  0  0  0  0  0
   56.6201   22.8021   51.2101 H   0  0  0  0  0  0  0  0  0  0  0  0
   54.7644   24.9042   46.1729 H   0  0  0  0  0  0  0  0  0  0  0  0
   56.0284   26.9315   46.8724 H   0  0  0  0  0  0  0  0  0  0  0  0
  1  2  1  0
  2  3  2  0
  2  4  2  0
  2  5  1  0
  5  6  1  0
  6  7  1  0
  7  8  2  0
  8  9  1  0
  9 10  1  0
 10 11  2  0
 11 12  1  0
 12 13  2  0
 13 14  1  0
 14 15  2  0
 14 16  1  0
 16 17  1  0
 17 18  2  0
 18 19  1  0
 19 20  2  0
 20 21  1  0
 21 22  2  0
 21 23  1  0
 23 24  1  0
 24 25  1  0
 25 26  1  0
 13 27  1  0
 27 28  2  0
  9  5  2  0
 28 10  1  0
 22 17  1  0
 26 20  1  0
  1 29  1  0
  7 30  1  0
  8 31  1  0
 11 32  1  0
 12 33  1  0
 18 34  1  0
 19 35  1  0
 22 36  1  0
 24 37  1  0
 24 38  1  0
 25 39  1  0
 25 40  1  0
 27 41  1  0
 28 42  1  0
M  CHG  2   1  -1  16  -1
M  END
>  <UniqueID>  (41) 
38

>  <SMILES>  (41) 
[NH-]S(=O)(=O)c1sccc1-c1ccc(C(=O)[N-]c2ccc3c(c2)OCCO3)cc1

>  <Energy>  (41) 
85.7753554823887

>  <Genealogy>  (41) 
[NH-]S(=O)(=O)c1sccc1-c1ccc(C(=O)[N-]c2ccc3c(c2)OCCO3)cc1 (protonated)
[NH-]S(=O)(=O)c1sccc1-c1ccc(C(=O)[N-]c2ccc3c(c2)OCCO3)cc1 (3D coordinates assigned)
[NH-]S(=O)(=O)c1sccc1-c1ccc(C(=O)[N-]c2ccc3c(c2)OCCO3)cc1 (nonaromatic ring conformer: 85.7753554823887 kcal/mol)

>  <smiles>  (41) 
NS(=O)(=O)c1sccc1-c1ccc(C(=O)Nc2ccc3c(c2)OCCO3)cc1

>  <score_type>  (41) 
oracle

>  <origin>  (41) 
adg

>  <m_score__min__energy>  (41) 
-12.380000000000001

>  <m_primary>  (41) 
energy

$$$$
41:0
     RDKit          3D

 61 64  0  0  0  0  0  0  0  0999 V2000
   59.8050   32.9240   50.8410 C   0  0  0  0  0  0  0  0  0  0  0  0
   60.9030   33.7490   50.4610 O   0  0  0  0  0  0  0  0  0  0  0  0
   61.7230   33.5280   49.3420 C   0  0  0  0  0  0  0  0  0  0  0  0
   62.9990   32.9440   49.4630 C   0  0  0  0  0  0  0  0  0  0  0  0
   63.7850   32.7190   48.3300 C   0  0  0  0  0  0  0  0  0  0  0  0
   63.3150   33.0870   47.0700 C   0  0  0  0  0  0  0  0  0  0  0  0
   62.0580   33.6810   46.9360 C   0  0  0  0  0  0  0  0  0  0  0  0
   61.2520   33.9000   48.0640 C   0  0  0  0  0  0  0  0  0  0  0  0
   59.9320   34.6170   47.9030 C   0  0  0  0  0  0  0  0  0  0  0  0
   59.1470   34.0760   46.7400 C   0  0  0  0  0  0  0  0  0  0  0  0
   59.0260   34.6510   45.4750 C   0  0  0  0  0  0  0  0  0  0  0  0
   58.1850   34.0010   44.6320 N   0  0  0  0  0  0  0  0  0  0  0  0
   57.6290   32.9190   45.2150 C   0  0  0  0  0  0  0  0  0  0  0  0
   56.7730   32.1320   44.6310 N   0  0  0  0  0  0  0  0  0  0  0  0
   57.0740   31.1440   43.6330 C   0  0  0  0  0  0  0  0  0  0  0  0
   56.2750   30.9970   42.6730 O   0  0  0  0  0  0  0  0  0  0  0  0
   58.2560   30.2120   43.7450 C   0  0  0  0  0  0  0  0  0  0  0  0
   57.8510   28.8530   44.2660 C   0  0  0  0  0  0  0  0  0  0  0  0
   57.0350   28.7420   45.4050 C   0  0  0  0  0  0  0  0  0  0  0  0
   56.6670   27.4830   45.8910 C   0  0  0  0  0  0  0  0  0  0  0  0
   57.1140   26.3210   45.2460 C   0  0  0  0  0  0  0  0  0  0  0  0
   56.6730   24.7250   45.8410 S   0  0  0  0  0  0  0  0  0  0  0  0
   55.2280   24.6950   46.2610 O   0  0  0  0  0  0  0  0  0  0  0  0
   56.8840   23.7180   44.7480 O   0  0  0  0  0  0  0  0  0  0  0  0
   57.6870   24.3310   47.1950 N   0  0  0  0  0  0  0  0  0  0  0  0
   58.2410   25.5460   47.7950 C   0  0  0  0  0  0  0  0  0  0  0  0
   59.5410   25.9350   47.0860 C   0  0  0  0  0  0  0  0  0  0  0  0
   59.7440   27.4290   47.1030 C   0  0  0  0  0  0  0  0  0  0  0  0
   60.4450   28.0570   46.0590 C   0  0  0  0  0  0  0  0  0  0  0  0
   60.6760   29.4340   46.0900 C   0  0  0  0  0  0  0  0  0  0  0  0
   60.2040   30.1980   47.1620 C   0  0  0  0  0  0  0  0  0  0  0  0
   59.5130   29.5830   48.2100 C   0  0  0  0  0  0  0  0  0  0  0  0
   59.2860   28.2020   48.1850 C   0  0  0  0  0  0  0  0  0  0  0  0
   57.9320   26.4280   44.1170 C   0  0  0  0  0  0  0  0  0  0  0  0
   58.3100   27.6840   43.6370 C   0  0  0  0  0  0  0  0  0  0  0  0
   58.1310   32.7310   46.8080 S   0  0  0  0  0  0  0  0  0  0  0  0
   59.7436   32.8778   51.9383 H   0  0  0  0  0  0  0  0  0  0  0  0
   58.8724   33.3467   50.4390 H   0  0  0  0  0  0  0  0  0  0  0  0
   59.9514   31.9106   50.4390 H   0  0  0  0  0  0  0  0  0  0  0  0
   63.3793   32.6632   50.4562 H   0  0  0  0  0  0  0  0  0  0  0  0
   64.7753   32.2512   48.4321 H   0  0  0  0  0  0  0  0  0  0  0  0
   63.9356   32.9091   46.1794 H   0  0  0  0  0  0  0  0  0  0  0  0
   61.6975   33.9790   45.9404 H   0  0  0  0  0  0  0  0  0  0  0  0
   59.3418   34.4893   48.8225 H   0  0  0  0  0  0  0  0  0  0  0  0
   60.1388   35.6807   47.7138 H   0  0  0  0  0  0  0  0  0  0  0  0
   59.5705   35.5612   45.1834 H   0  0  0  0  0  0  0  0  0  0  0  0
   58.7099   30.0913   42.7503 H   0  0  0  0  0  0  0  0  0  0  0  0
   58.9719   30.6513   44.4553 H   0  0  0  0  0  0  0  0  0  0  0  0
   56.6839   29.6501   45.9170 H   0  0  0  0  0  0  0  0  0  0  0  0
   56.0255   27.4044   46.7811 H   0  0  0  0  0  0  0  0  0  0  0  0
   57.5134   26.3651   47.6967 H   0  0  0  0  0  0  0  0  0  0  0  0
   58.4518   25.3595   48.8584 H   0  0  0  0  0  0  0  0  0  0  0  0
   60.3870   25.4519   47.5968 H   0  0  0  0  0  0  0  0  0  0  0  0
   59.4801   25.6031   46.0390 H   0  0  0  0  0  0  0  0  0  0  0  0
   60.8141   27.4600   45.2120 H   0  0  0  0  0  0  0  0  0  0  0  0
   61.2291   29.9175   45.2713 H   0  0  0  0  0  0  0  0  0  0  0  0
   60.3767   31.2842   47.1805 H   0  0  0  0  0  0  0  0  0  0  0  0
   59.1473   30.1848   49.0550 H   0  0  0  0  0  0  0  0  0  0  0  0
   58.7477   27.7198   49.0143 H   0  0  0  0  0  0  0  0  0  0  0  0
   58.2794   25.5188   43.6045 H   0  0  0  0  0  0  0  0  0  0  0  0
   58.9712   27.7581   42.7610 H   0  0  0  0  0  0  0  0  0  0  0  0
  1  2  1  0
  2  3  1  0
  3  4  2  0
  4  5  1  0
  5  6  2  0
  6  7  1  0
  7  8  2  0
  8  9  1  0
  9 10  1  0
 10 11  2  0
 11 12  1  0
 12 13  1  0
 13 14  2  3
 14 15  1  0
 15 16  2  0
 15 17  1  0
 17 18  1  0
 18 19  2  0
 19 20  1  0
 20 21  2  0
 21 22  1  0
 22 23  2  0
 22 24  2  0
 22 25  1  0
 25 26  1  0
 26 27  1  0
 27 28  1  0
 28 29  2  0
 29 30  1  0
 30 31  2  0
 31 32  1  0
 32 33  2  0
 21 34  1  0
 34 35  2  0
 13 36  1  0
  8  3  1  0
 36 10  1  0
 35 18  1  0
 33 28  1  0
  1 37  1  0
  1 38  1  0
  1 39  1  0
  4 40  1  0
  5 41  1  0
  6 42  1  0
  7 43  1  0
  9 44  1  0
  9 45  1  0
 11 46  1  0
 17 47  1  0
 17 48  1  0
 19 49  1  0
 20 50  1  0
 26 51  1  0
 26 52  1  0
 27 53  1  0
 27 54  1  0
 29 55  1  0
 30 56  1  0
 31 57  1  0
 32 58  1  0
 33 59  1  0
 34 60  1  0
 35 61  1  0
M  CHG  2  12  -1  25  -1
M  END
>  <UniqueID>  (42) 
39

>  <SMILES>  (42) 
COc1ccccc1Cc1c[n-]c(=NC(=O)Cc2ccc(S(=O)(=O)[N-]CCc3ccccc3)cc2)s1

>  <Energy>  (42) 
91.82870501265725

>  <Genealogy>  (42) 
COc1ccccc1Cc1c[n-]c(=NC(=O)Cc2ccc(S(=O)(=O)[N-]CCc3ccccc3)cc2)s1 (protonated)
COc1ccccc1Cc1c[n-]c(=NC(=O)Cc2ccc(S(=O)(=O)[N-]CCc3ccccc3)cc2)s1 (3D coordinates assigned)
COc1ccccc1Cc1c[n-]c(=NC(=O)Cc2ccc(S(=O)(=O)[N-]CCc3ccccc3)cc2)s1 (optimized conformer: 91.82870501265725 kcal/mol)

>  <smiles>  (42) 
COc1ccccc1Cc1c[nH]c(=NC(=O)Cc2ccc(S(=O)(=O)NCCc3ccccc3)cc2)s1

>  <score_type>  (42) 
oracle

>  <origin>  (42) 
adg

>  <m_score__min__energy>  (42) 
-12.57

>  <m_primary>  (42) 
energy

$$$$
42:0
     RDKit          3D

 52 55  0  0  1  0  0  0  0  0999 V2000
   54.8850   24.0230   44.8080 C   0  0  0  0  0  0  0  0  0  0  0  0
   56.1750   24.6770   44.6720 N   0  0  0  0  0  0  0  0  0  0  0  0
   56.3840   25.7300   45.9980 S   0  0  0  0  0  0  0  0  0  0  0  0
   55.1760   26.6560   46.0010 O   0  0  0  0  0  0  0  0  0  0  0  0
   56.3020   24.8920   47.2520 O   0  0  0  0  0  0  0  0  0  0  0  0
   57.8070   26.6990   45.9430 C   0  0  0  0  0  0  0  0  0  0  0  0
   58.4380   27.1490   47.1050 C   0  0  0  0  0  0  0  0  0  0  0  0
   59.5780   27.9260   47.0620 C   0  0  0  0  0  0  0  0  0  0  0  0
   60.2330   28.3930   48.2470 N   0  0  0  0  0  0  0  0  0  0  0  0
   59.9920   29.5810   48.6570 C   0  0  0  0  0  0  0  0  0  0  0  0
   59.0970   30.4060   48.0850 N   0  0  0  0  0  0  0  0  0  0  0  0
   58.8620   31.6440   48.5320 C   0  0  0  0  0  0  0  0  0  0  0  0
   58.0020   32.4500   47.9910 N   0  0  0  0  0  0  0  0  0  0  0  0
   58.3050   32.9700   46.6860 C   0  0  0  0  0  0  0  0  0  0  0  0
   58.8730   34.2200   46.5160 C   0  0  0  0  0  0  0  0  0  0  0  0
   59.1310   34.6450   45.2390 C   0  0  0  0  0  0  0  0  0  0  0  0
   58.8260   33.8330   44.1710 C   0  0  0  0  0  0  0  0  0  0  0  0
   58.2600   32.5850   44.3300 C   0  0  0  0  0  0  0  0  0  0  0  0
   57.9940   32.1460   45.6070 C   0  0  0  0  0  0  0  0  0  0  0  0
   57.4170   30.8790   45.8100 O   0  0  0  0  0  0  0  0  0  0  0  0
   56.8010   30.2720   44.6860 C   0  0  0  0  0  0  0  0  0  0  0  0
   57.7200   29.9440   43.7070 F   0  0  0  0  0  0  0  0  0  0  0  0
   55.8840   31.1570   44.1580 F   0  0  0  0  0  0  0  0  0  0  0  0
   56.1490   29.1090   45.0320 F   0  0  0  0  0  0  0  0  0  0  0  0
   59.5720   32.1050   49.6360 C   0  0  0  0  0  0  0  0  0  0  0  0
   59.3580   33.3770   50.1270 C   0  0  0  0  0  0  0  0  0  0  0  0
   60.0950   33.7780   51.2260 C   0  0  0  0  0  0  0  0  0  0  0  0
   61.0010   32.9040   51.7800 C   0  0  0  0  0  0  0  0  0  0  0  0
   61.2110   31.6560   51.3000 N   0  0  0  0  0  0  0  0  0  0  0  0
   60.5090   31.2620   50.2450 C   0  0  0  0  0  0  0  0  0  0  0  0
   60.6740   30.0280   49.7190 N   0  0  0  0  0  0  0  0  0  0  0  0
   60.1110   28.2670   45.8250 C   0  0  0  0  0  0  0  0  0  0  0  0
   59.4980   27.8300   44.6540 C   0  0  0  0  0  0  0  0  0  0  0  0
   58.3530   27.0510   44.7120 C   0  0  0  0  0  0  0  0  0  0  0  0
   57.7560   26.6240   43.5110 O   0  0  0  0  0  0  0  0  0  0  0  0
   54.6460   23.9018   45.8749 H   0  0  0  0  0  0  0  0  0  0  0  0
   54.1100   24.6371   44.3261 H   0  0  0  0  0  0  0  0  0  0  0  0
   54.9222   23.0349   44.3261 H   0  0  0  0  0  0  0  0  0  0  0  0
   56.1420   25.2160   43.7800 H   0  0  0  0  0  0  0  0  0  0  0  0
   58.0141   26.8763   48.0827 H   0  0  0  0  0  0  0  0  0  0  0  0
   58.5530   30.0690   47.2500 H   0  0  0  0  0  0  0  0  0  0  0  0
   59.1110   34.8552   47.3820 H   0  0  0  0  0  0  0  0  0  0  0  0
   59.5813   35.6339   45.0681 H   0  0  0  0  0  0  0  0  0  0  0  0
   59.0412   34.1918   43.1537 H   0  0  0  0  0  0  0  0  0  0  0  0
   58.0271   31.9564   43.4579 H   0  0  0  0  0  0  0  0  0  0  0  0
   58.6246   34.0502   49.6590 H   0  0  0  0  0  0  0  0  0  0  0  0
   59.9585   34.7830   51.6517 H   0  0  0  0  0  0  0  0  0  0  0  0
   61.5819   33.2346   52.6537 H   0  0  0  0  0  0  0  0  0  0  0  0
   61.3850   29.4240   50.2030 H   0  0  0  0  0  0  0  0  0  0  0  0
   61.0200   28.8841   45.7708 H   0  0  0  0  0  0  0  0  0  0  0  0
   59.9244   28.1043   43.6778 H   0  0  0  0  0  0  0  0  0  0  0  0
   56.7740   26.3850   43.4670 H   0  0  0  0  0  0  0  0  0  0  0  0
  1  2  1  0
  2  3  1  0
  3  4  2  0
  3  5  2  0
  3  6  1  0
  6  7  2  0
  7  8  1  0
  8  9  1  0
  9 10  2  0
 10 11  1  0
 11 12  1  0
 12 13  2  0
 13 14  1  0
 14 15  2  0
 15 16  1  0
 16 17  2  0
 17 18  1  0
 18 19  2  0
 19 20  1  0
 20 21  1  0
 21 22  1  0
 21 23  1  0
 21 24  1  0
 12 25  1  0
 25 26  2  0
 26 27  1  0
 27 28  2  0
 28 29  1  0
 29 30  2  0
 30 31  1  0
  8 32  2  0
 32 33  1  0
 33 34  2  0
 34 35  1  0
 34  6  1  0
 31 10  1  0
 19 14  1  0
 30 25  1  0
  1 36  1  0
  1 37  1  0
  1 38  1  0
  2 39  1  0
  7 40  1  0
 11 41  1  0
 15 42  1  0
 16 43  1  0
 17 44  1  0
 18 45  1  0
 26 46  1  0
 27 47  1  0
 28 48  1  0
 31 49  1  0
 32 50  1  0
 33 51  1  0
 35 52  1  0
M  END
>  <smiles>  (43) 
CNS(=O)(=O)c1cc(N=c2[nH]c(=Nc3ccccc3OC(F)(F)F)c3cccnc3[nH]2)ccc1O

>  <score_type>  (43) 
oracle

>  <origin>  (43) 
adg

>  <m_score__min__energy>  (43) 
-9.8800000000000008

>  <m_primary>  (43) 
energy

$$$$
43:0
     RDKit          3D

 38 41  0  0  0  0  0  0  0  0999 V2000
   59.5360   35.3220   47.6040 O   0  0  0  0  0  0  0  0  0  0  0  0
   59.7940   34.2770   46.5570 S   0  0  0  0  0  0  0  0  0  0  0  0
   59.6500   34.8110   45.1600 O   0  0  0  0  0  0  0  0  0  0  0  0
   58.8220   32.8720   46.8060 N   0  0  0  0  0  0  0  0  0  0  0  0
   59.5740   31.8380   47.0530 C   0  0  0  0  0  0  0  0  0  0  0  0
   59.0120   30.5320   47.2510 N   0  0  0  0  0  0  0  0  0  0  0  0
   59.2400   29.8490   48.5320 C   0  0  0  0  0  0  0  0  0  0  0  0
   59.4390   30.8580   49.6320 C   0  0  0  0  0  0  0  0  0  0  0  0
   60.6910   31.0000   50.2540 C   0  0  0  0  0  0  0  0  0  0  0  0
   60.8750   31.9610   51.2530 C   0  0  0  0  0  0  0  0  0  0  0  0
   59.8160   32.7900   51.6330 C   0  0  0  0  0  0  0  0  0  0  0  0
   58.5700   32.6580   51.0150 C   0  0  0  0  0  0  0  0  0  0  0  0
   58.3800   31.6980   50.0160 C   0  0  0  0  0  0  0  0  0  0  0  0
   58.4300   29.8300   46.1340 C   0  0  0  0  0  0  0  0  0  0  0  0
   59.2220   29.2370   45.1990 N   0  0  0  0  0  0  0  0  0  0  0  0
   58.6950   28.5780   44.1660 N   0  0  0  0  0  0  0  0  0  0  0  0
   57.3500   28.4730   44.0170 C   0  0  0  0  0  0  0  0  0  0  0  0
   56.5230   29.0670   44.9660 C   0  0  0  0  0  0  0  0  0  0  0  0
   55.1430   28.9800   44.8500 O   0  0  0  0  0  0  0  0  0  0  0  0
   57.0780   29.7330   46.0090 N   0  0  0  0  0  0  0  0  0  0  0  0
   61.0250   32.1160   47.0700 C   0  0  0  0  0  0  0  0  0  0  0  0
   62.0690   31.2350   47.3700 C   0  0  0  0  0  0  0  0  0  0  0  0
   63.3870   31.7250   47.3600 C   0  0  0  0  0  0  0  0  0  0  0  0
   63.6430   33.0780   47.0690 C   0  0  0  0  0  0  0  0  0  0  0  0
   62.5810   33.9550   46.7910 C   0  0  0  0  0  0  0  0  0  0  0  0
   61.2860   33.4430   46.8000 C   0  0  0  0  0  0  0  0  0  0  0  0
   58.3687   29.2207   48.7687 H   0  0  0  0  0  0  0  0  0  0  0  0
   60.1423   29.2251   48.4501 H   0  0  0  0  0  0  0  0  0  0  0  0
   61.5288   30.3533   49.9542 H   0  0  0  0  0  0  0  0  0  0  0  0
   61.8554   32.0647   51.7408 H   0  0  0  0  0  0  0  0  0  0  0  0
   59.9634   33.5460   52.4183 H   0  0  0  0  0  0  0  0  0  0  0  0
   57.7367   33.3105   51.3148 H   0  0  0  0  0  0  0  0  0  0  0  0
   57.3984   31.6001   49.5293 H   0  0  0  0  0  0  0  0  0  0  0  0
   56.9216   27.9288   43.1624 H   0  0  0  0  0  0  0  0  0  0  0  0
   61.8634   30.1811   47.6087 H   0  0  0  0  0  0  0  0  0  0  0  0
   64.2238   31.0461   47.5812 H   0  0  0  0  0  0  0  0  0  0  0  0
   64.6781   33.4502   47.0592 H   0  0  0  0  0  0  0  0  0  0  0  0
   62.7674   35.0168   46.5723 H   0  0  0  0  0  0  0  0  0  0  0  0
  1  2  2  0
  2  3  2  0
  2  4  1  0
  4  5  2  0
  5  6  1  0
  6  7  1  0
  7  8  1  0
  8  9  2  0
  9 10  1  0
 10 11  2  0
 11 12  1  0
 12 13  2  0
  6 14  1  0
 14 15  2  0
 15 16  1  0
 16 17  2  0
 17 18  1  0
 18 19  1  0
 18 20  2  0
  5 21  1  0
 21 22  2  0
 22 23  1  0
 23 24  2  0
 24 25  1  0
 25 26  2  0
 26  2  1  0
 13  8  1  0
 20 14  1  0
 26 21  1  0
  7 27  1  0
  7 28  1  0
  9 29  1  0
 10 30  1  0
 11 31  1  0
 12 32  1  0
 13 33  1  0
 17 34  1  0
 22 35  1  0
 23 36  1  0
 24 37  1  0
 25 38  1  0
M  CHG  1  19  -1
M  END
>  <UniqueID>  (44) 
40

>  <SMILES>  (44) 
O=S1(=O)N=C(N(Cc2ccccc2)c2nncc([O-])n2)c2ccccc21

>  <Energy>  (44) 
73.34902964926816

>  <Genealogy>  (44) 
O=S1(=O)N=C(N(Cc2ccccc2)c2nncc([O-])n2)c2ccccc21 (protonated)
O=S1(=O)N=C(N(Cc2ccccc2)c2nncc([O-])n2)c2ccccc21 (3D coordinates assigned)
O=S1(=O)N=C(N(Cc2ccccc2)c2nncc([O-])n2)c2ccccc21 (nonaromatic ring conformer: 73.34902964926816 kcal/mol)

>  <smiles>  (44) 
O=S1(=O)N=C(N(Cc2ccccc2)c2nncc(O)n2)c2ccccc21

>  <score_type>  (44) 
oracle

>  <origin>  (44) 
adg

>  <m_score__min__energy>  (44) 
-12.359999999999999

>  <m_primary>  (44) 
energy

$$$$
44:0
     RDKit          3D

 32 33  0  0  0  0  0  0  0  0999 V2000
   61.0010   30.1040   46.6950 O   0  0  0  0  0  0  0  0  0  0  0  0
   60.2370   30.8820   47.3290 C   0  0  0  0  0  0  0  0  0  0  0  0
   60.8240   32.0050   48.1220 C   0  0  0  0  0  0  0  0  0  0  0  0
   59.4820   32.9790   48.8730 S   0  0  0  0  0  0  0  0  0  0  0  0
   58.9050   33.6140   47.3000 C   0  0  0  0  0  0  0  0  0  0  0  0
   59.7560   34.3780   46.4930 C   0  0  0  0  0  0  0  0  0  0  0  0
   59.2820   34.8610   45.2710 C   0  0  0  0  0  0  0  0  0  0  0  0
   57.9760   34.5760   44.8690 C   0  0  0  0  0  0  0  0  0  0  0  0
   57.1580   33.8070   45.7020 C   0  0  0  0  0  0  0  0  0  0  0  0
   57.6360   33.3460   46.8890 N   0  0  0  0  0  0  0  0  0  0  0  0
   58.8140   30.7220   47.2560 N   0  0  0  0  0  0  0  0  0  0  0  0
   58.1840   29.6310   46.5150 C   0  0  0  0  0  0  0  0  0  0  0  0
   57.7620   30.1030   45.1480 C   0  0  0  0  0  0  0  0  0  0  0  0
   58.5270   31.0790   44.4860 C   0  0  0  0  0  0  0  0  0  0  0  0
   58.1420   31.5430   43.2240 C   0  0  0  0  0  0  0  0  0  0  0  0
   56.9900   31.0400   42.6150 C   0  0  0  0  0  0  0  0  0  0  0  0
   56.2210   30.0720   43.2660 C   0  0  0  0  0  0  0  0  0  0  0  0
   56.6000   29.6040   44.5280 C   0  0  0  0  0  0  0  0  0  0  0  0
   55.8340   28.6650   45.1410 F   0  0  0  0  0  0  0  0  0  0  0  0
   61.4694   31.5972   48.9140 H   0  0  0  0  0  0  0  0  0  0  0  0
   61.4210   32.6499   47.4604 H   0  0  0  0  0  0  0  0  0  0  0  0
   60.7846   34.5952   46.8168 H   0  0  0  0  0  0  0  0  0  0  0  0
   59.9371   35.4652   44.6263 H   0  0  0  0  0  0  0  0  0  0  0  0
   57.5949   34.9521   43.9081 H   0  0  0  0  0  0  0  0  0  0  0  0
   56.1269   33.5746   45.3972 H   0  0  0  0  0  0  0  0  0  0  0  0
   58.2010   31.4140   47.7410 H   0  0  0  0  0  0  0  0  0  0  0  0
   58.9009   28.8036   46.4080 H   0  0  0  0  0  0  0  0  0  0  0  0
   57.2951   29.2904   47.0662 H   0  0  0  0  0  0  0  0  0  0  0  0
   59.4334   31.4800   44.9631 H   0  0  0  0  0  0  0  0  0  0  0  0
   58.7470   32.3048   42.7106 H   0  0  0  0  0  0  0  0  0  0  0  0
   56.6881   31.4061   41.6226 H   0  0  0  0  0  0  0  0  0  0  0  0
   55.3145   29.6768   42.7842 H   0  0  0  0  0  0  0  0  0  0  0  0
  1  2  2  0
  2  3  1  0
  3  4  1  0
  4  5  1  0
  5  6  2  0
  6  7  1  0
  7  8  2  0
  8  9  1  0
  9 10  2  0
  2 11  1  0
 11 12  1  0
 12 13  1  0
 13 14  2  0
 14 15  1  0
 15 16  2  0
 16 17  1  0
 17 18  2  0
 18 19  1  0
 10  5  1  0
 18 13  1  0
  3 20  1  0
  3 21  1  0
  6 22  1  0
  7 23  1  0
  8 24  1  0
  9 25  1  0
 11 26  1  0
 12 27  1  0
 12 28  1  0
 14 29  1  0
 15 30  1  0
 16 31  1  0
 17 32  1  0
M  END
>  <UniqueID>  (45) 
41

>  <SMILES>  (45) 
O=C(CSc1ccccn1)NCc1ccccc1F

>  <Energy>  (45) 
25.743964052063262

>  <Genealogy>  (45) 
O=C(CSc1ccccn1)NCc1ccccc1F (3D coordinates assigned)
O=C(CSc1ccccn1)NCc1ccccc1F (optimized conformer: 25.743964052063262 kcal/mol)

>  <smiles>  (45) 
O=C(CSc1ccccn1)NCc1ccccc1F

>  <score_type>  (45) 
oracle

>  <origin>  (45) 
adg

>  <m_score__min__energy>  (45) 
-7.0700000000000003

>  <m_primary>  (45) 
energy

$$$$
45:0
     RDKit          3D

 65 68  0  0  0  0  0  0  0  0999 V2000
   59.3960   32.9260   50.6760 C   0  0  0  0  0  0  0  0  0  0  0  0
   59.6910   32.1280   49.4400 C   0  0  0  0  0  0  0  0  0  0  0  0
   60.7170   32.5350   48.5740 C   0  0  0  0  0  0  0  0  0  0  0  0
   61.0040   31.7950   47.4230 C   0  0  0  0  0  0  0  0  0  0  0  0
   60.2770   30.6320   47.1340 C   0  0  0  0  0  0  0  0  0  0  0  0
   60.6380   29.7080   45.6330 S   0  0  0  0  0  0  0  0  0  0  0  0
   59.2890   28.5300   45.8570 C   0  0  0  0  0  0  0  0  0  0  0  0
   59.6140   27.3020   46.4540 C   0  0  0  0  0  0  0  0  0  0  0  0
   58.6490   26.3120   46.6250 C   0  0  0  0  0  0  0  0  0  0  0  0
   57.3390   26.5290   46.1990 C   0  0  0  0  0  0  0  0  0  0  0  0
   56.1370   25.2480   46.3670 S   0  0  0  0  0  0  0  0  0  0  0  0
   56.0670   24.8420   47.8130 O   0  0  0  0  0  0  0  0  0  0  0  0
   54.7820   25.7600   45.9600 O   0  0  0  0  0  0  0  0  0  0  0  0
   56.5590   23.8520   45.4100 N   0  0  0  0  0  0  0  0  0  0  0  0
   56.1000   23.9780   44.0230 C   0  0  0  0  0  0  0  0  0  0  0  0
   54.6120   23.6160   43.8980 C   0  0  0  0  0  0  0  0  0  0  0  0
   54.0570   23.0540   45.2110 C   0  0  0  0  0  0  0  0  0  0  0  0
   52.5840   22.9360   45.1410 N   0  0  0  0  0  0  0  0  0  0  0  0
   51.9930   22.6830   46.4750 C   0  0  0  0  0  0  0  0  0  0  0  0
   50.4550   22.7820   46.4280 C   0  0  0  0  0  0  0  0  0  0  0  0
   49.9850   22.7870   45.0930 O   0  0  0  0  0  0  0  0  0  0  0  0
   50.4430   23.9550   44.4280 C   0  0  0  0  0  0  0  0  0  0  0  0
   51.9730   24.1350   44.5410 C   0  0  0  0  0  0  0  0  0  0  0  0
   57.0030   27.7400   45.5800 C   0  0  0  0  0  0  0  0  0  0  0  0
   57.9650   28.7540   45.3850 C   0  0  0  0  0  0  0  0  0  0  0  0
   57.5500   29.9680   44.6270 C   0  0  0  0  0  0  0  0  0  0  0  0
   57.6560   29.9740   43.3710 O   0  0  0  0  0  0  0  0  0  0  0  0
   57.0720   31.1380   45.3040 N   0  0  0  0  0  0  0  0  0  0  0  0
   57.7660   32.3810   45.4870 C   0  0  0  0  0  0  0  0  0  0  0  0
   57.7710   33.0660   46.7170 C   0  0  0  0  0  0  0  0  0  0  0  0
   58.4610   34.2770   46.8410 C   0  0  0  0  0  0  0  0  0  0  0  0
   59.1640   34.8010   45.7520 C   0  0  0  0  0  0  0  0  0  0  0  0
   59.8250   35.9780   45.8760 F   0  0  0  0  0  0  0  0  0  0  0  0
   59.1890   34.1080   44.5400 C   0  0  0  0  0  0  0  0  0  0  0  0
   58.5020   32.8980   44.4120 C   0  0  0  0  0  0  0  0  0  0  0  0
   59.2490   30.2230   47.9950 C   0  0  0  0  0  0  0  0  0  0  0  0
   58.9650   30.9610   49.1500 C   0  0  0  0  0  0  0  0  0  0  0  0
   59.6201   32.3197   51.5661 H   0  0  0  0  0  0  0  0  0  0  0  0
   60.0182   33.8331   50.6840 H   0  0  0  0  0  0  0  0  0  0  0  0
   58.3334   33.2102   50.6840 H   0  0  0  0  0  0  0  0  0  0  0  0
   61.2984   33.4406   48.8017 H   0  0  0  0  0  0  0  0  0  0  0  0
   61.8023   32.1263   46.7426 H   0  0  0  0  0  0  0  0  0  0  0  0
   60.6448   27.1188   46.7915 H   0  0  0  0  0  0  0  0  0  0  0  0
   58.9211   25.3565   47.0973 H   0  0  0  0  0  0  0  0  0  0  0  0
   56.2466   25.0157   43.6889 H   0  0  0  0  0  0  0  0  0  0  0  0
   56.6820   23.2848   43.3979 H   0  0  0  0  0  0  0  0  0  0  0  0
   54.0459   24.5199   43.6288 H   0  0  0  0  0  0  0  0  0  0  0  0
   54.5095   22.8432   43.1219 H   0  0  0  0  0  0  0  0  0  0  0  0
   54.4918   22.0599   45.3920 H   0  0  0  0  0  0  0  0  0  0  0  0
   54.3211   23.7378   46.0312 H   0  0  0  0  0  0  0  0  0  0  0  0
   52.2781   21.6745   46.8090 H   0  0  0  0  0  0  0  0  0  0  0  0
   52.3710   23.4430   47.1747 H   0  0  0  0  0  0  0  0  0  0  0  0
   50.0232   21.9200   46.9576 H   0  0  0  0  0  0  0  0  0  0  0  0
   50.1508   23.7234   46.9089 H   0  0  0  0  0  0  0  0  0  0  0  0
   50.1732   23.8845   43.3639 H   0  0  0  0  0  0  0  0  0  0  0  0
   49.9668   24.8228   44.9078 H   0  0  0  0  0  0  0  0  0  0  0  0
   52.3951   24.2944   43.5378 H   0  0  0  0  0  0  0  0  0  0  0  0
   52.1856   25.0042   45.1807 H   0  0  0  0  0  0  0  0  0  0  0  0
   55.9699   27.9036   45.2395 H   0  0  0  0  0  0  0  0  0  0  0  0
   57.2324   32.6491   47.5807 H   0  0  0  0  0  0  0  0  0  0  0  0
   58.4503   34.8185   47.7984 H   0  0  0  0  0  0  0  0  0  0  0  0
   59.7498   34.5148   43.6856 H   0  0  0  0  0  0  0  0  0  0  0  0
   58.5391   32.3471   43.4606 H   0  0  0  0  0  0  0  0  0  0  0  0
   58.6646   29.3206   47.7625 H   0  0  0  0  0  0  0  0  0  0  0  0
   58.1705   30.6259   49.8330 H   0  0  0  0  0  0  0  0  0  0  0  0
  1  2  1  0
  2  3  2  0
  3  4  1  0
  4  5  2  0
  5  6  1  0
  6  7  1  0
  7  8  2  0
  8  9  1  0
  9 10  2  0
 10 11  1  0
 11 12  2  0
 11 13  2  0
 11 14  1  0
 14 15  1  0
 15 16  1  0
 16 17  1  0
 17 18  1  0
 18 19  1  0
 19 20  1  0
 20 21  1  0
 21 22  1  0
 22 23  1  0
 10 24  1  0
 24 25  2  0
 25 26  1  0
 26 27  2  0
 26 28  1  0
 28 29  1  0
 29 30  2  0
 30 31  1  0
 31 32  2  0
 32 33  1  0
 32 34  1  0
 34 35  2  0
  5 36  1  0
 36 37  2  0
 37  2  1  0
 25  7  1  0
 35 29  1  0
 23 18  1  0
  1 38  1  0
  1 39  1  0
  1 40  1  0
  3 41  1  0
  4 42  1  0
  8 43  1  0
  9 44  1  0
 15 45  1  0
 15 46  1  0
 16 47  1  0
 16 48  1  0
 17 49  1  0
 17 50  1  0
 19 51  1  0
 19 52  1  0
 20 53  1  0
 20 54  1  0
 22 55  1  0
 22 56  1  0
 23 57  1  0
 23 58  1  0
 24 59  1  0
 30 60  1  0
 31 61  1  0
 34 62  1  0
 35 63  1  0
 36 64  1  0
 37 65  1  0
M  CHG  2  14  -1  28  -1
M  END
>  <UniqueID>  (46) 
42

>  <SMILES>  (46) 
Cc1ccc(Sc2ccc(S(=O)(=O)[N-]CCCN3CCOCC3)cc2C(=O)[N-]c2ccc(F)cc2)cc1

>  <Energy>  (46) 
79.56191209343268

>  <Genealogy>  (46) 
Cc1ccc(Sc2ccc(S(=O)(=O)[N-]CCCN3CCOCC3)cc2C(=O)[N-]c2ccc(F)cc2)cc1 (protonated)
Cc1ccc(Sc2ccc(S(=O)(=O)[N-]CCCN3CCOCC3)cc2C(=O)[N-]c2ccc(F)cc2)cc1 (3D coordinates assigned)
Cc1ccc(Sc2ccc(S(=O)(=O)[N-]CCCN3CCOCC3)cc2C(=O)[N-]c2ccc(F)cc2)cc1 (nonaromatic ring conformer: 79.56191209343268 kcal/mol)

>  <smiles>  (46) 
Cc1ccc(Sc2ccc(S(=O)(=O)NCCCN3CCOCC3)cc2C(=O)Nc2ccc(F)cc2)cc1

>  <score_type>  (46) 
oracle

>  <origin>  (46) 
adg

>  <m_score__min__energy>  (46) 
-12.710000000000001

>  <m_primary>  (46) 
energy

$$$$
46:0
     RDKit          3D

 38 40  0  0  0  0  0  0  0  0999 V2000
   55.1840   26.2650   46.0250 N   0  0  0  0  0  0  0  0  0  0  0  0
   56.8590   25.8350   45.9660 S   0  0  0  0  0  0  0  0  0  0  0  0
   57.1790   25.2090   44.6370 O   0  0  0  0  0  0  0  0  0  0  0  0
   57.1400   24.8490   47.0640 O   0  0  0  0  0  0  0  0  0  0  0  0
   57.8440   27.2730   46.1850 C   0  0  0  0  0  0  0  0  0  0  0  0
   58.1550   27.7320   47.4700 C   0  0  0  0  0  0  0  0  0  0  0  0
   58.9360   28.8820   47.6350 C   0  0  0  0  0  0  0  0  0  0  0  0
   59.3920   29.6010   46.5150 C   0  0  0  0  0  0  0  0  0  0  0  0
   60.1310   30.8690   46.7140 C   0  0  0  0  0  0  0  0  0  0  0  0
   61.4070   30.9830   47.1340 N   0  0  0  0  0  0  0  0  0  0  0  0
   61.7180   32.2710   47.1250 N   0  0  0  0  0  0  0  0  0  0  0  0
   60.6080   32.9010   46.6970 C   0  0  0  0  0  0  0  0  0  0  0  0
   60.4950   34.6720   46.4700 S   0  0  0  0  0  0  0  0  0  0  0  0
   59.6580   34.5560   44.8480 C   0  0  0  0  0  0  0  0  0  0  0  0
   58.2620   34.0200   45.0160 C   0  0  0  0  0  0  0  0  0  0  0  0
   57.5170   34.5540   45.8860 O   0  0  0  0  0  0  0  0  0  0  0  0
   57.7460   32.8560   44.2500 C   0  0  0  0  0  0  0  0  0  0  0  0
   58.0050   32.7740   42.8680 C   0  0  0  0  0  0  0  0  0  0  0  0
   57.5480   31.6840   42.1210 C   0  0  0  0  0  0  0  0  0  0  0  0
   56.8420   30.6510   42.7460 C   0  0  0  0  0  0  0  0  0  0  0  0
   56.5700   30.7220   44.1150 C   0  0  0  0  0  0  0  0  0  0  0  0
   57.0260   31.8100   44.8700 C   0  0  0  0  0  0  0  0  0  0  0  0
   59.6320   32.0570   46.4510 O   0  0  0  0  0  0  0  0  0  0  0  0
   59.0920   29.1210   45.2250 C   0  0  0  0  0  0  0  0  0  0  0  0
   58.3370   27.9580   45.0670 C   0  0  0  0  0  0  0  0  0  0  0  0
   55.1320   27.3120   46.0370 H   0  0  0  0  0  0  0  0  0  0  0  0
   57.7851   27.1882   48.3518 H   0  0  0  0  0  0  0  0  0  0  0  0
   59.1949   29.2258   48.6473 H   0  0  0  0  0  0  0  0  0  0  0  0
   62.0680   30.2270   47.4180 H   0  0  0  0  0  0  0  0  0  0  0  0
   59.6100   35.5561   44.3924 H   0  0  0  0  0  0  0  0  0  0  0  0
   60.2273   33.8729   44.2004 H   0  0  0  0  0  0  0  0  0  0  0  0
   58.5722   33.5751   42.3716 H   0  0  0  0  0  0  0  0  0  0  0  0
   57.7441   31.6388   41.0396 H   0  0  0  0  0  0  0  0  0  0  0  0
   56.5014   29.7840   42.1609 H   0  0  0  0  0  0  0  0  0  0  0  0
   55.9954   29.9201   44.6016 H   0  0  0  0  0  0  0  0  0  0  0  0
   56.8228   31.8504   45.9503 H   0  0  0  0  0  0  0  0  0  0  0  0
   59.4539   29.6644   44.3397 H   0  0  0  0  0  0  0  0  0  0  0  0
   58.1274   27.5763   44.0569 H   0  0  0  0  0  0  0  0  0  0  0  0
  1  2  1  0
  2  3  2  0
  2  4  2  0
  2  5  1  0
  5  6  2  0
  6  7  1  0
  7  8  2  0
  8  9  1  0
  9 10  2  0
 10 11  1  0
 11 12  2  0
 12 13  1  0
 13 14  1  0
 14 15  1  0
 15 16  2  0
 15 17  1  0
 17 18  2  0
 18 19  1  0
 19 20  2  0
 20 21  1  0
 21 22  2  0
 12 23  1  0
  8 24  1  0
 24 25  2  0
 25  5  1  0
 23  9  1  0
 22 17  1  0
  1 26  1  0
  6 27  1  0
  7 28  1  0
 10 29  1  0
 14 30  1  0
 14 31  1  0
 18 32  1  0
 19 33  1  0
 20 34  1  0
 21 35  1  0
 22 36  1  0
 24 37  1  0
 25 38  1  0
M  CHG  2   1  -1  10   1
M  END
>  <UniqueID>  (47) 
43

>  <SMILES>  (47) 
[NH-]S(=O)(=O)c1ccc(-c2[nH+]nc(SCC(=O)c3ccccc3)o2)cc1

>  <Energy>  (47) 
72.84329101398333

>  <Genealogy>  (47) 
[NH-]S(=O)(=O)c1ccc(-c2[nH+]nc(SCC(=O)c3ccccc3)o2)cc1 (protonated)
[NH-]S(=O)(=O)c1ccc(-c2[nH+]nc(SCC(=O)c3ccccc3)o2)cc1 (3D coordinates assigned)
[NH-]S(=O)(=O)c1ccc(-c2[nH+]nc(SCC(=O)c3ccccc3)o2)cc1 (optimized conformer: 72.84329101398333 kcal/mol)

>  <smiles>  (47) 
NS(=O)(=O)c1ccc(-c2nnc(SCC(=O)c3ccccc3)o2)cc1

>  <score_type>  (47) 
oracle

>  <origin>  (47) 
adg

>  <m_score__min__energy>  (47) 
-10.1

>  <m_primary>  (47) 
energy

$$$$
47:0
     RDKit          3D

 53 56  0  0  0  0  0  0  0  0999 V2000
   56.7420   22.3390   49.2130 C   0  0  0  0  0  0  0  0  0  0  0  0
   57.3160   22.2630   47.9270 O   0  0  0  0  0  0  0  0  0  0  0  0
   56.3080   22.2220   46.9270 C   0  0  2  0  0  0  0  0  0  0  0  0
   56.6710   21.1700   45.8580 C   0  0  1  0  0  0  0  0  0  0  0  0
   55.5240   20.8030   45.1320 O   0  0  0  0  0  0  0  0  0  0  0  0
   57.7960   21.6910   44.9080 C   0  0  1  0  0  0  0  0  0  0  0  0
   57.4340   21.7770   43.4050 C   0  0  0  0  0  0  0  0  0  0  0  0
   56.6110   20.7160   43.0060 O   0  0  0  0  0  0  0  0  0  0  0  0
   58.4150   22.8770   45.3890 O   0  0  0  0  0  0  0  0  0  0  0  0
   57.5210   23.9750   45.5170 C   0  0  2  0  0  0  0  0  0  0  0  0
   58.2240   25.0110   46.2090 O   0  0  0  0  0  0  0  0  0  0  0  0
   58.0310   26.3960   46.0480 C   0  0  0  0  0  0  0  0  0  0  0  0
   56.8460   26.9480   45.5270 C   0  0  0  0  0  0  0  0  0  0  0  0
   56.7040   28.3340   45.3890 C   0  0  0  0  0  0  0  0  0  0  0  0
   55.5130   28.8330   44.8730 O   0  0  0  0  0  0  0  0  0  0  0  0
   57.7580   29.1930   45.7720 C   0  0  0  0  0  0  0  0  0  0  0  0
   57.6860   30.5960   45.6650 C   0  0  0  0  0  0  0  0  0  0  0  0
   56.6570   31.1700   45.2180 O   0  0  0  0  0  0  0  0  0  0  0  0
   58.7740   31.3730   46.0670 C   0  0  0  0  0  0  0  0  0  0  0  0
   59.9260   30.7430   46.5670 C   0  0  0  0  0  0  0  0  0  0  0  0
   61.1130   31.5180   47.0100 C   0  0  0  0  0  0  0  0  0  0  0  0
   62.1500   30.8610   47.6980 C   0  0  0  0  0  0  0  0  0  0  0  0
   63.2820   31.5660   48.1180 C   0  0  0  0  0  0  0  0  0  0  0  0
   63.3980   32.9350   47.8490 C   0  0  0  0  0  0  0  0  0  0  0  0
   64.5210   33.6480   48.2640 O   0  0  0  0  0  0  0  0  0  0  0  0
   62.3800   33.5940   47.1560 C   0  0  0  0  0  0  0  0  0  0  0  0
   61.2460   32.8930   46.7350 C   0  0  0  0  0  0  0  0  0  0  0  0
   59.9560   29.4160   46.6620 O   0  0  0  0  0  0  0  0  0  0  0  0
   58.9470   28.6340   46.2930 C   0  0  0  0  0  0  0  0  0  0  0  0
   59.0720   27.2490   46.4280 C   0  0  0  0  0  0  0  0  0  0  0  0
   56.2030   23.6010   46.2680 C   0  0  2  0  0  0  0  0  0  0  0  0
   55.8840   24.5510   47.2560 O   0  0  0  0  0  0  0  0  0  0  0  0
   57.5302   22.2346   49.9731 H   0  0  0  0  0  0  0  0  0  0  0  0
   56.2419   23.3112   49.3345 H   0  0  0  0  0  0  0  0  0  0  0  0
   56.0061   21.5304   49.3345 H   0  0  0  0  0  0  0  0  0  0  0  0
   55.3462   21.9506   47.3868 H   0  0  0  0  0  0  0  0  0  0  0  0
   57.0621   20.2777   46.3687 H   0  0  0  0  0  0  0  0  0  0  0  0
   55.6880   19.8930   44.7690 H   0  0  0  0  0  0  0  0  0  0  0  0
   58.5458   20.8869   44.9429 H   0  0  0  0  0  0  0  0  0  0  0  0
   56.9078   22.7249   43.2193 H   0  0  0  0  0  0  0  0  0  0  0  0
   58.3672   21.7223   42.8252 H   0  0  0  0  0  0  0  0  0  0  0  0
   56.8370   19.9530   43.5990 H   0  0  0  0  0  0  0  0  0  0  0  0
   57.2044   24.3040   44.5163 H   0  0  0  0  0  0  0  0  0  0  0  0
   56.0229   26.2837   45.2251 H   0  0  0  0  0  0  0  0  0  0  0  0
   58.7297   32.4696   45.9929 H   0  0  0  0  0  0  0  0  0  0  0  0
   62.0693   29.7841   47.9070 H   0  0  0  0  0  0  0  0  0  0  0  0
   64.0834   31.0437   48.6611 H   0  0  0  0  0  0  0  0  0  0  0  0
   65.4540   33.2610   48.1810 H   0  0  0  0  0  0  0  0  0  0  0  0
   62.4709   34.6689   46.9406 H   0  0  0  0  0  0  0  0  0  0  0  0
   60.4518   33.4191   46.1850 H   0  0  0  0  0  0  0  0  0  0  0  0
   60.0003   26.8245   46.8381 H   0  0  0  0  0  0  0  0  0  0  0  0
   55.4058   23.5844   45.5102 H   0  0  0  0  0  0  0  0  0  0  0  0
   56.7130   24.7350   47.7710 H   0  0  0  0  0  0  0  0  0  0  0  0
  1  2  1  0
  2  3  1  0
  3  4  1  0
  4  5  1  0
  4  6  1  0
  6  7  1  0
  7  8  1  0
  6  9  1  0
  9 10  1  0
 10 11  1  0
 11 12  1  0
 12 13  2  0
 13 14  1  0
 14 15  1  0
 14 16  2  0
 16 17  1  0
 17 18  2  0
 17 19  1  0
 19 20  2  0
 20 21  1  0
 21 22  2  0
 22 23  1  0
 23 24  2  0
 24 25  1  0
 24 26  1  0
 26 27  2  0
 20 28  1  0
 28 29  1  0
 29 30  2  0
 10 31  1  0
 31 32  1  0
 31  3  1  0
 30 12  1  0
 29 16  1  0
 27 21  1  0
  1 33  1  0
  1 34  1  0
  1 35  1  0
  3 36  1  1
  4 37  1  1
  5 38  1  0
  6 39  1  6
  7 40  1  0
  7 41  1  0
  8 42  1  0
 10 43  1  6
 13 44  1  0
 19 45  1  0
 22 46  1  0
 23 47  1  0
 25 48  1  0
 26 49  1  0
 27 50  1  0
 30 51  1  0
 31 52  1  6
 32 53  1  0
M  CHG  1  15  -1
M  END
>  <UniqueID>  (48) 
44

>  <SMILES>  (48) 
CO[C@H]1C(O)C(Oc2cc([O-])c3c(=O)cc(-c4ccc(O)cc4)oc3c2)OC(CO)[C@@H]1O

>  <Energy>  (48) 
86.69214877611677

>  <Genealogy>  (48) 
COC1C(O)C(CO)OC(Oc2cc([O-])c3c(=O)cc(-c4ccc(O)cc4)oc3c2)C1O (protonated)
CO[C@H]1C(O)C(Oc2cc([O-])c3c(=O)cc(-c4ccc(O)cc4)oc3c2)OC(CO)[C@@H]1O (chirality)
CO[C@H]1C(O)C(Oc2cc([O-])c3c(=O)cc(-c4ccc(O)cc4)oc3c2)OC(CO)[C@@H]1O (3D coordinates assigned)
CO[C@H]1C(O)C(Oc2cc([O-])c3c(=O)cc(-c4ccc(O)cc4)oc3c2)OC(CO)[C@@H]1O (nonaromatic ring conformer: 86.69214877611677 kcal/mol)

>  <smiles>  (48) 
COC1C(O)C(CO)OC(Oc2cc(O)c3c(=O)cc(-c4ccc(O)cc4)oc3c2)C1O

>  <score_type>  (48) 
oracle

>  <origin>  (48) 
adg

>  <m_score__min__energy>  (48) 
-11.470000000000001

>  <m_primary>  (48) 
energy

$$$$
48:0
     RDKit          3D

 48 50  0  0  0  0  0  0  0  0999 V2000
   58.6840   24.5760   45.9410 C   0  0  0  0  0  0  0  0  0  0  0  0
   60.0540   25.7230   46.2880 S   0  0  0  0  0  0  0  0  0  0  0  0
   59.1730   27.1570   45.6490 C   0  0  0  0  0  0  0  0  0  0  0  0
   58.5160   27.0290   44.4210 C   0  0  0  0  0  0  0  0  0  0  0  0
   57.7670   28.0850   43.9020 C   0  0  0  0  0  0  0  0  0  0  0  0
   57.6650   29.2980   44.6020 C   0  0  0  0  0  0  0  0  0  0  0  0
   56.8690   30.4190   44.0480 C   0  0  0  0  0  0  0  0  0  0  0  0
   56.4670   30.3720   42.8540 O   0  0  0  0  0  0  0  0  0  0  0  0
   56.6010   31.5760   44.8510 N   0  0  0  0  0  0  0  0  0  0  0  0
   57.5340   32.6060   45.2130 C   0  0  0  0  0  0  0  0  0  0  0  0
   57.6570   33.7870   44.4710 C   0  0  0  0  0  0  0  0  0  0  0  0
   58.5530   34.7740   44.8740 C   0  0  0  0  0  0  0  0  0  0  0  0
   59.3370   34.5990   46.0170 C   0  0  0  0  0  0  0  0  0  0  0  0
   60.1520   35.6210   46.3740 F   0  0  0  0  0  0  0  0  0  0  0  0
   59.2390   33.4140   46.7910 C   0  0  0  0  0  0  0  0  0  0  0  0
   60.0980   33.2120   48.0660 C   0  0  1  0  0  0  0  0  0  0  0  0
   61.6080   33.3790   47.7500 C   0  0  0  0  0  0  0  0  0  0  0  0
   61.8800   33.3820   46.3940 F   0  0  0  0  0  0  0  0  0  0  0  0
   62.3400   32.3670   48.3490 F   0  0  0  0  0  0  0  0  0  0  0  0
   59.6490   34.2390   49.1490 C   0  0  0  0  0  0  0  0  0  0  0  0
   60.0980   33.8500   50.4290 O   0  0  0  0  0  0  0  0  0  0  0  0
   59.4210   32.6750   50.8210 C   0  0  0  0  0  0  0  0  0  0  0  0
   59.6660   31.5650   49.8390 C   0  0  0  0  0  0  0  0  0  0  0  0
   59.5500   30.2060   50.2700 N   0  0  0  0  0  0  0  0  0  0  0  0
   59.9400   31.8370   48.5930 N   0  0  0  0  0  0  0  0  0  0  0  0
   58.2940   32.4410   46.3770 C   0  0  0  0  0  0  0  0  0  0  0  0
   58.3310   29.4300   45.8340 C   0  0  0  0  0  0  0  0  0  0  0  0
   59.0960   28.3750   46.3630 C   0  0  0  0  0  0  0  0  0  0  0  0
   59.7780   28.5550   47.6160 N   0  0  0  0  0  0  0  0  0  0  0  0
   59.3450   28.0030   48.6490 O   0  0  0  0  0  0  0  0  0  0  0  0
   60.8050   29.4620   47.7320 O   0  0  0  0  0  0  0  0  0  0  0  0
   58.2564   24.2180   46.8892 H   0  0  0  0  0  0  0  0  0  0  0  0
   57.9073   25.0971   45.3621 H   0  0  0  0  0  0  0  0  0  0  0  0
   59.0604   23.7197   45.3621 H   0  0  0  0  0  0  0  0  0  0  0  0
   58.5907   26.0864   43.8590 H   0  0  0  0  0  0  0  0  0  0  0  0
   57.2523   27.9667   42.9371 H   0  0  0  0  0  0  0  0  0  0  0  0
   57.0453   33.9354   43.5689 H   0  0  0  0  0  0  0  0  0  0  0  0
   58.6443   35.6998   44.2870 H   0  0  0  0  0  0  0  0  0  0  0  0
   61.8990   34.3599   48.1541 H   0  0  0  0  0  0  0  0  0  0  0  0
   60.0683   35.2262   48.9049 H   0  0  0  0  0  0  0  0  0  0  0  0
   58.5498   34.2803   49.1598 H   0  0  0  0  0  0  0  0  0  0  0  0
   59.7816   32.3650   51.8129 H   0  0  0  0  0  0  0  0  0  0  0  0
   58.3416   32.8845   50.8540 H   0  0  0  0  0  0  0  0  0  0  0  0
   59.3140   29.9850   51.2630 H   0  0  0  0  0  0  0  0  0  0  0  0
   59.6910   29.4150   49.6020 H   0  0  0  0  0  0  0  0  0  0  0  0
   60.1770   31.0390   47.9590 H   0  0  0  0  0  0  0  0  0  0  0  0
   58.1549   31.5350   46.9851 H   0  0  0  0  0  0  0  0  0  0  0  0
   58.2522   30.3741   46.3930 H   0  0  0  0  0  0  0  0  0  0  0  0
  1  2  1  0
  2  3  1  0
  3  4  2  0
  4  5  1  0
  5  6  2  0
  6  7  1  0
  7  8  2  0
  7  9  1  0
  9 10  1  0
 10 11  2  0
 11 12  1  0
 12 13  2  0
 13 14  1  0
 13 15  1  0
 15 16  1  0
 16 17  1  6
 17 18  1  0
 17 19  1  0
 16 20  1  0
 20 21  1  0
 21 22  1  0
 22 23  1  0
 23 24  1  0
 23 25  2  0
 15 26  2  0
  6 27  1  0
 27 28  2  0
 28 29  1  0
 29 30  2  0
 29 31  1  0
 28  3  1  0
 26 10  1  0
 25 16  1  0
  1 32  1  0
  1 33  1  0
  1 34  1  0
  4 35  1  0
  5 36  1  0
 11 37  1  0
 12 38  1  0
 17 39  1  0
 20 40  1  0
 20 41  1  0
 22 42  1  0
 22 43  1  0
 24 44  1  0
 24 45  1  0
 25 46  1  0
 26 47  1  0
 27 48  1  0
M  CHG  4   9  -1  25   1  29   1  31  -1
M  END
>  <UniqueID>  (49) 
45

>  <SMILES>  (49) 
CSc1ccc(C(=O)[N-]c2ccc(F)c([C@@]3(C(F)F)COCC(N)=[NH+]3)c2)cc1[N+](=O)[O-]

>  <Energy>  (49) 
66.75903541754312

>  <Genealogy>  (49) 
CSc1ccc(C(=O)[N-]c2ccc(F)c(C3(C(F)F)COCC(N)=[NH+]3)c2)cc1[N+](=O)[O-] (protonated)
CSc1ccc(C(=O)[N-]c2ccc(F)c([C@@]3(C(F)F)COCC(N)=[NH+]3)c2)cc1[N+](=O)[O-] (chirality)
CSc1ccc(C(=O)[N-]c2ccc(F)c([C@@]3(C(F)F)COCC(N)=[NH+]3)c2)cc1[N+](=O)[O-] (3D coordinates assigned)
CSc1ccc(C(=O)[N-]c2ccc(F)c([C@@]3(C(F)F)COCC(N)=[NH+]3)c2)cc1[N+](=O)[O-] (nonaromatic ring conformer: 66.75903541754312 kcal/mol)

>  <smiles>  (49) 
CSc1ccc(C(=O)Nc2ccc(F)c(C3(C(F)F)COCC(N)=N3)c2)cc1[N+](=O)[O-]

>  <score_type>  (49) 
oracle

>  <origin>  (49) 
adg

>  <m_score__min__energy>  (49) 
-9.1300000000000008

>  <m_primary>  (49) 
energy

$$$$
49:0
     RDKit          3D

 66 68  0  0  0  0  0  0  0  0999 V2000
   57.0280   25.6130   45.1860 C   0  0  0  0  0  0  0  0  0  0  0  0
   57.6020   25.0850   43.9330 N   0  0  0  0  0  0  0  0  0  0  0  0
   56.7250   24.0330   43.3750 C   0  0  0  0  0  0  0  0  0  0  0  0
   57.7940   26.1830   42.9630 C   0  0  0  0  0  0  0  0  0  0  0  0
   58.1330   27.4590   43.6710 C   0  0  0  0  0  0  0  0  0  0  0  0
   57.4170   28.5730   43.4790 C   0  0  0  0  0  0  0  0  0  0  0  0
   57.0160   29.4360   44.6040 C   0  0  0  0  0  0  0  0  0  0  0  0
   55.9700   30.1360   44.5210 O   0  0  0  0  0  0  0  0  0  0  0  0
   57.8140   29.4740   45.7910 N   0  0  0  0  0  0  0  0  0  0  0  0
   58.2940   30.7340   46.2790 C   0  0  0  0  0  0  0  0  0  0  0  0
   58.4630   31.7870   45.3720 C   0  0  0  0  0  0  0  0  0  0  0  0
   58.8430   33.0580   45.8220 C   0  0  0  0  0  0  0  0  0  0  0  0
   58.9530   34.1240   44.9130 C   0  0  0  0  0  0  0  0  0  0  0  0
   59.3470   35.3870   45.3580 C   0  0  0  0  0  0  0  0  0  0  0  0
   59.6560   35.5930   46.7030 C   0  0  0  0  0  0  0  0  0  0  0  0
   59.5400   34.5480   47.6310 C   0  0  0  0  0  0  0  0  0  0  0  0
   59.9550   34.7710   48.9890 N   0  0  0  0  0  0  0  0  0  0  0  0
   61.0760   34.0840   49.6490 C   0  0  0  0  0  0  0  0  0  0  0  0
   62.0120   33.4210   48.6690 C   0  0  0  0  0  0  0  0  0  0  0  0
   62.0230   32.0220   48.5390 C   0  0  0  0  0  0  0  0  0  0  0  0
   62.8600   31.4050   47.6020 C   0  0  0  0  0  0  0  0  0  0  0  0
   63.6860   32.1790   46.7840 C   0  0  0  0  0  0  0  0  0  0  0  0
   63.6910   33.5730   46.9140 C   0  0  0  0  0  0  0  0  0  0  0  0
   62.8530   34.1940   47.8490 C   0  0  0  0  0  0  0  0  0  0  0  0
   59.1210   33.2680   47.1970 C   0  0  0  0  0  0  0  0  0  0  0  0
   58.9750   32.1990   48.0980 C   0  0  0  0  0  0  0  0  0  0  0  0
   58.5540   30.9270   47.6470 C   0  0  0  0  0  0  0  0  0  0  0  0
   58.3820   29.8430   48.5260 O   0  0  0  0  0  0  0  0  0  0  0  0
   59.1870   29.5650   49.6760 C   0  0  0  0  0  0  0  0  0  0  0  0
   60.5450   28.9790   49.2660 C   0  0  0  0  0  0  0  0  0  0  0  0
   60.4030   27.5840   48.8470 N   0  0  0  0  0  0  0  0  0  0  0  0
   59.8790   27.4390   47.1930 S   0  0  0  0  0  0  0  0  0  0  0  0
   60.6310   25.9890   46.4900 C   0  0  0  0  0  0  0  0  0  0  0  0
   60.3320   28.6530   46.4290 O   0  0  0  0  0  0  0  0  0  0  0  0
   58.3830   27.3100   47.0860 O   0  0  0  0  0  0  0  0  0  0  0  0
   57.5334   25.1481   46.0453 H   0  0  0  0  0  0  0  0  0  0  0  0
   57.1694   26.7032   45.2233 H   0  0  0  0  0  0  0  0  0  0  0  0
   55.9533   25.3812   45.2233 H   0  0  0  0  0  0  0  0  0  0  0  0
   56.2570   23.4716   44.1971 H   0  0  0  0  0  0  0  0  0  0  0  0
   55.9430   24.4976   42.7564 H   0  0  0  0  0  0  0  0  0  0  0  0
   57.3227   23.3473   42.7564 H   0  0  0  0  0  0  0  0  0  0  0  0
   58.6138   25.9209   42.2779 H   0  0  0  0  0  0  0  0  0  0  0  0
   56.8595   26.3269   42.4008 H   0  0  0  0  0  0  0  0  0  0  0  0
   58.9880   27.4806   44.3628 H   0  0  0  0  0  0  0  0  0  0  0  0
   57.1207   28.8512   42.4568 H   0  0  0  0  0  0  0  0  0  0  0  0
   58.4020   28.6330   46.0000 H   0  0  0  0  0  0  0  0  0  0  0  0
   58.2962   31.6151   44.2984 H   0  0  0  0  0  0  0  0  0  0  0  0
   58.7281   33.9628   43.8484 H   0  0  0  0  0  0  0  0  0  0  0  0
   59.4141   36.2227   44.6459 H   0  0  0  0  0  0  0  0  0  0  0  0
   59.9938   36.5846   47.0386 H   0  0  0  0  0  0  0  0  0  0  0  0
   59.3670   35.4140   49.5690 H   0  0  0  0  0  0  0  0  0  0  0  0
   61.6446   34.8213   50.2347 H   0  0  0  0  0  0  0  0  0  0  0  0
   60.6519   33.2956   50.2882 H   0  0  0  0  0  0  0  0  0  0  0  0
   61.3702   31.4082   49.1771 H   0  0  0  0  0  0  0  0  0  0  0  0
   62.8672   30.3089   47.5098 H   0  0  0  0  0  0  0  0  0  0  0  0
   64.3324   31.6936   46.0379 H   0  0  0  0  0  0  0  0  0  0  0  0
   64.3538   34.1813   46.2811 H   0  0  0  0  0  0  0  0  0  0  0  0
   62.8528   35.2901   47.9421 H   0  0  0  0  0  0  0  0  0  0  0  0
   59.1906   32.3538   49.1655 H   0  0  0  0  0  0  0  0  0  0  0  0
   59.3514   30.4983   50.2345 H   0  0  0  0  0  0  0  0  0  0  0  0
   58.6618   28.8292   50.3028 H   0  0  0  0  0  0  0  0  0  0  0  0
   60.9542   29.5666   48.4310 H   0  0  0  0  0  0  0  0  0  0  0  0
   61.2230   29.0204   50.1313 H   0  0  0  0  0  0  0  0  0  0  0  0
   60.9748   25.3261   47.2977 H   0  0  0  0  0  0  0  0  0  0  0  0
   59.8944   25.4585   45.8687 H   0  0  0  0  0  0  0  0  0  0  0  0
   61.4890   26.2855   45.8687 H   0  0  0  0  0  0  0  0  0  0  0  0
  1  2  1  0
  2  3  1  0
  2  4  1  0
  4  5  1  0
  5  6  2  3
  6  7  1  0
  7  8  2  0
  7  9  1  0
  9 10  1  0
 10 11  2  0
 11 12  1  0
 12 13  2  0
 13 14  1  0
 14 15  2  0
 15 16  1  0
 16 17  1  0
 17 18  1  0
 18 19  1  0
 19 20  2  0
 20 21  1  0
 21 22  2  0
 22 23  1  0
 23 24  2  0
 16 25  2  0
 25 26  1  0
 26 27  2  0
 27 28  1  0
 28 29  1  0
 29 30  1  0
 30 31  1  0
 31 32  1  0
 32 33  1  0
 32 34  2  0
 32 35  2  0
 27 10  1  0
 25 12  1  0
 24 19  1  0
  1 36  1  0
  1 37  1  0
  1 38  1  0
  3 39  1  0
  3 40  1  0
  3 41  1  0
  4 42  1  0
  4 43  1  0
  5 44  1  0
  6 45  1  0
  9 46  1  0
 11 47  1  0
 13 48  1  0
 14 49  1  0
 15 50  1  0
 17 51  1  0
 18 52  1  0
 18 53  1  0
 20 54  1  0
 21 55  1  0
 22 56  1  0
 23 57  1  0
 24 58  1  0
 26 59  1  0
 29 60  1  0
 29 61  1  0
 30 62  1  0
 30 63  1  0
 33 64  1  0
 33 65  1  0
 33 66  1  0
M  CHG  1  31  -1
M  END
>  <UniqueID>  (50) 
46

>  <SMILES>  (50) 
CN(C)CC=CC(=O)Nc1cc2cccc(NCc3ccccc3)c2cc1OCC[N-]S(C)(=O)=O

>  <Energy>  (50) 
80.01979887462787

>  <Genealogy>  (50) 
CN(C)CC=CC(=O)Nc1cc2cccc(NCc3ccccc3)c2cc1OCC[N-]S(C)(=O)=O (protonated)
CN(C)CC=CC(=O)Nc1cc2cccc(NCc3ccccc3)c2cc1OCC[N-]S(C)(=O)=O (3D coordinates assigned)
CN(C)CC=CC(=O)Nc1cc2cccc(NCc3ccccc3)c2cc1OCC[N-]S(C)(=O)=O (optimized conformer: 80.01979887462787 kcal/mol)

>  <smiles>  (50) 
CN(C)CC=CC(=O)Nc1cc2cccc(NCc3ccccc3)c2cc1OCCNS(C)(=O)=O

>  <score_type>  (50) 
oracle

>  <origin>  (50) 
adg

>  <m_score__min__energy>  (50) 
-10.539999999999999

>  <m_primary>  (50) 
energy

$$$$
50:0
     RDKit          3D

 38 39  0  0  0  0  0  0  0  0999 V2000
   60.8970   30.3590   46.8800 C   0  0  0  0  0  0  0  0  0  0  0  0
   59.6870   30.7600   47.7170 C   0  0  0  0  0  0  0  0  0  0  0  0
   59.0790   32.0010   47.2160 N   0  0  0  0  0  0  0  0  0  0  0  0
   58.5740   33.0030   48.1650 C   0  0  0  0  0  0  0  0  0  0  0  0
   59.6570   34.0270   48.5330 C   0  0  0  0  0  0  0  0  0  0  0  0
   60.9020   33.3850   49.1600 C   0  0  0  0  0  0  0  0  0  0  0  0
   61.9970   33.3030   48.1940 N   0  0  0  0  0  0  0  0  0  0  0  0
   62.0250   33.8350   46.9570 C   0  0  0  0  0  0  0  0  0  0  0  0
   63.2300   33.5020   46.3740 C   0  0  0  0  0  0  0  0  0  0  0  0
   63.9420   32.7680   47.2500 N   0  0  0  0  0  0  0  0  0  0  0  0
   63.1720   32.6610   48.3480 C   0  0  0  0  0  0  0  0  0  0  0  0
   58.6880   32.0830   45.8360 C   0  0  0  0  0  0  0  0  0  0  0  0
   58.1260   30.9710   45.1920 C   0  0  0  0  0  0  0  0  0  0  0  0
   57.7630   31.0460   43.8440 C   0  0  0  0  0  0  0  0  0  0  0  0
   57.9590   32.2330   43.1290 C   0  0  0  0  0  0  0  0  0  0  0  0
   57.5880   32.3090   41.7400 C   0  0  0  0  0  0  0  0  0  0  0  0
   57.2900   32.3710   40.6240 N   0  0  0  0  0  0  0  0  0  0  0  0
   58.5200   33.3470   43.7670 C   0  0  0  0  0  0  0  0  0  0  0  0
   58.8850   33.2730   45.1150 C   0  0  0  0  0  0  0  0  0  0  0  0
   59.4220   34.3610   45.7240 F   0  0  0  0  0  0  0  0  0  0  0  0
   61.7283   30.0835   47.5457 H   0  0  0  0  0  0  0  0  0  0  0  0
   60.6352   29.4996   46.2453 H   0  0  0  0  0  0  0  0  0  0  0  0
   61.2003   31.2047   46.2453 H   0  0  0  0  0  0  0  0  0  0  0  0
   58.9402   29.9534   47.6768 H   0  0  0  0  0  0  0  0  0  0  0  0
   60.0209   30.9297   48.7513 H   0  0  0  0  0  0  0  0  0  0  0  0
   57.7237   33.5308   47.7085 H   0  0  0  0  0  0  0  0  0  0  0  0
   58.2651   32.4828   49.0837 H   0  0  0  0  0  0  0  0  0  0  0  0
   59.9599   34.5602   47.6198 H   0  0  0  0  0  0  0  0  0  0  0  0
   59.2253   34.7072   49.2820 H   0  0  0  0  0  0  0  0  0  0  0  0
   61.2253   33.9921   50.0184 H   0  0  0  0  0  0  0  0  0  0  0  0
   60.6439   32.3653   49.4820 H   0  0  0  0  0  0  0  0  0  0  0  0
   61.2259   34.4313   46.4924 H   0  0  0  0  0  0  0  0  0  0  0  0
   63.5549   33.7882   45.3628 H   0  0  0  0  0  0  0  0  0  0  0  0
   64.8930   32.3640   47.1060 H   0  0  0  0  0  0  0  0  0  0  0  0
   63.4650   32.1172   49.2582 H   0  0  0  0  0  0  0  0  0  0  0  0
   57.9702   30.0359   45.7499 H   0  0  0  0  0  0  0  0  0  0  0  0
   57.3226   30.1705   43.3445 H   0  0  0  0  0  0  0  0  0  0  0  0
   58.6736   34.2812   43.2069 H   0  0  0  0  0  0  0  0  0  0  0  0
  1  2  1  0
  2  3  1  0
  3  4  1  0
  4  5  1  0
  5  6  1  0
  6  7  1  0
  7  8  1  0
  8  9  2  0
  9 10  1  0
 10 11  2  0
  3 12  1  0
 12 13  2  0
 13 14  1  0
 14 15  2  0
 15 16  1  0
 16 17  3  0
 15 18  1  0
 18 19  2  0
 19 20  1  0
 11  7  1  0
 19 12  1  0
  1 21  1  0
  1 22  1  0
  1 23  1  0
  2 24  1  0
  2 25  1  0
  4 26  1  0
  4 27  1  0
  5 28  1  0
  5 29  1  0
  6 30  1  0
  6 31  1  0
  8 32  1  0
  9 33  1  0
 10 34  1  0
 11 35  1  0
 13 36  1  0
 14 37  1  0
 18 38  1  0
M  CHG  1  10   1
M  END
>  <UniqueID>  (51) 
47

>  <SMILES>  (51) 
CCN(CCCn1cc[nH+]c1)c1ccc(C#N)cc1F

>  <Energy>  (51) 
63.4315499943544

>  <Genealogy>  (51) 
CCN(CCCn1cc[nH+]c1)c1ccc(C#N)cc1F (protonated)
CCN(CCCn1cc[nH+]c1)c1ccc(C#N)cc1F (3D coordinates assigned)
CCN(CCCn1cc[nH+]c1)c1ccc(C#N)cc1F (optimized conformer: 63.4315499943544 kcal/mol)

>  <smiles>  (51) 
CCN(CCCn1ccnc1)c1ccc(C#N)cc1F

>  <score_type>  (51) 
oracle

>  <origin>  (51) 
adg

>  <m_score__min__energy>  (51) 
-4.6699999999999999

>  <m_primary>  (51) 
energy

$$$$
51:0
     RDKit          3D

 32 33  0  0  0  0  0  0  0  0999 V2000
   55.1670   29.3110   44.8530 N   0  0  0  0  0  0  0  0  0  0  0  0
   56.8130   29.6980   44.4950 S   0  0  0  0  0  0  0  0  0  0  0  0
   56.9820   29.8340   43.0090 O   0  0  0  0  0  0  0  0  0  0  0  0
   57.1560   31.0020   45.1580 O   0  0  0  0  0  0  0  0  0  0  0  0
   57.8740   28.4260   45.0900 C   0  0  0  0  0  0  0  0  0  0  0  0
   59.2580   28.5000   44.8810 C   0  0  0  0  0  0  0  0  0  0  0  0
   60.0910   27.4820   45.3520 C   0  0  0  0  0  0  0  0  0  0  0  0
   59.5490   26.3930   46.0400 C   0  0  0  0  0  0  0  0  0  0  0  0
   58.1690   26.3150   46.2690 C   0  0  0  0  0  0  0  0  0  0  0  0
   57.6490   25.1770   46.9740 N   0  0  0  0  0  0  0  0  0  0  0  0
   56.6490   24.2490   46.5210 C   0  0  0  0  0  0  0  0  0  0  0  0
   55.5080   24.2980   47.0490 O   0  0  0  0  0  0  0  0  0  0  0  0
   56.8950   23.3080   45.4000 C   0  0  0  0  0  0  0  0  0  0  0  0
   58.1660   22.7270   45.2540 C   0  0  0  0  0  0  0  0  0  0  0  0
   58.4180   21.8300   44.2170 C   0  0  0  0  0  0  0  0  0  0  0  0
   57.4010   21.5250   43.3170 C   0  0  0  0  0  0  0  0  0  0  0  0
   56.1790   22.1020   43.4520 N   0  0  0  0  0  0  0  0  0  0  0  0
   55.8950   22.9770   44.4550 C   0  0  0  0  0  0  0  0  0  0  0  0
   54.2360   23.6740   44.5130 S   0  0  0  0  0  0  0  0  0  0  0  0
   53.6760   22.7030   45.9500 C   0  0  0  0  0  0  0  0  0  0  0  0
   53.7360   21.3540   45.6620 F   0  0  0  0  0  0  0  0  0  0  0  0
   52.3860   23.0500   46.3070 F   0  0  0  0  0  0  0  0  0  0  0  0
   57.3300   27.3240   45.7630 C   0  0  0  0  0  0  0  0  0  0  0  0
   55.1790   28.6010   45.6200 H   0  0  0  0  0  0  0  0  0  0  0  0
   59.6883   29.3595   44.3462 H   0  0  0  0  0  0  0  0  0  0  0  0
   61.1762   27.5378   45.1809 H   0  0  0  0  0  0  0  0  0  0  0  0
   60.2097   25.5924   46.4039 H   0  0  0  0  0  0  0  0  0  0  0  0
   58.9677   22.9817   45.9628 H   0  0  0  0  0  0  0  0  0  0  0  0
   59.4106   21.3679   44.1111 H   0  0  0  0  0  0  0  0  0  0  0  0
   57.5870   20.8166   42.4963 H   0  0  0  0  0  0  0  0  0  0  0  0
   54.3429   22.9244   46.7963 H   0  0  0  0  0  0  0  0  0  0  0  0
   56.2408   27.2476   45.8963 H   0  0  0  0  0  0  0  0  0  0  0  0
  1  2  1  0
  2  3  2  0
  2  4  2  0
  2  5  1  0
  5  6  2  0
  6  7  1  0
  7  8  2  0
  8  9  1  0
  9 10  1  0
 10 11  1  0
 11 12  2  0
 11 13  1  0
 13 14  2  0
 14 15  1  0
 15 16  2  0
 16 17  1  0
 17 18  2  0
 18 19  1  0
 19 20  1  0
 20 21  1  0
 20 22  1  0
  9 23  2  0
 23  5  1  0
 18 13  1  0
  1 24  1  0
  6 25  1  0
  7 26  1  0
  8 27  1  0
 14 28  1  0
 15 29  1  0
 16 30  1  0
 20 31  1  0
 23 32  1  0
M  CHG  2   1  -1  10  -1
M  END
>  <UniqueID>  (52) 
48

>  <SMILES>  (52) 
[NH-]S(=O)(=O)c1cccc([N-]C(=O)c2cccnc2SC(F)F)c1

>  <Energy>  (52) 
37.49390979915481

>  <Genealogy>  (52) 
[NH-]S(=O)(=O)c1cccc([N-]C(=O)c2cccnc2SC(F)F)c1 (protonated)
[NH-]S(=O)(=O)c1cccc([N-]C(=O)c2cccnc2SC(F)F)c1 (3D coordinates assigned)
[NH-]S(=O)(=O)c1cccc([N-]C(=O)c2cccnc2SC(F)F)c1 (optimized conformer: 37.49390979915481 kcal/mol)

>  <smiles>  (52) 
NS(=O)(=O)c1cccc(NC(=O)c2cccnc2SC(F)F)c1

>  <score_type>  (52) 
oracle

>  <origin>  (52) 
adg

>  <m_score__min__energy>  (52) 
-11.720000000000001

>  <m_primary>  (52) 
energy

$$$$
52:0
     RDKit          3D

 51 54  0  0  0  0  0  0  0  0999 V2000
   58.6840   25.1350   47.0240 O   0  0  0  0  0  0  0  0  0  0  0  0
   57.7880   25.9140   46.5990 C   0  0  0  0  0  0  0  0  0  0  0  0
   58.0970   27.2160   46.3710 N   0  0  0  0  0  0  0  0  0  0  0  0
   57.1690   28.0970   45.9110 C   0  0  0  0  0  0  0  0  0  0  0  0
   57.5360   29.5150   45.6680 C   0  0  0  0  0  0  0  0  0  0  0  0
   57.1080   30.1770   44.5020 C   0  0  0  0  0  0  0  0  0  0  0  0
   57.4570   31.5100   44.2740 C   0  0  0  0  0  0  0  0  0  0  0  0
   58.2440   32.2040   45.2010 C   0  0  0  0  0  0  0  0  0  0  0  0
   58.7090   33.8810   44.8970 S   0  0  0  0  0  0  0  0  0  0  0  0
   59.4690   33.9570   43.6010 O   0  0  0  0  0  0  0  0  0  0  0  0
   57.4700   34.7220   44.7600 O   0  0  0  0  0  0  0  0  0  0  0  0
   59.7050   34.5150   46.1870 N   0  0  0  0  0  0  0  0  0  0  0  0
   61.0660   33.9220   46.1690 C   0  0  0  0  0  0  0  0  0  0  0  0
   61.2690   32.8510   47.2510 C   0  0  0  0  0  0  0  0  0  0  0  0
   61.0190   33.4260   48.6560 C   0  0  0  0  0  0  0  0  0  0  0  0
   59.9670   34.5500   48.6610 C   0  0  0  0  0  0  0  0  0  0  0  0
   58.9990   34.4040   47.4830 C   0  0  0  0  0  0  0  0  0  0  0  0
   58.6670   31.5550   46.3680 C   0  0  0  0  0  0  0  0  0  0  0  0
   58.3190   30.2230   46.6000 C   0  0  0  0  0  0  0  0  0  0  0  0
   55.9020   27.6650   45.6720 N   0  0  0  0  0  0  0  0  0  0  0  0
   55.5390   26.3740   45.8840 C   0  0  0  0  0  0  0  0  0  0  0  0
   54.2300   25.9870   45.6220 O   0  0  0  0  0  0  0  0  0  0  0  0
   56.4820   25.4490   46.3650 C   0  0  0  0  0  0  0  0  0  0  0  0
   56.1150   23.9960   46.5720 C   0  0  0  0  0  0  0  0  0  0  0  0
   56.5940   23.1590   45.4160 C   0  0  0  0  0  0  0  0  0  0  0  0
   55.8640   23.1240   44.2140 C   0  0  0  0  0  0  0  0  0  0  0  0
   56.2930   22.3230   43.1520 C   0  0  0  0  0  0  0  0  0  0  0  0
   57.4480   21.5470   43.2810 C   0  0  0  0  0  0  0  0  0  0  0  0
   57.8620   20.7700   42.2500 F   0  0  0  0  0  0  0  0  0  0  0  0
   58.1770   21.5720   44.4740 C   0  0  0  0  0  0  0  0  0  0  0  0
   57.7510   22.3720   45.5380 C   0  0  0  0  0  0  0  0  0  0  0  0
   56.4936   29.6401   43.7642 H   0  0  0  0  0  0  0  0  0  0  0  0
   57.1117   32.0174   43.3611 H   0  0  0  0  0  0  0  0  0  0  0  0
   61.2347   33.4617   45.1843 H   0  0  0  0  0  0  0  0  0  0  0  0
   61.7808   34.7333   46.3712 H   0  0  0  0  0  0  0  0  0  0  0  0
   60.5676   32.0227   47.0722 H   0  0  0  0  0  0  0  0  0  0  0  0
   62.3090   32.4962   47.1995 H   0  0  0  0  0  0  0  0  0  0  0  0
   60.6695   32.6144   49.3110 H   0  0  0  0  0  0  0  0  0  0  0  0
   61.9666   33.8571   49.0113 H   0  0  0  0  0  0  0  0  0  0  0  0
   59.3980   34.5054   49.6013 H   0  0  0  0  0  0  0  0  0  0  0  0
   60.4864   35.5153   48.5690 H   0  0  0  0  0  0  0  0  0  0  0  0
   58.5102   33.4203   47.5412 H   0  0  0  0  0  0  0  0  0  0  0  0
   58.2562   35.2131   47.5430 H   0  0  0  0  0  0  0  0  0  0  0  0
   59.2766   32.0977   47.1055 H   0  0  0  0  0  0  0  0  0  0  0  0
   58.6593   29.7224   47.5185 H   0  0  0  0  0  0  0  0  0  0  0  0
   56.5828   23.6335   47.4992 H   0  0  0  0  0  0  0  0  0  0  0  0
   55.0203   23.9129   46.6406 H   0  0  0  0  0  0  0  0  0  0  0  0
   54.9517   23.7296   44.1095 H   0  0  0  0  0  0  0  0  0  0  0  0
   55.7204   22.3034   42.2130 H   0  0  0  0  0  0  0  0  0  0  0  0
   59.0865   20.9616   44.5752 H   0  0  0  0  0  0  0  0  0  0  0  0
   58.3251   22.3853   46.4762 H   0  0  0  0  0  0  0  0  0  0  0  0
  1  2  2  0
  2  3  1  0
  3  4  2  0
  4  5  1  0
  5  6  2  0
  6  7  1  0
  7  8  2  0
  8  9  1  0
  9 10  2  0
  9 11  2  0
  9 12  1  0
 12 13  1  0
 13 14  1  0
 14 15  1  0
 15 16  1  0
 16 17  1  0
  8 18  1  0
 18 19  2  0
  4 20  1  0
 20 21  1  0
 21 22  1  0
 21 23  2  0
 23 24  1  0
 24 25  1  0
 25 26  2  0
 26 27  1  0
 27 28  2  0
 28 29  1  0
 28 30  1  0
 30 31  2  0
 23  2  1  0
 31 25  1  0
 19  5  1  0
 17 12  1  0
  6 32  1  0
  7 33  1  0
 13 34  1  0
 13 35  1  0
 14 36  1  0
 14 37  1  0
 15 38  1  0
 15 39  1  0
 16 40  1  0
 16 41  1  0
 17 42  1  0
 17 43  1  0
 18 44  1  0
 19 45  1  0
 24 46  1  0
 24 47  1  0
 26 48  1  0
 27 49  1  0
 30 50  1  0
 31 51  1  0
M  CHG  2  20  -1  22  -1
M  END
>  <UniqueID>  (53) 
49

>  <SMILES>  (53) 
O=c1nc(-c2ccc(S(=O)(=O)N3CCCCC3)cc2)[n-]c([O-])c1Cc1ccc(F)cc1

>  <Energy>  (53) 
62.081815406662294

>  <Genealogy>  (53) 
O=c1nc(-c2ccc(S(=O)(=O)N3CCCCC3)cc2)[n-]c([O-])c1Cc1ccc(F)cc1 (protonated)
O=c1nc(-c2ccc(S(=O)(=O)N3CCCCC3)cc2)[n-]c([O-])c1Cc1ccc(F)cc1 (3D coordinates assigned)
O=c1nc(-c2ccc(S(=O)(=O)N3CCCCC3)cc2)[n-]c([O-])c1Cc1ccc(F)cc1 (nonaromatic ring conformer: 62.081815406662294 kcal/mol)

>  <smiles>  (53) 
O=c1nc(-c2ccc(S(=O)(=O)N3CCCCC3)cc2)[nH]c(O)c1Cc1ccc(F)cc1

>  <score_type>  (53) 
oracle

>  <origin>  (53) 
adg

>  <m_score__min__energy>  (53) 
-14.09

>  <m_primary>  (53) 
energy

$$$$
53:0
     RDKit          3D

 52 55  0  0  0  0  0  0  0  0999 V2000
   54.9682   29.9298   43.6281 H   0  0  0  0  0  0  0  0  0  0  0  0
   55.8460   30.0560   44.2790 C   0  0  0  0  0  0  0  0  0  0  0  0
   56.3600   31.2930   44.4930 N   0  0  0  0  0  0  0  0  0  0  0  0
   57.4430   31.4470   45.2950 C   0  0  0  0  0  0  0  0  0  0  0  0
   57.9880   32.7440   45.5160 N   0  0  0  0  0  0  0  0  0  0  0  0
   58.2100   33.6500   46.6570 C   0  0  0  0  0  0  0  0  0  0  0  0
   57.2743   33.9431   47.1555 H   0  0  0  0  0  0  0  0  0  0  0  0
   58.8001   33.2610   47.4999 H   0  0  0  0  0  0  0  0  0  0  0  0
   58.8120   34.7620   45.8570 C   0  0  0  0  0  0  0  0  0  0  0  0
   58.4595   35.8032   45.8968 H   0  0  0  0  0  0  0  0  0  0  0  0
   60.2020   34.9500   46.1190 O   0  0  0  0  0  0  0  0  0  0  0  0
   60.9310   34.2290   47.0770 C   0  0  0  0  0  0  0  0  0  0  0  0
   62.0310   33.4750   46.6470 C   0  0  0  0  0  0  0  0  0  0  0  0
   62.2998   33.4609   45.5804 H   0  0  0  0  0  0  0  0  0  0  0  0
   62.7900   32.7400   47.5640 C   0  0  0  0  0  0  0  0  0  0  0  0
   63.6530   32.1521   47.2180 H   0  0  0  0  0  0  0  0  0  0  0  0
   62.4510   32.7530   48.9210 C   0  0  0  0  0  0  0  0  0  0  0  0
   63.1850   32.0380   49.8090 F   0  0  0  0  0  0  0  0  0  0  0  0
   61.3560   33.5000   49.3600 C   0  0  0  0  0  0  0  0  0  0  0  0
   61.0893   33.5078   50.4271 H   0  0  0  0  0  0  0  0  0  0  0  0
   60.5970   34.2390   48.4450 C   0  0  0  0  0  0  0  0  0  0  0  0
   59.7374   34.8291   48.7955 H   0  0  0  0  0  0  0  0  0  0  0  0
   58.5830   33.8280   44.7130 C   0  0  0  0  0  0  0  0  0  0  0  0
   57.8862   34.2346   43.9653 H   0  0  0  0  0  0  0  0  0  0  0  0
   59.4540   33.5723   44.0918 H   0  0  0  0  0  0  0  0  0  0  0  0
   58.0100   30.3640   45.8850 N   0  0  0  0  0  0  0  0  0  0  0  0
   57.4930   29.1250   45.6840 C   0  0  0  0  0  0  0  0  0  0  0  0
   58.0690   28.1000   46.2420 N   0  0  0  0  0  0  0  0  0  0  0  0
   57.6710   26.7220   46.1340 C   0  0  0  0  0  0  0  0  0  0  0  0
   56.3240   26.3340   46.1710 C   0  0  0  0  0  0  0  0  0  0  0  0
   55.5416   27.1008   46.2702 H   0  0  0  0  0  0  0  0  0  0  0  0
   55.9580   24.9760   46.0830 C   0  0  0  0  0  0  0  0  0  0  0  0
   54.6080   24.5910   46.1120 O   0  0  0  0  0  0  0  0  0  0  0  0
   53.8870   24.0540   45.0070 C   0  0  0  0  0  0  0  0  0  0  0  0
   53.0562   23.4352   45.3771 H   0  0  0  0  0  0  0  0  0  0  0  0
   53.4875   24.8764   44.3953 H   0  0  0  0  0  0  0  0  0  0  0  0
   54.5605   23.4357   44.3953 H   0  0  0  0  0  0  0  0  0  0  0  0
   56.9750   23.9920   45.9740 C   0  0  0  0  0  0  0  0  0  0  0  0
   56.7170   22.6120   45.8620 O   0  0  0  0  0  0  0  0  0  0  0  0
   56.1810   21.7650   46.8720 C   0  0  0  0  0  0  0  0  0  0  0  0
   56.4365   22.1688   47.8628 H   0  0  0  0  0  0  0  0  0  0  0  0
   55.0871   21.7160   46.7670 H   0  0  0  0  0  0  0  0  0  0  0  0
   56.6050   20.7555   46.7670 H   0  0  0  0  0  0  0  0  0  0  0  0
   58.3250   24.3820   45.9840 C   0  0  0  0  0  0  0  0  0  0  0  0
   59.3050   23.3800   45.8970 O   0  0  0  0  0  0  0  0  0  0  0  0
   59.3930   22.4220   44.8460 C   0  0  0  0  0  0  0  0  0  0  0  0
   59.4856   21.4137   45.2758 H   0  0  0  0  0  0  0  0  0  0  0  0
   58.4863   22.4742   44.2254 H   0  0  0  0  0  0  0  0  0  0  0  0
   60.2750   22.6385   44.2254 H   0  0  0  0  0  0  0  0  0  0  0  0
   58.6630   25.7430   46.0750 C   0  0  0  0  0  0  0  0  0  0  0  0
   59.7219   26.0397   46.1000 H   0  0  0  0  0  0  0  0  0  0  0  0
   56.4150   28.9750   44.8680 N   0  0  0  0  0  0  0  0  0  0  0  0
  1  2  1  0
  2  3  2  0
  3  4  1  0
  4  5  1  0
  5  6  1  0
  6  7  1  0
  6  8  1  0
  6  9  1  0
  9 10  1  0
  9 11  1  0
 11 12  1  0
 12 13  2  0
 13 14  1  0
 13 15  1  0
 15 16  1  0
 15 17  2  0
 17 18  1  0
 17 19  1  0
 19 20  1  0
 19 21  2  0
 21 22  1  0
  9 23  1  0
 23 24  1  0
 23 25  1  0
  4 26  2  0
 26 27  1  0
 27 28  2  0
 28 29  1  0
 29 30  2  0
 30 31  1  0
 30 32  1  0
 32 33  1  0
 33 34  1  0
 34 35  1  0
 34 36  1  0
 34 37  1  0
 32 38  2  0
 38 39  1  0
 39 40  1  0
 40 41  1  0
 40 42  1  0
 40 43  1  0
 38 44  1  0
 44 45  1  0
 45 46  1  0
 46 47  1  0
 46 48  1  0
 46 49  1  0
 44 50  2  0
 50 51  1  0
 27 52  1  0
 52  2  1  0
 23  5  1  0
 50 29  1  0
 21 12  1  0
M  CHG  1  52  -1
M  END
>  <UniqueID>  (54) 
50

>  <SMILES>  (54) 
COc1cc(/N=c2/nc(N3CC(Oc4ccc(F)cc4)C3)nc[n-]2)cc(OC)c1OC

>  <Energy>  (54) 
108.11038972544533

>  <Genealogy>  (54) 
COc1cc(N=c2nc(N3CC(Oc4ccc(F)cc4)C3)nc[n-]2)cc(OC)c1OC (protonated)
COc1cc(/N=c2/nc(N3CC(Oc4ccc(F)cc4)C3)nc[n-]2)cc(OC)c1OC (cis-trans isomerization)
COc1cc(/N=c2/nc(N3CC(Oc4ccc(F)cc4)C3)nc[n-]2)cc(OC)c1OC (3D coordinates assigned)
COc1cc(/N=c2/nc(N3CC(Oc4ccc(F)cc4)C3)nc[n-]2)cc(OC)c1OC (nonaromatic ring conformer: 108.11038972544533 kcal/mol)

>  <smiles>  (54) 
COc1cc(N=c2nc(N3CC(Oc4ccc(F)cc4)C3)nc[nH]2)cc(OC)c1OC

>  <score_type>  (54) 
oracle

>  <origin>  (54) 
adg

>  <m_score__min__energy>  (54) 
-8.8300000000000001

>  <m_primary>  (54) 
energy

$$$$
54:0
     RDKit          3D

 43 45  0  0  0  0  0  0  0  0999 V2000
   60.7900   26.5750   46.7800 C   0  0  0  0  0  0  0  0  0  0  0  0
   59.7200   27.3880   46.1190 C   0  0  0  0  0  0  0  0  0  0  0  0
   60.0430   28.2780   45.0820 C   0  0  0  0  0  0  0  0  0  0  0  0
   59.0470   29.0560   44.4860 C   0  0  0  0  0  0  0  0  0  0  0  0
   57.7210   28.9680   44.9330 C   0  0  0  0  0  0  0  0  0  0  0  0
   56.4630   29.9580   44.2010 S   0  0  0  0  0  0  0  0  0  0  0  0
   55.1250   29.3430   44.4970 O   0  0  0  0  0  0  0  0  0  0  0  0
   56.6450   30.0370   42.7110 O   0  0  0  0  0  0  0  0  0  0  0  0
   56.5100   31.5600   44.8630 N   0  0  0  0  0  0  0  0  0  0  0  0
   57.6680   32.1780   45.4420 C   0  0  0  0  0  0  0  0  0  0  0  0
   57.9620   33.5030   45.1000 C   0  0  0  0  0  0  0  0  0  0  0  0
   59.0780   34.1450   45.6450 C   0  0  0  0  0  0  0  0  0  0  0  0
   59.9140   33.4660   46.5420 C   0  0  0  0  0  0  0  0  0  0  0  0
   61.0270   34.1050   47.0860 O   0  0  0  0  0  0  0  0  0  0  0  0
   59.6270   32.1380   46.8880 C   0  0  0  0  0  0  0  0  0  0  0  0
   60.6830   31.2400   48.0290 S   0  0  0  0  0  0  0  0  0  0  0  0
   60.0140   32.0910   49.4540 C   0  0  0  0  0  0  0  0  0  0  0  0
   58.8350   31.6400   50.0550 C   0  0  0  0  0  0  0  0  0  0  0  0
   58.3380   32.3120   51.1740 C   0  0  0  0  0  0  0  0  0  0  0  0
   59.0110   33.4380   51.6710 C   0  0  0  0  0  0  0  0  0  0  0  0
   58.5130   34.1430   52.8960 C   0  0  0  0  0  0  0  0  0  0  0  0
   60.1960   33.8480   51.0430 C   0  0  0  0  0  0  0  0  0  0  0  0
   60.6630   33.1740   49.9580 N   0  0  0  0  0  0  0  0  0  0  0  0
   58.5090   31.4980   46.3410 C   0  0  0  0  0  0  0  0  0  0  0  0
   57.4000   28.0940   45.9790 C   0  0  0  0  0  0  0  0  0  0  0  0
   58.3940   27.3130   46.5740 C   0  0  0  0  0  0  0  0  0  0  0  0
   60.6875   26.6529   47.8724 H   0  0  0  0  0  0  0  0  0  0  0  0
   60.6908   25.5223   46.4765 H   0  0  0  0  0  0  0  0  0  0  0  0
   61.7776   26.9526   46.4765 H   0  0  0  0  0  0  0  0  0  0  0  0
   61.0842   28.3631   44.7375 H   0  0  0  0  0  0  0  0  0  0  0  0
   59.3041   29.7397   43.6635 H   0  0  0  0  0  0  0  0  0  0  0  0
   57.3103   34.0431   44.3974 H   0  0  0  0  0  0  0  0  0  0  0  0
   59.3007   35.1863   45.3690 H   0  0  0  0  0  0  0  0  0  0  0  0
   61.3110   33.9480   48.0450 H   0  0  0  0  0  0  0  0  0  0  0  0
   58.3045   30.7652   49.6509 H   0  0  0  0  0  0  0  0  0  0  0  0
   57.4195   31.9585   51.6652 H   0  0  0  0  0  0  0  0  0  0  0  0
   58.8803   33.6231   53.7931 H   0  0  0  0  0  0  0  0  0  0  0  0
   58.8802   35.1799   52.8971 H   0  0  0  0  0  0  0  0  0  0  0  0
   57.4130   34.1435   52.8971 H   0  0  0  0  0  0  0  0  0  0  0  0
   60.7492   34.7169   51.4290 H   0  0  0  0  0  0  0  0  0  0  0  0
   58.2866   30.4564   46.6160 H   0  0  0  0  0  0  0  0  0  0  0  0
   56.3612   28.0221   46.3336 H   0  0  0  0  0  0  0  0  0  0  0  0
   58.1366   26.6366   47.4024 H   0  0  0  0  0  0  0  0  0  0  0  0
  1  2  1  0
  2  3  2  0
  3  4  1  0
  4  5  2  0
  5  6  1  0
  6  7  2  0
  6  8  2  0
  6  9  1  0
  9 10  1  0
 10 11  2  0
 11 12  1  0
 12 13  2  0
 13 14  1  0
 13 15  1  0
 15 16  1  0
 16 17  1  0
 17 18  2  0
 18 19  1  0
 19 20  2  0
 20 21  1  0
 20 22  1  0
 22 23  2  0
 15 24  2  0
  5 25  1  0
 25 26  2  0
 26  2  1  0
 24 10  1  0
 23 17  1  0
  1 27  1  0
  1 28  1  0
  1 29  1  0
  3 30  1  0
  4 31  1  0
 11 32  1  0
 12 33  1  0
 14 34  1  0
 18 35  1  0
 19 36  1  0
 21 37  1  0
 21 38  1  0
 21 39  1  0
 22 40  1  0
 24 41  1  0
 25 42  1  0
 26 43  1  0
M  CHG  1   9  -1
M  END
>  <UniqueID>  (55) 
51

>  <SMILES>  (55) 
Cc1ccc(S(=O)(=O)[N-]c2ccc(O)c(Sc3ccc(C)cn3)c2)cc1

>  <Energy>  (55) 
42.398713313412294

>  <Genealogy>  (55) 
Cc1ccc(S(=O)(=O)[N-]c2ccc(O)c(Sc3ccc(C)cn3)c2)cc1 (protonated)
Cc1ccc(S(=O)(=O)[N-]c2ccc(O)c(Sc3ccc(C)cn3)c2)cc1 (3D coordinates assigned)
Cc1ccc(S(=O)(=O)[N-]c2ccc(O)c(Sc3ccc(C)cn3)c2)cc1 (optimized conformer: 42.398713313412294 kcal/mol)

>  <smiles>  (55) 
Cc1ccc(S(=O)(=O)Nc2ccc(O)c(Sc3ccc(C)cn3)c2)cc1

>  <score_type>  (55) 
oracle

>  <origin>  (55) 
adg

>  <m_score__min__energy>  (55) 
-9.3900000000000006

>  <m_primary>  (55) 
energy

$$$$
55:0
     RDKit          3D

 53 57  0  0  0  0  0  0  0  0999 V2000
   56.9340   19.5960   43.0990 H   0  0  0  0  0  0  0  0  0  0  0  0
   56.1240   20.0890   43.4560 O   0  0  0  0  0  0  0  0  0  0  0  0
   56.2540   21.1690   44.3280 C   0  0  0  0  0  0  0  0  0  0  0  0
   57.3710   22.0110   44.2610 C   0  0  0  0  0  0  0  0  0  0  0  0
   58.1540   21.8235   43.5115 H   0  0  0  0  0  0  0  0  0  0  0  0
   57.4950   23.0880   45.1420 C   0  0  0  0  0  0  0  0  0  0  0  0
   58.3710   23.7500   45.0766 H   0  0  0  0  0  0  0  0  0  0  0  0
   56.5040   23.3310   46.1140 C   0  0  0  0  0  0  0  0  0  0  0  0
   56.6160   24.4780   47.0490 C   0  0  0  0  0  0  0  0  0  0  0  0
   56.3330   24.3060   48.2670 O   0  0  0  0  0  0  0  0  0  0  0  0
   57.0250   25.8300   46.6010 C   0  0  0  0  0  0  0  0  0  0  0  0
   58.3760   26.2320   46.7620 C   0  0  0  0  0  0  0  0  0  0  0  0
   59.0975   25.5340   47.2117 H   0  0  0  0  0  0  0  0  0  0  0  0
   58.8120   27.5160   46.3540 C   0  0  0  0  0  0  0  0  0  0  0  0
   60.2260   27.9380   46.5060 C   0  0  0  0  0  0  0  0  0  0  0  0
   61.1360   27.2110   46.0220 O   0  0  0  0  0  0  0  0  0  0  0  0
   60.6020   29.1880   47.2140 C   0  0  0  0  0  0  0  0  0  0  0  0
   60.8940   30.3540   46.4830 C   0  0  0  0  0  0  0  0  0  0  0  0
   60.8330   30.3386   45.3848 H   0  0  0  0  0  0  0  0  0  0  0  0
   61.2610   31.5320   47.1400 C   0  0  0  0  0  0  0  0  0  0  0  0
   61.4813   32.4397   46.5590 H   0  0  0  0  0  0  0  0  0  0  0  0
   61.3480   31.5570   48.5330 C   0  0  0  0  0  0  0  0  0  0  0  0
   61.6302   32.4863   49.0496 H   0  0  0  0  0  0  0  0  0  0  0  0
   61.0770   30.4030   49.2710 C   0  0  0  0  0  0  0  0  0  0  0  0
   61.1561   30.4234   50.3680 H   0  0  0  0  0  0  0  0  0  0  0  0
   60.7050   29.2200   48.6210 C   0  0  0  0  0  0  0  0  0  0  0  0
   60.4300   28.0890   49.3820 O   0  0  0  0  0  0  0  0  0  0  0  0
   57.8570   28.3500   45.7580 C   0  0  0  0  0  0  0  0  0  0  0  0
   58.0290   29.5940   45.2870 N   0  0  0  0  0  0  0  0  0  0  0  0
   56.7910   29.9160   44.8260 C   0  0  0  0  0  0  0  0  0  0  0  0
   56.5070   31.2170   44.2000 C   0  0  0  0  0  0  0  0  0  0  0  0
   55.4751   31.4478   43.8970 H   0  0  0  0  0  0  0  0  0  0  0  0
   57.4650   32.1300   43.9870 C   0  0  0  0  0  0  0  0  0  0  0  0
   57.8301   32.2699   42.9588 H   0  0  0  0  0  0  0  0  0  0  0  0
   58.0600   32.9620   45.0610 C   0  0  0  0  0  0  0  0  0  0  0  0
   58.8860   34.0730   44.7870 C   0  0  0  0  0  0  0  0  0  0  0  0
   59.1132   34.3424   43.7450 H   0  0  0  0  0  0  0  0  0  0  0  0
   59.4170   34.8330   45.8340 C   0  0  0  0  0  0  0  0  0  0  0  0
   60.0653   35.6937   45.6128 H   0  0  0  0  0  0  0  0  0  0  0  0
   59.1270   34.5030   47.1580 C   0  0  0  0  0  0  0  0  0  0  0  0
   59.5511   35.0996   47.9791 H   0  0  0  0  0  0  0  0  0  0  0  0
   58.2980   33.4150   47.4410 C   0  0  0  0  0  0  0  0  0  0  0  0
   58.0660   33.1576   48.4850 H   0  0  0  0  0  0  0  0  0  0  0  0
   57.7630   32.6530   46.3980 C   0  0  0  0  0  0  0  0  0  0  0  0
   57.1031   31.8033   46.6271 H   0  0  0  0  0  0  0  0  0  0  0  0
   55.8610   28.9380   44.9880 N   0  0  0  0  0  0  0  0  0  0  0  0
   56.5630   27.9620   45.5820 C   0  0  0  0  0  0  0  0  0  0  0  0
   56.1040   26.7100   45.9780 C   0  0  0  0  0  0  0  0  0  0  0  0
   54.7860   26.3390   45.7360 O   0  0  0  0  0  0  0  0  0  0  0  0
   55.3790   22.4890   46.1640 C   0  0  0  0  0  0  0  0  0  0  0  0
   54.5887   22.6769   46.9056 H   0  0  0  0  0  0  0  0  0  0  0  0
   55.2580   21.4150   45.2780 C   0  0  0  0  0  0  0  0  0  0  0  0
   54.3754   20.7604   45.3282 H   0  0  0  0  0  0  0  0  0  0  0  0
  1  2  1  0
  2  3  1  0
  3  4  2  0
  4  5  1  0
  4  6  1  0
  6  7  1  0
  6  8  2  0
  8  9  1  0
  9 10  2  0
  9 11  1  0
 11 12  2  0
 12 13  1  0
 12 14  1  0
 14 15  1  0
 15 16  2  0
 15 17  1  0
 17 18  2  0
 18 19  1  0
 18 20  1  0
 20 21  1  0
 20 22  2  0
 22 23  1  0
 22 24  1  0
 24 25  1  0
 24 26  2  0
 26 27  1  0
 14 28  2  0
 28 29  1  0
 29 30  1  0
 30 31  1  0
 31 32  1  0
 31 33  2  0
 33 34  1  0
 33 35  1  0
 35 36  2  0
 36 37  1  0
 36 38  1  0
 38 39  1  0
 38 40  2  0
 40 41  1  0
 40 42  1  0
 42 43  1  0
 42 44  2  0
 44 45  1  0
 30 46  2  0
 46 47  1  0
 47 48  2  0
 48 49  1  0
  8 50  1  0
 50 51  1  0
 50 52  2  0
 52 53  1  0
 52  3  1  0
 48 11  1  0
 26 17  1  0
 47 28  1  0
 44 35  1  0
M  CHG  3  27  -1  29  -1  49  -1
M  END
>  <UniqueID>  (56) 
52

>  <SMILES>  (56) 
O=C(c1ccc(O)cc1)c1cc(C(=O)c2ccccc2[O-])c2[n-]c(/C=C/c3ccccc3)nc2c1[O-]

>  <Energy>  (56) 
110.80111207469909

>  <Genealogy>  (56) 
O=C(c1ccc(O)cc1)c1cc(C(=O)c2ccccc2[O-])c2[n-]c(C=Cc3ccccc3)nc2c1[O-] (protonated)
O=C(c1ccc(O)cc1)c1cc(C(=O)c2ccccc2[O-])c2[n-]c(/C=C/c3ccccc3)nc2c1[O-] (cis-trans isomerization)
O=C(c1ccc(O)cc1)c1cc(C(=O)c2ccccc2[O-])c2[n-]c(/C=C/c3ccccc3)nc2c1[O-] (3D coordinates assigned)
O=C(c1ccc(O)cc1)c1cc(C(=O)c2ccccc2[O-])c2[n-]c(/C=C/c3ccccc3)nc2c1[O-] (optimized conformer: 110.80111207469909 kcal/mol)

>  <smiles>  (56) 
O=C(c1ccc(O)cc1)c1cc(C(=O)c2ccccc2O)c2[nH]c(C=Cc3ccccc3)nc2c1O

>  <score_type>  (56) 
oracle

>  <origin>  (56) 
adg

>  <m_score__min__energy>  (56) 
-17.039999999999999

>  <m_primary>  (56) 
energy

$$$$
56:0
     RDKit          3D

 74 77  0  0  0  0  0  0  0  0999 V2000
   60.3290   34.2360   49.6460 C   0  0  0  0  0  0  0  0  0  0  0  0
   59.9940   34.8950   48.4270 O   0  0  0  0  0  0  0  0  0  0  0  0
   59.3830   34.2690   47.3310 C   0  0  0  0  0  0  0  0  0  0  0  0
   59.7460   34.5530   45.9990 C   0  0  0  0  0  0  0  0  0  0  0  0
   59.1080   33.9010   44.9390 C   0  0  0  0  0  0  0  0  0  0  0  0
   58.1080   32.9490   45.1920 C   0  0  0  0  0  0  0  0  0  0  0  0
   57.3950   32.2810   44.0510 C   0  0  0  0  0  0  0  0  0  0  0  0
   56.8080   31.0180   44.5140 N   0  0  0  0  0  0  0  0  0  0  0  0
   57.8200   30.0700   45.0100 C   0  0  0  0  0  0  0  0  0  0  0  0
   57.9590   28.8080   44.1230 C   0  0  2  0  0  0  0  0  0  0  0  0
   57.1600   28.9530   42.9770 O   0  0  0  0  0  0  0  0  0  0  0  0
   57.5690   27.5020   44.8640 C   0  0  1  0  0  0  0  0  0  0  0  0
   58.0120   26.2380   44.1040 C   0  0  0  0  0  0  0  0  0  0  0  0
   57.0620   25.0960   44.3620 C   0  0  0  0  0  0  0  0  0  0  0  0
   56.2340   25.1010   45.4970 C   0  0  0  0  0  0  0  0  0  0  0  0
   55.3160   24.0680   45.7050 C   0  0  0  0  0  0  0  0  0  0  0  0
   55.2160   23.0250   44.7790 C   0  0  0  0  0  0  0  0  0  0  0  0
   56.0270   23.0180   43.6420 C   0  0  0  0  0  0  0  0  0  0  0  0
   56.9440   24.0510   43.4290 C   0  0  0  0  0  0  0  0  0  0  0  0
   58.1320   27.4730   46.2150 N   0  0  0  0  0  0  0  0  0  0  0  0
   59.5060   27.7300   46.5280 C   0  0  0  0  0  0  0  0  0  0  0  0
   60.4130   27.0320   45.9970 O   0  0  0  0  0  0  0  0  0  0  0  0
   59.8590   28.8400   47.4430 C   0  0  0  0  0  0  0  0  0  0  0  0
   60.7680   29.8340   47.0410 C   0  0  0  0  0  0  0  0  0  0  0  0
   61.0370   30.9330   47.8700 C   0  0  0  0  0  0  0  0  0  0  0  0
   61.9930   32.0010   47.4250 C   0  0  0  0  0  0  0  0  0  0  0  0
   60.4290   31.0160   49.1320 C   0  0  0  0  0  0  0  0  0  0  0  0
   59.5440   30.0130   49.5640 C   0  0  0  0  0  0  0  0  0  0  0  0
   58.8720   30.0960   50.8350 N   0  0  0  0  0  0  0  0  0  0  0  0
   57.7790   30.9870   51.1160 C   0  0  0  0  0  0  0  0  0  0  0  0
   57.6510   32.0480   50.4470 O   0  0  0  0  0  0  0  0  0  0  0  0
   56.8290   30.6980   52.2180 C   0  0  0  0  0  0  0  0  0  0  0  0
   55.4420   30.6840   51.9720 C   0  0  0  0  0  0  0  0  0  0  0  0
   54.5400   30.4120   53.0070 C   0  0  0  0  0  0  0  0  0  0  0  0
   55.0110   30.1470   54.2940 C   0  0  0  0  0  0  0  0  0  0  0  0
   56.3850   30.1430   54.5480 C   0  0  0  0  0  0  0  0  0  0  0  0
   57.2900   30.4120   53.5180 C   0  0  0  0  0  0  0  0  0  0  0  0
   59.2510   28.9420   48.7060 C   0  0  0  0  0  0  0  0  0  0  0  0
   57.7370   32.6770   46.5180 C   0  0  0  0  0  0  0  0  0  0  0  0
   58.3760   33.3280   47.5780 C   0  0  0  0  0  0  0  0  0  0  0  0
   60.0133   34.8570   50.4973 H   0  0  0  0  0  0  0  0  0  0  0  0
   59.8154   33.2643   49.6906 H   0  0  0  0  0  0  0  0  0  0  0  0
   61.4167   34.0783   49.6906 H   0  0  0  0  0  0  0  0  0  0  0  0
   60.5350   35.2911   45.7922 H   0  0  0  0  0  0  0  0  0  0  0  0
   59.3911   34.1353   43.9022 H   0  0  0  0  0  0  0  0  0  0  0  0
   56.5977   32.9416   43.6796 H   0  0  0  0  0  0  0  0  0  0  0  0
   58.1099   32.0779   43.2401 H   0  0  0  0  0  0  0  0  0  0  0  0
   56.2630   30.5820   43.7350 H   0  0  0  0  0  0  0  0  0  0  0  0
   58.7927   30.5826   45.0438 H   0  0  0  0  0  0  0  0  0  0  0  0
   57.4948   29.7357   46.0062 H   0  0  0  0  0  0  0  0  0  0  0  0
   59.0207   28.7190   43.8495 H   0  0  0  0  0  0  0  0  0  0  0  0
   57.3070   29.8720   42.6340 H   0  0  0  0  0  0  0  0  0  0  0  0
   56.4705   27.5005   44.9214 H   0  0  0  0  0  0  0  0  0  0  0  0
   58.0313   26.4541   43.0256 H   0  0  0  0  0  0  0  0  0  0  0  0
   59.0135   25.9489   44.4553 H   0  0  0  0  0  0  0  0  0  0  0  0
   56.3086   25.9219   46.2254 H   0  0  0  0  0  0  0  0  0  0  0  0
   54.6723   24.0754   46.5969 H   0  0  0  0  0  0  0  0  0  0  0  0
   54.4976   22.2089   44.9463 H   0  0  0  0  0  0  0  0  0  0  0  0
   55.9439   22.1983   42.9131 H   0  0  0  0  0  0  0  0  0  0  0  0
   57.5755   24.0464   42.5283 H   0  0  0  0  0  0  0  0  0  0  0  0
   61.2730   29.7492   46.0674 H   0  0  0  0  0  0  0  0  0  0  0  0
   62.4316   32.4910   48.3067 H   0  0  0  0  0  0  0  0  0  0  0  0
   62.7932   31.5483   46.8211 H   0  0  0  0  0  0  0  0  0  0  0  0
   61.4548   32.7464   46.8211 H   0  0  0  0  0  0  0  0  0  0  0  0
   60.6465   31.8720   49.7878 H   0  0  0  0  0  0  0  0  0  0  0  0
   59.2650   29.5420   51.6300 H   0  0  0  0  0  0  0  0  0  0  0  0
   55.0651   30.8884   50.9590 H   0  0  0  0  0  0  0  0  0  0  0  0
   53.4585   30.4070   52.8060 H   0  0  0  0  0  0  0  0  0  0  0  0
   54.3005   29.9413   55.1082 H   0  0  0  0  0  0  0  0  0  0  0  0
   56.7551   29.9276   55.5612 H   0  0  0  0  0  0  0  0  0  0  0  0
   58.3705   30.4004   53.7238 H   0  0  0  0  0  0  0  0  0  0  0  0
   58.5350   28.1710   49.0266 H   0  0  0  0  0  0  0  0  0  0  0  0
   56.9395   31.9480   46.7245 H   0  0  0  0  0  0  0  0  0  0  0  0
   58.0853   33.0990   48.6139 H   0  0  0  0  0  0  0  0  0  0  0  0
  1  2  1  0
  2  3  1  0
  3  4  2  0
  4  5  1  0
  5  6  2  0
  6  7  1  0
  7  8  1  0
  8  9  1  0
  9 10  1  0
 10 11  1  0
 10 12  1  0
 12 13  1  0
 13 14  1  0
 14 15  2  0
 15 16  1  0
 16 17  2  0
 17 18  1  0
 18 19  2  0
 12 20  1  0
 20 21  1  0
 21 22  2  0
 21 23  1  0
 23 24  2  0
 24 25  1  0
 25 26  1  0
 25 27  2  0
 27 28  1  0
 28 29  1  0
 29 30  1  0
 30 31  2  0
 30 32  1  0
 32 33  2  0
 33 34  1  0
 34 35  2  0
 35 36  1  0
 36 37  2  0
 28 38  2  0
  6 39  1  0
 39 40  2  0
 40  3  1  0
 19 14  1  0
 38 23  1  0
 37 32  1  0
  1 41  1  0
  1 42  1  0
  1 43  1  0
  4 44  1  0
  5 45  1  0
  7 46  1  0
  7 47  1  0
  8 48  1  0
  9 49  1  0
  9 50  1  0
 10 51  1  6
 11 52  1  0
 12 53  1  1
 13 54  1  0
 13 55  1  0
 15 56  1  0
 16 57  1  0
 17 58  1  0
 18 59  1  0
 19 60  1  0
 24 61  1  0
 26 62  1  0
 26 63  1  0
 26 64  1  0
 27 65  1  0
 29 66  1  0
 33 67  1  0
 34 68  1  0
 35 69  1  0
 36 70  1  0
 37 71  1  0
 38 72  1  0
 39 73  1  0
 40 74  1  0
M  CHG  1  20  -1
M  END
>  <UniqueID>  (57) 
53

>  <SMILES>  (57) 
COc1ccc(CNC[C@H](O)[C@@H](Cc2ccccc2)[N-]C(=O)c2cc(C)cc(NC(=O)c3ccccc3)c2)cc1

>  <Energy>  (57) 
78.90620798948173

>  <Genealogy>  (57) 
COc1ccc(CNCC(O)C(Cc2ccccc2)[N-]C(=O)c2cc(C)cc(NC(=O)c3ccccc3)c2)cc1 (protonated)
COc1ccc(CNC[C@H](O)[C@@H](Cc2ccccc2)[N-]C(=O)c2cc(C)cc(NC(=O)c3ccccc3)c2)cc1 (chirality)
COc1ccc(CNC[C@H](O)[C@@H](Cc2ccccc2)[N-]C(=O)c2cc(C)cc(NC(=O)c3ccccc3)c2)cc1 (3D coordinates assigned)
COc1ccc(CNC[C@H](O)[C@@H](Cc2ccccc2)[N-]C(=O)c2cc(C)cc(NC(=O)c3ccccc3)c2)cc1 (optimized conformer: 78.90620798948173 kcal/mol)

>  <smiles>  (57) 
COc1ccc(CNCC(O)C(Cc2ccccc2)NC(=O)c2cc(C)cc(NC(=O)c3ccccc3)c2)cc1

>  <score_type>  (57) 
oracle

>  <origin>  (57) 
adg

>  <m_score__min__energy>  (57) 
-11.359999999999999

>  <m_primary>  (57) 
energy

$$$$
57:0
     RDKit          3D

 42 45  0  0  0  0  0  0  0  0999 V2000
   59.0280   22.5910   44.9630 C   0  0  0  0  0  0  0  0  0  0  0  0
   59.0740   23.5920   45.9750 O   0  0  0  0  0  0  0  0  0  0  0  0
   58.7620   24.9440   45.7670 C   0  0  0  0  0  0  0  0  0  0  0  0
   57.6860   25.3550   44.9610 C   0  0  0  0  0  0  0  0  0  0  0  0
   57.4030   26.7120   44.7940 C   0  0  0  0  0  0  0  0  0  0  0  0
   58.1750   27.6930   45.4480 C   0  0  0  0  0  0  0  0  0  0  0  0
   59.2960   27.2780   46.2040 C   0  0  0  0  0  0  0  0  0  0  0  0
   59.5600   25.9120   46.3820 C   0  0  0  0  0  0  0  0  0  0  0  0
   60.1860   28.3070   46.8570 C   0  0  0  0  0  0  0  0  0  0  0  0
   60.3220   29.5460   45.9650 C   0  0  0  0  0  0  0  0  0  0  0  0
   58.9680   30.0610   45.5610 C   0  0  0  0  0  0  0  0  0  0  0  0
   58.7810   31.3970   45.4090 N   0  0  0  0  0  0  0  0  0  0  0  0
   57.5740   31.8970   45.0510 C   0  0  0  0  0  0  0  0  0  0  0  0
   57.3620   33.6630   44.8550 S   0  0  0  0  0  0  0  0  0  0  0  0
   59.1520   33.9790   44.7300 C   0  0  0  0  0  0  0  0  0  0  0  0
   59.7370   34.0870   46.1090 C   0  0  0  0  0  0  0  0  0  0  0  0
   58.9290   34.4630   47.1940 C   0  0  0  0  0  0  0  0  0  0  0  0
   59.4680   34.5330   48.4820 C   0  0  0  0  0  0  0  0  0  0  0  0
   60.8130   34.2180   48.6970 C   0  0  0  0  0  0  0  0  0  0  0  0
   61.6200   33.8290   47.6240 C   0  0  0  0  0  0  0  0  0  0  0  0
   61.0850   33.7590   46.3330 C   0  0  0  0  0  0  0  0  0  0  0  0
   56.5210   31.0650   44.8630 N   0  0  0  0  0  0  0  0  0  0  0  0
   56.6510   29.7200   44.9920 C   0  0  0  0  0  0  0  0  0  0  0  0
   55.6280   28.9980   44.8660 O   0  0  0  0  0  0  0  0  0  0  0  0
   57.9130   29.1610   45.3040 C   0  0  0  0  0  0  0  0  0  0  0  0
   58.9823   21.5971   45.4322 H   0  0  0  0  0  0  0  0  0  0  0  0
   58.1359   22.7426   44.3376 H   0  0  0  0  0  0  0  0  0  0  0  0
   59.9303   22.6601   44.3376 H   0  0  0  0  0  0  0  0  0  0  0  0
   57.0621   24.6015   44.4579 H   0  0  0  0  0  0  0  0  0  0  0  0
   56.5691   27.0185   44.1454 H   0  0  0  0  0  0  0  0  0  0  0  0
   60.4050   25.5993   47.0130 H   0  0  0  0  0  0  0  0  0  0  0  0
   59.7491   28.6026   47.8223 H   0  0  0  0  0  0  0  0  0  0  0  0
   61.1832   27.8683   47.0093 H   0  0  0  0  0  0  0  0  0  0  0  0
   60.8571   30.3321   46.5179 H   0  0  0  0  0  0  0  0  0  0  0  0
   60.8804   29.2697   45.0584 H   0  0  0  0  0  0  0  0  0  0  0  0
   59.6342   33.1504   44.1907 H   0  0  0  0  0  0  0  0  0  0  0  0
   59.3220   34.9188   44.1842 H   0  0  0  0  0  0  0  0  0  0  0  0
   57.8682   34.7033   47.0300 H   0  0  0  0  0  0  0  0  0  0  0  0
   58.8330   34.8363   49.3274 H   0  0  0  0  0  0  0  0  0  0  0  0
   61.2363   34.2763   49.7106 H   0  0  0  0  0  0  0  0  0  0  0  0
   62.6772   33.5775   47.7948 H   0  0  0  0  0  0  0  0  0  0  0  0
   61.7209   33.4465   45.4916 H   0  0  0  0  0  0  0  0  0  0  0  0
  1  2  1  0
  2  3  1  0
  3  4  2  0
  4  5  1  0
  5  6  2  0
  6  7  1  0
  7  8  2  0
  7  9  1  0
  9 10  1  0
 10 11  1  0
 11 12  1  0
 12 13  1  0
 13 14  1  0
 14 15  1  0
 15 16  1  0
 16 17  2  0
 17 18  1  0
 18 19  2  0
 19 20  1  0
 20 21  2  0
 13 22  2  0
 22 23  1  0
 23 24  2  0
 23 25  1  0
  8  3  1  0
 25 11  2  0
 25  6  1  0
 21 16  1  0
  1 26  1  0
  1 27  1  0
  1 28  1  0
  4 29  1  0
  5 30  1  0
  8 31  1  0
  9 32  1  0
  9 33  1  0
 10 34  1  0
 10 35  1  0
 15 36  1  0
 15 37  1  0
 17 38  1  0
 18 39  1  0
 19 40  1  0
 20 41  1  0
 21 42  1  0
M  CHG  1  12  -1
M  END
>  <UniqueID>  (58) 
54

>  <SMILES>  (58) 
COc1ccc2c(c1)CCc1[n-]c(SCc3ccccc3)nc(=O)c1-2

>  <Energy>  (58) 
50.42795678266548

>  <Genealogy>  (58) 
COc1ccc2c(c1)CCc1[n-]c(SCc3ccccc3)nc(=O)c1-2 (protonated)
COc1ccc2c(c1)CCc1[n-]c(SCc3ccccc3)nc(=O)c1-2 (3D coordinates assigned)
COc1ccc2c(c1)CCc1[n-]c(SCc3ccccc3)nc(=O)c1-2 (nonaromatic ring conformer: 50.42795678266548 kcal/mol)

>  <smiles>  (58) 
COc1ccc2c(c1)CCc1[nH]c(SCc3ccccc3)nc(=O)c1-2

>  <score_type>  (58) 
oracle

>  <origin>  (58) 
adg

>  <m_score__min__energy>  (58) 
-10.25

>  <m_primary>  (58) 
energy

$$$$
58:0
     RDKit          3D

 44 46  0  0  0  0  0  0  0  0999 V2000
   55.8860   30.8340   44.4940 O   0  0  0  0  0  0  0  0  0  0  0  0
   57.1440   30.9300   44.5180 C   0  0  0  0  0  0  0  0  0  0  0  0
   57.9500   29.7130   44.1520 C   0  0  0  0  0  0  0  0  0  0  0  0
   57.7430   28.6150   45.1660 C   0  0  0  0  0  0  0  0  0  0  0  0
   56.5990   28.3470   45.5080 O   0  0  0  0  0  0  0  0  0  0  0  0
   58.8730   27.8720   45.7080 N   0  0  0  0  0  0  0  0  0  0  0  0
   60.1700   28.3560   45.2170 C   0  0  0  0  0  0  0  0  0  0  0  0
   60.5500   29.7510   45.7380 C   0  0  0  0  0  0  0  0  0  0  0  0
   60.0840   30.0610   47.1080 N   0  0  0  0  0  0  0  0  0  0  0  0
   60.4550   31.3460   47.7030 C   0  0  0  0  0  0  0  0  0  0  0  0
   61.4710   32.1560   47.1350 C   0  0  0  0  0  0  0  0  0  0  0  0
   61.8210   33.3820   47.7070 C   0  0  0  0  0  0  0  0  0  0  0  0
   61.1740   33.8320   48.8550 C   0  0  0  0  0  0  0  0  0  0  0  0
   60.1760   33.0550   49.4390 C   0  0  0  0  0  0  0  0  0  0  0  0
   59.8190   31.8270   48.8750 C   0  0  0  0  0  0  0  0  0  0  0  0
   59.1360   29.1890   47.8320 C   0  0  0  0  0  0  0  0  0  0  0  0
   58.8740   27.8260   47.1760 C   0  0  0  0  0  0  0  0  0  0  0  0
   57.7680   32.2120   44.9500 C   0  0  0  0  0  0  0  0  0  0  0  0
   58.5260   33.0060   44.0640 C   0  0  0  0  0  0  0  0  0  0  0  0
   59.1090   34.2000   44.5000 C   0  0  0  0  0  0  0  0  0  0  0  0
   58.9430   34.6220   45.8200 C   0  0  0  0  0  0  0  0  0  0  0  0
   58.1910   33.8510   46.7080 C   0  0  0  0  0  0  0  0  0  0  0  0
   57.6070   32.6560   46.2790 C   0  0  0  0  0  0  0  0  0  0  0  0
   57.6340   29.3545   43.1612 H   0  0  0  0  0  0  0  0  0  0  0  0
   59.0158   29.9849   44.1359 H   0  0  0  0  0  0  0  0  0  0  0  0
   58.7930   26.8790   45.3890 H   0  0  0  0  0  0  0  0  0  0  0  0
   60.9474   27.6446   45.5323 H   0  0  0  0  0  0  0  0  0  0  0  0
   60.0890   28.4342   44.1228 H   0  0  0  0  0  0  0  0  0  0  0  0
   61.6470   29.8317   45.7254 H   0  0  0  0  0  0  0  0  0  0  0  0
   60.0485   30.4713   45.0749 H   0  0  0  0  0  0  0  0  0  0  0  0
   61.9923   31.8135   46.2290 H   0  0  0  0  0  0  0  0  0  0  0  0
   62.6113   33.9944   47.2483 H   0  0  0  0  0  0  0  0  0  0  0  0
   61.4504   34.7993   49.3000 H   0  0  0  0  0  0  0  0  0  0  0  0
   59.6670   33.4093   50.3475 H   0  0  0  0  0  0  0  0  0  0  0  0
   59.0309   31.2234   49.3488 H   0  0  0  0  0  0  0  0  0  0  0  0
   59.5389   29.0103   48.8399 H   0  0  0  0  0  0  0  0  0  0  0  0
   58.1720   29.7188   47.8332 H   0  0  0  0  0  0  0  0  0  0  0  0
   59.6580   27.1265   47.5017 H   0  0  0  0  0  0  0  0  0  0  0  0
   57.8702   27.5038   47.4899 H   0  0  0  0  0  0  0  0  0  0  0  0
   58.6597   32.6831   43.0210 H   0  0  0  0  0  0  0  0  0  0  0  0
   59.7004   34.8087   43.8002 H   0  0  0  0  0  0  0  0  0  0  0  0
   59.4042   35.5610   46.1601 H   0  0  0  0  0  0  0  0  0  0  0  0
   58.0578   34.1847   47.7477 H   0  0  0  0  0  0  0  0  0  0  0  0
   57.0154   32.0552   46.9854 H   0  0  0  0  0  0  0  0  0  0  0  0
  1  2  2  0
  2  3  1  0
  3  4  1  0
  4  5  2  0
  4  6  1  0
  6  7  1  0
  7  8  1  0
  8  9  1  0
  9 10  1  0
 10 11  2  0
 11 12  1  0
 12 13  2  0
 13 14  1  0
 14 15  2  0
  9 16  1  0
 16 17  1  0
  2 18  1  0
 18 19  2  0
 19 20  1  0
 20 21  2  0
 21 22  1  0
 22 23  2  0
 17  6  1  0
 23 18  1  0
 15 10  1  0
  3 24  1  0
  3 25  1  0
  6 26  1  0
  7 27  1  0
  7 28  1  0
  8 29  1  0
  8 30  1  0
 11 31  1  0
 12 32  1  0
 13 33  1  0
 14 34  1  0
 15 35  1  0
 16 36  1  0
 16 37  1  0
 17 38  1  0
 17 39  1  0
 19 40  1  0
 20 41  1  0
 21 42  1  0
 22 43  1  0
 23 44  1  0
M  CHG  1   6   1
M  END
>  <UniqueID>  (59) 
55

>  <SMILES>  (59) 
O=C(CC(=O)[NH+]1CCN(c2ccccc2)CC1)c1ccccc1

>  <Energy>  (59) 
57.93624601033839

>  <Genealogy>  (59) 
O=C(CC(=O)[NH+]1CCN(c2ccccc2)CC1)c1ccccc1 (protonated)
O=C(CC(=O)[NH+]1CCN(c2ccccc2)CC1)c1ccccc1 (3D coordinates assigned)
O=C(CC(=O)[NH+]1CCN(c2ccccc2)CC1)c1ccccc1 (nonaromatic ring conformer: 57.93624601033839 kcal/mol)

>  <smiles>  (59) 
O=C(CC(=O)N1CCN(c2ccccc2)CC1)c1ccccc1

>  <score_type>  (59) 
oracle

>  <origin>  (59) 
adg

>  <m_score__min__energy>  (59) 
-6.9900000000000002

>  <m_primary>  (59) 
energy

$$$$
59:0
     RDKit          3D

 84 88  0  0  0  0  0  0  0  0999 V2000
   51.0360   22.0720   50.6100 C   0  0  0  0  0  0  0  0  0  0  0  0
   52.1170   22.9140   50.2160 O   0  0  0  0  0  0  0  0  0  0  0  0
   53.4760   22.6080   50.3940 C   0  0  0  0  0  0  0  0  0  0  0  0
   54.3650   22.5340   49.3030 C   0  0  0  0  0  0  0  0  0  0  0  0
   55.7070   22.1850   49.4990 C   0  0  0  0  0  0  0  0  0  0  0  0
   56.6470   22.1740   48.3650 C   0  0  0  0  0  0  0  0  0  0  0  0
   57.1360   21.0790   47.9810 O   0  0  0  0  0  0  0  0  0  0  0  0
   57.0520   23.3840   47.7110 N   0  0  0  0  0  0  0  0  0  0  0  0
   56.1440   24.3560   47.1060 C   0  0  0  0  0  0  0  0  0  0  0  0
   56.9140   25.5460   46.5930 C   0  0  0  0  0  0  0  0  0  0  0  0
   58.3210   25.5450   46.6200 C   0  0  0  0  0  0  0  0  0  0  0  0
   59.0370   26.6350   46.1170 C   0  0  0  0  0  0  0  0  0  0  0  0
   58.3570   27.7320   45.5820 C   0  0  0  0  0  0  0  0  0  0  0  0
   56.9610   27.7420   45.5480 C   0  0  0  0  0  0  0  0  0  0  0  0
   56.2380   26.6540   46.0460 C   0  0  0  0  0  0  0  0  0  0  0  0
   54.8490   26.6800   45.9950 O   0  0  0  0  0  0  0  0  0  0  0  0
   56.1520   21.8430   50.7810 C   0  0  0  0  0  0  0  0  0  0  0  0
   55.2840   21.9230   51.8690 C   0  0  0  0  0  0  0  0  0  0  0  0
   53.9620   22.3460   51.6940 C   0  0  0  0  0  0  0  0  0  0  0  0
   53.1210   22.4430   52.8520 N   0  0  0  0  0  0  0  0  0  0  0  0
   53.0270   23.5890   53.7050 C   0  0  0  0  0  0  0  0  0  0  0  0
   51.9170   24.1610   53.8810 O   0  0  0  0  0  0  0  0  0  0  0  0
   54.2600   24.0960   54.3960 C   0  0  0  0  0  0  0  0  0  0  0  0
   54.5570   25.5190   53.9970 C   0  0  0  0  0  0  0  0  0  0  0  0
   55.8440   26.0460   54.1870 C   0  0  0  0  0  0  0  0  0  0  0  0
   56.0930   27.4020   53.9580 C   0  0  0  0  0  0  0  0  0  0  0  0
   55.0570   28.2430   53.5380 C   0  0  0  0  0  0  0  0  0  0  0  0
   55.2710   29.6540   53.4580 N   0  0  0  0  0  0  0  0  0  0  0  0
   55.3150   30.3720   52.2150 C   0  0  0  0  0  0  0  0  0  0  0  0
   54.2300   30.6360   51.6320 O   0  0  0  0  0  0  0  0  0  0  0  0
   56.6190   30.9010   51.6520 C   0  0  0  0  0  0  0  0  0  0  0  0
   57.7580   29.8950   51.9080 C   0  0  0  0  0  0  0  0  0  0  0  0
   59.0260   30.3450   51.1640 C   0  0  0  0  0  0  0  0  0  0  0  0
   59.1820   31.8080   51.2060 N   0  0  0  0  0  0  0  0  0  0  0  0
   59.9720   32.4580   50.1930 C   0  0  0  0  0  0  0  0  0  0  0  0
   60.9830   31.8660   49.7230 O   0  0  0  0  0  0  0  0  0  0  0  0
   59.6150   33.8330   49.6840 C   0  0  0  0  0  0  0  0  0  0  0  0
   60.3540   34.1640   48.3800 C   0  0  0  0  0  0  0  0  0  0  0  0
   59.4290   34.0580   47.1990 C   0  0  0  0  0  0  0  0  0  0  0  0
   59.7250   34.7260   45.9990 C   0  0  0  0  0  0  0  0  0  0  0  0
   58.8440   34.6520   44.9170 C   0  0  0  0  0  0  0  0  0  0  0  0
   57.6580   33.9200   45.0280 C   0  0  0  0  0  0  0  0  0  0  0  0
   57.3530   33.2630   46.2230 C   0  0  0  0  0  0  0  0  0  0  0  0
   58.2310   33.3330   47.3080 C   0  0  0  0  0  0  0  0  0  0  0  0
   58.4890   32.5660   52.2580 C   0  0  0  0  0  0  0  0  0  0  0  0
   56.9700   32.3120   52.1950 C   0  0  0  0  0  0  0  0  0  0  0  0
   53.7790   27.7170   53.3110 C   0  0  0  0  0  0  0  0  0  0  0  0
   53.5260   26.3620   53.5480 C   0  0  0  0  0  0  0  0  0  0  0  0
   50.9841   22.0316   51.7080 H   0  0  0  0  0  0  0  0  0  0  0  0
   50.0930   22.4760   50.2130 H   0  0  0  0  0  0  0  0  0  0  0  0
   51.1968   21.0588   50.2130 H   0  0  0  0  0  0  0  0  0  0  0  0
   54.0014   22.7524   48.2881 H   0  0  0  0  0  0  0  0  0  0  0  0
   55.6103   23.8815   46.2693 H   0  0  0  0  0  0  0  0  0  0  0  0
   55.4268   24.6964   47.8674 H   0  0  0  0  0  0  0  0  0  0  0  0
   58.8599   24.6824   47.0389 H   0  0  0  0  0  0  0  0  0  0  0  0
   60.1367   26.6291   46.1424 H   0  0  0  0  0  0  0  0  0  0  0  0
   58.9221   28.5891   45.1870 H   0  0  0  0  0  0  0  0  0  0  0  0
   56.4288   28.6083   45.1282 H   0  0  0  0  0  0  0  0  0  0  0  0
   57.1897   21.5101   50.9306 H   0  0  0  0  0  0  0  0  0  0  0  0
   55.6415   21.6513   52.8732 H   0  0  0  0  0  0  0  0  0  0  0  0
   54.1060   24.0523   55.4843 H   0  0  0  0  0  0  0  0  0  0  0  0
   55.1112   23.4647   54.1013 H   0  0  0  0  0  0  0  0  0  0  0  0
   56.6611   25.3881   54.5180 H   0  0  0  0  0  0  0  0  0  0  0  0
   57.1042   27.8082   54.1081 H   0  0  0  0  0  0  0  0  0  0  0  0
   56.4906   31.0145   50.5654 H   0  0  0  0  0  0  0  0  0  0  0  0
   57.9658   29.8452   52.9870 H   0  0  0  0  0  0  0  0  0  0  0  0
   57.4553   28.9024   51.5431 H   0  0  0  0  0  0  0  0  0  0  0  0
   59.9029   29.8778   51.6361 H   0  0  0  0  0  0  0  0  0  0  0  0
   58.9384   30.0360   50.1119 H   0  0  0  0  0  0  0  0  0  0  0  0
   58.5313   33.8751   49.5004 H   0  0  0  0  0  0  0  0  0  0  0  0
   59.9143   34.5691   50.4446 H   0  0  0  0  0  0  0  0  0  0  0  0
   60.7472   35.1896   48.4389 H   0  0  0  0  0  0  0  0  0  0  0  0
   61.1762   33.4451   48.2490 H   0  0  0  0  0  0  0  0  0  0  0  0
   60.6535   35.3093   45.9110 H   0  0  0  0  0  0  0  0  0  0  0  0
   59.0838   35.1702   43.9768 H   0  0  0  0  0  0  0  0  0  0  0  0
   56.9655   33.8613   44.1753 H   0  0  0  0  0  0  0  0  0  0  0  0
   56.4188   32.6888   46.3099 H   0  0  0  0  0  0  0  0  0  0  0  0
   57.9835   32.8195   48.2488 H   0  0  0  0  0  0  0  0  0  0  0  0
   58.8683   32.2504   53.2411 H   0  0  0  0  0  0  0  0  0  0  0  0
   58.6768   33.6391   52.1056 H   0  0  0  0  0  0  0  0  0  0  0  0
   56.5544   32.4121   53.2086 H   0  0  0  0  0  0  0  0  0  0  0  0
   56.5388   33.0503   51.5029 H   0  0  0  0  0  0  0  0  0  0  0  0
   52.9730   28.3705   52.9458 H   0  0  0  0  0  0  0  0  0  0  0  0
   52.5175   25.9551   53.3825 H   0  0  0  0  0  0  0  0  0  0  0  0
  1  2  1  0
  2  3  1  0
  3  4  2  0
  4  5  1  0
  5  6  1  0
  6  7  2  0
  6  8  1  0
  8  9  1  0
  9 10  1  0
 10 11  2  0
 11 12  1  0
 12 13  2  0
 13 14  1  0
 14 15  2  0
 15 16  1  0
  5 17  2  0
 17 18  1  0
 18 19  2  0
 19 20  1  0
 20 21  1  0
 21 22  2  0
 21 23  1  0
 23 24  1  0
 24 25  2  0
 25 26  1  0
 26 27  2  0
 27 28  1  0
 28 29  1  0
 29 30  2  0
 29 31  1  0
 31 32  1  0
 32 33  1  0
 33 34  1  0
 34 35  1  0
 35 36  2  0
 35 37  1  0
 37 38  1  0
 38 39  1  0
 39 40  2  0
 40 41  1  0
 41 42  2  0
 42 43  1  0
 43 44  2  0
 34 45  1  0
 45 46  1  0
 27 47  1  0
 47 48  2  0
 19  3  1  0
 48 24  1  0
 15 10  1  0
 46 31  1  0
 44 39  1  0
  1 49  1  0
  1 50  1  0
  1 51  1  0
  4 52  1  0
  9 53  1  0
  9 54  1  0
 11 55  1  0
 12 56  1  0
 13 57  1  0
 14 58  1  0
 17 59  1  0
 18 60  1  0
 23 61  1  0
 23 62  1  0
 25 63  1  0
 26 64  1  0
 31 65  1  0
 32 66  1  0
 32 67  1  0
 33 68  1  0
 33 69  1  0
 37 70  1  0
 37 71  1  0
 38 72  1  0
 38 73  1  0
 40 74  1  0
 41 75  1  0
 42 76  1  0
 43 77  1  0
 44 78  1  0
 45 79  1  0
 45 80  1  0
 46 81  1  0
 46 82  1  0
 47 83  1  0
 48 84  1  0
M  CHG  4   8  -1  16  -1  20  -1  28  -1
M  END
>  <UniqueID>  (60) 
56

>  <SMILES>  (60) 
COc1cc(C(=O)[N-]Cc2ccccc2[O-])ccc1[N-]C(=O)Cc1ccc([N-]C(=O)C2CCN(C(=O)CCc3ccccc3)CC2)cc1

>  <Energy>  (60) 
98.26173172102544

>  <Genealogy>  (60) 
COc1cc(C(=O)[N-]Cc2ccccc2[O-])ccc1[N-]C(=O)Cc1ccc([N-]C(=O)C2CCN(C(=O)CCc3ccccc3)CC2)cc1 (protonated)
COc1cc(C(=O)[N-]Cc2ccccc2[O-])ccc1[N-]C(=O)Cc1ccc([N-]C(=O)C2CCN(C(=O)CCc3ccccc3)CC2)cc1 (3D coordinates assigned)
COc1cc(C(=O)[N-]Cc2ccccc2[O-])ccc1[N-]C(=O)Cc1ccc([N-]C(=O)C2CCN(C(=O)CCc3ccccc3)CC2)cc1 (nonaromatic ring conformer: 98.26173172102544 kcal/mol)

>  <smiles>  (60) 
COc1cc(C(=O)NCc2ccccc2O)ccc1NC(=O)Cc1ccc(NC(=O)C2CCN(C(=O)CCc3ccccc3)CC2)cc1

>  <score_type>  (60) 
oracle

>  <origin>  (60) 
adg

>  <m_score__min__energy>  (60) 
-18.16

>  <m_primary>  (60) 
energy

$$$$
60:0
     RDKit          3D

 32 33  0  0  0  0  0  0  0  0999 V2000
   54.3720   26.7130   46.7700 H   0  0  0  0  0  0  0  0  0  0  0  0
   55.0080   26.5640   45.9960 O   0  0  0  0  0  0  0  0  0  0  0  0
   56.2410   27.2150   45.9080 C   0  0  0  0  0  0  0  0  0  0  0  0
   57.3960   26.6430   46.4650 C   0  0  0  0  0  0  0  0  0  0  0  0
   57.3110   25.3930   47.0700 O   0  0  0  0  0  0  0  0  0  0  0  0
   58.6300   27.3210   46.3920 C   0  0  0  0  0  0  0  0  0  0  0  0
   59.8600   26.7420   46.9930 C   0  0  0  0  0  0  0  0  0  0  0  0
   60.4850   25.8340   46.3800 O   0  0  0  0  0  0  0  0  0  0  0  0
   60.3780   27.1930   48.3230 C   0  0  0  0  0  0  0  0  0  0  0  0
   59.8099   26.6984   49.1246 H   0  0  0  0  0  0  0  0  0  0  0  0
   61.4421   26.9286   48.4109 H   0  0  0  0  0  0  0  0  0  0  0  0
   60.2626   28.2834   48.4109 H   0  0  0  0  0  0  0  0  0  0  0  0
   58.6940   28.5620   45.7230 C   0  0  0  0  0  0  0  0  0  0  0  0
   59.9060   29.2470   45.6440 O   0  0  0  0  0  0  0  0  0  0  0  0
   57.5440   29.1210   45.1360 C   0  0  0  0  0  0  0  0  0  0  0  0
   57.6510   30.4320   44.4510 C   0  0  0  0  0  0  0  0  0  0  0  0
   57.8815   30.4509   43.3756 H   0  0  0  0  0  0  0  0  0  0  0  0
   57.4770   31.5950   45.0950 C   0  0  0  0  0  0  0  0  0  0  0  0
   56.5283   32.1326   44.9503 H   0  0  0  0  0  0  0  0  0  0  0  0
   58.4950   32.1970   45.9930 C   0  0  0  0  0  0  0  0  0  0  0  0
   58.9030   31.5710   47.1890 C   0  0  0  0  0  0  0  0  0  0  0  0
   58.4537   30.6111   47.4835 H   0  0  0  0  0  0  0  0  0  0  0  0
   59.8740   32.1610   48.0030 C   0  0  0  0  0  0  0  0  0  0  0  0
   60.1798   31.6679   48.9375 H   0  0  0  0  0  0  0  0  0  0  0  0
   60.4570   33.3750   47.6330 C   0  0  0  0  0  0  0  0  0  0  0  0
   61.6770   34.1120   48.6560 Cl  0  0  0  0  0  0  0  0  0  0  0  0
   60.0730   33.9970   46.4440 C   0  0  0  0  0  0  0  0  0  0  0  0
   60.5355   34.9511   46.1509 H   0  0  0  0  0  0  0  0  0  0  0  0
   59.1020   33.4120   45.6230 C   0  0  0  0  0  0  0  0  0  0  0  0
   58.7450   34.0430   44.4750 F   0  0  0  0  0  0  0  0  0  0  0  0
   56.3110   28.4510   45.2600 C   0  0  0  0  0  0  0  0  0  0  0  0
   55.1410   29.0190   44.7640 O   0  0  0  0  0  0  0  0  0  0  0  0
  1  2  1  0
  2  3  1  0
  3  4  2  0
  4  5  1  0
  4  6  1  0
  6  7  1  0
  7  8  2  0
  7  9  1  0
  9 10  1  0
  9 11  1  0
  9 12  1  0
  6 13  2  0
 13 14  1  0
 13 15  1  0
 15 16  1  0
 16 17  1  0
 16 18  2  0
 18 19  1  0
 18 20  1  0
 20 21  2  0
 21 22  1  0
 21 23  1  0
 23 24  1  0
 23 25  2  0
 25 26  1  0
 25 27  1  0
 27 28  1  0
 27 29  2  0
 29 30  1  0
 15 31  2  0
 31 32  1  0
 31  3  1  0
 29 20  1  0
M  CHG  3   5  -1  14  -1  32  -1
M  END
>  <UniqueID>  (61) 
57

>  <SMILES>  (61) 
CC(=O)c1c([O-])c(O)c([O-])c(/C=C/c2ccc(Cl)cc2F)c1[O-]

>  <Energy>  (61) 
47.001918972820455

>  <Genealogy>  (61) 
CC(=O)c1c([O-])c(O)c([O-])c(C=Cc2ccc(Cl)cc2F)c1[O-] (protonated)
CC(=O)c1c([O-])c(O)c([O-])c(/C=C/c2ccc(Cl)cc2F)c1[O-] (cis-trans isomerization)
CC(=O)c1c([O-])c(O)c([O-])c(/C=C/c2ccc(Cl)cc2F)c1[O-] (3D coordinates assigned)
CC(=O)c1c([O-])c(O)c([O-])c(/C=C/c2ccc(Cl)cc2F)c1[O-] (optimized conformer: 47.001918972820455 kcal/mol)

>  <smiles>  (61) 
CC(=O)c1c(O)c(O)c(O)c(C=Cc2ccc(Cl)cc2F)c1O

>  <score_type>  (61) 
oracle

>  <origin>  (61) 
adg

>  <m_score__min__energy>  (61) 
-14.26

>  <m_primary>  (61) 
energy

$$$$
61:0
     RDKit          3D

 48 50  0  0  0  0  0  0  0  0999 V2000
   53.1420   22.7330   46.4560 C   0  0  0  0  0  0  0  0  0  0  0  0
   52.7830   23.5720   45.4800 C   0  0  0  0  0  0  0  0  0  0  0  0
   53.7500   24.0060   44.4120 C   0  0  0  0  0  0  0  0  0  0  0  0
   55.1250   24.2400   44.9960 C   0  0  0  0  0  0  0  0  0  0  0  0
   55.3810   25.4090   45.7400 C   0  0  0  0  0  0  0  0  0  0  0  0
   54.3700   26.3370   45.9690 O   0  0  0  0  0  0  0  0  0  0  0  0
   56.6560   25.6540   46.2520 C   0  0  0  0  0  0  0  0  0  0  0  0
   57.7000   24.7550   46.0300 C   0  0  0  0  0  0  0  0  0  0  0  0
   58.9670   25.0690   46.5510 O   0  0  0  0  0  0  0  0  0  0  0  0
   59.8750   26.0230   45.9980 C   0  0  0  0  0  0  0  0  0  0  0  0
   59.2220   27.3750   45.8710 C   0  0  0  0  0  0  0  0  0  0  0  0
   58.9430   28.1330   47.0190 C   0  0  0  0  0  0  0  0  0  0  0  0
   58.3210   29.3790   46.9070 C   0  0  0  0  0  0  0  0  0  0  0  0
   57.9690   29.8850   45.6440 C   0  0  0  0  0  0  0  0  0  0  0  0
   57.3490   31.1340   45.4940 O   0  0  0  0  0  0  0  0  0  0  0  0
   57.9610   32.3760   45.7190 C   0  0  0  0  0  0  0  0  0  0  0  0
   57.9120   33.3430   44.7080 C   0  0  0  0  0  0  0  0  0  0  0  0
   58.4970   34.5990   44.9020 C   0  0  0  0  0  0  0  0  0  0  0  0
   59.1250   34.8990   46.1140 C   0  0  0  0  0  0  0  0  0  0  0  0
   59.1610   33.9470   47.1370 C   0  0  0  0  0  0  0  0  0  0  0  0
   58.5760   32.6910   46.9460 C   0  0  0  0  0  0  0  0  0  0  0  0
   58.2860   29.1480   44.4990 C   0  0  0  0  0  0  0  0  0  0  0  0
   58.9050   27.9000   44.6080 C   0  0  0  0  0  0  0  0  0  0  0  0
   57.4520   23.5840   45.2940 C   0  0  0  0  0  0  0  0  0  0  0  0
   56.1730   23.3230   44.7630 C   0  0  0  0  0  0  0  0  0  0  0  0
   55.9160   22.1720   43.9990 O   0  0  0  0  0  0  0  0  0  0  0  0
   56.9040   21.4310   43.2890 C   0  0  0  0  0  0  0  0  0  0  0  0
   52.4108   22.4352   47.2219 H   0  0  0  0  0  0  0  0  0  0  0  0
   54.1688   22.3401   46.4936 H   0  0  0  0  0  0  0  0  0  0  0  0
   51.7524   23.9559   45.4566 H   0  0  0  0  0  0  0  0  0  0  0  0
   53.8134   23.2222   43.6428 H   0  0  0  0  0  0  0  0  0  0  0  0
   53.3893   24.9469   43.9709 H   0  0  0  0  0  0  0  0  0  0  0  0
   56.8402   26.5668   46.8376 H   0  0  0  0  0  0  0  0  0  0  0  0
   60.7532   26.1074   46.6550 H   0  0  0  0  0  0  0  0  0  0  0  0
   60.1762   25.6824   44.9964 H   0  0  0  0  0  0  0  0  0  0  0  0
   59.2153   27.7442   48.0113 H   0  0  0  0  0  0  0  0  0  0  0  0
   58.1058   29.9667   47.8116 H   0  0  0  0  0  0  0  0  0  0  0  0
   57.4109   33.1141   43.7559 H   0  0  0  0  0  0  0  0  0  0  0  0
   58.4627   35.3510   44.1000 H   0  0  0  0  0  0  0  0  0  0  0  0
   59.5909   35.8842   46.2629 H   0  0  0  0  0  0  0  0  0  0  0  0
   59.6498   34.1859   48.0930 H   0  0  0  0  0  0  0  0  0  0  0  0
   58.5964   31.9474   47.7563 H   0  0  0  0  0  0  0  0  0  0  0  0
   58.0464   29.5536   43.5050 H   0  0  0  0  0  0  0  0  0  0  0  0
   59.1449   27.3265   43.7005 H   0  0  0  0  0  0  0  0  0  0  0  0
   58.2659   22.8624   45.1304 H   0  0  0  0  0  0  0  0  0  0  0  0
   57.5718   20.9301   44.0054 H   0  0  0  0  0  0  0  0  0  0  0  0
   56.4127   20.6768   42.6567 H   0  0  0  0  0  0  0  0  0  0  0  0
   57.4904   22.1139   42.6567 H   0  0  0  0  0  0  0  0  0  0  0  0
  1  2  2  0
  2  3  1  0
  3  4  1  0
  4  5  2  0
  5  6  1  0
  5  7  1  0
  7  8  2  0
  8  9  1  0
  9 10  1  0
 10 11  1  0
 11 12  2  0
 12 13  1  0
 13 14  2  0
 14 15  1  0
 15 16  1  0
 16 17  2  0
 17 18  1  0
 18 19  2  0
 19 20  1  0
 20 21  2  0
 14 22  1  0
 22 23  2  0
  8 24  1  0
 24 25  2  0
 25 26  1  0
 26 27  1  0
 25  4  1  0
 23 11  1  0
 21 16  1  0
  1 28  1  0
  1 29  1  0
  2 30  1  0
  3 31  1  0
  3 32  1  0
  7 33  1  0
 10 34  1  0
 10 35  1  0
 12 36  1  0
 13 37  1  0
 17 38  1  0
 18 39  1  0
 19 40  1  0
 20 41  1  0
 21 42  1  0
 22 43  1  0
 23 44  1  0
 24 45  1  0
 27 46  1  0
 27 47  1  0
 27 48  1  0
M  CHG  1   6  -1
M  END
>  <UniqueID>  (62) 
58

>  <SMILES>  (62) 
C=CCc1c([O-])cc(OCc2ccc(Oc3ccccc3)cc2)cc1OC

>  <Energy>  (62) 
53.490631751452426

>  <Genealogy>  (62) 
C=CCc1c([O-])cc(OCc2ccc(Oc3ccccc3)cc2)cc1OC (protonated)
C=CCc1c([O-])cc(OCc2ccc(Oc3ccccc3)cc2)cc1OC (3D coordinates assigned)
C=CCc1c([O-])cc(OCc2ccc(Oc3ccccc3)cc2)cc1OC (optimized conformer: 53.490631751452426 kcal/mol)

>  <smiles>  (62) 
C=CCc1c(O)cc(OCc2ccc(Oc3ccccc3)cc2)cc1OC

>  <score_type>  (62) 
oracle

>  <origin>  (62) 
adg

>  <m_score__min__energy>  (62) 
-12.109999999999999

>  <m_primary>  (62) 
energy

$$$$
62:0
     RDKit          3D

 45 48  0  0  0  0  0  0  0  0999 V2000
   54.7810   27.0890   46.3970 H   0  0  0  0  0  0  0  0  0  0  0  0
   55.0660   26.1880   45.9530 N   0  0  0  0  0  0  0  0  0  0  0  0
   56.7890   26.1050   46.0370 S   0  0  0  0  0  0  0  0  0  0  0  0
   57.3340   25.6380   44.7150 O   0  0  0  0  0  0  0  0  0  0  0  0
   57.1950   25.1230   47.1000 O   0  0  0  0  0  0  0  0  0  0  0  0
   57.4330   27.6980   46.4210 C   0  0  0  0  0  0  0  0  0  0  0  0
   58.1770   27.8920   47.5890 C   0  0  0  0  0  0  0  0  0  0  0  0
   58.3415   27.0523   48.2802 H   0  0  0  0  0  0  0  0  0  0  0  0
   58.7110   29.1470   47.8800 C   0  0  0  0  0  0  0  0  0  0  0  0
   59.2966   29.2932   48.7996 H   0  0  0  0  0  0  0  0  0  0  0  0
   58.5050   30.2210   47.0070 C   0  0  0  0  0  0  0  0  0  0  0  0
   59.0470   31.4260   47.3020 N   0  0  0  0  0  0  0  0  0  0  0  0
   58.9250   32.5090   46.4920 C   0  0  0  0  0  0  0  0  0  0  0  0
   58.2100   32.3940   45.2770 C   0  0  0  0  0  0  0  0  0  0  0  0
   57.5340   31.1750   44.9850 C   0  0  0  0  0  0  0  0  0  0  0  0
   56.6170   31.0680   43.7820 C   0  0  0  0  0  0  0  0  0  0  0  0
   55.5781   30.9468   44.1225 H   0  0  0  0  0  0  0  0  0  0  0  0
   56.6998   31.9819   43.1754 H   0  0  0  0  0  0  0  0  0  0  0  0
   56.9080   30.1977   43.1754 H   0  0  0  0  0  0  0  0  0  0  0  0
   57.7410   30.0540   45.8310 C   0  0  0  0  0  0  0  0  0  0  0  0
   57.2250   28.7700   45.5420 C   0  0  0  0  0  0  0  0  0  0  0  0
   56.6532   28.6101   44.6160 H   0  0  0  0  0  0  0  0  0  0  0  0
   58.1240   33.5870   44.3440 C   0  0  0  0  0  0  0  0  0  0  0  0
   57.1965   34.1382   44.5583 H   0  0  0  0  0  0  0  0  0  0  0  0
   58.1356   33.2094   43.3109 H   0  0  0  0  0  0  0  0  0  0  0  0
   59.3100   34.5360   44.5100 C   0  0  0  0  0  0  0  0  0  0  0  0
   59.1580   35.4179   43.8703 H   0  0  0  0  0  0  0  0  0  0  0  0
   60.2286   34.0049   44.2199 H   0  0  0  0  0  0  0  0  0  0  0  0
   59.4460   34.9890   45.9620 C   0  0  0  0  0  0  0  0  0  0  0  0
   58.5611   35.5814   46.2379 H   0  0  0  0  0  0  0  0  0  0  0  0
   60.3603   35.5935   46.0553 H   0  0  0  0  0  0  0  0  0  0  0  0
   59.5570   33.8020   46.8950 C   0  0  0  0  0  0  0  0  0  0  0  0
   60.0890   33.9370   48.1290 C   0  0  0  0  0  0  0  0  0  0  0  0
   59.4323   34.2826   48.9410 H   0  0  0  0  0  0  0  0  0  0  0  0
   61.5000   33.6480   48.4520 C   0  0  0  0  0  0  0  0  0  0  0  0
   62.4470   33.5620   47.4190 C   0  0  0  0  0  0  0  0  0  0  0  0
   62.1385   33.7356   46.3775 H   0  0  0  0  0  0  0  0  0  0  0  0
   63.7790   33.2570   47.7080 C   0  0  0  0  0  0  0  0  0  0  0  0
   64.5186   33.2010   46.8957 H   0  0  0  0  0  0  0  0  0  0  0  0
   64.1730   33.0230   49.0280 C   0  0  0  0  0  0  0  0  0  0  0  0
   65.4660   32.7270   49.3070 F   0  0  0  0  0  0  0  0  0  0  0  0
   63.2330   33.0890   50.0600 C   0  0  0  0  0  0  0  0  0  0  0  0
   63.5453   32.9012   51.0979 H   0  0  0  0  0  0  0  0  0  0  0  0
   61.8960   33.3930   49.7790 C   0  0  0  0  0  0  0  0  0  0  0  0
   60.7450   33.4690   51.1080 Cl  0  0  0  0  0  0  0  0  0  0  0  0
  1  2  1  0
  2  3  1  0
  3  4  2  0
  3  5  2  0
  3  6  1  0
  6  7  2  0
  7  8  1  0
  7  9  1  0
  9 10  1  0
  9 11  2  0
 11 12  1  0
 12 13  2  0
 13 14  1  0
 14 15  2  0
 15 16  1  0
 16 17  1  0
 16 18  1  0
 16 19  1  0
 15 20  1  0
 20 21  2  0
 21 22  1  0
 14 23  1  0
 23 24  1  0
 23 25  1  0
 23 26  1  0
 26 27  1  0
 26 28  1  0
 26 29  1  0
 29 30  1  0
 29 31  1  0
 29 32  1  0
 32 33  2  0
 33 34  1  0
 33 35  1  0
 35 36  2  0
 36 37  1  0
 36 38  1  0
 38 39  1  0
 38 40  2  0
 40 41  1  0
 40 42  1  0
 42 43  1  0
 42 44  2  0
 44 45  1  0
 21  6  1  0
 44 35  1  0
 20 11  1  0
 32 13  1  0
M  CHG  1   2  -1
M  END
>  <UniqueID>  (63) 
59

>  <SMILES>  (63) 
Cc1c2c(nc3ccc(S([NH-])(=O)=O)cc13)/C(=C/c1ccc(F)cc1Cl)CCC2

>  <Energy>  (63) 
67.0088946371495

>  <Genealogy>  (63) 
Cc1c2c(nc3ccc(S([NH-])(=O)=O)cc13)C(=Cc1ccc(F)cc1Cl)CCC2 (protonated)
Cc1c2c(nc3ccc(S([NH-])(=O)=O)cc13)/C(=C/c1ccc(F)cc1Cl)CCC2 (cis-trans isomerization)
Cc1c2c(nc3ccc(S([NH-])(=O)=O)cc13)/C(=C/c1ccc(F)cc1Cl)CCC2 (3D coordinates assigned)
Cc1c2c(nc3ccc(S([NH-])(=O)=O)cc13)/C(=C/c1ccc(F)cc1Cl)CCC2 (nonaromatic ring conformer: 67.0088946371495 kcal/mol)

>  <smiles>  (63) 
Cc1c2c(nc3ccc(S(N)(=O)=O)cc13)C(=Cc1ccc(F)cc1Cl)CCC2

>  <score_type>  (63) 
oracle

>  <origin>  (63) 
adg

>  <m_score__min__energy>  (63) 
-13.31

>  <m_primary>  (63) 
energy

$$$$
63:0
     RDKit          3D

 50 52  0  0  0  0  0  0  0  0999 V2000
   59.9290   33.8530   50.0130 C   0  0  0  0  0  0  0  0  0  0  0  0
   58.9460   33.0970   49.3130 O   0  0  0  0  0  0  0  0  0  0  0  0
   59.2280   32.0020   48.4810 C   0  0  0  0  0  0  0  0  0  0  0  0
   58.9160   30.6810   48.8560 C   0  0  0  0  0  0  0  0  0  0  0  0
   59.2120   29.6170   48.0030 C   0  0  0  0  0  0  0  0  0  0  0  0
   59.8130   29.8510   46.7590 C   0  0  0  0  0  0  0  0  0  0  0  0
   60.1550   28.6910   45.8590 C   0  0  0  0  0  0  0  0  0  0  0  0
   59.0680   28.4450   44.8040 C   0  0  0  0  0  0  0  0  0  0  0  0
   57.7720   28.1180   45.4180 N   0  0  0  0  0  0  0  0  0  0  0  0
   56.6320   29.0360   45.2380 C   0  0  0  0  0  0  0  0  0  0  0  0
   56.9580   30.1200   44.2560 C   0  0  0  0  0  0  0  0  0  0  0  0
   57.5850   31.3250   44.5500 C   0  0  0  0  0  0  0  0  0  0  0  0
   57.7480   32.1500   43.4310 C   0  0  0  0  0  0  0  0  0  0  0  0
   57.2450   31.6050   42.2580 C   0  0  0  0  0  0  0  0  0  0  0  0
   56.6020   30.0930   42.6130 S   0  0  0  0  0  0  0  0  0  0  0  0
   57.6470   26.9220   46.2170 C   0  0  0  0  0  0  0  0  0  0  0  0
   58.1020   26.9060   47.3920 O   0  0  0  0  0  0  0  0  0  0  0  0
   56.9800   25.7080   45.7010 C   0  0  0  0  0  0  0  0  0  0  0  0
   57.7560   24.5970   45.3320 C   0  0  0  0  0  0  0  0  0  0  0  0
   57.1470   23.4390   44.8430 C   0  0  0  0  0  0  0  0  0  0  0  0
   55.7550   23.3720   44.7370 C   0  0  0  0  0  0  0  0  0  0  0  0
   55.1490   22.2210   44.2490 O   0  0  0  0  0  0  0  0  0  0  0  0
   54.9720   24.4610   45.1280 C   0  0  0  0  0  0  0  0  0  0  0  0
   55.5760   25.6240   45.6200 C   0  0  0  0  0  0  0  0  0  0  0  0
   54.7740   26.6780   46.0460 O   0  0  0  0  0  0  0  0  0  0  0  0
   60.1310   31.1650   46.3850 C   0  0  0  0  0  0  0  0  0  0  0  0
   59.8420   32.2440   47.2430 C   0  0  0  0  0  0  0  0  0  0  0  0
   60.1520   33.5710   46.9030 O   0  0  0  0  0  0  0  0  0  0  0  0
   59.2860   34.4420   46.1830 C   0  0  0  0  0  0  0  0  0  0  0  0
   59.7780   33.7369   51.0964 H   0  0  0  0  0  0  0  0  0  0  0  0
   60.9317   33.4911   49.7417 H   0  0  0  0  0  0  0  0  0  0  0  0
   59.8366   34.9150   49.7417 H   0  0  0  0  0  0  0  0  0  0  0  0
   58.4363   30.4868   49.8267 H   0  0  0  0  0  0  0  0  0  0  0  0
   58.9720   28.5881   48.3091 H   0  0  0  0  0  0  0  0  0  0  0  0
   61.1048   28.9058   45.3475 H   0  0  0  0  0  0  0  0  0  0  0  0
   60.2354   27.7882   46.4823 H   0  0  0  0  0  0  0  0  0  0  0  0
   58.9533   29.3526   44.1932 H   0  0  0  0  0  0  0  0  0  0  0  0
   59.3789   27.5888   44.1873 H   0  0  0  0  0  0  0  0  0  0  0  0
   55.7670   28.4656   44.8685 H   0  0  0  0  0  0  0  0  0  0  0  0
   56.4040   29.5021   46.2079 H   0  0  0  0  0  0  0  0  0  0  0  0
   57.9195   31.6025   45.5605 H   0  0  0  0  0  0  0  0  0  0  0  0
   58.2297   33.1378   43.4771 H   0  0  0  0  0  0  0  0  0  0  0  0
   57.2638   32.0807   41.2664 H   0  0  0  0  0  0  0  0  0  0  0  0
   58.8509   24.6391   45.4288 H   0  0  0  0  0  0  0  0  0  0  0  0
   57.7633   22.5793   44.5412 H   0  0  0  0  0  0  0  0  0  0  0  0
   53.8763   24.4043   45.0489 H   0  0  0  0  0  0  0  0  0  0  0  0
   60.6102   31.3544   45.4132 H   0  0  0  0  0  0  0  0  0  0  0  0
   58.6932   35.0382   46.8923 H   0  0  0  0  0  0  0  0  0  0  0  0
   59.8848   35.1136   45.5502 H   0  0  0  0  0  0  0  0  0  0  0  0
   58.6110   33.8471   45.5502 H   0  0  0  0  0  0  0  0  0  0  0  0
  1  2  1  0
  2  3  1  0
  3  4  2  0
  4  5  1  0
  5  6  2  0
  6  7  1  0
  7  8  1  0
  8  9  1  0
  9 10  1  0
 10 11  1  0
 11 12  2  0
 12 13  1  0
 13 14  2  0
 14 15  1  0
  9 16  1  0
 16 17  2  0
 16 18  1  0
 18 19  2  0
 19 20  1  0
 20 21  2  0
 21 22  1  0
 21 23  1  0
 23 24  2  0
 24 25  1  0
  6 26  1  0
 26 27  2  0
 27 28  1  0
 28 29  1  0
 27  3  1  0
 15 11  1  0
 24 18  1  0
  1 30  1  0
  1 31  1  0
  1 32  1  0
  4 33  1  0
  5 34  1  0
  7 35  1  0
  7 36  1  0
  8 37  1  0
  8 38  1  0
 10 39  1  0
 10 40  1  0
 12 41  1  0
 13 42  1  0
 14 43  1  0
 19 44  1  0
 20 45  1  0
 23 46  1  0
 26 47  1  0
 29 48  1  0
 29 49  1  0
 29 50  1  0
M  CHG  2  22  -1  25  -1
M  END
>  <UniqueID>  (64) 
60

>  <SMILES>  (64) 
COc1ccc(CCN(Cc2cccs2)C(=O)c2ccc([O-])cc2[O-])cc1OC

>  <Energy>  (64) 
75.67413160560365

>  <Genealogy>  (64) 
COc1ccc(CCN(Cc2cccs2)C(=O)c2ccc([O-])cc2[O-])cc1OC (protonated)
COc1ccc(CCN(Cc2cccs2)C(=O)c2ccc([O-])cc2[O-])cc1OC (3D coordinates assigned)
COc1ccc(CCN(Cc2cccs2)C(=O)c2ccc([O-])cc2[O-])cc1OC (optimized conformer: 75.67413160560365 kcal/mol)

>  <smiles>  (64) 
COc1ccc(CCN(Cc2cccs2)C(=O)c2ccc(O)cc2O)cc1OC

>  <score_type>  (64) 
oracle

>  <origin>  (64) 
adg

>  <m_score__min__energy>  (64) 
-13.539999999999999

>  <m_primary>  (64) 
energy

$$$$
64:0
     RDKit          3D

 38 40  0  0  0  0  0  0  0  0999 V2000
   58.4650   32.3420   41.4810 O   0  0  0  0  0  0  0  0  0  0  0  0
   58.2780   32.3620   42.7280 C   0  0  0  0  0  0  0  0  0  0  0  0
   58.7520   33.4700   43.5010 N   0  0  0  0  0  0  0  0  0  0  0  0
   57.9820   34.1010   44.5670 C   0  0  0  0  0  0  0  0  0  0  0  0
   58.5840   33.7800   45.9070 C   0  0  0  0  0  0  0  0  0  0  0  0
   57.8150   33.1300   46.8840 C   0  0  0  0  0  0  0  0  0  0  0  0
   58.3760   32.8080   48.1230 C   0  0  0  0  0  0  0  0  0  0  0  0
   59.7100   33.1280   48.3970 C   0  0  0  0  0  0  0  0  0  0  0  0
   60.2540   32.8010   49.6340 O   0  0  0  0  0  0  0  0  0  0  0  0
   60.4900   33.7740   47.4220 C   0  0  0  0  0  0  0  0  0  0  0  0
   61.8230   34.1020   47.6670 O   0  0  0  0  0  0  0  0  0  0  0  0
   59.9250   34.0960   46.1820 C   0  0  0  0  0  0  0  0  0  0  0  0
   57.5670   31.2420   43.3880 C   0  0  0  0  0  0  0  0  0  0  0  0
   56.3400   30.7760   42.8820 C   0  0  0  0  0  0  0  0  0  0  0  0
   55.6670   29.7270   43.5130 C   0  0  0  0  0  0  0  0  0  0  0  0
   56.2090   29.1240   44.6500 C   0  0  0  0  0  0  0  0  0  0  0  0
   55.5250   28.0790   45.2630 O   0  0  0  0  0  0  0  0  0  0  0  0
   57.4390   29.5650   45.1610 C   0  0  0  0  0  0  0  0  0  0  0  0
   57.9810   28.9740   46.3530 N   0  0  0  0  0  0  0  0  0  0  0  0
   58.4860   29.6970   47.3400 N   0  0  0  0  0  0  0  0  0  0  0  0
   58.9690   28.8450   48.2630 C   0  0  0  0  0  0  0  0  0  0  0  0
   59.7950   29.3890   49.8920 Br  0  0  0  0  0  0  0  0  0  0  0  0
   58.7700   27.5420   47.8560 C   0  0  0  0  0  0  0  0  0  0  0  0
   58.1310   27.6590   46.6360 C   0  0  0  0  0  0  0  0  0  0  0  0
   57.6200   26.5240   45.8420 C   0  0  0  0  0  0  0  0  0  0  0  0
   58.2080   26.1830   44.7830 O   0  0  0  0  0  0  0  0  0  0  0  0
   56.5170   25.7940   46.2680 O   0  0  0  0  0  0  0  0  0  0  0  0
   58.1040   30.6330   44.5380 C   0  0  0  0  0  0  0  0  0  0  0  0
   57.9846   35.1911   44.4199 H   0  0  0  0  0  0  0  0  0  0  0  0
   56.9509   33.7189   44.5375 H   0  0  0  0  0  0  0  0  0  0  0  0
   56.7663   32.8728   46.6740 H   0  0  0  0  0  0  0  0  0  0  0  0
   57.7663   32.3011   48.8855 H   0  0  0  0  0  0  0  0  0  0  0  0
   62.2840   33.8640   48.5370 H   0  0  0  0  0  0  0  0  0  0  0  0
   60.5352   34.5998   45.4180 H   0  0  0  0  0  0  0  0  0  0  0  0
   55.9076   31.2406   41.9836 H   0  0  0  0  0  0  0  0  0  0  0  0
   54.7053   29.3742   43.1122 H   0  0  0  0  0  0  0  0  0  0  0  0
   59.0551   26.6194   48.3828 H   0  0  0  0  0  0  0  0  0  0  0  0
   59.0551   30.9979   44.9530 H   0  0  0  0  0  0  0  0  0  0  0  0
  1  2  2  0
  2  3  1  0
  3  4  1  0
  4  5  1  0
  5  6  2  0
  6  7  1  0
  7  8  2  0
  8  9  1  0
  8 10  1  0
 10 11  1  0
 10 12  2  0
  2 13  1  0
 13 14  2  0
 14 15  1  0
 15 16  2  0
 16 17  1  0
 16 18  1  0
 18 19  1  0
 19 20  1  0
 20 21  2  0
 21 22  1  0
 21 23  1  0
 23 24  2  0
 24 25  1  0
 25 26  2  0
 25 27  1  0
 18 28  2  0
 12  5  1  0
 28 13  1  0
 24 19  1  0
  4 29  1  0
  4 30  1  0
  6 31  1  0
  7 32  1  0
 11 33  1  0
 12 34  1  0
 14 35  1  0
 15 36  1  0
 23 37  1  0
 28 38  1  0
M  CHG  4   3  -1   9  -1  17  -1  27  -1
M  END
>  <UniqueID>  (65) 
61

>  <SMILES>  (65) 
O=C([N-]Cc1ccc([O-])c(O)c1)c1ccc([O-])c(-n2nc(Br)cc2C(=O)[O-])c1

>  <Energy>  (65) 
76.88087925690643

>  <Genealogy>  (65) 
O=C([N-]Cc1ccc([O-])c(O)c1)c1ccc([O-])c(-n2nc(Br)cc2C(=O)[O-])c1 (protonated)
O=C([N-]Cc1ccc([O-])c(O)c1)c1ccc([O-])c(-n2nc(Br)cc2C(=O)[O-])c1 (3D coordinates assigned)
O=C([N-]Cc1ccc([O-])c(O)c1)c1ccc([O-])c(-n2nc(Br)cc2C(=O)[O-])c1 (optimized conformer: 76.88087925690643 kcal/mol)

>  <smiles>  (65) 
O=C(NCc1ccc(O)c(O)c1)c1ccc(O)c(-n2nc(Br)cc2C(=O)O)c1

>  <score_type>  (65) 
oracle

>  <origin>  (65) 
adg

>  <m_score__min__energy>  (65) 
-15.31

>  <m_primary>  (65) 
energy

$$$$
65:0
     RDKit          3D

 49 52  0  0  0  0  0  0  0  0999 V2000
   60.3260   27.1440   46.3930 C   0  0  0  0  0  0  0  0  0  0  0  0
   59.3160   28.1200   45.9910 N   0  0  0  0  0  0  0  0  0  0  0  0
   58.1130   27.8890   45.4060 C   0  0  0  0  0  0  0  0  0  0  0  0
   57.5530   26.5900   45.1500 N   0  0  0  0  0  0  0  0  0  0  0  0
   56.9270   25.8290   46.2360 C   0  0  0  0  0  0  0  0  0  0  0  0
   57.6340   24.4700   46.4380 C   0  0  0  0  0  0  0  0  0  0  0  0
   58.4140   24.0440   45.2540 N   0  0  0  0  0  0  0  0  0  0  0  0
   58.6770   22.3180   45.2960 S   0  0  0  0  0  0  0  0  0  0  0  0
   58.1580   21.5750   43.7610 C   0  0  0  0  0  0  0  0  0  0  0  0
   57.8700   21.7160   46.4120 O   0  0  0  0  0  0  0  0  0  0  0  0
   60.1340   22.0210   45.5230 O   0  0  0  0  0  0  0  0  0  0  0  0
   57.7410   24.4150   44.0000 C   0  0  0  0  0  0  0  0  0  0  0  0
   57.7710   25.9390   43.8510 C   0  0  0  0  0  0  0  0  0  0  0  0
   57.4650   29.0940   45.1680 C   0  0  0  0  0  0  0  0  0  0  0  0
   58.2690   30.0680   45.6310 N   0  0  0  0  0  0  0  0  0  0  0  0
   58.0970   31.4120   45.6660 C   0  0  0  0  0  0  0  0  0  0  0  0
   57.0570   31.9470   45.1940 O   0  0  0  0  0  0  0  0  0  0  0  0
   59.1100   32.1920   46.2410 C   0  0  0  0  0  0  0  0  0  0  0  0
   58.9950   33.5460   46.2530 F   0  0  0  0  0  0  0  0  0  0  0  0
   60.2580   31.5470   46.7690 C   0  0  0  0  0  0  0  0  0  0  0  0
   61.3550   32.3340   47.3820 C   0  0  0  0  0  0  0  0  0  0  0  0
   61.0580   33.4330   48.2060 C   0  0  0  0  0  0  0  0  0  0  0  0
   62.0870   34.1800   48.7860 C   0  0  0  0  0  0  0  0  0  0  0  0
   63.4200   33.8410   48.5450 C   0  0  0  0  0  0  0  0  0  0  0  0
   63.7270   32.7560   47.7220 C   0  0  0  0  0  0  0  0  0  0  0  0
   62.7010   32.0050   47.1380 C   0  0  0  0  0  0  0  0  0  0  0  0
   60.3630   30.1820   46.6970 N   0  0  0  0  0  0  0  0  0  0  0  0
   59.3620   29.4650   46.1220 C   0  0  0  0  0  0  0  0  0  0  0  0
   60.3743   27.0973   47.4910 H   0  0  0  0  0  0  0  0  0  0  0  0
   60.0580   26.1540   45.9954 H   0  0  0  0  0  0  0  0  0  0  0  0
   61.3062   27.4457   45.9954 H   0  0  0  0  0  0  0  0  0  0  0  0
   56.9926   26.4107   47.1673 H   0  0  0  0  0  0  0  0  0  0  0  0
   55.8756   25.6416   45.9723 H   0  0  0  0  0  0  0  0  0  0  0  0
   58.3168   24.5539   47.2963 H   0  0  0  0  0  0  0  0  0  0  0  0
   56.8532   23.7141   46.6079 H   0  0  0  0  0  0  0  0  0  0  0  0
   57.5398   20.6901   43.9726 H   0  0  0  0  0  0  0  0  0  0  0  0
   57.5706   22.3025   43.1816 H   0  0  0  0  0  0  0  0  0  0  0  0
   59.0432   21.2739   43.1816 H   0  0  0  0  0  0  0  0  0  0  0  0
   58.2626   23.9508   43.1500 H   0  0  0  0  0  0  0  0  0  0  0  0
   56.6988   24.0635   44.0190 H   0  0  0  0  0  0  0  0  0  0  0  0
   58.7502   26.2442   43.4535 H   0  0  0  0  0  0  0  0  0  0  0  0
   56.9691   26.2439   43.1625 H   0  0  0  0  0  0  0  0  0  0  0  0
   56.4823   29.2266   44.6919 H   0  0  0  0  0  0  0  0  0  0  0  0
   60.0096   33.7068   48.3956 H   0  0  0  0  0  0  0  0  0  0  0  0
   61.8465   35.0362   49.4333 H   0  0  0  0  0  0  0  0  0  0  0  0
   64.2285   34.4291   49.0038 H   0  0  0  0  0  0  0  0  0  0  0  0
   64.7776   32.4909   47.5323 H   0  0  0  0  0  0  0  0  0  0  0  0
   62.9476   31.1543   46.4857 H   0  0  0  0  0  0  0  0  0  0  0  0
   61.1930   29.6960   47.1060 H   0  0  0  0  0  0  0  0  0  0  0  0
  1  2  1  0
  2  3  1  0
  3  4  1  0
  4  5  1  0
  5  6  1  0
  6  7  1  0
  7  8  1  0
  8  9  1  0
  8 10  2  0
  8 11  2  0
  7 12  1  0
 12 13  1  0
  3 14  2  0
 14 15  1  0
 15 16  1  0
 16 17  2  0
 16 18  1  0
 18 19  1  0
 18 20  2  0
 20 21  1  0
 21 22  2  0
 22 23  1  0
 23 24  2  0
 24 25  1  0
 25 26  2  0
 20 27  1  0
 27 28  2  0
 28  2  1  0
 13  4  1  0
 28 15  1  0
 26 21  1  0
  1 29  1  0
  1 30  1  0
  1 31  1  0
  5 32  1  0
  5 33  1  0
  6 34  1  0
  6 35  1  0
  9 36  1  0
  9 37  1  0
  9 38  1  0
 12 39  1  0
 12 40  1  0
 13 41  1  0
 13 42  1  0
 14 43  1  0
 22 44  1  0
 23 45  1  0
 24 46  1  0
 25 47  1  0
 26 48  1  0
 27 49  1  0
M  CHG  1  27   1
M  END
>  <UniqueID>  (66) 
62

>  <SMILES>  (66) 
Cn1c(N2CCN(S(C)(=O)=O)CC2)cn2c(=O)c(F)c(-c3ccccc3)[nH+]c12

>  <Energy>  (66) 
100.65291879245603

>  <Genealogy>  (66) 
Cn1c(N2CCN(S(C)(=O)=O)CC2)cn2c(=O)c(F)c(-c3ccccc3)[nH+]c12 (protonated)
Cn1c(N2CCN(S(C)(=O)=O)CC2)cn2c(=O)c(F)c(-c3ccccc3)[nH+]c12 (3D coordinates assigned)
Cn1c(N2CCN(S(C)(=O)=O)CC2)cn2c(=O)c(F)c(-c3ccccc3)[nH+]c12 (nonaromatic ring conformer: 100.65291879245603 kcal/mol)

>  <smiles>  (66) 
Cn1c(N2CCN(S(C)(=O)=O)CC2)cn2c(=O)c(F)c(-c3ccccc3)nc12

>  <score_type>  (66) 
oracle

>  <origin>  (66) 
adg

>  <m_score__min__energy>  (66) 
-6.6799999999999997

>  <m_primary>  (66) 
energy

$$$$
66:0
     RDKit          3D

 36 38  0  0  0  0  0  0  0  0999 V2000
   59.7120   34.6270   47.8150 C   0  0  0  0  0  0  0  0  0  0  0  0
   59.2970   34.0360   46.5090 C   0  0  0  0  0  0  0  0  0  0  0  0
   58.6230   32.8460   46.3400 C   0  0  0  0  0  0  0  0  0  0  0  0
   58.4120   32.7760   44.9760 C   0  0  0  0  0  0  0  0  0  0  0  0
   57.6700   31.7110   44.2640 C   0  0  0  0  0  0  0  0  0  0  0  0
   57.0510   30.6970   45.0190 C   0  0  0  0  0  0  0  0  0  0  0  0
   56.2990   29.6890   44.3940 C   0  0  0  0  0  0  0  0  0  0  0  0
   55.6480   28.6540   45.1450 N   0  0  0  0  0  0  0  0  0  0  0  0
   56.2620   27.4500   45.6180 C   0  0  0  0  0  0  0  0  0  0  0  0
   55.5280   26.5000   45.9950 O   0  0  0  0  0  0  0  0  0  0  0  0
   57.6860   27.2910   45.5600 N   0  0  0  0  0  0  0  0  0  0  0  0
   58.6730   28.2120   46.0470 C   0  0  0  0  0  0  0  0  0  0  0  0
   58.5710   28.8160   47.3140 C   0  0  0  0  0  0  0  0  0  0  0  0
   59.5410   29.7320   47.7350 C   0  0  0  0  0  0  0  0  0  0  0  0
   60.6090   30.0610   46.8950 C   0  0  0  0  0  0  0  0  0  0  0  0
   61.8220   31.2120   47.4260 Cl  0  0  0  0  0  0  0  0  0  0  0  0
   60.7020   29.4810   45.6260 C   0  0  0  0  0  0  0  0  0  0  0  0
   59.7340   28.5660   45.2020 C   0  0  0  0  0  0  0  0  0  0  0  0
   56.1200   29.7290   43.0090 C   0  0  0  0  0  0  0  0  0  0  0  0
   56.7350   30.7230   42.2460 C   0  0  0  0  0  0  0  0  0  0  0  0
   57.5290   31.7010   42.8540 C   0  0  0  0  0  0  0  0  0  0  0  0
   58.1790   32.6190   42.0280 O   0  0  0  0  0  0  0  0  0  0  0  0
   58.9080   33.8840   44.3870 N   0  0  0  0  0  0  0  0  0  0  0  0
   59.4460   34.6510   45.3210 N   0  0  0  0  0  0  0  0  0  0  0  0
   59.2924   34.0295   48.6377 H   0  0  0  0  0  0  0  0  0  0  0  0
   60.8098   34.6274   47.8850 H   0  0  0  0  0  0  0  0  0  0  0  0
   59.3397   35.6597   47.8850 H   0  0  0  0  0  0  0  0  0  0  0  0
   58.3229   32.1210   47.1109 H   0  0  0  0  0  0  0  0  0  0  0  0
   57.1578   30.6941   46.1138 H   0  0  0  0  0  0  0  0  0  0  0  0
   57.7272   28.5675   47.9744 H   0  0  0  0  0  0  0  0  0  0  0  0
   59.4631   30.1947   48.7299 H   0  0  0  0  0  0  0  0  0  0  0  0
   61.5375   29.7450   44.9609 H   0  0  0  0  0  0  0  0  0  0  0  0
   59.8053   28.1208   44.1986 H   0  0  0  0  0  0  0  0  0  0  0  0
   55.4907   28.9728   42.5169 H   0  0  0  0  0  0  0  0  0  0  0  0
   56.5938   30.7374   41.1552 H   0  0  0  0  0  0  0  0  0  0  0  0
   58.7540   33.3720   42.3790 H   0  0  0  0  0  0  0  0  0  0  0  0
  1  2  1  0
  2  3  1  0
  3  4  2  0
  4  5  1  0
  5  6  2  0
  6  7  1  0
  7  8  1  0
  8  9  1  0
  9 10  2  0
  9 11  1  0
 11 12  1  0
 12 13  2  0
 13 14  1  0
 14 15  2  0
 15 16  1  0
 15 17  1  0
 17 18  2  0
  7 19  2  0
 19 20  1  0
 20 21  2  0
 21 22  1  0
  4 23  1  0
 23 24  1  0
 24  2  2  0
 21  5  1  0
 18 12  1  0
  1 25  1  0
  1 26  1  0
  1 27  1  0
  3 28  1  0
  6 29  1  0
 13 30  1  0
 14 31  1  0
 17 32  1  0
 18 33  1  0
 19 34  1  0
 20 35  1  0
 22 36  1  0
M  CHG  3   8  -1  11  -1  23  -1
M  END
>  <UniqueID>  (67) 
63

>  <SMILES>  (67) 
Cc1cc(-c2cc([N-]C(=O)[N-]c3ccc(Cl)cc3)ccc2O)[n-]n1

>  <Energy>  (67) 
78.37911498690278

>  <Genealogy>  (67) 
Cc1cc(-c2cc([N-]C(=O)[N-]c3ccc(Cl)cc3)ccc2O)[n-]n1 (protonated)
Cc1cc(-c2cc([N-]C(=O)[N-]c3ccc(Cl)cc3)ccc2O)[n-]n1 (3D coordinates assigned)
Cc1cc(-c2cc([N-]C(=O)[N-]c3ccc(Cl)cc3)ccc2O)[n-]n1 (optimized conformer: 78.37911498690278 kcal/mol)

>  <smiles>  (67) 
Cc1cc(-c2cc(NC(=O)Nc3ccc(Cl)cc3)ccc2O)[nH]n1

>  <score_type>  (67) 
oracle

>  <origin>  (67) 
adg

>  <m_score__min__energy>  (67) 
-12.380000000000001

>  <m_primary>  (67) 
energy

$$$$
67:0
     RDKit          3D

 52 54  0  0  0  0  0  0  0  0999 V2000
   59.9750   34.2710   45.6320 C   0  0  0  0  0  0  0  0  0  0  0  0
   58.7650   33.4380   45.9350 C   0  0  0  0  0  0  0  0  0  0  0  0
   58.2660   33.5090   47.0910 O   0  0  0  0  0  0  0  0  0  0  0  0
   58.1490   32.5420   44.9170 C   0  0  0  0  0  0  0  0  0  0  0  0
   58.2790   32.8410   43.5500 C   0  0  0  0  0  0  0  0  0  0  0  0
   57.7040   32.0150   42.5730 C   0  0  0  0  0  0  0  0  0  0  0  0
   57.8270   32.3790   41.1200 C   0  0  0  0  0  0  0  0  0  0  0  0
   56.9610   30.8840   42.9590 C   0  0  0  0  0  0  0  0  0  0  0  0
   56.3010   30.1540   41.9650 O   0  0  0  0  0  0  0  0  0  0  0  0
   56.8720   30.5350   44.3280 C   0  0  0  0  0  0  0  0  0  0  0  0
   56.2700   29.2610   44.7810 C   0  0  0  0  0  0  0  0  0  0  0  0
   55.0730   28.9880   44.4920 O   0  0  0  0  0  0  0  0  0  0  0  0
   57.0170   28.3810   45.6260 N   0  0  0  0  0  0  0  0  0  0  0  0
   57.9530   27.3660   45.1510 C   0  0  0  0  0  0  0  0  0  0  0  0
   59.0060   28.0420   44.2710 C   0  0  0  0  0  0  0  0  0  0  0  0
   59.8530   29.0390   45.0880 C   0  0  0  0  0  0  0  0  0  0  0  0
   60.2410   28.5480   46.4410 N   0  0  0  0  0  0  0  0  0  0  0  0
   59.6160   29.3060   47.5480 C   0  0  0  0  0  0  0  0  0  0  0  0
   60.3640   30.5850   47.8220 C   0  0  0  0  0  0  0  0  0  0  0  0
   61.5250   30.9000   47.0960 C   0  0  0  0  0  0  0  0  0  0  0  0
   62.2180   32.0860   47.3590 C   0  0  0  0  0  0  0  0  0  0  0  0
   61.7580   32.9630   48.3440 C   0  0  0  0  0  0  0  0  0  0  0  0
   60.6010   32.6580   49.0690 C   0  0  0  0  0  0  0  0  0  0  0  0
   59.9720   33.8570   50.4150 Br  0  0  0  0  0  0  0  0  0  0  0  0
   59.9050   31.4720   48.8090 C   0  0  0  0  0  0  0  0  0  0  0  0
   60.0660   27.0890   46.6090 C   0  0  0  0  0  0  0  0  0  0  0  0
   58.6160   26.6330   46.3430 C   0  0  0  0  0  0  0  0  0  0  0  0
   57.4490   31.3810   45.2910 C   0  0  0  0  0  0  0  0  0  0  0  0
   60.4434   34.5934   46.5736 H   0  0  0  0  0  0  0  0  0  0  0  0
   60.6938   33.6754   45.0501 H   0  0  0  0  0  0  0  0  0  0  0  0
   59.6752   35.1550   45.0501 H   0  0  0  0  0  0  0  0  0  0  0  0
   58.8398   33.7357   43.2418 H   0  0  0  0  0  0  0  0  0  0  0  0
   58.1780   33.4177   41.0306 H   0  0  0  0  0  0  0  0  0  0  0  0
   58.5474   31.7054   40.6330 H   0  0  0  0  0  0  0  0  0  0  0  0
   56.8456   32.2804   40.6330 H   0  0  0  0  0  0  0  0  0  0  0  0
   55.5680   29.4860   42.1600 H   0  0  0  0  0  0  0  0  0  0  0  0
   57.4126   26.6117   44.5602 H   0  0  0  0  0  0  0  0  0  0  0  0
   59.6671   27.2725   43.8459 H   0  0  0  0  0  0  0  0  0  0  0  0
   58.4914   28.5936   43.4704 H   0  0  0  0  0  0  0  0  0  0  0  0
   60.7718   29.2547   44.5230 H   0  0  0  0  0  0  0  0  0  0  0  0
   59.2280   29.9308   45.2433 H   0  0  0  0  0  0  0  0  0  0  0  0
   58.5781   29.5484   47.2760 H   0  0  0  0  0  0  0  0  0  0  0  0
   59.6437   28.6847   48.4553 H   0  0  0  0  0  0  0  0  0  0  0  0
   61.8897   30.2122   46.3189 H   0  0  0  0  0  0  0  0  0  0  0  0
   63.1270   32.3286   46.7891 H   0  0  0  0  0  0  0  0  0  0  0  0
   62.3059   33.8943   48.5499 H   0  0  0  0  0  0  0  0  0  0  0  0
   58.9953   31.2339   49.3798 H   0  0  0  0  0  0  0  0  0  0  0  0
   60.7336   26.5703   45.9052 H   0  0  0  0  0  0  0  0  0  0  0  0
   60.3079   26.8415   47.6532 H   0  0  0  0  0  0  0  0  0  0  0  0
   58.6228   25.5540   46.1294 H   0  0  0  0  0  0  0  0  0  0  0  0
   58.0285   26.8736   47.2413 H   0  0  0  0  0  0  0  0  0  0  0  0
   57.3511   31.1301   46.3575 H   0  0  0  0  0  0  0  0  0  0  0  0
  1  2  1  0
  2  3  2  0
  2  4  1  0
  4  5  2  0
  5  6  1  0
  6  7  1  0
  6  8  2  0
  8  9  1  0
  8 10  1  0
 10 11  1  0
 11 12  2  0
 11 13  1  0
 13 14  1  0
 14 15  1  0
 15 16  1  0
 16 17  1  0
 17 18  1  0
 18 19  1  0
 19 20  2  0
 20 21  1  0
 21 22  2  0
 22 23  1  0
 23 24  1  0
 23 25  2  0
 17 26  1  0
 26 27  1  0
 10 28  2  0
 28  4  1  0
 27 14  1  0
 25 19  1  0
  1 29  1  0
  1 30  1  0
  1 31  1  0
  5 32  1  0
  7 33  1  0
  7 34  1  0
  7 35  1  0
  9 36  1  0
 14 37  1  0
 15 38  1  0
 15 39  1  0
 16 40  1  0
 16 41  1  0
 18 42  1  0
 18 43  1  0
 20 44  1  0
 21 45  1  0
 22 46  1  0
 25 47  1  0
 26 48  1  0
 26 49  1  0
 27 50  1  0
 27 51  1  0
 28 52  1  0
M  CHG  1  13  -1
M  END
>  <UniqueID>  (68) 
64

>  <SMILES>  (68) 
CC(=O)c1cc(C)c(O)c(C(=O)[N-]C2CCN(Cc3cccc(Br)c3)CC2)c1

>  <Energy>  (68) 
65.60186594453572

>  <Genealogy>  (68) 
CC(=O)c1cc(C)c(O)c(C(=O)[N-]C2CCN(Cc3cccc(Br)c3)CC2)c1 (protonated)
CC(=O)c1cc(C)c(O)c(C(=O)[N-]C2CCN(Cc3cccc(Br)c3)CC2)c1 (3D coordinates assigned)
CC(=O)c1cc(C)c(O)c(C(=O)[N-]C2CCN(Cc3cccc(Br)c3)CC2)c1 (nonaromatic ring conformer: 65.60186594453572 kcal/mol)

>  <smiles>  (68) 
CC(=O)c1cc(C)c(O)c(C(=O)NC2CCN(Cc3cccc(Br)c3)CC2)c1

>  <score_type>  (68) 
oracle

>  <origin>  (68) 
adg

>  <m_score__min__energy>  (68) 
-11.359999999999999

>  <m_primary>  (68) 
energy

$$$$
68:0
     RDKit          3D

 56 57  0  0  0  0  0  0  0  0999 V2000
   65.4990   33.0450   49.7890 C   0  0  0  0  0  0  0  0  0  0  0  0
   64.2630   32.1620   49.5670 C   0  0  0  0  0  0  0  0  0  0  0  0
   63.2300   32.7740   48.7000 N   0  0  0  0  0  0  0  0  0  0  0  0
   63.7830   33.8200   47.8180 C   0  0  0  0  0  0  0  0  0  0  0  0
   63.0800   33.8210   46.4610 C   0  0  0  0  0  0  0  0  0  0  0  0
   61.8400   33.3440   49.6090 S   0  0  0  0  0  0  0  0  0  0  0  0
   61.2320   34.5260   48.9090 O   0  0  0  0  0  0  0  0  0  0  0  0
   62.2600   33.7710   50.9880 O   0  0  0  0  0  0  0  0  0  0  0  0
   60.5990   32.0950   49.7180 C   0  0  0  0  0  0  0  0  0  0  0  0
   59.5850   32.1730   50.6810 C   0  0  0  0  0  0  0  0  0  0  0  0
   58.6070   31.1780   50.7490 C   0  0  0  0  0  0  0  0  0  0  0  0
   58.6430   30.0950   49.8670 C   0  0  0  0  0  0  0  0  0  0  0  0
   59.6650   29.9920   48.9060 C   0  0  0  0  0  0  0  0  0  0  0  0
   59.7070   28.8260   47.9900 C   0  0  0  0  0  0  0  0  0  0  0  0
   59.6930   27.6610   48.4700 O   0  0  0  0  0  0  0  0  0  0  0  0
   59.7880   29.0070   46.5660 N   0  0  0  0  0  0  0  0  0  0  0  0
   59.7610   27.8820   45.6350 C   0  0  0  0  0  0  0  0  0  0  0  0
   59.1450   28.2980   44.3370 C   0  0  0  0  0  0  0  0  0  0  0  0
   59.0010   27.4410   43.4240 O   0  0  0  0  0  0  0  0  0  0  0  0
   58.6720   29.6450   44.1840 N   0  0  0  0  0  0  0  0  0  0  0  0
   57.4870   30.1370   44.4310 C   0  0  0  0  0  0  0  0  0  0  0  0
   57.1120   31.5770   44.1280 C   0  0  0  0  0  0  0  0  0  0  0  0
   57.8650   32.5370   45.0160 C   0  0  0  0  0  0  0  0  0  0  0  0
   58.5050   33.6650   44.4680 C   0  0  0  0  0  0  0  0  0  0  0  0
   59.1980   34.5540   45.2960 C   0  0  0  0  0  0  0  0  0  0  0  0
   59.2440   34.3370   46.6760 C   0  0  0  0  0  0  0  0  0  0  0  0
   58.5880   33.2330   47.2340 C   0  0  0  0  0  0  0  0  0  0  0  0
   57.8990   32.3400   46.4080 C   0  0  0  0  0  0  0  0  0  0  0  0
   56.5160   29.2670   45.1250 C   0  0  0  0  0  0  0  0  0  0  0  0
   56.9170   28.4190   45.9630 O   0  0  0  0  0  0  0  0  0  0  0  0
   55.1530   29.3720   44.8680 O   0  0  0  0  0  0  0  0  0  0  0  0
   60.6310   31.0130   48.8280 C   0  0  0  0  0  0  0  0  0  0  0  0
   65.6722   33.1687   50.8682 H   0  0  0  0  0  0  0  0  0  0  0  0
   66.3773   32.5687   49.3289 H   0  0  0  0  0  0  0  0  0  0  0  0
   65.3331   34.0303   49.3289 H   0  0  0  0  0  0  0  0  0  0  0  0
   64.5903   31.2203   49.1022 H   0  0  0  0  0  0  0  0  0  0  0  0
   63.8001   32.0108   50.5533 H   0  0  0  0  0  0  0  0  0  0  0  0
   63.6459   34.8018   48.2947 H   0  0  0  0  0  0  0  0  0  0  0  0
   64.8518   33.6145   47.6585 H   0  0  0  0  0  0  0  0  0  0  0  0
   61.9905   33.8225   46.6125 H   0  0  0  0  0  0  0  0  0  0  0  0
   63.3730   34.7187   45.8969 H   0  0  0  0  0  0  0  0  0  0  0  0
   63.3705   32.9224   45.8969 H   0  0  0  0  0  0  0  0  0  0  0  0
   59.5588   33.0184   51.3843 H   0  0  0  0  0  0  0  0  0  0  0  0
   57.8058   31.2473   51.4995 H   0  0  0  0  0  0  0  0  0  0  0  0
   57.8669   29.3176   49.9245 H   0  0  0  0  0  0  0  0  0  0  0  0
   59.9620   29.9580   46.1710 H   0  0  0  0  0  0  0  0  0  0  0  0
   60.7893   27.5356   45.4543 H   0  0  0  0  0  0  0  0  0  0  0  0
   59.1615   27.0698   46.0719 H   0  0  0  0  0  0  0  0  0  0  0  0
   57.3525   31.7966   43.0773 H   0  0  0  0  0  0  0  0  0  0  0  0
   56.0352   31.7025   44.3146 H   0  0  0  0  0  0  0  0  0  0  0  0
   58.4598   33.8478   43.3842 H   0  0  0  0  0  0  0  0  0  0  0  0
   59.7079   35.4258   44.8602 H   0  0  0  0  0  0  0  0  0  0  0  0
   59.7958   35.0339   47.3240 H   0  0  0  0  0  0  0  0  0  0  0  0
   58.6147   33.0685   48.3213 H   0  0  0  0  0  0  0  0  0  0  0  0
   57.3797   31.4770   46.8501 H   0  0  0  0  0  0  0  0  0  0  0  0
   61.4182   30.9610   48.0614 H   0  0  0  0  0  0  0  0  0  0  0  0
  1  2  1  0
  2  3  1  0
  3  4  1  0
  4  5  1  0
  3  6  1  0
  6  7  2  0
  6  8  2  0
  6  9  1  0
  9 10  2  0
 10 11  1  0
 11 12  2  0
 12 13  1  0
 13 14  1  0
 14 15  2  0
 14 16  1  0
 16 17  1  0
 17 18  1  0
 18 19  2  0
 18 20  1  0
 20 21  2  3
 21 22  1  0
 22 23  1  0
 23 24  2  0
 24 25  1  0
 25 26  2  0
 26 27  1  0
 27 28  2  0
 21 29  1  0
 29 30  2  0
 29 31  1  0
 13 32  2  0
 32  9  1  0
 28 23  1  0
  1 33  1  0
  1 34  1  0
  1 35  1  0
  2 36  1  0
  2 37  1  0
  4 38  1  0
  4 39  1  0
  5 40  1  0
  5 41  1  0
  5 42  1  0
 10 43  1  0
 11 44  1  0
 12 45  1  0
 16 46  1  0
 17 47  1  0
 17 48  1  0
 22 49  1  0
 22 50  1  0
 24 51  1  0
 25 52  1  0
 26 53  1  0
 27 54  1  0
 28 55  1  0
 32 56  1  0
M  CHG  1  31  -1
M  END
>  <UniqueID>  (69) 
65

>  <SMILES>  (69) 
CCN(CC)S(=O)(=O)c1cccc(C(=O)NCC(=O)N=C(Cc2ccccc2)C(=O)[O-])c1

>  <Energy>  (69) 
58.82309627790455

>  <Genealogy>  (69) 
CCN(CC)S(=O)(=O)c1cccc(C(=O)NCC(=O)N=C(Cc2ccccc2)C(=O)[O-])c1 (protonated)
CCN(CC)S(=O)(=O)c1cccc(C(=O)NCC(=O)N=C(Cc2ccccc2)C(=O)[O-])c1 (3D coordinates assigned)
CCN(CC)S(=O)(=O)c1cccc(C(=O)NCC(=O)N=C(Cc2ccccc2)C(=O)[O-])c1 (optimized conformer: 58.82309627790455 kcal/mol)

>  <smiles>  (69) 
CCN(CC)S(=O)(=O)c1cccc(C(=O)NCC(=O)N=C(Cc2ccccc2)C(=O)O)c1

>  <score_type>  (69) 
oracle

>  <origin>  (69) 
adg

>  <m_score__min__energy>  (69) 
-12.369999999999999

>  <m_primary>  (69) 
energy

$$$$
69:0
     RDKit          3D

 24 25  0  0  0  0  0  0  0  0999 V2000
   50.8382   31.5303   54.3860 H   0  0  0  0  0  0  0  0  0  0  0  0
   51.3780   31.4770   53.4290 C   0  0  0  0  0  0  0  0  0  0  0  0
   50.8560   32.1090   52.2980 C   0  0  0  0  0  0  0  0  0  0  0  0
   49.8997   32.6488   52.3614 H   0  0  0  0  0  0  0  0  0  0  0  0
   51.5500   32.0550   51.0850 C   0  0  0  0  0  0  0  0  0  0  0  0
   51.0420   32.7030   49.9660 O   0  0  0  0  0  0  0  0  0  0  0  0
   52.7570   31.3530   50.9990 C   0  0  0  0  0  0  0  0  0  0  0  0
   53.3061   31.3214   50.0463 H   0  0  0  0  0  0  0  0  0  0  0  0
   53.2720   30.6860   52.1290 C   0  0  0  0  0  0  0  0  0  0  0  0
   54.5260   29.9840   52.0950 N   0  0  0  0  0  0  0  0  0  0  0  0
   55.7120   30.5080   51.9870 C   0  0  0  0  0  0  0  0  0  0  0  0
   56.8000   29.7440   51.6870 N   0  0  0  0  0  0  0  0  0  0  0  0
   58.0420   30.2860   51.5930 C   0  0  0  0  0  0  0  0  0  0  0  0
   59.2140   29.4160   51.2680 C   0  0  0  0  0  0  0  0  0  0  0  0
   59.6824   29.0683   52.2006 H   0  0  0  0  0  0  0  0  0  0  0  0
   58.8756   28.5487   50.6822 H   0  0  0  0  0  0  0  0  0  0  0  0
   59.9462   29.9910   50.6822 H   0  0  0  0  0  0  0  0  0  0  0  0
   58.2170   31.6530   51.8290 C   0  0  0  0  0  0  0  0  0  0  0  0
   59.2147   32.1118   51.7647 H   0  0  0  0  0  0  0  0  0  0  0  0
   57.0970   32.4220   52.1480 C   0  0  0  0  0  0  0  0  0  0  0  0
   57.2180   33.6550   52.3680 O   0  0  0  0  0  0  0  0  0  0  0  0
   55.8740   31.8370   52.2230 N   0  0  0  0  0  0  0  0  0  0  0  0
   52.5850   30.7770   53.3470 C   0  0  0  0  0  0  0  0  0  0  0  0
   52.9985   30.2942   54.2447 H   0  0  0  0  0  0  0  0  0  0  0  0
  1  2  1  0
  2  3  2  0
  3  4  1  0
  3  5  1  0
  5  6  1  0
  5  7  2  0
  7  8  1  0
  7  9  1  0
  9 10  1  0
 10 11  2  0
 11 12  1  0
 12 13  1  0
 13 14  1  0
 14 15  1  0
 14 16  1  0
 14 17  1  0
 13 18  2  0
 18 19  1  0
 18 20  1  0
 20 21  2  0
 20 22  1  0
  9 23  2  0
 23 24  1  0
 23  2  1  0
 22 11  1  0
M  CHG  3   6  -1  12  -1  22  -1
M  END
>  <UniqueID>  (70) 
66

>  <SMILES>  (70) 
Cc1cc(=O)[n-]/c(=N/c2cccc([O-])c2)[n-]1

>  <Energy>  (70) 
30.78523976240003

>  <Genealogy>  (70) 
Cc1cc(=O)[n-]c(=Nc2cccc([O-])c2)[n-]1 (protonated)
Cc1cc(=O)[n-]/c(=N/c2cccc([O-])c2)[n-]1 (cis-trans isomerization)
Cc1cc(=O)[n-]/c(=N/c2cccc([O-])c2)[n-]1 (3D coordinates assigned)
Cc1cc(=O)[n-]/c(=N/c2cccc([O-])c2)[n-]1 (optimized conformer: 30.78523976240003 kcal/mol)

>  <smiles>  (70) 
Cc1cc(=O)[nH]c(=Nc2cccc(O)c2)[nH]1

>  <score_type>  (70) 
oracle

>  <origin>  (70) 
adg

>  <m_score__min__energy>  (70) 
-11.76

>  <m_primary>  (70) 
energy

$$$$
70:0
     RDKit          3D

 41 44  0  0  0  0  0  0  0  0999 V2000
   61.3580   34.2540   48.9910 C   0  0  0  0  0  0  0  0  0  0  0  0
   60.4190   33.6720   47.9780 C   0  0  0  0  0  0  0  0  0  0  0  0
   59.5860   32.5960   48.3200 C   0  0  0  0  0  0  0  0  0  0  0  0
   58.7370   32.0300   47.3650 C   0  0  0  0  0  0  0  0  0  0  0  0
   58.7210   32.5240   46.0530 C   0  0  0  0  0  0  0  0  0  0  0  0
   57.6230   31.8220   44.8660 S   0  0  0  0  0  0  0  0  0  0  0  0
   58.2170   32.0290   43.5000 O   0  0  0  0  0  0  0  0  0  0  0  0
   56.2890   32.5130   44.9250 O   0  0  0  0  0  0  0  0  0  0  0  0
   57.3950   30.0960   45.1710 C   0  0  0  0  0  0  0  0  0  0  0  0
   58.4610   29.3190   45.6460 C   0  0  0  0  0  0  0  0  0  0  0  0
   58.2870   27.9510   45.8820 C   0  0  0  0  0  0  0  0  0  0  0  0
   57.0190   27.3780   45.6760 C   0  0  0  0  0  0  0  0  0  0  0  0
   55.9940   28.1560   45.2350 N   0  0  0  0  0  0  0  0  0  0  0  0
   56.1460   29.4820   44.9800 C   0  0  0  0  0  0  0  0  0  0  0  0
   55.1550   30.1500   44.5810 O   0  0  0  0  0  0  0  0  0  0  0  0
   56.8150   25.9330   45.9330 C   0  0  0  0  0  0  0  0  0  0  0  0
   55.5240   25.3780   45.9840 C   0  0  0  0  0  0  0  0  0  0  0  0
   55.3540   24.0140   46.2370 C   0  0  0  0  0  0  0  0  0  0  0  0
   56.4670   23.1920   46.4300 C   0  0  0  0  0  0  0  0  0  0  0  0
   57.7550   23.7300   46.3730 C   0  0  0  0  0  0  0  0  0  0  0  0
   57.9380   25.1020   46.1390 C   0  0  0  0  0  0  0  0  0  0  0  0
   59.3320   25.6650   45.9930 C   0  0  0  0  0  0  0  0  0  0  0  0
   59.4060   27.1240   46.4660 C   0  0  0  0  0  0  0  0  0  0  0  0
   59.5600   33.5920   45.7050 C   0  0  0  0  0  0  0  0  0  0  0  0
   60.4110   34.1570   46.6610 C   0  0  0  0  0  0  0  0  0  0  0  0
   60.9919   34.0271   50.0032 H   0  0  0  0  0  0  0  0  0  0  0  0
   62.3587   33.8176   48.8566 H   0  0  0  0  0  0  0  0  0  0  0  0
   61.4124   35.3444   48.8566 H   0  0  0  0  0  0  0  0  0  0  0  0
   59.6012   32.1960   49.3446 H   0  0  0  0  0  0  0  0  0  0  0  0
   58.0789   31.1938   47.6437 H   0  0  0  0  0  0  0  0  0  0  0  0
   59.4385   29.7871   45.8340 H   0  0  0  0  0  0  0  0  0  0  0  0
   54.6449   26.0196   45.8242 H   0  0  0  0  0  0  0  0  0  0  0  0
   54.3415   23.5867   46.2843 H   0  0  0  0  0  0  0  0  0  0  0  0
   56.3289   22.1187   46.6273 H   0  0  0  0  0  0  0  0  0  0  0  0
   58.6287   23.0763   46.5120 H   0  0  0  0  0  0  0  0  0  0  0  0
   60.0261   25.0594   46.5942 H   0  0  0  0  0  0  0  0  0  0  0  0
   59.6049   25.6349   44.9278 H   0  0  0  0  0  0  0  0  0  0  0  0
   59.3336   27.1483   47.5633 H   0  0  0  0  0  0  0  0  0  0  0  0
   60.3626   27.5489   46.1277 H   0  0  0  0  0  0  0  0  0  0  0  0
   59.5492   33.9865   44.6782 H   0  0  0  0  0  0  0  0  0  0  0  0
   61.0772   34.9856   46.3790 H   0  0  0  0  0  0  0  0  0  0  0  0
  1  2  1  0
  2  3  2  0
  3  4  1  0
  4  5  2  0
  5  6  1  0
  6  7  2  0
  6  8  2  0
  6  9  1  0
  9 10  2  0
 10 11  1  0
 11 12  2  0
 12 13  1  0
 13 14  1  0
 14 15  2  0
 12 16  1  0
 16 17  2  0
 17 18  1  0
 18 19  2  0
 19 20  1  0
 20 21  2  0
 21 22  1  0
 22 23  1  0
  5 24  1  0
 24 25  2  0
 25  2  1  0
 14  9  1  0
 21 16  1  0
 23 11  1  0
  1 26  1  0
  1 27  1  0
  1 28  1  0
  3 29  1  0
  4 30  1  0
 10 31  1  0
 17 32  1  0
 18 33  1  0
 19 34  1  0
 20 35  1  0
 22 36  1  0
 22 37  1  0
 23 38  1  0
 23 39  1  0
 24 40  1  0
 25 41  1  0
M  CHG  1  13  -1
M  END
>  <UniqueID>  (71) 
67

>  <SMILES>  (71) 
Cc1ccc(S(=O)(=O)c2cc3c([n-]c2=O)-c2ccccc2CC3)cc1

>  <Energy>  (71) 
51.819380087419766

>  <Genealogy>  (71) 
Cc1ccc(S(=O)(=O)c2cc3c([n-]c2=O)-c2ccccc2CC3)cc1 (protonated)
Cc1ccc(S(=O)(=O)c2cc3c([n-]c2=O)-c2ccccc2CC3)cc1 (3D coordinates assigned)
Cc1ccc(S(=O)(=O)c2cc3c([n-]c2=O)-c2ccccc2CC3)cc1 (nonaromatic ring conformer: 51.819380087419766 kcal/mol)

>  <smiles>  (71) 
Cc1ccc(S(=O)(=O)c2cc3c([nH]c2=O)-c2ccccc2CC3)cc1

>  <score_type>  (71) 
oracle

>  <origin>  (71) 
adg

>  <m_score__min__energy>  (71) 
-10.76

>  <m_primary>  (71) 
energy

$$$$
71:0
     RDKit          3D

 35 37  0  0  0  0  0  0  0  0999 V2000
   58.2480   22.1070   45.2560 C   0  0  0  0  0  0  0  0  0  0  0  0
   57.9350   23.0620   46.2650 O   0  0  0  0  0  0  0  0  0  0  0  0
   57.6700   24.4160   46.0190 C   0  0  0  0  0  0  0  0  0  0  0  0
   58.0160   24.9460   44.7700 C   0  0  0  0  0  0  0  0  0  0  0  0
   57.7640   26.2880   44.4720 C   0  0  0  0  0  0  0  0  0  0  0  0
   57.1500   27.1180   45.4210 C   0  0  0  0  0  0  0  0  0  0  0  0
   56.8610   28.5290   45.1120 C   0  0  0  0  0  0  0  0  0  0  0  0
   55.6190   28.9860   44.8590 N   0  0  0  0  0  0  0  0  0  0  0  0
   55.7300   30.2690   44.5510 N   0  0  0  0  0  0  0  0  0  0  0  0
   57.0390   30.5720   44.6120 C   0  0  0  0  0  0  0  0  0  0  0  0
   57.6260   32.0570   44.2470 S   0  0  0  0  0  0  0  0  0  0  0  0
   57.7880   29.5040   44.9640 N   0  0  0  0  0  0  0  0  0  0  0  0
   59.2510   29.3760   44.9620 C   0  0  0  0  0  0  0  0  0  0  0  0
   59.7140   28.6450   46.1940 C   0  0  0  0  0  0  0  0  0  0  0  0
   60.3970   27.4220   46.0720 C   0  0  0  0  0  0  0  0  0  0  0  0
   60.7950   26.7210   47.2140 C   0  0  0  0  0  0  0  0  0  0  0  0
   60.5130   27.2310   48.4840 C   0  0  0  0  0  0  0  0  0  0  0  0
   59.8350   28.4470   48.6150 C   0  0  0  0  0  0  0  0  0  0  0  0
   59.4380   29.1530   47.4750 C   0  0  0  0  0  0  0  0  0  0  0  0
   56.8250   26.5990   46.6810 C   0  0  0  0  0  0  0  0  0  0  0  0
   57.0730   25.2570   46.9790 C   0  0  0  0  0  0  0  0  0  0  0  0
   58.5574   21.1629   45.7281 H   0  0  0  0  0  0  0  0  0  0  0  0
   57.3607   21.9305   44.6303 H   0  0  0  0  0  0  0  0  0  0  0  0
   59.0676   22.4900   44.6303 H   0  0  0  0  0  0  0  0  0  0  0  0
   58.4905   24.3002   44.0165 H   0  0  0  0  0  0  0  0  0  0  0  0
   58.0481   26.6944   43.4901 H   0  0  0  0  0  0  0  0  0  0  0  0
   59.5649   28.8162   44.0686 H   0  0  0  0  0  0  0  0  0  0  0  0
   59.6978   30.3811   44.9537 H   0  0  0  0  0  0  0  0  0  0  0  0
   60.6189   27.0154   45.0743 H   0  0  0  0  0  0  0  0  0  0  0  0
   61.3313   25.7659   47.1127 H   0  0  0  0  0  0  0  0  0  0  0  0
   60.8244   26.6758   49.3811 H   0  0  0  0  0  0  0  0  0  0  0  0
   59.6139   28.8483   49.6150 H   0  0  0  0  0  0  0  0  0  0  0  0
   58.9072   30.1105   47.5814 H   0  0  0  0  0  0  0  0  0  0  0  0
   56.3715   27.2526   47.4407 H   0  0  0  0  0  0  0  0  0  0  0  0
   56.8013   24.8555   47.9664 H   0  0  0  0  0  0  0  0  0  0  0  0
  1  2  1  0
  2  3  1  0
  3  4  2  0
  4  5  1  0
  5  6  2  0
  6  7  1  0
  7  8  2  0
  8  9  1  0
  9 10  1  0
 10 11  2  0
 10 12  1  0
 12 13  1  0
 13 14  1  0
 14 15  2  0
 15 16  1  0
 16 17  2  0
 17 18  1  0
 18 19  2  0
  6 20  1  0
 20 21  2  0
 21  3  1  0
 12  7  1  0
 19 14  1  0
  1 22  1  0
  1 23  1  0
  1 24  1  0
  4 25  1  0
  5 26  1  0
 13 27  1  0
 13 28  1  0
 15 29  1  0
 16 30  1  0
 17 31  1  0
 18 32  1  0
 19 33  1  0
 20 34  1  0
 21 35  1  0
M  CHG  1   9  -1
M  END
>  <UniqueID>  (72) 
68

>  <SMILES>  (72) 
COc1ccc(-c2n[n-]c(=S)n2Cc2ccccc2)cc1

>  <Energy>  (72) 
75.95851185487423

>  <Genealogy>  (72) 
COc1ccc(-c2n[n-]c(=S)n2Cc2ccccc2)cc1 (protonated)
COc1ccc(-c2n[n-]c(=S)n2Cc2ccccc2)cc1 (3D coordinates assigned)
COc1ccc(-c2n[n-]c(=S)n2Cc2ccccc2)cc1 (optimized conformer: 75.95851185487423 kcal/mol)

>  <smiles>  (72) 
COc1ccc(-c2n[nH]c(=S)n2Cc2ccccc2)cc1

>  <score_type>  (72) 
oracle

>  <origin>  (72) 
adg

>  <m_score__min__energy>  (72) 
-8.0800000000000001

>  <m_primary>  (72) 
energy

$$$$
72:0
     RDKit          3D

 44 46  0  0  0  0  0  0  0  0999 V2000
   59.6130   35.3490   47.1120 C   0  0  0  0  0  0  0  0  0  0  0  0
   59.0290   34.2210   46.3150 C   0  0  0  0  0  0  0  0  0  0  0  0
   58.7810   32.9810   46.9240 C   0  0  0  0  0  0  0  0  0  0  0  0
   58.2020   31.9400   46.1930 C   0  0  0  0  0  0  0  0  0  0  0  0
   57.8520   32.1310   44.8500 C   0  0  0  0  0  0  0  0  0  0  0  0
   57.1160   30.8180   43.9370 S   0  0  0  0  0  0  0  0  0  0  0  0
   56.9390   31.2560   42.5110 O   0  0  0  0  0  0  0  0  0  0  0  0
   55.7740   30.4590   44.5090 O   0  0  0  0  0  0  0  0  0  0  0  0
   58.1400   29.4180   43.9790 N   0  0  0  0  0  0  0  0  0  0  0  0
   57.8260   28.1840   44.6380 C   0  0  0  0  0  0  0  0  0  0  0  0
   57.9860   26.9370   44.0090 C   0  0  0  0  0  0  0  0  0  0  0  0
   57.6660   25.7580   44.6890 C   0  0  0  0  0  0  0  0  0  0  0  0
   57.1860   25.8020   46.0100 C   0  0  0  0  0  0  0  0  0  0  0  0
   56.8540   24.5510   46.7320 C   0  0  0  0  0  0  0  0  0  0  0  0
   57.7740   23.8470   47.2330 O   0  0  0  0  0  0  0  0  0  0  0  0
   55.4890   24.1370   46.8650 N   0  0  0  0  0  0  0  0  0  0  0  0
   54.6670   23.6880   45.7470 C   0  0  0  0  0  0  0  0  0  0  0  0
   55.4710   22.8120   44.8260 C   0  0  0  0  0  0  0  0  0  0  0  0
   56.1690   21.6990   45.3170 C   0  0  0  0  0  0  0  0  0  0  0  0
   56.8890   20.8860   44.4400 C   0  0  0  0  0  0  0  0  0  0  0  0
   56.9010   21.1900   43.0770 C   0  0  0  0  0  0  0  0  0  0  0  0
   56.2160   22.2690   42.6150 N   0  0  0  0  0  0  0  0  0  0  0  0
   55.5080   23.0780   43.4490 C   0  0  0  0  0  0  0  0  0  0  0  0
   57.0330   27.0520   46.6350 C   0  0  0  0  0  0  0  0  0  0  0  0
   57.3510   28.2300   45.9530 C   0  0  0  0  0  0  0  0  0  0  0  0
   58.0870   33.3720   44.2410 C   0  0  0  0  0  0  0  0  0  0  0  0
   58.6650   34.4150   44.9720 C   0  0  0  0  0  0  0  0  0  0  0  0
   59.5024   35.1353   48.1854 H   0  0  0  0  0  0  0  0  0  0  0  0
   60.6801   35.4566   46.8676 H   0  0  0  0  0  0  0  0  0  0  0  0
   59.0849   36.2825   46.8676 H   0  0  0  0  0  0  0  0  0  0  0  0
   59.0435   32.8279   47.9812 H   0  0  0  0  0  0  0  0  0  0  0  0
   58.0205   30.9674   46.6738 H   0  0  0  0  0  0  0  0  0  0  0  0
   58.3646   26.8886   42.9773 H   0  0  0  0  0  0  0  0  0  0  0  0
   57.7908   24.7876   44.1863 H   0  0  0  0  0  0  0  0  0  0  0  0
   53.8094   23.1176   46.1333 H   0  0  0  0  0  0  0  0  0  0  0  0
   54.3141   24.5666   45.1871 H   0  0  0  0  0  0  0  0  0  0  0  0
   56.1491   21.4670   46.3921 H   0  0  0  0  0  0  0  0  0  0  0  0
   57.4419   20.0138   44.8190 H   0  0  0  0  0  0  0  0  0  0  0  0
   57.4651   20.5559   42.3772 H   0  0  0  0  0  0  0  0  0  0  0  0
   54.9632   23.9429   43.0425 H   0  0  0  0  0  0  0  0  0  0  0  0
   56.6602   27.1034   47.6686 H   0  0  0  0  0  0  0  0  0  0  0  0
   57.2267   29.2011   46.4544 H   0  0  0  0  0  0  0  0  0  0  0  0
   57.8162   33.5256   43.1860 H   0  0  0  0  0  0  0  0  0  0  0  0
   58.8352   35.3908   44.4936 H   0  0  0  0  0  0  0  0  0  0  0  0
  1  2  1  0
  2  3  2  0
  3  4  1  0
  4  5  2  0
  5  6  1  0
  6  7  2  0
  6  8  2  0
  6  9  1  0
  9 10  1  0
 10 11  2  0
 11 12  1  0
 12 13  2  0
 13 14  1  0
 14 15  2  0
 14 16  1  0
 16 17  1  0
 17 18  1  0
 18 19  2  0
 19 20  1  0
 20 21  2  0
 21 22  1  0
 22 23  2  0
 13 24  1  0
 24 25  2  0
  5 26  1  0
 26 27  2  0
 27  2  1  0
 25 10  1  0
 23 18  1  0
  1 28  1  0
  1 29  1  0
  1 30  1  0
  3 31  1  0
  4 32  1  0
 11 33  1  0
 12 34  1  0
 17 35  1  0
 17 36  1  0
 19 37  1  0
 20 38  1  0
 21 39  1  0
 23 40  1  0
 24 41  1  0
 25 42  1  0
 26 43  1  0
 27 44  1  0
M  CHG  2   9  -1  16  -1
M  END
>  <UniqueID>  (73) 
69

>  <SMILES>  (73) 
Cc1ccc(S(=O)(=O)[N-]c2ccc(C(=O)[N-]Cc3cccnc3)cc2)cc1

>  <Energy>  (73) 
48.11999323501883

>  <Genealogy>  (73) 
Cc1ccc(S(=O)(=O)[N-]c2ccc(C(=O)[N-]Cc3cccnc3)cc2)cc1 (protonated)
Cc1ccc(S(=O)(=O)[N-]c2ccc(C(=O)[N-]Cc3cccnc3)cc2)cc1 (3D coordinates assigned)
Cc1ccc(S(=O)(=O)[N-]c2ccc(C(=O)[N-]Cc3cccnc3)cc2)cc1 (optimized conformer: 48.11999323501883 kcal/mol)

>  <smiles>  (73) 
Cc1ccc(S(=O)(=O)Nc2ccc(C(=O)NCc3cccnc3)cc2)cc1

>  <score_type>  (73) 
oracle

>  <origin>  (73) 
adg

>  <m_score__min__energy>  (73) 
-11.51

>  <m_primary>  (73) 
energy

$$$$
73:0
     RDKit          3D

 47 51  0  0  0  0  0  0  0  0999 V2000
   54.3990   27.0970   46.3660 H   0  0  0  0  0  0  0  0  0  0  0  0
   55.1210   26.6700   45.7980 O   0  0  0  0  0  0  0  0  0  0  0  0
   56.1180   25.8960   46.3820 C   0  0  0  0  0  0  0  0  0  0  0  0
   55.8810   24.8930   47.2430 N   0  0  0  0  0  0  0  0  0  0  0  0
   57.1250   24.4660   47.5470 C   0  0  0  0  0  0  0  0  0  0  0  0
   57.3410   23.5170   48.3440 O   0  0  0  0  0  0  0  0  0  0  0  0
   58.1200   25.1410   46.9330 N   0  0  0  0  0  0  0  0  0  0  0  0
   57.4690   26.0410   46.1740 C   0  0  0  0  0  0  0  0  0  0  0  0
   58.1030   27.1000   45.3670 C   0  0  0  0  0  0  0  0  0  0  0  0
   58.8372   26.7831   44.6116 H   0  0  0  0  0  0  0  0  0  0  0  0
   57.8630   28.4180   45.4730 C   0  0  0  0  0  0  0  0  0  0  0  0
   57.1350   29.1760   44.5660 C   0  0  0  0  0  0  0  0  0  0  0  0
   56.6511   28.7834   43.6595 H   0  0  0  0  0  0  0  0  0  0  0  0
   57.1090   30.4680   44.9620 N   0  0  0  0  0  0  0  0  0  0  0  0
   57.7980   30.5650   46.0850 N   0  0  0  0  0  0  0  0  0  0  0  0
   58.0940   31.6670   46.8460 C   0  0  0  0  0  0  0  0  0  0  0  0
   57.6660   32.8900   46.6320 N   0  0  0  0  0  0  0  0  0  0  0  0
   58.1330   34.2480   46.2890 C   0  0  0  0  0  0  0  0  0  0  0  0
   57.1100   34.6171   46.1238 H   0  0  0  0  0  0  0  0  0  0  0  0
   59.4390   34.3730   45.5370 C   0  0  0  0  0  0  0  0  0  0  0  0
   59.9961   33.4706   45.2451 H   0  0  0  0  0  0  0  0  0  0  0  0
   59.7628   34.8697   44.6105 H   0  0  0  0  0  0  0  0  0  0  0  0
   59.3460   34.7770   47.0190 C   0  0  0  0  0  0  0  0  0  0  0  0
   59.8367   34.1643   47.7896 H   0  0  0  0  0  0  0  0  0  0  0  0
   59.5756   35.6841   47.5972 H   0  0  0  0  0  0  0  0  0  0  0  0
   58.9000   31.4780   47.9280 N   0  0  0  0  0  0  0  0  0  0  0  0
   59.3980   30.2450   48.2450 C   0  0  0  0  0  0  0  0  0  0  0  0
   60.1690   30.0830   49.2770 N   0  0  0  0  0  0  0  0  0  0  0  0
   61.6270   30.1580   49.2320 C   0  0  0  0  0  0  0  0  0  0  0  0
   62.0158   29.3627   48.5790 H   0  0  0  0  0  0  0  0  0  0  0  0
   62.0338   30.0291   50.2458 H   0  0  0  0  0  0  0  0  0  0  0  0
   62.0410   31.5030   48.6890 C   0  0  0  0  0  0  0  0  0  0  0  0
   62.8760   31.5490   47.5590 C   0  0  0  0  0  0  0  0  0  0  0  0
   63.1989   30.6123   47.0812 H   0  0  0  0  0  0  0  0  0  0  0  0
   63.2990   32.7730   47.0380 C   0  0  0  0  0  0  0  0  0  0  0  0
   63.9455   32.7974   46.1484 H   0  0  0  0  0  0  0  0  0  0  0  0
   62.9030   33.9650   47.6440 C   0  0  0  0  0  0  0  0  0  0  0  0
   63.2328   34.9282   47.2275 H   0  0  0  0  0  0  0  0  0  0  0  0
   62.0890   33.9390   48.7780 C   0  0  0  0  0  0  0  0  0  0  0  0
   61.7808   34.8833   49.2505 H   0  0  0  0  0  0  0  0  0  0  0  0
   61.6600   32.7140   49.3210 C   0  0  0  0  0  0  0  0  0  0  0  0
   60.7820   32.7230   50.5450 C   0  0  0  0  0  0  0  0  0  0  0  0
   61.4109   32.7166   51.4474 H   0  0  0  0  0  0  0  0  0  0  0  0
   60.1562   33.6276   50.5407 H   0  0  0  0  0  0  0  0  0  0  0  0
   60.1378   31.8314   50.5407 H   0  0  0  0  0  0  0  0  0  0  0  0
   59.0850   29.1720   47.4760 N   0  0  0  0  0  0  0  0  0  0  0  0
   58.2700   29.3510   46.4120 C   0  0  0  0  0  0  0  0  0  0  0  0
  1  2  1  0
  2  3  1  0
  3  4  1  0
  4  5  1  0
  5  6  2  0
  5  7  1  0
  7  8  1  0
  8  9  1  0
  9 10  1  0
  9 11  2  0
 11 12  1  0
 12 13  1  0
 12 14  2  0
 14 15  1  0
 15 16  1  0
 16 17  2  0
 17 18  1  0
 18 19  1  0
 18 20  1  0
 20 21  1  0
 20 22  1  0
 20 23  1  0
 23 24  1  0
 23 25  1  0
 16 26  1  0
 26 27  1  0
 27 28  2  3
 28 29  1  0
 29 30  1  0
 29 31  1  0
 29 32  1  0
 32 33  2  0
 33 34  1  0
 33 35  1  0
 35 36  1  0
 35 37  2  0
 37 38  1  0
 37 39  1  0
 39 40  1  0
 39 41  2  0
 41 42  1  0
 42 43  1  0
 42 44  1  0
 42 45  1  0
 27 46  1  0
 46 47  2  0
  8  3  2  0
 47 11  1  0
 47 15  1  0
 23 18  1  0
 41 32  1  0
M  CHG  3   4  -1   7  -1  26  -1
M  END
>  <UniqueID>  (74) 
70

>  <SMILES>  (74) 
Cc1ccccc1CN=c1nc2/c(=C\c3[n-]c(=O)[n-]c3O)cnn2/c(=N\C2CC2)[n-]1

>  <Energy>  (74) 
414.5297179950032

>  <Genealogy>  (74) 
Cc1ccccc1CN=c1nc2c(=Cc3[n-]c(=O)[n-]c3O)cnn2c(=NC2CC2)[n-]1 (protonated)
Cc1ccccc1CN=c1nc2/c(=C\c3[n-]c(=O)[n-]c3O)cnn2/c(=N\C2CC2)[n-]1 (cis-trans isomerization)
Cc1ccccc1CN=c1nc2/c(=C\c3[n-]c(=O)[n-]c3O)cnn2/c(=N\C2CC2)[n-]1 (3D coordinates assigned)
Cc1ccccc1CN=c1nc2/c(=C\c3[n-]c(=O)[n-]c3O)cnn2/c(=N\C2CC2)[n-]1 (nonaromatic ring conformer: 414.5297179950032 kcal/mol)

>  <smiles>  (74) 
Cc1ccccc1CN=c1nc2c(=Cc3[nH]c(=O)[nH]c3O)cnn2c(=NC2CC2)[nH]1

>  <score_type>  (74) 
oracle

>  <origin>  (74) 
adg

>  <m_score__min__energy>  (74) 
-14.9

>  <m_primary>  (74) 
energy

$$$$
74:0
     RDKit          3D

 45 46  0  0  0  0  0  0  0  0999 V2000
   56.6170   29.8810   43.1580 C   0  0  0  0  0  0  0  0  0  0  0  0
   56.9890   31.2080   43.5270 O   0  0  0  0  0  0  0  0  0  0  0  0
   57.4380   31.5790   44.8030 C   0  0  0  0  0  0  0  0  0  0  0  0
   57.2410   32.9010   45.2230 C   0  0  0  0  0  0  0  0  0  0  0  0
   57.6420   33.3090   46.5000 C   0  0  0  0  0  0  0  0  0  0  0  0
   58.2620   32.4000   47.3640 C   0  0  0  0  0  0  0  0  0  0  0  0
   58.6530   32.8110   48.7220 C   0  0  0  0  0  0  0  0  0  0  0  0
   59.6420   33.5870   48.8580 O   0  0  0  0  0  0  0  0  0  0  0  0
   58.0070   32.2780   49.8900 N   0  0  0  0  0  0  0  0  0  0  0  0
   58.4310   32.4370   51.2790 C   0  0  0  0  0  0  0  0  0  0  0  0
   57.3780   31.9920   52.3120 C   0  0  0  0  0  0  0  0  0  0  0  0
   56.9100   30.5710   52.1750 C   0  0  0  0  0  0  0  0  0  0  0  0
   57.5780   29.7170   51.5280 O   0  0  0  0  0  0  0  0  0  0  0  0
   55.6560   30.2080   52.7660 N   0  0  0  0  0  0  0  0  0  0  0  0
   54.5430   29.6230   52.0260 C   0  0  0  0  0  0  0  0  0  0  0  0
   53.3440   30.5430   52.0270 C   0  0  0  0  0  0  0  0  0  0  0  0
   52.9110   31.1320   50.8270 C   0  0  0  0  0  0  0  0  0  0  0  0
   51.7910   31.9710   50.8170 C   0  0  0  0  0  0  0  0  0  0  0  0
   51.0910   32.2160   52.0020 C   0  0  0  0  0  0  0  0  0  0  0  0
   50.0000   33.0740   51.9960 O   0  0  0  0  0  0  0  0  0  0  0  0
   51.4880   31.5980   53.1910 C   0  0  0  0  0  0  0  0  0  0  0  0
   52.6030   30.7580   53.2040 C   0  0  0  0  0  0  0  0  0  0  0  0
   58.4960   31.0820   46.9380 C   0  0  0  0  0  0  0  0  0  0  0  0
   59.1270   30.1740   47.7870 O   0  0  0  0  0  0  0  0  0  0  0  0
   59.7710   29.2370   48.6260 C   0  0  0  0  0  0  0  0  0  0  0  0
   58.0760   30.6700   45.6700 C   0  0  0  0  0  0  0  0  0  0  0  0
   56.4490   29.2817   44.0650 H   0  0  0  0  0  0  0  0  0  0  0  0
   55.6928   29.9115   42.5623 H   0  0  0  0  0  0  0  0  0  0  0  0
   57.4224   29.4267   42.5623 H   0  0  0  0  0  0  0  0  0  0  0  0
   56.7671   33.6243   44.5431 H   0  0  0  0  0  0  0  0  0  0  0  0
   57.4695   34.3457   46.8249 H   0  0  0  0  0  0  0  0  0  0  0  0
   59.3410   31.8385   51.4333 H   0  0  0  0  0  0  0  0  0  0  0  0
   58.5982   33.5124   51.4389 H   0  0  0  0  0  0  0  0  0  0  0  0
   57.8131   32.1120   53.3151 H   0  0  0  0  0  0  0  0  0  0  0  0
   56.4939   32.6232   52.1388 H   0  0  0  0  0  0  0  0  0  0  0  0
   54.8572   29.4438   50.9872 H   0  0  0  0  0  0  0  0  0  0  0  0
   54.2584   28.6785   52.5128 H   0  0  0  0  0  0  0  0  0  0  0  0
   53.4546   30.9328   49.8917 H   0  0  0  0  0  0  0  0  0  0  0  0
   51.4615   32.4376   49.8769 H   0  0  0  0  0  0  0  0  0  0  0  0
   50.9214   31.7736   54.1174 H   0  0  0  0  0  0  0  0  0  0  0  0
   52.9038   30.2619   54.1386 H   0  0  0  0  0  0  0  0  0  0  0  0
   59.5893   29.5013   49.6782 H   0  0  0  0  0  0  0  0  0  0  0  0
   59.3723   28.2314   48.4265 H   0  0  0  0  0  0  0  0  0  0  0  0
   60.8527   29.2488   48.4265 H   0  0  0  0  0  0  0  0  0  0  0  0
   58.2443   29.6318   45.3478 H   0  0  0  0  0  0  0  0  0  0  0  0
  1  2  1  0
  2  3  1  0
  3  4  2  0
  4  5  1  0
  5  6  2  0
  6  7  1  0
  7  8  2  0
  7  9  1  0
  9 10  1  0
 10 11  1  0
 11 12  1  0
 12 13  2  0
 12 14  1  0
 14 15  1  0
 15 16  1  0
 16 17  2  0
 17 18  1  0
 18 19  2  0
 19 20  1  0
 19 21  1  0
 21 22  2  0
  6 23  1  0
 23 24  1  0
 24 25  1  0
 23 26  2  0
 26  3  1  0
 22 16  1  0
  1 27  1  0
  1 28  1  0
  1 29  1  0
  4 30  1  0
  5 31  1  0
 10 32  1  0
 10 33  1  0
 11 34  1  0
 11 35  1  0
 15 36  1  0
 15 37  1  0
 17 38  1  0
 18 39  1  0
 21 40  1  0
 22 41  1  0
 25 42  1  0
 25 43  1  0
 25 44  1  0
 26 45  1  0
M  CHG  3   9  -1  14  -1  20  -1
M  END
>  <UniqueID>  (75) 
71

>  <SMILES>  (75) 
COc1ccc(C(=O)[N-]CCC(=O)[N-]Cc2ccc([O-])cc2)c(OC)c1

>  <Energy>  (75) 
101.0093999360445

>  <Genealogy>  (75) 
COc1ccc(C(=O)[N-]CCC(=O)[N-]Cc2ccc([O-])cc2)c(OC)c1 (protonated)
COc1ccc(C(=O)[N-]CCC(=O)[N-]Cc2ccc([O-])cc2)c(OC)c1 (3D coordinates assigned)
COc1ccc(C(=O)[N-]CCC(=O)[N-]Cc2ccc([O-])cc2)c(OC)c1 (optimized conformer: 101.0093999360445 kcal/mol)

>  <smiles>  (75) 
COc1ccc(C(=O)NCCC(=O)NCc2ccc(O)cc2)c(OC)c1

>  <score_type>  (75) 
oracle

>  <origin>  (75) 
adg

>  <m_score__min__energy>  (75) 
-12.76

>  <m_primary>  (75) 
energy

$$$$
75:0
     RDKit          3D

 50 52  0  0  0  0  0  0  0  0999 V2000
   65.9860   32.4720   50.1500 C   0  0  0  0  0  0  0  0  0  0  0  0
   64.6350   32.9960   49.7670 C   0  0  0  0  0  0  0  0  0  0  0  0
   64.1460   32.8100   48.4660 C   0  0  0  0  0  0  0  0  0  0  0  0
   62.8940   33.3140   48.1030 C   0  0  0  0  0  0  0  0  0  0  0  0
   62.1240   34.0380   49.0310 C   0  0  0  0  0  0  0  0  0  0  0  0
   60.8420   34.5880   48.6960 N   0  0  0  0  0  0  0  0  0  0  0  0
   59.9620   34.2600   47.2390 S   0  0  0  0  0  0  0  0  0  0  0  0
   58.7660   35.1680   47.1730 O   0  0  0  0  0  0  0  0  0  0  0  0
   60.8440   34.5310   46.0510 O   0  0  0  0  0  0  0  0  0  0  0  0
   59.4060   32.5890   47.2420 C   0  0  0  0  0  0  0  0  0  0  0  0
   59.8740   31.6830   48.2010 C   0  0  0  0  0  0  0  0  0  0  0  0
   59.4520   30.3510   48.1710 C   0  0  0  0  0  0  0  0  0  0  0  0
   58.5630   29.9180   47.1830 C   0  0  0  0  0  0  0  0  0  0  0  0
   58.0740   30.8250   46.2250 C   0  0  0  0  0  0  0  0  0  0  0  0
   57.1960   30.4130   45.1670 N   0  0  0  0  0  0  0  0  0  0  0  0
   56.4020   29.2200   45.1200 C   0  0  0  0  0  0  0  0  0  0  0  0
   55.1750   29.3290   44.8550 O   0  0  0  0  0  0  0  0  0  0  0  0
   56.9590   27.8820   45.4360 C   0  0  0  0  0  0  0  0  0  0  0  0
   58.3110   27.6090   45.1790 C   0  0  0  0  0  0  0  0  0  0  0  0
   58.8400   26.3450   45.4360 C   0  0  0  0  0  0  0  0  0  0  0  0
   58.0310   25.3300   45.9550 C   0  0  0  0  0  0  0  0  0  0  0  0
   58.6000   24.0810   46.2010 O   0  0  0  0  0  0  0  0  0  0  0  0
   56.6720   25.5830   46.2210 C   0  0  0  0  0  0  0  0  0  0  0  0
   55.8570   24.5260   46.7500 N   0  0  0  0  0  0  0  0  0  0  0  0
   56.3870   23.2940   47.8480 S   0  0  0  0  0  0  0  0  0  0  0  0
   55.0000   22.6850   48.7830 C   0  0  0  0  0  0  0  0  0  0  0  0
   57.0430   22.1750   47.0880 O   0  0  0  0  0  0  0  0  0  0  0  0
   57.3880   23.8900   48.7970 O   0  0  0  0  0  0  0  0  0  0  0  0
   56.1410   26.8590   45.9490 C   0  0  0  0  0  0  0  0  0  0  0  0
   58.5120   32.1540   46.2540 C   0  0  0  0  0  0  0  0  0  0  0  0
   62.6280   34.2480   50.3200 C   0  0  0  0  0  0  0  0  0  0  0  0
   63.8760   33.7350   50.6870 C   0  0  0  0  0  0  0  0  0  0  0  0
   66.0694   32.4396   51.2464 H   0  0  0  0  0  0  0  0  0  0  0  0
   66.1153   31.4585   49.7424 H   0  0  0  0  0  0  0  0  0  0  0  0
   66.7648   33.1333   49.7424 H   0  0  0  0  0  0  0  0  0  0  0  0
   64.7512   32.2644   47.7270 H   0  0  0  0  0  0  0  0  0  0  0  0
   62.5090   33.1437   47.0868 H   0  0  0  0  0  0  0  0  0  0  0  0
   60.5747   32.0199   48.9791 H   0  0  0  0  0  0  0  0  0  0  0  0
   59.8203   29.6416   48.9267 H   0  0  0  0  0  0  0  0  0  0  0  0
   58.2449   28.8654   47.1544 H   0  0  0  0  0  0  0  0  0  0  0  0
   58.9590   28.3989   44.7713 H   0  0  0  0  0  0  0  0  0  0  0  0
   59.9016   26.1449   45.2289 H   0  0  0  0  0  0  0  0  0  0  0  0
   58.1530   23.3840   46.7870 H   0  0  0  0  0  0  0  0  0  0  0  0
   55.2131   22.7786   49.8581 H   0  0  0  0  0  0  0  0  0  0  0  0
   54.1038   23.2724   48.5343 H   0  0  0  0  0  0  0  0  0  0  0  0
   54.8260   21.6277   48.5343 H   0  0  0  0  0  0  0  0  0  0  0  0
   55.0760   27.0575   46.1397 H   0  0  0  0  0  0  0  0  0  0  0  0
   58.1514   32.8635   45.4946 H   0  0  0  0  0  0  0  0  0  0  0  0
   62.0376   34.8211   51.0500 H   0  0  0  0  0  0  0  0  0  0  0  0
   64.2642   33.9115   51.7010 H   0  0  0  0  0  0  0  0  0  0  0  0
  1  2  1  0
  2  3  2  0
  3  4  1  0
  4  5  2  0
  5  6  1  0
  6  7  1  0
  7  8  2  0
  7  9  2  0
  7 10  1  0
 10 11  2  0
 11 12  1  0
 12 13  2  0
 13 14  1  0
 14 15  1  0
 15 16  1  0
 16 17  2  0
 16 18  1  0
 18 19  2  0
 19 20  1  0
 20 21  2  0
 21 22  1  0
 21 23  1  0
 23 24  1  0
 24 25  1  0
 25 26  1  0
 25 27  2  0
 25 28  2  0
 23 29  2  0
 14 30  2  0
  5 31  1  0
 31 32  2  0
 32  2  1  0
 30 10  1  0
 29 18  1  0
  1 33  1  0
  1 34  1  0
  1 35  1  0
  3 36  1  0
  4 37  1  0
 11 38  1  0
 12 39  1  0
 13 40  1  0
 19 41  1  0
 20 42  1  0
 22 43  1  0
 26 44  1  0
 26 45  1  0
 26 46  1  0
 29 47  1  0
 30 48  1  0
 31 49  1  0
 32 50  1  0
M  CHG  3   6  -1  15  -1  24  -1
M  END
>  <UniqueID>  (76) 
72

>  <SMILES>  (76) 
Cc1ccc([N-]S(=O)(=O)c2cccc([N-]C(=O)c3ccc(O)c([N-]S(C)(=O)=O)c3)c2)cc1

>  <Energy>  (76) 
56.47655022388536

>  <Genealogy>  (76) 
Cc1ccc([N-]S(=O)(=O)c2cccc([N-]C(=O)c3ccc(O)c([N-]S(C)(=O)=O)c3)c2)cc1 (protonated)
Cc1ccc([N-]S(=O)(=O)c2cccc([N-]C(=O)c3ccc(O)c([N-]S(C)(=O)=O)c3)c2)cc1 (3D coordinates assigned)
Cc1ccc([N-]S(=O)(=O)c2cccc([N-]C(=O)c3ccc(O)c([N-]S(C)(=O)=O)c3)c2)cc1 (optimized conformer: 56.47655022388536 kcal/mol)

>  <smiles>  (76) 
Cc1ccc(NS(=O)(=O)c2cccc(NC(=O)c3ccc(O)c(NS(C)(=O)=O)c3)c2)cc1

>  <score_type>  (76) 
oracle

>  <origin>  (76) 
adg

>  <m_score__min__energy>  (76) 
-14.800000000000001

>  <m_primary>  (76) 
energy

$$$$
76:0
     RDKit          3D

 34 35  0  0  0  0  0  0  0  0999 V2000
   59.3660   22.2230   44.4980 C   0  0  0  0  0  0  0  0  0  0  0  0
   59.1190   23.0450   45.6190 O   0  0  0  0  0  0  0  0  0  0  0  0
   57.8020   22.8420   46.0950 C   0  0  0  0  0  0  0  0  0  0  0  0
   57.0030   24.1100   46.0000 C   0  0  0  0  0  0  0  0  0  0  0  0
   55.6170   24.0650   45.8120 C   0  0  0  0  0  0  0  0  0  0  0  0
   54.9090   25.2660   45.7940 C   0  0  0  0  0  0  0  0  0  0  0  0
   53.6620   25.2650   45.6280 O   0  0  0  0  0  0  0  0  0  0  0  0
   55.5670   26.4420   45.9670 N   0  0  0  0  0  0  0  0  0  0  0  0
   56.9130   26.4690   46.1480 C   0  0  0  0  0  0  0  0  0  0  0  0
   57.7380   28.0310   46.4480 S   0  0  0  0  0  0  0  0  0  0  0  0
   57.4490   28.7090   44.7720 C   0  0  0  0  0  0  0  0  0  0  0  0
   56.3350   29.7080   44.7640 C   0  0  0  0  0  0  0  0  0  0  0  0
   55.1530   29.3330   44.9900 O   0  0  0  0  0  0  0  0  0  0  0  0
   56.6360   31.0830   44.4970 N   0  0  0  0  0  0  0  0  0  0  0  0
   57.4150   31.9730   45.3090 C   0  0  0  0  0  0  0  0  0  0  0  0
   57.4480   33.3320   44.9670 C   0  0  0  0  0  0  0  0  0  0  0  0
   58.2300   34.2280   45.7010 C   0  0  0  0  0  0  0  0  0  0  0  0
   58.9980   33.7700   46.7740 C   0  0  0  0  0  0  0  0  0  0  0  0
   58.9900   32.4140   47.1090 C   0  0  0  0  0  0  0  0  0  0  0  0
   58.2070   31.5150   46.3780 C   0  0  0  0  0  0  0  0  0  0  0  0
   57.6210   25.3100   46.1630 N   0  0  0  0  0  0  0  0  0  0  0  0
   59.6671   21.2209   44.8374 H   0  0  0  0  0  0  0  0  0  0  0  0
   58.4515   22.1454   43.8916 H   0  0  0  0  0  0  0  0  0  0  0  0
   60.1718   22.6623   43.8916 H   0  0  0  0  0  0  0  0  0  0  0  0
   57.3155   22.0623   45.4905 H   0  0  0  0  0  0  0  0  0  0  0  0
   57.8504   22.5321   47.1493 H   0  0  0  0  0  0  0  0  0  0  0  0
   55.0979   23.1040   45.6814 H   0  0  0  0  0  0  0  0  0  0  0  0
   58.3696   29.1988   44.4219 H   0  0  0  0  0  0  0  0  0  0  0  0
   57.1686   27.8772   44.1091 H   0  0  0  0  0  0  0  0  0  0  0  0
   56.8545   33.6956   44.1152 H   0  0  0  0  0  0  0  0  0  0  0  0
   58.2407   35.2949   45.4335 H   0  0  0  0  0  0  0  0  0  0  0  0
   59.6088   34.4768   47.3549 H   0  0  0  0  0  0  0  0  0  0  0  0
   59.6008   32.0526   47.9494 H   0  0  0  0  0  0  0  0  0  0  0  0
   58.2103   30.4465   46.6395 H   0  0  0  0  0  0  0  0  0  0  0  0
  1  2  1  0
  2  3  1  0
  3  4  1  0
  4  5  2  0
  5  6  1  0
  6  7  2  0
  6  8  1  0
  8  9  1  0
  9 10  1  0
 10 11  1  0
 11 12  1  0
 12 13  2  0
 12 14  1  0
 14 15  1  0
 15 16  2  0
 16 17  1  0
 17 18  2  0
 18 19  1  0
 19 20  2  0
  9 21  2  0
 21  4  1  0
 20 15  1  0
  1 22  1  0
  1 23  1  0
  1 24  1  0
  3 25  1  0
  3 26  1  0
  5 27  1  0
 11 28  1  0
 11 29  1  0
 16 30  1  0
 17 31  1  0
 18 32  1  0
 19 33  1  0
 20 34  1  0
M  CHG  2   8  -1  14  -1
M  END
>  <UniqueID>  (77) 
73

>  <SMILES>  (77) 
COCc1cc(=O)[n-]c(SCC(=O)[N-]c2ccccc2)n1

>  <Energy>  (77) 
32.90546358522922

>  <Genealogy>  (77) 
COCc1cc(=O)[n-]c(SCC(=O)[N-]c2ccccc2)n1 (protonated)
COCc1cc(=O)[n-]c(SCC(=O)[N-]c2ccccc2)n1 (3D coordinates assigned)
COCc1cc(=O)[n-]c(SCC(=O)[N-]c2ccccc2)n1 (optimized conformer: 32.90546358522922 kcal/mol)

>  <smiles>  (77) 
COCc1cc(=O)[nH]c(SCC(=O)Nc2ccccc2)n1

>  <score_type>  (77) 
oracle

>  <origin>  (77) 
adg

>  <m_score__min__energy>  (77) 
-10.75

>  <m_primary>  (77) 
energy

$$$$
77:0
     RDKit          3D

 32 34  0  0  0  0  0  0  0  0999 V2000
   51.0330   23.8710   43.8900 C   0  0  0  0  0  0  0  0  0  0  0  0
   51.4780   22.6600   44.5620 N   0  0  0  0  0  0  0  0  0  0  0  0
   52.4410   22.6720   45.6180 C   0  0  0  0  0  0  0  0  0  0  0  0
   52.0880   22.9560   46.7950 O   0  0  0  0  0  0  0  0  0  0  0  0
   53.7950   22.3040   45.3290 N   0  0  0  0  0  0  0  0  0  0  0  0
   54.8970   23.1970   45.1120 C   0  0  0  0  0  0  0  0  0  0  0  0
   55.5980   23.1170   43.9020 C   0  0  0  0  0  0  0  0  0  0  0  0
   56.6700   23.9750   43.6470 C   0  0  0  0  0  0  0  0  0  0  0  0
   57.0360   24.9380   44.5900 C   0  0  0  0  0  0  0  0  0  0  0  0
   56.3200   25.0660   45.7850 C   0  0  0  0  0  0  0  0  0  0  0  0
   56.7120   26.0520   46.7020 O   0  0  0  0  0  0  0  0  0  0  0  0
   57.5270   27.1530   46.4050 C   0  0  0  0  0  0  0  0  0  0  0  0
   58.8920   27.1240   46.7510 C   0  0  0  0  0  0  0  0  0  0  0  0
   59.7320   28.2200   46.4540 C   0  0  0  0  0  0  0  0  0  0  0  0
   59.2230   29.3510   45.7910 C   0  0  0  0  0  0  0  0  0  0  0  0
   57.8750   29.3430   45.4410 C   0  0  0  0  0  0  0  0  0  0  0  0
   57.2000   30.2910   44.7750 N   0  0  0  0  0  0  0  0  0  0  0  0
   55.9610   29.7450   44.6840 C   0  0  0  0  0  0  0  0  0  0  0  0
   55.0060   30.3330   44.1130 O   0  0  0  0  0  0  0  0  0  0  0  0
   55.8270   28.5180   45.2460 N   0  0  0  0  0  0  0  0  0  0  0  0
   57.0580   28.2900   45.7310 C   0  0  0  0  0  0  0  0  0  0  0  0
   55.2550   24.1840   46.0500 C   0  0  0  0  0  0  0  0  0  0  0  0
   50.7556   24.6259   44.6404 H   0  0  0  0  0  0  0  0  0  0  0  0
   51.8465   24.2612   43.2607 H   0  0  0  0  0  0  0  0  0  0  0  0
   50.1604   23.6416   43.2607 H   0  0  0  0  0  0  0  0  0  0  0  0
   55.3021   22.3733   43.1474 H   0  0  0  0  0  0  0  0  0  0  0  0
   57.2269   23.8922   42.7020 H   0  0  0  0  0  0  0  0  0  0  0  0
   57.8922   25.5996   44.3919 H   0  0  0  0  0  0  0  0  0  0  0  0
   59.3075   26.2401   47.2570 H   0  0  0  0  0  0  0  0  0  0  0  0
   60.7927   28.1887   46.7436 H   0  0  0  0  0  0  0  0  0  0  0  0
   59.8669   30.2116   45.5571 H   0  0  0  0  0  0  0  0  0  0  0  0
   54.6993   24.2666   46.9957 H   0  0  0  0  0  0  0  0  0  0  0  0
  1  2  1  0
  2  3  1  0
  3  4  2  0
  3  5  1  0
  5  6  1  0
  6  7  2  0
  7  8  1  0
  8  9  2  0
  9 10  1  0
 10 11  1  0
 11 12  1  0
 12 13  2  0
 13 14  1  0
 14 15  2  0
 15 16  1  0
 16 17  1  0
 17 18  1  0
 18 19  2  0
 18 20  1  0
 20 21  1  0
 10 22  2  0
 22  6  1  0
 21 12  1  0
 21 16  2  0
  1 23  1  0
  1 24  1  0
  1 25  1  0
  7 26  1  0
  8 27  1  0
  9 28  1  0
 13 29  1  0
 14 30  1  0
 15 31  1  0
 22 32  1  0
M  CHG  4   2  -1   5  -1  17  -1  20  -1
M  END
>  <UniqueID>  (78) 
74

>  <SMILES>  (78) 
C[N-]C(=O)[N-]c1cccc(Oc2cccc3[n-]c(=O)[n-]c23)c1

>  <Energy>  (78) 
77.15526736875091

>  <Genealogy>  (78) 
C[N-]C(=O)[N-]c1cccc(Oc2cccc3[n-]c(=O)[n-]c23)c1 (protonated)
C[N-]C(=O)[N-]c1cccc(Oc2cccc3[n-]c(=O)[n-]c23)c1 (3D coordinates assigned)
C[N-]C(=O)[N-]c1cccc(Oc2cccc3[n-]c(=O)[n-]c23)c1 (optimized conformer: 77.15526736875091 kcal/mol)

>  <smiles>  (78) 
CNC(=O)Nc1cccc(Oc2cccc3[nH]c(=O)[nH]c23)c1

>  <score_type>  (78) 
oracle

>  <origin>  (78) 
adg

>  <m_score__min__energy>  (78) 
-13.109999999999999

>  <m_primary>  (78) 
energy

$$$$
78:0
     RDKit          3D

 53 55  0  0  0  0  0  0  0  0999 V2000
   58.2600   34.2610   45.9700 C   0  0  0  0  0  0  0  0  0  0  0  0
   57.9650   33.2320   44.9790 N   0  0  0  0  0  0  0  0  0  0  0  0
   58.4680   33.1430   43.7320 C   0  0  0  0  0  0  0  0  0  0  0  0
   58.0670   32.0240   43.0900 N   0  0  0  0  0  0  0  0  0  0  0  0
   57.2950   31.3930   43.9980 C   0  0  0  0  0  0  0  0  0  0  0  0
   56.4770   29.8710   43.7040 S   0  0  0  0  0  0  0  0  0  0  0  0
   56.1280   29.7810   42.2450 O   0  0  0  0  0  0  0  0  0  0  0  0
   55.2100   29.8220   44.5090 O   0  0  0  0  0  0  0  0  0  0  0  0
   57.5150   28.5390   44.1300 N   0  0  0  0  0  0  0  0  0  0  0  0
   57.8760   28.5650   45.5580 C   0  0  0  0  0  0  0  0  0  0  0  0
   58.1190   27.1360   46.1320 C   0  0  0  0  0  0  0  0  0  0  0  0
   59.4520   26.9800   46.8820 C   0  0  0  0  0  0  0  0  0  0  0  0
   59.7120   28.1420   47.7480 N   0  0  0  0  0  0  0  0  0  0  0  0
   60.3250   27.9510   49.0430 C   0  0  0  0  0  0  0  0  0  0  0  0
   60.8170   26.8270   49.3410 O   0  0  0  0  0  0  0  0  0  0  0  0
   60.4550   29.0940   50.0220 C   0  0  0  0  0  0  0  0  0  0  0  0
   61.5290   30.1120   49.6010 C   0  0  0  0  0  0  0  0  0  0  0  0
   60.9700   31.5360   49.4800 C   0  0  0  0  0  0  0  0  0  0  0  0
   61.6980   32.3420   48.4330 C   0  0  0  0  0  0  0  0  0  0  0  0
   60.9790   33.0970   47.4890 C   0  0  0  0  0  0  0  0  0  0  0  0
   61.6570   33.8260   46.5060 C   0  0  0  0  0  0  0  0  0  0  0  0
   63.0540   33.8040   46.4580 C   0  0  0  0  0  0  0  0  0  0  0  0
   63.7750   33.0490   47.3880 C   0  0  0  0  0  0  0  0  0  0  0  0
   63.1010   32.3170   48.3710 C   0  0  0  0  0  0  0  0  0  0  0  0
   59.5310   29.5020   47.2110 C   0  0  0  0  0  0  0  0  0  0  0  0
   59.0950   29.4810   45.7430 C   0  0  0  0  0  0  0  0  0  0  0  0
   57.2310   32.1230   45.1630 C   0  0  0  0  0  0  0  0  0  0  0  0
   58.1400   33.8424   46.9801 H   0  0  0  0  0  0  0  0  0  0  0  0
   59.2946   34.6108   45.8386 H   0  0  0  0  0  0  0  0  0  0  0  0
   57.5679   35.1058   45.8386 H   0  0  0  0  0  0  0  0  0  0  0  0
   59.1319   33.8982   43.2860 H   0  0  0  0  0  0  0  0  0  0  0  0
   57.0260   27.6450   43.8940 H   0  0  0  0  0  0  0  0  0  0  0  0
   57.0313   28.9702   46.1344 H   0  0  0  0  0  0  0  0  0  0  0  0
   57.3009   26.8995   46.8283 H   0  0  0  0  0  0  0  0  0  0  0  0
   58.1561   26.4506   45.2724 H   0  0  0  0  0  0  0  0  0  0  0  0
   59.4115   26.0720   47.5016 H   0  0  0  0  0  0  0  0  0  0  0  0
   60.2628   26.9072   46.1421 H   0  0  0  0  0  0  0  0  0  0  0  0
   59.4866   29.6112   50.0909 H   0  0  0  0  0  0  0  0  0  0  0  0
   60.7577   28.6708   50.9912 H   0  0  0  0  0  0  0  0  0  0  0  0
   62.3315   30.1103   50.3533 H   0  0  0  0  0  0  0  0  0  0  0  0
   61.9040   29.8137   48.6109 H   0  0  0  0  0  0  0  0  0  0  0  0
   59.9060   31.4778   49.2070 H   0  0  0  0  0  0  0  0  0  0  0  0
   61.1053   32.0376   50.4496 H   0  0  0  0  0  0  0  0  0  0  0  0
   59.8797   33.1144   47.5237 H   0  0  0  0  0  0  0  0  0  0  0  0
   61.0907   34.4166   45.7708 H   0  0  0  0  0  0  0  0  0  0  0  0
   63.5865   34.3813   45.6878 H   0  0  0  0  0  0  0  0  0  0  0  0
   64.8741   33.0306   47.3466 H   0  0  0  0  0  0  0  0  0  0  0  0
   63.6714   31.7199   49.0977 H   0  0  0  0  0  0  0  0  0  0  0  0
   58.7619   30.0192   47.8034 H   0  0  0  0  0  0  0  0  0  0  0  0
   60.4966   30.0253   47.2732 H   0  0  0  0  0  0  0  0  0  0  0  0
   58.8320   30.5018   45.4287 H   0  0  0  0  0  0  0  0  0  0  0  0
   59.9246   29.0980   45.1305 H   0  0  0  0  0  0  0  0  0  0  0  0
   56.6808   31.8488   46.0752 H   0  0  0  0  0  0  0  0  0  0  0  0
  1  2  1  0
  2  3  1  0
  3  4  2  0
  4  5  1  0
  5  6  1  0
  6  7  2  0
  6  8  2  0
  6  9  1  0
  9 10  1  0
 10 11  1  0
 11 12  1  0
 12 13  1  0
 13 14  1  0
 14 15  2  0
 14 16  1  0
 16 17  1  0
 17 18  1  0
 18 19  1  0
 19 20  2  0
 20 21  1  0
 21 22  2  0
 22 23  1  0
 23 24  2  0
 13 25  1  0
 25 26  1  0
  5 27  2  0
 27  2  1  0
 26 10  1  0
 24 19  1  0
  1 28  1  0
  1 29  1  0
  1 30  1  0
  3 31  1  0
  9 32  1  0
 10 33  1  0
 11 34  1  0
 11 35  1  0
 12 36  1  0
 12 37  1  0
 16 38  1  0
 16 39  1  0
 17 40  1  0
 17 41  1  0
 18 42  1  0
 18 43  1  0
 20 44  1  0
 21 45  1  0
 22 46  1  0
 23 47  1  0
 24 48  1  0
 25 49  1  0
 25 50  1  0
 26 51  1  0
 26 52  1  0
 27 53  1  0
M  END
>  <UniqueID>  (79) 
75

>  <SMILES>  (79) 
Cn1cnc(S(=O)(=O)NC2CCN(C(=O)CCCc3ccccc3)CC2)c1

>  <Energy>  (79) 
80.16350147025133

>  <Genealogy>  (79) 
Cn1cnc(S(=O)(=O)NC2CCN(C(=O)CCCc3ccccc3)CC2)c1 (3D coordinates assigned)
Cn1cnc(S(=O)(=O)NC2CCN(C(=O)CCCc3ccccc3)CC2)c1 (nonaromatic ring conformer: 80.16350147025133 kcal/mol)

>  <smiles>  (79) 
Cn1cnc(S(=O)(=O)NC2CCN(C(=O)CCCc3ccccc3)CC2)c1

>  <score_type>  (79) 
oracle

>  <origin>  (79) 
adg

>  <m_score__min__energy>  (79) 
-8.9700000000000006

>  <m_primary>  (79) 
energy

$$$$
79:0
     RDKit          3D

 29 30  0  0  0  0  0  0  0  0999 V2000
   61.3110   34.0160   47.4930 C   0  0  0  0  0  0  0  0  0  0  0  0
   60.1900   33.8210   46.5150 C   0  0  0  0  0  0  0  0  0  0  0  0
   59.6750   34.9150   45.8050 C   0  0  0  0  0  0  0  0  0  0  0  0
   58.6180   34.7340   44.9110 C   0  0  0  0  0  0  0  0  0  0  0  0
   58.0550   33.4700   44.7330 C   0  0  0  0  0  0  0  0  0  0  0  0
   58.5350   32.3660   45.4620 C   0  0  0  0  0  0  0  0  0  0  0  0
   57.9180   31.0320   45.2610 C   0  0  0  0  0  0  0  0  0  0  0  0
   56.7110   30.9670   44.9020 O   0  0  0  0  0  0  0  0  0  0  0  0
   58.6750   29.8230   45.4630 N   0  0  0  0  0  0  0  0  0  0  0  0
   58.1120   28.5020   45.3740 C   0  0  0  0  0  0  0  0  0  0  0  0
   58.9340   27.4300   44.9950 C   0  0  0  0  0  0  0  0  0  0  0  0
   58.4170   26.1330   44.9240 C   0  0  0  0  0  0  0  0  0  0  0  0
   57.0790   25.8930   45.2470 C   0  0  0  0  0  0  0  0  0  0  0  0
   56.2580   26.9500   45.6520 C   0  0  0  0  0  0  0  0  0  0  0  0
   54.9320   26.7080   45.9910 O   0  0  0  0  0  0  0  0  0  0  0  0
   56.7720   28.2500   45.7220 C   0  0  0  0  0  0  0  0  0  0  0  0
   59.6110   32.5520   46.3500 C   0  0  0  0  0  0  0  0  0  0  0  0
   60.9189   33.9478   48.5185 H   0  0  0  0  0  0  0  0  0  0  0  0
   62.0719   33.2367   47.3388 H   0  0  0  0  0  0  0  0  0  0  0  0
   61.7640   35.0064   47.3388 H   0  0  0  0  0  0  0  0  0  0  0  0
   60.1043   35.9170   45.9526 H   0  0  0  0  0  0  0  0  0  0  0  0
   58.2273   35.5920   44.3443 H   0  0  0  0  0  0  0  0  0  0  0  0
   57.2301   33.3353   44.0178 H   0  0  0  0  0  0  0  0  0  0  0  0
   59.7020   29.8850   45.6360 H   0  0  0  0  0  0  0  0  0  0  0  0
   59.9915   27.6111   44.7523 H   0  0  0  0  0  0  0  0  0  0  0  0
   59.0647   25.3000   44.6133 H   0  0  0  0  0  0  0  0  0  0  0  0
   56.6717   24.8732   45.1827 H   0  0  0  0  0  0  0  0  0  0  0  0
   56.1261   29.0777   46.0502 H   0  0  0  0  0  0  0  0  0  0  0  0
   60.0019   31.6961   46.9198 H   0  0  0  0  0  0  0  0  0  0  0  0
  1  2  1  0
  2  3  2  0
  3  4  1  0
  4  5  2  0
  5  6  1  0
  6  7  1  0
  7  8  2  0
  7  9  1  0
  9 10  1  0
 10 11  2  0
 11 12  1  0
 12 13  2  0
 13 14  1  0
 14 15  1  0
 14 16  2  0
  6 17  2  0
 17  2  1  0
 16 10  1  0
  1 18  1  0
  1 19  1  0
  1 20  1  0
  3 21  1  0
  4 22  1  0
  5 23  1  0
  9 24  1  0
 11 25  1  0
 12 26  1  0
 13 27  1  0
 16 28  1  0
 17 29  1  0
M  CHG  1  15  -1
M  END
>  <UniqueID>  (80) 
76

>  <SMILES>  (80) 
Cc1cccc(C(=O)Nc2cccc([O-])c2)c1

>  <Energy>  (80) 
35.9588017985666

>  <Genealogy>  (80) 
Cc1cccc(C(=O)Nc2cccc([O-])c2)c1 (protonated)
Cc1cccc(C(=O)Nc2cccc([O-])c2)c1 (3D coordinates assigned)
Cc1cccc(C(=O)Nc2cccc([O-])c2)c1 (optimized conformer: 35.9588017985666 kcal/mol)

>  <smiles>  (80) 
Cc1cccc(C(=O)Nc2cccc(O)c2)c1

>  <score_type>  (80) 
oracle

>  <origin>  (80) 
adg

>  <m_score__min__energy>  (80) 
-10.66

>  <m_primary>  (80) 
energy

$$$$
80:0
     RDKit          3D

 58 60  0  0  0  0  0  0  0  0999 V2000
   60.5048   28.9923   47.2101 H   0  0  0  0  0  0  0  0  0  0  0  0
   60.3140   30.0700   47.3200 C   0  0  0  0  0  0  0  0  0  0  0  0
   59.0570   30.5170   47.7200 C   0  0  0  0  0  0  0  0  0  0  0  0
   58.2540   29.7918   47.9182 H   0  0  0  0  0  0  0  0  0  0  0  0
   58.8140   31.8840   47.8700 C   0  0  0  0  0  0  0  0  0  0  0  0
   57.8179   32.2269   48.1865 H   0  0  0  0  0  0  0  0  0  0  0  0
   59.8290   32.8300   47.6210 C   0  0  0  0  0  0  0  0  0  0  0  0
   59.5110   34.2680   47.8060 C   0  0  0  0  0  0  0  0  0  0  0  0
   59.7350   34.8450   48.9040 O   0  0  0  0  0  0  0  0  0  0  0  0
   58.9280   34.9840   46.7500 O   0  0  0  0  0  0  0  0  0  0  0  0
   59.0350   34.5890   45.3820 C   0  0  0  0  0  0  0  0  0  0  0  0
   59.8365   33.8417   45.2863 H   0  0  0  0  0  0  0  0  0  0  0  0
   59.2612   35.4810   44.7794 H   0  0  0  0  0  0  0  0  0  0  0  0
   57.7450   33.9920   44.8830 C   0  0  0  0  0  0  0  0  0  0  0  0
   56.6520   34.5010   45.2460 O   0  0  0  0  0  0  0  0  0  0  0  0
   57.7110   32.8580   44.0010 N   0  0  0  0  0  0  0  0  0  0  0  0
   57.4350   31.6250   44.3090 C   0  0  0  0  0  0  0  0  0  0  0  0
   56.2700   31.1980   44.8330 N   0  0  0  0  0  0  0  0  0  0  0  0
   56.3860   29.9100   44.9820 O   0  0  0  0  0  0  0  0  0  0  0  0
   57.5620   29.4830   44.5740 C   0  0  0  0  0  0  0  0  0  0  0  0
   58.0340   28.0440   44.6520 C   0  0  0  0  0  0  0  0  0  0  0  0
   57.1580   27.2550   45.6470 C   0  0  0  0  0  0  0  0  0  0  0  0
   57.4468   27.5151   46.6760 H   0  0  0  0  0  0  0  0  0  0  0  0
   56.1002   27.5110   45.4872 H   0  0  0  0  0  0  0  0  0  0  0  0
   57.3024   26.1763   45.4872 H   0  0  0  0  0  0  0  0  0  0  0  0
   57.9340   27.4080   43.2530 C   0  0  0  0  0  0  0  0  0  0  0  0
   57.7639   26.3259   43.3535 H   0  0  0  0  0  0  0  0  0  0  0  0
   57.0961   27.8614   42.7031 H   0  0  0  0  0  0  0  0  0  0  0  0
   58.8706   27.5824   42.7031 H   0  0  0  0  0  0  0  0  0  0  0  0
   59.4990   27.9950   45.1270 C   0  0  0  0  0  0  0  0  0  0  0  0
   59.5281   27.9940   46.2266 H   0  0  0  0  0  0  0  0  0  0  0  0
   59.9774   27.0804   44.7467 H   0  0  0  0  0  0  0  0  0  0  0  0
   60.0374   28.8756   44.7467 H   0  0  0  0  0  0  0  0  0  0  0  0
   58.2910   30.5670   44.1190 C   0  0  0  0  0  0  0  0  0  0  0  0
   59.3100   30.5791   43.7050 H   0  0  0  0  0  0  0  0  0  0  0  0
   61.1010   32.3650   47.1930 C   0  0  0  0  0  0  0  0  0  0  0  0
   62.4640   33.4710   46.7740 S   0  0  0  0  0  0  0  0  0  0  0  0
   63.3820   33.2150   48.3360 C   0  0  0  0  0  0  0  0  0  0  0  0
   63.5566   32.1377   48.4736 H   0  0  0  0  0  0  0  0  0  0  0  0
   64.3323   33.7648   48.2673 H   0  0  0  0  0  0  0  0  0  0  0  0
   62.6230   33.7410   49.5250 C   0  0  0  0  0  0  0  0  0  0  0  0
   62.6650   34.9820   49.7450 O   0  0  0  0  0  0  0  0  0  0  0  0
   61.8790   32.8790   50.4210 N   0  0  0  0  0  0  0  0  0  0  0  0
   61.8680   31.4180   50.2490 C   0  0  0  0  0  0  0  0  0  0  0  0
   61.8912   31.1791   49.1755 H   0  0  0  0  0  0  0  0  0  0  0  0
   62.7504   30.9928   50.7496 H   0  0  0  0  0  0  0  0  0  0  0  0
   60.6040   30.8170   50.8730 C   0  0  0  0  0  0  0  0  0  0  0  0
   59.7282   31.1305   50.2858 H   0  0  0  0  0  0  0  0  0  0  0  0
   60.6965   29.7209   50.8687 H   0  0  0  0  0  0  0  0  0  0  0  0
   60.4460   31.2520   52.2080 O   0  0  0  0  0  0  0  0  0  0  0  0
   60.2110   32.6450   52.2240 C   0  0  0  0  0  0  0  0  0  0  0  0
   59.3521   32.8731   51.5757 H   0  0  0  0  0  0  0  0  0  0  0  0
   60.0034   32.9553   53.2587 H   0  0  0  0  0  0  0  0  0  0  0  0
   61.4390   33.4110   51.7190 C   0  0  0  0  0  0  0  0  0  0  0  0
   61.1812   34.4744   51.6059 H   0  0  0  0  0  0  0  0  0  0  0  0
   62.2555   33.2944   52.4468 H   0  0  0  0  0  0  0  0  0  0  0  0
   61.3300   30.9870   47.0590 C   0  0  0  0  0  0  0  0  0  0  0  0
   62.3210   30.6274   46.7449 H   0  0  0  0  0  0  0  0  0  0  0  0
  1  2  1  0
  2  3  2  0
  3  4  1  0
  3  5  1  0
  5  6  1  0
  5  7  2  0
  7  8  1  0
  8  9  2  0
  8 10  1  0
 10 11  1  0
 11 12  1  0
 11 13  1  0
 11 14  1  0
 14 15  2  0
 14 16  1  0
 16 17  2  0
 17 18  1  0
 18 19  1  0
 19 20  1  0
 20 21  1  0
 21 22  1  0
 22 23  1  0
 22 24  1  0
 22 25  1  0
 21 26  1  0
 26 27  1  0
 26 28  1  0
 26 29  1  0
 21 30  1  0
 30 31  1  0
 30 32  1  0
 30 33  1  0
 20 34  2  0
 34 35  1  0
  7 36  1  0
 36 37  1  0
 37 38  1  0
 38 39  1  0
 38 40  1  0
 38 41  1  0
 41 42  2  0
 41 43  1  0
 43 44  1  0
 44 45  1  0
 44 46  1  0
 44 47  1  0
 47 48  1  0
 47 49  1  0
 47 50  1  0
 50 51  1  0
 51 52  1  0
 51 53  1  0
 51 54  1  0
 54 55  1  0
 54 56  1  0
 36 57  2  0
 57 58  1  0
 57  2  1  0
 34 17  1  0
 54 43  1  0
M  CHG  1  18  -1
M  END
>  <UniqueID>  (81) 
77

>  <SMILES>  (81) 
CC(C)(C)c1c/c(=N/C(=O)COC(=O)c2ccccc2SCC(=O)N2CCOCC2)[n-]o1

>  <Energy>  (81) 
89.01300851298386

>  <Genealogy>  (81) 
CC(C)(C)c1cc(=NC(=O)COC(=O)c2ccccc2SCC(=O)N2CCOCC2)[n-]o1 (protonated)
CC(C)(C)c1c/c(=N/C(=O)COC(=O)c2ccccc2SCC(=O)N2CCOCC2)[n-]o1 (cis-trans isomerization)
CC(C)(C)c1c/c(=N/C(=O)COC(=O)c2ccccc2SCC(=O)N2CCOCC2)[n-]o1 (3D coordinates assigned)
CC(C)(C)c1c/c(=N/C(=O)COC(=O)c2ccccc2SCC(=O)N2CCOCC2)[n-]o1 (nonaromatic ring conformer: 89.01300851298386 kcal/mol)

>  <smiles>  (81) 
CC(C)(C)c1cc(=NC(=O)COC(=O)c2ccccc2SCC(=O)N2CCOCC2)[nH]o1

>  <score_type>  (81) 
oracle

>  <origin>  (81) 
adg

>  <m_score__min__energy>  (81) 
-11.08

>  <m_primary>  (81) 
energy

$$$$
81:0
     RDKit          3D

 54 57  0  0  0  0  0  0  0  0999 V2000
   56.8840   24.5600   47.5280 C   0  0  0  0  0  0  0  0  0  0  0  0
   56.6260   25.3420   46.3150 N   0  0  0  0  0  0  0  0  0  0  0  0
   55.7530   24.8060   45.2650 C   0  0  0  0  0  0  0  0  0  0  0  0
   57.2050   26.6580   46.1870 C   0  0  0  0  0  0  0  0  0  0  0  0
   57.8820   27.1330   47.1400 O   0  0  0  0  0  0  0  0  0  0  0  0
   57.0500   27.4190   44.9760 N   0  0  0  0  0  0  0  0  0  0  0  0
   57.2710   28.8380   44.8930 C   0  0  0  0  0  0  0  0  0  0  0  0
   56.3580   29.6370   44.1900 C   0  0  0  0  0  0  0  0  0  0  0  0
   56.5380   31.0210   44.1130 C   0  0  0  0  0  0  0  0  0  0  0  0
   57.6320   31.6330   44.7530 C   0  0  0  0  0  0  0  0  0  0  0  0
   57.8610   33.0190   44.7030 O   0  0  0  0  0  0  0  0  0  0  0  0
   58.0370   33.8630   45.8410 C   0  0  0  0  0  0  0  0  0  0  0  0
   59.4220   33.7160   46.4050 C   0  0  0  0  0  0  0  0  0  0  0  0
   60.5260   34.1120   45.7190 N   0  0  0  0  0  0  0  0  0  0  0  0
   61.5280   33.8530   46.5770 C   0  0  0  0  0  0  0  0  0  0  0  0
   62.8900   34.0590   46.3740 C   0  0  0  0  0  0  0  0  0  0  0  0
   63.7690   33.7110   47.4160 C   0  0  0  0  0  0  0  0  0  0  0  0
   63.2690   33.1710   48.6210 C   0  0  0  0  0  0  0  0  0  0  0  0
   61.8870   32.9770   48.7970 C   0  0  0  0  0  0  0  0  0  0  0  0
   61.0420   33.3330   47.7420 C   0  0  0  0  0  0  0  0  0  0  0  0
   59.7010   33.2490   47.6550 N   0  0  0  0  0  0  0  0  0  0  0  0
   58.7630   32.7250   48.6550 C   0  0  0  0  0  0  0  0  0  0  0  0
   59.2170   31.3770   49.1530 C   0  0  0  0  0  0  0  0  0  0  0  0
   59.0190   31.0080   50.4950 C   0  0  0  0  0  0  0  0  0  0  0  0
   59.4080   29.7420   50.9450 C   0  0  0  0  0  0  0  0  0  0  0  0
   60.0060   28.8380   50.0620 C   0  0  0  0  0  0  0  0  0  0  0  0
   60.3780   27.6090   50.4970 F   0  0  0  0  0  0  0  0  0  0  0  0
   60.2240   29.2030   48.7300 C   0  0  0  0  0  0  0  0  0  0  0  0
   59.8370   30.4690   48.2780 C   0  0  0  0  0  0  0  0  0  0  0  0
   58.5300   30.8380   45.4720 C   0  0  0  0  0  0  0  0  0  0  0  0
   58.3510   29.4530   45.5500 C   0  0  0  0  0  0  0  0  0  0  0  0
   56.6797   25.1793   48.4139 H   0  0  0  0  0  0  0  0  0  0  0  0
   56.2300   23.6756   47.5401 H   0  0  0  0  0  0  0  0  0  0  0  0
   57.9359   24.2384   47.5401 H   0  0  0  0  0  0  0  0  0  0  0  0
   54.9022   24.2836   45.7268 H   0  0  0  0  0  0  0  0  0  0  0  0
   55.3812   25.6316   44.6404 H   0  0  0  0  0  0  0  0  0  0  0  0
   56.3210   24.1008   44.6404 H   0  0  0  0  0  0  0  0  0  0  0  0
   56.8680   26.9070   44.0850 H   0  0  0  0  0  0  0  0  0  0  0  0
   55.4932   29.1709   43.6951 H   0  0  0  0  0  0  0  0  0  0  0  0
   55.8206   31.6353   43.5491 H   0  0  0  0  0  0  0  0  0  0  0  0
   57.8786   34.9096   45.5418 H   0  0  0  0  0  0  0  0  0  0  0  0
   57.3092   33.5711   46.6125 H   0  0  0  0  0  0  0  0  0  0  0  0
   63.2664   34.4800   45.4300 H   0  0  0  0  0  0  0  0  0  0  0  0
   64.8516   33.8604   47.2912 H   0  0  0  0  0  0  0  0  0  0  0  0
   63.9654   32.9000   49.4282 H   0  0  0  0  0  0  0  0  0  0  0  0
   61.4853   32.5597   49.7322 H   0  0  0  0  0  0  0  0  0  0  0  0
   58.7100   33.4244   49.5024 H   0  0  0  0  0  0  0  0  0  0  0  0
   57.7725   32.6158   48.1892 H   0  0  0  0  0  0  0  0  0  0  0  0
   58.5556   31.7188   51.1950 H   0  0  0  0  0  0  0  0  0  0  0  0
   59.2432   29.4574   51.9947 H   0  0  0  0  0  0  0  0  0  0  0  0
   60.7003   28.4940   48.0369 H   0  0  0  0  0  0  0  0  0  0  0  0
   60.0191   30.7553   47.2316 H   0  0  0  0  0  0  0  0  0  0  0  0
   59.3853   31.3063   45.9811 H   0  0  0  0  0  0  0  0  0  0  0  0
   59.0592   28.8417   46.1286 H   0  0  0  0  0  0  0  0  0  0  0  0
  1  2  1  0
  2  3  1  0
  2  4  1  0
  4  5  2  0
  4  6  1  0
  6  7  1  0
  7  8  2  0
  8  9  1  0
  9 10  2  0
 10 11  1  0
 11 12  1  0
 12 13  1  0
 13 14  2  0
 14 15  1  0
 15 16  2  0
 16 17  1  0
 17 18  2  0
 18 19  1  0
 19 20  2  0
 20 21  1  0
 21 22  1  0
 22 23  1  0
 23 24  2  0
 24 25  1  0
 25 26  2  0
 26 27  1  0
 26 28  1  0
 28 29  2  0
 10 30  1  0
 30 31  2  0
 31  7  1  0
 21 13  1  0
 29 23  1  0
 20 15  1  0
  1 32  1  0
  1 33  1  0
  1 34  1  0
  3 35  1  0
  3 36  1  0
  3 37  1  0
  6 38  1  0
  8 39  1  0
  9 40  1  0
 12 41  1  0
 12 42  1  0
 16 43  1  0
 17 44  1  0
 18 45  1  0
 19 46  1  0
 22 47  1  0
 22 48  1  0
 24 49  1  0
 25 50  1  0
 28 51  1  0
 29 52  1  0
 30 53  1  0
 31 54  1  0
M  END
>  <UniqueID>  (82) 
78

>  <SMILES>  (82) 
CN(C)C(=O)Nc1ccc(OCc2nc3ccccc3n2Cc2ccc(F)cc2)cc1

>  <Energy>  (82) 
93.22105635410622

>  <Genealogy>  (82) 
CN(C)C(=O)Nc1ccc(OCc2nc3ccccc3n2Cc2ccc(F)cc2)cc1 (3D coordinates assigned)
CN(C)C(=O)Nc1ccc(OCc2nc3ccccc3n2Cc2ccc(F)cc2)cc1 (optimized conformer: 93.22105635410622 kcal/mol)

>  <smiles>  (82) 
CN(C)C(=O)Nc1ccc(OCc2nc3ccccc3n2Cc2ccc(F)cc2)cc1

>  <score_type>  (82) 
oracle

>  <origin>  (82) 
adg

>  <m_score__min__energy>  (82) 
-8.1799999999999997

>  <m_primary>  (82) 
energy

$$$$
82:0
     RDKit          3D

 59 63  0  0  0  0  0  0  0  0999 V2000
   60.9130   26.3600   47.0200 H   0  0  0  0  0  0  0  0  0  0  0  0
   60.7610   26.2180   48.0130 O   0  0  0  0  0  0  0  0  0  0  0  0
   60.5100   27.2870   48.8740 C   0  0  0  0  0  0  0  0  0  0  0  0
   61.1140   27.3190   50.1370 C   0  0  0  0  0  0  0  0  0  0  0  0
   61.7865   26.5035   50.4416 H   0  0  0  0  0  0  0  0  0  0  0  0
   60.8690   28.3770   51.0110 C   0  0  0  0  0  0  0  0  0  0  0  0
   61.3508   28.3930   51.9997 H   0  0  0  0  0  0  0  0  0  0  0  0
   60.0120   29.4200   50.6360 C   0  0  0  0  0  0  0  0  0  0  0  0
   59.7520   30.4690   51.5290 C   0  0  0  0  0  0  0  0  0  0  0  0
   60.2235   30.4792   52.5228 H   0  0  0  0  0  0  0  0  0  0  0  0
   58.8850   31.5080   51.1470 C   0  0  0  0  0  0  0  0  0  0  0  0
   58.5980   32.5150   51.9260 N   0  0  0  0  0  0  0  0  0  0  0  0
   59.3190   33.7800   52.0940 C   0  0  0  0  0  0  0  0  0  0  0  0
   58.6581   34.6103   51.8047 H   0  0  0  0  0  0  0  0  0  0  0  0
   59.6195   33.8710   53.1482 H   0  0  0  0  0  0  0  0  0  0  0  0
   60.5840   33.8210   51.2240 C   0  0  0  0  0  0  0  0  0  0  0  0
   61.2394   34.6229   51.5947 H   0  0  0  0  0  0  0  0  0  0  0  0
   61.0656   32.8345   51.2939 H   0  0  0  0  0  0  0  0  0  0  0  0
   60.2800   34.0820   49.7430 C   0  0  0  0  0  0  0  0  0  0  0  0
   59.3013   33.6469   49.4922 H   0  0  0  0  0  0  0  0  0  0  0  0
   60.2683   35.1680   49.5683 H   0  0  0  0  0  0  0  0  0  0  0  0
   61.3370   33.4600   48.8700 C   0  0  0  0  0  0  0  0  0  0  0  0
   62.6070   34.0490   48.7630 C   0  0  0  0  0  0  0  0  0  0  0  0
   62.8252   34.9826   49.3023 H   0  0  0  0  0  0  0  0  0  0  0  0
   63.5960   33.4530   47.9730 C   0  0  0  0  0  0  0  0  0  0  0  0
   64.5877   33.9213   47.8887 H   0  0  0  0  0  0  0  0  0  0  0  0
   63.3260   32.2640   47.2910 C   0  0  0  0  0  0  0  0  0  0  0  0
   64.1040   31.7983   46.6682 H   0  0  0  0  0  0  0  0  0  0  0  0
   62.0670   31.6660   47.4000 C   0  0  0  0  0  0  0  0  0  0  0  0
   61.8551   30.7297   46.8630 H   0  0  0  0  0  0  0  0  0  0  0  0
   61.0770   32.2570   48.1910 C   0  0  0  0  0  0  0  0  0  0  0  0
   60.0907   31.7786   48.2823 H   0  0  0  0  0  0  0  0  0  0  0  0
   58.3030   31.4630   49.9210 N   0  0  0  0  0  0  0  0  0  0  0  0
   58.5290   30.4600   49.0350 C   0  0  0  0  0  0  0  0  0  0  0  0
   58.0278   30.4720   48.0559 H   0  0  0  0  0  0  0  0  0  0  0  0
   59.3990   29.4070   49.3610 C   0  0  0  0  0  0  0  0  0  0  0  0
   59.6540   28.3320   48.4720 C   0  0  0  0  0  0  0  0  0  0  0  0
   59.0150   28.2530   47.1390 C   0  0  0  0  0  0  0  0  0  0  0  0
   58.2930   27.1130   46.7620 C   0  0  0  0  0  0  0  0  0  0  0  0
   58.1985   26.2670   47.4586 H   0  0  0  0  0  0  0  0  0  0  0  0
   57.6930   27.0500   45.5020 C   0  0  0  0  0  0  0  0  0  0  0  0
   57.1325   26.1511   45.2057 H   0  0  0  0  0  0  0  0  0  0  0  0
   57.8030   28.1260   44.6170 C   0  0  0  0  0  0  0  0  0  0  0  0
   57.3292   28.0690   43.6259 H   0  0  0  0  0  0  0  0  0  0  0  0
   58.5130   29.2770   44.9840 C   0  0  0  0  0  0  0  0  0  0  0  0
   58.5940   30.3630   44.0520 N   0  0  0  0  0  0  0  0  0  0  0  0
   57.5350   31.7360   44.0190 S   0  0  0  0  0  0  0  0  0  0  0  0
   56.1720   31.3200   44.5000 O   0  0  0  0  0  0  0  0  0  0  0  0
   57.4060   32.2490   42.6130 O   0  0  0  0  0  0  0  0  0  0  0  0
   58.1550   32.9900   45.0780 C   0  0  0  0  0  0  0  0  0  0  0  0
   59.2450   34.1950   44.6350 S   0  0  0  0  0  0  0  0  0  0  0  0
   59.3550   34.8950   46.1630 C   0  0  0  0  0  0  0  0  0  0  0  0
   59.9714   35.7667   46.4280 H   0  0  0  0  0  0  0  0  0  0  0  0
   58.5330   34.1830   47.0350 C   0  0  0  0  0  0  0  0  0  0  0  0
   58.4218   34.4368   48.0995 H   0  0  0  0  0  0  0  0  0  0  0  0
   57.8620   33.1140   46.4280 C   0  0  0  0  0  0  0  0  0  0  0  0
   57.1751   32.4435   46.9652 H   0  0  0  0  0  0  0  0  0  0  0  0
   59.1220   29.3310   46.2500 C   0  0  0  0  0  0  0  0  0  0  0  0
   59.6874   30.2272   46.5453 H   0  0  0  0  0  0  0  0  0  0  0  0
  1  2  1  0
  2  3  1  0
  3  4  1  0
  4  5  1  0
  4  6  2  0
  6  7  1  0
  6  8  1  0
  8  9  2  0
  9 10  1  0
  9 11  1  0
 11 12  2  0
 12 13  1  0
 13 14  1  0
 13 15  1  0
 13 16  1  0
 16 17  1  0
 16 18  1  0
 16 19  1  0
 19 20  1  0
 19 21  1  0
 19 22  1  0
 22 23  2  0
 23 24  1  0
 23 25  1  0
 25 26  1  0
 25 27  2  0
 27 28  1  0
 27 29  1  0
 29 30  1  0
 29 31  2  0
 31 32  1  0
 11 33  1  0
 33 34  1  0
 34 35  1  0
 34 36  2  0
 36 37  1  0
 37 38  1  0
 38 39  2  0
 39 40  1  0
 39 41  1  0
 41 42  1  0
 41 43  2  0
 43 44  1  0
 43 45  1  0
 45 46  1  0
 46 47  1  0
 47 48  2  0
 47 49  2  0
 47 50  1  0
 50 51  1  0
 51 52  1  0
 52 53  1  0
 52 54  2  0
 54 55  1  0
 54 56  1  0
 56 57  1  0
 45 58  2  0
 58 59  1  0
 37  3  2  0
 58 38  1  0
 36  8  1  0
 56 50  2  0
 31 22  1  0
M  CHG  2  33  -1  46  -1
M  END
>  <UniqueID>  (83) 
79

>  <SMILES>  (83) 
O=S(=O)([N-]c1cccc(-c2c(O)ccc3c/c(=N\CCCc4ccccc4)[n-]cc23)c1)c1cccs1

>  <Energy>  (83) 
106.36376824548573

>  <Genealogy>  (83) 
O=S(=O)([N-]c1cccc(-c2c(O)ccc3cc(=NCCCc4ccccc4)[n-]cc23)c1)c1cccs1 (protonated)
O=S(=O)([N-]c1cccc(-c2c(O)ccc3c/c(=N\CCCc4ccccc4)[n-]cc23)c1)c1cccs1 (cis-trans isomerization)
O=S(=O)([N-]c1cccc(-c2c(O)ccc3c/c(=N\CCCc4ccccc4)[n-]cc23)c1)c1cccs1 (3D coordinates assigned)
O=S(=O)([N-]c1cccc(-c2c(O)ccc3c/c(=N\CCCc4ccccc4)[n-]cc23)c1)c1cccs1 (optimized conformer: 106.36376824548573 kcal/mol)

>  <smiles>  (83) 
O=S(=O)(Nc1cccc(-c2c(O)ccc3cc(=NCCCc4ccccc4)[nH]cc23)c1)c1cccs1

>  <score_type>  (83) 
oracle

>  <origin>  (83) 
adg

>  <m_score__min__energy>  (83) 
-13.470000000000001

>  <m_primary>  (83) 
energy

$$$$
83:0
     RDKit          3D

 45 47  0  0  0  0  0  0  0  0999 V2000
   57.0660   29.4310   42.8810 C   0  0  0  0  0  0  0  0  0  0  0  0
   55.7560   29.5500   44.0820 S   0  0  0  0  0  0  0  0  0  0  0  0
   54.4140   29.5000   43.4060 O   0  0  0  0  0  0  0  0  0  0  0  0
   55.8850   30.8600   44.8060 O   0  0  0  0  0  0  0  0  0  0  0  0
   55.8890   28.2620   45.2350 N   0  0  0  0  0  0  0  0  0  0  0  0
   57.0540   27.9530   46.0120 C   0  0  0  0  0  0  0  0  0  0  0  0
   57.3620   26.6440   46.4120 C   0  0  0  0  0  0  0  0  0  0  0  0
   58.4980   26.3950   47.1800 C   0  0  0  0  0  0  0  0  0  0  0  0
   59.3600   27.4380   47.5380 C   0  0  0  0  0  0  0  0  0  0  0  0
   60.7720   27.0190   48.5080 Cl  0  0  0  0  0  0  0  0  0  0  0  0
   59.0910   28.7590   47.1030 C   0  0  0  0  0  0  0  0  0  0  0  0
   60.0030   29.8940   47.4260 C   0  0  0  0  0  0  0  0  0  0  0  0
   60.4340   30.0260   48.6010 O   0  0  0  0  0  0  0  0  0  0  0  0
   60.3580   30.9030   46.4670 N   0  0  0  0  0  0  0  0  0  0  0  0
   59.6970   32.1530   46.2290 C   0  0  0  0  0  0  0  0  0  0  0  0
   58.4620   32.1240   45.5690 C   0  0  0  0  0  0  0  0  0  0  0  0
   57.8000   33.3100   45.2470 C   0  0  0  0  0  0  0  0  0  0  0  0
   58.3590   34.5380   45.5990 C   0  0  0  0  0  0  0  0  0  0  0  0
   59.5700   34.5820   46.2920 C   0  0  0  0  0  0  0  0  0  0  0  0
   60.2510   33.3960   46.6280 C   0  0  0  0  0  0  0  0  0  0  0  0
   61.4360   33.4590   47.4490 N   0  0  0  0  0  0  0  0  0  0  0  0
   62.7540   33.5050   46.8010 C   0  0  0  0  0  0  0  0  0  0  0  0
   63.8640   33.1950   47.8110 C   0  0  0  0  0  0  0  0  0  0  0  0
   63.7300   33.9860   48.9750 O   0  0  0  0  0  0  0  0  0  0  0  0
   62.5270   33.6520   49.6400 C   0  0  0  0  0  0  0  0  0  0  0  0
   61.3150   34.0390   48.7910 C   0  0  0  0  0  0  0  0  0  0  0  0
   57.9040   28.9990   46.3840 C   0  0  0  0  0  0  0  0  0  0  0  0
   58.0321   29.3432   43.3997 H   0  0  0  0  0  0  0  0  0  0  0  0
   56.9062   28.5437   42.2508 H   0  0  0  0  0  0  0  0  0  0  0  0
   57.0687   30.3326   42.2508 H   0  0  0  0  0  0  0  0  0  0  0  0
   56.7051   25.8119   46.1186 H   0  0  0  0  0  0  0  0  0  0  0  0
   58.7194   25.3687   47.5081 H   0  0  0  0  0  0  0  0  0  0  0  0
   58.0095   31.1576   45.3019 H   0  0  0  0  0  0  0  0  0  0  0  0
   56.8375   33.2759   44.7156 H   0  0  0  0  0  0  0  0  0  0  0  0
   57.8453   35.4728   45.3304 H   0  0  0  0  0  0  0  0  0  0  0  0
   59.9972   35.5542   46.5789 H   0  0  0  0  0  0  0  0  0  0  0  0
   62.7845   32.7614   45.9910 H   0  0  0  0  0  0  0  0  0  0  0  0
   62.9149   34.5154   46.3970 H   0  0  0  0  0  0  0  0  0  0  0  0
   63.8086   32.1326   48.0906 H   0  0  0  0  0  0  0  0  0  0  0  0
   64.8338   33.4225   47.3443 H   0  0  0  0  0  0  0  0  0  0  0  0
   62.5062   32.5681   49.8263 H   0  0  0  0  0  0  0  0  0  0  0  0
   62.4835   34.2033   50.5909 H   0  0  0  0  0  0  0  0  0  0  0  0
   60.3995   33.6614   49.2697 H   0  0  0  0  0  0  0  0  0  0  0  0
   61.2679   35.1348   48.7076 H   0  0  0  0  0  0  0  0  0  0  0  0
   57.6401   30.0309   46.1093 H   0  0  0  0  0  0  0  0  0  0  0  0
  1  2  1  0
  2  3  2  0
  2  4  2  0
  2  5  1  0
  5  6  1  0
  6  7  2  0
  7  8  1  0
  8  9  2  0
  9 10  1  0
  9 11  1  0
 11 12  1  0
 12 13  2  0
 12 14  1  0
 14 15  1  0
 15 16  2  0
 16 17  1  0
 17 18  2  0
 18 19  1  0
 19 20  2  0
 20 21  1  0
 21 22  1  0
 22 23  1  0
 23 24  1  0
 24 25  1  0
 25 26  1  0
 11 27  2  0
 27  6  1  0
 20 15  1  0
 26 21  1  0
  1 28  1  0
  1 29  1  0
  1 30  1  0
  7 31  1  0
  8 32  1  0
 16 33  1  0
 17 34  1  0
 18 35  1  0
 19 36  1  0
 22 37  1  0
 22 38  1  0
 23 39  1  0
 23 40  1  0
 25 41  1  0
 25 42  1  0
 26 43  1  0
 26 44  1  0
 27 45  1  0
M  CHG  2   5  -1  14  -1
M  END
>  <UniqueID>  (84) 
80

>  <SMILES>  (84) 
CS(=O)(=O)[N-]c1ccc(Cl)c(C(=O)[N-]c2ccccc2N2CCOCC2)c1

>  <Energy>  (84) 
60.49669830095923

>  <Genealogy>  (84) 
CS(=O)(=O)[N-]c1ccc(Cl)c(C(=O)[N-]c2ccccc2N2CCOCC2)c1 (protonated)
CS(=O)(=O)[N-]c1ccc(Cl)c(C(=O)[N-]c2ccccc2N2CCOCC2)c1 (3D coordinates assigned)
CS(=O)(=O)[N-]c1ccc(Cl)c(C(=O)[N-]c2ccccc2N2CCOCC2)c1 (nonaromatic ring conformer: 60.49669830095923 kcal/mol)

>  <smiles>  (84) 
CS(=O)(=O)Nc1ccc(Cl)c(C(=O)Nc2ccccc2N2CCOCC2)c1

>  <score_type>  (84) 
oracle

>  <origin>  (84) 
adg

>  <m_score__min__energy>  (84) 
-11.76

>  <m_primary>  (84) 
energy

$$$$
84:0
     RDKit          3D

 45 47  0  0  0  0  0  0  0  0999 V2000
   52.8176   24.6149   45.4451 H   0  0  0  0  0  0  0  0  0  0  0  0
   53.9050   24.7520   45.5390 C   0  0  0  0  0  0  0  0  0  0  0  0
   54.4580   25.9150   45.9730 N   0  0  0  0  0  0  0  0  0  0  0  0
   55.8060   25.8370   46.0000 C   0  0  0  0  0  0  0  0  0  0  0  0
   56.5810   26.8090   46.3710 N   0  0  0  0  0  0  0  0  0  0  0  0
   57.9700   27.3120   45.4650 S   0  0  0  0  0  0  0  0  0  0  0  0
   59.2150   27.0200   46.2570 O   0  0  0  0  0  0  0  0  0  0  0  0
   58.0290   26.5380   44.1790 O   0  0  0  0  0  0  0  0  0  0  0  0
   57.8500   29.0290   45.0970 C   0  0  0  0  0  0  0  0  0  0  0  0
   58.8330   29.9250   45.5350 C   0  0  0  0  0  0  0  0  0  0  0  0
   59.6997   29.5536   46.1015 H   0  0  0  0  0  0  0  0  0  0  0  0
   58.7170   31.2900   45.2550 C   0  0  0  0  0  0  0  0  0  0  0  0
   59.4924   31.9873   45.6049 H   0  0  0  0  0  0  0  0  0  0  0  0
   57.6140   31.7780   44.5280 C   0  0  0  0  0  0  0  0  0  0  0  0
   57.4630   33.1780   44.2190 N   0  0  0  0  0  0  0  0  0  0  0  0
   57.3970   33.4600   43.2140 H   0  0  0  0  0  0  0  0  0  0  0  0
   57.4430   34.2500   45.2140 C   0  0  0  0  0  0  0  0  0  0  0  0
   56.7513   33.9786   46.0251 H   0  0  0  0  0  0  0  0  0  0  0  0
   57.1115   35.1801   44.7293 H   0  0  0  0  0  0  0  0  0  0  0  0
   58.8140   34.4610   45.7840 C   0  0  0  0  0  0  0  0  0  0  0  0
   59.5810   35.3070   45.2520 O   0  0  0  0  0  0  0  0  0  0  0  0
   59.2240   33.7320   46.9510 N   0  0  0  0  0  0  0  0  0  0  0  0
   58.4860   33.2260   47.4930 H   0  0  0  0  0  0  0  0  0  0  0  0
   60.5550   33.7620   47.4950 C   0  0  0  0  0  0  0  0  0  0  0  0
   60.7460   34.1830   48.8190 C   0  0  0  0  0  0  0  0  0  0  0  0
   59.8819   34.4996   49.4216 H   0  0  0  0  0  0  0  0  0  0  0  0
   62.0270   34.2030   49.3780 C   0  0  0  0  0  0  0  0  0  0  0  0
   62.1651   34.5477   50.4134 H   0  0  0  0  0  0  0  0  0  0  0  0
   63.1350   33.7880   48.6310 C   0  0  0  0  0  0  0  0  0  0  0  0
   64.4000   33.8290   49.2360 O   0  0  0  0  0  0  0  0  0  0  0  0
   65.0780   32.6910   49.7590 C   0  0  0  0  0  0  0  0  0  0  0  0
   65.0576   32.7252   50.8583 H   0  0  0  0  0  0  0  0  0  0  0  0
   64.5784   31.7747   49.4113 H   0  0  0  0  0  0  0  0  0  0  0  0
   66.1216   32.6941   49.4113 H   0  0  0  0  0  0  0  0  0  0  0  0
   62.9440   33.3410   47.3100 C   0  0  0  0  0  0  0  0  0  0  0  0
   63.8063   33.0044   46.7157 H   0  0  0  0  0  0  0  0  0  0  0  0
   61.6630   33.3230   46.7500 C   0  0  0  0  0  0  0  0  0  0  0  0
   61.5215   32.9631   45.7202 H   0  0  0  0  0  0  0  0  0  0  0  0
   56.6290   30.8730   44.1020 C   0  0  0  0  0  0  0  0  0  0  0  0
   55.7571   31.2406   43.5410 H   0  0  0  0  0  0  0  0  0  0  0  0
   56.7460   29.5100   44.3840 C   0  0  0  0  0  0  0  0  0  0  0  0
   55.9670   28.8116   44.0442 H   0  0  0  0  0  0  0  0  0  0  0  0
   56.3660   24.3390   45.4940 S   0  0  0  0  0  0  0  0  0  0  0  0
   54.8140   23.7470   45.2220 C   0  0  0  0  0  0  0  0  0  0  0  0
   54.5619   22.7404   44.8570 H   0  0  0  0  0  0  0  0  0  0  0  0
  1  2  1  0
  2  3  1  0
  3  4  1  0
  4  5  2  0
  5  6  1  0
  6  7  2  0
  6  8  2  0
  6  9  1  0
  9 10  2  0
 10 11  1  0
 10 12  1  0
 12 13  1  0
 12 14  2  0
 14 15  1  0
 15 16  1  0
 15 17  1  0
 17 18  1  0
 17 19  1  0
 17 20  1  0
 20 21  2  0
 20 22  1  0
 22 23  1  0
 22 24  1  0
 24 25  2  0
 25 26  1  0
 25 27  1  0
 27 28  1  0
 27 29  2  0
 29 30  1  0
 30 31  1  0
 31 32  1  0
 31 33  1  0
 31 34  1  0
 29 35  1  0
 35 36  1  0
 35 37  2  0
 37 38  1  0
 14 39  1  0
 39 40  1  0
 39 41  2  0
 41 42  1  0
  4 43  1  0
 43 44  1  0
 44 45  1  0
 44  2  2  0
 41  9  1  0
 37 24  1  0
M  CHG  1   3  -1
M  END
>  <UniqueID>  (85) 
81

>  <SMILES>  (85) 
COc1ccc(NC(=O)CNc2ccc(S(=O)(=O)/N=c3\[n-]ccs3)cc2)cc1

>  <Energy>  (85) 
81.20684255389223

>  <Genealogy>  (85) 
COc1ccc(NC(=O)CNc2ccc(S(=O)(=O)N=c3[n-]ccs3)cc2)cc1 (protonated)
COc1ccc(NC(=O)CNc2ccc(S(=O)(=O)/N=c3\[n-]ccs3)cc2)cc1 (cis-trans isomerization)
COc1ccc(NC(=O)CNc2ccc(S(=O)(=O)/N=c3\[n-]ccs3)cc2)cc1 (3D coordinates assigned)
COc1ccc(NC(=O)CNc2ccc(S(=O)(=O)/N=c3\[n-]ccs3)cc2)cc1 (optimized conformer: 81.20684255389223 kcal/mol)

>  <smiles>  (85) 
COc1ccc(NC(=O)CNc2ccc(S(=O)(=O)N=c3[nH]ccs3)cc2)cc1

>  <score_type>  (85) 
oracle

>  <origin>  (85) 
adg

>  <m_score__min__energy>  (85) 
-10.140000000000001

>  <m_primary>  (85) 
energy

$$$$
85:0
     RDKit          3D

 51 53  0  0  0  0  0  0  0  0999 V2000
   64.0890   32.7190   48.8960 C   0  0  0  0  0  0  0  0  0  0  0  0
   63.5300   33.1350   47.6530 O   0  0  0  0  0  0  0  0  0  0  0  0
   62.1630   33.0830   47.3400 C   0  0  0  0  0  0  0  0  0  0  0  0
   61.3610   32.1660   48.0280 C   0  0  0  0  0  0  0  0  0  0  0  0
   59.9940   32.0730   47.7550 C   0  0  0  0  0  0  0  0  0  0  0  0
   59.4090   32.8930   46.7780 C   0  0  0  0  0  0  0  0  0  0  0  0
   60.2030   33.8330   46.0900 C   0  0  0  0  0  0  0  0  0  0  0  0
   61.5780   33.9160   46.3680 C   0  0  0  0  0  0  0  0  0  0  0  0
   59.6230   34.6890   44.9920 C   0  0  0  0  0  0  0  0  0  0  0  0
   58.0850   34.6770   44.9780 C   0  0  0  0  0  0  0  0  0  0  0  0
   57.5220   33.3280   45.2080 N   0  0  1  0  0  0  0  0  0  0  0  0
   57.8780   32.3870   44.1140 C   0  0  0  0  0  0  0  0  0  0  0  0
   57.6890   30.9430   44.5230 C   0  0  0  0  0  0  0  0  0  0  0  0
   56.4170   30.3490   44.4670 C   0  0  0  0  0  0  0  0  0  0  0  0
   56.2430   29.0140   44.8450 C   0  0  0  0  0  0  0  0  0  0  0  0
   57.3400   28.2460   45.2720 C   0  0  0  0  0  0  0  0  0  0  0  0
   57.1410   26.8130   45.7110 C   0  0  2  0  0  0  0  0  0  0  0  0
   57.6760   25.8520   44.6460 C   0  0  0  0  0  0  0  0  0  0  0  0
   55.7210   26.5700   45.9580 N   0  0  0  0  0  0  0  0  0  0  0  0
   55.1320   25.2660   45.9940 C   0  0  0  0  0  0  0  0  0  0  0  0
   55.9540   24.0920   46.4120 C   0  0  0  0  0  0  0  0  0  0  0  0
   53.9390   25.0910   45.6250 O   0  0  0  0  0  0  0  0  0  0  0  0
   58.6130   28.8420   45.3180 C   0  0  0  0  0  0  0  0  0  0  0  0
   58.7860   30.1790   44.9490 C   0  0  0  0  0  0  0  0  0  0  0  0
   57.9170   32.8290   46.5470 C   0  0  0  0  0  0  0  0  0  0  0  0
   63.5071   33.1520   49.7230 H   0  0  0  0  0  0  0  0  0  0  0  0
   64.0595   31.6214   48.9623 H   0  0  0  0  0  0  0  0  0  0  0  0
   65.1319   33.0624   48.9623 H   0  0  0  0  0  0  0  0  0  0  0  0
   61.8106   31.5127   48.7903 H   0  0  0  0  0  0  0  0  0  0  0  0
   59.3731   31.3533   48.3087 H   0  0  0  0  0  0  0  0  0  0  0  0
   62.2023   34.6381   45.8213 H   0  0  0  0  0  0  0  0  0  0  0  0
   59.9653   35.7245   45.1354 H   0  0  0  0  0  0  0  0  0  0  0  0
   59.9667   34.2754   44.0324 H   0  0  0  0  0  0  0  0  0  0  0  0
   57.7207   35.3497   45.7684 H   0  0  0  0  0  0  0  0  0  0  0  0
   57.7594   35.0071   43.9805 H   0  0  0  0  0  0  0  0  0  0  0  0
   56.4790   33.4410   45.2140 H   0  0  0  0  0  0  0  0  0  0  0  0
   57.2383   32.5960   43.2439 H   0  0  0  0  0  0  0  0  0  0  0  0
   58.9408   32.5347   43.8720 H   0  0  0  0  0  0  0  0  0  0  0  0
   55.5532   30.9374   44.1239 H   0  0  0  0  0  0  0  0  0  0  0  0
   55.2409   28.5619   44.8079 H   0  0  0  0  0  0  0  0  0  0  0  0
   57.6999   26.6376   46.6421 H   0  0  0  0  0  0  0  0  0  0  0  0
   58.1550   24.9915   45.1360 H   0  0  0  0  0  0  0  0  0  0  0  0
   56.8439   25.5001   44.0184 H   0  0  0  0  0  0  0  0  0  0  0  0
   58.4134   26.3739   44.0184 H   0  0  0  0  0  0  0  0  0  0  0  0
   55.9893   24.0415   47.5103 H   0  0  0  0  0  0  0  0  0  0  0  0
   55.5034   23.1696   46.0169 H   0  0  0  0  0  0  0  0  0  0  0  0
   56.9749   24.1999   46.0169 H   0  0  0  0  0  0  0  0  0  0  0  0
   59.4802   28.2508   45.6473 H   0  0  0  0  0  0  0  0  0  0  0  0
   59.7865   30.6342   44.9928 H   0  0  0  0  0  0  0  0  0  0  0  0
   57.4162   33.4405   47.3120 H   0  0  0  0  0  0  0  0  0  0  0  0
   57.6168   31.7726   46.6090 H   0  0  0  0  0  0  0  0  0  0  0  0
  1  2  1  0
  2  3  1  0
  3  4  2  0
  4  5  1  0
  5  6  2  0
  6  7  1  0
  7  8  2  0
  7  9  1  0
  9 10  1  0
 10 11  1  0
 11 12  1  0
 12 13  1  0
 13 14  2  0
 14 15  1  0
 15 16  2  0
 16 17  1  0
 17 18  1  0
 17 19  1  0
 19 20  1  0
 20 21  1  0
 20 22  2  0
 16 23  1  0
 23 24  2  0
 11 25  1  0
  8  3  1  0
 24 13  1  0
 25  6  1  0
  1 26  1  0
  1 27  1  0
  1 28  1  0
  4 29  1  0
  5 30  1  0
  8 31  1  0
  9 32  1  0
  9 33  1  0
 10 34  1  0
 10 35  1  0
 11 36  1  1
 12 37  1  0
 12 38  1  0
 14 39  1  0
 15 40  1  0
 17 41  1  1
 18 42  1  0
 18 43  1  0
 18 44  1  0
 21 45  1  0
 21 46  1  0
 21 47  1  0
 23 48  1  0
 24 49  1  0
 25 50  1  0
 25 51  1  0
M  CHG  2  11   1  19  -1
M  END
>  <UniqueID>  (86) 
82

>  <SMILES>  (86) 
COc1ccc2c(c1)CC[N@@H+](Cc1ccc([C@H](C)[N-]C(C)=O)cc1)C2

>  <Energy>  (86) 
52.327412885831976

>  <Genealogy>  (86) 
COc1ccc2c(c1)CC[NH+](Cc1ccc(C(C)[N-]C(C)=O)cc1)C2 (protonated)
COc1ccc2c(c1)CC[N@@H+](Cc1ccc([C@H](C)[N-]C(C)=O)cc1)C2 (chirality)
COc1ccc2c(c1)CC[N@@H+](Cc1ccc([C@H](C)[N-]C(C)=O)cc1)C2 (3D coordinates assigned)
COc1ccc2c(c1)CC[N@@H+](Cc1ccc([C@H](C)[N-]C(C)=O)cc1)C2 (nonaromatic ring conformer: 52.327412885831976 kcal/mol)

>  <smiles>  (86) 
COc1ccc2c(c1)CCN(Cc1ccc(C(C)NC(C)=O)cc1)C2

>  <score_type>  (86) 
oracle

>  <origin>  (86) 
adg

>  <m_score__min__energy>  (86) 
-8.8000000000000007

>  <m_primary>  (86) 
energy

$$$$
86:0
     RDKit          3D

 32 33  0  0  0  0  0  0  0  0999 V2000
   54.7680   29.7200   43.5210 O   0  0  0  0  0  0  0  0  0  0  0  0
   55.5570   29.7330   44.5030 C   0  0  0  0  0  0  0  0  0  0  0  0
   56.2340   30.9480   44.8350 N   0  0  0  0  0  0  0  0  0  0  0  0
   57.4150   31.4310   44.1260 C   0  0  0  0  0  0  0  0  0  0  0  0
   58.1640   32.4330   44.9690 C   0  0  0  0  0  0  0  0  0  0  0  0
   58.0420   33.8070   44.6950 C   0  0  0  0  0  0  0  0  0  0  0  0
   58.7470   34.7440   45.4500 C   0  0  0  0  0  0  0  0  0  0  0  0
   59.5790   34.3230   46.4870 C   0  0  0  0  0  0  0  0  0  0  0  0
   59.7120   32.9610   46.7710 C   0  0  0  0  0  0  0  0  0  0  0  0
   59.0070   32.0020   46.0150 C   0  0  0  0  0  0  0  0  0  0  0  0
   59.1190   30.6230   46.2670 O   0  0  0  0  0  0  0  0  0  0  0  0
   59.3240   30.0280   47.5460 C   0  0  0  0  0  0  0  0  0  0  0  0
   60.4050   29.1660   47.5030 F   0  0  0  0  0  0  0  0  0  0  0  0
   59.5860   31.0250   48.4660 F   0  0  0  0  0  0  0  0  0  0  0  0
   58.1890   29.3430   47.9420 F   0  0  0  0  0  0  0  0  0  0  0  0
   55.8150   28.5360   45.2480 N   0  0  0  0  0  0  0  0  0  0  0  0
   57.0890   27.9110   45.4550 C   0  0  0  0  0  0  0  0  0  0  0  0
   57.3250   27.0130   46.5110 C   0  0  0  0  0  0  0  0  0  0  0  0
   58.5940   26.4580   46.6820 C   0  0  0  0  0  0  0  0  0  0  0  0
   59.6210   26.8150   45.8060 C   0  0  0  0  0  0  0  0  0  0  0  0
   59.3830   27.7020   44.8040 N   0  0  0  0  0  0  0  0  0  0  0  0
   58.1560   28.2570   44.6170 C   0  0  0  0  0  0  0  0  0  0  0  0
   58.0757   30.5806   43.9019 H   0  0  0  0  0  0  0  0  0  0  0  0
   57.0954   31.9188   43.1933 H   0  0  0  0  0  0  0  0  0  0  0  0
   57.3859   34.1450   43.8794 H   0  0  0  0  0  0  0  0  0  0  0  0
   58.6467   35.8165   45.2272 H   0  0  0  0  0  0  0  0  0  0  0  0
   60.1317   35.0644   47.0827 H   0  0  0  0  0  0  0  0  0  0  0  0
   60.3708   32.6351   47.5894 H   0  0  0  0  0  0  0  0  0  0  0  0
   56.5105   26.7483   47.2013 H   0  0  0  0  0  0  0  0  0  0  0  0
   58.7833   25.7462   47.4990 H   0  0  0  0  0  0  0  0  0  0  0  0
   60.6233   26.3782   45.9269 H   0  0  0  0  0  0  0  0  0  0  0  0
   58.0008   28.9811   43.8037 H   0  0  0  0  0  0  0  0  0  0  0  0
  1  2  2  0
  2  3  1  0
  3  4  1  0
  4  5  1  0
  5  6  2  0
  6  7  1  0
  7  8  2  0
  8  9  1  0
  9 10  2  0
 10 11  1  0
 11 12  1  0
 12 13  1  0
 12 14  1  0
 12 15  1  0
  2 16  1  0
 16 17  1  0
 17 18  2  0
 18 19  1  0
 19 20  2  0
 20 21  1  0
 21 22  2  0
 10  5  1  0
 22 17  1  0
  4 23  1  0
  4 24  1  0
  6 25  1  0
  7 26  1  0
  8 27  1  0
  9 28  1  0
 18 29  1  0
 19 30  1  0
 20 31  1  0
 22 32  1  0
M  CHG  2   3  -1  16  -1
M  END
>  <UniqueID>  (87) 
83

>  <SMILES>  (87) 
O=C([N-]Cc1ccccc1OC(F)(F)F)[N-]c1cccnc1

>  <Energy>  (87) 
34.258345409208374

>  <Genealogy>  (87) 
O=C([N-]Cc1ccccc1OC(F)(F)F)[N-]c1cccnc1 (protonated)
O=C([N-]Cc1ccccc1OC(F)(F)F)[N-]c1cccnc1 (3D coordinates assigned)
O=C([N-]Cc1ccccc1OC(F)(F)F)[N-]c1cccnc1 (optimized conformer: 34.258345409208374 kcal/mol)

>  <smiles>  (87) 
O=C(NCc1ccccc1OC(F)(F)F)Nc1cccnc1

>  <score_type>  (87) 
oracle

>  <origin>  (87) 
adg

>  <m_score__min__energy>  (87) 
-10.08

>  <m_primary>  (87) 
energy

$$$$
87:0
     RDKit          3D

 36 37  0  0  0  0  0  0  0  0999 V2000
   51.4560   24.1960   44.5030 C   0  0  0  0  0  0  0  0  0  0  0  0
   52.5240   23.2920   44.9000 N   0  0  0  0  0  0  0  0  0  0  0  0
   53.9080   23.6360   44.7970 C   0  0  0  0  0  0  0  0  0  0  0  0
   54.6800   22.9520   44.0720 O   0  0  0  0  0  0  0  0  0  0  0  0
   54.4080   24.7640   45.5220 N   0  0  0  0  0  0  0  0  0  0  0  0
   55.8160   25.1560   45.4510 C   0  0  0  0  0  0  0  0  0  0  0  0
   56.1390   26.2910   46.4350 C   0  0  0  0  0  0  0  0  0  0  0  0
   57.0180   27.3860   45.8120 C   0  0  0  0  0  0  0  0  0  0  0  0
   56.2160   28.3970   45.1210 N   0  0  0  0  0  0  0  0  0  0  0  0
   56.7660   29.6720   44.7610 C   0  0  0  0  0  0  0  0  0  0  0  0
   56.7920   30.0720   43.4190 C   0  0  0  0  0  0  0  0  0  0  0  0
   57.3280   31.3160   43.0740 C   0  0  0  0  0  0  0  0  0  0  0  0
   57.3480   31.6680   41.8620 O   0  0  0  0  0  0  0  0  0  0  0  0
   57.8370   32.1590   44.0800 C   0  0  0  0  0  0  0  0  0  0  0  0
   58.3870   33.4220   43.7880 C   0  0  0  0  0  0  0  0  0  0  0  0
   58.8820   34.2260   44.8190 C   0  0  0  0  0  0  0  0  0  0  0  0
   58.8340   33.7820   46.1440 C   0  0  0  0  0  0  0  0  0  0  0  0
   58.2900   32.5310   46.4460 C   0  0  0  0  0  0  0  0  0  0  0  0
   57.7910   31.7170   45.4220 C   0  0  0  0  0  0  0  0  0  0  0  0
   57.2630   30.5000   45.7210 N   0  0  0  0  0  0  0  0  0  0  0  0
   50.9707   24.6068   45.4006 H   0  0  0  0  0  0  0  0  0  0  0  0
   51.8751   25.0180   43.9041 H   0  0  0  0  0  0  0  0  0  0  0  0
   50.7145   23.6469   43.9041 H   0  0  0  0  0  0  0  0  0  0  0  0
   53.7400   25.3010   46.1210 H   0  0  0  0  0  0  0  0  0  0  0  0
   56.4416   24.2845   45.6940 H   0  0  0  0  0  0  0  0  0  0  0  0
   56.0213   25.5161   44.4321 H   0  0  0  0  0  0  0  0  0  0  0  0
   55.1949   26.7459   46.7692 H   0  0  0  0  0  0  0  0  0  0  0  0
   56.6999   25.8529   47.2737 H   0  0  0  0  0  0  0  0  0  0  0  0
   57.5973   27.8745   46.6093 H   0  0  0  0  0  0  0  0  0  0  0  0
   57.6830   26.9132   45.0743 H   0  0  0  0  0  0  0  0  0  0  0  0
   55.2230   28.1890   44.8680 H   0  0  0  0  0  0  0  0  0  0  0  0
   56.3915   29.4087   42.6382 H   0  0  0  0  0  0  0  0  0  0  0  0
   58.4272   33.7764   42.7474 H   0  0  0  0  0  0  0  0  0  0  0  0
   59.3110   35.2119   44.5869 H   0  0  0  0  0  0  0  0  0  0  0  0
   59.2255   34.4192   46.9507 H   0  0  0  0  0  0  0  0  0  0  0  0
   58.2537   32.1852   47.4896 H   0  0  0  0  0  0  0  0  0  0  0  0
  1  2  1  0
  2  3  1  0
  3  4  2  0
  3  5  1  0
  5  6  1  0
  6  7  1  0
  7  8  1  0
  8  9  1  0
  9 10  1  0
 10 11  2  0
 11 12  1  0
 12 13  2  0
 12 14  1  0
 14 15  2  0
 15 16  1  0
 16 17  2  0
 17 18  1  0
 18 19  2  0
 19 20  1  0
 20 10  1  0
 19 14  1  0
  1 21  1  0
  1 22  1  0
  1 23  1  0
  5 24  1  0
  6 25  1  0
  6 26  1  0
  7 27  1  0
  7 28  1  0
  8 29  1  0
  8 30  1  0
  9 31  1  0
 11 32  1  0
 15 33  1  0
 16 34  1  0
 17 35  1  0
 18 36  1  0
M  CHG  2   2  -1  20  -1
M  END
>  <UniqueID>  (88) 
84

>  <SMILES>  (88) 
C[N-]C(=O)NCCCNc1cc(=O)c2ccccc2[n-]1

>  <Energy>  (88) 
30.112279706811087

>  <Genealogy>  (88) 
C[N-]C(=O)NCCCNc1cc(=O)c2ccccc2[n-]1 (protonated)
C[N-]C(=O)NCCCNc1cc(=O)c2ccccc2[n-]1 (3D coordinates assigned)
C[N-]C(=O)NCCCNc1cc(=O)c2ccccc2[n-]1 (optimized conformer: 30.112279706811087 kcal/mol)

>  <smiles>  (88) 
CNC(=O)NCCCNc1cc(=O)c2ccccc2[nH]1

>  <score_type>  (88) 
oracle

>  <origin>  (88) 
adg

>  <m_score__min__energy>  (88) 
-10.779999999999999

>  <m_primary>  (88) 
energy

$$$$
88:0
     RDKit          3D

 51 53  0  0  0  0  0  0  0  0999 V2000
   62.5345   33.8047   47.8563 H   0  0  0  0  0  0  0  0  0  0  0  0
   61.5770   33.2720   47.9530 C   0  0  0  0  0  0  0  0  0  0  0  0
   61.5770   31.7950   47.8960 C   0  0  0  0  0  0  0  0  0  0  0  0
   62.5920   31.1800   48.3270 O   0  0  0  0  0  0  0  0  0  0  0  0
   60.4320   31.0090   47.3790 C   0  0  0  0  0  0  0  0  0  0  0  0
   60.0320   31.1150   46.0350 C   0  0  0  0  0  0  0  0  0  0  0  0
   60.6025   31.7513   45.3424 H   0  0  0  0  0  0  0  0  0  0  0  0
   58.9120   30.4150   45.5750 C   0  0  0  0  0  0  0  0  0  0  0  0
   58.5936   30.5208   44.5274 H   0  0  0  0  0  0  0  0  0  0  0  0
   58.1940   29.5810   46.4390 C   0  0  0  0  0  0  0  0  0  0  0  0
   57.0330   28.9010   45.9420 N   0  0  0  0  0  0  0  0  0  0  0  0
   56.4690   29.0780   44.6390 C   0  0  0  0  0  0  0  0  0  0  0  0
   55.2260   29.2340   44.5020 O   0  0  0  0  0  0  0  0  0  0  0  0
   57.3560   28.9610   43.4290 C   0  0  0  0  0  0  0  0  0  0  0  0
   56.7327   29.0472   42.5267 H   0  0  0  0  0  0  0  0  0  0  0  0
   58.1034   29.7660   43.4873 H   0  0  0  0  0  0  0  0  0  0  0  0
   58.1240   27.6140   43.3740 C   0  0  0  0  0  0  0  0  0  0  0  0
   57.9704   27.1622   42.3829 H   0  0  0  0  0  0  0  0  0  0  0  0
   59.1856   27.8304   43.5642 H   0  0  0  0  0  0  0  0  0  0  0  0
   57.6720   26.6500   44.4100 N   0  0  0  0  0  0  0  0  0  0  0  0
   56.7850   27.0280   44.8250 H   0  0  0  0  0  0  0  0  0  0  0  0
   58.6810   26.5540   45.4910 C   0  0  0  0  0  0  0  0  0  0  0  0
   59.5320   25.9575   45.1304 H   0  0  0  0  0  0  0  0  0  0  0  0
   58.9938   27.5750   45.7551 H   0  0  0  0  0  0  0  0  0  0  0  0
   58.1080   25.8880   46.7600 C   0  0  0  0  0  0  0  0  0  0  0  0
   58.9158   25.3231   47.2483 H   0  0  0  0  0  0  0  0  0  0  0  0
   57.7130   26.6972   47.3917 H   0  0  0  0  0  0  0  0  0  0  0  0
   56.7150   24.7400   46.4400 S   0  0  0  0  0  0  0  0  0  0  0  0
   57.3540   24.1670   44.8390 C   0  0  0  0  0  0  0  0  0  0  0  0
   58.3712   23.7727   44.9797 H   0  0  0  0  0  0  0  0  0  0  0  0
   56.6822   23.3841   44.4573 H   0  0  0  0  0  0  0  0  0  0  0  0
   57.3980   25.3130   43.8110 C   0  0  0  0  0  0  0  0  0  0  0  0
   58.1893   25.0922   43.0795 H   0  0  0  0  0  0  0  0  0  0  0  0
   56.4008   25.3675   43.3499 H   0  0  0  0  0  0  0  0  0  0  0  0
   58.5850   29.4800   47.7850 C   0  0  0  0  0  0  0  0  0  0  0  0
   58.0212   28.8326   48.4727 H   0  0  0  0  0  0  0  0  0  0  0  0
   59.6870   30.1990   48.2520 C   0  0  0  0  0  0  0  0  0  0  0  0
   59.9740   30.1306   49.3117 H   0  0  0  0  0  0  0  0  0  0  0  0
   60.4550   33.9880   48.1180 C   0  0  0  0  0  0  0  0  0  0  0  0
   60.3382   34.5718   49.0430 H   0  0  0  0  0  0  0  0  0  0  0  0
   59.3650   34.0310   47.1150 C   0  0  0  0  0  0  0  0  0  0  0  0
   58.1000   33.4540   47.3550 C   0  0  0  0  0  0  0  0  0  0  0  0
   57.8983   32.9558   48.3148 H   0  0  0  0  0  0  0  0  0  0  0  0
   57.1000   33.5130   46.3760 C   0  0  0  0  0  0  0  0  0  0  0  0
   56.1131   33.0690   46.5730 H   0  0  0  0  0  0  0  0  0  0  0  0
   57.3520   34.1340   45.1500 C   0  0  0  0  0  0  0  0  0  0  0  0
   56.5622   34.1847   44.3860 H   0  0  0  0  0  0  0  0  0  0  0  0
   58.6090   34.6910   44.8950 C   0  0  0  0  0  0  0  0  0  0  0  0
   58.8102   35.1735   43.9272 H   0  0  0  0  0  0  0  0  0  0  0  0
   59.6110   34.6350   45.8700 C   0  0  0  0  0  0  0  0  0  0  0  0
   60.6003   35.0677   45.6602 H   0  0  0  0  0  0  0  0  0  0  0  0
  1  2  1  0
  2  3  1  0
  3  4  2  0
  3  5  1  0
  5  6  2  0
  6  7  1  0
  6  8  1  0
  8  9  1  0
  8 10  2  0
 10 11  1  0
 11 12  1  0
 12 13  2  0
 12 14  1  0
 14 15  1  0
 14 16  1  0
 14 17  1  0
 17 18  1  0
 17 19  1  0
 17 20  1  0
 20 21  1  0
 20 22  1  0
 22 23  1  0
 22 24  1  0
 22 25  1  0
 25 26  1  0
 25 27  1  0
 25 28  1  0
 28 29  1  0
 29 30  1  0
 29 31  1  0
 29 32  1  0
 32 33  1  0
 32 34  1  0
 10 35  1  0
 35 36  1  0
 35 37  2  0
 37 38  1  0
  2 39  2  0
 39 40  1  0
 39 41  1  0
 41 42  2  0
 42 43  1  0
 42 44  1  0
 44 45  1  0
 44 46  2  0
 46 47  1  0
 46 48  1  0
 48 49  1  0
 48 50  2  0
 50 51  1  0
 37  5  1  0
 50 41  1  0
 32 20  1  0
M  CHG  2  11  -1  20   1
M  END
>  <UniqueID>  (89) 
85

>  <SMILES>  (89) 
O=C(CC[NH+]1CCSCC1)[N-]c1ccc(C(=O)/C=C/c2ccccc2)cc1

>  <Energy>  (89) 
71.53963585229657

>  <Genealogy>  (89) 
O=C(CC[NH+]1CCSCC1)[N-]c1ccc(C(=O)C=Cc2ccccc2)cc1 (protonated)
O=C(CC[NH+]1CCSCC1)[N-]c1ccc(C(=O)/C=C/c2ccccc2)cc1 (cis-trans isomerization)
O=C(CC[NH+]1CCSCC1)[N-]c1ccc(C(=O)/C=C/c2ccccc2)cc1 (3D coordinates assigned)
O=C(CC[NH+]1CCSCC1)[N-]c1ccc(C(=O)/C=C/c2ccccc2)cc1 (nonaromatic ring conformer: 71.53963585229657 kcal/mol)

>  <smiles>  (89) 
O=C(CCN1CCSCC1)Nc1ccc(C(=O)C=Cc2ccccc2)cc1

>  <score_type>  (89) 
oracle

>  <origin>  (89) 
adg

>  <m_score__min__energy>  (89) 
-9.1899999999999995

>  <m_primary>  (89) 
energy

$$$$
89:0
     RDKit          3D

 70 73  0  0  1  0  0  0  0  0999 V2000
   56.4200   19.9100   45.2970 C   0  0  0  0  0  0  0  0  0  0  0  0
   55.8940   20.7190   44.2920 O   0  0  0  0  0  0  0  0  0  0  0  0
   56.9280   21.0590   43.4410 C   0  0  0  0  0  0  0  0  0  0  0  0
   56.6420   22.3000   42.6290 C   0  0  0  0  0  0  0  0  0  0  0  0
   55.8900   23.2820   43.3540 N   0  0  0  0  0  0  0  0  0  0  0  0
   56.3220   23.9470   44.3720 C   0  0  0  0  0  0  0  0  0  0  0  0
   56.7650   25.2080   44.2290 N   0  0  0  0  0  0  0  0  0  0  0  0
   57.2260   25.9430   45.2610 C   0  0  0  0  0  0  0  0  0  0  0  0
   57.2240   25.3380   46.4970 C   0  0  0  0  0  0  0  0  0  0  0  0
   56.7670   24.0500   46.6220 C   0  0  0  0  0  0  0  0  0  0  0  0
   56.3110   23.3380   45.5670 N   0  0  0  0  0  0  0  0  0  0  0  0
   57.7220   26.2400   47.3570 N   0  0  0  0  0  0  0  0  0  0  0  0
   58.0250   27.3730   46.6690 C   0  0  0  0  0  0  0  0  0  0  0  0
   58.5420   28.3860   47.2630 N   0  0  0  0  0  0  0  0  0  0  0  0
   59.5600   28.2190   48.2320 C   0  0  0  0  0  0  0  0  0  0  0  0
   60.3640   29.5050   48.0810 C   0  0  0  0  0  0  0  0  0  0  0  0
   60.9160   30.1170   49.2000 C   0  0  0  0  0  0  0  0  0  0  0  0
   61.6560   31.2770   49.1310 C   0  0  0  0  0  0  0  0  0  0  0  0
   61.8430   31.8370   47.8860 C   0  0  0  0  0  0  0  0  0  0  0  0
   62.7610   33.3010   47.6820 S   0  0  0  0  0  0  0  0  0  0  0  0
   64.4520   33.0310   47.8600 N   0  0  0  0  0  0  0  0  0  0  0  0
   62.5190   33.8400   46.2950 O   0  0  0  0  0  0  0  0  0  0  0  0
   62.3170   34.3930   48.6350 O   0  0  0  0  0  0  0  0  0  0  0  0
   61.3080   31.2520   46.7590 C   0  0  0  0  0  0  0  0  0  0  0  0
   60.5750   30.0920   46.8770 C   0  0  0  0  0  0  0  0  0  0  0  0
   57.7240   27.2170   45.3670 N   0  0  0  0  0  0  0  0  0  0  0  0
   57.8410   28.1870   44.3140 C   0  0  0  0  0  0  0  0  0  0  0  0
   57.1280   29.4930   44.5550 C   0  0  2  0  0  0  0  0  0  0  0  0
   56.1120   29.7850   43.4500 C   0  0  0  0  0  0  0  0  0  0  0  0
   58.0700   30.6480   44.6520 C   0  0  0  0  0  0  0  0  0  0  0  0
   57.4560   31.9990   44.4800 C   0  0  0  0  0  0  0  0  0  0  0  0
   58.1710   32.9690   45.3940 C   0  0  0  0  0  0  0  0  0  0  0  0
   58.1650   32.7770   46.7620 C   0  0  0  0  0  0  0  0  0  0  0  0
   58.8110   33.6480   47.6290 C   0  0  0  0  0  0  0  0  0  0  0  0
   59.4660   34.7220   47.0810 C   0  0  0  0  0  0  0  0  0  0  0  0
   59.4860   34.9350   45.7180 C   0  0  0  0  0  0  0  0  0  0  0  0
   58.8370   34.0570   44.8750 C   0  0  0  0  0  0  0  0  0  0  0  0
   56.1506   20.3243   46.2798 H   0  0  0  0  0  0  0  0  0  0  0  0
   56.0093   18.8939   45.2023 H   0  0  0  0  0  0  0  0  0  0  0  0
   57.5153   19.8731   45.2023 H   0  0  0  0  0  0  0  0  0  0  0  0
   57.8327   21.2342   44.0416 H   0  0  0  0  0  0  0  0  0  0  0  0
   57.0585   20.2266   42.7338 H   0  0  0  0  0  0  0  0  0  0  0  0
   57.5993   22.7471   42.3229 H   0  0  0  0  0  0  0  0  0  0  0  0
   56.0363   21.9946   41.7630 H   0  0  0  0  0  0  0  0  0  0  0  0
   56.7719   23.5799   47.6165 H   0  0  0  0  0  0  0  0  0  0  0  0
   55.9710   22.3710   45.6790 H   0  0  0  0  0  0  0  0  0  0  0  0
   57.8460   26.0670   48.3850 H   0  0  0  0  0  0  0  0  0  0  0  0
   59.1369   28.1299   49.2434 H   0  0  0  0  0  0  0  0  0  0  0  0
   60.1575   27.3062   48.0913 H   0  0  0  0  0  0  0  0  0  0  0  0
   60.7548   29.6545   50.1849 H   0  0  0  0  0  0  0  0  0  0  0  0
   62.0810   31.7382   50.0347 H   0  0  0  0  0  0  0  0  0  0  0  0
   64.8790   33.0890   46.8890 H   0  0  0  0  0  0  0  0  0  0  0  0
   64.5890   32.0900   48.2770 H   0  0  0  0  0  0  0  0  0  0  0  0
   61.4654   31.7088   45.7708 H   0  0  0  0  0  0  0  0  0  0  0  0
   60.1506   29.6307   45.9730 H   0  0  0  0  0  0  0  0  0  0  0  0
   58.9096   28.4052   44.1710 H   0  0  0  0  0  0  0  0  0  0  0  0
   57.3596   27.7372   43.4331 H   0  0  0  0  0  0  0  0  0  0  0  0
   56.6102   29.3777   45.5186 H   0  0  0  0  0  0  0  0  0  0  0  0
   55.1482   30.0620   43.9020 H   0  0  0  0  0  0  0  0  0  0  0  0
   56.4766   30.6147   42.8266 H   0  0  0  0  0  0  0  0  0  0  0  0
   55.9804   28.8883   42.8266 H   0  0  0  0  0  0  0  0  0  0  0  0
   58.5438   30.6156   45.6442 H   0  0  0  0  0  0  0  0  0  0  0  0
   58.7765   30.5305   43.8171 H   0  0  0  0  0  0  0  0  0  0  0  0
   57.5634   32.3254   43.4350 H   0  0  0  0  0  0  0  0  0  0  0  0
   56.3857   31.9622   44.7314 H   0  0  0  0  0  0  0  0  0  0  0  0
   57.6326   31.9083   47.1767 H   0  0  0  0  0  0  0  0  0  0  0  0
   58.7982   33.4830   48.7165 H   0  0  0  0  0  0  0  0  0  0  0  0
   59.9869   35.4291   47.7433 H   0  0  0  0  0  0  0  0  0  0  0  0
   60.0188   35.8038   45.3041 H   0  0  0  0  0  0  0  0  0  0  0  0
   58.8514   34.2259   43.7881 H   0  0  0  0  0  0  0  0  0  0  0  0
  1  2  1  0
  2  3  1  0
  3  4  1  0
  4  5  1  0
  5  6  2  0
  6  7  1  0
  7  8  2  0
  8  9  1  0
  9 10  2  0
 10 11  1  0
  9 12  1  0
 12 13  1  0
 13 14  2  0
 14 15  1  0
 15 16  1  0
 16 17  2  0
 17 18  1  0
 18 19  2  0
 19 20  1  0
 20 21  1  0
 20 22  2  0
 20 23  2  0
 19 24  1  0
 24 25  2  0
 13 26  1  0
 26 27  1  0
 27 28  1  0
 28 29  1  0
 28 30  1  0
 30 31  1  0
 31 32  1  0
 32 33  2  0
 33 34  1  0
 34 35  2  0
 35 36  1  0
 36 37  2  0
 11  6  1  0
 25 16  1  0
 37 32  1  0
 26  8  1  0
  1 38  1  0
  1 39  1  0
  1 40  1  0
  3 41  1  0
  3 42  1  0
  4 43  1  0
  4 44  1  0
 10 45  1  0
 11 46  1  0
 12 47  1  0
 15 48  1  0
 15 49  1  0
 17 50  1  0
 18 51  1  0
 21 52  1  0
 21 53  1  0
 24 54  1  0
 25 55  1  0
 27 56  1  0
 27 57  1  0
 28 58  1  1
 29 59  1  0
 29 60  1  0
 29 61  1  0
 30 62  1  0
 30 63  1  0
 31 64  1  0
 31 65  1  0
 33 66  1  0
 34 67  1  0
 35 68  1  0
 36 69  1  0
 37 70  1  0
M  END
>  <smiles>  (90) 
COCCN=c1nc2c(c[nH]1)[nH]c(=NCc1ccc(S(N)(=O)=O)cc1)n2CC(C)CCc1ccccc1

>  <score_type>  (90) 
oracle

>  <origin>  (90) 
adg

>  <m_score__min__energy>  (90) 
-10.529999999999999

>  <m_primary>  (90) 
energy

$$$$
90:0
     RDKit          3D

 28 29  0  0  0  0  0  0  0  0999 V2000
   57.2540   28.7240   43.1130 O   0  0  0  0  0  0  0  0  0  0  0  0
   56.6790   29.3430   44.0480 C   0  0  0  0  0  0  0  0  0  0  0  0
   56.3140   30.7140   43.8540 N   0  0  0  0  0  0  0  0  0  0  0  0
   56.2660   31.6520   44.8690 O   0  0  0  0  0  0  0  0  0  0  0  0
   57.3560   32.4510   45.2390 C   0  0  0  0  0  0  0  0  0  0  0  0
   58.3750   31.8870   46.0180 C   0  0  0  0  0  0  0  0  0  0  0  0
   59.4790   32.6550   46.4000 C   0  0  0  0  0  0  0  0  0  0  0  0
   59.5660   33.9960   46.0160 C   0  0  0  0  0  0  0  0  0  0  0  0
   58.5450   34.5720   45.2550 C   0  0  0  0  0  0  0  0  0  0  0  0
   57.4400   33.8070   44.8730 C   0  0  0  0  0  0  0  0  0  0  0  0
   56.3300   28.6600   45.2610 N   0  0  0  0  0  0  0  0  0  0  0  0
   56.9270   27.4200   45.6750 C   0  0  0  0  0  0  0  0  0  0  0  0
   58.3250   27.2960   45.6670 C   0  0  0  0  0  0  0  0  0  0  0  0
   58.9320   26.0950   46.0450 C   0  0  0  0  0  0  0  0  0  0  0  0
   58.1460   25.0020   46.4210 C   0  0  0  0  0  0  0  0  0  0  0  0
   56.7540   25.1060   46.4070 C   0  0  0  0  0  0  0  0  0  0  0  0
   56.1400   26.3050   46.0300 C   0  0  0  0  0  0  0  0  0  0  0  0
   54.7860   26.3580   45.9660 F   0  0  0  0  0  0  0  0  0  0  0  0
   58.3060   30.8346   46.3306 H   0  0  0  0  0  0  0  0  0  0  0  0
   60.2801   32.2033   47.0035 H   0  0  0  0  0  0  0  0  0  0  0  0
   60.4377   34.5978   46.3126 H   0  0  0  0  0  0  0  0  0  0  0  0
   58.6114   35.6286   44.9565 H   0  0  0  0  0  0  0  0  0  0  0  0
   56.6327   34.2666   44.2839 H   0  0  0  0  0  0  0  0  0  0  0  0
   55.5150   29.0200   45.8070 H   0  0  0  0  0  0  0  0  0  0  0  0
   58.9473   28.1499   45.3611 H   0  0  0  0  0  0  0  0  0  0  0  0
   60.0287   26.0099   46.0466 H   0  0  0  0  0  0  0  0  0  0  0  0
   58.6242   24.0601   46.7279 H   0  0  0  0  0  0  0  0  0  0  0  0
   56.1373   24.2414   46.6937 H   0  0  0  0  0  0  0  0  0  0  0  0
  1  2  2  0
  2  3  1  0
  3  4  1  0
  4  5  1  0
  5  6  2  0
  6  7  1  0
  7  8  2  0
  8  9  1  0
  9 10  2  0
  2 11  1  0
 11 12  1  0
 12 13  2  0
 13 14  1  0
 14 15  2  0
 15 16  1  0
 16 17  2  0
 17 18  1  0
 10  5  1  0
 17 12  1  0
  6 19  1  0
  7 20  1  0
  8 21  1  0
  9 22  1  0
 10 23  1  0
 11 24  1  0
 13 25  1  0
 14 26  1  0
 15 27  1  0
 16 28  1  0
M  CHG  1   3  -1
M  END
>  <UniqueID>  (91) 
86

>  <SMILES>  (91) 
O=C([N-]Oc1ccccc1)Nc1ccccc1F

>  <Energy>  (91) 
39.18586582982704

>  <Genealogy>  (91) 
O=C([N-]Oc1ccccc1)Nc1ccccc1F (protonated)
O=C([N-]Oc1ccccc1)Nc1ccccc1F (3D coordinates assigned)
O=C([N-]Oc1ccccc1)Nc1ccccc1F (optimized conformer: 39.18586582982704 kcal/mol)

>  <smiles>  (91) 
O=C(NOc1ccccc1)Nc1ccccc1F

>  <score_type>  (91) 
oracle

>  <origin>  (91) 
adg

>  <m_score__min__energy>  (91) 
-8.7300000000000004

>  <m_primary>  (91) 
energy

$$$$
91:0
     RDKit          3D

 54 57  0  0  0  0  0  0  0  0999 V2000
   55.3150   29.3410   44.8840 N   0  0  0  0  0  0  0  0  0  0  0  0
   57.0270   29.5760   44.8140 S   0  0  0  0  0  0  0  0  0  0  0  0
   57.4620   29.4230   43.3830 O   0  0  0  0  0  0  0  0  0  0  0  0
   57.3690   30.9640   45.2820 O   0  0  0  0  0  0  0  0  0  0  0  0
   57.8570   28.3810   45.8240 C   0  0  0  0  0  0  0  0  0  0  0  0
   57.5290   27.0240   45.6570 C   0  0  0  0  0  0  0  0  0  0  0  0
   58.0920   26.0480   46.4810 C   0  0  0  0  0  0  0  0  0  0  0  0
   58.9840   26.4120   47.4870 C   0  0  0  0  0  0  0  0  0  0  0  0
   59.3380   27.7520   47.6550 C   0  0  0  0  0  0  0  0  0  0  0  0
   58.7970   28.7470   46.8220 C   0  0  0  0  0  0  0  0  0  0  0  0
   59.2400   30.1430   47.0240 C   0  0  0  0  0  0  0  0  0  0  0  0
   60.4110   30.6180   46.4120 C   0  0  0  0  0  0  0  0  0  0  0  0
   60.8370   31.9310   46.6280 C   0  0  0  0  0  0  0  0  0  0  0  0
   60.1080   32.7830   47.4700 C   0  0  0  0  0  0  0  0  0  0  0  0
   60.6190   34.1640   47.7650 C   0  0  0  0  0  0  0  0  0  0  0  0
   61.9320   34.0700   48.4000 N   0  0  0  0  0  0  0  0  0  0  0  0
   63.1360   33.7850   47.6750 C   0  0  0  0  0  0  0  0  0  0  0  0
   63.1410   33.7910   46.4140 O   0  0  0  0  0  0  0  0  0  0  0  0
   64.4020   33.4630   48.4160 C   0  0  0  0  0  0  0  0  0  0  0  0
   64.1990   32.3090   49.4040 C   0  0  0  0  0  0  0  0  0  0  0  0
   62.9380   32.4430   50.1310 N   0  0  0  0  0  0  0  0  0  0  0  0
   61.9000   31.5890   50.1160 C   0  0  0  0  0  0  0  0  0  0  0  0
   60.9360   32.1490   50.9290 C   0  0  0  0  0  0  0  0  0  0  0  0
   59.6010   31.6000   51.2220 C   0  0  0  0  0  0  0  0  0  0  0  0
   58.5390   32.4420   51.5890 C   0  0  0  0  0  0  0  0  0  0  0  0
   57.2800   31.8920   51.8340 C   0  0  0  0  0  0  0  0  0  0  0  0
   57.0880   30.5150   51.7080 C   0  0  0  0  0  0  0  0  0  0  0  0
   55.8370   29.9560   51.9410 O   0  0  0  0  0  0  0  0  0  0  0  0
   58.1670   29.7040   51.3510 C   0  0  0  0  0  0  0  0  0  0  0  0
   59.3850   30.2590   51.1160 N   0  0  0  0  0  0  0  0  0  0  0  0
   61.4120   33.3180   51.4090 N   0  0  0  0  0  0  0  0  0  0  0  0
   62.6300   33.4690   50.9090 N   0  0  0  0  0  0  0  0  0  0  0  0
   58.9540   32.3010   48.1060 C   0  0  0  0  0  0  0  0  0  0  0  0
   58.5210   30.9910   47.8810 C   0  0  0  0  0  0  0  0  0  0  0  0
   55.1350   28.6250   45.6230 H   0  0  0  0  0  0  0  0  0  0  0  0
   56.8212   26.7283   44.8686 H   0  0  0  0  0  0  0  0  0  0  0  0
   57.8307   24.9894   46.3356 H   0  0  0  0  0  0  0  0  0  0  0  0
   59.4096   25.6436   48.1492 H   0  0  0  0  0  0  0  0  0  0  0  0
   60.0476   28.0322   48.4474 H   0  0  0  0  0  0  0  0  0  0  0  0
   60.9958   29.9532   45.7593 H   0  0  0  0  0  0  0  0  0  0  0  0
   61.7491   32.2983   46.1349 H   0  0  0  0  0  0  0  0  0  0  0  0
   60.7048   34.7318   46.8268 H   0  0  0  0  0  0  0  0  0  0  0  0
   59.9198   34.6781   48.4409 H   0  0  0  0  0  0  0  0  0  0  0  0
   61.9840   34.1980   49.4370 H   0  0  0  0  0  0  0  0  0  0  0  0
   65.1782   33.1792   47.6901 H   0  0  0  0  0  0  0  0  0  0  0  0
   64.7039   34.3545   48.9853 H   0  0  0  0  0  0  0  0  0  0  0  0
   64.1924   31.3596   48.8485 H   0  0  0  0  0  0  0  0  0  0  0  0
   65.0222   32.3297   50.1333 H   0  0  0  0  0  0  0  0  0  0  0  0
   61.8328   30.6379   49.5675 H   0  0  0  0  0  0  0  0  0  0  0  0
   58.6981   33.5264   51.6826 H   0  0  0  0  0  0  0  0  0  0  0  0
   56.4415   32.5415   52.1255 H   0  0  0  0  0  0  0  0  0  0  0  0
   58.0312   28.6162   51.2600 H   0  0  0  0  0  0  0  0  0  0  0  0
   58.3879   32.9564   48.7842 H   0  0  0  0  0  0  0  0  0  0  0  0
   57.6117   30.6226   48.3784 H   0  0  0  0  0  0  0  0  0  0  0  0
  1  2  1  0
  2  3  2  0
  2  4  2  0
  2  5  1  0
  5  6  2  0
  6  7  1  0
  7  8  2  0
  8  9  1  0
  9 10  2  0
 10 11  1  0
 11 12  2  0
 12 13  1  0
 13 14  2  0
 14 15  1  0
 15 16  1  0
 16 17  1  0
 17 18  2  0
 17 19  1  0
 19 20  1  0
 20 21  1  0
 21 22  1  0
 22 23  2  0
 23 24  1  0
 24 25  2  0
 25 26  1  0
 26 27  2  0
 27 28  1  0
 27 29  1  0
 29 30  2  0
 23 31  1  0
 31 32  2  0
 14 33  1  0
 33 34  2  0
 10  5  1  0
 34 11  1  0
 32 21  1  0
 30 24  1  0
  1 35  1  0
  6 36  1  0
  7 37  1  0
  8 38  1  0
  9 39  1  0
 12 40  1  0
 13 41  1  0
 15 42  1  0
 15 43  1  0
 16 44  1  0
 19 45  1  0
 19 46  1  0
 20 47  1  0
 20 48  1  0
 22 49  1  0
 25 50  1  0
 26 51  1  0
 29 52  1  0
 33 53  1  0
 34 54  1  0
M  CHG  2   1  -1  28  -1
M  END
>  <UniqueID>  (92) 
87

>  <SMILES>  (92) 
[NH-]S(=O)(=O)c1ccccc1-c1ccc(CNC(=O)CCn2cc(-c3ccc([O-])cn3)nn2)cc1

>  <Energy>  (92) 
89.74095524538201

>  <Genealogy>  (92) 
[NH-]S(=O)(=O)c1ccccc1-c1ccc(CNC(=O)CCn2cc(-c3ccc([O-])cn3)nn2)cc1 (protonated)
[NH-]S(=O)(=O)c1ccccc1-c1ccc(CNC(=O)CCn2cc(-c3ccc([O-])cn3)nn2)cc1 (3D coordinates assigned)
[NH-]S(=O)(=O)c1ccccc1-c1ccc(CNC(=O)CCn2cc(-c3ccc([O-])cn3)nn2)cc1 (optimized conformer: 89.74095524538201 kcal/mol)

>  <smiles>  (92) 
NS(=O)(=O)c1ccccc1-c1ccc(CNC(=O)CCn2cc(-c3ccc(O)cn3)nn2)cc1

>  <score_type>  (92) 
oracle

>  <origin>  (92) 
adg

>  <m_score__min__energy>  (92) 
-16.399999999999999

>  <m_primary>  (92) 
energy

$$$$
92:0
     RDKit          3D

 47 48  0  0  0  0  0  0  0  0999 V2000
   60.2300   27.9870   48.6220 C   0  0  0  0  0  0  0  0  0  0  0  0
   60.0040   27.1390   47.4990 O   0  0  0  0  0  0  0  0  0  0  0  0
   58.7370   26.8160   46.9850 C   0  0  0  0  0  0  0  0  0  0  0  0
   58.2110   25.5150   47.0740 C   0  0  0  0  0  0  0  0  0  0  0  0
   56.9640   25.2130   46.5180 C   0  0  0  0  0  0  0  0  0  0  0  0
   56.4380   23.8360   46.6000 C   0  0  0  0  0  0  0  0  0  0  0  0
   57.2190   22.9010   46.9180 O   0  0  0  0  0  0  0  0  0  0  0  0
   55.0630   23.5270   46.3330 N   0  0  0  0  0  0  0  0  0  0  0  0
   54.3670   23.7450   45.0660 C   0  0  0  0  0  0  0  0  0  0  0  0
   55.2350   23.3150   43.8840 C   0  0  0  0  0  0  0  0  0  0  0  0
   55.8840   22.1080   44.1730 O   0  0  0  0  0  0  0  0  0  0  0  0
   56.2080   26.2320   45.9290 C   0  0  0  0  0  0  0  0  0  0  0  0
   56.6970   27.5490   45.8610 C   0  0  0  0  0  0  0  0  0  0  0  0
   55.9140   28.5780   45.2400 N   0  0  0  0  0  0  0  0  0  0  0  0
   56.3800   29.6660   44.4290 C   0  0  0  0  0  0  0  0  0  0  0  0
   56.8650   29.4510   43.2880 O   0  0  0  0  0  0  0  0  0  0  0  0
   56.1920   31.0180   44.8590 N   0  0  0  0  0  0  0  0  0  0  0  0
   57.2320   31.9840   45.0650 C   0  0  0  0  0  0  0  0  0  0  0  0
   57.7680   32.6450   43.9540 C   0  0  0  0  0  0  0  0  0  0  0  0
   58.7880   33.5840   44.1150 C   0  0  0  0  0  0  0  0  0  0  0  0
   59.2860   33.8670   45.3890 C   0  0  0  0  0  0  0  0  0  0  0  0
   58.7670   33.2100   46.5180 C   0  0  0  0  0  0  0  0  0  0  0  0
   59.3520   33.4660   47.8830 C   0  0  0  0  0  0  0  0  0  0  0  0
   58.6100   32.7880   48.8320 F   0  0  0  0  0  0  0  0  0  0  0  0
   59.3320   34.8190   48.1800 F   0  0  0  0  0  0  0  0  0  0  0  0
   60.6650   33.0310   47.9400 F   0  0  0  0  0  0  0  0  0  0  0  0
   57.7620   32.2420   46.3420 C   0  0  0  0  0  0  0  0  0  0  0  0
   57.9950   27.8350   46.3640 C   0  0  0  0  0  0  0  0  0  0  0  0
   58.6080   29.1020   46.2910 O   0  0  0  0  0  0  0  0  0  0  0  0
   59.6470   29.5020   45.4030 C   0  0  0  0  0  0  0  0  0  0  0  0
   60.0777   27.4156   49.5495 H   0  0  0  0  0  0  0  0  0  0  0  0
   61.2612   28.3687   48.5916 H   0  0  0  0  0  0  0  0  0  0  0  0
   59.5255   28.8313   48.5916 H   0  0  0  0  0  0  0  0  0  0  0  0
   58.7852   24.7283   47.5852 H   0  0  0  0  0  0  0  0  0  0  0  0
   53.4364   23.1586   45.0611 H   0  0  0  0  0  0  0  0  0  0  0  0
   54.1465   24.8181   44.9671 H   0  0  0  0  0  0  0  0  0  0  0  0
   54.5994   23.1820   42.9961 H   0  0  0  0  0  0  0  0  0  0  0  0
   55.9905   24.0914   43.6929 H   0  0  0  0  0  0  0  0  0  0  0  0
   56.2290   22.1970   45.0990 H   0  0  0  0  0  0  0  0  0  0  0  0
   55.2165   25.9999   45.5129 H   0  0  0  0  0  0  0  0  0  0  0  0
   57.3831   32.4232   42.9477 H   0  0  0  0  0  0  0  0  0  0  0  0
   59.2006   34.1023   43.2368 H   0  0  0  0  0  0  0  0  0  0  0  0
   60.0894   34.6087   45.5095 H   0  0  0  0  0  0  0  0  0  0  0  0
   57.3870   31.6815   47.2111 H   0  0  0  0  0  0  0  0  0  0  0  0
   60.5180   29.8373   45.9851 H   0  0  0  0  0  0  0  0  0  0  0  0
   59.9355   28.6506   44.7690 H   0  0  0  0  0  0  0  0  0  0  0  0
   59.2901   30.3270   44.7690 H   0  0  0  0  0  0  0  0  0  0  0  0
  1  2  1  0
  2  3  1  0
  3  4  2  0
  4  5  1  0
  5  6  1  0
  6  7  2  0
  6  8  1  0
  8  9  1  0
  9 10  1  0
 10 11  1  0
  5 12  2  0
 12 13  1  0
 13 14  1  0
 14 15  1  0
 15 16  2  0
 15 17  1  0
 17 18  1  0
 18 19  2  0
 19 20  1  0
 20 21  2  0
 21 22  1  0
 22 23  1  0
 23 24  1  0
 23 25  1  0
 23 26  1  0
 22 27  2  0
 13 28  2  0
 28 29  1  0
 29 30  1  0
 28  3  1  0
 27 18  1  0
  1 31  1  0
  1 32  1  0
  1 33  1  0
  4 34  1  0
  9 35  1  0
  9 36  1  0
 10 37  1  0
 10 38  1  0
 11 39  1  0
 12 40  1  0
 19 41  1  0
 20 42  1  0
 21 43  1  0
 27 44  1  0
 30 45  1  0
 30 46  1  0
 30 47  1  0
M  CHG  3   8  -1  14  -1  17  -1
M  END
>  <UniqueID>  (93) 
88

>  <SMILES>  (93) 
COc1cc(C(=O)[N-]CCO)cc([N-]C(=O)[N-]c2cccc(C(F)(F)F)c2)c1OC

>  <Energy>  (93) 
57.909139202510026

>  <Genealogy>  (93) 
COc1cc(C(=O)[N-]CCO)cc([N-]C(=O)[N-]c2cccc(C(F)(F)F)c2)c1OC (protonated)
COc1cc(C(=O)[N-]CCO)cc([N-]C(=O)[N-]c2cccc(C(F)(F)F)c2)c1OC (3D coordinates assigned)
COc1cc(C(=O)[N-]CCO)cc([N-]C(=O)[N-]c2cccc(C(F)(F)F)c2)c1OC (optimized conformer: 57.909139202510026 kcal/mol)

>  <smiles>  (93) 
COc1cc(C(=O)NCCO)cc(NC(=O)Nc2cccc(C(F)(F)F)c2)c1OC

>  <score_type>  (93) 
oracle

>  <origin>  (93) 
adg

>  <m_score__min__energy>  (93) 
-11.77

>  <m_primary>  (93) 
energy

$$$$
93:0
     RDKit          3D

 34 35  0  0  0  0  0  0  0  0999 V2000
   63.8080   33.7270   49.5510 C   0  0  0  0  0  0  0  0  0  0  0  0
   62.4810   33.6140   48.9460 C   0  0  0  0  0  0  0  0  0  0  0  0
   61.3680   33.6550   49.7360 C   0  0  0  0  0  0  0  0  0  0  0  0
   60.1230   33.5490   49.1580 C   0  0  0  0  0  0  0  0  0  0  0  0
   59.9070   33.4000   47.8040 C   0  0  0  0  0  0  0  0  0  0  0  0
   58.7830   33.2940   47.1670 O   0  0  0  0  0  0  0  0  0  0  0  0
   57.6910   33.8460   46.6460 C   0  0  0  0  0  0  0  0  0  0  0  0
   57.6080   34.1610   45.1850 C   0  0  0  0  0  0  0  0  0  0  0  0
   58.3170   33.0080   44.0470 S   0  0  0  0  0  0  0  0  0  0  0  0
   57.3380   31.5700   43.7610 C   0  0  0  0  0  0  0  0  0  0  0  0
   56.9470   30.7300   44.7660 N   0  0  0  0  0  0  0  0  0  0  0  0
   56.2180   29.7280   44.2590 C   0  0  0  0  0  0  0  0  0  0  0  0
   55.6980   28.7600   44.9600 N   0  0  0  0  0  0  0  0  0  0  0  0
   56.1490   29.9350   42.9340 N   0  0  0  0  0  0  0  0  0  0  0  0
   56.8200   31.0330   42.6560 N   0  0  0  0  0  0  0  0  0  0  0  0
   61.1030   33.3640   47.0360 C   0  0  0  0  0  0  0  0  0  0  0  0
   62.3390   33.4680   47.5920 C   0  0  0  0  0  0  0  0  0  0  0  0
   63.5730   33.4290   46.7680 C   0  0  0  0  0  0  0  0  0  0  0  0
   63.7132   33.7189   50.6469 H   0  0  0  0  0  0  0  0  0  0  0  0
   64.4305   32.8786   49.2305 H   0  0  0  0  0  0  0  0  0  0  0  0
   64.2781   34.6684   49.2305 H   0  0  0  0  0  0  0  0  0  0  0  0
   61.4654   33.7718   50.8254 H   0  0  0  0  0  0  0  0  0  0  0  0
   59.2441   33.5855   49.8185 H   0  0  0  0  0  0  0  0  0  0  0  0
   56.8590   33.1609   46.8659 H   0  0  0  0  0  0  0  0  0  0  0  0
   57.6798   34.8436   47.1094 H   0  0  0  0  0  0  0  0  0  0  0  0
   56.5421   34.2582   44.9311 H   0  0  0  0  0  0  0  0  0  0  0  0
   58.2117   35.0727   45.0652 H   0  0  0  0  0  0  0  0  0  0  0  0
   54.7810   28.9600   45.4280 H   0  0  0  0  0  0  0  0  0  0  0  0
   55.6430   29.3190   42.2450 H   0  0  0  0  0  0  0  0  0  0  0  0
   56.9200   31.4140   41.7070 H   0  0  0  0  0  0  0  0  0  0  0  0
   61.0247   33.2470   45.9450 H   0  0  0  0  0  0  0  0  0  0  0  0
   64.4533   33.4012   47.4271 H   0  0  0  0  0  0  0  0  0  0  0  0
   63.5617   32.5308   46.1331 H   0  0  0  0  0  0  0  0  0  0  0  0
   63.6185   34.3262   46.1331 H   0  0  0  0  0  0  0  0  0  0  0  0
  1  2  1  0
  2  3  2  0
  3  4  1  0
  4  5  2  0
  5  6  1  0
  6  7  1  0
  7  8  1  0
  8  9  1  0
  9 10  1  0
 10 11  2  0
 11 12  1  0
 12 13  2  3
 12 14  1  0
 14 15  1  0
  5 16  1  0
 16 17  2  0
 17 18  1  0
 17  2  1  0
 15 10  1  0
  1 19  1  0
  1 20  1  0
  1 21  1  0
  3 22  1  0
  4 23  1  0
  7 24  1  0
  7 25  1  0
  8 26  1  0
  8 27  1  0
 13 28  1  0
 14 29  1  0
 15 30  1  0
 16 31  1  0
 18 32  1  0
 18 33  1  0
 18 34  1  0
M  END
>  <smiles>  (94) 
Cc1ccc(OCCSc2nc(=N)[nH][nH]2)cc1C

>  <score_type>  (94) 
oracle

>  <origin>  (94) 
adg

>  <m_score__min__energy>  (94) 
-6.9299999999999997

>  <m_primary>  (94) 
energy

$$$$
94:0
     RDKit          3D

 46 49  0  0  0  0  0  0  0  0999 V2000
   59.9250   28.2640   47.0300 C   0  0  0  0  0  0  0  0  0  0  0  0
   58.7460   29.0620   47.0620 O   0  0  0  0  0  0  0  0  0  0  0  0
   58.6340   30.3380   46.4870 C   0  0  0  0  0  0  0  0  0  0  0  0
   59.3930   31.4350   46.9620 C   0  0  0  0  0  0  0  0  0  0  0  0
   59.2380   32.6690   46.3310 C   0  0  0  0  0  0  0  0  0  0  0  0
   59.7930   33.9120   46.5760 C   0  0  0  0  0  0  0  0  0  0  0  0
   60.7450   34.2690   47.5860 N   0  0  0  0  0  0  0  0  0  0  0  0
   62.0600   33.6960   47.6550 C   0  0  0  0  0  0  0  0  0  0  0  0
   62.5680   33.1800   46.6200 O   0  0  0  0  0  0  0  0  0  0  0  0
   62.8460   33.7420   48.9110 C   0  0  0  0  0  0  0  0  0  0  0  0
   62.2690   34.2090   50.1080 C   0  0  0  0  0  0  0  0  0  0  0  0
   63.0170   34.2400   51.2880 C   0  0  0  0  0  0  0  0  0  0  0  0
   64.3420   33.8010   51.2920 C   0  0  0  0  0  0  0  0  0  0  0  0
   64.9240   33.3260   50.1140 C   0  0  0  0  0  0  0  0  0  0  0  0
   66.7350   32.7210   50.1220 Br  0  0  0  0  0  0  0  0  0  0  0  0
   64.1810   33.2930   48.9290 C   0  0  0  0  0  0  0  0  0  0  0  0
   59.1820   34.7950   45.6980 C   0  0  0  0  0  0  0  0  0  0  0  0
   58.3030   34.1320   44.9130 N   0  0  0  0  0  0  0  0  0  0  0  0
   58.3440   32.8460   45.3070 C   0  0  0  0  0  0  0  0  0  0  0  0
   57.5760   31.7950   44.8160 C   0  0  0  0  0  0  0  0  0  0  0  0
   57.7270   30.5240   45.4070 C   0  0  0  0  0  0  0  0  0  0  0  0
   56.7530   29.1710   44.8280 S   0  0  0  0  0  0  0  0  0  0  0  0
   55.3200   29.5860   44.6400 O   0  0  0  0  0  0  0  0  0  0  0  0
   57.3010   28.7060   43.5100 O   0  0  0  0  0  0  0  0  0  0  0  0
   56.8180   27.8640   45.9690 N   0  0  0  0  0  0  0  0  0  0  0  0
   56.4600   26.6470   45.6930 C   0  0  0  0  0  0  0  0  0  0  0  0
   55.1990   26.2090   45.9630 N   0  0  0  0  0  0  0  0  0  0  0  0
   54.8250   24.9340   45.6810 C   0  0  0  0  0  0  0  0  0  0  0  0
   55.7390   24.0530   45.1050 C   0  0  0  0  0  0  0  0  0  0  0  0
   57.0250   24.5160   44.8330 C   0  0  0  0  0  0  0  0  0  0  0  0
   57.3610   25.7990   45.1300 N   0  0  0  0  0  0  0  0  0  0  0  0
   60.2479   28.0455   48.0586 H   0  0  0  0  0  0  0  0  0  0  0  0
   59.7155   27.3213   46.5033 H   0  0  0  0  0  0  0  0  0  0  0  0
   60.7224   28.8088   46.5033 H   0  0  0  0  0  0  0  0  0  0  0  0
   60.0871   31.3169   47.8071 H   0  0  0  0  0  0  0  0  0  0  0  0
   60.5290   35.0960   48.1860 H   0  0  0  0  0  0  0  0  0  0  0  0
   61.2236   34.5513   50.1140 H   0  0  0  0  0  0  0  0  0  0  0  0
   62.5600   34.6117   52.2170 H   0  0  0  0  0  0  0  0  0  0  0  0
   64.9279   33.8290   52.2225 H   0  0  0  0  0  0  0  0  0  0  0  0
   64.6424   32.9139   48.0052 H   0  0  0  0  0  0  0  0  0  0  0  0
   59.3829   35.8753   45.6477 H   0  0  0  0  0  0  0  0  0  0  0  0
   57.7000   34.5440   44.1660 H   0  0  0  0  0  0  0  0  0  0  0  0
   56.8691   31.9517   43.9879 H   0  0  0  0  0  0  0  0  0  0  0  0
   53.8025   24.5972   45.9068 H   0  0  0  0  0  0  0  0  0  0  0  0
   55.4520   23.0172   44.8708 H   0  0  0  0  0  0  0  0  0  0  0  0
   57.7675   23.8437   44.3783 H   0  0  0  0  0  0  0  0  0  0  0  0
  1  2  1  0
  2  3  1  0
  3  4  2  0
  4  5  1  0
  5  6  1  0
  6  7  1  0
  7  8  1  0
  8  9  2  0
  8 10  1  0
 10 11  2  0
 11 12  1  0
 12 13  2  0
 13 14  1  0
 14 15  1  0
 14 16  2  0
  6 17  2  0
 17 18  1  0
 18 19  1  0
 19 20  1  0
 20 21  2  0
 21 22  1  0
 22 23  2  0
 22 24  2  0
 22 25  1  0
 25 26  2  3
 26 27  1  0
 27 28  2  0
 28 29  1  0
 29 30  2  0
 30 31  1  0
 21  3  1  0
 31 26  1  0
 19  5  2  0
 16 10  1  0
  1 32  1  0
  1 33  1  0
  1 34  1  0
  4 35  1  0
  7 36  1  0
 11 37  1  0
 12 38  1  0
 13 39  1  0
 16 40  1  0
 17 41  1  0
 18 42  1  0
 20 43  1  0
 28 44  1  0
 29 45  1  0
 30 46  1  0
M  CHG  1  31  -1
M  END
>  <UniqueID>  (95) 
89

>  <SMILES>  (95) 
COc1cc2c(NC(=O)c3cccc(Br)c3)c[nH]c2cc1S(=O)(=O)N=c1nccc[n-]1

>  <Energy>  (95) 
93.55975607826142

>  <Genealogy>  (95) 
COc1cc2c(NC(=O)c3cccc(Br)c3)c[nH]c2cc1S(=O)(=O)N=c1nccc[n-]1 (protonated)
COc1cc2c(NC(=O)c3cccc(Br)c3)c[nH]c2cc1S(=O)(=O)N=c1nccc[n-]1 (3D coordinates assigned)
COc1cc2c(NC(=O)c3cccc(Br)c3)c[nH]c2cc1S(=O)(=O)N=c1nccc[n-]1 (optimized conformer: 93.55975607826142 kcal/mol)

>  <smiles>  (95) 
COc1cc2c(NC(=O)c3cccc(Br)c3)c[nH]c2cc1S(=O)(=O)N=c1nccc[nH]1

>  <score_type>  (95) 
oracle

>  <origin>  (95) 
adg

>  <m_score__min__energy>  (95) 
-11.050000000000001

>  <m_primary>  (95) 
energy

$$$$
95:0
     RDKit          3D

 49 51  0  0  0  0  0  0  0  0999 V2000
   56.9250   29.3180   43.0020 C   0  0  0  0  0  0  0  0  0  0  0  0
   56.2180   30.0220   44.1100 C   0  0  0  0  0  0  0  0  0  0  0  0
   55.4990   29.3620   44.9070 O   0  0  0  0  0  0  0  0  0  0  0  0
   56.4570   31.4190   44.3220 N   0  0  0  0  0  0  0  0  0  0  0  0
   57.5210   31.9950   45.0950 C   0  0  0  0  0  0  0  0  0  0  0  0
   58.2930   33.0090   44.5190 C   0  0  0  0  0  0  0  0  0  0  0  0
   59.3200   33.6130   45.2450 C   0  0  0  0  0  0  0  0  0  0  0  0
   59.5810   33.2150   46.5570 C   0  0  0  0  0  0  0  0  0  0  0  0
   58.8100   32.2060   47.1620 C   0  0  0  0  0  0  0  0  0  0  0  0
   59.0810   31.8040   48.5640 C   0  0  0  0  0  0  0  0  0  0  0  0
   59.6020   32.6350   49.3570 O   0  0  0  0  0  0  0  0  0  0  0  0
   58.7960   30.4690   49.0170 N   0  0  0  0  0  0  0  0  0  0  0  0
   58.7500   30.1190   50.4120 C   0  0  0  0  0  0  0  0  0  0  0  0
   57.7950   30.7240   51.2510 C   0  0  0  0  0  0  0  0  0  0  0  0
   57.7590   30.4300   52.6150 C   0  0  0  0  0  0  0  0  0  0  0  0
   58.6700   29.5280   53.1600 C   0  0  0  0  0  0  0  0  0  0  0  0
   59.6170   28.9100   52.3430 C   0  0  0  0  0  0  0  0  0  0  0  0
   59.6640   29.1870   50.9660 C   0  0  0  0  0  0  0  0  0  0  0  0
   60.7050   28.5270   50.1470 C   0  0  0  0  0  0  0  0  0  0  0  0
   61.8790   28.9790   50.1480 O   0  0  0  0  0  0  0  0  0  0  0  0
   60.3830   27.4460   49.2600 N   0  0  0  0  0  0  0  0  0  0  0  0
   59.7250   27.5630   47.9900 C   0  0  0  0  0  0  0  0  0  0  0  0
   60.1110   28.5300   47.0460 C   0  0  0  0  0  0  0  0  0  0  0  0
   59.4370   28.6290   45.8260 C   0  0  0  0  0  0  0  0  0  0  0  0
   58.3670   27.7760   45.5440 C   0  0  0  0  0  0  0  0  0  0  0  0
   57.9610   26.8220   46.4870 C   0  0  0  0  0  0  0  0  0  0  0  0
   56.5960   25.7660   46.1430 S   0  0  0  0  0  0  0  0  0  0  0  0
   55.1600   26.7160   45.9990 N   0  0  0  0  0  0  0  0  0  0  0  0
   56.8390   25.0230   44.8590 O   0  0  0  0  0  0  0  0  0  0  0  0
   56.4290   24.7680   47.2550 O   0  0  0  0  0  0  0  0  0  0  0  0
   58.6340   26.7300   47.7140 C   0  0  0  0  0  0  0  0  0  0  0  0
   57.7670   31.6120   46.4270 C   0  0  0  0  0  0  0  0  0  0  0  0
   57.6450   28.6011   43.4235 H   0  0  0  0  0  0  0  0  0  0  0  0
   56.1921   28.7803   42.3825 H   0  0  0  0  0  0  0  0  0  0  0  0
   57.4595   30.0532   42.3825 H   0  0  0  0  0  0  0  0  0  0  0  0
   58.0893   33.3322   43.4875 H   0  0  0  0  0  0  0  0  0  0  0  0
   59.9260   34.4056   44.7818 H   0  0  0  0  0  0  0  0  0  0  0  0
   60.3949   33.6934   47.1216 H   0  0  0  0  0  0  0  0  0  0  0  0
   58.7050   29.7160   48.3030 H   0  0  0  0  0  0  0  0  0  0  0  0
   57.0704   31.4351   50.8276 H   0  0  0  0  0  0  0  0  0  0  0  0
   57.0099   30.9114   53.2608 H   0  0  0  0  0  0  0  0  0  0  0  0
   58.6426   29.3027   54.2363 H   0  0  0  0  0  0  0  0  0  0  0  0
   60.3335   28.1993   52.7806 H   0  0  0  0  0  0  0  0  0  0  0  0
   60.9460   29.2108   47.2682 H   0  0  0  0  0  0  0  0  0  0  0  0
   59.7496   29.3803   45.0858 H   0  0  0  0  0  0  0  0  0  0  0  0
   57.8424   27.8533   44.5803 H   0  0  0  0  0  0  0  0  0  0  0  0
   55.2040   27.1970   45.0730 H   0  0  0  0  0  0  0  0  0  0  0  0
   58.3023   25.9980   48.4651 H   0  0  0  0  0  0  0  0  0  0  0  0
   57.1385   30.8416   46.8976 H   0  0  0  0  0  0  0  0  0  0  0  0
  1  2  1  0
  2  3  2  0
  2  4  1  0
  4  5  1  0
  5  6  2  0
  6  7  1  0
  7  8  2  0
  8  9  1  0
  9 10  1  0
 10 11  2  0
 10 12  1  0
 12 13  1  0
 13 14  2  0
 14 15  1  0
 15 16  2  0
 16 17  1  0
 17 18  2  0
 18 19  1  0
 19 20  2  0
 19 21  1  0
 21 22  1  0
 22 23  2  0
 23 24  1  0
 24 25  2  0
 25 26  1  0
 26 27  1  0
 27 28  1  0
 27 29  2  0
 27 30  2  0
 26 31  2  0
  9 32  2  0
 32  5  1  0
 18 13  1  0
 31 22  1  0
  1 33  1  0
  1 34  1  0
  1 35  1  0
  6 36  1  0
  7 37  1  0
  8 38  1  0
 12 39  1  0
 14 40  1  0
 15 41  1  0
 16 42  1  0
 17 43  1  0
 23 44  1  0
 24 45  1  0
 25 46  1  0
 28 47  1  0
 31 48  1  0
 32 49  1  0
M  CHG  3   4  -1  21  -1  28  -1
M  END
>  <UniqueID>  (96) 
90

>  <SMILES>  (96) 
CC(=O)[N-]c1cccc(C(=O)Nc2ccccc2C(=O)[N-]c2cccc(S([NH-])(=O)=O)c2)c1

>  <Energy>  (96) 
68.87821060210808

>  <Genealogy>  (96) 
CC(=O)[N-]c1cccc(C(=O)Nc2ccccc2C(=O)[N-]c2cccc(S([NH-])(=O)=O)c2)c1 (protonated)
CC(=O)[N-]c1cccc(C(=O)Nc2ccccc2C(=O)[N-]c2cccc(S([NH-])(=O)=O)c2)c1 (3D coordinates assigned)
CC(=O)[N-]c1cccc(C(=O)Nc2ccccc2C(=O)[N-]c2cccc(S([NH-])(=O)=O)c2)c1 (optimized conformer: 68.87821060210808 kcal/mol)

>  <smiles>  (96) 
CC(=O)Nc1cccc(C(=O)Nc2ccccc2C(=O)Nc2cccc(S(N)(=O)=O)c2)c1

>  <score_type>  (96) 
oracle

>  <origin>  (96) 
adg

>  <m_score__min__energy>  (96) 
-15.140000000000001

>  <m_primary>  (96) 
energy

$$$$
