0:0
     RDKit          3D

 46 48  0  0  0  0  0  0  0  0999 V2000
   61.6630   34.1840   49.3710 C   0  0  0  0  0  0  0  0  0  0  0  0
   60.6870   34.8740   48.5940 O   0  0  0  0  0  0  0  0  0  0  0  0
   59.8710   34.2660   47.6280 C   0  0  0  0  0  0  0  0  0  0  0  0
   59.2740   33.0390   47.9390 C   0  0  0  0  0  0  0  0  0  0  0  0
   58.4470   32.3980   47.0130 C   0  0  0  0  0  0  0  0  0  0  0  0
   58.1970   32.9810   45.7610 C   0  0  0  0  0  0  0  0  0  0  0  0
   57.3100   32.2830   44.7630 C   0  0  0  0  0  0  0  0  0  0  0  0
   56.9290   30.9570   45.2420 N   0  0  0  0  0  0  0  0  0  0  0  0
   56.3460   29.9040   44.4590 C   0  0  0  0  0  0  0  0  0  0  0  0
   55.2040   30.0870   43.9600 O   0  0  0  0  0  0  0  0  0  0  0  0
   57.0430   28.5910   44.2140 C   0  0  0  0  0  0  0  0  0  0  0  0
   58.1320   28.3100   45.2610 C   0  0  0  0  0  0  0  0  0  0  0  0
   57.5860   27.7230   46.5730 C   0  0  0  0  0  0  0  0  0  0  0  0
   57.8360   26.2820   46.7000 N   0  0  0  0  0  0  0  0  0  0  0  0
   56.3910   25.3340   46.5030 S   0  0  0  0  0  0  0  0  0  0  0  0
   55.2910   26.2250   45.9990 O   0  0  0  0  0  0  0  0  0  0  0  0
   55.9730   24.7800   47.8370 O   0  0  0  0  0  0  0  0  0  0  0  0
   56.6200   24.0200   45.3490 C   0  0  0  0  0  0  0  0  0  0  0  0
   56.3520   24.1870   43.9730 C   0  0  0  0  0  0  0  0  0  0  0  0
   56.5260   23.1100   43.0710 C   0  0  0  0  0  0  0  0  0  0  0  0
   56.9650   21.8550   43.5350 C   0  0  0  0  0  0  0  0  0  0  0  0
   57.2160   21.7300   44.8980 C   0  0  0  0  0  0  0  0  0  0  0  0
   57.6210   20.6550   45.5870 N   0  0  0  0  0  0  0  0  0  0  0  0
   57.6860   21.0700   46.8280 O   0  0  0  0  0  0  0  0  0  0  0  0
   57.3560   22.3270   46.9960 N   0  0  0  0  0  0  0  0  0  0  0  0
   57.0530   22.7600   45.7630 C   0  0  0  0  0  0  0  0  0  0  0  0
   58.8100   34.2030   45.4400 C   0  0  0  0  0  0  0  0  0  0  0  0
   59.6350   34.8460   46.3660 C   0  0  0  0  0  0  0  0  0  0  0  0
   61.4525   34.3328   50.4404 H   0  0  0  0  0  0  0  0  0  0  0  0
   61.6263   33.1100   49.1361 H   0  0  0  0  0  0  0  0  0  0  0  0
   62.6633   34.5768   49.1361 H   0  0  0  0  0  0  0  0  0  0  0  0
   59.4572   32.5758   48.9198 H   0  0  0  0  0  0  0  0  0  0  0  0
   57.9891   31.4306   47.2668 H   0  0  0  0  0  0  0  0  0  0  0  0
   56.4020   32.8838   44.6061 H   0  0  0  0  0  0  0  0  0  0  0  0
   57.8639   32.1700   43.8194 H   0  0  0  0  0  0  0  0  0  0  0  0
   56.2985   27.7820   44.2508 H   0  0  0  0  0  0  0  0  0  0  0  0
   57.5272   28.6436   43.2277 H   0  0  0  0  0  0  0  0  0  0  0  0
   58.8505   27.5957   44.8326 H   0  0  0  0  0  0  0  0  0  0  0  0
   58.5990   29.2747   45.5084 H   0  0  0  0  0  0  0  0  0  0  0  0
   58.0684   28.2389   47.4163 H   0  0  0  0  0  0  0  0  0  0  0  0
   56.4960   27.8709   46.5732 H   0  0  0  0  0  0  0  0  0  0  0  0
   56.0053   25.1616   43.5989 H   0  0  0  0  0  0  0  0  0  0  0  0
   56.3169   23.2543   42.0007 H   0  0  0  0  0  0  0  0  0  0  0  0
   57.1039   21.0075   42.8476 H   0  0  0  0  0  0  0  0  0  0  0  0
   58.6394   34.6570   44.4527 H   0  0  0  0  0  0  0  0  0  0  0  0
   60.1018   35.8083   46.1089 H   0  0  0  0  0  0  0  0  0  0  0  0
  1  2  1  0
  2  3  1  0
  3  4  2  0
  4  5  1  0
  5  6  2  0
  6  7  1  0
  7  8  1  0
  8  9  1  0
  9 10  2  0
  9 11  1  0
 11 12  1  0
 12 13  1  0
 13 14  1  0
 14 15  1  0
 15 16  2  0
 15 17  2  0
 15 18  1  0
 18 19  2  0
 19 20  1  0
 20 21  2  0
 21 22  1  0
 22 23  2  0
 23 24  1  0
 24 25  1  0
 25 26  2  0
  6 27  1  0
 27 28  2  0
 28  3  1  0
 26 18  1  0
 26 22  1  0
  1 29  1  0
  1 30  1  0
  1 31  1  0
  4 32  1  0
  5 33  1  0
  7 34  1  0
  7 35  1  0
 11 36  1  0
 11 37  1  0
 12 38  1  0
 12 39  1  0
 13 40  1  0
 13 41  1  0
 19 42  1  0
 20 43  1  0
 21 44  1  0
 27 45  1  0
 28 46  1  0
M  CHG  2   8  -1  14  -1
M  END
>  <UniqueID>  (1) 
1

>  <SMILES>  (1) 
COc1ccc(C[N-]C(=O)CCC[N-]S(=O)(=O)c2cccc3nonc23)cc1

>  <Energy>  (1) 
84.9841531280928

>  <Genealogy>  (1) 
COc1ccc(C[N-]C(=O)CCC[N-]S(=O)(=O)c2cccc3nonc23)cc1 (protonated)
COc1ccc(C[N-]C(=O)CCC[N-]S(=O)(=O)c2cccc3nonc23)cc1 (3D coordinates assigned)
COc1ccc(C[N-]C(=O)CCC[N-]S(=O)(=O)c2cccc3nonc23)cc1 (optimized conformer: 84.9841531280928 kcal/mol)

>  <smiles>  (1) 
COc1ccc(CNC(=O)CCCNS(=O)(=O)c2cccc3nonc23)cc1

>  <score_type>  (1) 
oracle

>  <origin>  (1) 
adg

>  <m_score__min__energy>  (1) 
-13.25

>  <m_primary>  (1) 
energy

$$$$
1:0
     RDKit          3D

 24 24  0  0  0  0  0  0  0  0999 V2000
   57.7610   26.7650   44.4390 C   0  0  0  0  0  0  0  0  0  0  0  0
   56.6460   27.4550   45.6400 S   0  0  0  0  0  0  0  0  0  0  0  0
   55.6130   26.4250   46.0050 O   0  0  0  0  0  0  0  0  0  0  0  0
   57.4220   27.8550   46.8640 O   0  0  0  0  0  0  0  0  0  0  0  0
   55.8700   28.8440   44.9580 N   0  0  0  0  0  0  0  0  0  0  0  0
   56.5170   29.6990   44.0120 C   0  0  0  0  0  0  0  0  0  0  0  0
   56.4500   29.4320   42.7800 O   0  0  0  0  0  0  0  0  0  0  0  0
   57.2630   30.8930   44.4730 C   0  0  0  0  0  0  0  0  0  0  0  0
   57.8150   30.9390   45.7660 C   0  0  0  0  0  0  0  0  0  0  0  0
   58.5190   32.0660   46.1990 C   0  0  0  0  0  0  0  0  0  0  0  0
   58.7020   33.1650   45.3440 C   0  0  0  0  0  0  0  0  0  0  0  0
   59.4180   34.4000   45.8300 C   0  0  0  0  0  0  0  0  0  0  0  0
   59.2700   35.4090   44.8960 F   0  0  0  0  0  0  0  0  0  0  0  0
   58.8950   34.8250   47.0390 F   0  0  0  0  0  0  0  0  0  0  0  0
   60.7670   34.1460   46.0070 F   0  0  0  0  0  0  0  0  0  0  0  0
   58.1290   33.1320   44.0620 C   0  0  0  0  0  0  0  0  0  0  0  0
   57.4240   32.0050   43.6280 C   0  0  0  0  0  0  0  0  0  0  0  0
   58.5866   26.2541   44.9561 H   0  0  0  0  0  0  0  0  0  0  0  0
   57.2205   26.0433   43.8090 H   0  0  0  0  0  0  0  0  0  0  0  0
   58.1657   27.5708   43.8090 H   0  0  0  0  0  0  0  0  0  0  0  0
   57.6915   30.0803   46.4423 H   0  0  0  0  0  0  0  0  0  0  0  0
   58.9331   32.0924   47.2177 H   0  0  0  0  0  0  0  0  0  0  0  0
   58.2357   33.9995   43.3941 H   0  0  0  0  0  0  0  0  0  0  0  0
   56.9916   31.9884   42.6167 H   0  0  0  0  0  0  0  0  0  0  0  0
  1  2  1  0
  2  3  2  0
  2  4  2  0
  2  5  1  0
  5  6  1  0
  6  7  2  0
  6  8  1  0
  8  9  2  0
  9 10  1  0
 10 11  2  0
 11 12  1  0
 12 13  1  0
 12 14  1  0
 12 15  1  0
 11 16  1  0
 16 17  2  0
 17  8  1  0
  1 18  1  0
  1 19  1  0
  1 20  1  0
  9 21  1  0
 10 22  1  0
 16 23  1  0
 17 24  1  0
M  CHG  1   5  -1
M  END
>  <UniqueID>  (2) 
2

>  <SMILES>  (2) 
CS(=O)(=O)[N-]C(=O)c1ccc(C(F)(F)F)cc1

>  <Energy>  (2) 
20.998219624115034

>  <Genealogy>  (2) 
CS(=O)(=O)[N-]C(=O)c1ccc(C(F)(F)F)cc1 (protonated)
CS(=O)(=O)[N-]C(=O)c1ccc(C(F)(F)F)cc1 (3D coordinates assigned)
CS(=O)(=O)[N-]C(=O)c1ccc(C(F)(F)F)cc1 (optimized conformer: 20.998219624115034 kcal/mol)

>  <smiles>  (2) 
CS(=O)(=O)NC(=O)c1ccc(C(F)(F)F)cc1

>  <score_type>  (2) 
oracle

>  <origin>  (2) 
adg

>  <m_score__min__energy>  (2) 
-7.8499999999999996

>  <m_primary>  (2) 
energy

$$$$
2:0
     RDKit          3D

 42 44  0  0  0  0  0  0  0  0999 V2000
   55.5250   26.8270   45.7860 O   0  0  0  0  0  0  0  0  0  0  0  0
   56.5050   27.5980   45.6090 C   0  0  0  0  0  0  0  0  0  0  0  0
   57.8940   27.0210   45.5700 C   0  0  0  0  0  0  0  0  0  0  0  0
   58.9050   28.0750   45.9240 C   0  0  0  0  0  0  0  0  0  0  0  0
   58.9020   28.6770   47.1920 C   0  0  0  0  0  0  0  0  0  0  0  0
   59.8700   29.6370   47.4970 C   0  0  0  0  0  0  0  0  0  0  0  0
   60.8310   29.9820   46.5450 C   0  0  0  0  0  0  0  0  0  0  0  0
   60.8120   29.3560   45.2970 C   0  0  0  0  0  0  0  0  0  0  0  0
   59.8660   28.4190   45.0190 N   0  0  0  0  0  0  0  0  0  0  0  0
   56.2810   29.0120   45.5870 N   0  0  0  0  0  0  0  0  0  0  0  0
   56.6760   29.8920   44.5280 C   0  0  0  0  0  0  0  0  0  0  0  0
   56.2560   29.6680   43.2070 C   0  0  0  0  0  0  0  0  0  0  0  0
   56.6130   30.5630   42.1970 C   0  0  0  0  0  0  0  0  0  0  0  0
   57.3900   31.6840   42.4970 C   0  0  0  0  0  0  0  0  0  0  0  0
   57.8220   31.9190   43.8110 C   0  0  0  0  0  0  0  0  0  0  0  0
   58.6510   33.0590   44.0870 N   0  0  0  0  0  0  0  0  0  0  0  0
   58.2280   34.2750   45.2500 S   0  0  0  0  0  0  0  0  0  0  0  0
   56.7380   34.4770   45.2310 O   0  0  0  0  0  0  0  0  0  0  0  0
   58.9030   35.5680   44.8850 O   0  0  0  0  0  0  0  0  0  0  0  0
   58.7700   33.7900   46.8550 C   0  0  0  0  0  0  0  0  0  0  0  0
   58.0800   32.8010   47.5700 C   0  0  0  0  0  0  0  0  0  0  0  0
   58.5130   32.4260   48.8460 C   0  0  0  0  0  0  0  0  0  0  0  0
   59.6380   33.0330   49.4120 C   0  0  0  0  0  0  0  0  0  0  0  0
   60.1750   32.5710   51.0170 Cl  0  0  0  0  0  0  0  0  0  0  0  0
   60.3300   34.0190   48.7010 C   0  0  0  0  0  0  0  0  0  0  0  0
   59.8950   34.4000   47.4280 C   0  0  0  0  0  0  0  0  0  0  0  0
   57.4360   31.0270   44.8290 C   0  0  0  0  0  0  0  0  0  0  0  0
   57.9640   26.1937   46.2916 H   0  0  0  0  0  0  0  0  0  0  0  0
   58.1008   26.6526   44.5544 H   0  0  0  0  0  0  0  0  0  0  0  0
   58.1446   28.3955   47.9385 H   0  0  0  0  0  0  0  0  0  0  0  0
   59.8750   30.1201   48.4853 H   0  0  0  0  0  0  0  0  0  0  0  0
   61.5951   30.7390   46.7756 H   0  0  0  0  0  0  0  0  0  0  0  0
   61.5628   29.6209   44.5379 H   0  0  0  0  0  0  0  0  0  0  0  0
   55.6445   28.7855   42.9676 H   0  0  0  0  0  0  0  0  0  0  0  0
   56.2818   30.3850   41.1632 H   0  0  0  0  0  0  0  0  0  0  0  0
   57.6652   32.3876   41.6975 H   0  0  0  0  0  0  0  0  0  0  0  0
   59.6280   33.0780   43.7150 H   0  0  0  0  0  0  0  0  0  0  0  0
   57.1963   32.3189   47.1266 H   0  0  0  0  0  0  0  0  0  0  0  0
   57.9672   31.6519   49.4053 H   0  0  0  0  0  0  0  0  0  0  0  0
   61.2173   34.4951   49.1438 H   0  0  0  0  0  0  0  0  0  0  0  0
   60.4370   35.1808   46.8743 H   0  0  0  0  0  0  0  0  0  0  0  0
   57.7343   31.2240   45.8693 H   0  0  0  0  0  0  0  0  0  0  0  0
  1  2  2  0
  2  3  1  0
  3  4  1  0
  4  5  2  0
  5  6  1  0
  6  7  2  0
  7  8  1  0
  8  9  2  0
  2 10  1  0
 10 11  1  0
 11 12  2  0
 12 13  1  0
 13 14  2  0
 14 15  1  0
 15 16  1  0
 16 17  1  0
 17 18  2  0
 17 19  2  0
 17 20  1  0
 20 21  2  0
 21 22  1  0
 22 23  2  0
 23 24  1  0
 23 25  1  0
 25 26  2  0
 15 27  2  0
  9  4  1  0
 27 11  1  0
 26 20  1  0
  3 28  1  0
  3 29  1  0
  5 30  1  0
  6 31  1  0
  7 32  1  0
  8 33  1  0
 12 34  1  0
 13 35  1  0
 14 36  1  0
 16 37  1  0
 21 38  1  0
 22 39  1  0
 25 40  1  0
 26 41  1  0
 27 42  1  0
M  CHG  1  10  -1
M  END
>  <UniqueID>  (3) 
3

>  <SMILES>  (3) 
O=C(Cc1ccccn1)[N-]c1cccc(NS(=O)(=O)c2ccc(Cl)cc2)c1

>  <Energy>  (3) 
50.181688964778445

>  <Genealogy>  (3) 
O=C(Cc1ccccn1)[N-]c1cccc(NS(=O)(=O)c2ccc(Cl)cc2)c1 (protonated)
O=C(Cc1ccccn1)[N-]c1cccc(NS(=O)(=O)c2ccc(Cl)cc2)c1 (3D coordinates assigned)
O=C(Cc1ccccn1)[N-]c1cccc(NS(=O)(=O)c2ccc(Cl)cc2)c1 (optimized conformer: 50.181688964778445 kcal/mol)

>  <smiles>  (3) 
O=C(Cc1ccccn1)Nc1cccc(NS(=O)(=O)c2ccc(Cl)cc2)c1

>  <score_type>  (3) 
oracle

>  <origin>  (3) 
adg

>  <m_score__min__energy>  (3) 
-12.369999999999999

>  <m_primary>  (3) 
energy

$$$$
3:0
     RDKit          3D

 66 69  0  0  0  0  0  0  0  0999 V2000
   65.4160   26.0410   53.4100 C   0  0  0  0  0  0  0  0  0  0  0  0
   65.3050   26.6770   52.1410 O   0  0  0  0  0  0  0  0  0  0  0  0
   66.3860   26.9530   51.2880 C   0  0  0  0  0  0  0  0  0  0  0  0
   67.0790   25.9380   50.6010 C   0  0  0  0  0  0  0  0  0  0  0  0
   68.1670   26.2580   49.7830 C   0  0  0  0  0  0  0  0  0  0  0  0
   68.5700   27.5880   49.6410 C   0  0  0  0  0  0  0  0  0  0  0  0
   67.8850   28.6030   50.3120 C   0  0  0  0  0  0  0  0  0  0  0  0
   66.7920   28.2910   51.1290 C   0  0  0  0  0  0  0  0  0  0  0  0
   66.1330   29.3310   51.8600 N   0  0  0  0  0  0  0  0  0  0  0  0
   64.6900   29.2140   52.1090 C   0  0  0  0  0  0  0  0  0  0  0  0
   64.0540   30.5920   52.3210 C   0  0  0  0  0  0  0  0  0  0  0  0
   64.6590   31.5570   51.3930 N   0  0  0  0  0  0  0  0  0  0  0  0
   63.8800   32.1510   50.3410 C   0  0  0  0  0  0  0  0  0  0  0  0
   64.4950   32.9800   49.3940 C   0  0  0  0  0  0  0  0  0  0  0  0
   63.7580   33.5040   48.3290 C   0  0  0  0  0  0  0  0  0  0  0  0
   62.3980   33.1800   48.1790 C   0  0  0  0  0  0  0  0  0  0  0  0
   61.6250   33.6810   47.0760 N   0  0  0  0  0  0  0  0  0  0  0  0
   60.3810   34.3880   47.2320 C   0  0  0  0  0  0  0  0  0  0  0  0
   59.9050   34.6100   48.3770 O   0  0  0  0  0  0  0  0  0  0  0  0
   59.6670   34.9240   46.0280 C   0  0  0  0  0  0  0  0  0  0  0  0
   59.5440   33.8760   44.9060 C   0  0  0  0  0  0  0  0  0  0  0  0
   58.2230   33.0610   44.9490 C   0  0  0  0  0  0  0  0  0  0  0  0
   58.0450   32.2770   43.6220 C   0  0  0  0  0  0  0  0  0  0  0  0
   56.9960   31.1710   43.7660 C   0  0  0  0  0  0  0  0  0  0  0  0
   57.4170   30.1170   44.8100 C   0  0  0  0  0  0  0  0  0  0  0  0
   58.4030   30.6570   45.8630 C   0  0  0  0  0  0  0  0  0  0  0  0
   58.1350   32.1300   46.1970 C   0  0  0  0  0  0  0  0  0  0  0  0
   61.7780   32.3740   49.1440 C   0  0  0  0  0  0  0  0  0  0  0  0
   62.5130   31.8600   50.2140 C   0  0  0  0  0  0  0  0  0  0  0  0
   66.1190   31.7440   51.3890 C   0  0  0  0  0  0  0  0  0  0  0  0
   66.8290   30.5960   52.1230 C   0  0  0  0  0  0  0  0  0  0  0  0
   65.2857   26.7878   54.2071 H   0  0  0  0  0  0  0  0  0  0  0  0
   64.6393   25.2675   53.5017 H   0  0  0  0  0  0  0  0  0  0  0  0
   66.4088   25.5763   53.5017 H   0  0  0  0  0  0  0  0  0  0  0  0
   66.7634   24.8897   50.7081 H   0  0  0  0  0  0  0  0  0  0  0  0
   68.7065   25.4610   49.2504 H   0  0  0  0  0  0  0  0  0  0  0  0
   69.4284   27.8361   48.9995 H   0  0  0  0  0  0  0  0  0  0  0  0
   68.2047   29.6494   50.1984 H   0  0  0  0  0  0  0  0  0  0  0  0
   64.2144   28.7278   51.2445 H   0  0  0  0  0  0  0  0  0  0  0  0
   64.5397   28.6156   53.0197 H   0  0  0  0  0  0  0  0  0  0  0  0
   62.9722   30.5298   52.1320 H   0  0  0  0  0  0  0  0  0  0  0  0
   64.2263   30.9206   53.3565 H   0  0  0  0  0  0  0  0  0  0  0  0
   65.5643   33.2198   49.4894 H   0  0  0  0  0  0  0  0  0  0  0  0
   64.2442   34.1735   47.6041 H   0  0  0  0  0  0  0  0  0  0  0  0
   62.0760   33.6940   46.1330 H   0  0  0  0  0  0  0  0  0  0  0  0
   58.6573   35.2413   46.3278 H   0  0  0  0  0  0  0  0  0  0  0  0
   60.2541   35.7680   45.6369 H   0  0  0  0  0  0  0  0  0  0  0  0
   59.5987   34.3964   43.9384 H   0  0  0  0  0  0  0  0  0  0  0  0
   60.3664   33.1592   45.0468 H   0  0  0  0  0  0  0  0  0  0  0  0
   57.3883   33.7702   45.0506 H   0  0  0  0  0  0  0  0  0  0  0  0
   57.7246   32.9744   42.8340 H   0  0  0  0  0  0  0  0  0  0  0  0
   59.0071   31.8114   43.3619 H   0  0  0  0  0  0  0  0  0  0  0  0
   56.0431   31.6223   44.0795 H   0  0  0  0  0  0  0  0  0  0  0  0
   56.8931   30.6677   42.7933 H   0  0  0  0  0  0  0  0  0  0  0  0
   56.5147   29.7601   45.3282 H   0  0  0  0  0  0  0  0  0  0  0  0
   57.9319   29.3107   44.2672 H   0  0  0  0  0  0  0  0  0  0  0  0
   58.3036   30.0605   46.7818 H   0  0  0  0  0  0  0  0  0  0  0  0
   59.4190   30.5814   45.4483 H   0  0  0  0  0  0  0  0  0  0  0  0
   57.1262   32.2144   46.6274 H   0  0  0  0  0  0  0  0  0  0  0  0
   58.9110   32.4542   46.9060 H   0  0  0  0  0  0  0  0  0  0  0  0
   60.7056   32.1451   49.0576 H   0  0  0  0  0  0  0  0  0  0  0  0
   62.0177   31.2232   50.9618 H   0  0  0  0  0  0  0  0  0  0  0  0
   66.4734   31.7778   50.3482 H   0  0  0  0  0  0  0  0  0  0  0  0
   66.3507   32.6854   51.9088 H   0  0  0  0  0  0  0  0  0  0  0  0
   67.8673   30.5222   51.7673 H   0  0  0  0  0  0  0  0  0  0  0  0
   66.8207   30.7967   53.2045 H   0  0  0  0  0  0  0  0  0  0  0  0
  1  2  1  0
  2  3  1  0
  3  4  2  0
  4  5  1  0
  5  6  2  0
  6  7  1  0
  7  8  2  0
  8  9  1  0
  9 10  1  0
 10 11  1  0
 11 12  1  0
 12 13  1  0
 13 14  2  0
 14 15  1  0
 15 16  2  0
 16 17  1  0
 17 18  1  0
 18 19  2  0
 18 20  1  0
 20 21  1  0
 21 22  1  0
 22 23  1  0
 23 24  1  0
 24 25  1  0
 25 26  1  0
 26 27  1  0
 16 28  1  0
 28 29  2  0
 12 30  1  0
 30 31  1  0
  8  3  1  0
 31  9  1  0
 29 13  1  0
 27 22  1  0
  1 32  1  0
  1 33  1  0
  1 34  1  0
  4 35  1  0
  5 36  1  0
  6 37  1  0
  7 38  1  0
 10 39  1  0
 10 40  1  0
 11 41  1  0
 11 42  1  0
 14 43  1  0
 15 44  1  0
 17 45  1  0
 20 46  1  0
 20 47  1  0
 21 48  1  0
 21 49  1  0
 22 50  1  0
 23 51  1  0
 23 52  1  0
 24 53  1  0
 24 54  1  0
 25 55  1  0
 25 56  1  0
 26 57  1  0
 26 58  1  0
 27 59  1  0
 27 60  1  0
 28 61  1  0
 29 62  1  0
 30 63  1  0
 30 64  1  0
 31 65  1  0
 31 66  1  0
M  END
>  <UniqueID>  (4) 
4

>  <SMILES>  (4) 
COc1ccccc1N1CCN(c2ccc(NC(=O)CCC3CCCCC3)cc2)CC1

>  <Energy>  (4) 
80.47930460915467

>  <Genealogy>  (4) 
COc1ccccc1N1CCN(c2ccc(NC(=O)CCC3CCCCC3)cc2)CC1 (3D coordinates assigned)
COc1ccccc1N1CCN(c2ccc(NC(=O)CCC3CCCCC3)cc2)CC1 (nonaromatic ring conformer: 80.47930460915467 kcal/mol)

>  <smiles>  (4) 
COc1ccccc1N1CCN(c2ccc(NC(=O)CCC3CCCCC3)cc2)CC1

>  <score_type>  (4) 
oracle

>  <origin>  (4) 
adg

>  <m_score__min__energy>  (4) 
-8.8499999999999996

>  <m_primary>  (4) 
energy

$$$$
4:0
     RDKit          3D

 24 25  0  0  0  0  0  0  0  0999 V2000
   57.6380   32.7120   52.3300 C   0  0  0  0  0  0  0  0  0  0  0  0
   56.3430   32.1900   52.0520 O   0  0  0  0  0  0  0  0  0  0  0  0
   55.8990   30.9100   52.4230 C   0  0  0  0  0  0  0  0  0  0  0  0
   56.7920   29.9330   52.8990 C   0  0  0  0  0  0  0  0  0  0  0  0
   56.3330   28.6700   53.2610 C   0  0  0  0  0  0  0  0  0  0  0  0
   54.9790   28.3480   53.1570 C   0  0  0  0  0  0  0  0  0  0  0  0
   54.5730   27.0720   53.5310 O   0  0  0  0  0  0  0  0  0  0  0  0
   54.0570   29.3080   52.6800 C   0  0  0  0  0  0  0  0  0  0  0  0
   52.6780   29.0340   52.5570 C   0  0  0  0  0  0  0  0  0  0  0  0
   52.2030   27.9080   52.8680 O   0  0  0  0  0  0  0  0  0  0  0  0
   51.8110   30.0160   52.0810 C   0  0  0  0  0  0  0  0  0  0  0  0
   52.3050   31.2760   51.7250 C   0  0  0  0  0  0  0  0  0  0  0  0
   51.3820   32.3180   51.2210 C   0  0  0  0  0  0  0  0  0  0  0  0
   50.9180   33.1920   52.0010 O   0  0  0  0  0  0  0  0  0  0  0  0
   51.0110   32.3460   49.8820 O   0  0  0  0  0  0  0  0  0  0  0  0
   53.6400   31.5360   51.8490 N   0  0  0  0  0  0  0  0  0  0  0  0
   54.5250   30.5990   52.3110 C   0  0  0  0  0  0  0  0  0  0  0  0
   57.7837   32.7707   53.4187 H   0  0  0  0  0  0  0  0  0  0  0  0
   58.4012   32.0513   51.8930 H   0  0  0  0  0  0  0  0  0  0  0  0
   57.7297   33.7173   51.8930 H   0  0  0  0  0  0  0  0  0  0  0  0
   57.8628   30.1694   52.9859 H   0  0  0  0  0  0  0  0  0  0  0  0
   57.0445   27.9180   53.6328 H   0  0  0  0  0  0  0  0  0  0  0  0
   50.7366   29.8003   51.9850 H   0  0  0  0  0  0  0  0  0  0  0  0
   53.9900   32.4820   51.5790 H   0  0  0  0  0  0  0  0  0  0  0  0
  1  2  1  0
  2  3  1  0
  3  4  2  0
  4  5  1  0
  5  6  2  0
  6  7  1  0
  6  8  1  0
  8  9  1  0
  9 10  2  0
  9 11  1  0
 11 12  2  0
 12 13  1  0
 13 14  2  0
 13 15  1  0
 12 16  1  0
 16 17  1  0
 17  3  1  0
 17  8  2  0
  1 18  1  0
  1 19  1  0
  1 20  1  0
  4 21  1  0
  5 22  1  0
 11 23  1  0
 16 24  1  0
M  CHG  2   7  -1  15  -1
M  END
>  <UniqueID>  (5) 
5

>  <SMILES>  (5) 
COc1ccc([O-])c2c(=O)cc(C(=O)[O-])[nH]c12

>  <Energy>  (5) 
32.26187207736428

>  <Genealogy>  (5) 
COc1ccc([O-])c2c(=O)cc(C(=O)[O-])[nH]c12 (protonated)
COc1ccc([O-])c2c(=O)cc(C(=O)[O-])[nH]c12 (3D coordinates assigned)
COc1ccc([O-])c2c(=O)cc(C(=O)[O-])[nH]c12 (optimized conformer: 32.26187207736428 kcal/mol)

>  <smiles>  (5) 
COc1ccc(O)c2c(=O)cc(C(=O)O)[nH]c12

>  <score_type>  (5) 
oracle

>  <origin>  (5) 
adg

>  <m_score__min__energy>  (5) 
-10.1

>  <m_primary>  (5) 
energy

$$$$
5:0
     RDKit          3D

 42 44  0  0  0  0  0  0  0  0999 V2000
   58.1370   31.9760   41.9100 C   0  0  0  0  0  0  0  0  0  0  0  0
   58.0900   32.9930   43.0500 C   0  0  0  0  0  0  0  0  0  0  0  0
   58.3410   32.3470   44.3510 N   0  0  0  0  0  0  0  0  0  0  0  0
   59.2650   33.0000   45.2600 C   0  0  0  0  0  0  0  0  0  0  0  0
   59.5930   34.2030   45.0550 O   0  0  0  0  0  0  0  0  0  0  0  0
   59.8570   32.2970   46.3660 N   0  0  0  0  0  0  0  0  0  0  0  0
   60.5550   32.9910   47.4170 C   0  0  0  0  0  0  0  0  0  0  0  0
   59.8520   33.4970   48.5240 C   0  0  0  0  0  0  0  0  0  0  0  0
   60.5320   34.1630   49.5480 C   0  0  0  0  0  0  0  0  0  0  0  0
   61.9180   34.3270   49.4780 C   0  0  0  0  0  0  0  0  0  0  0  0
   62.6260   33.8250   48.3830 C   0  0  0  0  0  0  0  0  0  0  0  0
   61.9500   33.1590   47.3570 C   0  0  0  0  0  0  0  0  0  0  0  0
   59.7380   30.5780   46.3950 S   0  0  0  0  0  0  0  0  0  0  0  0
   60.8960   29.9620   45.6610 O   0  0  0  0  0  0  0  0  0  0  0  0
   59.7050   30.0940   47.8180 O   0  0  0  0  0  0  0  0  0  0  0  0
   58.2370   30.1860   45.6020 C   0  0  0  0  0  0  0  0  0  0  0  0
   57.6050   28.9700   45.8900 C   0  0  0  0  0  0  0  0  0  0  0  0
   56.3880   28.6390   45.2890 C   0  0  0  0  0  0  0  0  0  0  0  0
   55.7800   27.3820   45.6170 N   0  0  0  0  0  0  0  0  0  0  0  0
   56.6050   25.9820   46.2210 S   0  0  0  0  0  0  0  0  0  0  0  0
   57.6250   25.2740   44.9460 C   0  0  0  0  0  0  0  0  0  0  0  0
   55.6070   24.9720   46.7160 O   0  0  0  0  0  0  0  0  0  0  0  0
   57.4830   26.3950   47.3680 O   0  0  0  0  0  0  0  0  0  0  0  0
   55.8010   29.5460   44.3950 C   0  0  0  0  0  0  0  0  0  0  0  0
   56.4320   30.7560   44.0990 C   0  0  0  0  0  0  0  0  0  0  0  0
   57.6680   31.0980   44.6920 C   0  0  0  0  0  0  0  0  0  0  0  0
   58.1840   30.9593   42.3273 H   0  0  0  0  0  0  0  0  0  0  0  0
   57.2332   32.0769   41.2911 H   0  0  0  0  0  0  0  0  0  0  0  0
   59.0276   32.1598   41.2911 H   0  0  0  0  0  0  0  0  0  0  0  0
   58.8576   33.7617   42.8770 H   0  0  0  0  0  0  0  0  0  0  0  0
   57.0872   33.4446   43.0729 H   0  0  0  0  0  0  0  0  0  0  0  0
   58.7613   33.3683   48.5849 H   0  0  0  0  0  0  0  0  0  0  0  0
   59.9751   34.5586   50.4102 H   0  0  0  0  0  0  0  0  0  0  0  0
   62.4514   34.8511   50.2847 H   0  0  0  0  0  0  0  0  0  0  0  0
   63.7170   33.9542   48.3284 H   0  0  0  0  0  0  0  0  0  0  0  0
   62.5121   32.7641   46.4979 H   0  0  0  0  0  0  0  0  0  0  0  0
   58.0716   28.2681   46.5968 H   0  0  0  0  0  0  0  0  0  0  0  0
   58.4455   24.7045   45.4069 H   0  0  0  0  0  0  0  0  0  0  0  0
   57.0178   24.6021   44.3215 H   0  0  0  0  0  0  0  0  0  0  0  0
   58.0421   26.0778   44.3215 H   0  0  0  0  0  0  0  0  0  0  0  0
   54.8372   29.3027   43.9239 H   0  0  0  0  0  0  0  0  0  0  0  0
   55.9591   31.4542   43.3927 H   0  0  0  0  0  0  0  0  0  0  0  0
  1  2  1  0
  2  3  1  0
  3  4  1  0
  4  5  2  0
  4  6  1  0
  6  7  1  0
  7  8  2  0
  8  9  1  0
  9 10  2  0
 10 11  1  0
 11 12  2  0
  6 13  1  0
 13 14  2  0
 13 15  2  0
 13 16  1  0
 16 17  2  0
 17 18  1  0
 18 19  1  0
 19 20  1  0
 20 21  1  0
 20 22  2  0
 20 23  2  0
 18 24  2  0
 24 25  1  0
 25 26  2  0
 26  3  1  0
 12  7  1  0
 26 16  1  0
  1 27  1  0
  1 28  1  0
  1 29  1  0
  2 30  1  0
  2 31  1  0
  8 32  1  0
  9 33  1  0
 10 34  1  0
 11 35  1  0
 12 36  1  0
 17 37  1  0
 21 38  1  0
 21 39  1  0
 21 40  1  0
 24 41  1  0
 25 42  1  0
M  CHG  1  19  -1
M  END
>  <UniqueID>  (6) 
6

>  <SMILES>  (6) 
CCN1C(=O)N(c2ccccc2)S(=O)(=O)c2cc([N-]S(C)(=O)=O)ccc21

>  <Energy>  (6) 
55.80731833244091

>  <Genealogy>  (6) 
CCN1C(=O)N(c2ccccc2)S(=O)(=O)c2cc([N-]S(C)(=O)=O)ccc21 (protonated)
CCN1C(=O)N(c2ccccc2)S(=O)(=O)c2cc([N-]S(C)(=O)=O)ccc21 (3D coordinates assigned)
CCN1C(=O)N(c2ccccc2)S(=O)(=O)c2cc([N-]S(C)(=O)=O)ccc21 (nonaromatic ring conformer: 55.80731833244091 kcal/mol)

>  <smiles>  (6) 
CCN1C(=O)N(c2ccccc2)S(=O)(=O)c2cc(NS(C)(=O)=O)ccc21

>  <score_type>  (6) 
oracle

>  <origin>  (6) 
adg

>  <m_score__min__energy>  (6) 
-10.1

>  <m_primary>  (6) 
energy

$$$$
6:0
     RDKit          3D

 69 73  0  0  0  0  0  0  0  0999 V2000
   64.1780   32.4000   49.1610 C   0  0  0  0  0  0  0  0  0  0  0  0
   63.1990   33.3920   49.3770 O   0  0  0  0  0  0  0  0  0  0  0  0
   62.1870   33.7060   48.4810 C   0  0  0  0  0  0  0  0  0  0  0  0
   60.9690   34.2290   48.8620 C   0  0  0  0  0  0  0  0  0  0  0  0
   60.0070   34.5160   47.8950 C   0  0  0  0  0  0  0  0  0  0  0  0
   60.2440   34.2870   46.5560 C   0  0  0  0  0  0  0  0  0  0  0  0
   59.2550   34.5690   45.4860 C   0  0  0  0  0  0  0  0  0  0  0  0
   58.5180   33.3790   45.0600 C   0  0  0  0  0  0  0  0  0  0  0  0
   58.1800   33.1800   43.7450 N   0  0  0  0  0  0  0  0  0  0  0  0
   57.5390   32.0170   43.6040 C   0  0  0  0  0  0  0  0  0  0  0  0
   57.0110   31.3920   42.4920 C   0  0  0  0  0  0  0  0  0  0  0  0
   57.0700   31.9010   41.3060 N   0  0  0  0  0  0  0  0  0  0  0  0
   56.4110   30.2010   42.6690 N   0  0  0  0  0  0  0  0  0  0  0  0
   56.3540   29.6770   43.9070 C   0  0  0  0  0  0  0  0  0  0  0  0
   56.8680   30.2860   44.9920 N   0  0  0  0  0  0  0  0  0  0  0  0
   57.4760   31.4760   44.8690 C   0  0  0  0  0  0  0  0  0  0  0  0
   58.0840   32.3280   45.7600 N   0  0  0  0  0  0  0  0  0  0  0  0
   58.1770   31.9730   47.1530 C   0  0  0  0  0  0  0  0  0  0  0  0
   59.3750   31.1720   47.5410 C   0  0  0  0  0  0  0  0  0  0  0  0
   60.0010   30.3540   46.4940 C   0  0  0  0  0  0  0  0  0  0  0  0
   60.2110   28.9550   46.8120 N   0  0  0  0  0  0  0  0  0  0  0  0
   59.1050   28.5650   47.6270 C   0  0  0  0  0  0  0  0  0  0  0  0
   58.9170   27.1020   47.8280 C   0  0  0  0  0  0  0  0  0  0  0  0
   58.8700   26.5020   46.4940 N   0  0  0  0  0  0  0  0  0  0  0  0
   57.7750   25.7010   46.0850 C   0  0  0  0  0  0  0  0  0  0  0  0
   56.5150   26.2490   46.0340 C   0  0  0  0  0  0  0  0  0  0  0  0
   55.3940   25.5430   45.6460 C   0  0  0  0  0  0  0  0  0  0  0  0
   55.5490   24.2150   45.2930 C   0  0  0  0  0  0  0  0  0  0  0  0
   56.8130   23.6260   45.3330 C   0  0  0  0  0  0  0  0  0  0  0  0
   57.9100   24.3650   45.7260 C   0  0  0  0  0  0  0  0  0  0  0  0
   59.1930   23.8390   45.7880 O   0  0  0  0  0  0  0  0  0  0  0  0
   59.4500   22.6320   45.0980 C   0  0  0  0  0  0  0  0  0  0  0  0
   60.0130   26.7850   45.6350 C   0  0  0  0  0  0  0  0  0  0  0  0
   60.4030   28.2240   45.6060 C   0  0  0  0  0  0  0  0  0  0  0  0
   61.4770   33.7620   46.2250 C   0  0  0  0  0  0  0  0  0  0  0  0
   62.4550   33.4650   47.1420 C   0  0  0  0  0  0  0  0  0  0  0  0
   64.5441   32.0291   50.1297 H   0  0  0  0  0  0  0  0  0  0  0  0
   63.7375   31.5677   48.5924 H   0  0  0  0  0  0  0  0  0  0  0  0
   65.0160   32.8295   48.5924 H   0  0  0  0  0  0  0  0  0  0  0  0
   60.7576   34.4189   49.9247 H   0  0  0  0  0  0  0  0  0  0  0  0
   59.0384   34.9340   48.2066 H   0  0  0  0  0  0  0  0  0  0  0  0
   58.5352   35.3115   45.8610 H   0  0  0  0  0  0  0  0  0  0  0  0
   59.8118   34.9409   44.6133 H   0  0  0  0  0  0  0  0  0  0  0  0
   57.2810   32.8810   41.1000 H   0  0  0  0  0  0  0  0  0  0  0  0
   56.0010   29.6960   41.8500 H   0  0  0  0  0  0  0  0  0  0  0  0
   55.8626   28.7018   44.0392 H   0  0  0  0  0  0  0  0  0  0  0  0
   58.1897   32.9042   47.7384 H   0  0  0  0  0  0  0  0  0  0  0  0
   57.3087   31.3287   47.3555 H   0  0  0  0  0  0  0  0  0  0  0  0
   60.1363   31.8735   47.9129 H   0  0  0  0  0  0  0  0  0  0  0  0
   59.0057   30.4495   48.2837 H   0  0  0  0  0  0  0  0  0  0  0  0
   59.3590   30.4023   45.6021 H   0  0  0  0  0  0  0  0  0  0  0  0
   61.0065   30.7771   46.3529 H   0  0  0  0  0  0  0  0  0  0  0  0
   59.2399   29.0247   48.6172 H   0  0  0  0  0  0  0  0  0  0  0  0
   58.2088   28.9043   47.0869 H   0  0  0  0  0  0  0  0  0  0  0  0
   59.7580   26.6862   48.4023 H   0  0  0  0  0  0  0  0  0  0  0  0
   57.9953   26.8930   48.3909 H   0  0  0  0  0  0  0  0  0  0  0  0
   56.3939   27.3050   46.3171 H   0  0  0  0  0  0  0  0  0  0  0  0
   54.4049   26.0235   45.6184 H   0  0  0  0  0  0  0  0  0  0  0  0
   54.6759   23.6232   44.9808 H   0  0  0  0  0  0  0  0  0  0  0  0
   56.9354   22.5699   45.0506 H   0  0  0  0  0  0  0  0  0  0  0  0
   59.6221   21.8240   45.8243 H   0  0  0  0  0  0  0  0  0  0  0  0
   58.5855   22.3794   44.4665 H   0  0  0  0  0  0  0  0  0  0  0  0
   60.3424   22.7535   44.4665 H   0  0  0  0  0  0  0  0  0  0  0  0
   60.8717   26.2003   45.9966 H   0  0  0  0  0  0  0  0  0  0  0  0
   59.7190   26.5123   44.6107 H   0  0  0  0  0  0  0  0  0  0  0  0
   61.4713   28.2763   45.3491 H   0  0  0  0  0  0  0  0  0  0  0  0
   59.7345   28.6937   44.8694 H   0  0  0  0  0  0  0  0  0  0  0  0
   61.6888   33.5700   45.1628 H   0  0  0  0  0  0  0  0  0  0  0  0
   63.4221   33.0484   46.8239 H   0  0  0  0  0  0  0  0  0  0  0  0
  1  2  1  0
  2  3  1  0
  3  4  2  0
  4  5  1  0
  5  6  2  0
  6  7  1  0
  7  8  1  0
  8  9  2  0
  9 10  1  0
 10 11  1  0
 11 12  2  3
 11 13  1  0
 13 14  1  0
 14 15  2  0
 15 16  1  0
 16 17  1  0
 17 18  1  0
 18 19  1  0
 19 20  1  0
 20 21  1  0
 21 22  1  0
 22 23  1  0
 23 24  1  0
 24 25  1  0
 25 26  2  0
 26 27  1  0
 27 28  2  0
 28 29  1  0
 29 30  2  0
 30 31  1  0
 31 32  1  0
 24 33  1  0
 33 34  1  0
  6 35  1  0
 35 36  2  0
 36  3  1  0
 17  8  1  0
 34 21  1  0
 16 10  2  0
 30 25  1  0
  1 37  1  0
  1 38  1  0
  1 39  1  0
  4 40  1  0
  5 41  1  0
  7 42  1  0
  7 43  1  0
 12 44  1  0
 13 45  1  0
 14 46  1  0
 18 47  1  0
 18 48  1  0
 19 49  1  0
 19 50  1  0
 20 51  1  0
 20 52  1  0
 22 53  1  0
 22 54  1  0
 23 55  1  0
 23 56  1  0
 26 57  1  0
 27 58  1  0
 28 59  1  0
 29 60  1  0
 32 61  1  0
 32 62  1  0
 32 63  1  0
 33 64  1  0
 33 65  1  0
 34 66  1  0
 34 67  1  0
 35 68  1  0
 36 69  1  0
M  END
>  <smiles>  (7) 
COc1ccc(Cc2nc3c(=N)[nH]cnc3n2CCCN2CCN(c3ccccc3OC)CC2)cc1

>  <score_type>  (7) 
oracle

>  <origin>  (7) 
adg

>  <m_score__min__energy>  (7) 
-8.8000000000000007

>  <m_primary>  (7) 
energy

$$$$
7:0
     RDKit          3D

 52 55  0  0  0  0  0  0  0  0999 V2000
   59.4710   33.8120   51.6800 C   0  0  0  0  0  0  0  0  0  0  0  0
   59.6840   33.2070   50.3560 N   0  0  0  0  0  0  0  0  0  0  0  0
   60.0730   34.2030   49.3270 C   0  0  0  0  0  0  0  0  0  0  0  0
   61.3190   33.8350   48.5470 C   0  0  0  0  0  0  0  0  0  0  0  0
   61.3120   33.8550   47.1410 C   0  0  0  0  0  0  0  0  0  0  0  0
   62.4620   33.5120   46.4230 C   0  0  0  0  0  0  0  0  0  0  0  0
   63.6240   33.1330   47.1000 C   0  0  0  0  0  0  0  0  0  0  0  0
   63.6360   33.0900   48.4960 C   0  0  0  0  0  0  0  0  0  0  0  0
   62.4890   33.4330   49.2180 C   0  0  0  0  0  0  0  0  0  0  0  0
   58.5390   32.3580   49.9670 C   0  0  0  0  0  0  0  0  0  0  0  0
   58.9000   31.4640   48.8130 C   0  0  0  0  0  0  0  0  0  0  0  0
   59.5270   30.2330   48.9040 C   0  0  0  0  0  0  0  0  0  0  0  0
   59.6750   29.7030   47.6690 N   0  0  0  0  0  0  0  0  0  0  0  0
   59.1340   30.6360   46.8550 C   0  0  0  0  0  0  0  0  0  0  0  0
   59.0440   30.5390   45.4980 N   0  0  0  0  0  0  0  0  0  0  0  0
   59.5010   29.3250   44.7980 C   0  0  0  0  0  0  0  0  0  0  0  0
   58.8030   28.1080   45.3480 C   0  0  0  0  0  0  0  0  0  0  0  0
   59.5490   27.0230   45.8410 C   0  0  0  0  0  0  0  0  0  0  0  0
   58.9020   25.9100   46.3840 C   0  0  0  0  0  0  0  0  0  0  0  0
   57.5060   25.8700   46.4440 C   0  0  0  0  0  0  0  0  0  0  0  0
   56.7560   26.9460   45.9600 C   0  0  0  0  0  0  0  0  0  0  0  0
   57.3990   28.0620   45.4160 C   0  0  0  0  0  0  0  0  0  0  0  0
   58.4640   31.5840   44.8160 C   0  0  0  0  0  0  0  0  0  0  0  0
   58.3370   31.5160   43.5620 O   0  0  0  0  0  0  0  0  0  0  0  0
   58.0210   32.7060   45.4870 N   0  0  0  0  0  0  0  0  0  0  0  0
   57.3840   33.8080   44.7460 C   0  0  0  0  0  0  0  0  0  0  0  0
   58.1090   32.7550   46.8550 C   0  0  0  0  0  0  0  0  0  0  0  0
   57.6830   33.7540   47.4950 O   0  0  0  0  0  0  0  0  0  0  0  0
   58.6690   31.7070   47.5080 N   0  0  0  0  0  0  0  0  0  0  0  0
   59.7279   33.0824   52.4621 H   0  0  0  0  0  0  0  0  0  0  0  0
   60.1101   34.7012   51.7839 H   0  0  0  0  0  0  0  0  0  0  0  0
   58.4158   34.1047   51.7839 H   0  0  0  0  0  0  0  0  0  0  0  0
   59.2398   34.3087   48.6166 H   0  0  0  0  0  0  0  0  0  0  0  0
   60.2986   35.1379   49.8609 H   0  0  0  0  0  0  0  0  0  0  0  0
   60.3966   34.1421   46.6028 H   0  0  0  0  0  0  0  0  0  0  0  0
   62.4517   33.5406   45.3234 H   0  0  0  0  0  0  0  0  0  0  0  0
   64.5292   32.8685   46.5337 H   0  0  0  0  0  0  0  0  0  0  0  0
   64.5494   32.7858   49.0282 H   0  0  0  0  0  0  0  0  0  0  0  0
   62.5011   33.3884   50.3170 H   0  0  0  0  0  0  0  0  0  0  0  0
   58.2439   31.7364   50.8252 H   0  0  0  0  0  0  0  0  0  0  0  0
   57.7076   33.0094   49.6596 H   0  0  0  0  0  0  0  0  0  0  0  0
   59.8553   29.7577   49.8401 H   0  0  0  0  0  0  0  0  0  0  0  0
   59.2756   29.4184   43.7254 H   0  0  0  0  0  0  0  0  0  0  0  0
   60.5850   29.2131   44.9478 H   0  0  0  0  0  0  0  0  0  0  0  0
   60.6479   27.0505   45.7990 H   0  0  0  0  0  0  0  0  0  0  0  0
   59.4923   25.0636   46.7650 H   0  0  0  0  0  0  0  0  0  0  0  0
   56.9982   24.9929   46.8716 H   0  0  0  0  0  0  0  0  0  0  0  0
   55.6575   26.9145   46.0073 H   0  0  0  0  0  0  0  0  0  0  0  0
   56.8044   28.9074   45.0397 H   0  0  0  0  0  0  0  0  0  0  0  0
   56.9643   34.5341   45.4578 H   0  0  0  0  0  0  0  0  0  0  0  0
   58.1336   34.3060   44.1134 H   0  0  0  0  0  0  0  0  0  0  0  0
   56.5784   33.4070   44.1134 H   0  0  0  0  0  0  0  0  0  0  0  0
  1  2  1  0
  2  3  1  0
  3  4  1  0
  4  5  2  0
  5  6  1  0
  6  7  2  0
  7  8  1  0
  8  9  2  0
  2 10  1  0
 10 11  1  0
 11 12  2  0
 12 13  1  0
 13 14  2  0
 14 15  1  0
 15 16  1  0
 16 17  1  0
 17 18  2  0
 18 19  1  0
 19 20  2  0
 20 21  1  0
 21 22  2  0
 15 23  1  0
 23 24  2  0
 23 25  1  0
 25 26  1  0
 25 27  1  0
 27 28  2  0
 27 29  1  0
  9  4  1  0
 29 11  1  0
 29 14  1  0
 22 17  1  0
  1 30  1  0
  1 31  1  0
  1 32  1  0
  3 33  1  0
  3 34  1  0
  5 35  1  0
  6 36  1  0
  7 37  1  0
  8 38  1  0
  9 39  1  0
 10 40  1  0
 10 41  1  0
 12 42  1  0
 16 43  1  0
 16 44  1  0
 18 45  1  0
 19 46  1  0
 20 47  1  0
 21 48  1  0
 22 49  1  0
 26 50  1  0
 26 51  1  0
 26 52  1  0
M  END
>  <UniqueID>  (8) 
7

>  <SMILES>  (8) 
CN(Cc1ccccc1)Cc1cnc2n(Cc3ccccc3)c(=O)n(C)c(=O)n12

>  <Energy>  (8) 
100.2556591254943

>  <Genealogy>  (8) 
CN(Cc1ccccc1)Cc1cnc2n(Cc3ccccc3)c(=O)n(C)c(=O)n12 (3D coordinates assigned)
CN(Cc1ccccc1)Cc1cnc2n(Cc3ccccc3)c(=O)n(C)c(=O)n12 (optimized conformer: 100.2556591254943 kcal/mol)

>  <smiles>  (8) 
CN(Cc1ccccc1)Cc1cnc2n(Cc3ccccc3)c(=O)n(C)c(=O)n12

>  <score_type>  (8) 
oracle

>  <origin>  (8) 
adg

>  <m_score__min__energy>  (8) 
-7.9500000000000002

>  <m_primary>  (8) 
energy

$$$$
8:0
     RDKit          3D

 39 41  0  0  0  0  0  0  0  0999 V2000
   55.7860   29.2350   45.2020 O   0  0  0  0  0  0  0  0  0  0  0  0
   56.8070   29.9040   44.8980 C   0  0  0  0  0  0  0  0  0  0  0  0
   56.6330   31.2690   44.4940 N   0  0  0  0  0  0  0  0  0  0  0  0
   57.3970   32.4100   44.9110 C   0  0  0  0  0  0  0  0  0  0  0  0
   58.2030   33.1370   44.0160 C   0  0  0  0  0  0  0  0  0  0  0  0
   58.9580   34.2220   44.4710 C   0  0  0  0  0  0  0  0  0  0  0  0
   58.9300   34.5800   45.8210 C   0  0  0  0  0  0  0  0  0  0  0  0
   58.1520   33.8460   46.7200 C   0  0  0  0  0  0  0  0  0  0  0  0
   57.3960   32.7600   46.2680 C   0  0  0  0  0  0  0  0  0  0  0  0
   58.0940   29.2660   44.8430 N   0  0  0  0  0  0  0  0  0  0  0  0
   58.2830   27.8690   45.1280 C   0  0  0  0  0  0  0  0  0  0  0  0
   57.7710   26.9290   44.2200 C   0  0  0  0  0  0  0  0  0  0  0  0
   57.8930   25.5610   44.4670 C   0  0  0  0  0  0  0  0  0  0  0  0
   58.5400   25.1150   45.6180 C   0  0  0  0  0  0  0  0  0  0  0  0
   59.0790   26.0350   46.5190 C   0  0  0  0  0  0  0  0  0  0  0  0
   58.9650   27.4170   46.2860 C   0  0  0  0  0  0  0  0  0  0  0  0
   59.6110   28.3360   47.1830 N   0  0  0  0  0  0  0  0  0  0  0  0
   59.2770   28.4160   48.5930 C   0  0  0  0  0  0  0  0  0  0  0  0
   60.1550   29.5230   49.1560 C   0  0  0  0  0  0  0  0  0  0  0  0
   60.5970   30.3550   47.9550 C   0  0  0  0  0  0  0  0  0  0  0  0
   60.4300   29.4540   46.7370 C   0  0  0  0  0  0  0  0  0  0  0  0
   58.2392   32.8507   42.9545 H   0  0  0  0  0  0  0  0  0  0  0  0
   59.5758   34.7953   43.7641 H   0  0  0  0  0  0  0  0  0  0  0  0
   59.5195   35.4383   46.1757 H   0  0  0  0  0  0  0  0  0  0  0  0
   58.1342   34.1228   47.7845 H   0  0  0  0  0  0  0  0  0  0  0  0
   56.7965   32.1765   46.9823 H   0  0  0  0  0  0  0  0  0  0  0  0
   58.8480   29.7440   44.3020 H   0  0  0  0  0  0  0  0  0  0  0  0
   57.2685   27.2742   43.3044 H   0  0  0  0  0  0  0  0  0  0  0  0
   57.4783   24.8343   43.7529 H   0  0  0  0  0  0  0  0  0  0  0  0
   58.6261   24.0365   45.8168 H   0  0  0  0  0  0  0  0  0  0  0  0
   59.5978   25.6754   47.4198 H   0  0  0  0  0  0  0  0  0  0  0  0
   58.2135   28.6653   48.7227 H   0  0  0  0  0  0  0  0  0  0  0  0
   59.4467   27.4588   49.1077 H   0  0  0  0  0  0  0  0  0  0  0  0
   59.5836   30.1433   49.8622 H   0  0  0  0  0  0  0  0  0  0  0  0
   61.0166   29.1162   49.7057 H   0  0  0  0  0  0  0  0  0  0  0  0
   59.9662   31.2508   47.8574 H   0  0  0  0  0  0  0  0  0  0  0  0
   61.6363   30.6989   48.0630 H   0  0  0  0  0  0  0  0  0  0  0  0
   59.9267   29.9977   45.9239 H   0  0  0  0  0  0  0  0  0  0  0  0
   61.4010   29.1154   46.3464 H   0  0  0  0  0  0  0  0  0  0  0  0
  1  2  2  0
  2  3  1  0
  3  4  1  0
  4  5  2  0
  5  6  1  0
  6  7  2  0
  7  8  1  0
  8  9  2  0
  2 10  1  0
 10 11  1  0
 11 12  2  0
 12 13  1  0
 13 14  2  0
 14 15  1  0
 15 16  2  0
 16 17  1  0
 17 18  1  0
 18 19  1  0
 19 20  1  0
 20 21  1  0
  9  4  1  0
 16 11  1  0
 21 17  1  0
  5 22  1  0
  6 23  1  0
  7 24  1  0
  8 25  1  0
  9 26  1  0
 10 27  1  0
 12 28  1  0
 13 29  1  0
 14 30  1  0
 15 31  1  0
 18 32  1  0
 18 33  1  0
 19 34  1  0
 19 35  1  0
 20 36  1  0
 20 37  1  0
 21 38  1  0
 21 39  1  0
M  CHG  1   3  -1
M  END
>  <UniqueID>  (9) 
8

>  <SMILES>  (9) 
O=C([N-]c1ccccc1)Nc1ccccc1N1CCCC1

>  <Energy>  (9) 
54.33533673955274

>  <Genealogy>  (9) 
O=C([N-]c1ccccc1)Nc1ccccc1N1CCCC1 (protonated)
O=C([N-]c1ccccc1)Nc1ccccc1N1CCCC1 (3D coordinates assigned)
O=C([N-]c1ccccc1)Nc1ccccc1N1CCCC1 (nonaromatic ring conformer: 54.33533673955274 kcal/mol)

>  <smiles>  (9) 
O=C(Nc1ccccc1)Nc1ccccc1N1CCCC1

>  <score_type>  (9) 
oracle

>  <origin>  (9) 
adg

>  <m_score__min__energy>  (9) 
-8.5

>  <m_primary>  (9) 
energy

$$$$
9:0
     RDKit          3D

 21 22  0  0  0  0  0  0  0  0999 V2000
   55.7800   26.0640   46.3790 O   0  0  0  0  0  0  0  0  0  0  0  0
   56.8380   26.6120   45.9740 C   0  0  0  0  0  0  0  0  0  0  0  0
   56.8410   27.9960   45.6220 N   0  0  0  0  0  0  0  0  0  0  0  0
   57.7980   28.8930   45.9340 C   0  0  0  0  0  0  0  0  0  0  0  0
   57.4220   30.1240   45.4130 C   0  0  0  0  0  0  0  0  0  0  0  0
   58.1670   31.4040   45.5040 C   0  0  0  0  0  0  0  0  0  0  0  0
   59.2430   31.5550   46.3980 C   0  0  0  0  0  0  0  0  0  0  0  0
   59.9380   32.7670   46.4720 C   0  0  0  0  0  0  0  0  0  0  0  0
   59.5710   33.8370   45.6530 C   0  0  0  0  0  0  0  0  0  0  0  0
   58.5090   33.6970   44.7570 C   0  0  0  0  0  0  0  0  0  0  0  0
   57.8120   32.4870   44.6800 C   0  0  0  0  0  0  0  0  0  0  0  0
   56.2100   29.8550   44.7900 C   0  0  0  0  0  0  0  0  0  0  0  0
   55.5030   30.6720   44.1470 O   0  0  0  0  0  0  0  0  0  0  0  0
   55.9070   28.5890   44.9400 O   0  0  0  0  0  0  0  0  0  0  0  0
   57.7634   26.0231   45.8909 H   0  0  0  0  0  0  0  0  0  0  0  0
   58.7167   28.6857   46.5023 H   0  0  0  0  0  0  0  0  0  0  0  0
   59.5397   30.7147   47.0429 H   0  0  0  0  0  0  0  0  0  0  0  0
   60.7753   32.8774   47.1768 H   0  0  0  0  0  0  0  0  0  0  0  0
   60.1181   34.7894   45.7136 H   0  0  0  0  0  0  0  0  0  0  0  0
   58.2204   34.5393   44.1111 H   0  0  0  0  0  0  0  0  0  0  0  0
   56.9793   32.3815   43.9691 H   0  0  0  0  0  0  0  0  0  0  0  0
  1  2  2  0
  2  3  1  0
  3  4  1  0
  4  5  2  0
  5  6  1  0
  6  7  2  0
  7  8  1  0
  8  9  2  0
  9 10  1  0
 10 11  2  0
  5 12  1  0
 12 13  2  0
 12 14  1  0
 14  3  1  0
 11  6  1  0
  2 15  1  0
  4 16  1  0
  7 17  1  0
  8 18  1  0
  9 19  1  0
 10 20  1  0
 11 21  1  0
M  END
>  <UniqueID>  (10) 
9

>  <SMILES>  (10) 
O=Cn1cc(-c2ccccc2)c(=O)o1

>  <Energy>  (10) 
57.25817197546495

>  <Genealogy>  (10) 
O=Cn1cc(-c2ccccc2)c(=O)o1 (3D coordinates assigned)
O=Cn1cc(-c2ccccc2)c(=O)o1 (optimized conformer: 57.25817197546495 kcal/mol)

>  <smiles>  (10) 
O=Cn1cc(-c2ccccc2)c(=O)o1

>  <score_type>  (10) 
oracle

>  <origin>  (10) 
adg

>  <m_score__min__energy>  (10) 
-5.8499999999999996

>  <m_primary>  (10) 
energy

$$$$
10:0
     RDKit          3D

 60 63  0  0  0  0  0  0  0  0999 V2000
   62.2140   32.7690   50.6100 C   0  0  0  0  0  0  0  0  0  0  0  0
   62.4790   33.1010   49.1650 C   0  0  0  0  0  0  0  0  0  0  0  0
   63.8050   33.0620   48.6950 C   0  0  0  0  0  0  0  0  0  0  0  0
   64.0980   33.3750   47.3660 C   0  0  0  0  0  0  0  0  0  0  0  0
   63.0740   33.7390   46.4930 C   0  0  0  0  0  0  0  0  0  0  0  0
   61.7560   33.7970   46.9450 C   0  0  0  0  0  0  0  0  0  0  0  0
   61.4430   33.4960   48.2820 C   0  0  0  0  0  0  0  0  0  0  0  0
   59.7570   33.6100   48.8140 S   0  0  0  0  0  0  0  0  0  0  0  0
   59.2910   32.2560   49.2660 O   0  0  0  0  0  0  0  0  0  0  0  0
   59.6330   34.5760   49.9580 O   0  0  0  0  0  0  0  0  0  0  0  0
   58.7330   34.1450   47.5160 N   0  0  0  0  0  0  0  0  0  0  0  0
   58.4090   33.3370   46.3700 C   0  0  0  0  0  0  0  0  0  0  0  0
   58.7990   31.9900   46.3490 C   0  0  0  0  0  0  0  0  0  0  0  0
   58.4790   31.1750   45.2590 C   0  0  0  0  0  0  0  0  0  0  0  0
   57.7690   31.6910   44.1690 C   0  0  0  0  0  0  0  0  0  0  0  0
   57.4250   30.8130   43.1260 O   0  0  0  0  0  0  0  0  0  0  0  0
   56.9800   29.4650   43.2910 C   0  0  0  0  0  0  0  0  0  0  0  0
   56.0110   29.3280   44.4300 C   0  0  0  0  0  0  0  0  0  0  0  0
   55.1830   30.2540   44.6440 O   0  0  0  0  0  0  0  0  0  0  0  0
   56.0110   28.1470   45.2450 N   0  0  0  0  0  0  0  0  0  0  0  0
   57.1270   27.5540   45.9250 C   0  0  0  0  0  0  0  0  0  0  0  0
   57.9960   28.3890   46.6580 C   0  0  0  0  0  0  0  0  0  0  0  0
   59.1140   27.8740   47.3040 C   0  0  0  0  0  0  0  0  0  0  0  0
   59.3980   26.5210   47.2190 C   0  0  0  0  0  0  0  0  0  0  0  0
   58.5750   25.6750   46.4750 C   0  0  0  0  0  0  0  0  0  0  0  0
   57.4250   26.1550   45.7950 C   0  0  0  0  0  0  0  0  0  0  0  0
   56.6050   25.2180   45.0070 N   0  0  0  0  0  0  0  0  0  0  0  0
   57.2200   24.5610   43.8310 C   0  0  0  0  0  0  0  0  0  0  0  0
   56.2390   23.7050   43.0410 C   0  0  0  0  0  0  0  0  0  0  0  0
   55.4790   22.9230   43.9280 O   0  0  0  0  0  0  0  0  0  0  0  0
   54.5570   23.7630   44.5750 C   0  0  0  0  0  0  0  0  0  0  0  0
   55.2420   24.8390   45.4400 C   0  0  0  0  0  0  0  0  0  0  0  0
   57.4100   33.0520   44.1680 C   0  0  0  0  0  0  0  0  0  0  0  0
   57.7250   33.8660   45.2600 C   0  0  0  0  0  0  0  0  0  0  0  0
   62.7702   33.4658   51.2543 H   0  0  0  0  0  0  0  0  0  0  0  0
   61.1372   32.8596   50.8155 H   0  0  0  0  0  0  0  0  0  0  0  0
   62.5411   31.7391   50.8155 H   0  0  0  0  0  0  0  0  0  0  0  0
   64.6182   32.7823   49.3809 H   0  0  0  0  0  0  0  0  0  0  0  0
   65.1373   33.3343   47.0079 H   0  0  0  0  0  0  0  0  0  0  0  0
   63.3061   33.9810   45.4453 H   0  0  0  0  0  0  0  0  0  0  0  0
   60.9534   34.0811   46.2485 H   0  0  0  0  0  0  0  0  0  0  0  0
   58.4060   35.1370   47.5460 H   0  0  0  0  0  0  0  0  0  0  0  0
   59.3611   31.5714   47.1968 H   0  0  0  0  0  0  0  0  0  0  0  0
   58.7879   30.1193   45.2582 H   0  0  0  0  0  0  0  0  0  0  0  0
   56.4868   29.1378   42.3638 H   0  0  0  0  0  0  0  0  0  0  0  0
   57.8585   28.8422   43.5155 H   0  0  0  0  0  0  0  0  0  0  0  0
   57.7853   29.4669   46.7195 H   0  0  0  0  0  0  0  0  0  0  0  0
   59.7720   28.5398   47.8817 H   0  0  0  0  0  0  0  0  0  0  0  0
   60.2760   26.1118   47.7402 H   0  0  0  0  0  0  0  0  0  0  0  0
   58.8244   24.6054   46.4136 H   0  0  0  0  0  0  0  0  0  0  0  0
   57.6198   25.3397   43.1648 H   0  0  0  0  0  0  0  0  0  0  0  0
   58.0093   23.8926   44.2055 H   0  0  0  0  0  0  0  0  0  0  0  0
   55.5692   24.3563   42.4604 H   0  0  0  0  0  0  0  0  0  0  0  0
   56.7950   23.0472   42.3568 H   0  0  0  0  0  0  0  0  0  0  0  0
   53.9408   24.2629   43.8132 H   0  0  0  0  0  0  0  0  0  0  0  0
   53.9471   23.1369   45.2428 H   0  0  0  0  0  0  0  0  0  0  0  0
   54.6146   25.7423   45.4203 H   0  0  0  0  0  0  0  0  0  0  0  0
   55.3497   24.4023   46.4439 H   0  0  0  0  0  0  0  0  0  0  0  0
   56.8789   33.4772   43.3036 H   0  0  0  0  0  0  0  0  0  0  0  0
   57.4361   34.9274   45.2514 H   0  0  0  0  0  0  0  0  0  0  0  0
  1  2  1  0
  2  3  2  0
  3  4  1  0
  4  5  2  0
  5  6  1  0
  6  7  2  0
  7  8  1  0
  8  9  2  0
  8 10  2  0
  8 11  1  0
 11 12  1  0
 12 13  2  0
 13 14  1  0
 14 15  2  0
 15 16  1  0
 16 17  1  0
 17 18  1  0
 18 19  2  0
 18 20  1  0
 20 21  1  0
 21 22  2  0
 22 23  1  0
 23 24  2  0
 24 25  1  0
 25 26  2  0
 26 27  1  0
 27 28  1  0
 28 29  1  0
 29 30  1  0
 30 31  1  0
 31 32  1  0
 15 33  1  0
 33 34  2  0
  7  2  1  0
 34 12  1  0
 26 21  1  0
 32 27  1  0
  1 35  1  0
  1 36  1  0
  1 37  1  0
  3 38  1  0
  4 39  1  0
  5 40  1  0
  6 41  1  0
 11 42  1  0
 13 43  1  0
 14 44  1  0
 17 45  1  0
 17 46  1  0
 22 47  1  0
 23 48  1  0
 24 49  1  0
 25 50  1  0
 28 51  1  0
 28 52  1  0
 29 53  1  0
 29 54  1  0
 31 55  1  0
 31 56  1  0
 32 57  1  0
 32 58  1  0
 33 59  1  0
 34 60  1  0
M  CHG  1  20  -1
M  END
>  <UniqueID>  (11) 
10

>  <SMILES>  (11) 
Cc1ccccc1S(=O)(=O)Nc1ccc(OCC(=O)[N-]c2ccccc2N2CCOCC2)cc1

>  <Energy>  (11) 
84.20900313995904

>  <Genealogy>  (11) 
Cc1ccccc1S(=O)(=O)Nc1ccc(OCC(=O)[N-]c2ccccc2N2CCOCC2)cc1 (protonated)
Cc1ccccc1S(=O)(=O)Nc1ccc(OCC(=O)[N-]c2ccccc2N2CCOCC2)cc1 (3D coordinates assigned)
Cc1ccccc1S(=O)(=O)Nc1ccc(OCC(=O)[N-]c2ccccc2N2CCOCC2)cc1 (nonaromatic ring conformer: 84.20900313995904 kcal/mol)

>  <smiles>  (11) 
Cc1ccccc1S(=O)(=O)Nc1ccc(OCC(=O)Nc2ccccc2N2CCOCC2)cc1

>  <score_type>  (11) 
oracle

>  <origin>  (11) 
adg

>  <m_score__min__energy>  (11) 
-11.92

>  <m_primary>  (11) 
energy

$$$$
11:0
     RDKit          3D

 37 39  0  0  0  0  0  0  0  0999 V2000
   56.0330   30.7570   44.4960 O   0  0  0  0  0  0  0  0  0  0  0  0
   57.2330   30.8510   44.8710 C   0  0  0  0  0  0  0  0  0  0  0  0
   57.7850   32.1890   45.1790 C   0  0  0  0  0  0  0  0  0  0  0  0
   58.3800   32.9560   44.1650 C   0  0  0  0  0  0  0  0  0  0  0  0
   58.9070   34.2130   44.4700 C   0  0  0  0  0  0  0  0  0  0  0  0
   58.8540   34.6850   45.7440 N   0  0  0  0  0  0  0  0  0  0  0  0
   58.2970   33.9580   46.7490 C   0  0  0  0  0  0  0  0  0  0  0  0
   57.7590   32.6970   46.4880 C   0  0  0  0  0  0  0  0  0  0  0  0
   58.0300   29.6550   44.9940 N   0  0  0  0  0  0  0  0  0  0  0  0
   59.0510   29.5360   46.0450 C   0  0  0  0  0  0  0  0  0  0  0  0
   59.1070   28.0960   46.5610 C   0  0  0  0  0  0  0  0  0  0  0  0
   59.3940   27.1360   45.4690 N   0  0  0  0  0  0  0  0  0  0  0  0
   59.1550   25.7290   45.8610 C   0  0  0  0  0  0  0  0  0  0  0  0
   57.7560   25.2530   45.5660 C   0  0  0  0  0  0  0  0  0  0  0  0
   57.3970   24.3240   44.5960 C   0  0  0  0  0  0  0  0  0  0  0  0
   56.0180   24.0920   44.5360 C   0  0  0  0  0  0  0  0  0  0  0  0
   55.2860   24.8400   45.4470 C   0  0  0  0  0  0  0  0  0  0  0  0
   56.3550   25.7930   46.3270 S   0  0  0  0  0  0  0  0  0  0  0  0
   58.8520   27.4960   44.1350 C   0  0  0  0  0  0  0  0  0  0  0  0
   57.6670   28.4660   44.2130 C   0  0  0  0  0  0  0  0  0  0  0  0
   58.4309   32.5694   43.1364 H   0  0  0  0  0  0  0  0  0  0  0  0
   59.3660   34.8225   43.6777 H   0  0  0  0  0  0  0  0  0  0  0  0
   58.2704   34.3649   47.7706 H   0  0  0  0  0  0  0  0  0  0  0  0
   57.3172   32.1045   47.3027 H   0  0  0  0  0  0  0  0  0  0  0  0
   60.0323   29.8134   45.6325 H   0  0  0  0  0  0  0  0  0  0  0  0
   58.7923   30.2075   46.8770 H   0  0  0  0  0  0  0  0  0  0  0  0
   59.8988   28.0196   47.3208 H   0  0  0  0  0  0  0  0  0  0  0  0
   58.1255   27.8458   46.9900 H   0  0  0  0  0  0  0  0  0  0  0  0
   59.8632   25.0897   45.3134 H   0  0  0  0  0  0  0  0  0  0  0  0
   59.2949   25.6680   46.9504 H   0  0  0  0  0  0  0  0  0  0  0  0
   58.1241   23.8215   43.9411 H   0  0  0  0  0  0  0  0  0  0  0  0
   55.5575   23.3829   43.8323 H   0  0  0  0  0  0  0  0  0  0  0  0
   54.1934   24.8138   45.5719 H   0  0  0  0  0  0  0  0  0  0  0  0
   59.6530   27.9673   43.5465 H   0  0  0  0  0  0  0  0  0  0  0  0
   58.4893   26.5696   43.6657 H   0  0  0  0  0  0  0  0  0  0  0  0
   57.3825   28.7733   43.1958 H   0  0  0  0  0  0  0  0  0  0  0  0
   56.8231   27.9599   44.7046 H   0  0  0  0  0  0  0  0  0  0  0  0
  1  2  2  0
  2  3  1  0
  3  4  2  0
  4  5  1  0
  5  6  2  0
  6  7  1  0
  7  8  2  0
  2  9  1  0
  9 10  1  0
 10 11  1  0
 11 12  1  0
 12 13  1  0
 13 14  1  0
 14 15  2  0
 15 16  1  0
 16 17  2  0
 17 18  1  0
 12 19  1  0
 19 20  1  0
  8  3  1  0
 20  9  1  0
 18 14  1  0
  4 21  1  0
  5 22  1  0
  7 23  1  0
  8 24  1  0
 10 25  1  0
 10 26  1  0
 11 27  1  0
 11 28  1  0
 13 29  1  0
 13 30  1  0
 15 31  1  0
 16 32  1  0
 17 33  1  0
 19 34  1  0
 19 35  1  0
 20 36  1  0
 20 37  1  0
M  END
>  <UniqueID>  (12) 
11

>  <SMILES>  (12) 
O=C(c1ccncc1)N1CCN(Cc2cccs2)CC1

>  <Energy>  (12) 
77.84625716761683

>  <Genealogy>  (12) 
O=C(c1ccncc1)N1CCN(Cc2cccs2)CC1 (3D coordinates assigned)
O=C(c1ccncc1)N1CCN(Cc2cccs2)CC1 (nonaromatic ring conformer: 77.84625716761683 kcal/mol)

>  <smiles>  (12) 
O=C(c1ccncc1)N1CCN(Cc2cccs2)CC1

>  <score_type>  (12) 
oracle

>  <origin>  (12) 
adg

>  <m_score__min__energy>  (12) 
-7.1100000000000003

>  <m_primary>  (12) 
energy

$$$$
12:0
     RDKit          3D

 45 47  0  0  0  0  0  0  0  0999 V2000
   60.7370   34.1890   47.0220 C   0  0  0  0  0  0  0  0  0  0  0  0
   59.6170   33.4470   46.3580 C   0  0  0  0  0  0  0  0  0  0  0  0
   58.3830   34.0790   46.1450 C   0  0  0  0  0  0  0  0  0  0  0  0
   57.3130   33.3710   45.5920 C   0  0  0  0  0  0  0  0  0  0  0  0
   57.4570   32.0140   45.2680 C   0  0  0  0  0  0  0  0  0  0  0  0
   56.4060   31.3060   44.7640 N   0  0  0  0  0  0  0  0  0  0  0  0
   56.5080   29.9770   44.4750 C   0  0  0  0  0  0  0  0  0  0  0  0
   55.4970   29.3570   44.0490 O   0  0  0  0  0  0  0  0  0  0  0  0
   57.7290   29.3030   44.6610 C   0  0  0  0  0  0  0  0  0  0  0  0
   57.8460   27.8110   44.4510 C   0  0  0  0  0  0  0  0  0  0  0  0
   57.7550   27.1160   45.7380 N   0  0  0  0  0  0  0  0  0  0  0  0
   58.6600   27.4560   46.7960 C   0  0  0  0  0  0  0  0  0  0  0  0
   59.8780   26.7790   46.9260 C   0  0  0  0  0  0  0  0  0  0  0  0
   60.7980   27.1710   47.9000 C   0  0  0  0  0  0  0  0  0  0  0  0
   60.5090   28.2440   48.7470 C   0  0  0  0  0  0  0  0  0  0  0  0
   59.2800   28.9210   48.6440 C   0  0  0  0  0  0  0  0  0  0  0  0
   58.9960   30.1270   49.5020 C   0  0  0  0  0  0  0  0  0  0  0  0
   60.1510   30.5720   50.1210 F   0  0  0  0  0  0  0  0  0  0  0  0
   58.4900   31.1390   48.7100 F   0  0  0  0  0  0  0  0  0  0  0  0
   58.0700   29.8170   50.4830 F   0  0  0  0  0  0  0  0  0  0  0  0
   58.3660   28.5280   47.6530 C   0  0  0  0  0  0  0  0  0  0  0  0
   56.4650   25.9880   46.0340 S   0  0  0  0  0  0  0  0  0  0  0  0
   56.4410   24.7250   44.7800 C   0  0  0  0  0  0  0  0  0  0  0  0
   56.6520   25.3490   47.3820 O   0  0  0  0  0  0  0  0  0  0  0  0
   55.1450   26.7120   46.0020 O   0  0  0  0  0  0  0  0  0  0  0  0
   58.8210   30.0180   45.1680 C   0  0  0  0  0  0  0  0  0  0  0  0
   58.6940   31.3730   45.4840 C   0  0  0  0  0  0  0  0  0  0  0  0
   59.7670   32.0900   46.0330 C   0  0  0  0  0  0  0  0  0  0  0  0
   60.6280   34.1168   48.1142 H   0  0  0  0  0  0  0  0  0  0  0  0
   61.6986   33.7487   46.7196 H   0  0  0  0  0  0  0  0  0  0  0  0
   60.7065   35.2462   46.7196 H   0  0  0  0  0  0  0  0  0  0  0  0
   58.2570   35.1379   46.4149 H   0  0  0  0  0  0  0  0  0  0  0  0
   56.3546   33.8794   45.4101 H   0  0  0  0  0  0  0  0  0  0  0  0
   55.4870   31.7830   44.6100 H   0  0  0  0  0  0  0  0  0  0  0  0
   57.0318   27.4704   43.7945 H   0  0  0  0  0  0  0  0  0  0  0  0
   58.8176   27.5864   43.9868 H   0  0  0  0  0  0  0  0  0  0  0  0
   60.1109   25.9359   46.2590 H   0  0  0  0  0  0  0  0  0  0  0  0
   61.7527   26.6339   48.0009 H   0  0  0  0  0  0  0  0  0  0  0  0
   61.2467   28.5613   49.4988 H   0  0  0  0  0  0  0  0  0  0  0  0
   57.4117   29.0648   47.5475 H   0  0  0  0  0  0  0  0  0  0  0  0
   56.4222   23.7343   45.2577 H   0  0  0  0  0  0  0  0  0  0  0  0
   55.5450   24.8471   44.1537 H   0  0  0  0  0  0  0  0  0  0  0  0
   57.3410   24.8130   44.1537 H   0  0  0  0  0  0  0  0  0  0  0  0
   59.7848   29.5097   45.3184 H   0  0  0  0  0  0  0  0  0  0  0  0
   60.7293   31.5871   46.2094 H   0  0  0  0  0  0  0  0  0  0  0  0
  1  2  1  0
  2  3  2  0
  3  4  1  0
  4  5  2  0
  5  6  1  0
  6  7  1  0
  7  8  2  0
  7  9  1  0
  9 10  1  0
 10 11  1  0
 11 12  1  0
 12 13  2  0
 13 14  1  0
 14 15  2  0
 15 16  1  0
 16 17  1  0
 17 18  1  0
 17 19  1  0
 17 20  1  0
 16 21  2  0
 11 22  1  0
 22 23  1  0
 22 24  2  0
 22 25  2  0
  9 26  2  0
 26 27  1  0
 27 28  2  0
 28  2  1  0
 27  5  1  0
 21 12  1  0
  1 29  1  0
  1 30  1  0
  1 31  1  0
  3 32  1  0
  4 33  1  0
  6 34  1  0
 10 35  1  0
 10 36  1  0
 13 37  1  0
 14 38  1  0
 15 39  1  0
 21 40  1  0
 23 41  1  0
 23 42  1  0
 23 43  1  0
 26 44  1  0
 28 45  1  0
M  END
>  <UniqueID>  (13) 
12

>  <SMILES>  (13) 
Cc1ccc2[nH]c(=O)c(CN(c3cccc(C(F)(F)F)c3)S(C)(=O)=O)cc2c1

>  <Energy>  (13) 
50.29100363941955

>  <Genealogy>  (13) 
Cc1ccc2[nH]c(=O)c(CN(c3cccc(C(F)(F)F)c3)S(C)(=O)=O)cc2c1 (3D coordinates assigned)
Cc1ccc2[nH]c(=O)c(CN(c3cccc(C(F)(F)F)c3)S(C)(=O)=O)cc2c1 (optimized conformer: 50.29100363941955 kcal/mol)

>  <smiles>  (13) 
Cc1ccc2[nH]c(=O)c(CN(c3cccc(C(F)(F)F)c3)S(C)(=O)=O)cc2c1

>  <score_type>  (13) 
oracle

>  <origin>  (13) 
adg

>  <m_score__min__energy>  (13) 
-8.8100000000000005

>  <m_primary>  (13) 
energy

$$$$
13:0
     RDKit          3D

 48 50  0  0  1  0  0  0  0  0999 V2000
   58.7270   32.8820   51.2180 C   0  0  0  0  0  0  0  0  0  0  0  0
   59.2690   33.0620   49.8380 C   0  0  0  0  0  0  0  0  0  0  0  0
   58.5380   32.7270   48.7140 C   0  0  0  0  0  0  0  0  0  0  0  0
   59.0010   32.8770   47.4310 C   0  0  0  0  0  0  0  0  0  0  0  0
   58.3030   32.5600   46.3840 N   0  0  0  0  0  0  0  0  0  0  0  0
   58.2740   31.2040   45.9620 C   0  0  0  0  0  0  0  0  0  0  0  0
   59.0120   30.2400   46.6140 C   0  0  0  0  0  0  0  0  0  0  0  0
   58.9960   28.9210   46.2200 C   0  0  0  0  0  0  0  0  0  0  0  0
   58.2320   28.4780   45.1350 C   0  0  0  0  0  0  0  0  0  0  0  0
   58.2730   27.1150   44.7980 N   0  0  0  0  0  0  0  0  0  0  0  0
   57.4050   26.0990   45.2480 C   0  0  0  0  0  0  0  0  0  0  0  0
   56.4700   26.3540   46.0340 O   0  0  0  0  0  0  0  0  0  0  0  0
   57.5300   24.6900   44.8370 C   0  0  0  0  0  0  0  0  0  0  0  0
   56.5070   24.1280   44.1040 C   0  0  0  0  0  0  0  0  0  0  0  0
   56.5620   22.7940   43.6830 C   0  0  0  0  0  0  0  0  0  0  0  0
   57.6610   22.0160   44.0020 C   0  0  0  0  0  0  0  0  0  0  0  0
   58.6770   22.5860   44.7350 C   0  0  0  0  0  0  0  0  0  0  0  0
   59.8220   21.8010   45.0780 N   0  0  0  0  0  0  0  0  0  0  0  0
   58.6090   23.9090   45.1460 C   0  0  0  0  0  0  0  0  0  0  0  0
   57.5020   29.4450   44.4930 C   0  0  0  0  0  0  0  0  0  0  0  0
   57.5140   30.7870   44.8900 C   0  0  0  0  0  0  0  0  0  0  0  0
   60.2590   33.3890   47.2990 N   0  0  0  0  0  0  0  0  0  0  0  0
   60.9680   33.7140   48.3940 C   0  0  0  0  0  0  0  0  0  0  0  0
   62.7410   33.8430   46.0090 N   0  0  0  0  0  0  0  0  0  0  0  0
   63.0230   33.6110   47.2590 C   0  0  0  0  0  0  0  0  0  0  0  0
   62.1520   34.1940   48.2200 N   0  0  0  0  0  0  0  0  0  0  0  0
   64.1400   32.8210   47.5990 N   0  0  0  0  0  0  0  0  0  0  0  0
   60.4990   33.5590   49.6470 N   0  0  0  0  0  0  0  0  0  0  0  0
   59.5034   33.1398   51.9534 H   0  0  0  0  0  0  0  0  0  0  0  0
   57.8561   33.5392   51.3585 H   0  0  0  0  0  0  0  0  0  0  0  0
   58.4223   31.8344   51.3585 H   0  0  0  0  0  0  0  0  0  0  0  0
   57.5273   32.3167   48.8560 H   0  0  0  0  0  0  0  0  0  0  0  0
   59.6319   30.5329   47.4742 H   0  0  0  0  0  0  0  0  0  0  0  0
   59.6035   28.1919   46.7762 H   0  0  0  0  0  0  0  0  0  0  0  0
   59.0360   26.8070   44.1360 H   0  0  0  0  0  0  0  0  0  0  0  0
   55.6302   24.7396   43.8447 H   0  0  0  0  0  0  0  0  0  0  0  0
   55.7336   22.3653   43.1000 H   0  0  0  0  0  0  0  0  0  0  0  0
   57.7212   20.9667   43.6774 H   0  0  0  0  0  0  0  0  0  0  0  0
   60.7560   22.2550   44.9180 H   0  0  0  0  0  0  0  0  0  0  0  0
   59.7300   20.8220   45.4690 H   0  0  0  0  0  0  0  0  0  0  0  0
   59.4369   24.3371   45.7303 H   0  0  0  0  0  0  0  0  0  0  0  0
   56.8824   29.1545   43.6318 H   0  0  0  0  0  0  0  0  0  0  0  0
   56.9077   31.5204   44.3382 H   0  0  0  0  0  0  0  0  0  0  0  0
   60.6270   33.5090   46.3200 H   0  0  0  0  0  0  0  0  0  0  0  0
   63.4540   33.9240   45.2780 H   0  0  0  0  0  0  0  0  0  0  0  0
   64.9750   32.8540   46.9550 H   0  0  0  0  0  0  0  0  0  0  0  0
   64.1250   32.2230   48.4690 H   0  0  0  0  0  0  0  0  0  0  0  0
   61.0550   33.8140   50.5020 H   0  0  0  0  0  0  0  0  0  0  0  0
  1  2  1  0
  2  3  2  0
  3  4  1  0
  4  5  2  0
  5  6  1  0
  6  7  2  0
  7  8  1  0
  8  9  2  0
  9 10  1  0
 10 11  1  0
 11 12  2  0
 11 13  1  0
 13 14  2  0
 14 15  1  0
 15 16  2  0
 16 17  1  0
 17 18  1  0
 17 19  2  0
  9 20  1  0
 20 21  2  0
  4 22  1  0
 22 23  1  0
 23 24  2  0
 24 25  1  0
 25 26  2  0
 25 27  1  0
 23 28  1  0
 28  2  1  0
 21  6  1  0
 19 13  1  0
  1 29  1  0
  1 30  1  0
  1 31  1  0
  3 32  1  0
  7 33  1  0
  8 34  1  0
 10 35  1  0
 14 36  1  0
 15 37  1  0
 16 38  1  0
 18 39  1  0
 18 40  1  0
 19 41  1  0
 20 42  1  0
 21 43  1  0
 22 44  1  0
 26 45  1  0
 27 46  1  0
 27 47  1  0
 28 48  1  0
M  END
>  <smiles>  (14) 
Cc1cc(=Nc2ccc(NC(=O)c3cccc(N)c3)cc2)[nH]c(=NC(=N)N)[nH]1

>  <score_type>  (14) 
oracle

>  <origin>  (14) 
adg

>  <m_score__min__energy>  (14) 
-8.3499999999999996

>  <m_primary>  (14) 
energy

$$$$
14:0
     RDKit          3D

 43 46  0  0  0  0  0  0  0  0999 V2000
   58.4150   27.1630   46.4520 O   0  0  0  0  0  0  0  0  0  0  0  0
   57.6840   26.7460   45.5120 C   0  0  0  0  0  0  0  0  0  0  0  0
   57.4000   27.6060   44.3950 N   0  0  0  0  0  0  0  0  0  0  0  0
   57.4960   29.0410   44.4470 C   0  0  0  0  0  0  0  0  0  0  0  0
   56.3730   29.8190   44.1370 C   0  0  0  0  0  0  0  0  0  0  0  0
   56.4340   31.2140   44.2000 C   0  0  0  0  0  0  0  0  0  0  0  0
   57.6240   31.8550   44.5890 C   0  0  0  0  0  0  0  0  0  0  0  0
   57.7450   33.2520   44.6640 O   0  0  0  0  0  0  0  0  0  0  0  0
   57.8460   34.0060   45.8720 C   0  0  0  0  0  0  0  0  0  0  0  0
   59.2260   33.9090   46.4430 C   0  0  0  0  0  0  0  0  0  0  0  0
   59.5350   33.7760   47.7880 C   0  0  0  0  0  0  0  0  0  0  0  0
   60.8710   33.7390   47.8740 N   0  0  0  0  0  0  0  0  0  0  0  0
   61.6710   33.6160   48.9630 C   0  0  0  0  0  0  0  0  0  0  0  0
   63.0610   33.6050   48.7630 C   0  0  0  0  0  0  0  0  0  0  0  0
   64.1480   33.4470   50.1290 Cl  0  0  0  0  0  0  0  0  0  0  0  0
   63.5740   33.7220   47.4550 C   0  0  0  0  0  0  0  0  0  0  0  0
   62.7030   33.8480   46.3590 C   0  0  0  0  0  0  0  0  0  0  0  0
   61.3340   33.8520   46.6180 C   0  0  0  0  0  0  0  0  0  0  0  0
   60.3570   33.9640   45.6970 N   0  0  0  0  0  0  0  0  0  0  0  0
   58.7390   31.0780   44.9230 C   0  0  0  0  0  0  0  0  0  0  0  0
   58.6770   29.6820   44.8600 C   0  0  0  0  0  0  0  0  0  0  0  0
   57.1690   25.3560   45.5500 C   0  0  0  0  0  0  0  0  0  0  0  0
   56.6680   24.8190   46.7510 C   0  0  0  0  0  0  0  0  0  0  0  0
   56.1760   23.5110   46.7930 C   0  0  0  0  0  0  0  0  0  0  0  0
   56.1710   22.7270   45.6380 C   0  0  0  0  0  0  0  0  0  0  0  0
   56.6560   23.2500   44.4360 C   0  0  0  0  0  0  0  0  0  0  0  0
   56.6360   22.2680   42.9820 Cl  0  0  0  0  0  0  0  0  0  0  0  0
   57.1500   24.5590   44.3890 C   0  0  0  0  0  0  0  0  0  0  0  0
   57.2280   27.1620   43.4640 H   0  0  0  0  0  0  0  0  0  0  0  0
   55.4344   29.3275   43.8412 H   0  0  0  0  0  0  0  0  0  0  0  0
   55.5476   31.8131   43.9443 H   0  0  0  0  0  0  0  0  0  0  0  0
   57.6166   35.0606   45.6595 H   0  0  0  0  0  0  0  0  0  0  0  0
   57.1317   33.5995   46.6031 H   0  0  0  0  0  0  0  0  0  0  0  0
   58.8213   33.7131   48.6226 H   0  0  0  0  0  0  0  0  0  0  0  0
   61.2435   33.5275   49.9726 H   0  0  0  0  0  0  0  0  0  0  0  0
   64.6617   33.7146   47.2913 H   0  0  0  0  0  0  0  0  0  0  0  0
   63.0886   33.9402   45.3329 H   0  0  0  0  0  0  0  0  0  0  0  0
   59.6717   31.5690   45.2376 H   0  0  0  0  0  0  0  0  0  0  0  0
   59.5572   29.0824   45.1352 H   0  0  0  0  0  0  0  0  0  0  0  0
   56.6636   25.4333   47.6635 H   0  0  0  0  0  0  0  0  0  0  0  0
   55.7921   23.0989   47.7379 H   0  0  0  0  0  0  0  0  0  0  0  0
   55.7853   21.6975   45.6739 H   0  0  0  0  0  0  0  0  0  0  0  0
   57.5257   24.9676   43.4393 H   0  0  0  0  0  0  0  0  0  0  0  0
  1  2  2  0
  2  3  1  0
  3  4  1  0
  4  5  2  0
  5  6  1  0
  6  7  2  0
  7  8  1  0
  8  9  1  0
  9 10  1  0
 10 11  2  0
 11 12  1  0
 12 13  1  0
 13 14  2  0
 14 15  1  0
 14 16  1  0
 16 17  2  0
 17 18  1  0
 18 19  2  0
  7 20  1  0
 20 21  2  0
  2 22  1  0
 22 23  2  0
 23 24  1  0
 24 25  2  0
 25 26  1  0
 26 27  1  0
 26 28  2  0
 21  4  1  0
 28 22  1  0
 19 10  1  0
 18 12  1  0
  3 29  1  0
  5 30  1  0
  6 31  1  0
  9 32  1  0
  9 33  1  0
 11 34  1  0
 13 35  1  0
 16 36  1  0
 17 37  1  0
 20 38  1  0
 21 39  1  0
 23 40  1  0
 24 41  1  0
 25 42  1  0
 28 43  1  0
M  END
>  <UniqueID>  (15) 
13

>  <SMILES>  (15) 
O=C(Nc1ccc(OCc2cn3cc(Cl)ccc3n2)cc1)c1cccc(Cl)c1

>  <Energy>  (15) 
86.66817293583391

>  <Genealogy>  (15) 
O=C(Nc1ccc(OCc2cn3cc(Cl)ccc3n2)cc1)c1cccc(Cl)c1 (3D coordinates assigned)
O=C(Nc1ccc(OCc2cn3cc(Cl)ccc3n2)cc1)c1cccc(Cl)c1 (optimized conformer: 86.66817293583391 kcal/mol)

>  <smiles>  (15) 
O=C(Nc1ccc(OCc2cn3cc(Cl)ccc3n2)cc1)c1cccc(Cl)c1

>  <score_type>  (15) 
oracle

>  <origin>  (15) 
adg

>  <m_score__min__energy>  (15) 
-8.7899999999999991

>  <m_primary>  (15) 
energy

$$$$
15:0
     RDKit          3D

 78 82  0  0  0  0  0  0  0  0999 V2000
   59.0960   31.3580   52.9510 C   0  0  0  0  0  0  0  0  0  0  0  0
   58.8770   31.9910   51.5620 C   0  0  0  0  0  0  0  0  0  0  0  0
   57.3730   31.9040   51.2080 C   0  0  0  0  0  0  0  0  0  0  0  0
   59.2560   33.4950   51.5930 C   0  0  0  0  0  0  0  0  0  0  0  0
   60.7360   33.7040   51.7110 C   0  0  0  0  0  0  0  0  0  0  0  0
   61.6000   32.9050   51.0680 C   0  0  0  0  0  0  0  0  0  0  0  0
   63.0550   33.1880   51.1720 C   0  0  0  0  0  0  0  0  0  0  0  0
   63.8760   33.1180   50.0330 C   0  0  0  0  0  0  0  0  0  0  0  0
   65.2460   33.3830   50.1320 C   0  0  0  0  0  0  0  0  0  0  0  0
   65.8070   33.7270   51.3700 C   0  0  0  0  0  0  0  0  0  0  0  0
   67.1720   33.9910   51.4850 O   0  0  0  0  0  0  0  0  0  0  0  0
   64.9930   33.8090   52.5030 C   0  0  0  0  0  0  0  0  0  0  0  0
   63.6230   33.5440   52.4070 C   0  0  0  0  0  0  0  0  0  0  0  0
   61.0890   31.7150   50.3250 C   0  0  0  0  0  0  0  0  0  0  0  0
   61.9050   31.0390   49.4050 C   0  0  0  0  0  0  0  0  0  0  0  0
   61.4430   29.9050   48.7390 C   0  0  0  0  0  0  0  0  0  0  0  0
   60.1520   29.4140   48.9720 C   0  0  0  0  0  0  0  0  0  0  0  0
   59.6720   28.2090   48.2420 C   0  0  0  0  0  0  0  0  0  0  0  0
   59.8080   27.0630   48.7540 O   0  0  0  0  0  0  0  0  0  0  0  0
   59.0670   28.3060   46.9060 C   0  0  0  0  0  0  0  0  0  0  0  0
   59.7820   28.8760   45.8430 C   0  0  0  0  0  0  0  0  0  0  0  0
   59.2080   28.9480   44.5710 C   0  0  0  0  0  0  0  0  0  0  0  0
   57.9140   28.4560   44.3430 C   0  0  0  0  0  0  0  0  0  0  0  0
   57.3860   28.5540   43.0450 O   0  0  0  0  0  0  0  0  0  0  0  0
   56.4210   29.5180   42.6150 C   0  0  0  0  0  0  0  0  0  0  0  0
   56.5400   30.8270   43.4120 C   0  0  0  0  0  0  0  0  0  0  0  0
   57.6920   31.7370   42.9390 C   0  0  0  0  0  0  0  0  0  0  0  0
   58.1780   32.7570   43.9860 C   0  0  0  0  0  0  0  0  0  0  0  0
   57.2890   32.7940   45.2380 C   0  0  0  0  0  0  0  0  0  0  0  0
   57.9220   32.0090   46.3920 C   0  0  0  0  0  0  0  0  0  0  0  0
   59.1060   32.7560   46.9460 C   0  0  0  0  0  0  0  0  0  0  0  0
   60.4090   32.4500   46.5160 C   0  0  0  0  0  0  0  0  0  0  0  0
   61.5010   33.1760   47.0070 C   0  0  0  0  0  0  0  0  0  0  0  0
   61.2990   34.2150   47.9210 C   0  0  0  0  0  0  0  0  0  0  0  0
   60.0060   34.5330   48.3410 C   0  0  0  0  0  0  0  0  0  0  0  0
   58.9120   33.8100   47.8540 C   0  0  0  0  0  0  0  0  0  0  0  0
   57.2030   27.8800   45.4150 C   0  0  0  0  0  0  0  0  0  0  0  0
   57.7760   27.8110   46.6870 C   0  0  0  0  0  0  0  0  0  0  0  0
   59.3240   30.0960   49.8800 C   0  0  0  0  0  0  0  0  0  0  0  0
   59.7620   31.2650   50.5380 C   0  0  0  0  0  0  0  0  0  0  0  0
   58.8426   32.0903   53.7317 H   0  0  0  0  0  0  0  0  0  0  0  0
   58.4520   30.4724   53.0560 H   0  0  0  0  0  0  0  0  0  0  0  0
   60.1496   31.0597   53.0560 H   0  0  0  0  0  0  0  0  0  0  0  0
   56.7798   31.8697   52.1337 H   0  0  0  0  0  0  0  0  0  0  0  0
   57.0832   32.7869   50.6193 H   0  0  0  0  0  0  0  0  0  0  0  0
   57.1869   30.9936   50.6193 H   0  0  0  0  0  0  0  0  0  0  0  0
   58.9044   33.9681   50.6643 H   0  0  0  0  0  0  0  0  0  0  0  0
   58.7800   33.9450   52.4767 H   0  0  0  0  0  0  0  0  0  0  0  0
   61.1190   34.5253   52.3345 H   0  0  0  0  0  0  0  0  0  0  0  0
   63.4389   32.8535   49.0589 H   0  0  0  0  0  0  0  0  0  0  0  0
   65.8837   33.3214   49.2378 H   0  0  0  0  0  0  0  0  0  0  0  0
   67.7330   33.5520   52.2060 H   0  0  0  0  0  0  0  0  0  0  0  0
   65.4314   34.0830   53.4740 H   0  0  0  0  0  0  0  0  0  0  0  0
   62.9875   33.6146   53.3021 H   0  0  0  0  0  0  0  0  0  0  0  0
   62.9219   31.4086   49.2069 H   0  0  0  0  0  0  0  0  0  0  0  0
   62.0996   29.3899   48.0224 H   0  0  0  0  0  0  0  0  0  0  0  0
   60.7964   29.2671   46.0107 H   0  0  0  0  0  0  0  0  0  0  0  0
   59.7756   29.3943   43.7412 H   0  0  0  0  0  0  0  0  0  0  0  0
   56.5812   29.7330   41.5482 H   0  0  0  0  0  0  0  0  0  0  0  0
   55.4172   29.1009   42.7835 H   0  0  0  0  0  0  0  0  0  0  0  0
   55.5954   31.3818   43.3120 H   0  0  0  0  0  0  0  0  0  0  0  0
   56.7554   30.5506   44.4547 H   0  0  0  0  0  0  0  0  0  0  0  0
   58.5431   31.0970   42.6633 H   0  0  0  0  0  0  0  0  0  0  0  0
   57.2990   32.3220   42.0944 H   0  0  0  0  0  0  0  0  0  0  0  0
   59.2010   32.4893   44.2891 H   0  0  0  0  0  0  0  0  0  0  0  0
   58.1377   33.7533   43.5215 H   0  0  0  0  0  0  0  0  0  0  0  0
   57.1510   33.8400   45.5490 H   0  0  0  0  0  0  0  0  0  0  0  0
   56.3220   32.3312   44.9917 H   0  0  0  0  0  0  0  0  0  0  0  0
   57.1759   31.8700   47.1883 H   0  0  0  0  0  0  0  0  0  0  0  0
   58.2598   31.0318   46.0166 H   0  0  0  0  0  0  0  0  0  0  0  0
   60.5711   31.6380   45.7918 H   0  0  0  0  0  0  0  0  0  0  0  0
   62.5195   32.9287   46.6732 H   0  0  0  0  0  0  0  0  0  0  0  0
   62.1585   34.7815   48.3089 H   0  0  0  0  0  0  0  0  0  0  0  0
   59.8473   35.3536   49.0562 H   0  0  0  0  0  0  0  0  0  0  0  0
   57.8948   34.0681   48.1837 H   0  0  0  0  0  0  0  0  0  0  0  0
   56.1909   27.4824   45.2490 H   0  0  0  0  0  0  0  0  0  0  0  0
   57.2109   27.3662   47.5194 H   0  0  0  0  0  0  0  0  0  0  0  0
   58.3137   29.7106   50.0819 H   0  0  0  0  0  0  0  0  0  0  0  0
  1  2  1  0
  2  3  1  0
  2  4  1  0
  4  5  1  0
  5  6  2  0
  6  7  1  0
  7  8  2  0
  8  9  1  0
  9 10  2  0
 10 11  1  0
 10 12  1  0
 12 13  2  0
  6 14  1  0
 14 15  2  0
 15 16  1  0
 16 17  2  0
 17 18  1  0
 18 19  2  0
 18 20  1  0
 20 21  2  0
 21 22  1  0
 22 23  2  0
 23 24  1  0
 24 25  1  0
 25 26  1  0
 26 27  1  0
 27 28  1  0
 28 29  1  0
 29 30  1  0
 30 31  1  0
 31 32  2  0
 32 33  1  0
 33 34  2  0
 34 35  1  0
 35 36  2  0
 23 37  1  0
 37 38  2  0
 17 39  1  0
 39 40  2  0
 40  2  1  0
 13  7  1  0
 40 14  1  0
 38 20  1  0
 36 31  1  0
  1 41  1  0
  1 42  1  0
  1 43  1  0
  3 44  1  0
  3 45  1  0
  3 46  1  0
  4 47  1  0
  4 48  1  0
  5 49  1  0
  8 50  1  0
  9 51  1  0
 11 52  1  0
 12 53  1  0
 13 54  1  0
 15 55  1  0
 16 56  1  0
 21 57  1  0
 22 58  1  0
 25 59  1  0
 25 60  1  0
 26 61  1  0
 26 62  1  0
 27 63  1  0
 27 64  1  0
 28 65  1  0
 28 66  1  0
 29 67  1  0
 29 68  1  0
 30 69  1  0
 30 70  1  0
 32 71  1  0
 33 72  1  0
 34 73  1  0
 35 74  1  0
 36 75  1  0
 37 76  1  0
 38 77  1  0
 39 78  1  0
M  END
>  <UniqueID>  (16) 
14

>  <SMILES>  (16) 
CC1(C)CC=C(c2ccc(O)cc2)c2ccc(C(=O)c3ccc(OCCCCCCc4ccccc4)cc3)cc21

>  <Energy>  (16) 
93.40859150226288

>  <Genealogy>  (16) 
CC1(C)CC=C(c2ccc(O)cc2)c2ccc(C(=O)c3ccc(OCCCCCCc4ccccc4)cc3)cc21 (3D coordinates assigned)
CC1(C)CC=C(c2ccc(O)cc2)c2ccc(C(=O)c3ccc(OCCCCCCc4ccccc4)cc3)cc21 (nonaromatic ring conformer: 93.40859150226288 kcal/mol)

>  <smiles>  (16) 
CC1(C)CC=C(c2ccc(O)cc2)c2ccc(C(=O)c3ccc(OCCCCCCc4ccccc4)cc3)cc21

>  <score_type>  (16) 
oracle

>  <origin>  (16) 
adg

>  <m_score__min__energy>  (16) 
-9.7899999999999991

>  <m_primary>  (16) 
energy

$$$$
16:0
     RDKit          3D

 42 45  0  0  0  0  0  0  0  0999 V2000
   61.1550   29.8120   46.2810 O   0  0  0  0  0  0  0  0  0  0  0  0
   60.3730   30.5620   46.9300 C   0  0  0  0  0  0  0  0  0  0  0  0
   58.9980   30.1830   47.0870 N   0  0  0  0  0  0  0  0  0  0  0  0
   58.3630   29.2120   46.2410 C   0  0  0  0  0  0  0  0  0  0  0  0
   57.4650   29.4770   45.2060 C   0  0  0  0  0  0  0  0  0  0  0  0
   56.8850   30.7960   44.8700 C   0  0  0  0  0  0  0  0  0  0  0  0
   55.7480   30.8460   44.3280 O   0  0  0  0  0  0  0  0  0  0  0  0
   57.6140   32.0570   45.1400 C   0  0  0  0  0  0  0  0  0  0  0  0
   57.5130   32.6840   46.3970 C   0  0  0  0  0  0  0  0  0  0  0  0
   58.1860   33.8830   46.6480 C   0  0  0  0  0  0  0  0  0  0  0  0
   58.9620   34.4740   45.6480 C   0  0  0  0  0  0  0  0  0  0  0  0
   59.8060   35.9780   45.9650 Cl  0  0  0  0  0  0  0  0  0  0  0  0
   59.0610   33.8670   44.3920 C   0  0  0  0  0  0  0  0  0  0  0  0
   58.3890   32.6680   44.1340 C   0  0  0  0  0  0  0  0  0  0  0  0
   58.5160   32.0940   42.9100 F   0  0  0  0  0  0  0  0  0  0  0  0
   57.1350   28.3240   44.5750 N   0  0  0  0  0  0  0  0  0  0  0  0
   57.8360   27.3500   45.1820 C   0  0  0  0  0  0  0  0  0  0  0  0
   57.8510   25.9950   44.8520 C   0  0  0  0  0  0  0  0  0  0  0  0
   58.6990   25.1480   45.5880 C   0  0  0  0  0  0  0  0  0  0  0  0
   59.5120   25.6680   46.6190 C   0  0  0  0  0  0  0  0  0  0  0  0
   59.4770   27.0390   46.9310 C   0  0  0  0  0  0  0  0  0  0  0  0
   58.6080   27.8520   46.2010 C   0  0  0  0  0  0  0  0  0  0  0  0
   60.8990   31.7990   47.5550 C   0  0  0  0  0  0  0  0  0  0  0  0
   60.2010   32.4070   48.6170 C   0  0  0  0  0  0  0  0  0  0  0  0
   60.6950   33.5700   49.2150 C   0  0  0  0  0  0  0  0  0  0  0  0
   61.8930   34.1350   48.7680 C   0  0  0  0  0  0  0  0  0  0  0  0
   62.5990   33.5350   47.7240 C   0  0  0  0  0  0  0  0  0  0  0  0
   62.1090   32.3720   47.1210 C   0  0  0  0  0  0  0  0  0  0  0  0
   58.4770   30.5170   47.9260 H   0  0  0  0  0  0  0  0  0  0  0  0
   56.8997   32.2266   47.1874 H   0  0  0  0  0  0  0  0  0  0  0  0
   58.1045   34.3621   47.6348 H   0  0  0  0  0  0  0  0  0  0  0  0
   59.6698   34.3344   43.6040 H   0  0  0  0  0  0  0  0  0  0  0  0
   56.4640   28.2040   43.7840 H   0  0  0  0  0  0  0  0  0  0  0  0
   57.2197   25.6012   44.0418 H   0  0  0  0  0  0  0  0  0  0  0  0
   58.7292   24.0726   45.3589 H   0  0  0  0  0  0  0  0  0  0  0  0
   60.1770   24.9964   47.1818 H   0  0  0  0  0  0  0  0  0  0  0  0
   60.1137   27.4571   47.7245 H   0  0  0  0  0  0  0  0  0  0  0  0
   59.2612   31.9637   48.9780 H   0  0  0  0  0  0  0  0  0  0  0  0
   60.1398   34.0416   50.0392 H   0  0  0  0  0  0  0  0  0  0  0  0
   62.2789   35.0514   49.2385 H   0  0  0  0  0  0  0  0  0  0  0  0
   63.5433   33.9780   47.3746 H   0  0  0  0  0  0  0  0  0  0  0  0
   62.6732   31.9020   46.3020 H   0  0  0  0  0  0  0  0  0  0  0  0
  1  2  2  0
  2  3  1  0
  3  4  1  0
  4  5  2  0
  5  6  1  0
  6  7  2  0
  6  8  1  0
  8  9  2  0
  9 10  1  0
 10 11  2  0
 11 12  1  0
 11 13  1  0
 13 14  2  0
 14 15  1  0
  5 16  1  0
 16 17  1  0
 17 18  2  0
 18 19  1  0
 19 20  2  0
 20 21  1  0
 21 22  2  0
  2 23  1  0
 23 24  2  0
 24 25  1  0
 25 26  2  0
 26 27  1  0
 27 28  2  0
 22  4  1  0
 28 23  1  0
 14  8  1  0
 22 17  1  0
  3 29  1  0
  9 30  1  0
 10 31  1  0
 13 32  1  0
 16 33  1  0
 18 34  1  0
 19 35  1  0
 20 36  1  0
 21 37  1  0
 24 38  1  0
 25 39  1  0
 26 40  1  0
 27 41  1  0
 28 42  1  0
M  END
>  <UniqueID>  (17) 
15

>  <SMILES>  (17) 
O=C(Nc1c(C(=O)c2ccc(Cl)cc2F)[nH]c2ccccc12)c1ccccc1

>  <Energy>  (17) 
92.43134879698154

>  <Genealogy>  (17) 
O=C(Nc1c(C(=O)c2ccc(Cl)cc2F)[nH]c2ccccc12)c1ccccc1 (3D coordinates assigned)
O=C(Nc1c(C(=O)c2ccc(Cl)cc2F)[nH]c2ccccc12)c1ccccc1 (optimized conformer: 92.43134879698154 kcal/mol)

>  <smiles>  (17) 
O=C(Nc1c(C(=O)c2ccc(Cl)cc2F)[nH]c2ccccc12)c1ccccc1

>  <score_type>  (17) 
oracle

>  <origin>  (17) 
adg

>  <m_score__min__energy>  (17) 
-8.9000000000000004

>  <m_primary>  (17) 
energy

$$$$
17:0
     RDKit          3D

 54 56  0  0  0  0  0  0  0  0999 V2000
   57.8760   32.6510   40.9270 C   0  0  0  0  0  0  0  0  0  0  0  0
   58.1370   32.4820   42.3170 O   0  0  0  0  0  0  0  0  0  0  0  0
   57.6030   31.4480   43.1020 C   0  0  0  0  0  0  0  0  0  0  0  0
   58.0240   31.2080   44.4230 C   0  0  0  0  0  0  0  0  0  0  0  0
   57.4670   30.1590   45.1630 C   0  0  0  0  0  0  0  0  0  0  0  0
   56.4810   29.3310   44.5920 C   0  0  0  0  0  0  0  0  0  0  0  0
   55.8910   28.2610   45.2830 O   0  0  0  0  0  0  0  0  0  0  0  0
   56.5830   27.1290   45.8130 C   0  0  0  0  0  0  0  0  0  0  0  0
   58.0000   27.0340   45.2370 C   0  0  0  0  0  0  0  0  0  0  0  0
   58.9790   27.5580   46.1850 N   0  0  0  0  0  0  0  0  0  0  0  0
   60.0040   28.5240   45.9080 C   0  0  0  0  0  0  0  0  0  0  0  0
   60.2320   28.8210   44.7050 O   0  0  0  0  0  0  0  0  0  0  0  0
   60.7490   29.2600   47.0050 C   0  0  0  0  0  0  0  0  0  0  0  0
   60.8290   30.7750   46.7020 C   0  0  0  0  0  0  0  0  0  0  0  0
   61.1170   31.5670   47.9850 C   0  0  0  0  0  0  0  0  0  0  0  0
   60.0770   31.3780   49.0290 N   0  0  0  0  0  0  0  0  0  0  0  0
   59.0300   32.7730   49.1350 S   0  0  0  0  0  0  0  0  0  0  0  0
   59.6570   33.8160   50.0150 O   0  0  0  0  0  0  0  0  0  0  0  0
   57.7070   32.3610   49.7170 O   0  0  0  0  0  0  0  0  0  0  0  0
   58.7850   33.4620   47.5320 C   0  0  0  0  0  0  0  0  0  0  0  0
   59.8340   34.1250   46.8780 C   0  0  0  0  0  0  0  0  0  0  0  0
   59.6350   34.6710   45.6070 C   0  0  0  0  0  0  0  0  0  0  0  0
   58.3880   34.5560   44.9830 C   0  0  0  0  0  0  0  0  0  0  0  0
   57.3430   33.8910   45.6280 C   0  0  0  0  0  0  0  0  0  0  0  0
   57.5390   33.3420   46.8990 C   0  0  0  0  0  0  0  0  0  0  0  0
   59.2610   30.1540   48.8700 C   0  0  0  0  0  0  0  0  0  0  0  0
   60.1110   28.9730   48.3870 C   0  0  0  0  0  0  0  0  0  0  0  0
   56.0600   29.5800   43.2800 C   0  0  0  0  0  0  0  0  0  0  0  0
   56.6180   30.6270   42.5410 C   0  0  0  0  0  0  0  0  0  0  0  0
   56.9593   33.2446   40.7956 H   0  0  0  0  0  0  0  0  0  0  0  0
   58.7217   33.1734   40.4560 H   0  0  0  0  0  0  0  0  0  0  0  0
   57.7454   31.6656   40.4560 H   0  0  0  0  0  0  0  0  0  0  0  0
   58.7950   31.8483   44.8764 H   0  0  0  0  0  0  0  0  0  0  0  0
   57.8009   29.9802   46.1957 H   0  0  0  0  0  0  0  0  0  0  0  0
   56.6449   27.2248   46.9071 H   0  0  0  0  0  0  0  0  0  0  0  0
   56.0302   26.2189   45.5371 H   0  0  0  0  0  0  0  0  0  0  0  0
   58.2328   25.9805   45.0229 H   0  0  0  0  0  0  0  0  0  0  0  0
   58.0472   27.6306   44.3141 H   0  0  0  0  0  0  0  0  0  0  0  0
   61.7827   28.8852   47.0378 H   0  0  0  0  0  0  0  0  0  0  0  0
   61.6353   30.9566   45.9761 H   0  0  0  0  0  0  0  0  0  0  0  0
   59.8646   31.1060   46.2893 H   0  0  0  0  0  0  0  0  0  0  0  0
   62.0849   31.2375   48.3906 H   0  0  0  0  0  0  0  0  0  0  0  0
   61.1257   32.6341   47.7183 H   0  0  0  0  0  0  0  0  0  0  0  0
   60.8154   34.2154   47.3666 H   0  0  0  0  0  0  0  0  0  0  0  0
   60.4591   35.1914   45.0970 H   0  0  0  0  0  0  0  0  0  0  0  0
   58.2307   34.9894   43.9843 H   0  0  0  0  0  0  0  0  0  0  0  0
   56.3639   33.7989   45.1353 H   0  0  0  0  0  0  0  0  0  0  0  0
   56.7152   32.8154   47.4030 H   0  0  0  0  0  0  0  0  0  0  0  0
   58.8092   29.8968   49.8394 H   0  0  0  0  0  0  0  0  0  0  0  0
   58.4839   30.3517   48.1169 H   0  0  0  0  0  0  0  0  0  0  0  0
   60.9113   28.7860   49.1182 H   0  0  0  0  0  0  0  0  0  0  0  0
   59.4566   28.0942   48.2891 H   0  0  0  0  0  0  0  0  0  0  0  0
   55.2834   28.9462   42.8270 H   0  0  0  0  0  0  0  0  0  0  0  0
   56.2801   30.8073   41.5098 H   0  0  0  0  0  0  0  0  0  0  0  0
  1  2  1  0
  2  3  1  0
  3  4  2  0
  4  5  1  0
  5  6  2  0
  6  7  1  0
  7  8  1  0
  8  9  1  0
  9 10  1  0
 10 11  1  0
 11 12  2  0
 11 13  1  0
 13 14  1  0
 14 15  1  0
 15 16  1  0
 16 17  1  0
 17 18  2  0
 17 19  2  0
 17 20  1  0
 20 21  2  0
 21 22  1  0
 22 23  2  0
 23 24  1  0
 24 25  2  0
 16 26  1  0
 26 27  1  0
  6 28  1  0
 28 29  2  0
 29  3  1  0
 27 13  1  0
 25 20  1  0
  1 30  1  0
  1 31  1  0
  1 32  1  0
  4 33  1  0
  5 34  1  0
  8 35  1  0
  8 36  1  0
  9 37  1  0
  9 38  1  0
 13 39  1  0
 14 40  1  0
 14 41  1  0
 15 42  1  0
 15 43  1  0
 21 44  1  0
 22 45  1  0
 23 46  1  0
 24 47  1  0
 25 48  1  0
 26 49  1  0
 26 50  1  0
 27 51  1  0
 27 52  1  0
 28 53  1  0
 29 54  1  0
M  CHG  1  10  -1
M  END
>  <UniqueID>  (18) 
16

>  <SMILES>  (18) 
COc1ccc(OCC[N-]C(=O)C2CCN(S(=O)(=O)c3ccccc3)CC2)cc1

>  <Energy>  (18) 
59.60136846158185

>  <Genealogy>  (18) 
COc1ccc(OCC[N-]C(=O)C2CCN(S(=O)(=O)c3ccccc3)CC2)cc1 (protonated)
COc1ccc(OCC[N-]C(=O)C2CCN(S(=O)(=O)c3ccccc3)CC2)cc1 (3D coordinates assigned)
COc1ccc(OCC[N-]C(=O)C2CCN(S(=O)(=O)c3ccccc3)CC2)cc1 (nonaromatic ring conformer: 59.60136846158185 kcal/mol)

>  <smiles>  (18) 
COc1ccc(OCCNC(=O)C2CCN(S(=O)(=O)c3ccccc3)CC2)cc1

>  <score_type>  (18) 
oracle

>  <origin>  (18) 
adg

>  <m_score__min__energy>  (18) 
-10.970000000000001

>  <m_primary>  (18) 
energy

$$$$
18:0
     RDKit          3D

 36 38  0  0  0  0  0  0  0  0999 V2000
   54.7940   24.8570   45.5760 C   0  0  0  0  0  0  0  0  0  0  0  0
   55.1450   26.1620   46.0260 O   0  0  0  0  0  0  0  0  0  0  0  0
   56.4550   26.6600   46.0640 C   0  0  0  0  0  0  0  0  0  0  0  0
   57.4540   26.0950   46.8780 C   0  0  0  0  0  0  0  0  0  0  0  0
   58.7450   26.6280   46.8770 C   0  0  0  0  0  0  0  0  0  0  0  0
   59.0530   27.7260   46.0710 C   0  0  0  0  0  0  0  0  0  0  0  0
   58.0630   28.3030   45.2550 C   0  0  0  0  0  0  0  0  0  0  0  0
   58.3360   29.4240   44.4020 N   0  0  0  0  0  0  0  0  0  0  0  0
   57.3060   30.8050   44.1980 S   0  0  0  0  0  0  0  0  0  0  0  0
   57.1780   31.0880   42.7290 O   0  0  0  0  0  0  0  0  0  0  0  0
   55.9490   30.4780   44.7560 O   0  0  0  0  0  0  0  0  0  0  0  0
   57.9790   32.2380   45.0020 C   0  0  0  0  0  0  0  0  0  0  0  0
   57.9780   33.4590   44.3100 C   0  0  0  0  0  0  0  0  0  0  0  0
   58.5200   34.6080   44.8820 C   0  0  0  0  0  0  0  0  0  0  0  0
   59.0670   34.5720   46.1650 C   0  0  0  0  0  0  0  0  0  0  0  0
   59.6050   35.7440   46.6990 O   0  0  0  0  0  0  0  0  0  0  0  0
   59.0620   33.3690   46.8890 C   0  0  0  0  0  0  0  0  0  0  0  0
   59.5820   33.3330   48.1480 N   0  0  0  0  0  0  0  0  0  0  0  0
   59.5900   32.2000   48.8940 C   0  0  0  0  0  0  0  0  0  0  0  0
   59.0490   31.0240   48.3830 C   0  0  0  0  0  0  0  0  0  0  0  0
   58.5060   31.0180   47.0980 C   0  0  0  0  0  0  0  0  0  0  0  0
   58.5100   32.1920   46.3170 C   0  0  0  0  0  0  0  0  0  0  0  0
   56.7730   27.7600   45.2570 C   0  0  0  0  0  0  0  0  0  0  0  0
   54.6185   24.2046   46.4441 H   0  0  0  0  0  0  0  0  0  0  0  0
   53.8789   24.9125   44.9682 H   0  0  0  0  0  0  0  0  0  0  0  0
   55.6135   24.4460   44.9682 H   0  0  0  0  0  0  0  0  0  0  0  0
   57.2176   25.2313   47.5168 H   0  0  0  0  0  0  0  0  0  0  0  0
   59.5225   26.1809   47.5139 H   0  0  0  0  0  0  0  0  0  0  0  0
   60.0719   28.1406   46.0742 H   0  0  0  0  0  0  0  0  0  0  0  0
   57.5428   33.5096   43.3010 H   0  0  0  0  0  0  0  0  0  0  0  0
   58.5166   35.5519   44.3171 H   0  0  0  0  0  0  0  0  0  0  0  0
   59.7530   35.8690   47.6930 H   0  0  0  0  0  0  0  0  0  0  0  0
   60.0248   32.2108   49.9044 H   0  0  0  0  0  0  0  0  0  0  0  0
   59.0495   30.1055   48.9882 H   0  0  0  0  0  0  0  0  0  0  0  0
   58.0723   30.0923   46.6918 H   0  0  0  0  0  0  0  0  0  0  0  0
   55.9974   28.2036   44.6154 H   0  0  0  0  0  0  0  0  0  0  0  0
  1  2  1  0
  2  3  1  0
  3  4  2  0
  4  5  1  0
  5  6  2  0
  6  7  1  0
  7  8  1  0
  8  9  1  0
  9 10  2  0
  9 11  2  0
  9 12  1  0
 12 13  2  0
 13 14  1  0
 14 15  2  0
 15 16  1  0
 15 17  1  0
 17 18  2  0
 18 19  1  0
 19 20  2  0
 20 21  1  0
 21 22  2  0
  7 23  2  0
 23  3  1  0
 22 12  1  0
 22 17  1  0
  1 24  1  0
  1 25  1  0
  1 26  1  0
  4 27  1  0
  5 28  1  0
  6 29  1  0
 13 30  1  0
 14 31  1  0
 16 32  1  0
 19 33  1  0
 20 34  1  0
 21 35  1  0
 23 36  1  0
M  CHG  1   8  -1
M  END
>  <UniqueID>  (19) 
17

>  <SMILES>  (19) 
COc1cccc([N-]S(=O)(=O)c2ccc(O)c3ncccc23)c1

>  <Energy>  (19) 
48.22869826656568

>  <Genealogy>  (19) 
COc1cccc([N-]S(=O)(=O)c2ccc(O)c3ncccc23)c1 (protonated)
COc1cccc([N-]S(=O)(=O)c2ccc(O)c3ncccc23)c1 (3D coordinates assigned)
COc1cccc([N-]S(=O)(=O)c2ccc(O)c3ncccc23)c1 (optimized conformer: 48.22869826656568 kcal/mol)

>  <smiles>  (19) 
COc1cccc(NS(=O)(=O)c2ccc(O)c3ncccc23)c1

>  <score_type>  (19) 
oracle

>  <origin>  (19) 
adg

>  <m_score__min__energy>  (19) 
-9.2300000000000004

>  <m_primary>  (19) 
energy

$$$$
19:0
     RDKit          3D

 57 59  0  0  0  0  0  0  0  0999 V2000
   55.2970   24.1770   44.5630 C   0  0  0  0  0  0  0  0  0  0  0  0
   54.4870   24.9220   45.6180 C   0  0  0  0  0  0  0  0  0  0  0  0
   55.0870   26.2240   45.8960 N   0  0  0  0  0  0  0  0  0  0  0  0
   56.4980   26.4690   45.8820 C   0  0  0  0  0  0  0  0  0  0  0  0
   57.3020   25.4980   45.9080 O   0  0  0  0  0  0  0  0  0  0  0  0
   57.0120   27.8590   45.8430 C   0  0  0  0  0  0  0  0  0  0  0  0
   57.9690   28.2950   46.7750 C   0  0  0  0  0  0  0  0  0  0  0  0
   58.4500   29.6070   46.7390 C   0  0  0  0  0  0  0  0  0  0  0  0
   57.9880   30.5070   45.7670 C   0  0  0  0  0  0  0  0  0  0  0  0
   58.4890   31.8950   45.7290 C   0  0  0  0  0  0  0  0  0  0  0  0
   58.9660   32.5480   46.8120 N   0  0  0  0  0  0  0  0  0  0  0  0
   59.2810   33.7620   46.3240 C   0  0  0  0  0  0  0  0  0  0  0  0
   59.8130   34.8870   47.1620 C   0  0  0  0  0  0  0  0  0  0  0  0
   59.7200   34.6120   48.6120 N   0  0  0  0  0  0  0  0  0  0  0  0
   60.8380   33.8410   49.2040 C   0  0  2  0  0  0  0  0  0  0  0  0
   62.2080   34.2120   48.5470 C   0  0  0  0  0  0  0  0  0  0  0  0
   62.9630   33.1100   47.7520 C   0  0  2  0  0  0  0  0  0  0  0  0
   63.3990   33.6070   46.3670 C   0  0  0  0  0  0  0  0  0  0  0  0
   62.2000   31.7830   47.6310 C   0  0  0  0  0  0  0  0  0  0  0  0
   61.5840   31.3290   48.9700 C   0  0  0  0  0  0  0  0  0  0  0  0
   60.9440   29.9360   48.7660 C   0  0  0  0  0  0  0  0  0  0  0  0
   62.6520   31.2070   50.0830 C   0  0  0  0  0  0  0  0  0  0  0  0
   60.4860   32.3320   49.3860 C   0  0  0  0  0  0  0  0  0  0  0  0
   58.9970   33.8060   44.9780 C   0  0  0  0  0  0  0  0  0  0  0  0
   58.5100   32.6380   44.6420 O   0  0  0  0  0  0  0  0  0  0  0  0
   57.0330   30.0750   44.8350 C   0  0  0  0  0  0  0  0  0  0  0  0
   56.5470   28.7650   44.8730 C   0  0  0  0  0  0  0  0  0  0  0  0
   56.0201   23.5120   45.0579 H   0  0  0  0  0  0  0  0  0  0  0  0
   54.6197   23.5797   43.9349 H   0  0  0  0  0  0  0  0  0  0  0  0
   55.8357   24.9018   43.9349 H   0  0  0  0  0  0  0  0  0  0  0  0
   53.4603   25.0672   45.2508 H   0  0  0  0  0  0  0  0  0  0  0  0
   54.4772   24.3289   46.5444 H   0  0  0  0  0  0  0  0  0  0  0  0
   58.3428   27.5979   47.5394 H   0  0  0  0  0  0  0  0  0  0  0  0
   59.1957   29.9360   47.4777 H   0  0  0  0  0  0  0  0  0  0  0  0
   60.8692   35.0506   46.9019 H   0  0  0  0  0  0  0  0  0  0  0  0
   59.2000   35.7760   46.9525 H   0  0  0  0  0  0  0  0  0  0  0  0
   58.8050   34.1630   48.8550 H   0  0  0  0  0  0  0  0  0  0  0  0
   60.9929   34.1521   50.2477 H   0  0  0  0  0  0  0  0  0  0  0  0
   62.0222   35.0453   47.8534 H   0  0  0  0  0  0  0  0  0  0  0  0
   62.8677   34.4345   49.3987 H   0  0  0  0  0  0  0  0  0  0  0  0
   63.8580   32.8941   48.3540 H   0  0  0  0  0  0  0  0  0  0  0  0
   64.1204   34.4293   46.4829 H   0  0  0  0  0  0  0  0  0  0  0  0
   63.8697   32.7817   45.8127 H   0  0  0  0  0  0  0  0  0  0  0  0
   62.5194   33.9663   45.8127 H   0  0  0  0  0  0  0  0  0  0  0  0
   61.3916   31.9072   46.8954 H   0  0  0  0  0  0  0  0  0  0  0  0
   62.9194   31.0124   47.3169 H   0  0  0  0  0  0  0  0  0  0  0  0
   60.7351   29.4814   49.7457 H   0  0  0  0  0  0  0  0  0  0  0  0
   60.0047   30.0428   48.2036 H   0  0  0  0  0  0  0  0  0  0  0  0
   61.6369   29.2929   48.2036 H   0  0  0  0  0  0  0  0  0  0  0  0
   62.1639   31.2628   51.0672 H   0  0  0  0  0  0  0  0  0  0  0  0
   63.1737   30.2434   49.9865 H   0  0  0  0  0  0  0  0  0  0  0  0
   63.3776   32.0281   49.9865 H   0  0  0  0  0  0  0  0  0  0  0  0
   59.5900   32.1198   48.7842 H   0  0  0  0  0  0  0  0  0  0  0  0
   60.3445   32.1874   50.4672 H   0  0  0  0  0  0  0  0  0  0  0  0
   59.1509   34.6646   44.3078 H   0  0  0  0  0  0  0  0  0  0  0  0
   56.6638   30.7723   44.0685 H   0  0  0  0  0  0  0  0  0  0  0  0
   55.7951   28.4402   44.1387 H   0  0  0  0  0  0  0  0  0  0  0  0
  1  2  1  0
  2  3  1  0
  3  4  1  0
  4  5  2  0
  4  6  1  0
  6  7  2  0
  7  8  1  0
  8  9  2  0
  9 10  1  0
 10 11  2  0
 11 12  1  0
 12 13  1  0
 13 14  1  0
 14 15  1  0
 15 16  1  0
 16 17  1  0
 17 18  1  0
 17 19  1  0
 19 20  1  0
 20 21  1  0
 20 22  1  0
 20 23  1  0
 12 24  2  0
 24 25  1  0
  9 26  1  0
 26 27  2  0
 27  6  1  0
 25 10  1  0
 23 15  1  0
  1 28  1  0
  1 29  1  0
  1 30  1  0
  2 31  1  0
  2 32  1  0
  7 33  1  0
  8 34  1  0
 13 35  1  0
 13 36  1  0
 14 37  1  0
 15 38  1  1
 16 39  1  0
 16 40  1  0
 17 41  1  1
 18 42  1  0
 18 43  1  0
 18 44  1  0
 19 45  1  0
 19 46  1  0
 21 47  1  0
 21 48  1  0
 21 49  1  0
 22 50  1  0
 22 51  1  0
 22 52  1  0
 23 53  1  0
 23 54  1  0
 24 55  1  0
 26 56  1  0
 27 57  1  0
M  CHG  1   3  -1
M  END
>  <UniqueID>  (20) 
18

>  <SMILES>  (20) 
CC[N-]C(=O)c1ccc(-c2nc(CN[C@@H]3C[C@H](C)CC(C)(C)C3)co2)cc1

>  <Energy>  (20) 
95.76479672072682

>  <Genealogy>  (20) 
CC[N-]C(=O)c1ccc(-c2nc(CNC3CC(C)CC(C)(C)C3)co2)cc1 (protonated)
CC[N-]C(=O)c1ccc(-c2nc(CN[C@@H]3C[C@H](C)CC(C)(C)C3)co2)cc1 (chirality)
CC[N-]C(=O)c1ccc(-c2nc(CN[C@@H]3C[C@H](C)CC(C)(C)C3)co2)cc1 (3D coordinates assigned)
CC[N-]C(=O)c1ccc(-c2nc(CN[C@@H]3C[C@H](C)CC(C)(C)C3)co2)cc1 (nonaromatic ring conformer: 95.76479672072682 kcal/mol)

>  <smiles>  (20) 
CCNC(=O)c1ccc(-c2nc(CNC3CC(C)CC(C)(C)C3)co2)cc1

>  <score_type>  (20) 
oracle

>  <origin>  (20) 
adg

>  <m_score__min__energy>  (20) 
-10.039999999999999

>  <m_primary>  (20) 
energy

$$$$
20:0
     RDKit          3D

 16 17  0  0  0  0  0  0  0  0999 V2000
   56.8190   30.8090   42.3190 O   0  0  0  0  0  0  0  0  0  0  0  0
   57.3630   31.5140   43.2090 C   0  0  0  0  0  0  0  0  0  0  0  0
   58.0780   32.7190   42.9470 N   0  0  0  0  0  0  0  0  0  0  0  0
   58.5120   33.1680   44.2310 C   0  0  0  0  0  0  0  0  0  0  0  0
   59.2550   34.3150   44.5040 C   0  0  0  0  0  0  0  0  0  0  0  0
   59.5870   34.5910   45.8420 C   0  0  0  0  0  0  0  0  0  0  0  0
   59.1750   33.7220   46.8770 C   0  0  0  0  0  0  0  0  0  0  0  0
   59.6360   34.1140   48.6870 Br  0  0  0  0  0  0  0  0  0  0  0  0
   58.4250   32.5690   46.5800 C   0  0  0  0  0  0  0  0  0  0  0  0
   58.1090   32.3190   45.2470 C   0  0  0  0  0  0  0  0  0  0  0  0
   57.3620   31.2310   44.6380 C   0  0  0  0  0  0  0  0  0  0  0  0
   56.8260   30.2530   45.2210 O   0  0  0  0  0  0  0  0  0  0  0  0
   58.2470   33.1720   42.0210 H   0  0  0  0  0  0  0  0  0  0  0  0
   59.5735   34.9871   43.6935 H   0  0  0  0  0  0  0  0  0  0  0  0
   60.1720   35.4903   46.0849 H   0  0  0  0  0  0  0  0  0  0  0  0
   58.0980   31.8853   47.3773 H   0  0  0  0  0  0  0  0  0  0  0  0
  1  2  2  0
  2  3  1  0
  3  4  1  0
  4  5  2  0
  5  6  1  0
  6  7  2  0
  7  8  1  0
  7  9  1  0
  9 10  2  0
 10 11  1  0
 11 12  2  0
 11  2  1  0
 10  4  1  0
  3 13  1  0
  5 14  1  0
  6 15  1  0
  9 16  1  0
M  END
>  <UniqueID>  (21) 
19

>  <SMILES>  (21) 
O=C1Nc2ccc(Br)cc2C1=O

>  <Energy>  (21) 
48.061203240630846

>  <Genealogy>  (21) 
O=C1Nc2ccc(Br)cc2C1=O (3D coordinates assigned)
O=C1Nc2ccc(Br)cc2C1=O (nonaromatic ring conformer: 48.061203240630846 kcal/mol)

>  <smiles>  (21) 
O=C1Nc2ccc(Br)cc2C1=O

>  <score_type>  (21) 
oracle

>  <origin>  (21) 
adg

>  <m_score__min__energy>  (21) 
-5.7400000000000002

>  <m_primary>  (21) 
energy

$$$$
21:0
     RDKit          3D

 38 40  0  0  0  0  0  0  0  0999 V2000
   57.2560   31.4964   41.0319 H   0  0  0  0  0  0  0  0  0  0  0  0
   57.3650   31.6060   42.1210 C   0  0  0  0  0  0  0  0  0  0  0  0
   56.7470   30.6970   42.9750 C   0  0  0  0  0  0  0  0  0  0  0  0
   56.1522   29.8720   42.5559 H   0  0  0  0  0  0  0  0  0  0  0  0
   56.8770   30.8250   44.3680 C   0  0  0  0  0  0  0  0  0  0  0  0
   56.2660   29.8620   45.2430 N   0  0  0  0  0  0  0  0  0  0  0  0
   56.7560   28.5390   45.5020 C   0  0  0  0  0  0  0  0  0  0  0  0
   55.9380   27.5870   45.5680 O   0  0  0  0  0  0  0  0  0  0  0  0
   58.1580   28.2670   45.6540 N   0  0  0  0  0  0  0  0  0  0  0  0
   59.0170   29.0180   46.2770 C   0  0  0  0  0  0  0  0  0  0  0  0
   60.3810   29.6770   45.5240 S   0  0  0  0  0  0  0  0  0  0  0  0
   60.8730   30.4460   46.9360 C   0  0  0  0  0  0  0  0  0  0  0  0
   61.9860   31.2580   47.1380 C   0  0  0  0  0  0  0  0  0  0  0  0
   62.6808   31.4785   46.3142 H   0  0  0  0  0  0  0  0  0  0  0  0
   62.1990   31.7900   48.4260 C   0  0  0  0  0  0  0  0  0  0  0  0
   63.3610   32.7030   48.6770 C   0  0  0  0  0  0  0  0  0  0  0  0
   63.5087   32.8190   49.7608 H   0  0  0  0  0  0  0  0  0  0  0  0
   64.2684   32.2738   48.2272 H   0  0  0  0  0  0  0  0  0  0  0  0
   63.1586   33.6862   48.2272 H   0  0  0  0  0  0  0  0  0  0  0  0
   61.2770   31.5140   49.4630 C   0  0  0  0  0  0  0  0  0  0  0  0
   61.4333   31.9498   50.4608 H   0  0  0  0  0  0  0  0  0  0  0  0
   60.1640   30.6890   49.2310 C   0  0  0  0  0  0  0  0  0  0  0  0
   59.4547   30.4640   50.0411 H   0  0  0  0  0  0  0  0  0  0  0  0
   59.9750   30.1600   47.9530 C   0  0  0  0  0  0  0  0  0  0  0  0
   58.9440   29.3540   47.5920 N   0  0  0  0  0  0  0  0  0  0  0  0
   58.2190   29.0200   48.2650 H   0  0  0  0  0  0  0  0  0  0  0  0
   57.5990   31.9160   44.9080 C   0  0  0  0  0  0  0  0  0  0  0  0
   57.7490   32.0570   46.4050 C   0  0  0  0  0  0  0  0  0  0  0  0
   57.0368   31.3875   46.9095 H   0  0  0  0  0  0  0  0  0  0  0  0
   58.7748   31.7886   46.6976 H   0  0  0  0  0  0  0  0  0  0  0  0
   57.5446   33.0975   46.6976 H   0  0  0  0  0  0  0  0  0  0  0  0
   58.2610   32.8130   44.0290 C   0  0  0  0  0  0  0  0  0  0  0  0
   59.0980   33.9540   44.5490 C   0  0  0  0  0  0  0  0  0  0  0  0
   59.0900   33.9431   45.6489 H   0  0  0  0  0  0  0  0  0  0  0  0
   60.1315   33.8445   44.1887 H   0  0  0  0  0  0  0  0  0  0  0  0
   58.6832   34.9070   44.1887 H   0  0  0  0  0  0  0  0  0  0  0  0
   58.1210   32.6540   42.6410 C   0  0  0  0  0  0  0  0  0  0  0  0
   58.6125   33.3630   41.9585 H   0  0  0  0  0  0  0  0  0  0  0  0
  1  2  1  0
  2  3  2  0
  3  4  1  0
  3  5  1  0
  5  6  1  0
  6  7  1  0
  7  8  2  0
  7  9  1  0
  9 10  2  0
 10 11  1  0
 11 12  1  0
 12 13  2  0
 13 14  1  0
 13 15  1  0
 15 16  1  0
 16 17  1  0
 16 18  1  0
 16 19  1  0
 15 20  2  0
 20 21  1  0
 20 22  1  0
 22 23  1  0
 22 24  2  0
 24 25  1  0
 25 26  1  0
  5 27  2  0
 27 28  1  0
 28 29  1  0
 28 30  1  0
 28 31  1  0
 27 32  1  0
 32 33  1  0
 33 34  1  0
 33 35  1  0
 33 36  1  0
 32 37  2  0
 37 38  1  0
 37  2  1  0
 25 10  1  0
 24 12  1  0
M  CHG  1   6  -1
M  END
>  <UniqueID>  (22) 
20

>  <SMILES>  (22) 
Cc1ccc2[nH]/c(=N\C(=O)[N-]c3cccc(C)c3C)sc2c1

>  <Energy>  (22) 
84.01526115056483

>  <Genealogy>  (22) 
Cc1ccc2[nH]c(=NC(=O)[N-]c3cccc(C)c3C)sc2c1 (protonated)
Cc1ccc2[nH]/c(=N\C(=O)[N-]c3cccc(C)c3C)sc2c1 (cis-trans isomerization)
Cc1ccc2[nH]/c(=N\C(=O)[N-]c3cccc(C)c3C)sc2c1 (3D coordinates assigned)
Cc1ccc2[nH]/c(=N\C(=O)[N-]c3cccc(C)c3C)sc2c1 (optimized conformer: 84.01526115056483 kcal/mol)

>  <smiles>  (22) 
Cc1ccc2[nH]c(=NC(=O)Nc3cccc(C)c3C)sc2c1

>  <score_type>  (22) 
oracle

>  <origin>  (22) 
adg

>  <m_score__min__energy>  (22) 
-9.4499999999999993

>  <m_primary>  (22) 
energy

$$$$
22:0
     RDKit          3D

 55 58  0  0  0  0  0  0  0  0999 V2000
   57.7510   31.0750   50.9530 C   0  0  0  0  0  0  0  0  0  0  0  0
   58.7850   29.9950   50.8590 C   0  0  0  0  0  0  0  0  0  0  0  0
   59.3070   29.4090   52.0220 C   0  0  0  0  0  0  0  0  0  0  0  0
   60.2890   28.4200   51.9310 C   0  0  0  0  0  0  0  0  0  0  0  0
   60.7680   28.0190   50.6810 C   0  0  0  0  0  0  0  0  0  0  0  0
   60.2870   28.6340   49.5100 C   0  0  0  0  0  0  0  0  0  0  0  0
   60.7600   28.2620   48.2070 N   0  0  0  0  0  0  0  0  0  0  0  0
   60.2450   27.2200   47.3690 C   0  0  0  0  0  0  0  0  0  0  0  0
   60.9730   26.2210   47.1340 O   0  0  0  0  0  0  0  0  0  0  0  0
   58.8960   27.2670   46.7740 C   0  0  0  0  0  0  0  0  0  0  0  0
   58.2880   28.6260   45.9980 S   0  0  0  0  0  0  0  0  0  0  0  0
   56.7770   27.9790   45.6490 C   0  0  0  0  0  0  0  0  0  0  0  0
   55.7000   28.6640   44.9920 N   0  0  0  0  0  0  0  0  0  0  0  0
   55.8080   29.8410   44.1790 C   0  0  0  0  0  0  0  0  0  0  0  0
   55.1410   30.8760   44.4540 O   0  0  0  0  0  0  0  0  0  0  0  0
   56.6920   29.8520   42.9640 C   0  0  0  0  0  0  0  0  0  0  0  0
   57.1470   31.5390   42.4220 S   0  0  0  0  0  0  0  0  0  0  0  0
   57.8300   32.0240   44.0050 C   0  0  0  0  0  0  0  0  0  0  0  0
   58.8190   31.3410   44.6270 N   0  0  0  0  0  0  0  0  0  0  0  0
   59.1710   31.9480   45.7870 C   0  0  0  0  0  0  0  0  0  0  0  0
   60.1650   31.4860   46.6450 C   0  0  0  0  0  0  0  0  0  0  0  0
   60.4540   32.2120   47.8210 C   0  0  0  0  0  0  0  0  0  0  0  0
   61.5330   31.7100   48.7430 C   0  0  0  0  0  0  0  0  0  0  0  0
   59.7330   33.4110   48.1110 C   0  0  0  0  0  0  0  0  0  0  0  0
   60.0250   34.2140   49.3510 C   0  0  0  0  0  0  0  0  0  0  0  0
   58.7300   33.8520   47.2240 C   0  0  0  0  0  0  0  0  0  0  0  0
   58.4760   33.1070   46.0780 C   0  0  0  0  0  0  0  0  0  0  0  0
   57.3650   33.4120   44.8570 S   0  0  0  0  0  0  0  0  0  0  0  0
   56.7100   26.6690   46.1310 C   0  0  0  0  0  0  0  0  0  0  0  0
   55.4910   25.8300   46.0190 C   0  0  0  0  0  0  0  0  0  0  0  0
   54.4010   26.3400   45.6510 O   0  0  0  0  0  0  0  0  0  0  0  0
   55.5180   24.4800   46.3540 O   0  0  0  0  0  0  0  0  0  0  0  0
   57.9240   26.2520   46.7380 C   0  0  0  0  0  0  0  0  0  0  0  0
   58.1700   24.8470   47.2210 C   0  0  0  0  0  0  0  0  0  0  0  0
   59.2890   29.6090   49.6070 C   0  0  0  0  0  0  0  0  0  0  0  0
   57.5429   31.2923   52.0111 H   0  0  0  0  0  0  0  0  0  0  0  0
   58.1242   31.9840   50.4585 H   0  0  0  0  0  0  0  0  0  0  0  0
   56.8267   30.7417   50.4585 H   0  0  0  0  0  0  0  0  0  0  0  0
   58.9416   29.7295   53.0088 H   0  0  0  0  0  0  0  0  0  0  0  0
   60.6863   27.9556   52.8456 H   0  0  0  0  0  0  0  0  0  0  0  0
   61.5223   27.2213   50.6121 H   0  0  0  0  0  0  0  0  0  0  0  0
   57.6138   29.2987   43.1968 H   0  0  0  0  0  0  0  0  0  0  0  0
   56.1272   29.3853   42.1435 H   0  0  0  0  0  0  0  0  0  0  0  0
   60.7192   30.5655   46.4094 H   0  0  0  0  0  0  0  0  0  0  0  0
   61.2199   31.8557   49.7874 H   0  0  0  0  0  0  0  0  0  0  0  0
   61.7049   30.6394   48.5576 H   0  0  0  0  0  0  0  0  0  0  0  0
   62.4626   32.2681   48.5576 H   0  0  0  0  0  0  0  0  0  0  0  0
   59.8043   33.6070   50.2414 H   0  0  0  0  0  0  0  0  0  0  0  0
   61.0861   34.5039   49.3587 H   0  0  0  0  0  0  0  0  0  0  0  0
   59.3980   35.1177   49.3587 H   0  0  0  0  0  0  0  0  0  0  0  0
   58.1591   34.7683   47.4346 H   0  0  0  0  0  0  0  0  0  0  0  0
   58.1725   24.8326   48.3209 H   0  0  0  0  0  0  0  0  0  0  0  0
   57.3739   24.1862   46.8475 H   0  0  0  0  0  0  0  0  0  0  0  0
   59.1433   24.4960   46.8475 H   0  0  0  0  0  0  0  0  0  0  0  0
   58.8951   30.0780   48.6932 H   0  0  0  0  0  0  0  0  0  0  0  0
  1  2  1  0
  2  3  2  0
  3  4  1  0
  4  5  2  0
  5  6  1  0
  6  7  1  0
  7  8  1  0
  8  9  2  0
  8 10  1  0
 10 11  1  0
 11 12  1  0
 12 13  1  0
 13 14  1  0
 14 15  2  0
 14 16  1  0
 16 17  1  0
 17 18  1  0
 18 19  2  0
 19 20  1  0
 20 21  2  0
 21 22  1  0
 22 23  1  0
 22 24  2  0
 24 25  1  0
 24 26  1  0
 26 27  2  0
 27 28  1  0
 12 29  2  0
 29 30  1  0
 30 31  2  0
 30 32  1  0
 29 33  1  0
 33 34  1  0
  6 35  2  0
 35  2  1  0
 33 10  2  0
 28 18  1  0
 27 20  1  0
  1 36  1  0
  1 37  1  0
  1 38  1  0
  3 39  1  0
  4 40  1  0
  5 41  1  0
 16 42  1  0
 16 43  1  0
 21 44  1  0
 23 45  1  0
 23 46  1  0
 23 47  1  0
 25 48  1  0
 25 49  1  0
 25 50  1  0
 26 51  1  0
 34 52  1  0
 34 53  1  0
 34 54  1  0
 35 55  1  0
M  CHG  3   7  -1  13  -1  32  -1
M  END
>  <UniqueID>  (23) 
21

>  <SMILES>  (23) 
Cc1cccc([N-]C(=O)c2sc([N-]C(=O)CSc3nc4cc(C)c(C)cc4s3)c(C(=O)[O-])c2C)c1

>  <Energy>  (23) 
125.50325421980568

>  <Genealogy>  (23) 
Cc1cccc([N-]C(=O)c2sc([N-]C(=O)CSc3nc4cc(C)c(C)cc4s3)c(C(=O)[O-])c2C)c1 (protonated)
Cc1cccc([N-]C(=O)c2sc([N-]C(=O)CSc3nc4cc(C)c(C)cc4s3)c(C(=O)[O-])c2C)c1 (3D coordinates assigned)
Cc1cccc([N-]C(=O)c2sc([N-]C(=O)CSc3nc4cc(C)c(C)cc4s3)c(C(=O)[O-])c2C)c1 (optimized conformer: 125.50325421980568 kcal/mol)

>  <smiles>  (23) 
Cc1cccc(NC(=O)c2sc(NC(=O)CSc3nc4cc(C)c(C)cc4s3)c(C(=O)O)c2C)c1

>  <score_type>  (23) 
oracle

>  <origin>  (23) 
adg

>  <m_score__min__energy>  (23) 
-15.539999999999999

>  <m_primary>  (23) 
energy

$$$$
23:0
     RDKit          3D

 43 45  0  0  0  0  0  0  0  0999 V2000
   57.3410   21.2260   43.1810 C   0  0  0  0  0  0  0  0  0  0  0  0
   56.2690   22.1960   43.4500 N   0  0  0  0  0  0  0  0  0  0  0  0
   56.6240   23.5360   42.9560 C   0  0  0  0  0  0  0  0  0  0  0  0
   55.8340   22.2000   44.8650 C   0  0  0  0  0  0  0  0  0  0  0  0
   56.9890   22.1320   45.8860 C   0  0  0  0  0  0  0  0  0  0  0  0
   57.5540   23.4640   46.0950 N   0  0  0  0  0  0  0  0  0  0  0  0
   56.7330   24.6170   46.3480 C   0  0  0  0  0  0  0  0  0  0  0  0
   55.4870   24.4750   46.4900 O   0  0  0  0  0  0  0  0  0  0  0  0
   57.3240   25.9720   46.4620 C   0  0  0  0  0  0  0  0  0  0  0  0
   58.3380   26.2470   47.3910 C   0  0  0  0  0  0  0  0  0  0  0  0
   58.8880   27.5290   47.4820 C   0  0  0  0  0  0  0  0  0  0  0  0
   58.4450   28.5710   46.6430 C   0  0  0  0  0  0  0  0  0  0  0  0
   57.4360   28.2890   45.7030 C   0  0  0  0  0  0  0  0  0  0  0  0
   56.8870   27.0020   45.6150 C   0  0  0  0  0  0  0  0  0  0  0  0
   56.8330   29.5270   44.6260 S   0  0  0  0  0  0  0  0  0  0  0  0
   57.0470   29.0950   43.2020 O   0  0  0  0  0  0  0  0  0  0  0  0
   55.3700   29.7470   44.8870 O   0  0  0  0  0  0  0  0  0  0  0  0
   57.7050   31.0120   44.9180 C   0  0  0  0  0  0  0  0  0  0  0  0
   57.3970   32.1340   44.1360 C   0  0  0  0  0  0  0  0  0  0  0  0
   58.0660   33.3400   44.3380 C   0  0  0  0  0  0  0  0  0  0  0  0
   59.0490   33.4340   45.3230 C   0  0  0  0  0  0  0  0  0  0  0  0
   59.3620   32.3220   46.1070 C   0  0  0  0  0  0  0  0  0  0  0  0
   58.6960   31.0920   45.9190 C   0  0  0  0  0  0  0  0  0  0  0  0
   59.0590   29.9250   46.7760 C   0  0  0  0  0  0  0  0  0  0  0  0
   59.9400   30.0940   47.6670 O   0  0  0  0  0  0  0  0  0  0  0  0
   57.7490   20.8569   44.1335 H   0  0  0  0  0  0  0  0  0  0  0  0
   56.9354   20.3818   42.6041 H   0  0  0  0  0  0  0  0  0  0  0  0
   58.1406   21.7138   42.6041 H   0  0  0  0  0  0  0  0  0  0  0  0
   56.8016   24.2064   43.8098 H   0  0  0  0  0  0  0  0  0  0  0  0
   57.5361   23.4716   42.3445 H   0  0  0  0  0  0  0  0  0  0  0  0
   55.7997   23.9316   42.3445 H   0  0  0  0  0  0  0  0  0  0  0  0
   55.2666   23.1244   45.0481 H   0  0  0  0  0  0  0  0  0  0  0  0
   55.2312   21.2915   45.0112 H   0  0  0  0  0  0  0  0  0  0  0  0
   56.6071   21.7447   46.8421 H   0  0  0  0  0  0  0  0  0  0  0  0
   57.7732   21.4651   45.4985 H   0  0  0  0  0  0  0  0  0  0  0  0
   58.5940   23.5570   46.0760 H   0  0  0  0  0  0  0  0  0  0  0  0
   58.7033   25.4480   48.0530 H   0  0  0  0  0  0  0  0  0  0  0  0
   59.6790   27.7275   48.2201 H   0  0  0  0  0  0  0  0  0  0  0  0
   56.1027   26.7967   44.8716 H   0  0  0  0  0  0  0  0  0  0  0  0
   56.6225   32.0622   43.3581 H   0  0  0  0  0  0  0  0  0  0  0  0
   57.8190   34.2167   43.7212 H   0  0  0  0  0  0  0  0  0  0  0  0
   59.5781   34.3851   45.4823 H   0  0  0  0  0  0  0  0  0  0  0  0
   60.1383   32.4057   46.8818 H   0  0  0  0  0  0  0  0  0  0  0  0
  1  2  1  0
  2  3  1  0
  2  4  1  0
  4  5  1  0
  5  6  1  0
  6  7  1  0
  7  8  2  0
  7  9  1  0
  9 10  2  0
 10 11  1  0
 11 12  2  0
 12 13  1  0
 13 14  2  0
 13 15  1  0
 15 16  2  0
 15 17  2  0
 15 18  1  0
 18 19  2  0
 19 20  1  0
 20 21  2  0
 21 22  1  0
 22 23  2  0
 23 24  1  0
 24 25  2  0
 14  9  1  0
 23 18  1  0
 24 12  1  0
  1 26  1  0
  1 27  1  0
  1 28  1  0
  3 29  1  0
  3 30  1  0
  3 31  1  0
  4 32  1  0
  4 33  1  0
  5 34  1  0
  5 35  1  0
  6 36  1  0
 10 37  1  0
 11 38  1  0
 14 39  1  0
 19 40  1  0
 20 41  1  0
 21 42  1  0
 22 43  1  0
M  END
>  <UniqueID>  (24) 
22

>  <SMILES>  (24) 
CN(C)CCNC(=O)c1ccc2c(c1)S(=O)(=O)c1ccccc1C2=O

>  <Energy>  (24) 
55.72350429630886

>  <Genealogy>  (24) 
CN(C)CCNC(=O)c1ccc2c(c1)S(=O)(=O)c1ccccc1C2=O (3D coordinates assigned)
CN(C)CCNC(=O)c1ccc2c(c1)S(=O)(=O)c1ccccc1C2=O (nonaromatic ring conformer: 55.72350429630886 kcal/mol)

>  <smiles>  (24) 
CN(C)CCNC(=O)c1ccc2c(c1)S(=O)(=O)c1ccccc1C2=O

>  <score_type>  (24) 
oracle

>  <origin>  (24) 
adg

>  <m_score__min__energy>  (24) 
-8.9900000000000002

>  <m_primary>  (24) 
energy

$$$$
24:0
     RDKit          3D

 46 49  0  0  0  0  0  0  0  0999 V2000
   63.3760   34.4670   51.1300 C   0  0  0  0  0  0  0  0  0  0  0  0
   63.1690   32.9850   50.7280 C   0  0  0  0  0  0  0  0  0  0  0  0
   63.2530   32.1350   52.0060 C   0  0  0  0  0  0  0  0  0  0  0  0
   61.7630   32.7760   50.0900 C   0  0  0  0  0  0  0  0  0  0  0  0
   61.7560   33.2070   48.6550 C   0  0  0  0  0  0  0  0  0  0  0  0
   62.9480   33.3680   47.9670 C   0  0  0  0  0  0  0  0  0  0  0  0
   62.6550   33.8250   46.3670 S   0  0  0  0  0  0  0  0  0  0  0  0
   60.9840   33.7680   46.5470 C   0  0  0  0  0  0  0  0  0  0  0  0
   60.0630   34.0080   45.5900 N   0  0  0  0  0  0  0  0  0  0  0  0
   58.7400   33.8970   45.8900 C   0  0  0  0  0  0  0  0  0  0  0  0
   57.5580   34.1870   44.5630 S   0  0  0  0  0  0  0  0  0  0  0  0
   57.8400   32.5740   43.7480 C   0  0  0  0  0  0  0  0  0  0  0  0
   57.4450   31.4300   44.6410 C   0  0  0  0  0  0  0  0  0  0  0  0
   56.2150   31.2200   44.8230 O   0  0  0  0  0  0  0  0  0  0  0  0
   58.4440   30.5320   45.2840 C   0  0  0  0  0  0  0  0  0  0  0  0
   58.5520   30.4980   46.6900 C   0  0  0  0  0  0  0  0  0  0  0  0
   59.4730   29.6510   47.3130 C   0  0  0  0  0  0  0  0  0  0  0  0
   60.2990   28.8280   46.5460 C   0  0  0  0  0  0  0  0  0  0  0  0
   60.2050   28.8490   45.1530 C   0  0  0  0  0  0  0  0  0  0  0  0
   59.2850   29.6940   44.5240 C   0  0  0  0  0  0  0  0  0  0  0  0
   58.3360   33.5520   47.1650 N   0  0  0  0  0  0  0  0  0  0  0  0
   56.9640   33.4660   47.4850 N   0  0  0  0  0  0  0  0  0  0  0  0
   59.2740   33.2940   48.1400 C   0  0  0  0  0  0  0  0  0  0  0  0
   58.9120   32.9570   49.3000 O   0  0  0  0  0  0  0  0  0  0  0  0
   60.6330   33.4100   47.8310 C   0  0  0  0  0  0  0  0  0  0  0  0
   64.2820   33.2430   48.6280 C   0  0  0  0  0  0  0  0  0  0  0  0
   64.2040   32.5240   49.8540 O   0  0  0  0  0  0  0  0  0  0  0  0
   63.3878   34.5512   52.2267 H   0  0  0  0  0  0  0  0  0  0  0  0
   64.3331   34.8267   50.7243 H   0  0  0  0  0  0  0  0  0  0  0  0
   62.5541   35.0752   50.7243 H   0  0  0  0  0  0  0  0  0  0  0  0
   63.1882   32.7903   52.8871 H   0  0  0  0  0  0  0  0  0  0  0  0
   62.4216   31.4149   52.0227 H   0  0  0  0  0  0  0  0  0  0  0  0
   64.2092   31.5915   52.0227 H   0  0  0  0  0  0  0  0  0  0  0  0
   61.4968   31.7102   50.1470 H   0  0  0  0  0  0  0  0  0  0  0  0
   61.0328   33.3852   50.6429 H   0  0  0  0  0  0  0  0  0  0  0  0
   57.2427   32.5302   42.8253 H   0  0  0  0  0  0  0  0  0  0  0  0
   58.9131   32.4829   43.5238 H   0  0  0  0  0  0  0  0  0  0  0  0
   57.9054   31.1441   47.3019 H   0  0  0  0  0  0  0  0  0  0  0  0
   59.5470   29.6330   48.4104 H   0  0  0  0  0  0  0  0  0  0  0  0
   61.0237   28.1631   47.0386 H   0  0  0  0  0  0  0  0  0  0  0  0
   60.8559   28.1996   44.5491 H   0  0  0  0  0  0  0  0  0  0  0  0
   59.2171   29.7048   43.4262 H   0  0  0  0  0  0  0  0  0  0  0  0
   56.2210   33.8260   46.8480 H   0  0  0  0  0  0  0  0  0  0  0  0
   56.6410   33.0660   48.3940 H   0  0  0  0  0  0  0  0  0  0  0  0
   64.9667   32.7139   47.9489 H   0  0  0  0  0  0  0  0  0  0  0  0
   64.6472   34.2564   48.8509 H   0  0  0  0  0  0  0  0  0  0  0  0
  1  2  1  0
  2  3  1  0
  2  4  1  0
  4  5  1  0
  5  6  2  0
  6  7  1  0
  7  8  1  0
  8  9  1  0
  9 10  2  0
 10 11  1  0
 11 12  1  0
 12 13  1  0
 13 14  2  0
 13 15  1  0
 15 16  2  0
 16 17  1  0
 17 18  2  0
 18 19  1  0
 19 20  2  0
 10 21  1  0
 21 22  1  0
 21 23  1  0
 23 24  2  0
 23 25  1  0
  6 26  1  0
 26 27  1  0
 27  2  1  0
 25  5  1  0
 25  8  2  0
 20 15  1  0
  1 28  1  0
  1 29  1  0
  1 30  1  0
  3 31  1  0
  3 32  1  0
  3 33  1  0
  4 34  1  0
  4 35  1  0
 12 36  1  0
 12 37  1  0
 16 38  1  0
 17 39  1  0
 18 40  1  0
 19 41  1  0
 20 42  1  0
 22 43  1  0
 22 44  1  0
 26 45  1  0
 26 46  1  0
M  END
>  <UniqueID>  (25) 
23

>  <SMILES>  (25) 
CC1(C)Cc2c(sc3nc(SCC(=O)c4ccccc4)n(N)c(=O)c23)CO1

>  <Energy>  (25) 
90.26112395309818

>  <Genealogy>  (25) 
CC1(C)Cc2c(sc3nc(SCC(=O)c4ccccc4)n(N)c(=O)c23)CO1 (3D coordinates assigned)
CC1(C)Cc2c(sc3nc(SCC(=O)c4ccccc4)n(N)c(=O)c23)CO1 (nonaromatic ring conformer: 90.26112395309818 kcal/mol)

>  <smiles>  (25) 
CC1(C)Cc2c(sc3nc(SCC(=O)c4ccccc4)n(N)c(=O)c23)CO1

>  <score_type>  (25) 
oracle

>  <origin>  (25) 
adg

>  <m_score__min__energy>  (25) 
-8.5299999999999994

>  <m_primary>  (25) 
energy

$$$$
25:0
     RDKit          3D

 58 61  0  0  1  0  0  0  0  0999 V2000
   59.5190   28.8270   49.4110 C   0  0  0  0  0  0  0  0  0  0  0  0
   59.4290   27.8840   48.2740 N   0  0  0  0  0  0  0  0  0  0  0  0
   60.3280   26.7150   48.2250 C   0  0  0  0  0  0  0  0  0  0  0  0
   58.4960   28.1280   47.2070 C   0  0  0  0  0  0  0  0  0  0  0  0
   57.5390   27.1630   47.0990 N   0  0  0  0  0  0  0  0  0  0  0  0
   56.6580   27.2360   46.1070 C   0  0  0  0  0  0  0  0  0  0  0  0
   55.7490   26.3280   45.9960 N   0  0  0  0  0  0  0  0  0  0  0  0
   55.9670   25.1280   45.3000 C   0  0  0  0  0  0  0  0  0  0  0  0
   55.0050   24.1140   45.3530 C   0  0  0  0  0  0  0  0  0  0  0  0
   55.1860   22.9140   44.6760 C   0  0  0  0  0  0  0  0  0  0  0  0
   56.3350   22.7010   43.9310 C   0  0  0  0  0  0  0  0  0  0  0  0
   56.5560   21.4660   43.2160 C   0  0  0  0  0  0  0  0  0  0  0  0
   56.7200   20.4600   42.6290 N   0  0  0  0  0  0  0  0  0  0  0  0
   57.3080   23.7000   43.8640 C   0  0  0  0  0  0  0  0  0  0  0  0
   57.0830   24.8680   44.5500 C   0  0  0  0  0  0  0  0  0  0  0  0
   56.7030   28.2390   45.2270 N   0  0  0  0  0  0  0  0  0  0  0  0
   57.6520   29.2180   45.3160 C   0  0  0  0  0  0  0  0  0  0  0  0
   58.6060   29.1860   46.3470 C   0  0  0  0  0  0  0  0  0  0  0  0
   59.5130   30.2880   46.4420 C   0  0  0  0  0  0  0  0  0  0  0  0
   59.2350   31.5170   46.8460 C   0  0  0  0  0  0  0  0  0  0  0  0
   60.3110   32.5720   46.8930 C   0  0  0  0  0  0  0  0  0  0  0  0
   61.4850   32.0090   47.5130 N   0  0  0  0  0  0  0  0  0  0  0  0
   62.3460   32.8450   48.2930 C   0  0  0  0  0  0  0  0  0  0  0  0
   62.1510   34.0740   48.2090 O   0  0  0  0  0  0  0  0  0  0  0  0
   63.3510   32.2880   49.1040 N   0  0  0  0  0  0  0  0  0  0  0  0
   64.2600   32.9800   49.9160 C   0  0  0  0  0  0  0  0  0  0  0  0
   63.9390   33.9030   50.8800 C   0  0  0  0  0  0  0  0  0  0  0  0
   64.9000   34.5570   51.6530 C   0  0  0  0  0  0  0  0  0  0  0  0
   66.2440   34.2920   51.4720 C   0  0  0  0  0  0  0  0  0  0  0  0
   67.4760   35.0800   52.4110 Cl  0  0  0  0  0  0  0  0  0  0  0  0
   66.5640   33.3650   50.5050 C   0  0  0  0  0  0  0  0  0  0  0  0
   65.6160   32.7240   49.7460 C   0  0  0  0  0  0  0  0  0  0  0  0
   61.7390   30.6000   47.3100 C   0  0  0  0  0  0  0  0  0  0  0  0
   60.9610   30.0790   46.0870 C   0  0  0  0  0  0  0  0  0  0  0  0
   59.4656   28.2675   50.3565 H   0  0  0  0  0  0  0  0  0  0  0  0
   60.4732   29.3719   49.3608 H   0  0  0  0  0  0  0  0  0  0  0  0
   58.6851   29.5426   49.3608 H   0  0  0  0  0  0  0  0  0  0  0  0
   60.5724   26.3972   49.2493 H   0  0  0  0  0  0  0  0  0  0  0  0
   59.8289   25.8906   47.6946 H   0  0  0  0  0  0  0  0  0  0  0  0
   61.2529   26.9857   47.6946 H   0  0  0  0  0  0  0  0  0  0  0  0
   54.0886   24.2693   45.9412 H   0  0  0  0  0  0  0  0  0  0  0  0
   54.4153   22.1311   44.7316 H   0  0  0  0  0  0  0  0  0  0  0  0
   58.2281   23.5556   43.2787 H   0  0  0  0  0  0  0  0  0  0  0  0
   57.8540   25.6505   44.4931 H   0  0  0  0  0  0  0  0  0  0  0  0
   55.9990   28.2590   44.4680 H   0  0  0  0  0  0  0  0  0  0  0  0
   57.6692   30.0337   44.5782 H   0  0  0  0  0  0  0  0  0  0  0  0
   58.2090   31.7714   47.1505 H   0  0  0  0  0  0  0  0  0  0  0  0
   60.5531   32.8993   45.8711 H   0  0  0  0  0  0  0  0  0  0  0  0
   59.9605   33.4386   47.4727 H   0  0  0  0  0  0  0  0  0  0  0  0
   63.4110   31.2240   49.0860 H   0  0  0  0  0  0  0  0  0  0  0  0
   62.8780   34.1376   51.0509 H   0  0  0  0  0  0  0  0  0  0  0  0
   64.5850   35.2886   52.4117 H   0  0  0  0  0  0  0  0  0  0  0  0
   67.6243   33.1279   50.3333 H   0  0  0  0  0  0  0  0  0  0  0  0
   65.9358   31.9934   48.9884 H   0  0  0  0  0  0  0  0  0  0  0  0
   62.8158   30.4469   47.1454 H   0  0  0  0  0  0  0  0  0  0  0  0
   61.4079   30.0481   48.2021 H   0  0  0  0  0  0  0  0  0  0  0  0
   61.2264   30.6506   45.1854 H   0  0  0  0  0  0  0  0  0  0  0  0
   61.1887   29.0260   45.8649 H   0  0  0  0  0  0  0  0  0  0  0  0
  1  2  1  0
  2  3  1  0
  2  4  1  0
  4  5  2  0
  5  6  1  0
  6  7  2  0
  7  8  1  0
  8  9  2  0
  9 10  1  0
 10 11  2  0
 11 12  1  0
 12 13  3  0
 11 14  1  0
 14 15  2  0
  6 16  1  0
 16 17  1  0
 17 18  2  0
 18 19  1  0
 19 20  2  0
 20 21  1  0
 21 22  1  0
 22 23  1  0
 23 24  2  0
 23 25  1  0
 25 26  1  0
 26 27  2  0
 27 28  1  0
 28 29  2  0
 29 30  1  0
 29 31  1  0
 31 32  2  0
 22 33  1  0
 33 34  1  0
 18  4  1  0
 34 19  1  0
 15  8  1  0
 32 26  1  0
  1 35  1  0
  1 36  1  0
  1 37  1  0
  3 38  1  0
  3 39  1  0
  3 40  1  0
  9 41  1  0
 10 42  1  0
 14 43  1  0
 15 44  1  0
 16 45  1  0
 17 46  1  0
 20 47  1  0
 21 48  1  0
 21 49  1  0
 25 50  1  0
 27 51  1  0
 28 52  1  0
 31 53  1  0
 32 54  1  0
 33 55  1  0
 33 56  1  0
 34 57  1  0
 34 58  1  0
M  END
>  <smiles>  (26) 
CN(C)c1nc(=Nc2ccc(C#N)cc2)[nH]cc1C1=CCN(C(=O)Nc2ccc(Cl)cc2)CC1

>  <score_type>  (26) 
oracle

>  <origin>  (26) 
adg

>  <m_score__min__energy>  (26) 
-8.0199999999999996

>  <m_primary>  (26) 
energy

$$$$
26:0
     RDKit          3D

 68 72  0  0  0  0  0  0  0  0999 V2000
   55.0140   30.7190   51.9930 C   0  0  0  0  0  0  0  0  0  0  0  0
   56.4570   31.1500   52.0670 C   0  0  0  0  0  0  0  0  0  0  0  0
   56.7830   32.4760   52.3750 C   0  0  0  0  0  0  0  0  0  0  0  0
   58.1140   32.8980   52.3600 C   0  0  0  0  0  0  0  0  0  0  0  0
   59.1530   31.9950   52.0680 C   0  0  0  0  0  0  0  0  0  0  0  0
   60.5750   32.5300   52.0340 C   0  0  0  0  0  0  0  0  0  0  0  0
   58.8460   30.6270   51.8080 C   0  0  0  0  0  0  0  0  0  0  0  0
   59.9580   29.6380   51.4590 C   0  0  0  0  0  0  0  0  0  0  0  0
   60.9030   30.1050   50.4150 N   0  0  0  0  0  0  0  0  0  0  0  0
   62.3230   30.2110   50.7840 C   0  0  0  0  0  0  0  0  0  0  0  0
   62.7720   29.3410   51.5970 O   0  0  0  0  0  0  0  0  0  0  0  0
   63.2820   31.2960   50.3300 C   0  0  0  0  0  0  0  0  0  0  0  0
   64.5410   31.4010   50.9850 C   0  0  0  0  0  0  0  0  0  0  0  0
   65.5450   32.2530   50.5110 C   0  0  0  0  0  0  0  0  0  0  0  0
   65.3220   33.0330   49.3830 C   0  0  0  0  0  0  0  0  0  0  0  0
   64.0720   33.0190   48.7700 C   0  0  0  0  0  0  0  0  0  0  0  0
   63.0380   32.2030   49.2680 C   0  0  0  0  0  0  0  0  0  0  0  0
   61.4000   32.6480   48.7820 S   0  0  0  0  0  0  0  0  0  0  0  0
   60.9730   31.0710   48.1130 C   0  0  0  0  0  0  0  0  0  0  0  0
   60.7790   30.9530   46.7280 C   0  0  0  0  0  0  0  0  0  0  0  0
   59.9800   29.9300   46.2190 C   0  0  0  0  0  0  0  0  0  0  0  0
   59.2710   29.0940   47.1010 C   0  0  0  0  0  0  0  0  0  0  0  0
   58.2080   28.2170   46.5890 C   0  0  0  0  0  0  0  0  0  0  0  0
   57.9170   27.1450   47.1910 O   0  0  0  0  0  0  0  0  0  0  0  0
   57.5550   28.5500   45.3550 N   0  0  0  0  0  0  0  0  0  0  0  0
   56.6660   29.6890   45.2030 C   0  0  0  0  0  0  0  0  0  0  0  0
   57.3700   30.8420   44.4860 C   0  0  0  0  0  0  0  0  0  0  0  0
   57.2010   32.1050   45.2470 N   0  0  0  0  0  0  0  0  0  0  0  0
   57.7760   32.0550   46.6140 C   0  0  0  0  0  0  0  0  0  0  0  0
   57.9340   33.4470   47.2330 C   0  0  0  0  0  0  0  0  0  0  0  0
   58.8440   34.3460   46.3750 C   0  0  0  0  0  0  0  0  0  0  0  0
   58.7700   34.0410   44.8650 C   0  0  0  0  0  0  0  0  0  0  0  0
   57.4590   33.3470   44.4720 C   0  0  0  0  0  0  0  0  0  0  0  0
   59.5380   29.1670   48.4900 C   0  0  0  0  0  0  0  0  0  0  0  0
   60.4890   30.0960   48.9980 C   0  0  0  0  0  0  0  0  0  0  0  0
   57.4810   30.2450   51.7470 C   0  0  0  0  0  0  0  0  0  0  0  0
   54.6143   30.5996   53.0108 H   0  0  0  0  0  0  0  0  0  0  0  0
   54.4304   31.4821   51.4571 H   0  0  0  0  0  0  0  0  0  0  0  0
   54.9445   29.7609   51.4571 H   0  0  0  0  0  0  0  0  0  0  0  0
   55.9860   33.1898   52.6304 H   0  0  0  0  0  0  0  0  0  0  0  0
   58.3532   33.9491   52.5791 H   0  0  0  0  0  0  0  0  0  0  0  0
   60.9398   32.6673   53.0626 H   0  0  0  0  0  0  0  0  0  0  0  0
   61.2235   31.8144   51.5074 H   0  0  0  0  0  0  0  0  0  0  0  0
   60.5910   33.4956   51.5074 H   0  0  0  0  0  0  0  0  0  0  0  0
   60.5332   29.4335   52.3740 H   0  0  0  0  0  0  0  0  0  0  0  0
   59.4610   28.7463   51.0493 H   0  0  0  0  0  0  0  0  0  0  0  0
   64.7296   30.7980   51.8855 H   0  0  0  0  0  0  0  0  0  0  0  0
   66.5122   32.3052   51.0323 H   0  0  0  0  0  0  0  0  0  0  0  0
   66.1297   33.6590   48.9760 H   0  0  0  0  0  0  0  0  0  0  0  0
   63.8904   33.6513   47.8884 H   0  0  0  0  0  0  0  0  0  0  0  0
   61.2579   31.6684   46.0433 H   0  0  0  0  0  0  0  0  0  0  0  0
   59.9043   29.7772   45.1323 H   0  0  0  0  0  0  0  0  0  0  0  0
   55.7872   29.3836   44.6162 H   0  0  0  0  0  0  0  0  0  0  0  0
   56.3616   30.0318   46.2029 H   0  0  0  0  0  0  0  0  0  0  0  0
   58.4422   30.6130   44.3974 H   0  0  0  0  0  0  0  0  0  0  0  0
   56.9259   30.9652   43.4872 H   0  0  0  0  0  0  0  0  0  0  0  0
   57.1116   31.4569   47.2549 H   0  0  0  0  0  0  0  0  0  0  0  0
   58.7773   31.6055   46.5401 H   0  0  0  0  0  0  0  0  0  0  0  0
   56.9426   33.9164   47.3151 H   0  0  0  0  0  0  0  0  0  0  0  0
   58.3966   33.3335   48.2245 H   0  0  0  0  0  0  0  0  0  0  0  0
   58.5464   35.3931   46.5329 H   0  0  0  0  0  0  0  0  0  0  0  0
   59.8793   34.1519   46.6921 H   0  0  0  0  0  0  0  0  0  0  0  0
   58.8494   34.9869   44.3092 H   0  0  0  0  0  0  0  0  0  0  0  0
   59.5973   33.3588   44.6197 H   0  0  0  0  0  0  0  0  0  0  0  0
   56.6275   34.0462   44.6444 H   0  0  0  0  0  0  0  0  0  0  0  0
   57.5441   33.0610   43.4133 H   0  0  0  0  0  0  0  0  0  0  0  0
   59.0052   28.4992   49.1829 H   0  0  0  0  0  0  0  0  0  0  0  0
   57.2203   29.2204   51.4432 H   0  0  0  0  0  0  0  0  0  0  0  0
  1  2  1  0
  2  3  2  0
  3  4  1  0
  4  5  2  0
  5  6  1  0
  5  7  1  0
  7  8  1  0
  8  9  1  0
  9 10  1  0
 10 11  2  0
 10 12  1  0
 12 13  2  0
 13 14  1  0
 14 15  2  0
 15 16  1  0
 16 17  2  0
 17 18  1  0
 18 19  1  0
 19 20  2  0
 20 21  1  0
 21 22  2  0
 22 23  1  0
 23 24  2  0
 23 25  1  0
 25 26  1  0
 26 27  1  0
 27 28  1  0
 28 29  1  0
 29 30  1  0
 30 31  1  0
 31 32  1  0
 32 33  1  0
 22 34  1  0
 34 35  2  0
  7 36  2  0
 36  2  1  0
 35  9  1  0
 17 12  1  0
 35 19  1  0
 33 28  1  0
  1 37  1  0
  1 38  1  0
  1 39  1  0
  3 40  1  0
  4 41  1  0
  6 42  1  0
  6 43  1  0
  6 44  1  0
  8 45  1  0
  8 46  1  0
 13 47  1  0
 14 48  1  0
 15 49  1  0
 16 50  1  0
 20 51  1  0
 21 52  1  0
 26 53  1  0
 26 54  1  0
 27 55  1  0
 27 56  1  0
 29 57  1  0
 29 58  1  0
 30 59  1  0
 30 60  1  0
 31 61  1  0
 31 62  1  0
 32 63  1  0
 32 64  1  0
 33 65  1  0
 33 66  1  0
 34 67  1  0
 36 68  1  0
M  CHG  1  25  -1
M  END
>  <UniqueID>  (27) 
24

>  <SMILES>  (27) 
Cc1ccc(C)c(CN2C(=O)c3ccccc3Sc3ccc(C(=O)[N-]CCN4CCCCC4)cc32)c1

>  <Energy>  (27) 
117.3114779481808

>  <Genealogy>  (27) 
Cc1ccc(C)c(CN2C(=O)c3ccccc3Sc3ccc(C(=O)[N-]CCN4CCCCC4)cc32)c1 (protonated)
Cc1ccc(C)c(CN2C(=O)c3ccccc3Sc3ccc(C(=O)[N-]CCN4CCCCC4)cc32)c1 (3D coordinates assigned)
Cc1ccc(C)c(CN2C(=O)c3ccccc3Sc3ccc(C(=O)[N-]CCN4CCCCC4)cc32)c1 (nonaromatic ring conformer: 117.3114779481808 kcal/mol)

>  <smiles>  (27) 
Cc1ccc(C)c(CN2C(=O)c3ccccc3Sc3ccc(C(=O)NCCN4CCCCC4)cc32)c1

>  <score_type>  (27) 
oracle

>  <origin>  (27) 
adg

>  <m_score__min__energy>  (27) 
-11.24

>  <m_primary>  (27) 
energy

$$$$
27:0
     RDKit          3D

 39 41  0  0  0  0  0  0  0  0999 V2000
   61.5668   27.8395   45.0545 H   0  0  0  0  0  0  0  0  0  0  0  0
   60.6020   28.3140   45.2870 C   0  0  0  0  0  0  0  0  0  0  0  0
   59.2490   28.3340   44.2900 S   0  0  0  0  0  0  0  0  0  0  0  0
   58.2560   29.2160   45.3230 C   0  0  0  0  0  0  0  0  0  0  0  0
   56.8650   29.5970   45.0310 C   0  0  0  0  0  0  0  0  0  0  0  0
   55.9360   28.7710   45.2430 O   0  0  0  0  0  0  0  0  0  0  0  0
   56.5790   30.8650   44.5170 O   0  0  0  0  0  0  0  0  0  0  0  0
   57.3700   31.4820   43.5100 C   0  0  0  0  0  0  0  0  0  0  0  0
   58.1534   32.0930   43.9822 H   0  0  0  0  0  0  0  0  0  0  0  0
   57.8368   30.7070   42.8843 H   0  0  0  0  0  0  0  0  0  0  0  0
   56.7320   32.1234   42.8843 H   0  0  0  0  0  0  0  0  0  0  0  0
   58.9860   29.5190   46.4710 C   0  0  0  0  0  0  0  0  0  0  0  0
   58.4240   30.2320   47.5810 N   0  0  0  0  0  0  0  0  0  0  0  0
   58.6540   31.6120   47.8960 C   0  0  0  0  0  0  0  0  0  0  0  0
   58.8300   31.9320   49.1010 O   0  0  0  0  0  0  0  0  0  0  0  0
   58.6150   32.6690   46.8570 C   0  0  0  0  0  0  0  0  0  0  0  0
   57.3770   33.2100   46.4650 C   0  0  0  0  0  0  0  0  0  0  0  0
   56.4501   32.8451   46.9315 H   0  0  0  0  0  0  0  0  0  0  0  0
   57.3150   34.2060   45.4890 C   0  0  0  0  0  0  0  0  0  0  0  0
   56.3417   34.6239   45.1921 H   0  0  0  0  0  0  0  0  0  0  0  0
   58.4840   34.6720   44.8900 C   0  0  0  0  0  0  0  0  0  0  0  0
   58.4315   35.4504   44.1146 H   0  0  0  0  0  0  0  0  0  0  0  0
   59.7210   34.1520   45.2730 C   0  0  0  0  0  0  0  0  0  0  0  0
   60.6392   34.5121   44.7860 H   0  0  0  0  0  0  0  0  0  0  0  0
   59.8020   33.1710   46.2770 C   0  0  0  0  0  0  0  0  0  0  0  0
   61.0710   32.5780   46.6050 N   0  0  0  0  0  0  0  0  0  0  0  0
   61.9000   32.9460   47.5450 C   0  0  0  0  0  0  0  0  0  0  0  0
   63.3000   32.9390   47.3610 C   0  0  0  0  0  0  0  0  0  0  0  0
   63.7314   32.6071   46.4051 H   0  0  0  0  0  0  0  0  0  0  0  0
   64.1320   33.3560   48.4000 C   0  0  0  0  0  0  0  0  0  0  0  0
   65.2240   33.3461   48.2679 H   0  0  0  0  0  0  0  0  0  0  0  0
   63.5800   33.7850   49.6050 C   0  0  0  0  0  0  0  0  0  0  0  0
   64.2306   34.1075   50.4313 H   0  0  0  0  0  0  0  0  0  0  0  0
   62.1920   33.8010   49.7520 C   0  0  0  0  0  0  0  0  0  0  0  0
   61.7447   34.1453   50.6962 H   0  0  0  0  0  0  0  0  0  0  0  0
   61.3900   33.3920   48.7310 N   0  0  0  0  0  0  0  0  0  0  0  0
   60.3550   33.4170   48.8720 H   0  0  0  0  0  0  0  0  0  0  0  0
   60.2930   28.9990   46.4540 C   0  0  0  0  0  0  0  0  0  0  0  0
   61.0021   29.1233   47.2857 H   0  0  0  0  0  0  0  0  0  0  0  0
  1  2  1  0
  2  3  1  0
  3  4  1  0
  4  5  1  0
  5  6  2  0
  5  7  1  0
  7  8  1  0
  8  9  1  0
  8 10  1  0
  8 11  1  0
  4 12  2  0
 12 13  1  0
 13 14  1  0
 14 15  2  0
 14 16  1  0
 16 17  2  0
 17 18  1  0
 17 19  1  0
 19 20  1  0
 19 21  2  0
 21 22  1  0
 21 23  1  0
 23 24  1  0
 23 25  2  0
 25 26  1  0
 26 27  2  0
 27 28  1  0
 28 29  1  0
 28 30  2  0
 30 31  1  0
 30 32  1  0
 32 33  1  0
 32 34  2  0
 34 35  1  0
 34 36  1  0
 36 37  1  0
 12 38  1  0
 38 39  1  0
 38  2  2  0
 25 16  1  0
 36 27  1  0
M  CHG  1  13  -1
M  END
>  <UniqueID>  (28) 
25

>  <SMILES>  (28) 
COC(=O)c1sccc1[N-]C(=O)c1ccccc1/N=c1\cccc[nH]1

>  <Energy>  (28) 
82.35272382801082

>  <Genealogy>  (28) 
COC(=O)c1sccc1[N-]C(=O)c1ccccc1N=c1cccc[nH]1 (protonated)
COC(=O)c1sccc1[N-]C(=O)c1ccccc1/N=c1\cccc[nH]1 (cis-trans isomerization)
COC(=O)c1sccc1[N-]C(=O)c1ccccc1/N=c1\cccc[nH]1 (3D coordinates assigned)
COC(=O)c1sccc1[N-]C(=O)c1ccccc1/N=c1\cccc[nH]1 (optimized conformer: 82.35272382801082 kcal/mol)

>  <smiles>  (28) 
COC(=O)c1sccc1NC(=O)c1ccccc1N=c1cccc[nH]1

>  <score_type>  (28) 
oracle

>  <origin>  (28) 
adg

>  <m_score__min__energy>  (28) 
-9.2599999999999998

>  <m_primary>  (28) 
energy

$$$$
28:0
     RDKit          3D

 32 34  0  0  0  0  0  0  0  0999 V2000
   60.0790   34.3910   49.2660 C   0  0  0  0  0  0  0  0  0  0  0  0
   59.8110   34.9550   47.9870 O   0  0  0  0  0  0  0  0  0  0  0  0
   59.3820   34.2200   46.8710 C   0  0  0  0  0  0  0  0  0  0  0  0
   59.2520   34.8880   45.6470 C   0  0  0  0  0  0  0  0  0  0  0  0
   58.8270   34.2050   44.5040 C   0  0  0  0  0  0  0  0  0  0  0  0
   58.5290   32.8340   44.5710 C   0  0  0  0  0  0  0  0  0  0  0  0
   58.0940   32.1030   43.4540 C   0  0  0  0  0  0  0  0  0  0  0  0
   57.9500   32.6590   42.3310 O   0  0  0  0  0  0  0  0  0  0  0  0
   57.8160   30.7430   43.5910 C   0  0  0  0  0  0  0  0  0  0  0  0
   57.9770   30.1280   44.8460 C   0  0  0  0  0  0  0  0  0  0  0  0
   57.6940   28.6860   45.0530 C   0  0  0  0  0  0  0  0  0  0  0  0
   58.6980   27.7060   44.9150 C   0  0  0  0  0  0  0  0  0  0  0  0
   58.4040   26.3570   45.1270 C   0  0  0  0  0  0  0  0  0  0  0  0
   57.1130   25.9610   45.4840 C   0  0  0  0  0  0  0  0  0  0  0  0
   56.8470   24.6060   45.6870 O   0  0  0  0  0  0  0  0  0  0  0  0
   56.1070   26.9280   45.6360 C   0  0  0  0  0  0  0  0  0  0  0  0
   54.8170   26.5560   45.9950 O   0  0  0  0  0  0  0  0  0  0  0  0
   56.4000   28.2810   45.4260 C   0  0  0  0  0  0  0  0  0  0  0  0
   58.3820   30.8570   45.8850 O   0  0  0  0  0  0  0  0  0  0  0  0
   58.6600   32.1540   45.8020 C   0  0  0  0  0  0  0  0  0  0  0  0
   59.0840   32.8460   46.9420 C   0  0  0  0  0  0  0  0  0  0  0  0
   59.7481   35.0875   50.0505 H   0  0  0  0  0  0  0  0  0  0  0  0
   59.5368   33.4394   49.3680 H   0  0  0  0  0  0  0  0  0  0  0  0
   61.1592   34.2103   49.3680 H   0  0  0  0  0  0  0  0  0  0  0  0
   59.4867   35.9609   45.5845 H   0  0  0  0  0  0  0  0  0  0  0  0
   58.7256   34.7425   43.5496 H   0  0  0  0  0  0  0  0  0  0  0  0
   57.4739   30.1566   42.7255 H   0  0  0  0  0  0  0  0  0  0  0  0
   59.7197   28.0056   44.6386 H   0  0  0  0  0  0  0  0  0  0  0  0
   59.1948   25.6011   45.0120 H   0  0  0  0  0  0  0  0  0  0  0  0
   55.9240   24.2700   45.9310 H   0  0  0  0  0  0  0  0  0  0  0  0
   55.6096   29.0352   45.5542 H   0  0  0  0  0  0  0  0  0  0  0  0
   59.1850   32.3133   47.8991 H   0  0  0  0  0  0  0  0  0  0  0  0
  1  2  1  0
  2  3  1  0
  3  4  2  0
  4  5  1  0
  5  6  2  0
  6  7  1  0
  7  8  2  0
  7  9  1  0
  9 10  2  0
 10 11  1  0
 11 12  2  0
 12 13  1  0
 13 14  2  0
 14 15  1  0
 14 16  1  0
 16 17  1  0
 16 18  2  0
 10 19  1  0
 19 20  1  0
 20 21  2  0
 21  3  1  0
 20  6  1  0
 18 11  1  0
  1 22  1  0
  1 23  1  0
  1 24  1  0
  4 25  1  0
  5 26  1  0
  9 27  1  0
 12 28  1  0
 13 29  1  0
 15 30  1  0
 18 31  1  0
 21 32  1  0
M  CHG  1  17  -1
M  END
>  <UniqueID>  (29) 
26

>  <SMILES>  (29) 
COc1ccc2c(=O)cc(-c3ccc(O)c([O-])c3)oc2c1

>  <Energy>  (29) 
43.16670152043636

>  <Genealogy>  (29) 
COc1ccc2c(=O)cc(-c3ccc(O)c([O-])c3)oc2c1 (protonated)
COc1ccc2c(=O)cc(-c3ccc(O)c([O-])c3)oc2c1 (3D coordinates assigned)
COc1ccc2c(=O)cc(-c3ccc(O)c([O-])c3)oc2c1 (optimized conformer: 43.16670152043636 kcal/mol)

>  <smiles>  (29) 
COc1ccc2c(=O)cc(-c3ccc(O)c(O)c3)oc2c1

>  <score_type>  (29) 
oracle

>  <origin>  (29) 
adg

>  <m_score__min__energy>  (29) 
-9.7200000000000006

>  <m_primary>  (29) 
energy

$$$$
29:0
     RDKit          3D

 17 18  0  0  0  0  0  0  0  0999 V2000
   59.6090   36.0030   45.1630 O   0  0  0  0  0  0  0  0  0  0  0  0
   59.2690   34.8090   45.3710 C   0  0  0  0  0  0  0  0  0  0  0  0
   58.5500   34.1050   44.5160 O   0  0  0  0  0  0  0  0  0  0  0  0
   58.3140   32.8760   44.9460 C   0  0  0  0  0  0  0  0  0  0  0  0
   57.5830   31.9130   44.2490 C   0  0  0  0  0  0  0  0  0  0  0  0
   57.4070   30.6410   44.8300 C   0  0  0  0  0  0  0  0  0  0  0  0
   56.5030   29.3990   43.9730 S   0  0  0  0  0  0  0  0  0  0  0  0
   57.3660   28.1850   43.7720 O   0  0  0  0  0  0  0  0  0  0  0  0
   56.0760   29.9160   42.6280 O   0  0  0  0  0  0  0  0  0  0  0  0
   55.1440   28.9790   44.8680 O   0  0  0  0  0  0  0  0  0  0  0  0
   57.9760   30.3560   46.0920 C   0  0  0  0  0  0  0  0  0  0  0  0
   58.7090   31.3350   46.7820 C   0  0  0  0  0  0  0  0  0  0  0  0
   58.8600   32.5830   46.1850 C   0  0  0  0  0  0  0  0  0  0  0  0
   59.6750   33.9340   46.7620 S   0  0  0  0  0  0  0  0  0  0  0  0
   57.1517   32.1426   43.2635 H   0  0  0  0  0  0  0  0  0  0  0  0
   57.8435   29.3590   46.5374 H   0  0  0  0  0  0  0  0  0  0  0  0
   59.1512   31.1215   47.7663 H   0  0  0  0  0  0  0  0  0  0  0  0
  1  2  2  0
  2  3  1  0
  3  4  1  0
  4  5  2  0
  5  6  1  0
  6  7  1  0
  7  8  2  0
  7  9  2  0
  7 10  1  0
  6 11  2  0
 11 12  1  0
 12 13  2  0
 13 14  1  0
 14  2  1  0
 13  4  1  0
  5 15  1  0
 11 16  1  0
 12 17  1  0
M  CHG  1  10  -1
M  END
>  <UniqueID>  (30) 
27

>  <SMILES>  (30) 
O=c1oc2cc(S(=O)(=O)[O-])ccc2s1

>  <Energy>  (30) 
55.27150618208785

>  <Genealogy>  (30) 
O=c1oc2cc(S(=O)(=O)[O-])ccc2s1 (protonated)
O=c1oc2cc(S(=O)(=O)[O-])ccc2s1 (3D coordinates assigned)
O=c1oc2cc(S(=O)(=O)[O-])ccc2s1 (optimized conformer: 55.27150618208785 kcal/mol)

>  <smiles>  (30) 
O=c1oc2cc(S(=O)(=O)O)ccc2s1

>  <score_type>  (30) 
oracle

>  <origin>  (30) 
adg

>  <m_score__min__energy>  (30) 
-9

>  <m_primary>  (30) 
energy

$$$$
30:0
     RDKit          3D

 49 52  0  0  0  0  0  0  0  0999 V2000
   59.6720   35.8290   46.2890 O   0  0  0  0  0  0  0  0  0  0  0  0
   59.6340   34.6420   46.7150 C   0  0  0  0  0  0  0  0  0  0  0  0
   58.4600   33.8420   46.5090 N   0  0  0  0  0  0  0  0  0  0  0  0
   58.2000   32.9780   45.3940 C   0  0  0  0  0  0  0  0  0  0  0  0
   58.1870   33.5290   44.1080 C   0  0  0  0  0  0  0  0  0  0  0  0
   57.9240   32.7250   42.9980 C   0  0  0  0  0  0  0  0  0  0  0  0
   57.6510   31.3660   43.1630 C   0  0  0  0  0  0  0  0  0  0  0  0
   57.6230   30.7980   44.4490 C   0  0  0  0  0  0  0  0  0  0  0  0
   57.3230   29.3570   44.6370 C   0  0  0  0  0  0  0  0  0  0  0  0
   56.2390   29.0130   45.1830 O   0  0  0  0  0  0  0  0  0  0  0  0
   58.2400   28.3470   44.1860 N   0  0  0  0  0  0  0  0  0  0  0  0
   58.1010   26.9670   44.5520 C   0  0  0  0  0  0  0  0  0  0  0  0
   57.7650   26.0300   43.5640 C   0  0  0  0  0  0  0  0  0  0  0  0
   57.6180   24.6790   43.8910 C   0  0  0  0  0  0  0  0  0  0  0  0
   57.8210   24.2510   45.2040 C   0  0  0  0  0  0  0  0  0  0  0  0
   58.1850   25.1710   46.1910 C   0  0  0  0  0  0  0  0  0  0  0  0
   58.3330   26.5270   45.8730 C   0  0  0  0  0  0  0  0  0  0  0  0
   58.9430   27.7170   47.2490 Br  0  0  0  0  0  0  0  0  0  0  0  0
   57.9000   31.6140   45.5620 C   0  0  0  0  0  0  0  0  0  0  0  0
   60.7820   34.0930   47.4750 C   0  0  0  0  0  0  0  0  0  0  0  0
   61.9240   33.6220   46.8040 C   0  0  0  0  0  0  0  0  0  0  0  0
   63.0080   33.1070   47.5210 C   0  0  0  0  0  0  0  0  0  0  0  0
   62.9740   33.0500   48.9260 C   0  0  0  0  0  0  0  0  0  0  0  0
   64.1250   32.5020   49.6880 C   0  0  0  0  0  0  0  0  0  0  0  0
   65.3910   33.1130   49.6120 C   0  0  0  0  0  0  0  0  0  0  0  0
   66.4730   32.5960   50.3300 C   0  0  0  0  0  0  0  0  0  0  0  0
   66.3040   31.4640   51.1310 C   0  0  0  0  0  0  0  0  0  0  0  0
   65.0540   30.8480   51.2160 C   0  0  0  0  0  0  0  0  0  0  0  0
   63.9690   31.3620   50.4990 C   0  0  0  0  0  0  0  0  0  0  0  0
   61.8330   33.5230   49.5960 C   0  0  0  0  0  0  0  0  0  0  0  0
   60.7500   34.0390   48.8790 C   0  0  0  0  0  0  0  0  0  0  0  0
   58.3853   34.6023   43.9710 H   0  0  0  0  0  0  0  0  0  0  0  0
   57.9319   33.1638   41.9893 H   0  0  0  0  0  0  0  0  0  0  0  0
   57.4568   30.7361   42.2824 H   0  0  0  0  0  0  0  0  0  0  0  0
   58.8750   28.5740   43.3870 H   0  0  0  0  0  0  0  0  0  0  0  0
   57.6162   26.3603   42.5254 H   0  0  0  0  0  0  0  0  0  0  0  0
   57.3420   23.9523   43.1127 H   0  0  0  0  0  0  0  0  0  0  0  0
   57.6944   23.1892   45.4619 H   0  0  0  0  0  0  0  0  0  0  0  0
   58.3560   24.8286   47.2223 H   0  0  0  0  0  0  0  0  0  0  0  0
   57.8817   31.1808   46.5730 H   0  0  0  0  0  0  0  0  0  0  0  0
   61.9650   33.6590   45.7054 H   0  0  0  0  0  0  0  0  0  0  0  0
   63.8951   32.7432   46.9818 H   0  0  0  0  0  0  0  0  0  0  0  0
   65.5298   34.0044   48.9825 H   0  0  0  0  0  0  0  0  0  0  0  0
   67.4582   33.0808   50.2643 H   0  0  0  0  0  0  0  0  0  0  0  0
   67.1564   31.0577   51.6952 H   0  0  0  0  0  0  0  0  0  0  0  0
   64.9224   29.9572   51.8478 H   0  0  0  0  0  0  0  0  0  0  0  0
   62.9867   30.8720   50.5692 H   0  0  0  0  0  0  0  0  0  0  0  0
   61.7918   33.4868   50.6946 H   0  0  0  0  0  0  0  0  0  0  0  0
   59.8645   34.4062   49.4185 H   0  0  0  0  0  0  0  0  0  0  0  0
  1  2  2  0
  2  3  1  0
  3  4  1  0
  4  5  2  0
  5  6  1  0
  6  7  2  0
  7  8  1  0
  8  9  1  0
  9 10  2  0
  9 11  1  0
 11 12  1  0
 12 13  2  0
 13 14  1  0
 14 15  2  0
 15 16  1  0
 16 17  2  0
 17 18  1  0
  8 19  2  0
  2 20  1  0
 20 21  2  0
 21 22  1  0
 22 23  2  0
 23 24  1  0
 24 25  2  0
 25 26  1  0
 26 27  2  0
 27 28  1  0
 28 29  2  0
 23 30  1  0
 30 31  2  0
 19  4  1  0
 31 20  1  0
 17 12  1  0
 29 24  1  0
  5 32  1  0
  6 33  1  0
  7 34  1  0
 11 35  1  0
 13 36  1  0
 14 37  1  0
 15 38  1  0
 16 39  1  0
 19 40  1  0
 21 41  1  0
 22 42  1  0
 25 43  1  0
 26 44  1  0
 27 45  1  0
 28 46  1  0
 29 47  1  0
 30 48  1  0
 31 49  1  0
M  CHG  1   3  -1
M  END
>  <UniqueID>  (31) 
28

>  <SMILES>  (31) 
O=C([N-]c1cccc(C(=O)Nc2ccccc2Br)c1)c1ccc(-c2ccccc2)cc1

>  <Energy>  (31) 
72.245745930854

>  <Genealogy>  (31) 
O=C([N-]c1cccc(C(=O)Nc2ccccc2Br)c1)c1ccc(-c2ccccc2)cc1 (protonated)
O=C([N-]c1cccc(C(=O)Nc2ccccc2Br)c1)c1ccc(-c2ccccc2)cc1 (3D coordinates assigned)
O=C([N-]c1cccc(C(=O)Nc2ccccc2Br)c1)c1ccc(-c2ccccc2)cc1 (optimized conformer: 72.245745930854 kcal/mol)

>  <smiles>  (31) 
O=C(Nc1cccc(C(=O)Nc2ccccc2Br)c1)c1ccc(-c2ccccc2)cc1

>  <score_type>  (31) 
oracle

>  <origin>  (31) 
adg

>  <m_score__min__energy>  (31) 
-11.130000000000001

>  <m_primary>  (31) 
energy

$$$$
31:0
     RDKit          3D

 39 41  0  0  0  0  0  0  0  0999 V2000
   55.1930   28.6400   45.6230 H   0  0  0  0  0  0  0  0  0  0  0  0
   55.1420   29.2530   44.7770 N   0  0  0  0  0  0  0  0  0  0  0  0
   56.7150   29.9330   44.5500 S   0  0  0  0  0  0  0  0  0  0  0  0
   57.2800   29.4680   43.2380 O   0  0  0  0  0  0  0  0  0  0  0  0
   56.5960   31.4320   44.5400 O   0  0  0  0  0  0  0  0  0  0  0  0
   57.7760   29.4250   45.8590 C   0  0  0  0  0  0  0  0  0  0  0  0
   57.9000   28.0670   46.1810 C   0  0  0  0  0  0  0  0  0  0  0  0
   57.3392   27.3138   45.6081 H   0  0  0  0  0  0  0  0  0  0  0  0
   58.7350   27.6670   47.2290 C   0  0  0  0  0  0  0  0  0  0  0  0
   58.8175   26.6002   47.4843 H   0  0  0  0  0  0  0  0  0  0  0  0
   59.4670   28.6140   47.9560 C   0  0  0  0  0  0  0  0  0  0  0  0
   60.2870   28.1620   49.0470 N   0  0  0  0  0  0  0  0  0  0  0  0
   61.1050   28.8790   49.7590 C   0  0  0  0  0  0  0  0  0  0  0  0
   61.7070   28.3790   50.8720 N   0  0  0  0  0  0  0  0  0  0  0  0
   62.5210   29.1350   51.6100 N   0  0  0  0  0  0  0  0  0  0  0  0
   62.7730   30.4270   51.2800 C   0  0  0  0  0  0  0  0  0  0  0  0
   63.8500   31.3810   52.2890 Cl  0  0  0  0  0  0  0  0  0  0  0  0
   62.1640   30.9620   50.1390 C   0  0  0  0  0  0  0  0  0  0  0  0
   62.3660   32.2080   49.8170 N   0  0  0  0  0  0  0  0  0  0  0  0
   61.6560   32.9720   48.8270 C   0  0  0  0  0  0  0  0  0  0  0  0
   62.1390   32.9840   47.5150 C   0  0  0  0  0  0  0  0  0  0  0  0
   63.0595   32.4349   47.2676 H   0  0  0  0  0  0  0  0  0  0  0  0
   61.4620   33.6880   46.5150 C   0  0  0  0  0  0  0  0  0  0  0  0
   61.8596   33.6971   45.4894 H   0  0  0  0  0  0  0  0  0  0  0  0
   60.2760   34.3850   46.8100 C   0  0  0  0  0  0  0  0  0  0  0  0
   59.5670   35.1260   45.7370 C   0  0  0  0  0  0  0  0  0  0  0  0
   59.8650   36.3280   45.5070 O   0  0  0  0  0  0  0  0  0  0  0  0
   58.5350   34.5110   44.9620 N   0  0  0  0  0  0  0  0  0  0  0  0
   58.1410   33.5770   45.2110 H   0  0  0  0  0  0  0  0  0  0  0  0
   58.0920   35.0360   44.1750 H   0  0  0  0  0  0  0  0  0  0  0  0
   59.7690   34.3360   48.1200 C   0  0  0  0  0  0  0  0  0  0  0  0
   58.8304   34.8561   48.3619 H   0  0  0  0  0  0  0  0  0  0  0  0
   60.4490   33.6310   49.1180 C   0  0  0  0  0  0  0  0  0  0  0  0
   60.0368   33.5919   50.1371 H   0  0  0  0  0  0  0  0  0  0  0  0
   61.3290   30.1710   49.4120 N   0  0  0  0  0  0  0  0  0  0  0  0
   59.3090   29.9800   47.6550 C   0  0  0  0  0  0  0  0  0  0  0  0
   59.8456   30.7367   48.2461 H   0  0  0  0  0  0  0  0  0  0  0  0
   58.4730   30.3790   46.6080 C   0  0  0  0  0  0  0  0  0  0  0  0
   58.3628   31.4477   46.3721 H   0  0  0  0  0  0  0  0  0  0  0  0
  1  2  1  0
  2  3  1  0
  3  4  2  0
  3  5  2  0
  3  6  1  0
  6  7  2  0
  7  8  1  0
  7  9  1  0
  9 10  1  0
  9 11  2  0
 11 12  1  0
 12 13  2  0
 13 14  1  0
 14 15  1  0
 15 16  2  0
 16 17  1  0
 16 18  1  0
 18 19  2  3
 19 20  1  0
 20 21  2  0
 21 22  1  0
 21 23  1  0
 23 24  1  0
 23 25  2  0
 25 26  1  0
 26 27  2  0
 26 28  1  0
 28 29  1  0
 28 30  1  0
 25 31  1  0
 31 32  1  0
 31 33  2  0
 33 34  1  0
 18 35  1  0
 11 36  1  0
 36 37  1  0
 36 38  2  0
 38 39  1  0
 38  6  1  0
 35 13  1  0
 33 20  1  0
M  CHG  3   2  -1  14  -1  35  -1
M  END
>  <UniqueID>  (32) 
29

>  <SMILES>  (32) 
[NH-]S(=O)(=O)c1ccc(/N=c2\[n-]nc(Cl)c(=Nc3ccc(C(N)=O)cc3)[n-]2)cc1

>  <Energy>  (32) 
58.14673990185291

>  <Genealogy>  (32) 
[NH-]S(=O)(=O)c1ccc(N=c2[n-]nc(Cl)c(=Nc3ccc(C(N)=O)cc3)[n-]2)cc1 (protonated)
[NH-]S(=O)(=O)c1ccc(/N=c2\[n-]nc(Cl)c(=Nc3ccc(C(N)=O)cc3)[n-]2)cc1 (cis-trans isomerization)
[NH-]S(=O)(=O)c1ccc(/N=c2\[n-]nc(Cl)c(=Nc3ccc(C(N)=O)cc3)[n-]2)cc1 (3D coordinates assigned)
[NH-]S(=O)(=O)c1ccc(/N=c2\[n-]nc(Cl)c(=Nc3ccc(C(N)=O)cc3)[n-]2)cc1 (optimized conformer: 58.14673990185291 kcal/mol)

>  <smiles>  (32) 
NC(=O)c1ccc(N=c2[nH]c(=Nc3ccc(S(N)(=O)=O)cc3)[nH]nc2Cl)cc1

>  <score_type>  (32) 
oracle

>  <origin>  (32) 
adg

>  <m_score__min__energy>  (32) 
-12.91

>  <m_primary>  (32) 
energy

$$$$
32:0
     RDKit          3D

 26 27  0  0  0  0  0  0  0  0999 V2000
   58.0350   32.5390   42.6920 C   0  0  0  0  0  0  0  0  0  0  0  0
   58.1400   32.1540   43.9720 C   0  0  0  0  0  0  0  0  0  0  0  0
   57.8490   30.7440   44.3520 C   0  0  0  0  0  0  0  0  0  0  0  0
   56.5240   30.2900   44.4970 C   0  0  0  0  0  0  0  0  0  0  0  0
   56.2660   28.9600   44.8460 C   0  0  0  0  0  0  0  0  0  0  0  0
   57.3240   28.0720   45.0510 C   0  0  0  0  0  0  0  0  0  0  0  0
   58.6420   28.5100   44.9060 C   0  0  0  0  0  0  0  0  0  0  0  0
   58.9060   29.8380   44.5570 C   0  0  0  0  0  0  0  0  0  0  0  0
   58.5460   33.1340   45.0150 C   0  0  0  0  0  0  0  0  0  0  0  0
   59.2780   34.2900   44.6800 C   0  0  0  0  0  0  0  0  0  0  0  0
   59.6450   35.2060   45.6700 C   0  0  0  0  0  0  0  0  0  0  0  0
   59.2870   34.9830   47.0010 C   0  0  0  0  0  0  0  0  0  0  0  0
   58.5580   33.8420   47.3450 C   0  0  0  0  0  0  0  0  0  0  0  0
   58.1880   32.9220   46.3590 C   0  0  0  0  0  0  0  0  0  0  0  0
   58.2500   33.5807   42.4116 H   0  0  0  0  0  0  0  0  0  0  0  0
   57.7338   31.8132   41.9223 H   0  0  0  0  0  0  0  0  0  0  0  0
   55.6870   30.9851   44.3349 H   0  0  0  0  0  0  0  0  0  0  0  0
   55.2282   28.6133   44.9591 H   0  0  0  0  0  0  0  0  0  0  0  0
   57.1191   27.0270   45.3268 H   0  0  0  0  0  0  0  0  0  0  0  0
   59.4742   27.8089   45.0667 H   0  0  0  0  0  0  0  0  0  0  0  0
   59.9463   30.1766   44.4420 H   0  0  0  0  0  0  0  0  0  0  0  0
   59.5624   34.4729   43.6333 H   0  0  0  0  0  0  0  0  0  0  0  0
   60.2177   36.1054   45.3996 H   0  0  0  0  0  0  0  0  0  0  0  0
   59.5787   35.7050   47.7780 H   0  0  0  0  0  0  0  0  0  0  0  0
   58.2745   33.6670   48.3933 H   0  0  0  0  0  0  0  0  0  0  0  0
   57.6130   32.0262   46.6362 H   0  0  0  0  0  0  0  0  0  0  0  0
  1  2  2  0
  2  3  1  0
  3  4  2  0
  4  5  1  0
  5  6  2  0
  6  7  1  0
  7  8  2  0
  2  9  1  0
  9 10  2  0
 10 11  1  0
 11 12  2  0
 12 13  1  0
 13 14  2  0
  8  3  1  0
 14  9  1  0
  1 15  1  0
  1 16  1  0
  4 17  1  0
  5 18  1  0
  6 19  1  0
  7 20  1  0
  8 21  1  0
 10 22  1  0
 11 23  1  0
 12 24  1  0
 13 25  1  0
 14 26  1  0
M  END
>  <UniqueID>  (33) 
30

>  <SMILES>  (33) 
C=C(c1ccccc1)c1ccccc1

>  <Energy>  (33) 
35.10800870566411

>  <Genealogy>  (33) 
C=C(c1ccccc1)c1ccccc1 (3D coordinates assigned)
C=C(c1ccccc1)c1ccccc1 (optimized conformer: 35.10800870566411 kcal/mol)

>  <smiles>  (33) 
C=C(c1ccccc1)c1ccccc1

>  <score_type>  (33) 
oracle

>  <origin>  (33) 
adg

>  <m_score__min__energy>  (33) 
-6.1299999999999999

>  <m_primary>  (33) 
energy

$$$$
33:0
     RDKit          3D

 34 36  0  0  0  0  0  0  0  0999 V2000
   59.3190   22.6960   44.8940 C   0  0  0  0  0  0  0  0  0  0  0  0
   58.0320   22.5410   44.2210 N   0  0  0  0  0  0  0  0  0  0  0  0
   57.4060   21.3820   43.9530 C   0  0  0  0  0  0  0  0  0  0  0  0
   56.2130   21.5980   43.3670 N   0  0  0  0  0  0  0  0  0  0  0  0
   56.0680   22.9110   43.2480 N   0  0  0  0  0  0  0  0  0  0  0  0
   57.1800   23.4810   43.7550 C   0  0  0  0  0  0  0  0  0  0  0  0
   57.3810   24.9450   43.8060 C   0  0  0  0  0  0  0  0  0  0  0  0
   57.2350   25.6590   45.0060 C   0  0  0  0  0  0  0  0  0  0  0  0
   57.4460   27.0410   45.0360 C   0  0  0  0  0  0  0  0  0  0  0  0
   57.8330   27.7290   43.8770 C   0  0  0  0  0  0  0  0  0  0  0  0
   58.0200   29.1540   43.9310 N   0  0  0  0  0  0  0  0  0  0  0  0
   57.1470   30.0490   44.6370 C   0  0  0  0  0  0  0  0  0  0  0  0
   55.9560   29.7110   44.8740 O   0  0  0  0  0  0  0  0  0  0  0  0
   57.5870   31.4120   44.9980 C   0  0  0  0  0  0  0  0  0  0  0  0
   57.7760   31.6980   46.3160 N   0  0  0  0  0  0  0  0  0  0  0  0
   58.1730   32.9250   46.7440 C   0  0  0  0  0  0  0  0  0  0  0  0
   58.4050   33.9440   45.8210 C   0  0  0  0  0  0  0  0  0  0  0  0
   58.2410   33.6820   44.4620 C   0  0  0  0  0  0  0  0  0  0  0  0
   57.8370   32.4130   44.0330 C   0  0  0  0  0  0  0  0  0  0  0  0
   57.7560   32.1100   42.3000 Cl  0  0  0  0  0  0  0  0  0  0  0  0
   57.9810   27.0140   42.6760 C   0  0  0  0  0  0  0  0  0  0  0  0
   57.7700   25.6330   42.6460 C   0  0  0  0  0  0  0  0  0  0  0  0
   59.1676   22.6778   45.9834 H   0  0  0  0  0  0  0  0  0  0  0  0
   59.9867   21.8718   44.6027 H   0  0  0  0  0  0  0  0  0  0  0  0
   59.7719   23.6552   44.6027 H   0  0  0  0  0  0  0  0  0  0  0  0
   57.8149   20.3869   44.1825 H   0  0  0  0  0  0  0  0  0  0  0  0
   56.9531   25.1285   45.9275 H   0  0  0  0  0  0  0  0  0  0  0  0
   57.3072   27.5933   45.9771 H   0  0  0  0  0  0  0  0  0  0  0  0
   58.7760   29.5750   43.3470 H   0  0  0  0  0  0  0  0  0  0  0  0
   58.3114   33.1144   47.8187 H   0  0  0  0  0  0  0  0  0  0  0  0
   58.7139   34.9433   46.1615 H   0  0  0  0  0  0  0  0  0  0  0  0
   58.4298   34.4756   43.7241 H   0  0  0  0  0  0  0  0  0  0  0  0
   58.2644   27.5443   41.7549 H   0  0  0  0  0  0  0  0  0  0  0  0
   57.9099   25.0803   41.7053 H   0  0  0  0  0  0  0  0  0  0  0  0
  1  2  1  0
  2  3  1  0
  3  4  2  0
  4  5  1  0
  5  6  2  0
  6  7  1  0
  7  8  2  0
  8  9  1  0
  9 10  2  0
 10 11  1  0
 11 12  1  0
 12 13  2  0
 12 14  1  0
 14 15  2  0
 15 16  1  0
 16 17  2  0
 17 18  1  0
 18 19  2  0
 19 20  1  0
 10 21  1  0
 21 22  2  0
  6  2  1  0
 22  7  1  0
 19 14  1  0
  1 23  1  0
  1 24  1  0
  1 25  1  0
  3 26  1  0
  8 27  1  0
  9 28  1  0
 11 29  1  0
 16 30  1  0
 17 31  1  0
 18 32  1  0
 21 33  1  0
 22 34  1  0
M  END
>  <UniqueID>  (34) 
31

>  <SMILES>  (34) 
Cn1cnnc1-c1ccc(NC(=O)c2ncccc2Cl)cc1

>  <Energy>  (34) 
83.87497251015319

>  <Genealogy>  (34) 
Cn1cnnc1-c1ccc(NC(=O)c2ncccc2Cl)cc1 (3D coordinates assigned)
Cn1cnnc1-c1ccc(NC(=O)c2ncccc2Cl)cc1 (optimized conformer: 83.87497251015319 kcal/mol)

>  <smiles>  (34) 
Cn1cnnc1-c1ccc(NC(=O)c2ncccc2Cl)cc1

>  <score_type>  (34) 
oracle

>  <origin>  (34) 
adg

>  <m_score__min__energy>  (34) 
-8.9299999999999997

>  <m_primary>  (34) 
energy

$$$$
34:0
     RDKit          3D

 57 58  0  0  0  0  0  0  0  0999 V2000
   63.7500   33.6040   46.9250 C   0  0  0  0  0  0  0  0  0  0  0  0
   63.3410   34.2040   48.0470 C   0  0  0  0  0  0  0  0  0  0  0  0
   62.9650   33.4190   49.2830 C   0  0  0  0  0  0  0  0  0  0  0  0
   61.6310   32.7850   49.1770 N   0  0  0  0  0  0  0  0  0  0  0  0
   61.5630   31.8480   48.0300 C   0  0  0  0  0  0  0  0  0  0  0  0
   61.3510   30.4020   48.4990 C   0  0  0  0  0  0  0  0  0  0  0  0
   60.2700   29.7370   47.6890 C   0  0  0  0  0  0  0  0  0  0  0  0
   59.3160   28.9230   48.3200 C   0  0  0  0  0  0  0  0  0  0  0  0
   58.2830   28.3410   47.5780 C   0  0  0  0  0  0  0  0  0  0  0  0
   58.1870   28.5770   46.1980 C   0  0  0  0  0  0  0  0  0  0  0  0
   56.8850   27.8590   45.2520 S   0  0  0  0  0  0  0  0  0  0  0  0
   56.2960   26.7180   46.0330 O   0  0  0  0  0  0  0  0  0  0  0  0
   57.4220   27.3180   43.9550 O   0  0  0  0  0  0  0  0  0  0  0  0
   55.6370   29.0310   44.9350 N   0  0  0  0  0  0  0  0  0  0  0  0
   56.1870   30.2650   44.3670 C   0  0  0  0  0  0  0  0  0  0  0  0
   56.4840   30.0920   42.8810 C   0  0  0  0  0  0  0  0  0  0  0  0
   59.1370   29.3920   45.5680 C   0  0  0  0  0  0  0  0  0  0  0  0
   60.1690   29.9740   46.3090 C   0  0  0  0  0  0  0  0  0  0  0  0
   60.5450   33.7950   49.1620 C   0  0  0  0  0  0  0  0  0  0  0  0
   59.3080   33.2170   48.5220 C   0  0  0  0  0  0  0  0  0  0  0  0
   58.4800   32.6300   49.2770 O   0  0  0  0  0  0  0  0  0  0  0  0
   59.0370   33.3340   47.1020 N   0  0  0  0  0  0  0  0  0  0  0  0
   57.9680   32.5330   46.4820 C   0  0  0  0  0  0  0  0  0  0  0  0
   57.0420   33.4170   45.6270 C   0  0  0  0  0  0  0  0  0  0  0  0
   57.7820   34.5420   44.8740 C   0  0  0  0  0  0  0  0  0  0  0  0
   59.2950   34.3150   44.8200 C   0  0  0  0  0  0  0  0  0  0  0  0
   59.8640   34.2020   46.2430 C   0  0  0  0  0  0  0  0  0  0  0  0
   64.0157   34.2070   46.0442 H   0  0  0  0  0  0  0  0  0  0  0  0
   63.8209   32.5071   46.8823 H   0  0  0  0  0  0  0  0  0  0  0  0
   63.2760   35.3018   48.0718 H   0  0  0  0  0  0  0  0  0  0  0  0
   63.7166   32.6316   49.4413 H   0  0  0  0  0  0  0  0  0  0  0  0
   62.9298   34.1252   50.1256 H   0  0  0  0  0  0  0  0  0  0  0  0
   60.7255   32.1394   47.3791 H   0  0  0  0  0  0  0  0  0  0  0  0
   62.5172   31.8985   47.4851 H   0  0  0  0  0  0  0  0  0  0  0  0
   62.2898   29.8414   48.3789 H   0  0  0  0  0  0  0  0  0  0  0  0
   61.0474   30.4122   49.5562 H   0  0  0  0  0  0  0  0  0  0  0  0
   59.3812   28.7421   49.4031 H   0  0  0  0  0  0  0  0  0  0  0  0
   57.5442   27.6969   48.0773 H   0  0  0  0  0  0  0  0  0  0  0  0
   55.4576   31.0781   44.4967 H   0  0  0  0  0  0  0  0  0  0  0  0
   57.1253   30.5055   44.8884 H   0  0  0  0  0  0  0  0  0  0  0  0
   57.4285   29.5418   42.7575 H   0  0  0  0  0  0  0  0  0  0  0  0
   55.6668   29.5286   42.4069 H   0  0  0  0  0  0  0  0  0  0  0  0
   56.5709   31.0808   42.4069 H   0  0  0  0  0  0  0  0  0  0  0  0
   59.0701   29.5745   44.4853 H   0  0  0  0  0  0  0  0  0  0  0  0
   60.9052   30.6205   45.8089 H   0  0  0  0  0  0  0  0  0  0  0  0
   60.3137   34.0958   50.1945 H   0  0  0  0  0  0  0  0  0  0  0  0
   60.8750   34.6696   48.5822 H   0  0  0  0  0  0  0  0  0  0  0  0
   58.4214   31.7621   45.8416 H   0  0  0  0  0  0  0  0  0  0  0  0
   57.3704   32.0683   47.2800 H   0  0  0  0  0  0  0  0  0  0  0  0
   56.5368   32.7780   44.8878 H   0  0  0  0  0  0  0  0  0  0  0  0
   56.3341   33.9019   46.3153 H   0  0  0  0  0  0  0  0  0  0  0  0
   57.3958   34.5911   43.8452 H   0  0  0  0  0  0  0  0  0  0  0  0
   57.6043   35.4813   45.4182 H   0  0  0  0  0  0  0  0  0  0  0  0
   59.5039   33.3856   44.2699 H   0  0  0  0  0  0  0  0  0  0  0  0
   59.7685   35.1668   44.3099 H   0  0  0  0  0  0  0  0  0  0  0  0
   60.8793   33.7825   46.1871 H   0  0  0  0  0  0  0  0  0  0  0  0
   59.8729   35.2088   46.6860 H   0  0  0  0  0  0  0  0  0  0  0  0
  1  2  2  0
  2  3  1  0
  3  4  1  0
  4  5  1  0
  5  6  1  0
  6  7  1  0
  7  8  2  0
  8  9  1  0
  9 10  2  0
 10 11  1  0
 11 12  2  0
 11 13  2  0
 11 14  1  0
 14 15  1  0
 15 16  1  0
 10 17  1  0
 17 18  2  0
  4 19  1  0
 19 20  1  0
 20 21  2  0
 20 22  1  0
 22 23  1  0
 23 24  1  0
 24 25  1  0
 25 26  1  0
 26 27  1  0
 18  7  1  0
 27 22  1  0
  1 28  1  0
  1 29  1  0
  2 30  1  0
  3 31  1  0
  3 32  1  0
  5 33  1  0
  5 34  1  0
  6 35  1  0
  6 36  1  0
  8 37  1  0
  9 38  1  0
 15 39  1  0
 15 40  1  0
 16 41  1  0
 16 42  1  0
 16 43  1  0
 17 44  1  0
 18 45  1  0
 19 46  1  0
 19 47  1  0
 23 48  1  0
 23 49  1  0
 24 50  1  0
 24 51  1  0
 25 52  1  0
 25 53  1  0
 26 54  1  0
 26 55  1  0
 27 56  1  0
 27 57  1  0
M  CHG  1  14  -1
M  END
>  <UniqueID>  (35) 
32

>  <SMILES>  (35) 
C=CCN(CCc1ccc(S(=O)(=O)[N-]CC)cc1)CC(=O)N1CCCCC1

>  <Energy>  (35) 
54.55606530017237

>  <Genealogy>  (35) 
C=CCN(CCc1ccc(S(=O)(=O)[N-]CC)cc1)CC(=O)N1CCCCC1 (protonated)
C=CCN(CCc1ccc(S(=O)(=O)[N-]CC)cc1)CC(=O)N1CCCCC1 (3D coordinates assigned)
C=CCN(CCc1ccc(S(=O)(=O)[N-]CC)cc1)CC(=O)N1CCCCC1 (nonaromatic ring conformer: 54.55606530017237 kcal/mol)

>  <smiles>  (35) 
C=CCN(CCc1ccc(S(=O)(=O)NCC)cc1)CC(=O)N1CCCCC1

>  <score_type>  (35) 
oracle

>  <origin>  (35) 
adg

>  <m_score__min__energy>  (35) 
-9.8699999999999992

>  <m_primary>  (35) 
energy

$$$$
35:0
     RDKit          3D

 37 39  0  0  0  0  0  0  0  0999 V2000
   53.4598   23.1076   46.5974 H   0  0  0  0  0  0  0  0  0  0  0  0
   54.3000   23.5370   46.0320 C   0  0  0  0  0  0  0  0  0  0  0  0
   54.7560   24.7810   46.3350 N   0  0  0  0  0  0  0  0  0  0  0  0
   55.7860   25.3620   45.6610 C   0  0  0  0  0  0  0  0  0  0  0  0
   56.1640   26.5570   46.0160 N   0  0  0  0  0  0  0  0  0  0  0  0
   57.5060   26.9870   46.2740 C   0  0  0  0  0  0  0  0  0  0  0  0
   57.7440   27.6840   47.2960 O   0  0  0  0  0  0  0  0  0  0  0  0
   58.5990   26.7420   45.2740 C   0  0  0  0  0  0  0  0  0  0  0  0
   59.4950   27.3072   45.5702 H   0  0  0  0  0  0  0  0  0  0  0  0
   58.8239   25.6656   45.2468 H   0  0  0  0  0  0  0  0  0  0  0  0
   58.0700   27.2800   43.6110 S   0  0  0  0  0  0  0  0  0  0  0  0
   57.5500   28.9180   44.1380 C   0  0  0  0  0  0  0  0  0  0  0  0
   56.2890   29.3670   44.0080 N   0  0  0  0  0  0  0  0  0  0  0  0
   56.2690   30.5990   44.4950 N   0  0  0  0  0  0  0  0  0  0  0  0
   57.5170   30.8820   44.9200 C   0  0  0  0  0  0  0  0  0  0  0  0
   57.8660   32.1760   45.5380 C   0  0  0  0  0  0  0  0  0  0  0  0
   58.3130   32.3630   47.1490 S   0  0  0  0  0  0  0  0  0  0  0  0
   58.6100   34.0150   47.0790 C   0  0  0  0  0  0  0  0  0  0  0  0
   58.9322   34.6494   47.9179 H   0  0  0  0  0  0  0  0  0  0  0  0
   58.3780   34.4400   45.7780 C   0  0  0  0  0  0  0  0  0  0  0  0
   58.5032   35.4843   45.4558 H   0  0  0  0  0  0  0  0  0  0  0  0
   57.9700   33.4170   44.9140 C   0  0  0  0  0  0  0  0  0  0  0  0
   57.7530   33.5773   43.8476 H   0  0  0  0  0  0  0  0  0  0  0  0
   58.3560   29.8470   44.6890 N   0  0  0  0  0  0  0  0  0  0  0  0
   59.7880   29.7340   44.9590 C   0  0  0  0  0  0  0  0  0  0  0  0
   59.9562   29.7207   46.0460 H   0  0  0  0  0  0  0  0  0  0  0  0
   60.1721   28.8028   44.5171 H   0  0  0  0  0  0  0  0  0  0  0  0
   60.3134   30.5935   44.5171 H   0  0  0  0  0  0  0  0  0  0  0  0
   56.4230   24.6410   44.6290 C   0  0  0  0  0  0  0  0  0  0  0  0
   57.2636   25.0892   44.0790 H   0  0  0  0  0  0  0  0  0  0  0  0
   55.9790   23.3500   44.3080 C   0  0  0  0  0  0  0  0  0  0  0  0
   56.6180   22.5870   43.1850 C   0  0  0  0  0  0  0  0  0  0  0  0
   57.2725   21.8055   43.5984 H   0  0  0  0  0  0  0  0  0  0  0  0
   55.8364   22.1214   42.5667 H   0  0  0  0  0  0  0  0  0  0  0  0
   57.2135   23.2747   42.5667 H   0  0  0  0  0  0  0  0  0  0  0  0
   54.8950   22.8040   45.0060 C   0  0  0  0  0  0  0  0  0  0  0  0
   54.5157   21.8045   44.7469 H   0  0  0  0  0  0  0  0  0  0  0  0
  1  2  1  0
  2  3  1  0
  3  4  1  0
  4  5  2  0
  5  6  1  0
  6  7  2  0
  6  8  1  0
  8  9  1  0
  8 10  1  0
  8 11  1  0
 11 12  1  0
 12 13  2  0
 13 14  1  0
 14 15  2  0
 15 16  1  0
 16 17  1  0
 17 18  1  0
 18 19  1  0
 18 20  2  0
 20 21  1  0
 20 22  1  0
 22 23  1  0
 15 24  1  0
 24 25  1  0
 25 26  1  0
 25 27  1  0
 25 28  1  0
  4 29  1  0
 29 30  1  0
 29 31  2  0
 31 32  1  0
 32 33  1  0
 32 34  1  0
 32 35  1  0
 31 36  1  0
 36 37  1  0
 36  2  2  0
 24 12  1  0
 22 16  2  0
M  CHG  1   3  -1
M  END
>  <UniqueID>  (36) 
33

>  <SMILES>  (36) 
Cc1cc[n-]/c(=N/C(=O)CSc2nnc(-c3cccs3)n2C)c1

>  <Energy>  (36) 
107.86076371632527

>  <Genealogy>  (36) 
Cc1cc[n-]c(=NC(=O)CSc2nnc(-c3cccs3)n2C)c1 (protonated)
Cc1cc[n-]/c(=N/C(=O)CSc2nnc(-c3cccs3)n2C)c1 (cis-trans isomerization)
Cc1cc[n-]/c(=N/C(=O)CSc2nnc(-c3cccs3)n2C)c1 (3D coordinates assigned)
Cc1cc[n-]/c(=N/C(=O)CSc2nnc(-c3cccs3)n2C)c1 (optimized conformer: 107.86076371632527 kcal/mol)

>  <smiles>  (36) 
Cc1cc[nH]c(=NC(=O)CSc2nnc(-c3cccs3)n2C)c1

>  <score_type>  (36) 
oracle

>  <origin>  (36) 
adg

>  <m_score__min__energy>  (36) 
-10.369999999999999

>  <m_primary>  (36) 
energy

$$$$
36:0
     RDKit          3D

 42 44  0  0  0  0  0  0  0  0999 V2000
   55.8080   30.3610   44.8590 O   0  0  0  0  0  0  0  0  0  0  0  0
   56.7040   29.8480   43.7660 S   0  0  0  0  0  0  0  0  0  0  0  0
   55.8570   29.4040   42.6050 O   0  0  0  0  0  0  0  0  0  0  0  0
   57.7790   31.1760   43.2410 C   0  0  0  0  0  0  0  0  0  0  0  0
   58.1920   32.0070   44.4220 C   0  0  0  0  0  0  0  0  0  0  0  0
   58.3470   33.3980   44.2930 C   0  0  0  0  0  0  0  0  0  0  0  0
   58.7790   34.1640   45.3790 C   0  0  0  0  0  0  0  0  0  0  0  0
   59.0650   33.5480   46.6020 C   0  0  0  0  0  0  0  0  0  0  0  0
   59.6600   34.5940   48.0840 Br  0  0  0  0  0  0  0  0  0  0  0  0
   58.9180   32.1630   46.7360 C   0  0  0  0  0  0  0  0  0  0  0  0
   58.4880   31.3940   45.6510 C   0  0  0  0  0  0  0  0  0  0  0  0
   57.6550   28.5080   44.3630 N   0  0  0  0  0  0  0  0  0  0  0  0
   57.2480   28.1250   45.7360 C   0  0  0  0  0  0  0  0  0  0  0  0
   58.2370   28.6080   46.8130 C   0  0  0  0  0  0  0  0  0  0  0  0
   59.6210   28.1480   46.5490 N   0  0  0  0  0  0  0  0  0  0  0  0
   60.0900   27.0710   47.4490 C   0  0  0  0  0  0  0  0  0  0  0  0
   60.4300   27.5500   48.8370 C   0  0  0  0  0  0  0  0  0  0  0  0
   60.7980   26.7530   49.9150 C   0  0  0  0  0  0  0  0  0  0  0  0
   61.0700   27.4410   51.0550 N   0  0  0  0  0  0  0  0  0  0  0  0
   60.9370   28.7770   50.9100 C   0  0  0  0  0  0  0  0  0  0  0  0
   60.4730   29.1580   49.3400 S   0  0  0  0  0  0  0  0  0  0  0  0
   59.9280   27.8950   45.1240 C   0  0  0  0  0  0  0  0  0  0  0  0
   59.0930   28.8050   44.2210 C   0  0  0  0  0  0  0  0  0  0  0  0
   58.6749   30.7514   42.7644 H   0  0  0  0  0  0  0  0  0  0  0  0
   57.2389   31.8131   42.5252 H   0  0  0  0  0  0  0  0  0  0  0  0
   58.1271   33.8862   43.3321 H   0  0  0  0  0  0  0  0  0  0  0  0
   58.8943   35.2527   45.2721 H   0  0  0  0  0  0  0  0  0  0  0  0
   59.1414   31.6781   47.6978 H   0  0  0  0  0  0  0  0  0  0  0  0
   58.3809   30.3046   45.7598 H   0  0  0  0  0  0  0  0  0  0  0  0
   56.2610   28.5636   45.9443 H   0  0  0  0  0  0  0  0  0  0  0  0
   57.2259   27.0260   45.7784 H   0  0  0  0  0  0  0  0  0  0  0  0
   58.2274   29.7077   46.8351 H   0  0  0  0  0  0  0  0  0  0  0  0
   57.9189   28.1853   47.7775 H   0  0  0  0  0  0  0  0  0  0  0  0
   59.2966   26.3131   47.5273 H   0  0  0  0  0  0  0  0  0  0  0  0
   61.0145   26.6653   47.0122 H   0  0  0  0  0  0  0  0  0  0  0  0
   60.8636   25.6568   49.8506 H   0  0  0  0  0  0  0  0  0  0  0  0
   61.3570   26.9840   51.9490 H   0  0  0  0  0  0  0  0  0  0  0  0
   61.1085   29.5138   51.7086 H   0  0  0  0  0  0  0  0  0  0  0  0
   60.9957   28.0896   44.9446 H   0  0  0  0  0  0  0  0  0  0  0  0
   59.6865   26.8475   44.8908 H   0  0  0  0  0  0  0  0  0  0  0  0
   59.2738   29.8536   44.4997 H   0  0  0  0  0  0  0  0  0  0  0  0
   59.3874   28.6302   43.1756 H   0  0  0  0  0  0  0  0  0  0  0  0
  1  2  2  0
  2  3  2  0
  2  4  1  0
  4  5  1  0
  5  6  2  0
  6  7  1  0
  7  8  2  0
  8  9  1  0
  8 10  1  0
 10 11  2  0
  2 12  1  0
 12 13  1  0
 13 14  1  0
 14 15  1  0
 15 16  1  0
 16 17  1  0
 17 18  2  0
 18 19  1  0
 19 20  2  0
 20 21  1  0
 15 22  1  0
 22 23  1  0
 11  5  1  0
 23 12  1  0
 21 17  1  0
  4 24  1  0
  4 25  1  0
  6 26  1  0
  7 27  1  0
 10 28  1  0
 11 29  1  0
 13 30  1  0
 13 31  1  0
 14 32  1  0
 14 33  1  0
 16 34  1  0
 16 35  1  0
 18 36  1  0
 19 37  1  0
 20 38  1  0
 22 39  1  0
 22 40  1  0
 23 41  1  0
 23 42  1  0
M  CHG  1  19   1
M  END
>  <UniqueID>  (37) 
34

>  <SMILES>  (37) 
O=S(=O)(Cc1ccc(Br)cc1)N1CCN(Cc2c[nH+]cs2)CC1

>  <Energy>  (37) 
78.1443873773317

>  <Genealogy>  (37) 
O=S(=O)(Cc1ccc(Br)cc1)N1CCN(Cc2c[nH+]cs2)CC1 (protonated)
O=S(=O)(Cc1ccc(Br)cc1)N1CCN(Cc2c[nH+]cs2)CC1 (3D coordinates assigned)
O=S(=O)(Cc1ccc(Br)cc1)N1CCN(Cc2c[nH+]cs2)CC1 (nonaromatic ring conformer: 78.1443873773317 kcal/mol)

>  <smiles>  (37) 
O=S(=O)(Cc1ccc(Br)cc1)N1CCN(Cc2cncs2)CC1

>  <score_type>  (37) 
oracle

>  <origin>  (37) 
adg

>  <m_score__min__energy>  (37) 
-8.2599999999999998

>  <m_primary>  (37) 
energy

$$$$
37:0
     RDKit          3D

 64 67  0  0  0  0  0  0  0  0999 V2000
   58.9070   34.6230   54.2110 C   0  0  0  0  0  0  0  0  0  0  0  0
   59.2970   34.0570   52.8740 C   0  0  0  0  0  0  0  0  0  0  0  0
   58.7320   34.5250   51.8460 O   0  0  0  0  0  0  0  0  0  0  0  0
   60.2580   32.9790   52.7380 N   0  0  0  0  0  0  0  0  0  0  0  0
   61.7060   33.2270   52.6350 C   0  0  0  0  0  0  0  0  0  0  0  0
   62.2500   32.7390   51.3160 C   0  0  0  0  0  0  0  0  0  0  0  0
   63.1980   31.7070   51.2820 C   0  0  0  0  0  0  0  0  0  0  0  0
   63.7150   31.2620   50.0630 C   0  0  0  0  0  0  0  0  0  0  0  0
   63.2970   31.8530   48.8670 C   0  0  0  0  0  0  0  0  0  0  0  0
   62.3450   32.8870   48.8770 C   0  0  0  0  0  0  0  0  0  0  0  0
   61.9550   33.5390   47.6070 C   0  0  0  0  0  0  0  0  0  0  0  0
   62.6650   33.3580   46.5780 O   0  0  0  0  0  0  0  0  0  0  0  0
   60.7770   34.3570   47.5250 N   0  0  0  0  0  0  0  0  0  0  0  0
   60.3560   35.0030   46.2820 C   0  0  0  0  0  0  0  0  0  0  0  0
   58.8310   34.9620   46.1340 C   0  0  0  0  0  0  0  0  0  0  0  0
   58.3570   33.6140   45.6580 C   0  0  0  0  0  0  0  0  0  0  0  0
   57.9320   33.4350   44.3310 C   0  0  0  0  0  0  0  0  0  0  0  0
   57.4510   32.1960   43.9010 C   0  0  0  0  0  0  0  0  0  0  0  0
   57.3720   31.1220   44.7980 C   0  0  0  0  0  0  0  0  0  0  0  0
   56.7690   29.5580   44.2600 S   0  0  0  0  0  0  0  0  0  0  0  0
   55.1490   29.3410   44.8180 N   0  0  0  0  0  0  0  0  0  0  0  0
   56.7950   29.4940   42.7590 O   0  0  0  0  0  0  0  0  0  0  0  0
   57.6400   28.4590   44.8050 O   0  0  0  0  0  0  0  0  0  0  0  0
   57.7890   31.2960   46.1250 C   0  0  0  0  0  0  0  0  0  0  0  0
   58.2730   32.5360   46.5550 C   0  0  0  0  0  0  0  0  0  0  0  0
   61.8170   33.3180   50.1080 C   0  0  0  0  0  0  0  0  0  0  0  0
   59.7750   31.5930   52.6130 C   0  0  0  0  0  0  0  0  0  0  0  0
   59.3810   31.2840   51.2010 C   0  0  0  0  0  0  0  0  0  0  0  0
   58.4850   31.9830   50.4170 C   0  0  0  0  0  0  0  0  0  0  0  0
   58.5030   31.4450   49.2250 O   0  0  0  0  0  0  0  0  0  0  0  0
   59.3820   30.4630   49.2520 C   0  0  0  0  0  0  0  0  0  0  0  0
   59.7060   29.6220   48.0850 C   0  0  0  0  0  0  0  0  0  0  0  0
   60.4430   30.1420   47.0080 C   0  0  0  0  0  0  0  0  0  0  0  0
   60.7500   29.3200   45.9230 C   0  0  0  0  0  0  0  0  0  0  0  0
   60.3390   28.0230   45.9100 N   0  0  0  0  0  0  0  0  0  0  0  0
   59.6240   27.4930   46.9360 C   0  0  0  0  0  0  0  0  0  0  0  0
   59.2940   28.2810   48.0420 C   0  0  0  0  0  0  0  0  0  0  0  0
   59.9700   30.3280   50.4590 N   0  0  0  0  0  0  0  0  0  0  0  0
   59.3352   34.0015   55.0113 H   0  0  0  0  0  0  0  0  0  0  0  0
   59.2898   35.6504   54.3000 H   0  0  0  0  0  0  0  0  0  0  0  0
   57.8106   34.6312   54.3000 H   0  0  0  0  0  0  0  0  0  0  0  0
   61.8921   34.3076   52.7222 H   0  0  0  0  0  0  0  0  0  0  0  0
   62.2117   32.6800   53.4443 H   0  0  0  0  0  0  0  0  0  0  0  0
   63.5369   31.2448   52.2209 H   0  0  0  0  0  0  0  0  0  0  0  0
   64.4519   30.4456   50.0441 H   0  0  0  0  0  0  0  0  0  0  0  0
   63.7163   31.5062   47.9110 H   0  0  0  0  0  0  0  0  0  0  0  0
   60.0990   34.3600   48.3220 H   0  0  0  0  0  0  0  0  0  0  0  0
   60.6891   36.0513   46.2901 H   0  0  0  0  0  0  0  0  0  0  0  0
   60.8060   34.4636   45.4355 H   0  0  0  0  0  0  0  0  0  0  0  0
   58.3716   35.1780   47.1098 H   0  0  0  0  0  0  0  0  0  0  0  0
   58.5372   35.7139   45.3868 H   0  0  0  0  0  0  0  0  0  0  0  0
   57.9784   34.2772   43.6249 H   0  0  0  0  0  0  0  0  0  0  0  0
   57.1336   32.0630   42.8562 H   0  0  0  0  0  0  0  0  0  0  0  0
   55.1920   28.6780   45.6240 H   0  0  0  0  0  0  0  0  0  0  0  0
   57.7354   30.4541   46.8309 H   0  0  0  0  0  0  0  0  0  0  0  0
   58.5893   32.6677   47.6003 H   0  0  0  0  0  0  0  0  0  0  0  0
   61.0588   34.1148   50.1267 H   0  0  0  0  0  0  0  0  0  0  0  0
   60.5755   30.9045   52.9214 H   0  0  0  0  0  0  0  0  0  0  0  0
   58.8912   31.4718   53.2566 H   0  0  0  0  0  0  0  0  0  0  0  0
   57.8687   32.8363   50.7364 H   0  0  0  0  0  0  0  0  0  0  0  0
   60.7759   31.1903   47.0199 H   0  0  0  0  0  0  0  0  0  0  0  0
   61.3257   29.7216   45.0761 H   0  0  0  0  0  0  0  0  0  0  0  0
   59.3040   26.4413   46.8963 H   0  0  0  0  0  0  0  0  0  0  0  0
   58.7150   27.8529   48.8736 H   0  0  0  0  0  0  0  0  0  0  0  0
  1  2  1  0
  2  3  2  0
  2  4  1  0
  4  5  1  0
  5  6  1  0
  6  7  2  0
  7  8  1  0
  8  9  2  0
  9 10  1  0
 10 11  1  0
 11 12  2  0
 11 13  1  0
 13 14  1  0
 14 15  1  0
 15 16  1  0
 16 17  2  0
 17 18  1  0
 18 19  2  0
 19 20  1  0
 20 21  1  0
 20 22  2  0
 20 23  2  0
 19 24  1  0
 24 25  2  0
 10 26  2  0
  4 27  1  0
 27 28  1  0
 28 29  2  0
 29 30  1  0
 30 31  1  0
 31 32  1  0
 32 33  2  0
 33 34  1  0
 34 35  2  0
 35 36  1  0
 36 37  2  0
 31 38  2  0
 26  6  1  0
 38 28  1  0
 25 16  1  0
 37 32  1  0
  1 39  1  0
  1 40  1  0
  1 41  1  0
  5 42  1  0
  5 43  1  0
  7 44  1  0
  8 45  1  0
  9 46  1  0
 13 47  1  0
 14 48  1  0
 14 49  1  0
 15 50  1  0
 15 51  1  0
 17 52  1  0
 18 53  1  0
 21 54  1  0
 24 55  1  0
 25 56  1  0
 26 57  1  0
 27 58  1  0
 27 59  1  0
 29 60  1  0
 33 61  1  0
 34 62  1  0
 36 63  1  0
 37 64  1  0
M  CHG  1  21  -1
M  END
>  <UniqueID>  (38) 
35

>  <SMILES>  (38) 
CC(=O)N(Cc1cccc(C(=O)NCCc2ccc(S([NH-])(=O)=O)cc2)c1)Cc1coc(-c2ccncc2)n1

>  <Energy>  (38) 
88.7967504776294

>  <Genealogy>  (38) 
CC(=O)N(Cc1cccc(C(=O)NCCc2ccc(S([NH-])(=O)=O)cc2)c1)Cc1coc(-c2ccncc2)n1 (protonated)
CC(=O)N(Cc1cccc(C(=O)NCCc2ccc(S([NH-])(=O)=O)cc2)c1)Cc1coc(-c2ccncc2)n1 (3D coordinates assigned)
CC(=O)N(Cc1cccc(C(=O)NCCc2ccc(S([NH-])(=O)=O)cc2)c1)Cc1coc(-c2ccncc2)n1 (optimized conformer: 88.7967504776294 kcal/mol)

>  <smiles>  (38) 
CC(=O)N(Cc1cccc(C(=O)NCCc2ccc(S(N)(=O)=O)cc2)c1)Cc1coc(-c2ccncc2)n1

>  <score_type>  (38) 
oracle

>  <origin>  (38) 
adg

>  <m_score__min__energy>  (38) 
-13.199999999999999

>  <m_primary>  (38) 
energy

$$$$
38:0
     RDKit          3D

 39 42  0  0  0  0  0  0  0  0999 V2000
   58.4501   28.5478   47.6237 H   0  0  0  0  0  0  0  0  0  0  0  0
   59.2630   29.2680   47.4490 C   0  0  0  0  0  0  0  0  0  0  0  0
   60.6040   29.5000   48.4390 S   0  0  0  0  0  0  0  0  0  0  0  0
   61.2620   30.6980   47.4530 C   0  0  0  0  0  0  0  0  0  0  0  0
   62.3450   31.3820   47.6840 N   0  0  0  0  0  0  0  0  0  0  0  0
   62.5180   32.7960   47.5150 C   0  0  0  0  0  0  0  0  0  0  0  0
   63.3990   33.2070   46.7130 O   0  0  0  0  0  0  0  0  0  0  0  0
   61.7230   33.7950   48.3120 C   0  0  0  0  0  0  0  0  0  0  0  0
   61.9877   33.7009   49.3755 H   0  0  0  0  0  0  0  0  0  0  0  0
   61.9589   34.8057   47.9474 H   0  0  0  0  0  0  0  0  0  0  0  0
   60.2510   33.5550   48.1480 C   0  0  0  0  0  0  0  0  0  0  0  0
   59.4030   32.9260   49.0550 C   0  0  0  0  0  0  0  0  0  0  0  0
   59.7059   32.5543   50.0450 H   0  0  0  0  0  0  0  0  0  0  0  0
   58.1530   32.8370   48.5450 N   0  0  0  0  0  0  0  0  0  0  0  0
   57.3190   32.4090   49.0070 H   0  0  0  0  0  0  0  0  0  0  0  0
   58.2080   33.3930   47.3230 C   0  0  0  0  0  0  0  0  0  0  0  0
   57.1670   33.5200   46.4030 C   0  0  0  0  0  0  0  0  0  0  0  0
   56.1546   33.1596   46.6378 H   0  0  0  0  0  0  0  0  0  0  0  0
   57.4540   34.1240   45.1650 C   0  0  0  0  0  0  0  0  0  0  0  0
   56.6563   34.2414   44.4167 H   0  0  0  0  0  0  0  0  0  0  0  0
   58.7600   34.5810   44.8760 C   0  0  0  0  0  0  0  0  0  0  0  0
   58.9721   35.0514   43.9045 H   0  0  0  0  0  0  0  0  0  0  0  0
   59.7900   34.4380   45.8230 C   0  0  0  0  0  0  0  0  0  0  0  0
   60.8110   34.7869   45.6090 H   0  0  0  0  0  0  0  0  0  0  0  0
   59.4740   33.8390   47.0430 C   0  0  0  0  0  0  0  0  0  0  0  0
   60.4700   30.9400   46.3870 N   0  0  0  0  0  0  0  0  0  0  0  0
   60.6830   31.6750   45.6760 H   0  0  0  0  0  0  0  0  0  0  0  0
   59.3590   30.1470   46.3670 C   0  0  0  0  0  0  0  0  0  0  0  0
   58.3450   30.2230   45.2850 C   0  0  0  0  0  0  0  0  0  0  0  0
   57.2080   29.3930   45.3080 C   0  0  0  0  0  0  0  0  0  0  0  0
   57.0682   28.6807   46.1345 H   0  0  0  0  0  0  0  0  0  0  0  0
   56.2550   29.4680   44.2870 C   0  0  0  0  0  0  0  0  0  0  0  0
   55.3691   28.8165   44.3140 H   0  0  0  0  0  0  0  0  0  0  0  0
   56.4260   30.3680   43.2340 C   0  0  0  0  0  0  0  0  0  0  0  0
   55.6750   30.4255   42.4323 H   0  0  0  0  0  0  0  0  0  0  0  0
   57.5510   31.1960   43.1980 C   0  0  0  0  0  0  0  0  0  0  0  0
   57.7680   32.3210   41.8700 Cl  0  0  0  0  0  0  0  0  0  0  0  0
   58.5060   31.1250   44.2170 C   0  0  0  0  0  0  0  0  0  0  0  0
   59.3897   31.7792   44.1835 H   0  0  0  0  0  0  0  0  0  0  0  0
  1  2  1  0
  2  3  1  0
  3  4  1  0
  4  5  2  0
  5  6  1  0
  6  7  2  0
  6  8  1  0
  8  9  1  0
  8 10  1  0
  8 11  1  0
 11 12  2  0
 12 13  1  0
 12 14  1  0
 14 15  1  0
 14 16  1  0
 16 17  2  0
 17 18  1  0
 17 19  1  0
 19 20  1  0
 19 21  2  0
 21 22  1  0
 21 23  1  0
 23 24  1  0
 23 25  2  0
  4 26  1  0
 26 27  1  0
 26 28  1  0
 28 29  1  0
 29 30  2  0
 30 31  1  0
 30 32  1  0
 32 33  1  0
 32 34  2  0
 34 35  1  0
 34 36  1  0
 36 37  1  0
 36 38  2  0
 38 39  1  0
 28  2  2  0
 38 29  1  0
 25 11  1  0
 25 16  1  0
M  END
>  <UniqueID>  (39) 
36

>  <SMILES>  (39) 
O=C(Cc1c[nH]c2ccccc12)/N=c1/[nH]c(-c2cccc(Cl)c2)cs1

>  <Energy>  (39) 
114.61768607195722

>  <Genealogy>  (39) 
O=C(Cc1c[nH]c2ccccc12)/N=c1/[nH]c(-c2cccc(Cl)c2)cs1 (cis-trans isomerization)
O=C(Cc1c[nH]c2ccccc12)/N=c1/[nH]c(-c2cccc(Cl)c2)cs1 (3D coordinates assigned)
O=C(Cc1c[nH]c2ccccc12)/N=c1/[nH]c(-c2cccc(Cl)c2)cs1 (optimized conformer: 114.61768607195722 kcal/mol)

>  <smiles>  (39) 
O=C(Cc1c[nH]c2ccccc12)N=c1[nH]c(-c2cccc(Cl)c2)cs1

>  <score_type>  (39) 
oracle

>  <origin>  (39) 
adg

>  <m_score__min__energy>  (39) 
-8.8200000000000003

>  <m_primary>  (39) 
energy

$$$$
39:0
     RDKit          3D

 43 46  0  0  0  0  0  0  0  0999 V2000
   58.1370   33.7350   47.5940 O   0  0  0  0  0  0  0  0  0  0  0  0
   58.5970   33.9860   46.4610 N   0  0  0  0  0  0  0  0  0  0  0  0
   59.4020   35.0930   46.3070 O   0  0  0  0  0  0  0  0  0  0  0  0
   58.3400   33.1070   45.3460 C   0  0  0  0  0  0  0  0  0  0  0  0
   58.3940   33.5840   44.0240 C   0  0  0  0  0  0  0  0  0  0  0  0
   58.1050   32.7310   42.9510 C   0  0  0  0  0  0  0  0  0  0  0  0
   57.7590   31.4000   43.1850 C   0  0  0  0  0  0  0  0  0  0  0  0
   57.7350   30.9010   44.4950 C   0  0  0  0  0  0  0  0  0  0  0  0
   57.3610   29.2140   44.8150 S   0  0  0  0  0  0  0  0  0  0  0  0
   55.9190   29.0960   45.2190 O   0  0  0  0  0  0  0  0  0  0  0  0
   57.5850   28.3730   43.5930 O   0  0  0  0  0  0  0  0  0  0  0  0
   58.3670   28.6340   46.1000 N   0  0  0  0  0  0  0  0  0  0  0  0
   59.1230   28.1960   47.0540 C   0  0  0  0  0  0  0  0  0  0  0  0
   59.5080   29.0840   48.0120 N   0  0  0  0  0  0  0  0  0  0  0  0
   60.1500   28.6860   49.1380 C   0  0  0  0  0  0  0  0  0  0  0  0
   60.5540   29.6220   50.0960 C   0  0  0  0  0  0  0  0  0  0  0  0
   61.2120   29.1890   51.2550 C   0  0  0  0  0  0  0  0  0  0  0  0
   61.4510   27.8220   51.4590 C   0  0  0  0  0  0  0  0  0  0  0  0
   61.0390   26.8830   50.5050 C   0  0  0  0  0  0  0  0  0  0  0  0
   60.3950   27.3160   49.3390 C   0  0  0  0  0  0  0  0  0  0  0  0
   60.0290   26.4250   48.3820 N   0  0  0  0  0  0  0  0  0  0  0  0
   59.4410   26.8140   47.2170 C   0  0  0  0  0  0  0  0  0  0  0  0
   59.2200   25.8890   46.3240 N   0  0  0  0  0  0  0  0  0  0  0  0
   57.9710   25.4380   45.7910 C   0  0  0  0  0  0  0  0  0  0  0  0
   57.8870   24.2010   45.1300 C   0  0  0  0  0  0  0  0  0  0  0  0
   56.6400   23.6760   44.7720 C   0  0  0  0  0  0  0  0  0  0  0  0
   55.4720   24.3950   45.0500 C   0  0  0  0  0  0  0  0  0  0  0  0
   55.5500   25.6180   45.7210 C   0  0  0  0  0  0  0  0  0  0  0  0
   54.3890   26.3330   45.9990 O   0  0  0  0  0  0  0  0  0  0  0  0
   56.7950   26.1290   46.1140 C   0  0  0  0  0  0  0  0  0  0  0  0
   58.0120   31.7570   45.5700 C   0  0  0  0  0  0  0  0  0  0  0  0
   58.6647   34.6327   43.8315 H   0  0  0  0  0  0  0  0  0  0  0  0
   58.1511   33.1121   41.9202 H   0  0  0  0  0  0  0  0  0  0  0  0
   57.5049   30.7416   42.3412 H   0  0  0  0  0  0  0  0  0  0  0  0
   60.3561   30.6928   49.9402 H   0  0  0  0  0  0  0  0  0  0  0  0
   61.5416   29.9222   52.0059 H   0  0  0  0  0  0  0  0  0  0  0  0
   61.9642   27.4860   52.3721 H   0  0  0  0  0  0  0  0  0  0  0  0
   61.2203   25.8108   50.6706 H   0  0  0  0  0  0  0  0  0  0  0  0
   58.8049   23.6430   44.8930 H   0  0  0  0  0  0  0  0  0  0  0  0
   56.5780   22.6981   44.2721 H   0  0  0  0  0  0  0  0  0  0  0  0
   54.4939   23.9978   44.7407 H   0  0  0  0  0  0  0  0  0  0  0  0
   56.8490   27.0729   46.6762 H   0  0  0  0  0  0  0  0  0  0  0  0
   57.9726   31.3696   46.5988 H   0  0  0  0  0  0  0  0  0  0  0  0
  1  2  2  0
  2  3  1  0
  2  4  1  0
  4  5  2  0
  5  6  1  0
  6  7  2  0
  7  8  1  0
  8  9  1  0
  9 10  2  0
  9 11  2  0
  9 12  1  0
 12 13  2  3
 13 14  1  0
 14 15  1  0
 15 16  2  0
 16 17  1  0
 17 18  2  0
 18 19  1  0
 19 20  2  0
 20 21  1  0
 21 22  1  0
 22 23  2  3
 23 24  1  0
 24 25  2  0
 25 26  1  0
 26 27  2  0
 27 28  1  0
 28 29  1  0
 28 30  2  0
  8 31  2  0
 31  4  1  0
 22 13  1  0
 30 24  1  0
 20 15  1  0
  5 32  1  0
  6 33  1  0
  7 34  1  0
 16 35  1  0
 17 36  1  0
 18 37  1  0
 19 38  1  0
 25 39  1  0
 26 40  1  0
 27 41  1  0
 30 42  1  0
 31 43  1  0
M  CHG  5   2   1   3  -1  14  -1  21  -1  29  -1
M  END
>  <UniqueID>  (40) 
37

>  <SMILES>  (40) 
O=[N+]([O-])c1cccc(S(=O)(=O)N=c2[n-]c3ccccc3[n-]c2=Nc2cccc([O-])c2)c1

>  <Energy>  (40) 
119.33449208232993

>  <Genealogy>  (40) 
O=[N+]([O-])c1cccc(S(=O)(=O)N=c2[n-]c3ccccc3[n-]c2=Nc2cccc([O-])c2)c1 (protonated)
O=[N+]([O-])c1cccc(S(=O)(=O)N=c2[n-]c3ccccc3[n-]c2=Nc2cccc([O-])c2)c1 (3D coordinates assigned)
O=[N+]([O-])c1cccc(S(=O)(=O)N=c2[n-]c3ccccc3[n-]c2=Nc2cccc([O-])c2)c1 (optimized conformer: 119.33449208232993 kcal/mol)

>  <smiles>  (40) 
O=[N+]([O-])c1cccc(S(=O)(=O)N=c2[nH]c3ccccc3[nH]c2=Nc2cccc(O)c2)c1

>  <score_type>  (40) 
oracle

>  <origin>  (40) 
adg

>  <m_score__min__energy>  (40) 
-15.039999999999999

>  <m_primary>  (40) 
energy

$$$$
40:0
     RDKit          3D

 47 50  0  0  0  0  0  0  0  0999 V2000
   60.3500   31.3350   50.2120 O   0  0  0  0  0  0  0  0  0  0  0  0
   61.2080   30.7430   49.5040 C   0  0  0  0  0  0  0  0  0  0  0  0
   61.0410   29.3400   49.2510 N   0  0  0  0  0  0  0  0  0  0  0  0
   60.2220   28.7620   48.2240 C   0  0  0  0  0  0  0  0  0  0  0  0
   59.3480   27.7230   48.5560 C   0  0  0  0  0  0  0  0  0  0  0  0
   58.5120   27.1660   47.5840 C   0  0  0  0  0  0  0  0  0  0  0  0
   58.5510   27.6330   46.2610 C   0  0  0  0  0  0  0  0  0  0  0  0
   59.4430   28.6680   45.9180 C   0  0  0  0  0  0  0  0  0  0  0  0
   60.2970   29.2010   46.8920 C   0  0  0  0  0  0  0  0  0  0  0  0
   59.5400   29.1660   44.4990 C   0  0  0  0  0  0  0  0  0  0  0  0
   58.3020   28.9450   43.7320 N   0  0  0  0  0  0  0  0  0  0  0  0
   57.0510   30.0970   44.1590 S   0  0  0  0  0  0  0  0  0  0  0  0
   56.1020   29.4950   45.1590 O   0  0  0  0  0  0  0  0  0  0  0  0
   56.2830   30.4970   42.9310 O   0  0  0  0  0  0  0  0  0  0  0  0
   57.7890   31.5360   44.8560 C   0  0  0  0  0  0  0  0  0  0  0  0
   58.0870   31.5780   46.2240 C   0  0  0  0  0  0  0  0  0  0  0  0
   58.6540   32.7270   46.7850 C   0  0  0  0  0  0  0  0  0  0  0  0
   58.9330   33.8370   45.9800 C   0  0  0  0  0  0  0  0  0  0  0  0
   59.6400   35.2790   46.6840 Cl  0  0  0  0  0  0  0  0  0  0  0  0
   58.6480   33.7940   44.6110 C   0  0  0  0  0  0  0  0  0  0  0  0
   58.0780   32.6470   44.0490 C   0  0  0  0  0  0  0  0  0  0  0  0
   57.8470   27.5460   43.8230 C   0  0  0  0  0  0  0  0  0  0  0  0
   57.5570   27.0970   45.2650 C   0  0  0  0  0  0  0  0  0  0  0  0
   62.3310   31.5210   48.9250 C   0  0  0  0  0  0  0  0  0  0  0  0
   63.4450   31.8440   49.7130 C   0  0  0  0  0  0  0  0  0  0  0  0
   64.5040   32.5630   49.1520 C   0  0  0  0  0  0  0  0  0  0  0  0
   64.4500   32.9580   47.8510 N   0  0  0  0  0  0  0  0  0  0  0  0
   63.3750   32.6720   47.0680 C   0  0  0  0  0  0  0  0  0  0  0  0
   62.2960   31.9550   47.5900 C   0  0  0  0  0  0  0  0  0  0  0  0
   59.3179   27.3417   49.5874 H   0  0  0  0  0  0  0  0  0  0  0  0
   57.8192   26.3566   47.8577 H   0  0  0  0  0  0  0  0  0  0  0  0
   61.0323   29.9695   46.6114 H   0  0  0  0  0  0  0  0  0  0  0  0
   59.7537   30.2449   44.5187 H   0  0  0  0  0  0  0  0  0  0  0  0
   60.3429   28.6007   44.0032 H   0  0  0  0  0  0  0  0  0  0  0  0
   57.8746   30.7051   46.8588 H   0  0  0  0  0  0  0  0  0  0  0  0
   58.8810   32.7581   47.8609 H   0  0  0  0  0  0  0  0  0  0  0  0
   58.8725   34.6635   43.9757 H   0  0  0  0  0  0  0  0  0  0  0  0
   57.8558   32.6158   42.9721 H   0  0  0  0  0  0  0  0  0  0  0  0
   56.9260   27.4385   43.2312 H   0  0  0  0  0  0  0  0  0  0  0  0
   58.6600   26.9118   43.4399 H   0  0  0  0  0  0  0  0  0  0  0  0
   56.5539   27.4499   45.5467 H   0  0  0  0  0  0  0  0  0  0  0  0
   57.6286   25.9996   45.2878 H   0  0  0  0  0  0  0  0  0  0  0  0
   63.4852   31.5330   50.7674 H   0  0  0  0  0  0  0  0  0  0  0  0
   65.3839   32.8104   49.7641 H   0  0  0  0  0  0  0  0  0  0  0  0
   65.2480   33.4960   47.4470 H   0  0  0  0  0  0  0  0  0  0  0  0
   63.3554   33.0065   46.0203 H   0  0  0  0  0  0  0  0  0  0  0  0
   61.4234   31.7315   46.9586 H   0  0  0  0  0  0  0  0  0  0  0  0
  1  2  2  0
  2  3  1  0
  3  4  1  0
  4  5  2  0
  5  6  1  0
  6  7  2  0
  7  8  1  0
  8  9  2  0
  8 10  1  0
 10 11  1  0
 11 12  1  0
 12 13  2  0
 12 14  2  0
 12 15  1  0
 15 16  2  0
 16 17  1  0
 17 18  2  0
 18 19  1  0
 18 20  1  0
 20 21  2  0
 11 22  1  0
 22 23  1  0
  2 24  1  0
 24 25  2  0
 25 26  1  0
 26 27  2  0
 27 28  1  0
 28 29  2  0
  9  4  1  0
 21 15  1  0
 29 24  1  0
 23  7  1  0
  5 30  1  0
  6 31  1  0
  9 32  1  0
 10 33  1  0
 10 34  1  0
 16 35  1  0
 17 36  1  0
 20 37  1  0
 21 38  1  0
 22 39  1  0
 22 40  1  0
 23 41  1  0
 23 42  1  0
 25 43  1  0
 26 44  1  0
 27 45  1  0
 28 46  1  0
 29 47  1  0
M  CHG  2   3  -1  27   1
M  END
>  <UniqueID>  (41) 
38

>  <SMILES>  (41) 
O=C([N-]c1ccc2c(c1)CN(S(=O)(=O)c1ccc(Cl)cc1)CC2)c1cc[nH+]cc1

>  <Energy>  (41) 
59.900699104802506

>  <Genealogy>  (41) 
O=C([N-]c1ccc2c(c1)CN(S(=O)(=O)c1ccc(Cl)cc1)CC2)c1cc[nH+]cc1 (protonated)
O=C([N-]c1ccc2c(c1)CN(S(=O)(=O)c1ccc(Cl)cc1)CC2)c1cc[nH+]cc1 (3D coordinates assigned)
O=C([N-]c1ccc2c(c1)CN(S(=O)(=O)c1ccc(Cl)cc1)CC2)c1cc[nH+]cc1 (nonaromatic ring conformer: 59.900699104802506 kcal/mol)

>  <smiles>  (41) 
O=C(Nc1ccc2c(c1)CN(S(=O)(=O)c1ccc(Cl)cc1)CC2)c1ccncc1

>  <score_type>  (41) 
oracle

>  <origin>  (41) 
adg

>  <m_score__min__energy>  (41) 
-9.1600000000000001

>  <m_primary>  (41) 
energy

$$$$
41:0
     RDKit          3D

 45 47  0  0  0  0  0  0  0  0999 V2000
   56.3830   22.3650   48.8530 C   0  0  0  0  0  0  0  0  0  0  0  0
   57.2950   21.7090   47.9790 O   0  0  0  0  0  0  0  0  0  0  0  0
   57.1550   21.6260   46.5860 C   0  0  0  0  0  0  0  0  0  0  0  0
   56.8080   20.4090   45.9620 C   0  0  0  0  0  0  0  0  0  0  0  0
   56.6270   20.3430   44.5800 C   0  0  0  0  0  0  0  0  0  0  0  0
   56.7830   21.4870   43.8010 C   0  0  0  0  0  0  0  0  0  0  0  0
   57.1340   22.6970   44.4010 C   0  0  0  0  0  0  0  0  0  0  0  0
   57.3410   22.7810   45.7850 C   0  0  0  0  0  0  0  0  0  0  0  0
   57.7110   24.0630   46.3150 N   0  0  0  0  0  0  0  0  0  0  0  0
   57.1280   25.6240   45.8260 S   0  0  0  0  0  0  0  0  0  0  0  0
   56.6970   25.5710   44.3880 O   0  0  0  0  0  0  0  0  0  0  0  0
   55.9720   26.0110   46.7060 O   0  0  0  0  0  0  0  0  0  0  0  0
   58.4080   26.8320   46.0050 C   0  0  0  0  0  0  0  0  0  0  0  0
   59.3760   26.6510   47.0070 C   0  0  0  0  0  0  0  0  0  0  0  0
   60.3820   27.5970   47.2020 C   0  0  0  0  0  0  0  0  0  0  0  0
   60.4370   28.7330   46.3980 C   0  0  0  0  0  0  0  0  0  0  0  0
   59.4890   28.9260   45.3930 C   0  0  0  0  0  0  0  0  0  0  0  0
   58.4640   27.9840   45.1780 C   0  0  0  0  0  0  0  0  0  0  0  0
   57.5120   28.1760   44.1140 N   0  0  0  0  0  0  0  0  0  0  0  0
   56.4950   29.5770   43.9840 S   0  0  0  0  0  0  0  0  0  0  0  0
   55.2980   29.3980   44.8740 O   0  0  0  0  0  0  0  0  0  0  0  0
   56.0290   29.7170   42.5630 O   0  0  0  0  0  0  0  0  0  0  0  0
   57.3930   31.0200   44.4430 C   0  0  0  0  0  0  0  0  0  0  0  0
   57.7520   31.2280   45.7810 C   0  0  0  0  0  0  0  0  0  0  0  0
   58.4590   32.3780   46.1470 C   0  0  0  0  0  0  0  0  0  0  0  0
   58.8120   33.3230   45.1780 C   0  0  0  0  0  0  0  0  0  0  0  0
   59.6980   34.7650   45.6390 Cl  0  0  0  0  0  0  0  0  0  0  0  0
   58.4600   33.1150   43.8390 C   0  0  0  0  0  0  0  0  0  0  0  0
   57.7530   31.9660   43.4720 C   0  0  0  0  0  0  0  0  0  0  0  0
   56.6650   22.1621   49.8967 H   0  0  0  0  0  0  0  0  0  0  0  0
   56.4140   23.4490   48.6689 H   0  0  0  0  0  0  0  0  0  0  0  0
   55.3651   21.9908   48.6689 H   0  0  0  0  0  0  0  0  0  0  0  0
   56.6788   19.5025   46.5716 H   0  0  0  0  0  0  0  0  0  0  0  0
   56.3610   19.3869   44.1055 H   0  0  0  0  0  0  0  0  0  0  0  0
   56.6295   21.4367   42.7129 H   0  0  0  0  0  0  0  0  0  0  0  0
   57.2498   23.5972   43.7795 H   0  0  0  0  0  0  0  0  0  0  0  0
   59.3401   25.7547   47.6437 H   0  0  0  0  0  0  0  0  0  0  0  0
   61.1328   27.4458   47.9916 H   0  0  0  0  0  0  0  0  0  0  0  0
   61.2295   29.4794   46.5558 H   0  0  0  0  0  0  0  0  0  0  0  0
   59.5425   29.8246   44.7608 H   0  0  0  0  0  0  0  0  0  0  0  0
   57.3830   27.4420   43.3840 H   0  0  0  0  0  0  0  0  0  0  0  0
   57.4774   30.4858   46.5450 H   0  0  0  0  0  0  0  0  0  0  0  0
   58.7379   32.5396   47.1987 H   0  0  0  0  0  0  0  0  0  0  0  0
   58.7398   33.8558   43.0755 H   0  0  0  0  0  0  0  0  0  0  0  0
   57.4784   31.8035   42.4193 H   0  0  0  0  0  0  0  0  0  0  0  0
  1  2  1  0
  2  3  1  0
  3  4  2  0
  4  5  1  0
  5  6  2  0
  6  7  1  0
  7  8  2  0
  8  9  1  0
  9 10  1  0
 10 11  2  0
 10 12  2  0
 10 13  1  0
 13 14  2  0
 14 15  1  0
 15 16  2  0
 16 17  1  0
 17 18  2  0
 18 19  1  0
 19 20  1  0
 20 21  2  0
 20 22  2  0
 20 23  1  0
 23 24  2  0
 24 25  1  0
 25 26  2  0
 26 27  1  0
 26 28  1  0
 28 29  2  0
  8  3  1  0
 18 13  1  0
 29 23  1  0
  1 30  1  0
  1 31  1  0
  1 32  1  0
  4 33  1  0
  5 34  1  0
  6 35  1  0
  7 36  1  0
 14 37  1  0
 15 38  1  0
 16 39  1  0
 17 40  1  0
 19 41  1  0
 24 42  1  0
 25 43  1  0
 28 44  1  0
 29 45  1  0
M  CHG  1   9  -1
M  END
>  <UniqueID>  (42) 
39

>  <SMILES>  (42) 
COc1ccccc1[N-]S(=O)(=O)c1ccccc1NS(=O)(=O)c1ccc(Cl)cc1

>  <Energy>  (42) 
60.13894407066191

>  <Genealogy>  (42) 
COc1ccccc1[N-]S(=O)(=O)c1ccccc1NS(=O)(=O)c1ccc(Cl)cc1 (protonated)
COc1ccccc1[N-]S(=O)(=O)c1ccccc1NS(=O)(=O)c1ccc(Cl)cc1 (3D coordinates assigned)
COc1ccccc1[N-]S(=O)(=O)c1ccccc1NS(=O)(=O)c1ccc(Cl)cc1 (optimized conformer: 60.13894407066191 kcal/mol)

>  <smiles>  (42) 
COc1ccccc1NS(=O)(=O)c1ccccc1NS(=O)(=O)c1ccc(Cl)cc1

>  <score_type>  (42) 
oracle

>  <origin>  (42) 
adg

>  <m_score__min__energy>  (42) 
-11.779999999999999

>  <m_primary>  (42) 
energy

$$$$
42:0
     RDKit          3D

 42 44  0  0  0  0  0  0  0  0999 V2000
   56.1050   26.6960   45.7510 O   0  0  0  0  0  0  0  0  0  0  0  0
   57.2180   26.9480   45.2150 C   0  0  0  0  0  0  0  0  0  0  0  0
   58.0730   25.8630   44.8170 N   0  0  0  0  0  0  0  0  0  0  0  0
   57.5910   24.5510   44.4770 C   0  0  0  0  0  0  0  0  0  0  0  0
   58.2730   23.3910   44.8820 C   0  0  0  0  0  0  0  0  0  0  0  0
   57.7710   22.1270   44.5580 C   0  0  0  0  0  0  0  0  0  0  0  0
   56.5780   21.9970   43.8380 C   0  0  0  0  0  0  0  0  0  0  0  0
   56.1210   20.7050   43.5370 O   0  0  0  0  0  0  0  0  0  0  0  0
   55.9300   19.6680   44.4950 C   0  0  0  0  0  0  0  0  0  0  0  0
   54.8780   18.8550   44.1080 F   0  0  0  0  0  0  0  0  0  0  0  0
   55.6310   20.2340   45.7200 F   0  0  0  0  0  0  0  0  0  0  0  0
   55.8860   23.1570   43.4460 C   0  0  0  0  0  0  0  0  0  0  0  0
   56.3860   24.4220   43.7710 C   0  0  0  0  0  0  0  0  0  0  0  0
   57.6470   28.3160   45.0690 N   0  0  0  0  0  0  0  0  0  0  0  0
   59.0780   28.6550   45.0270 C   0  0  0  0  0  0  0  0  0  0  0  0
   59.3090   30.0130   45.6230 C   0  0  0  0  0  0  0  0  0  0  0  0
   58.4360   31.0060   45.3940 C   0  0  0  0  0  0  0  0  0  0  0  0
   58.6610   32.3800   45.9100 C   0  0  0  0  0  0  0  0  0  0  0  0
   58.8490   33.4780   45.0490 C   0  0  0  0  0  0  0  0  0  0  0  0
   59.0650   34.7470   45.5880 C   0  0  0  0  0  0  0  0  0  0  0  0
   59.0990   34.9190   46.9720 C   0  0  0  0  0  0  0  0  0  0  0  0
   58.9210   33.8110   47.8000 C   0  0  0  0  0  0  0  0  0  0  0  0
   58.7110   32.5820   47.2580 N   0  0  0  0  0  0  0  0  0  0  0  0
   57.2570   30.7250   44.4940 C   0  0  0  0  0  0  0  0  0  0  0  0
   56.6310   29.3550   44.8090 C   0  0  0  0  0  0  0  0  0  0  0  0
   59.1050   25.9990   44.9020 H   0  0  0  0  0  0  0  0  0  0  0  0
   59.2067   23.4779   45.4570 H   0  0  0  0  0  0  0  0  0  0  0  0
   58.3189   21.2263   44.8719 H   0  0  0  0  0  0  0  0  0  0  0  0
   56.8488   19.0675   44.5666 H   0  0  0  0  0  0  0  0  0  0  0  0
   54.9465   23.0688   42.8808 H   0  0  0  0  0  0  0  0  0  0  0  0
   55.8301   25.3224   43.4707 H   0  0  0  0  0  0  0  0  0  0  0  0
   59.6453   27.9062   45.5993 H   0  0  0  0  0  0  0  0  0  0  0  0
   59.4136   28.6620   43.9795 H   0  0  0  0  0  0  0  0  0  0  0  0
   60.1954   30.1945   46.2486 H   0  0  0  0  0  0  0  0  0  0  0  0
   58.8258   33.3365   43.9584 H   0  0  0  0  0  0  0  0  0  0  0  0
   59.2083   35.6108   44.9222 H   0  0  0  0  0  0  0  0  0  0  0  0
   59.2642   35.9166   47.4050 H   0  0  0  0  0  0  0  0  0  0  0  0
   58.9506   33.9316   48.8930 H   0  0  0  0  0  0  0  0  0  0  0  0
   56.4988   31.5083   44.6408 H   0  0  0  0  0  0  0  0  0  0  0  0
   57.6085   30.7161   43.4517 H   0  0  0  0  0  0  0  0  0  0  0  0
   55.9928   29.4550   45.6993 H   0  0  0  0  0  0  0  0  0  0  0  0
   56.0505   29.0422   43.9286 H   0  0  0  0  0  0  0  0  0  0  0  0
  1  2  2  0
  2  3  1  0
  3  4  1  0
  4  5  2  0
  5  6  1  0
  6  7  2  0
  7  8  1  0
  8  9  1  0
  9 10  1  0
  9 11  1  0
  7 12  1  0
 12 13  2  0
  2 14  1  0
 14 15  1  0
 15 16  1  0
 16 17  2  0
 17 18  1  0
 18 19  2  0
 19 20  1  0
 20 21  2  0
 21 22  1  0
 22 23  2  0
 17 24  1  0
 24 25  1  0
 13  4  1  0
 25 14  1  0
 23 18  1  0
  3 26  1  0
  5 27  1  0
  6 28  1  0
  9 29  1  0
 12 30  1  0
 13 31  1  0
 15 32  1  0
 15 33  1  0
 16 34  1  0
 19 35  1  0
 20 36  1  0
 21 37  1  0
 22 38  1  0
 24 39  1  0
 24 40  1  0
 25 41  1  0
 25 42  1  0
M  END
>  <UniqueID>  (43) 
40

>  <SMILES>  (43) 
O=C(Nc1ccc(OC(F)F)cc1)N1CC=C(c2ccccn2)CC1

>  <Energy>  (43) 
53.757755075069504

>  <Genealogy>  (43) 
O=C(Nc1ccc(OC(F)F)cc1)N1CC=C(c2ccccn2)CC1 (3D coordinates assigned)
O=C(Nc1ccc(OC(F)F)cc1)N1CC=C(c2ccccn2)CC1 (nonaromatic ring conformer: 53.757755075069504 kcal/mol)

>  <smiles>  (43) 
O=C(Nc1ccc(OC(F)F)cc1)N1CC=C(c2ccccn2)CC1

>  <score_type>  (43) 
oracle

>  <origin>  (43) 
adg

>  <m_score__min__energy>  (43) 
-7.1299999999999999

>  <m_primary>  (43) 
energy

$$$$
43:0
     RDKit          3D

 31 32  0  0  0  0  0  0  0  0999 V2000
   57.3950   29.0640   54.7470 O   0  0  0  0  0  0  0  0  0  0  0  0
   56.6910   29.4290   53.7690 C   0  0  0  0  0  0  0  0  0  0  0  0
   55.2850   29.1470   53.7890 N   0  0  0  0  0  0  0  0  0  0  0  0
   54.2570   29.9210   53.1540 C   0  0  0  0  0  0  0  0  0  0  0  0
   53.0920   30.2170   53.8690 C   0  0  0  0  0  0  0  0  0  0  0  0
   52.0830   30.9920   53.2920 C   0  0  0  0  0  0  0  0  0  0  0  0
   52.2310   31.4980   51.9880 C   0  0  0  0  0  0  0  0  0  0  0  0
   51.1610   32.3180   51.3790 C   0  0  0  0  0  0  0  0  0  0  0  0
   51.0110   32.3460   50.1280 O   0  0  0  0  0  0  0  0  0  0  0  0
   50.3050   33.0670   52.1780 O   0  0  0  0  0  0  0  0  0  0  0  0
   53.4150   31.2220   51.2810 C   0  0  0  0  0  0  0  0  0  0  0  0
   54.4230   30.4460   51.8620 C   0  0  0  0  0  0  0  0  0  0  0  0
   57.3430   30.0620   52.6050 C   0  0  0  0  0  0  0  0  0  0  0  0
   57.6840   29.3530   51.6200 O   0  0  0  0  0  0  0  0  0  0  0  0
   57.5770   31.4810   52.5930 N   0  0  0  0  0  0  0  0  0  0  0  0
   58.4060   32.1500   51.6280 C   0  0  0  0  0  0  0  0  0  0  0  0
   59.5710   32.8010   52.0570 C   0  0  0  0  0  0  0  0  0  0  0  0
   60.4040   33.4410   51.1350 C   0  0  0  0  0  0  0  0  0  0  0  0
   60.0930   33.4270   49.7720 C   0  0  0  0  0  0  0  0  0  0  0  0
   61.1680   34.2440   48.6460 Cl  0  0  0  0  0  0  0  0  0  0  0  0
   58.9400   32.7560   49.3290 C   0  0  0  0  0  0  0  0  0  0  0  0
   58.4800   32.6820   47.4700 Br  0  0  0  0  0  0  0  0  0  0  0  0
   58.1070   32.1170   50.2530 C   0  0  0  0  0  0  0  0  0  0  0  0
   52.9692   29.8366   54.8938 H   0  0  0  0  0  0  0  0  0  0  0  0
   51.1668   31.2079   53.8612 H   0  0  0  0  0  0  0  0  0  0  0  0
   53.5491   31.6192   50.2640 H   0  0  0  0  0  0  0  0  0  0  0  0
   55.3500   30.2459   51.3046 H   0  0  0  0  0  0  0  0  0  0  0  0
   57.0320   32.0730   53.2600 H   0  0  0  0  0  0  0  0  0  0  0  0
   59.8312   32.8082   53.1258 H   0  0  0  0  0  0  0  0  0  0  0  0
   61.3097   33.9588   51.4838 H   0  0  0  0  0  0  0  0  0  0  0  0
   57.2108   31.5843   49.9023 H   0  0  0  0  0  0  0  0  0  0  0  0
  1  2  2  0
  2  3  1  0
  3  4  1  0
  4  5  2  0
  5  6  1  0
  6  7  2  0
  7  8  1  0
  8  9  2  0
  8 10  1  0
  7 11  1  0
 11 12  2  0
  2 13  1  0
 13 14  2  0
 13 15  1  0
 15 16  1  0
 16 17  2  0
 17 18  1  0
 18 19  2  0
 19 20  1  0
 19 21  1  0
 21 22  1  0
 21 23  2  0
 12  4  1  0
 23 16  1  0
  5 24  1  0
  6 25  1  0
 11 26  1  0
 12 27  1  0
 15 28  1  0
 17 29  1  0
 18 30  1  0
 23 31  1  0
M  CHG  2   3  -1  10  -1
M  END
>  <UniqueID>  (44) 
41

>  <SMILES>  (44) 
O=C([N-]c1ccc(C(=O)[O-])cc1)C(=O)Nc1ccc(Cl)c(Br)c1

>  <Energy>  (44) 
41.953688505357064

>  <Genealogy>  (44) 
O=C([N-]c1ccc(C(=O)[O-])cc1)C(=O)Nc1ccc(Cl)c(Br)c1 (protonated)
O=C([N-]c1ccc(C(=O)[O-])cc1)C(=O)Nc1ccc(Cl)c(Br)c1 (3D coordinates assigned)
O=C([N-]c1ccc(C(=O)[O-])cc1)C(=O)Nc1ccc(Cl)c(Br)c1 (optimized conformer: 41.953688505357064 kcal/mol)

>  <smiles>  (44) 
O=C(Nc1ccc(C(=O)O)cc1)C(=O)Nc1ccc(Cl)c(Br)c1

>  <score_type>  (44) 
oracle

>  <origin>  (44) 
adg

>  <m_score__min__energy>  (44) 
-11.77

>  <m_primary>  (44) 
energy

$$$$
44:0
     RDKit          3D

 26 28  0  0  0  0  0  0  0  0999 V2000
   54.2380   28.3900   54.7480 O   0  0  0  0  0  0  0  0  0  0  0  0
   55.1770   28.7920   54.0120 C   0  0  0  0  0  0  0  0  0  0  0  0
   56.5430   28.2820   54.0300 C   0  0  0  0  0  0  0  0  0  0  0  0
   57.1320   27.3150   54.8430 C   0  0  0  0  0  0  0  0  0  0  0  0
   58.4880   27.0150   54.6330 C   0  0  0  0  0  0  0  0  0  0  0  0
   59.2220   27.6780   53.6270 C   0  0  0  0  0  0  0  0  0  0  0  0
   58.6060   28.6510   52.8170 C   0  0  0  0  0  0  0  0  0  0  0  0
   59.6150   29.5370   51.4540 Br  0  0  0  0  0  0  0  0  0  0  0  0
   57.2540   28.9330   53.0420 C   0  0  0  0  0  0  0  0  0  0  0  0
   56.3370   29.8690   52.3900 C   0  0  0  0  0  0  0  0  0  0  0  0
   56.6430   30.6740   51.4720 O   0  0  0  0  0  0  0  0  0  0  0  0
   55.0390   29.7860   52.9900 N   0  0  0  0  0  0  0  0  0  0  0  0
   53.8600   30.5320   52.6430 C   0  0  0  0  0  0  0  0  0  0  0  0
   53.6560   30.9680   51.3220 C   0  0  0  0  0  0  0  0  0  0  0  0
   52.5080   31.6930   50.9860 C   0  0  0  0  0  0  0  0  0  0  0  0
   51.5550   31.9900   51.9640 C   0  0  0  0  0  0  0  0  0  0  0  0
   50.4150   32.7100   51.6280 O   0  0  0  0  0  0  0  0  0  0  0  0
   51.7490   31.5610   53.2800 C   0  0  0  0  0  0  0  0  0  0  0  0
   52.8940   30.8340   53.6190 C   0  0  0  0  0  0  0  0  0  0  0  0
   56.5526   26.8025   55.6251 H   0  0  0  0  0  0  0  0  0  0  0  0
   58.9819   26.2566   55.2583 H   0  0  0  0  0  0  0  0  0  0  0  0
   60.2834   27.4329   53.4743 H   0  0  0  0  0  0  0  0  0  0  0  0
   54.4034   30.7377   50.5484 H   0  0  0  0  0  0  0  0  0  0  0  0
   52.3551   32.0300   49.9501 H   0  0  0  0  0  0  0  0  0  0  0  0
   50.9996   31.7958   54.0502 H   0  0  0  0  0  0  0  0  0  0  0  0
   53.0401   30.4962   54.6556 H   0  0  0  0  0  0  0  0  0  0  0  0
  1  2  2  0
  2  3  1  0
  3  4  2  0
  4  5  1  0
  5  6  2  0
  6  7  1  0
  7  8  1  0
  7  9  2  0
  9 10  1  0
 10 11  2  0
 10 12  1  0
 12 13  1  0
 13 14  2  0
 14 15  1  0
 15 16  2  0
 16 17  1  0
 16 18  1  0
 18 19  2  0
 12  2  1  0
 19 13  1  0
  9  3  1  0
  4 20  1  0
  5 21  1  0
  6 22  1  0
 14 23  1  0
 15 24  1  0
 18 25  1  0
 19 26  1  0
M  CHG  1  17  -1
M  END
>  <UniqueID>  (45) 
42

>  <SMILES>  (45) 
O=C1c2cccc(Br)c2C(=O)N1c1ccc([O-])cc1

>  <Energy>  (45) 
66.4619198572512

>  <Genealogy>  (45) 
O=C1c2cccc(Br)c2C(=O)N1c1ccc([O-])cc1 (protonated)
O=C1c2cccc(Br)c2C(=O)N1c1ccc([O-])cc1 (3D coordinates assigned)
O=C1c2cccc(Br)c2C(=O)N1c1ccc([O-])cc1 (nonaromatic ring conformer: 66.4619198572512 kcal/mol)

>  <smiles>  (45) 
O=C1c2cccc(Br)c2C(=O)N1c1ccc(O)cc1

>  <score_type>  (45) 
oracle

>  <origin>  (45) 
adg

>  <m_score__min__energy>  (45) 
-9.6799999999999997

>  <m_primary>  (45) 
energy

$$$$
45:0
     RDKit          3D

 33 34  0  0  0  0  0  0  0  0999 V2000
   58.4980   27.0870   43.2930 C   0  0  0  0  0  0  0  0  0  0  0  0
   58.9690   27.9390   44.4430 C   0  0  0  0  0  0  0  0  0  0  0  0
   60.3230   28.3150   44.5010 C   0  0  0  0  0  0  0  0  0  0  0  0
   60.7970   29.1100   45.5460 C   0  0  0  0  0  0  0  0  0  0  0  0
   59.9270   29.5410   46.5460 C   0  0  0  0  0  0  0  0  0  0  0  0
   60.5280   30.5300   47.8650 Cl  0  0  0  0  0  0  0  0  0  0  0  0
   58.5770   29.1860   46.5000 C   0  0  0  0  0  0  0  0  0  0  0  0
   58.0780   28.3990   45.4470 C   0  0  0  0  0  0  0  0  0  0  0  0
   56.6120   28.0210   45.4630 C   0  0  0  0  0  0  0  0  0  0  0  0
   55.7690   29.2100   45.2570 N   0  0  0  0  0  0  0  0  0  0  0  0
   55.8870   29.7400   43.8880 C   0  0  0  0  0  0  0  0  0  0  0  0
   56.7750   30.9550   43.8340 C   0  0  0  0  0  0  0  0  0  0  0  0
   57.3830   31.3500   42.6320 C   0  0  0  0  0  0  0  0  0  0  0  0
   58.2210   32.4670   42.6250 C   0  0  0  0  0  0  0  0  0  0  0  0
   58.4470   33.1750   43.8060 C   0  0  0  0  0  0  0  0  0  0  0  0
   57.8310   32.7500   44.9850 C   0  0  0  0  0  0  0  0  0  0  0  0
   57.0180   31.6600   44.9740 N   0  0  0  0  0  0  0  0  0  0  0  0
   58.0004   26.1869   43.6832 H   0  0  0  0  0  0  0  0  0  0  0  0
   57.7888   27.6606   42.6781 H   0  0  0  0  0  0  0  0  0  0  0  0
   59.3609   26.7915   42.6781 H   0  0  0  0  0  0  0  0  0  0  0  0
   61.0155   27.9793   43.7150 H   0  0  0  0  0  0  0  0  0  0  0  0
   61.8584   29.3967   45.5803 H   0  0  0  0  0  0  0  0  0  0  0  0
   57.8973   29.5255   47.2955 H   0  0  0  0  0  0  0  0  0  0  0  0
   56.4167   27.2956   44.6595 H   0  0  0  0  0  0  0  0  0  0  0  0
   56.3699   27.5793   46.4409 H   0  0  0  0  0  0  0  0  0  0  0  0
   56.0290   29.9540   45.9470 H   0  0  0  0  0  0  0  0  0  0  0  0
   54.7680   28.9520   45.4180 H   0  0  0  0  0  0  0  0  0  0  0  0
   56.3114   28.9596   43.2393 H   0  0  0  0  0  0  0  0  0  0  0  0
   54.8833   30.0343   43.5473 H   0  0  0  0  0  0  0  0  0  0  0  0
   57.2013   30.7856   41.7055 H   0  0  0  0  0  0  0  0  0  0  0  0
   58.7024   32.7884   41.6896 H   0  0  0  0  0  0  0  0  0  0  0  0
   59.1030   34.0580   43.8083 H   0  0  0  0  0  0  0  0  0  0  0  0
   58.0036   33.2974   45.9234 H   0  0  0  0  0  0  0  0  0  0  0  0
  1  2  1  0
  2  3  2  0
  3  4  1  0
  4  5  2  0
  5  6  1  0
  5  7  1  0
  7  8  2  0
  8  9  1  0
  9 10  1  0
 10 11  1  0
 11 12  1  0
 12 13  2  0
 13 14  1  0
 14 15  2  0
 15 16  1  0
 16 17  2  0
  8  2  1  0
 17 12  1  0
  1 18  1  0
  1 19  1  0
  1 20  1  0
  3 21  1  0
  4 22  1  0
  7 23  1  0
  9 24  1  0
  9 25  1  0
 10 26  1  0
 10 27  1  0
 11 28  1  0
 11 29  1  0
 13 30  1  0
 14 31  1  0
 15 32  1  0
 16 33  1  0
M  CHG  1  10   1
M  END
>  <UniqueID>  (46) 
43

>  <SMILES>  (46) 
Cc1ccc(Cl)cc1C[NH2+]Cc1ccccn1

>  <Energy>  (46) 
33.74279989147538

>  <Genealogy>  (46) 
Cc1ccc(Cl)cc1C[NH2+]Cc1ccccn1 (protonated)
Cc1ccc(Cl)cc1C[NH2+]Cc1ccccn1 (3D coordinates assigned)
Cc1ccc(Cl)cc1C[NH2+]Cc1ccccn1 (optimized conformer: 33.74279989147538 kcal/mol)

>  <smiles>  (46) 
Cc1ccc(Cl)cc1CNCc1ccccn1

>  <score_type>  (46) 
oracle

>  <origin>  (46) 
adg

>  <m_score__min__energy>  (46) 
-4.8799999999999999

>  <m_primary>  (46) 
energy

$$$$
46:0
     RDKit          3D

 26 26  0  0  0  0  0  0  0  0999 V2000
   56.8540   20.2590   45.2540 C   0  0  0  0  0  0  0  0  0  0  0  0
   55.9330   20.8570   44.3500 O   0  0  0  0  0  0  0  0  0  0  0  0
   56.2720   21.9430   43.5400 C   0  0  0  0  0  0  0  0  0  0  0  0
   56.2700   21.8390   42.2840 O   0  0  0  0  0  0  0  0  0  0  0  0
   56.6270   23.1930   44.1460 C   0  0  0  0  0  0  0  0  0  0  0  0
   56.9200   24.2420   44.6630 C   0  0  0  0  0  0  0  0  0  0  0  0
   57.2950   25.5070   45.3010 C   0  0  0  0  0  0  0  0  0  0  0  0
   56.0670   26.2290   45.7780 C   0  0  0  0  0  0  0  0  0  0  0  0
   55.1570   25.5800   46.3570 O   0  0  0  0  0  0  0  0  0  0  0  0
   55.9170   27.6470   45.6280 N   0  0  0  0  0  0  0  0  0  0  0  0
   57.0130   28.5680   45.6140 C   0  0  0  0  0  0  0  0  0  0  0  0
   58.0010   28.4700   46.6010 C   0  0  0  0  0  0  0  0  0  0  0  0
   59.0920   29.3470   46.5950 C   0  0  0  0  0  0  0  0  0  0  0  0
   60.3400   29.2020   47.8180 Cl  0  0  0  0  0  0  0  0  0  0  0  0
   59.1870   30.3350   45.6100 C   0  0  0  0  0  0  0  0  0  0  0  0
   58.1910   30.4510   44.6360 C   0  0  0  0  0  0  0  0  0  0  0  0
   57.1010   29.5740   44.6340 C   0  0  0  0  0  0  0  0  0  0  0  0
   55.8460   29.7710   43.4180 Cl  0  0  0  0  0  0  0  0  0  0  0  0
   56.5386   20.4638   46.2877 H   0  0  0  0  0  0  0  0  0  0  0  0
   56.8787   19.1721   45.0867 H   0  0  0  0  0  0  0  0  0  0  0  0
   57.8569   20.6787   45.0867 H   0  0  0  0  0  0  0  0  0  0  0  0
   57.9521   25.3010   46.1588 H   0  0  0  0  0  0  0  0  0  0  0  0
   57.8213   26.1371   44.5689 H   0  0  0  0  0  0  0  0  0  0  0  0
   57.9197   27.7014   47.3837 H   0  0  0  0  0  0  0  0  0  0  0  0
   60.0464   31.0216   45.6016 H   0  0  0  0  0  0  0  0  0  0  0  0
   58.2646   31.2351   43.8680 H   0  0  0  0  0  0  0  0  0  0  0  0
  1  2  1  0
  2  3  1  0
  3  4  2  0
  3  5  1  0
  5  6  3  0
  6  7  1  0
  7  8  1  0
  8  9  2  0
  8 10  1  0
 10 11  1  0
 11 12  2  0
 12 13  1  0
 13 14  1  0
 13 15  2  0
 15 16  1  0
 16 17  2  0
 17 18  1  0
 17 11  1  0
  1 19  1  0
  1 20  1  0
  1 21  1  0
  7 22  1  0
  7 23  1  0
 12 24  1  0
 15 25  1  0
 16 26  1  0
M  CHG  1  10  -1
M  END
>  <UniqueID>  (47) 
44

>  <SMILES>  (47) 
COC(=O)C#CCC(=O)[N-]c1cc(Cl)ccc1Cl

>  <Energy>  (47) 
22.478038315062033

>  <Genealogy>  (47) 
COC(=O)C#CCC(=O)[N-]c1cc(Cl)ccc1Cl (protonated)
COC(=O)C#CCC(=O)[N-]c1cc(Cl)ccc1Cl (3D coordinates assigned)
COC(=O)C#CCC(=O)[N-]c1cc(Cl)ccc1Cl (optimized conformer: 22.478038315062033 kcal/mol)

>  <smiles>  (47) 
COC(=O)C#CCC(=O)Nc1cc(Cl)ccc1Cl

>  <score_type>  (47) 
oracle

>  <origin>  (47) 
adg

>  <m_score__min__energy>  (47) 
-8.1600000000000001

>  <m_primary>  (47) 
energy

$$$$
47:0
     RDKit          3D

 48 50  0  0  0  0  0  0  0  0999 V2000
   56.2840   29.7370   43.3130 C   0  0  0  0  0  0  0  0  0  0  0  0
   56.0610   30.4870   44.4870 O   0  0  0  0  0  0  0  0  0  0  0  0
   57.2230   31.1350   44.7840 N   0  0  0  0  0  0  0  0  0  0  0  0
   57.5220   32.3970   44.1080 C   0  0  0  0  0  0  0  0  0  0  0  0
   58.1380   30.5310   45.7200 C   0  0  0  0  0  0  0  0  0  0  0  0
   59.1250   31.2920   46.2630 N   0  0  0  0  0  0  0  0  0  0  0  0
   60.0160   30.7610   47.1400 C   0  0  0  0  0  0  0  0  0  0  0  0
   61.0740   31.5690   47.6970 N   0  0  0  0  0  0  0  0  0  0  0  0
   60.7900   32.6950   48.5940 C   0  0  0  0  0  0  0  0  0  0  0  0
   61.6460   33.9100   48.2080 C   0  0  0  0  0  0  0  0  0  0  0  0
   63.0570   33.5840   47.8650 N   0  0  0  0  0  0  0  0  0  0  0  0
   63.3950   34.0020   46.4920 C   0  0  0  0  0  0  0  0  0  0  0  0
   63.4350   32.1770   48.1160 C   0  0  0  0  0  0  0  0  0  0  0  0
   62.4700   31.2000   47.4360 C   0  0  0  0  0  0  0  0  0  0  0  0
   59.9070   29.4510   47.4790 N   0  0  0  0  0  0  0  0  0  0  0  0
   58.9320   28.6730   46.9410 C   0  0  0  0  0  0  0  0  0  0  0  0
   58.8070   27.3270   47.3060 O   0  0  0  0  0  0  0  0  0  0  0  0
   58.1770   26.3370   46.5350 C   0  0  0  0  0  0  0  0  0  0  0  0
   56.7870   26.3330   46.3160 C   0  0  0  0  0  0  0  0  0  0  0  0
   56.1980   25.3220   45.5480 C   0  0  0  0  0  0  0  0  0  0  0  0
   56.9900   24.3010   45.0040 C   0  0  0  0  0  0  0  0  0  0  0  0
   56.3840   23.2660   44.2090 C   0  0  0  0  0  0  0  0  0  0  0  0
   55.8960   22.4320   43.5720 N   0  0  0  0  0  0  0  0  0  0  0  0
   58.3710   24.2930   45.2330 C   0  0  0  0  0  0  0  0  0  0  0  0
   58.9580   25.3060   46.0000 C   0  0  0  0  0  0  0  0  0  0  0  0
   58.0440   29.2140   46.0650 N   0  0  0  0  0  0  0  0  0  0  0  0
   56.5879   28.7149   43.5831 H   0  0  0  0  0  0  0  0  0  0  0  0
   55.3581   29.6997   42.7203 H   0  0  0  0  0  0  0  0  0  0  0  0
   57.0799   30.2117   42.7203 H   0  0  0  0  0  0  0  0  0  0  0  0
   57.7075   33.1798   44.8582 H   0  0  0  0  0  0  0  0  0  0  0  0
   58.4157   32.2731   43.4787 H   0  0  0  0  0  0  0  0  0  0  0  0
   56.6678   32.6872   43.4787 H   0  0  0  0  0  0  0  0  0  0  0  0
   59.7255   32.9613   48.5169 H   0  0  0  0  0  0  0  0  0  0  0  0
   61.0299   32.4006   49.6264 H   0  0  0  0  0  0  0  0  0  0  0  0
   61.1828   34.3939   47.3355 H   0  0  0  0  0  0  0  0  0  0  0  0
   61.6808   34.5632   49.0924 H   0  0  0  0  0  0  0  0  0  0  0  0
   64.0863   34.8569   46.5287 H   0  0  0  0  0  0  0  0  0  0  0  0
   63.8738   33.1658   45.9615 H   0  0  0  0  0  0  0  0  0  0  0  0
   62.4771   34.2952   45.9615 H   0  0  0  0  0  0  0  0  0  0  0  0
   64.4492   32.0055   47.7261 H   0  0  0  0  0  0  0  0  0  0  0  0
   63.3940   31.9996   49.2008 H   0  0  0  0  0  0  0  0  0  0  0  0
   62.6488   31.2152   46.3507 H   0  0  0  0  0  0  0  0  0  0  0  0
   62.6474   30.1935   47.8429 H   0  0  0  0  0  0  0  0  0  0  0  0
   56.1613   27.1270   46.7498 H   0  0  0  0  0  0  0  0  0  0  0  0
   55.1124   25.3285   45.3710 H   0  0  0  0  0  0  0  0  0  0  0  0
   58.9944   23.4912   44.8105 H   0  0  0  0  0  0  0  0  0  0  0  0
   60.0424   25.2918   46.1839 H   0  0  0  0  0  0  0  0  0  0  0  0
   57.2990   28.6010   45.6680 H   0  0  0  0  0  0  0  0  0  0  0  0
  1  2  1  0
  2  3  1  0
  3  4  1  0
  3  5  1  0
  5  6  2  0
  6  7  1  0
  7  8  1  0
  8  9  1  0
  9 10  1  0
 10 11  1  0
 11 12  1  0
 11 13  1  0
 13 14  1  0
  7 15  2  0
 15 16  1  0
 16 17  1  0
 17 18  1  0
 18 19  2  0
 19 20  1  0
 20 21  2  0
 21 22  1  0
 22 23  3  0
 21 24  1  0
 24 25  2  0
 16 26  2  0
 26  5  1  0
 14  8  1  0
 25 18  1  0
  1 27  1  0
  1 28  1  0
  1 29  1  0
  4 30  1  0
  4 31  1  0
  4 32  1  0
  9 33  1  0
  9 34  1  0
 10 35  1  0
 10 36  1  0
 12 37  1  0
 12 38  1  0
 12 39  1  0
 13 40  1  0
 13 41  1  0
 14 42  1  0
 14 43  1  0
 19 44  1  0
 20 45  1  0
 24 46  1  0
 25 47  1  0
 26 48  1  0
M  CHG  1  26   1
M  END
>  <UniqueID>  (48) 
45

>  <SMILES>  (48) 
CON(C)c1nc(N2CCN(C)CC2)nc(Oc2ccc(C#N)cc2)[nH+]1

>  <Energy>  (48) 
58.22051906416188

>  <Genealogy>  (48) 
CON(C)c1nc(N2CCN(C)CC2)nc(Oc2ccc(C#N)cc2)[nH+]1 (protonated)
CON(C)c1nc(N2CCN(C)CC2)nc(Oc2ccc(C#N)cc2)[nH+]1 (3D coordinates assigned)
CON(C)c1nc(N2CCN(C)CC2)nc(Oc2ccc(C#N)cc2)[nH+]1 (nonaromatic ring conformer: 58.22051906416188 kcal/mol)

>  <smiles>  (48) 
CON(C)c1nc(Oc2ccc(C#N)cc2)nc(N2CCN(C)CC2)n1

>  <score_type>  (48) 
oracle

>  <origin>  (48) 
adg

>  <m_score__min__energy>  (48) 
-5.6600000000000001

>  <m_primary>  (48) 
energy

$$$$
48:0
     RDKit          3D

 28 29  0  0  1  0  0  0  0  0999 V2000
   57.4030   28.1880   42.8300 N   0  0  0  0  0  0  0  0  0  0  0  0
   58.1510   26.9840   43.0980 C   0  0  0  0  0  0  0  0  0  0  0  0
   58.4150   26.9070   44.6580 C   0  0  0  0  0  0  0  0  0  0  0  0
   58.2070   28.1670   44.8600 N   0  0  0  0  0  0  0  0  0  0  0  0
   58.7960   29.0480   45.4480 C   0  0  0  0  0  0  0  0  0  0  0  0
   59.8910   28.7090   46.1940 N   0  0  0  0  0  0  0  0  0  0  0  0
   60.6490   29.5940   46.8100 C   0  0  0  0  0  0  0  0  0  0  0  0
   60.3370   30.8890   46.7050 N   0  0  0  0  0  0  0  0  0  0  0  0
   59.2650   31.2500   45.9830 C   0  0  0  0  0  0  0  0  0  0  0  0
   58.7660   32.4440   45.7510 N   0  0  0  0  0  0  0  0  0  0  0  0
   57.6800   32.3220   44.9880 C   0  0  0  0  0  0  0  0  0  0  0  0
   57.4080   30.9520   44.6730 C   0  0  0  0  0  0  0  0  0  0  0  0
   56.2540   30.6710   43.9370 C   0  0  0  0  0  0  0  0  0  0  0  0
   55.3780   29.7880   44.3680 N   0  0  0  0  0  0  0  0  0  0  0  0
   55.5370   28.6180   44.9280 O   0  0  0  0  0  0  0  0  0  0  0  0
   58.4390   30.3480   45.3190 C   0  0  0  0  0  0  0  0  0  0  0  0
   56.5520   28.2500   43.4030 H   0  0  0  0  0  0  0  0  0  0  0  0
   58.0150   29.0320   42.8800 H   0  0  0  0  0  0  0  0  0  0  0  0
   57.5733   26.1059   42.7736 H   0  0  0  0  0  0  0  0  0  0  0  0
   59.1046   26.9973   42.5499 H   0  0  0  0  0  0  0  0  0  0  0  0
   57.6968   26.2618   45.1852 H   0  0  0  0  0  0  0  0  0  0  0  0
   59.3705   26.4815   44.9985 H   0  0  0  0  0  0  0  0  0  0  0  0
   61.5210   29.2729   47.3987 H   0  0  0  0  0  0  0  0  0  0  0  0
   60.9340   31.5960   47.1890 H   0  0  0  0  0  0  0  0  0  0  0  0
   59.1690   33.3470   46.1140 H   0  0  0  0  0  0  0  0  0  0  0  0
   57.0685   33.1688   44.6431 H   0  0  0  0  0  0  0  0  0  0  0  0
   56.0754   31.1940   42.9859 H   0  0  0  0  0  0  0  0  0  0  0  0
   56.2230   27.9050   44.6150 H   0  0  0  0  0  0  0  0  0  0  0  0
  1  2  1  0
  2  3  1  0
  3  4  1  0
  4  5  2  0
  5  6  1  0
  6  7  2  0
  7  8  1  0
  8  9  1  0
  9 10  1  0
 10 11  1  0
 11 12  2  0
 12 13  1  0
 13 14  2  0
 14 15  1  0
 12 16  1  0
 16  5  1  0
 16  9  2  0
  1 17  1  0
  1 18  1  0
  2 19  1  0
  2 20  1  0
  3 21  1  0
  3 22  1  0
  7 23  1  0
  8 24  1  0
 10 25  1  0
 11 26  1  0
 13 27  1  0
 15 28  1  0
M  END
>  <smiles>  (49) 
NCCN=c1nc[nH]c2[nH]cc(C=NO)c12

>  <score_type>  (49) 
oracle

>  <origin>  (49) 
adg

>  <m_score__min__energy>  (49) 
-5.9699999999999998

>  <m_primary>  (49) 
energy

$$$$
49:0
     RDKit          3D

 45 48  0  0  0  0  0  0  0  0999 V2000
   59.1200   28.8780   46.6310 C   0  0  0  0  0  0  0  0  0  0  0  0
   57.9630   27.9380   46.9420 C   0  0  0  0  0  0  0  0  0  0  0  0
   56.8340   27.7900   45.5630 S   0  0  0  0  0  0  0  0  0  0  0  0
   55.7210   26.8650   45.9680 O   0  0  0  0  0  0  0  0  0  0  0  0
   57.5250   27.1940   44.3690 O   0  0  0  0  0  0  0  0  0  0  0  0
   56.1370   29.3320   45.1660 N   0  0  0  0  0  0  0  0  0  0  0  0
   56.7670   30.4260   44.4840 C   0  0  0  0  0  0  0  0  0  0  0  0
   56.7750   30.5460   43.0830 C   0  0  0  0  0  0  0  0  0  0  0  0
   57.4020   31.6350   42.4740 C   0  0  0  0  0  0  0  0  0  0  0  0
   58.0290   32.6110   43.2500 C   0  0  0  0  0  0  0  0  0  0  0  0
   58.0460   32.4990   44.6500 C   0  0  0  0  0  0  0  0  0  0  0  0
   58.6990   33.5330   45.4850 C   0  0  0  0  0  0  0  0  0  0  0  0
   58.7080   34.7300   45.0850 O   0  0  0  0  0  0  0  0  0  0  0  0
   59.3650   33.2100   46.7620 C   0  0  0  0  0  0  0  0  0  0  0  0
   58.7620   32.6200   47.8690 C   0  0  0  0  0  0  0  0  0  0  0  0
   59.6650   32.4340   48.8690 N   0  0  0  0  0  0  0  0  0  0  0  0
   59.4180   31.8260   50.1880 C   0  0  0  0  0  0  0  0  0  0  0  0
   59.1510   30.3390   50.1250 C   0  0  0  0  0  0  0  0  0  0  0  0
   57.8110   30.4950   50.5290 O   0  0  0  0  0  0  0  0  0  0  0  0
   57.9720   31.8910   50.6270 C   0  0  0  0  0  0  0  0  0  0  0  0
   60.8400   32.8860   48.3790 C   0  0  0  0  0  0  0  0  0  0  0  0
   62.0510   32.8630   48.9960 N   0  0  0  0  0  0  0  0  0  0  0  0
   63.1430   33.3210   48.3140 C   0  0  0  0  0  0  0  0  0  0  0  0
   63.0180   33.7750   47.0290 N   0  0  0  0  0  0  0  0  0  0  0  0
   61.8110   33.7990   46.3980 C   0  0  0  0  0  0  0  0  0  0  0  0
   60.6960   33.3580   47.1040 C   0  0  0  0  0  0  0  0  0  0  0  0
   57.3990   31.4100   45.2570 C   0  0  0  0  0  0  0  0  0  0  0  0
   59.5630   29.2379   47.5714 H   0  0  0  0  0  0  0  0  0  0  0  0
   59.8827   28.3405   46.0485 H   0  0  0  0  0  0  0  0  0  0  0  0
   58.7500   29.7346   46.0485 H   0  0  0  0  0  0  0  0  0  0  0  0
   58.3673   26.9428   47.1789 H   0  0  0  0  0  0  0  0  0  0  0  0
   57.4063   28.3535   47.7949 H   0  0  0  0  0  0  0  0  0  0  0  0
   56.2856   29.7792   42.4645 H   0  0  0  0  0  0  0  0  0  0  0  0
   57.4017   31.7240   41.3776 H   0  0  0  0  0  0  0  0  0  0  0  0
   58.5117   33.4713   42.7633 H   0  0  0  0  0  0  0  0  0  0  0  0
   57.6993   32.3419   47.9273 H   0  0  0  0  0  0  0  0  0  0  0  0
   60.2499   32.2810   50.7456 H   0  0  0  0  0  0  0  0  0  0  0  0
   59.2580   29.9168   49.1149 H   0  0  0  0  0  0  0  0  0  0  0  0
   59.8019   29.6567   50.6914 H   0  0  0  0  0  0  0  0  0  0  0  0
   57.3290   32.4561   49.9362 H   0  0  0  0  0  0  0  0  0  0  0  0
   57.7251   32.3905   51.5754 H   0  0  0  0  0  0  0  0  0  0  0  0
   62.1710   32.5030   49.9680 H   0  0  0  0  0  0  0  0  0  0  0  0
   64.1292   33.3248   48.8012 H   0  0  0  0  0  0  0  0  0  0  0  0
   61.7205   34.1562   45.3616 H   0  0  0  0  0  0  0  0  0  0  0  0
   57.3881   31.3282   46.3539 H   0  0  0  0  0  0  0  0  0  0  0  0
  1  2  1  0
  2  3  1  0
  3  4  2  0
  3  5  2  0
  3  6  1  0
  6  7  1  0
  7  8  2  0
  8  9  1  0
  9 10  2  0
 10 11  1  0
 11 12  1  0
 12 13  2  0
 12 14  1  0
 14 15  2  0
 15 16  1  0
 16 17  1  0
 17 18  1  0
 18 19  1  0
 19 20  1  0
 16 21  1  0
 21 22  2  0
 22 23  1  0
 23 24  2  0
 24 25  1  0
 25 26  2  0
 11 27  2  0
 27  7  1  0
 26 14  1  0
 20 17  1  0
 26 21  1  0
  1 28  1  0
  1 29  1  0
  1 30  1  0
  2 31  1  0
  2 32  1  0
  8 33  1  0
  9 34  1  0
 10 35  1  0
 15 36  1  0
 17 37  1  0
 18 38  1  0
 18 39  1  0
 20 40  1  0
 20 41  1  0
 22 42  1  0
 23 43  1  0
 25 44  1  0
 27 45  1  0
M  CHG  2   6  -1  22   1
M  END
>  <UniqueID>  (50) 
46

>  <SMILES>  (50) 
CCS(=O)(=O)[N-]c1cccc(C(=O)c2cn(C3COC3)c3[nH+]cncc23)c1

>  <Energy>  (50) 
153.33928505820523

>  <Genealogy>  (50) 
CCS(=O)(=O)[N-]c1cccc(C(=O)c2cn(C3COC3)c3[nH+]cncc23)c1 (protonated)
CCS(=O)(=O)[N-]c1cccc(C(=O)c2cn(C3COC3)c3[nH+]cncc23)c1 (3D coordinates assigned)
CCS(=O)(=O)[N-]c1cccc(C(=O)c2cn(C3COC3)c3[nH+]cncc23)c1 (nonaromatic ring conformer: 153.33928505820523 kcal/mol)

>  <smiles>  (50) 
CCS(=O)(=O)Nc1cccc(C(=O)c2cn(C3COC3)c3ncncc23)c1

>  <score_type>  (50) 
oracle

>  <origin>  (50) 
adg

>  <m_score__min__energy>  (50) 
-9.3000000000000007

>  <m_primary>  (50) 
energy

$$$$
50:0
     RDKit          3D

 24 25  0  0  0  0  0  0  0  0999 V2000
   59.2419   36.1089   45.7446 H   0  0  0  0  0  0  0  0  0  0  0  0
   59.2590   35.0140   45.8490 C   0  0  0  0  0  0  0  0  0  0  0  0
   60.1770   34.4080   46.7120 C   0  0  0  0  0  0  0  0  0  0  0  0
   60.8814   35.0269   47.2871 H   0  0  0  0  0  0  0  0  0  0  0  0
   60.2010   33.0170   46.8450 C   0  0  0  0  0  0  0  0  0  0  0  0
   60.9209   32.5430   47.5284 H   0  0  0  0  0  0  0  0  0  0  0  0
   59.3080   32.2240   46.1080 C   0  0  0  0  0  0  0  0  0  0  0  0
   59.3380   30.4710   46.2660 S   0  0  0  0  0  0  0  0  0  0  0  0
   58.7610   30.0320   47.5810 O   0  0  0  0  0  0  0  0  0  0  0  0
   60.7720   30.0270   46.2070 O   0  0  0  0  0  0  0  0  0  0  0  0
   58.4810   29.7100   44.9610 N   0  0  0  0  0  0  0  0  0  0  0  0
   57.2110   29.7370   44.6730 C   0  0  0  0  0  0  0  0  0  0  0  0
   56.3010   29.1110   45.4380 N   0  0  0  0  0  0  0  0  0  0  0  0
   55.1500   29.3370   44.8730 O   0  0  0  0  0  0  0  0  0  0  0  0
   55.2290   30.0640   43.7960 N   0  0  0  0  0  0  0  0  0  0  0  0
   56.5330   30.3420   43.6210 C   0  0  0  0  0  0  0  0  0  0  0  0
   57.0200   31.2120   42.5070 C   0  0  0  0  0  0  0  0  0  0  0  0
   57.5169   32.0997   42.9254 H   0  0  0  0  0  0  0  0  0  0  0  0
   57.7344   30.6495   41.8880 H   0  0  0  0  0  0  0  0  0  0  0  0
   56.1670   31.5269   41.8880 H   0  0  0  0  0  0  0  0  0  0  0  0
   58.3840   32.8360   45.2490 C   0  0  0  0  0  0  0  0  0  0  0  0
   57.6747   32.2201   44.6766 H   0  0  0  0  0  0  0  0  0  0  0  0
   58.3630   34.2280   45.1190 C   0  0  0  0  0  0  0  0  0  0  0  0
   57.6401   34.7053   44.4411 H   0  0  0  0  0  0  0  0  0  0  0  0
  1  2  1  0
  2  3  2  0
  3  4  1  0
  3  5  1  0
  5  6  1  0
  5  7  2  0
  7  8  1  0
  8  9  2  0
  8 10  2  0
  8 11  1  0
 11 12  2  0
 12 13  1  0
 13 14  1  0
 14 15  1  0
 15 16  2  0
 16 17  1  0
 17 18  1  0
 17 19  1  0
 17 20  1  0
  7 21  1  0
 21 22  1  0
 21 23  2  0
 23 24  1  0
 23  2  1  0
 16 12  1  0
M  CHG  1  13  -1
M  END
>  <UniqueID>  (51) 
47

>  <SMILES>  (51) 
Cc1no[n-]/c1=N/S(=O)(=O)c1ccccc1

>  <Energy>  (51) 
68.21317128293929

>  <Genealogy>  (51) 
Cc1no[n-]c1=NS(=O)(=O)c1ccccc1 (protonated)
Cc1no[n-]/c1=N/S(=O)(=O)c1ccccc1 (cis-trans isomerization)
Cc1no[n-]/c1=N/S(=O)(=O)c1ccccc1 (3D coordinates assigned)
Cc1no[n-]/c1=N/S(=O)(=O)c1ccccc1 (optimized conformer: 68.21317128293929 kcal/mol)

>  <smiles>  (51) 
Cc1no[nH]c1=NS(=O)(=O)c1ccccc1

>  <score_type>  (51) 
oracle

>  <origin>  (51) 
adg

>  <m_score__min__energy>  (51) 
-9.1099999999999994

>  <m_primary>  (51) 
energy

$$$$
51:0
     RDKit          3D

 32 34  0  0  0  0  0  0  0  0999 V2000
   58.8204   35.0141   44.2996 H   0  0  0  0  0  0  0  0  0  0  0  0
   58.5620   33.9650   44.5060 C   0  0  0  0  0  0  0  0  0  0  0  0
   58.3800   33.0950   43.4780 N   0  0  0  0  0  0  0  0  0  0  0  0
   58.0590   31.7910   43.6910 C   0  0  0  0  0  0  0  0  0  0  0  0
   57.9250   31.1128   42.8354 H   0  0  0  0  0  0  0  0  0  0  0  0
   57.8980   31.3070   44.9990 C   0  0  0  0  0  0  0  0  0  0  0  0
   57.5580   29.8810   45.2400 C   0  0  0  0  0  0  0  0  0  0  0  0
   56.2310   29.4670   45.0580 C   0  0  0  0  0  0  0  0  0  0  0  0
   55.4670   30.2008   44.7614 H   0  0  0  0  0  0  0  0  0  0  0  0
   55.8810   28.1720   45.2440 N   0  0  0  0  0  0  0  0  0  0  0  0
   56.7830   27.2360   45.6240 C   0  0  0  0  0  0  0  0  0  0  0  0
   56.4597   26.1941   45.7652 H   0  0  0  0  0  0  0  0  0  0  0  0
   58.1230   27.5810   45.8390 C   0  0  0  0  0  0  0  0  0  0  0  0
   58.9790   26.5500   46.3770 C   0  0  0  0  0  0  0  0  0  0  0  0
   59.6700   25.7210   46.7960 N   0  0  0  0  0  0  0  0  0  0  0  0
   58.5360   28.9300   45.6220 C   0  0  0  0  0  0  0  0  0  0  0  0
   59.7640   29.3540   45.7970 N   0  0  0  0  0  0  0  0  0  0  0  0
   60.3590   29.9760   46.9400 C   0  0  0  0  0  0  0  0  0  0  0  0
   60.0480   29.5280   48.2340 C   0  0  0  0  0  0  0  0  0  0  0  0
   59.3061   28.7283   48.3754 H   0  0  0  0  0  0  0  0  0  0  0  0
   60.6810   30.0980   49.3430 C   0  0  0  0  0  0  0  0  0  0  0  0
   60.4232   29.7591   50.3572 H   0  0  0  0  0  0  0  0  0  0  0  0
   61.6410   31.0980   49.1640 C   0  0  0  0  0  0  0  0  0  0  0  0
   62.1320   31.5513   50.0378 H   0  0  0  0  0  0  0  0  0  0  0  0
   61.9780   31.5230   47.8740 C   0  0  0  0  0  0  0  0  0  0  0  0
   63.1980   32.7640   47.6480 Cl  0  0  0  0  0  0  0  0  0  0  0  0
   61.3460   30.9520   46.7630 C   0  0  0  0  0  0  0  0  0  0  0  0
   61.6260   31.2714   45.7483 H   0  0  0  0  0  0  0  0  0  0  0  0
   58.0920   32.1940   46.0710 C   0  0  0  0  0  0  0  0  0  0  0  0
   57.9844   31.8372   47.1059 H   0  0  0  0  0  0  0  0  0  0  0  0
   58.4210   33.5270   45.8240 C   0  0  0  0  0  0  0  0  0  0  0  0
   58.5680   34.2265   46.6601 H   0  0  0  0  0  0  0  0  0  0  0  0
  1  2  1  0
  2  3  2  0
  3  4  1  0
  4  5  1  0
  4  6  2  0
  6  7  1  0
  7  8  2  0
  8  9  1  0
  8 10  1  0
 10 11  1  0
 11 12  1  0
 11 13  2  0
 13 14  1  0
 14 15  3  0
 13 16  1  0
 16 17  2  0
 17 18  1  0
 18 19  2  0
 19 20  1  0
 19 21  1  0
 21 22  1  0
 21 23  2  0
 23 24  1  0
 23 25  1  0
 25 26  1  0
 25 27  2  0
 27 28  1  0
  6 29  1  0
 29 30  1  0
 29 31  2  0
 31 32  1  0
 31  2  1  0
 16  7  1  0
 27 18  1  0
M  CHG  1  10  -1
M  END
>  <UniqueID>  (52) 
48

>  <SMILES>  (52) 
N#Cc1c[n-]cc(-c2cccnc2)/c1=N/c1cccc(Cl)c1

>  <Energy>  (52) 
59.32281883110024

>  <Genealogy>  (52) 
N#Cc1c[n-]cc(-c2cccnc2)c1=Nc1cccc(Cl)c1 (protonated)
N#Cc1c[n-]cc(-c2cccnc2)/c1=N/c1cccc(Cl)c1 (cis-trans isomerization)
N#Cc1c[n-]cc(-c2cccnc2)/c1=N/c1cccc(Cl)c1 (3D coordinates assigned)
N#Cc1c[n-]cc(-c2cccnc2)/c1=N/c1cccc(Cl)c1 (optimized conformer: 59.32281883110024 kcal/mol)

>  <smiles>  (52) 
N#Cc1c[nH]cc(-c2cccnc2)c1=Nc1cccc(Cl)c1

>  <score_type>  (52) 
oracle

>  <origin>  (52) 
adg

>  <m_score__min__energy>  (52) 
-8.5899999999999999

>  <m_primary>  (52) 
energy

$$$$
52:0
     RDKit          3D

 44 46  0  0  0  0  0  0  0  0999 V2000
   59.6350   34.5620   48.4880 C   0  0  0  0  0  0  0  0  0  0  0  0
   59.5130   34.6690   47.0740 O   0  0  0  0  0  0  0  0  0  0  0  0
   59.0160   33.6540   46.2440 C   0  0  0  0  0  0  0  0  0  0  0  0
   58.7460   32.3420   46.7260 C   0  0  0  0  0  0  0  0  0  0  0  0
   58.2480   31.3500   45.8630 C   0  0  0  0  0  0  0  0  0  0  0  0
   58.0330   31.6940   44.5320 C   0  0  0  0  0  0  0  0  0  0  0  0
   57.5590   30.9680   43.4610 C   0  0  0  0  0  0  0  0  0  0  0  0
   57.0800   29.5470   43.4550 C   0  0  0  0  0  0  0  0  0  0  0  0
   56.3810   29.2160   44.7460 C   0  0  0  0  0  0  0  0  0  0  0  0
   55.1490   29.4600   44.8560 O   0  0  0  0  0  0  0  0  0  0  0  0
   57.0550   28.5900   45.8440 N   0  0  0  0  0  0  0  0  0  0  0  0
   58.2010   27.6970   45.7240 C   0  0  0  0  0  0  0  0  0  0  0  0
   57.8490   26.3500   46.2870 C   0  0  0  0  0  0  0  0  0  0  0  0
   57.9360   26.1870   47.5340 O   0  0  0  0  0  0  0  0  0  0  0  0
   57.3830   25.2260   45.4280 C   0  0  0  0  0  0  0  0  0  0  0  0
   57.4360   25.3000   44.0210 C   0  0  0  0  0  0  0  0  0  0  0  0
   56.9920   24.2340   43.2350 C   0  0  0  0  0  0  0  0  0  0  0  0
   56.4840   23.0680   43.8350 C   0  0  0  0  0  0  0  0  0  0  0  0
   56.0310   21.9730   43.0850 O   0  0  0  0  0  0  0  0  0  0  0  0
   56.6990   20.7180   43.0080 C   0  0  0  0  0  0  0  0  0  0  0  0
   56.4290   22.9910   45.2310 C   0  0  0  0  0  0  0  0  0  0  0  0
   55.9420   21.8740   45.8280 F   0  0  0  0  0  0  0  0  0  0  0  0
   56.8710   24.0560   46.0200 C   0  0  0  0  0  0  0  0  0  0  0  0
   57.5440   31.8600   42.3930 C   0  0  0  0  0  0  0  0  0  0  0  0
   57.9910   33.0400   42.7860 O   0  0  0  0  0  0  0  0  0  0  0  0
   58.2860   32.9540   44.0610 C   0  0  0  0  0  0  0  0  0  0  0  0
   58.7810   33.9590   44.8880 C   0  0  0  0  0  0  0  0  0  0  0  0
   58.8918   35.2138   48.9705 H   0  0  0  0  0  0  0  0  0  0  0  0
   59.4615   33.5195   48.7932 H   0  0  0  0  0  0  0  0  0  0  0  0
   60.6460   34.8700   48.7932 H   0  0  0  0  0  0  0  0  0  0  0  0
   58.9287   32.1020   47.7838 H   0  0  0  0  0  0  0  0  0  0  0  0
   58.0352   30.3345   46.2283 H   0  0  0  0  0  0  0  0  0  0  0  0
   56.3797   29.4055   42.6186 H   0  0  0  0  0  0  0  0  0  0  0  0
   57.9485   28.8814   43.3423 H   0  0  0  0  0  0  0  0  0  0  0  0
   58.4735   27.5911   44.6636 H   0  0  0  0  0  0  0  0  0  0  0  0
   59.0515   28.1160   46.2818 H   0  0  0  0  0  0  0  0  0  0  0  0
   57.8308   26.2058   43.5376 H   0  0  0  0  0  0  0  0  0  0  0  0
   57.0401   24.3072   42.1385 H   0  0  0  0  0  0  0  0  0  0  0  0
   56.8974   20.3453   44.0237 H   0  0  0  0  0  0  0  0  0  0  0  0
   56.0650   19.9976   42.4704 H   0  0  0  0  0  0  0  0  0  0  0  0
   57.6507   20.8416   42.4704 H   0  0  0  0  0  0  0  0  0  0  0  0
   56.8183   23.9793   47.1161 H   0  0  0  0  0  0  0  0  0  0  0  0
   57.2097   31.6188   41.3732 H   0  0  0  0  0  0  0  0  0  0  0  0
   58.9835   34.9655   44.4931 H   0  0  0  0  0  0  0  0  0  0  0  0
  1  2  1  0
  2  3  1  0
  3  4  2  0
  4  5  1  0
  5  6  2  0
  6  7  1  0
  7  8  1  0
  8  9  1  0
  9 10  2  0
  9 11  1  0
 11 12  1  0
 12 13  1  0
 13 14  2  0
 13 15  1  0
 15 16  2  0
 16 17  1  0
 17 18  2  0
 18 19  1  0
 19 20  1  0
 18 21  1  0
 21 22  1  0
 21 23  2  0
  7 24  2  0
 24 25  1  0
 25 26  1  0
 26 27  2  0
 27  3  1  0
 26  6  1  0
 23 15  1  0
  1 28  1  0
  1 29  1  0
  1 30  1  0
  4 31  1  0
  5 32  1  0
  8 33  1  0
  8 34  1  0
 12 35  1  0
 12 36  1  0
 16 37  1  0
 17 38  1  0
 20 39  1  0
 20 40  1  0
 20 41  1  0
 23 42  1  0
 24 43  1  0
 27 44  1  0
M  CHG  1  11  -1
M  END
>  <UniqueID>  (53) 
49

>  <SMILES>  (53) 
COc1ccc2c(CC(=O)[N-]CC(=O)c3ccc(OC)c(F)c3)coc2c1

>  <Energy>  (53) 
76.98230540536188

>  <Genealogy>  (53) 
COc1ccc2c(CC(=O)[N-]CC(=O)c3ccc(OC)c(F)c3)coc2c1 (protonated)
COc1ccc2c(CC(=O)[N-]CC(=O)c3ccc(OC)c(F)c3)coc2c1 (3D coordinates assigned)
COc1ccc2c(CC(=O)[N-]CC(=O)c3ccc(OC)c(F)c3)coc2c1 (optimized conformer: 76.98230540536188 kcal/mol)

>  <smiles>  (53) 
COc1ccc2c(CC(=O)NCC(=O)c3ccc(OC)c(F)c3)coc2c1

>  <score_type>  (53) 
oracle

>  <origin>  (53) 
adg

>  <m_score__min__energy>  (53) 
-9.6400000000000006

>  <m_primary>  (53) 
energy

$$$$
53:0
     RDKit          3D

 28 27  0  0  0  0  0  0  0  0999 V2000
   58.9820   34.6270   44.8880 C   0  0  0  0  0  0  0  0  0  0  0  0
   58.1900   33.4150   45.3080 C   0  0  0  0  0  0  0  0  0  0  0  0
   57.3910   33.4570   46.5890 C   0  0  0  0  0  0  0  0  0  0  0  0
   58.2080   32.3260   44.5100 C   0  0  0  0  0  0  0  0  0  0  0  0
   57.9320   32.3460   43.0250 C   0  0  0  0  0  0  0  0  0  0  0  0
   57.0050   31.2010   42.5980 C   0  0  0  0  0  0  0  0  0  0  0  0
   56.8500   30.1840   43.6900 C   0  0  0  0  0  0  0  0  0  0  0  0
   55.8860   30.2810   44.4970 O   0  0  0  0  0  0  0  0  0  0  0  0
   57.7620   29.0810   43.7820 N   0  0  0  0  0  0  0  0  0  0  0  0
   57.5800   28.0210   44.7730 C   0  0  0  0  0  0  0  0  0  0  0  0
   58.7760   27.9340   45.7190 C   0  0  0  0  0  0  0  0  0  0  0  0
   58.8070   29.3260   46.8340 Cl  0  0  0  0  0  0  0  0  0  0  0  0
   59.3327   35.1637   45.7819 H   0  0  0  0  0  0  0  0  0  0  0  0
   59.8475   34.3095   44.2878 H   0  0  0  0  0  0  0  0  0  0  0  0
   58.3438   35.2922   44.2878 H   0  0  0  0  0  0  0  0  0  0  0  0
   58.0754   33.4210   47.4494 H   0  0  0  0  0  0  0  0  0  0  0  0
   56.8050   34.3872   46.6253 H   0  0  0  0  0  0  0  0  0  0  0  0
   56.7107   32.5934   46.6253 H   0  0  0  0  0  0  0  0  0  0  0  0
   58.4400   31.3560   44.9739 H   0  0  0  0  0  0  0  0  0  0  0  0
   57.4570   33.3035   42.7648 H   0  0  0  0  0  0  0  0  0  0  0  0
   58.8902   32.2217   42.4993 H   0  0  0  0  0  0  0  0  0  0  0  0
   56.0160   31.6146   42.3515 H   0  0  0  0  0  0  0  0  0  0  0  0
   57.4501   30.7039   41.7235 H   0  0  0  0  0  0  0  0  0  0  0  0
   58.5580   29.0340   43.1060 H   0  0  0  0  0  0  0  0  0  0  0  0
   56.6736   28.2309   45.3598 H   0  0  0  0  0  0  0  0  0  0  0  0
   57.4868   27.0620   44.2423 H   0  0  0  0  0  0  0  0  0  0  0  0
   58.7057   27.0052   46.3041 H   0  0  0  0  0  0  0  0  0  0  0  0
   59.6991   27.9418   45.1207 H   0  0  0  0  0  0  0  0  0  0  0  0
  1  2  1  0
  2  3  1  0
  2  4  2  3
  4  5  1  0
  5  6  1  0
  6  7  1  0
  7  8  2  0
  7  9  1  0
  9 10  1  0
 10 11  1  0
 11 12  1  0
  1 13  1  0
  1 14  1  0
  1 15  1  0
  3 16  1  0
  3 17  1  0
  3 18  1  0
  4 19  1  0
  5 20  1  0
  5 21  1  0
  6 22  1  0
  6 23  1  0
  9 24  1  0
 10 25  1  0
 10 26  1  0
 11 27  1  0
 11 28  1  0
M  END
>  <UniqueID>  (54) 
50

>  <SMILES>  (54) 
CC(C)=CCCC(=O)NCCCl

>  <Energy>  (54) 
10.298927279433842

>  <Genealogy>  (54) 
CC(C)=CCCC(=O)NCCCl (3D coordinates assigned)
CC(C)=CCCC(=O)NCCCl (optimized conformer: 10.298927279433842 kcal/mol)

>  <smiles>  (54) 
CC(C)=CCCC(=O)NCCCl

>  <score_type>  (54) 
oracle

>  <origin>  (54) 
adg

>  <m_score__min__energy>  (54) 
-5.0999999999999996

>  <m_primary>  (54) 
energy

$$$$
54:0
     RDKit          3D

 37 38  0  0  0  0  0  0  0  0999 V2000
   58.5270   27.3740   43.3770 C   0  0  0  0  0  0  0  0  0  0  0  0
   58.9590   28.2180   44.5480 C   0  0  0  0  0  0  0  0  0  0  0  0
   60.3000   28.6370   44.6070 C   0  0  0  0  0  0  0  0  0  0  0  0
   60.7690   29.3770   45.6930 C   0  0  0  0  0  0  0  0  0  0  0  0
   59.9060   29.7140   46.7320 C   0  0  0  0  0  0  0  0  0  0  0  0
   58.5670   29.3230   46.6850 C   0  0  0  0  0  0  0  0  0  0  0  0
   58.0670   28.5870   45.5930 C   0  0  0  0  0  0  0  0  0  0  0  0
   56.6360   28.1920   45.6090 C   0  0  0  0  0  0  0  0  0  0  0  0
   56.3170   27.0260   45.9690 O   0  0  0  0  0  0  0  0  0  0  0  0
   55.6100   29.1210   45.2380 N   0  0  0  0  0  0  0  0  0  0  0  0
   55.5370   29.7410   43.9210 C   0  0  0  0  0  0  0  0  0  0  0  0
   56.6100   30.7730   43.8020 C   0  0  0  0  0  0  0  0  0  0  0  0
   57.2490   30.8920   42.7220 O   0  0  0  0  0  0  0  0  0  0  0  0
   56.8250   31.6930   44.8760 N   0  0  0  0  0  0  0  0  0  0  0  0
   57.4040   33.0180   44.6860 C   0  0  0  0  0  0  0  0  0  0  0  0
   58.2820   33.3590   45.8590 C   0  0  0  0  0  0  0  0  0  0  0  0
   59.2980   34.3180   45.7180 C   0  0  0  0  0  0  0  0  0  0  0  0
   60.1700   34.5850   46.7790 C   0  0  0  0  0  0  0  0  0  0  0  0
   60.0330   33.8970   47.9880 C   0  0  0  0  0  0  0  0  0  0  0  0
   61.1430   34.2150   49.3080 Cl  0  0  0  0  0  0  0  0  0  0  0  0
   59.0200   32.9450   48.1390 C   0  0  0  0  0  0  0  0  0  0  0  0
   58.1500   32.6710   47.0770 C   0  0  0  0  0  0  0  0  0  0  0  0
   58.0546   26.4511   43.7446 H   0  0  0  0  0  0  0  0  0  0  0  0
   57.8060   27.9366   42.7657 H   0  0  0  0  0  0  0  0  0  0  0  0
   59.4050   27.1181   42.7657 H   0  0  0  0  0  0  0  0  0  0  0  0
   60.9870   28.3785   43.7878 H   0  0  0  0  0  0  0  0  0  0  0  0
   61.8216   29.6944   45.7282 H   0  0  0  0  0  0  0  0  0  0  0  0
   60.2800   30.2895   47.5916 H   0  0  0  0  0  0  0  0  0  0  0  0
   57.8933   29.5931   47.5116 H   0  0  0  0  0  0  0  0  0  0  0  0
   55.6772   28.9738   43.1453 H   0  0  0  0  0  0  0  0  0  0  0  0
   54.5531   30.2152   43.7906 H   0  0  0  0  0  0  0  0  0  0  0  0
   58.0048   33.0261   43.7646 H   0  0  0  0  0  0  0  0  0  0  0  0
   56.5968   33.7610   44.6062 H   0  0  0  0  0  0  0  0  0  0  0  0
   59.4089   34.8621   44.7684 H   0  0  0  0  0  0  0  0  0  0  0  0
   60.9641   35.3370   46.6617 H   0  0  0  0  0  0  0  0  0  0  0  0
   58.9065   32.4106   49.0937 H   0  0  0  0  0  0  0  0  0  0  0  0
   57.3604   31.9145   47.1965 H   0  0  0  0  0  0  0  0  0  0  0  0
  1  2  1  0
  2  3  2  0
  3  4  1  0
  4  5  2  0
  5  6  1  0
  6  7  2  0
  7  8  1  0
  8  9  2  0
  8 10  1  0
 10 11  1  0
 11 12  1  0
 12 13  2  0
 12 14  1  0
 14 15  1  0
 15 16  1  0
 16 17  2  0
 17 18  1  0
 18 19  2  0
 19 20  1  0
 19 21  1  0
 21 22  2  0
  7  2  1  0
 22 16  1  0
  1 23  1  0
  1 24  1  0
  1 25  1  0
  3 26  1  0
  4 27  1  0
  5 28  1  0
  6 29  1  0
 11 30  1  0
 11 31  1  0
 15 32  1  0
 15 33  1  0
 17 34  1  0
 18 35  1  0
 21 36  1  0
 22 37  1  0
M  CHG  2  10  -1  14  -1
M  END
>  <UniqueID>  (55) 
51

>  <SMILES>  (55) 
Cc1ccccc1C(=O)[N-]CC(=O)[N-]Cc1ccc(Cl)cc1

>  <Energy>  (55) 
32.18117383515108

>  <Genealogy>  (55) 
Cc1ccccc1C(=O)[N-]CC(=O)[N-]Cc1ccc(Cl)cc1 (protonated)
Cc1ccccc1C(=O)[N-]CC(=O)[N-]Cc1ccc(Cl)cc1 (3D coordinates assigned)
Cc1ccccc1C(=O)[N-]CC(=O)[N-]Cc1ccc(Cl)cc1 (optimized conformer: 32.18117383515108 kcal/mol)

>  <smiles>  (55) 
Cc1ccccc1C(=O)NCC(=O)NCc1ccc(Cl)cc1

>  <score_type>  (55) 
oracle

>  <origin>  (55) 
adg

>  <m_score__min__energy>  (55) 
-11.58

>  <m_primary>  (55) 
energy

$$$$
55:0
     RDKit          3D

 46 48  0  0  0  0  0  0  0  0999 V2000
   55.2250   24.4690   46.4540 O   0  0  0  0  0  0  0  0  0  0  0  0
   55.8190   25.5090   46.0670 C   0  0  0  0  0  0  0  0  0  0  0  0
   55.1300   26.7140   46.0060 O   0  0  0  0  0  0  0  0  0  0  0  0
   57.2490   25.4410   45.6260 C   0  0  0  0  0  0  0  0  0  0  0  0
   57.6240   26.6290   44.7330 C   0  0  0  0  0  0  0  0  0  0  0  0
   58.3680   27.6930   45.4980 C   0  0  0  0  0  0  0  0  0  0  0  0
   58.0630   29.0480   45.3010 C   0  0  0  0  0  0  0  0  0  0  0  0
   58.7590   30.0380   46.0000 C   0  0  0  0  0  0  0  0  0  0  0  0
   59.7710   29.6860   46.9110 C   0  0  0  0  0  0  0  0  0  0  0  0
   60.4870   30.6850   47.6560 N   0  0  0  0  0  0  0  0  0  0  0  0
   61.6460   31.4000   47.1210 C   0  0  0  0  0  0  0  0  0  0  0  0
   62.1220   32.4240   48.1190 C   0  0  0  0  0  0  0  0  0  0  0  0
   63.4870   32.5030   48.4390 C   0  0  0  0  0  0  0  0  0  0  0  0
   63.9420   33.4330   49.3760 C   0  0  0  0  0  0  0  0  0  0  0  0
   63.0370   34.2820   50.0140 C   0  0  0  0  0  0  0  0  0  0  0  0
   61.6750   34.2060   49.7160 C   0  0  0  0  0  0  0  0  0  0  0  0
   61.2070   33.2850   48.7600 C   0  0  0  0  0  0  0  0  0  0  0  0
   59.8370   33.1660   48.4740 O   0  0  0  0  0  0  0  0  0  0  0  0
   59.2100   33.5650   47.2860 C   0  0  0  0  0  0  0  0  0  0  0  0
   57.8970   33.1450   47.0440 C   0  0  0  0  0  0  0  0  0  0  0  0
   57.2460   33.5040   45.8610 C   0  0  0  0  0  0  0  0  0  0  0  0
   57.9100   34.2790   44.9040 C   0  0  0  0  0  0  0  0  0  0  0  0
   59.2270   34.6890   45.1300 C   0  0  0  0  0  0  0  0  0  0  0  0
   59.8800   34.3310   46.3130 C   0  0  0  0  0  0  0  0  0  0  0  0
   60.0980   28.3330   47.0790 C   0  0  0  0  0  0  0  0  0  0  0  0
   59.4000   27.3420   46.3830 C   0  0  0  0  0  0  0  0  0  0  0  0
   57.8968   25.4449   46.5150 H   0  0  0  0  0  0  0  0  0  0  0  0
   57.3846   24.5179   45.0434 H   0  0  0  0  0  0  0  0  0  0  0  0
   58.2617   26.2696   43.9119 H   0  0  0  0  0  0  0  0  0  0  0  0
   56.6944   27.0729   44.3474 H   0  0  0  0  0  0  0  0  0  0  0  0
   57.2715   29.3329   44.5923 H   0  0  0  0  0  0  0  0  0  0  0  0
   58.5141   31.0979   45.8368 H   0  0  0  0  0  0  0  0  0  0  0  0
   60.0060   31.1200   48.4760 H   0  0  0  0  0  0  0  0  0  0  0  0
   62.4557   30.6832   46.9194 H   0  0  0  0  0  0  0  0  0  0  0  0
   61.3593   31.9086   46.1888 H   0  0  0  0  0  0  0  0  0  0  0  0
   64.2030   31.8274   47.9480 H   0  0  0  0  0  0  0  0  0  0  0  0
   65.0147   33.4963   49.6113 H   0  0  0  0  0  0  0  0  0  0  0  0
   63.3972   35.0126   50.7532 H   0  0  0  0  0  0  0  0  0  0  0  0
   60.9643   34.8691   50.2309 H   0  0  0  0  0  0  0  0  0  0  0  0
   57.3742   32.5283   47.7899 H   0  0  0  0  0  0  0  0  0  0  0  0
   56.2110   33.1772   45.6820 H   0  0  0  0  0  0  0  0  0  0  0  0
   57.3961   34.5654   43.9746 H   0  0  0  0  0  0  0  0  0  0  0  0
   59.7506   35.2945   44.3755 H   0  0  0  0  0  0  0  0  0  0  0  0
   60.9192   34.6483   46.4841 H   0  0  0  0  0  0  0  0  0  0  0  0
   60.9104   28.0491   47.7641 H   0  0  0  0  0  0  0  0  0  0  0  0
   59.6601   26.2832   46.5291 H   0  0  0  0  0  0  0  0  0  0  0  0
  1  2  2  0
  2  3  1  0
  2  4  1  0
  4  5  1  0
  5  6  1  0
  6  7  2  0
  7  8  1  0
  8  9  2  0
  9 10  1  0
 10 11  1  0
 11 12  1  0
 12 13  2  0
 13 14  1  0
 14 15  2  0
 15 16  1  0
 16 17  2  0
 17 18  1  0
 18 19  1  0
 19 20  2  0
 20 21  1  0
 21 22  2  0
 22 23  1  0
 23 24  2  0
  9 25  1  0
 25 26  2  0
 26  6  1  0
 17 12  1  0
 24 19  1  0
  4 27  1  0
  4 28  1  0
  5 29  1  0
  5 30  1  0
  7 31  1  0
  8 32  1  0
 10 33  1  0
 11 34  1  0
 11 35  1  0
 13 36  1  0
 14 37  1  0
 15 38  1  0
 16 39  1  0
 20 40  1  0
 21 41  1  0
 22 42  1  0
 23 43  1  0
 24 44  1  0
 25 45  1  0
 26 46  1  0
M  CHG  1   3  -1
M  END
>  <UniqueID>  (56) 
52

>  <SMILES>  (56) 
O=C([O-])CCc1ccc(NCc2ccccc2Oc2ccccc2)cc1

>  <Energy>  (56) 
51.01259994079119

>  <Genealogy>  (56) 
O=C([O-])CCc1ccc(NCc2ccccc2Oc2ccccc2)cc1 (protonated)
O=C([O-])CCc1ccc(NCc2ccccc2Oc2ccccc2)cc1 (3D coordinates assigned)
O=C([O-])CCc1ccc(NCc2ccccc2Oc2ccccc2)cc1 (optimized conformer: 51.01259994079119 kcal/mol)

>  <smiles>  (56) 
O=C(O)CCc1ccc(NCc2ccccc2Oc2ccccc2)cc1

>  <score_type>  (56) 
oracle

>  <origin>  (56) 
adg

>  <m_score__min__energy>  (56) 
-11.1

>  <m_primary>  (56) 
energy

$$$$
56:0
     RDKit          3D

 38 40  0  0  0  0  0  0  0  0999 V2000
   53.6350   22.6170   45.2640 O   0  0  0  0  0  0  0  0  0  0  0  0
   54.6930   23.2910   45.3630 C   0  0  0  0  0  0  0  0  0  0  0  0
   55.0410   23.8300   46.5570 N   0  0  0  0  0  0  0  0  0  0  0  0
   56.1760   24.5640   46.6980 C   0  0  0  0  0  0  0  0  0  0  0  0
   56.4610   25.0390   47.8300 O   0  0  0  0  0  0  0  0  0  0  0  0
   56.9970   24.7800   45.6190 N   0  0  0  0  0  0  0  0  0  0  0  0
   58.2470   25.5460   45.7550 C   0  0  0  0  0  0  0  0  0  0  0  0
   57.9710   27.0220   45.6370 C   0  0  0  0  0  0  0  0  0  0  0  0
   58.9880   27.9520   45.8960 C   0  0  0  0  0  0  0  0  0  0  0  0
   58.7270   29.3230   45.8210 C   0  0  0  0  0  0  0  0  0  0  0  0
   57.4400   29.7850   45.4870 C   0  0  0  0  0  0  0  0  0  0  0  0
   57.1300   31.1530   45.3940 O   0  0  0  0  0  0  0  0  0  0  0  0
   57.8350   32.1080   44.6000 C   0  0  0  0  0  0  0  0  0  0  0  0
   58.4630   33.1660   45.4680 C   0  0  0  0  0  0  0  0  0  0  0  0
   59.0320   34.3160   44.8950 C   0  0  0  0  0  0  0  0  0  0  0  0
   59.6220   35.2890   45.7080 C   0  0  0  0  0  0  0  0  0  0  0  0
   59.6570   35.1180   47.0940 C   0  0  0  0  0  0  0  0  0  0  0  0
   59.1050   33.9710   47.6700 C   0  0  0  0  0  0  0  0  0  0  0  0
   58.5130   32.9960   46.8620 C   0  0  0  0  0  0  0  0  0  0  0  0
   56.4230   28.8530   45.2410 C   0  0  0  0  0  0  0  0  0  0  0  0
   55.1430   29.2890   44.9160 O   0  0  0  0  0  0  0  0  0  0  0  0
   56.6850   27.4810   45.3170 C   0  0  0  0  0  0  0  0  0  0  0  0
   56.6730   24.2410   44.4050 C   0  0  0  0  0  0  0  0  0  0  0  0
   55.5110   23.4870   44.2520 C   0  0  0  0  0  0  0  0  0  0  0  0
   55.1890   22.9560   43.0460 F   0  0  0  0  0  0  0  0  0  0  0  0
   58.6949   25.3380   46.7379 H   0  0  0  0  0  0  0  0  0  0  0  0
   58.9393   25.2463   44.9544 H   0  0  0  0  0  0  0  0  0  0  0  0
   59.9965   27.6007   46.1596 H   0  0  0  0  0  0  0  0  0  0  0  0
   59.5317   30.0449   46.0241 H   0  0  0  0  0  0  0  0  0  0  0  0
   58.6236   31.5928   44.0319 H   0  0  0  0  0  0  0  0  0  0  0  0
   57.1229   32.5912   43.9149 H   0  0  0  0  0  0  0  0  0  0  0  0
   59.0133   34.4513   43.8035 H   0  0  0  0  0  0  0  0  0  0  0  0
   60.0595   36.1909   45.2551 H   0  0  0  0  0  0  0  0  0  0  0  0
   60.1190   35.8861   47.7317 H   0  0  0  0  0  0  0  0  0  0  0  0
   59.1363   33.8350   48.7611 H   0  0  0  0  0  0  0  0  0  0  0  0
   58.0845   32.0919   47.3193 H   0  0  0  0  0  0  0  0  0  0  0  0
   55.8782   26.7584   45.1248 H   0  0  0  0  0  0  0  0  0  0  0  0
   57.3351   24.4039   43.5418 H   0  0  0  0  0  0  0  0  0  0  0  0
  1  2  2  0
  2  3  1  0
  3  4  1  0
  4  5  2  0
  4  6  1  0
  6  7  1  0
  7  8  1  0
  8  9  2  0
  9 10  1  0
 10 11  2  0
 11 12  1  0
 12 13  1  0
 13 14  1  0
 14 15  2  0
 15 16  1  0
 16 17  2  0
 17 18  1  0
 18 19  2  0
 11 20  1  0
 20 21  1  0
 20 22  2  0
  6 23  1  0
 23 24  2  0
 24 25  1  0
 24  2  1  0
 22  8  1  0
 19 14  1  0
  7 26  1  0
  7 27  1  0
  9 28  1  0
 10 29  1  0
 13 30  1  0
 13 31  1  0
 15 32  1  0
 16 33  1  0
 17 34  1  0
 18 35  1  0
 19 36  1  0
 22 37  1  0
 23 38  1  0
M  CHG  2   3  -1  21  -1
M  END
>  <UniqueID>  (57) 
53

>  <SMILES>  (57) 
O=c1[n-]c(=O)n(Cc2ccc(OCc3ccccc3)c([O-])c2)cc1F

>  <Energy>  (57) 
42.86683577242836

>  <Genealogy>  (57) 
O=c1[n-]c(=O)n(Cc2ccc(OCc3ccccc3)c([O-])c2)cc1F (protonated)
O=c1[n-]c(=O)n(Cc2ccc(OCc3ccccc3)c([O-])c2)cc1F (3D coordinates assigned)
O=c1[n-]c(=O)n(Cc2ccc(OCc3ccccc3)c([O-])c2)cc1F (optimized conformer: 42.86683577242836 kcal/mol)

>  <smiles>  (57) 
O=c1[nH]c(=O)n(Cc2ccc(OCc3ccccc3)c(O)c2)cc1F

>  <score_type>  (57) 
oracle

>  <origin>  (57) 
adg

>  <m_score__min__energy>  (57) 
-13.49

>  <m_primary>  (57) 
energy

$$$$
57:0
     RDKit          3D

 34 35  0  0  0  0  0  0  0  0999 V2000
   59.6430   35.3380   45.6450 C   0  0  0  0  0  0  0  0  0  0  0  0
   59.0470   34.6580   46.8410 C   0  0  0  0  0  0  0  0  0  0  0  0
   59.4410   35.0030   47.9870 O   0  0  0  0  0  0  0  0  0  0  0  0
   57.9960   33.6170   46.6910 C   0  0  0  0  0  0  0  0  0  0  0  0
   57.7720   32.7410   47.6950 C   0  0  0  0  0  0  0  0  0  0  0  0
   58.7970   32.1460   48.5810 C   0  0  0  0  0  0  0  0  0  0  0  0
   58.6310   32.1020   49.8280 O   0  0  0  0  0  0  0  0  0  0  0  0
   60.0090   31.6620   47.9820 N   0  0  0  0  0  0  0  0  0  0  0  0
   61.1910   32.2150   47.9390 C   0  0  0  0  0  0  0  0  0  0  0  0
   62.2010   31.5600   47.2180 C   0  0  0  0  0  0  0  0  0  0  0  0
   63.4760   32.1210   47.1450 C   0  0  0  0  0  0  0  0  0  0  0  0
   63.7420   33.3230   47.7970 C   0  0  0  0  0  0  0  0  0  0  0  0
   62.7280   33.9410   48.5290 C   0  0  0  0  0  0  0  0  0  0  0  0
   61.4870   33.3840   48.5940 N   0  0  0  0  0  0  0  0  0  0  0  0
   57.0330   33.5860   45.1600 S   0  0  0  0  0  0  0  0  0  0  0  0
   57.3610   31.8480   44.8660 C   0  0  0  0  0  0  0  0  0  0  0  0
   58.6630   31.3440   44.9670 C   0  0  0  0  0  0  0  0  0  0  0  0
   58.8890   29.9860   44.7380 C   0  0  0  0  0  0  0  0  0  0  0  0
   57.8200   29.1480   44.4090 C   0  0  0  0  0  0  0  0  0  0  0  0
   58.0900   27.4400   44.1270 Cl  0  0  0  0  0  0  0  0  0  0  0  0
   56.5350   29.6900   44.3080 C   0  0  0  0  0  0  0  0  0  0  0  0
   56.3360   31.0160   44.5360 N   0  0  0  0  0  0  0  0  0  0  0  0
   60.3340   36.1264   45.9780 H   0  0  0  0  0  0  0  0  0  0  0  0
   60.1915   34.6012   45.0398 H   0  0  0  0  0  0  0  0  0  0  0  0
   58.8407   35.7852   45.0398 H   0  0  0  0  0  0  0  0  0  0  0  0
   56.7282   32.4416   47.8705 H   0  0  0  0  0  0  0  0  0  0  0  0
   61.9879   30.6069   46.7118 H   0  0  0  0  0  0  0  0  0  0  0  0
   64.2691   31.6158   46.5743 H   0  0  0  0  0  0  0  0  0  0  0  0
   64.7408   33.7798   47.7353 H   0  0  0  0  0  0  0  0  0  0  0  0
   62.9321   34.8842   49.0570 H   0  0  0  0  0  0  0  0  0  0  0  0
   60.7940   33.8670   49.2030 H   0  0  0  0  0  0  0  0  0  0  0  0
   59.4990   32.0111   45.2241 H   0  0  0  0  0  0  0  0  0  0  0  0
   59.9067   29.5759   44.8163 H   0  0  0  0  0  0  0  0  0  0  0  0
   55.6848   29.0438   44.0441 H   0  0  0  0  0  0  0  0  0  0  0  0
  1  2  1  0
  2  3  2  0
  2  4  1  0
  4  5  2  3
  5  6  1  0
  6  7  2  0
  6  8  1  0
  8  9  2  3
  9 10  1  0
 10 11  2  0
 11 12  1  0
 12 13  2  0
 13 14  1  0
  4 15  1  0
 15 16  1  0
 16 17  2  0
 17 18  1  0
 18 19  2  0
 19 20  1  0
 19 21  1  0
 21 22  2  0
 14  9  1  0
 22 16  1  0
  1 23  1  0
  1 24  1  0
  1 25  1  0
  5 26  1  0
 10 27  1  0
 11 28  1  0
 12 29  1  0
 13 30  1  0
 14 31  1  0
 17 32  1  0
 18 33  1  0
 21 34  1  0
M  END
>  <UniqueID>  (58) 
54

>  <SMILES>  (58) 
CC(=O)C(=CC(=O)N=c1cccc[nH]1)Sc1ccc(Cl)cn1

>  <Energy>  (58) 
40.80982116066841

>  <Genealogy>  (58) 
CC(=O)C(=CC(=O)N=c1cccc[nH]1)Sc1ccc(Cl)cn1 (3D coordinates assigned)
CC(=O)C(=CC(=O)N=c1cccc[nH]1)Sc1ccc(Cl)cn1 (optimized conformer: 40.80982116066841 kcal/mol)

>  <smiles>  (58) 
CC(=O)C(=CC(=O)N=c1cccc[nH]1)Sc1ccc(Cl)cn1

>  <score_type>  (58) 
oracle

>  <origin>  (58) 
adg

>  <m_score__min__energy>  (58) 
-7.8899999999999997

>  <m_primary>  (58) 
energy

$$$$
58:0
     RDKit          3D

 39 41  0  0  0  0  0  0  0  0999 V2000
   57.0520   31.3190   42.2590 C   0  0  0  0  0  0  0  0  0  0  0  0
   57.0380   30.7450   43.9410 S   0  0  0  0  0  0  0  0  0  0  0  0
   57.4930   29.3130   43.9870 O   0  0  0  0  0  0  0  0  0  0  0  0
   55.6390   30.8240   44.4880 O   0  0  0  0  0  0  0  0  0  0  0  0
   58.1120   31.7460   44.9110 C   0  0  0  0  0  0  0  0  0  0  0  0
   58.3620   33.0750   44.5450 C   0  0  0  0  0  0  0  0  0  0  0  0
   59.2030   33.8730   45.3250 C   0  0  0  0  0  0  0  0  0  0  0  0
   59.8100   33.3520   46.4740 C   0  0  0  0  0  0  0  0  0  0  0  0
   60.6360   34.1900   47.2380 O   0  0  0  0  0  0  0  0  0  0  0  0
   61.7520   33.7760   47.9810 C   0  0  0  0  0  0  0  0  0  0  0  0
   61.6860   33.5670   49.3700 C   0  0  0  0  0  0  0  0  0  0  0  0
   62.8150   33.1400   50.0730 C   0  0  0  0  0  0  0  0  0  0  0  0
   64.0270   32.9000   49.4000 C   0  0  0  0  0  0  0  0  0  0  0  0
   65.2280   32.4480   50.1470 C   0  0  0  0  0  0  0  0  0  0  0  0
   65.2010   31.2500   50.8870 C   0  0  0  0  0  0  0  0  0  0  0  0
   66.3340   30.8260   51.5890 C   0  0  0  0  0  0  0  0  0  0  0  0
   67.5030   31.5890   51.5610 C   0  0  0  0  0  0  0  0  0  0  0  0
   67.5420   32.7790   50.8310 C   0  0  0  0  0  0  0  0  0  0  0  0
   66.4130   33.2100   50.1280 C   0  0  0  0  0  0  0  0  0  0  0  0
   64.0800   33.0910   48.0080 C   0  0  0  0  0  0  0  0  0  0  0  0
   62.9490   33.5190   47.3070 C   0  0  0  0  0  0  0  0  0  0  0  0
   59.5380   32.0260   46.8550 C   0  0  0  0  0  0  0  0  0  0  0  0
   58.6960   31.2280   46.0740 C   0  0  0  0  0  0  0  0  0  0  0  0
   57.0788   32.4186   42.2470 H   0  0  0  0  0  0  0  0  0  0  0  0
   57.9408   30.9249   41.7445 H   0  0  0  0  0  0  0  0  0  0  0  0
   56.1450   30.9687   41.7445 H   0  0  0  0  0  0  0  0  0  0  0  0
   57.8947   33.4917   43.6406 H   0  0  0  0  0  0  0  0  0  0  0  0
   59.3894   34.9174   45.0344 H   0  0  0  0  0  0  0  0  0  0  0  0
   60.7409   33.7406   49.9054 H   0  0  0  0  0  0  0  0  0  0  0  0
   62.7560   32.9902   51.1612 H   0  0  0  0  0  0  0  0  0  0  0  0
   64.2833   30.6441   50.9130 H   0  0  0  0  0  0  0  0  0  0  0  0
   66.3040   29.8891   52.1646 H   0  0  0  0  0  0  0  0  0  0  0  0
   68.3928   31.2530   52.1136 H   0  0  0  0  0  0  0  0  0  0  0  0
   68.4637   33.3789   50.8091 H   0  0  0  0  0  0  0  0  0  0  0  0
   66.4501   34.1493   49.5568 H   0  0  0  0  0  0  0  0  0  0  0  0
   65.0187   32.9022   47.4665 H   0  0  0  0  0  0  0  0  0  0  0  0
   63.0015   33.6546   46.2166 H   0  0  0  0  0  0  0  0  0  0  0  0
   59.9890   31.6151   47.7703 H   0  0  0  0  0  0  0  0  0  0  0  0
   58.4916   30.1897   46.3741 H   0  0  0  0  0  0  0  0  0  0  0  0
  1  2  1  0
  2  3  2  0
  2  4  2  0
  2  5  1  0
  5  6  2  0
  6  7  1  0
  7  8  2  0
  8  9  1  0
  9 10  1  0
 10 11  2  0
 11 12  1  0
 12 13  2  0
 13 14  1  0
 14 15  2  0
 15 16  1  0
 16 17  2  0
 17 18  1  0
 18 19  2  0
 13 20  1  0
 20 21  2  0
  8 22  1  0
 22 23  2  0
 23  5  1  0
 21 10  1  0
 19 14  1  0
  1 24  1  0
  1 25  1  0
  1 26  1  0
  6 27  1  0
  7 28  1  0
 11 29  1  0
 12 30  1  0
 15 31  1  0
 16 32  1  0
 17 33  1  0
 18 34  1  0
 19 35  1  0
 20 36  1  0
 21 37  1  0
 22 38  1  0
 23 39  1  0
M  END
>  <UniqueID>  (59) 
55

>  <SMILES>  (59) 
CS(=O)(=O)c1ccc(Oc2ccc(-c3ccccc3)cc2)cc1

>  <Energy>  (59) 
50.76961564581005

>  <Genealogy>  (59) 
CS(=O)(=O)c1ccc(Oc2ccc(-c3ccccc3)cc2)cc1 (3D coordinates assigned)
CS(=O)(=O)c1ccc(Oc2ccc(-c3ccccc3)cc2)cc1 (optimized conformer: 50.76961564581005 kcal/mol)

>  <smiles>  (59) 
CS(=O)(=O)c1ccc(Oc2ccc(-c3ccccc3)cc2)cc1

>  <score_type>  (59) 
oracle

>  <origin>  (59) 
adg

>  <m_score__min__energy>  (59) 
-8.4600000000000009

>  <m_primary>  (59) 
energy

$$$$
59:0
     RDKit          3D

 36 37  0  0  0  0  0  0  0  0999 V2000
   59.6120   35.3560   45.9700 C   0  0  0  0  0  0  0  0  0  0  0  0
   58.8570   34.1730   45.4550 C   0  0  0  0  0  0  0  0  0  0  0  0
   58.0370   33.4220   46.3060 C   0  0  0  0  0  0  0  0  0  0  0  0
   57.3510   32.3600   45.8070 N   0  0  0  0  0  0  0  0  0  0  0  0
   57.4340   32.0130   44.4940 C   0  0  0  0  0  0  0  0  0  0  0  0
   56.6930   30.8380   44.0080 C   0  0  0  0  0  0  0  0  0  0  0  0
   56.5030   30.6720   42.7710 O   0  0  0  0  0  0  0  0  0  0  0  0
   56.2110   29.9010   44.9290 O   0  0  0  0  0  0  0  0  0  0  0  0
   56.7180   28.5720   45.0320 C   0  0  0  0  0  0  0  0  0  0  0  0
   57.9460   28.5750   45.8870 C   0  0  0  0  0  0  0  0  0  0  0  0
   58.5830   27.5010   46.0590 O   0  0  0  0  0  0  0  0  0  0  0  0
   58.3360   29.7660   46.5830 N   0  0  0  0  0  0  0  0  0  0  0  0
   59.0250   29.7100   47.8690 C   0  0  0  0  0  0  0  0  0  0  0  0
   60.1190   30.7430   47.9010 C   0  0  0  0  0  0  0  0  0  0  0  0
   59.9070   31.9830   48.5250 C   0  0  0  0  0  0  0  0  0  0  0  0
   60.9020   32.9650   48.4980 C   0  0  0  0  0  0  0  0  0  0  0  0
   62.1140   32.7170   47.8460 C   0  0  0  0  0  0  0  0  0  0  0  0
   63.3640   33.9470   47.8190 Cl  0  0  0  0  0  0  0  0  0  0  0  0
   62.3260   31.4880   47.2120 C   0  0  0  0  0  0  0  0  0  0  0  0
   61.3310   30.5070   47.2340 C   0  0  0  0  0  0  0  0  0  0  0  0
   58.2470   32.7740   43.6410 C   0  0  0  0  0  0  0  0  0  0  0  0
   58.9330   33.8350   44.1410 N   0  0  0  0  0  0  0  0  0  0  0  0
   59.6050   35.3450   47.0699 H   0  0  0  0  0  0  0  0  0  0  0  0
   60.6504   35.3136   45.6095 H   0  0  0  0  0  0  0  0  0  0  0  0
   59.1362   36.2799   45.6095 H   0  0  0  0  0  0  0  0  0  0  0  0
   57.9487   33.6892   47.3694 H   0  0  0  0  0  0  0  0  0  0  0  0
   55.9556   27.9223   45.4865 H   0  0  0  0  0  0  0  0  0  0  0  0
   56.9684   28.1949   44.0295 H   0  0  0  0  0  0  0  0  0  0  0  0
   57.9430   30.6840   46.2760 H   0  0  0  0  0  0  0  0  0  0  0  0
   58.3073   29.9116   48.6779 H   0  0  0  0  0  0  0  0  0  0  0  0
   59.4626   28.7101   48.0057 H   0  0  0  0  0  0  0  0  0  0  0  0
   58.9542   32.1826   49.0372 H   0  0  0  0  0  0  0  0  0  0  0  0
   60.7312   33.9338   48.9902 H   0  0  0  0  0  0  0  0  0  0  0  0
   63.2775   31.2936   46.6954 H   0  0  0  0  0  0  0  0  0  0  0  0
   61.4985   29.5456   46.7263 H   0  0  0  0  0  0  0  0  0  0  0  0
   58.3286   32.5138   42.5753 H   0  0  0  0  0  0  0  0  0  0  0  0
  1  2  1  0
  2  3  2  0
  3  4  1  0
  4  5  2  0
  5  6  1  0
  6  7  2  0
  6  8  1  0
  8  9  1  0
  9 10  1  0
 10 11  2  0
 10 12  1  0
 12 13  1  0
 13 14  1  0
 14 15  2  0
 15 16  1  0
 16 17  2  0
 17 18  1  0
 17 19  1  0
 19 20  2  0
  5 21  1  0
 21 22  2  0
 22  2  1  0
 20 14  1  0
  1 23  1  0
  1 24  1  0
  1 25  1  0
  3 26  1  0
  9 27  1  0
  9 28  1  0
 12 29  1  0
 13 30  1  0
 13 31  1  0
 15 32  1  0
 16 33  1  0
 19 34  1  0
 20 35  1  0
 21 36  1  0
M  END
>  <UniqueID>  (60) 
56

>  <SMILES>  (60) 
Cc1cnc(C(=O)OCC(=O)NCc2ccc(Cl)cc2)cn1

>  <Energy>  (60) 
28.048232811745613

>  <Genealogy>  (60) 
Cc1cnc(C(=O)OCC(=O)NCc2ccc(Cl)cc2)cn1 (3D coordinates assigned)
Cc1cnc(C(=O)OCC(=O)NCc2ccc(Cl)cc2)cn1 (optimized conformer: 28.048232811745613 kcal/mol)

>  <smiles>  (60) 
Cc1cnc(C(=O)OCC(=O)NCc2ccc(Cl)cc2)cn1

>  <score_type>  (60) 
oracle

>  <origin>  (60) 
adg

>  <m_score__min__energy>  (60) 
-6.9299999999999997

>  <m_primary>  (60) 
energy

$$$$
60:0
     RDKit          3D

 39 41  0  0  0  0  0  0  0  0999 V2000
   57.5705   20.5597   46.9916 H   0  0  0  0  0  0  0  0  0  0  0  0
   57.3290   21.2140   46.1410 C   0  0  0  0  0  0  0  0  0  0  0  0
   57.1510   20.6670   44.8700 C   0  0  0  0  0  0  0  0  0  0  0  0
   57.2367   19.5804   44.7218 H   0  0  0  0  0  0  0  0  0  0  0  0
   56.8640   21.4990   43.7860 C   0  0  0  0  0  0  0  0  0  0  0  0
   56.7283   21.0627   42.7854 H   0  0  0  0  0  0  0  0  0  0  0  0
   56.7470   22.8870   43.9610 C   0  0  0  0  0  0  0  0  0  0  0  0
   56.5540   23.7130   42.8050 N   0  0  0  0  0  0  0  0  0  0  0  0
   56.6240   23.3300   41.8370 H   0  0  0  0  0  0  0  0  0  0  0  0
   56.2020   24.6910   42.9070 H   0  0  0  0  0  0  0  0  0  0  0  0
   56.8890   23.4400   45.2590 C   0  0  0  0  0  0  0  0  0  0  0  0
   56.6830   24.8770   45.5390 C   0  0  0  0  0  0  0  0  0  0  0  0
   55.5030   25.3860   45.9660 N   0  0  0  0  0  0  0  0  0  0  0  0
   55.5020   26.7150   46.0640 N   0  0  0  0  0  0  0  0  0  0  0  0
   56.6790   27.2700   45.7040 C   0  0  0  0  0  0  0  0  0  0  0  0
   56.9110   28.5470   45.6690 N   0  0  0  0  0  0  0  0  0  0  0  0
   56.9560   29.3760   44.4940 C   0  0  0  0  0  0  0  0  0  0  0  0
   56.9100   30.6730   44.5960 N   0  0  0  0  0  0  0  0  0  0  0  0
   57.7690   31.4940   45.4030 C   0  0  0  0  0  0  0  0  0  0  0  0
   57.5640   32.7370   45.4320 O   0  0  0  0  0  0  0  0  0  0  0  0
   58.7820   30.9160   46.2420 N   0  0  0  0  0  0  0  0  0  0  0  0
   58.6040   29.9610   46.6280 H   0  0  0  0  0  0  0  0  0  0  0  0
   59.9540   31.6210   46.6850 C   0  0  0  0  0  0  0  0  0  0  0  0
   60.0300   33.0260   46.6300 C   0  0  0  0  0  0  0  0  0  0  0  0
   59.1720   33.6069   46.2607 H   0  0  0  0  0  0  0  0  0  0  0  0
   61.1920   33.6860   47.0430 C   0  0  0  0  0  0  0  0  0  0  0  0
   61.2425   34.7842   47.0052 H   0  0  0  0  0  0  0  0  0  0  0  0
   62.2900   32.9520   47.5040 C   0  0  0  0  0  0  0  0  0  0  0  0
   63.7470   33.7830   48.0210 Cl  0  0  0  0  0  0  0  0  0  0  0  0
   62.2280   31.5570   47.5450 C   0  0  0  0  0  0  0  0  0  0  0  0
   63.0927   30.9791   47.9034 H   0  0  0  0  0  0  0  0  0  0  0  0
   61.0680   30.8940   47.1310 C   0  0  0  0  0  0  0  0  0  0  0  0
   61.0289   29.7950   47.1553 H   0  0  0  0  0  0  0  0  0  0  0  0
   57.0320   28.7960   43.1880 N   0  0  0  0  0  0  0  0  0  0  0  0
   56.8510   27.7800   43.0350 H   0  0  0  0  0  0  0  0  0  0  0  0
   57.1500   29.4050   42.3500 H   0  0  0  0  0  0  0  0  0  0  0  0
   57.7910   26.1110   45.2110 S   0  0  0  0  0  0  0  0  0  0  0  0
   57.2010   22.5910   46.3350 C   0  0  0  0  0  0  0  0  0  0  0  0
   57.3457   23.0154   47.3395 H   0  0  0  0  0  0  0  0  0  0  0  0
  1  2  1  0
  2  3  2  0
  3  4  1  0
  3  5  1  0
  5  6  1  0
  5  7  2  0
  7  8  1  0
  8  9  1  0
  8 10  1  0
  7 11  1  0
 11 12  1  0
 12 13  2  0
 13 14  1  0
 14 15  1  0
 15 16  2  0
 16 17  1  0
 17 18  2  0
 18 19  1  0
 19 20  2  0
 19 21  1  0
 21 22  1  0
 21 23  1  0
 23 24  2  0
 24 25  1  0
 24 26  1  0
 26 27  1  0
 26 28  2  0
 28 29  1  0
 28 30  1  0
 30 31  1  0
 30 32  2  0
 32 33  1  0
 17 34  1  0
 34 35  1  0
 34 36  1  0
 15 37  1  0
 11 38  2  0
 38 39  1  0
 38  2  1  0
 37 12  1  0
 32 23  1  0
M  CHG  1  14  -1
M  END
>  <UniqueID>  (61) 
57

>  <SMILES>  (61) 
N/C(N=c1[n-]nc(-c2ccccc2N)s1)=N/C(=O)Nc1ccc(Cl)cc1

>  <Energy>  (61) 
91.86621783510438

>  <Genealogy>  (61) 
NC(=NC(=O)Nc1ccc(Cl)cc1)N=c1[n-]nc(-c2ccccc2N)s1 (protonated)
N/C(N=c1[n-]nc(-c2ccccc2N)s1)=N/C(=O)Nc1ccc(Cl)cc1 (cis-trans isomerization)
N/C(N=c1[n-]nc(-c2ccccc2N)s1)=N/C(=O)Nc1ccc(Cl)cc1 (3D coordinates assigned)
N/C(N=c1[n-]nc(-c2ccccc2N)s1)=N/C(=O)Nc1ccc(Cl)cc1 (optimized conformer: 91.86621783510438 kcal/mol)

>  <smiles>  (61) 
NC(=NC(=O)Nc1ccc(Cl)cc1)N=c1[nH]nc(-c2ccccc2N)s1

>  <score_type>  (61) 
oracle

>  <origin>  (61) 
adg

>  <m_score__min__energy>  (61) 
-10.81

>  <m_primary>  (61) 
energy

$$$$
61:0
     RDKit          3D

 53 56  0  0  0  0  0  0  0  0999 V2000
   56.1170   29.9280   43.6500 C   0  0  0  0  0  0  0  0  0  0  0  0
   56.5000   30.5730   44.8600 O   0  0  0  0  0  0  0  0  0  0  0  0
   57.2660   31.7470   44.9260 C   0  0  0  0  0  0  0  0  0  0  0  0
   57.7650   32.2840   43.7340 C   0  0  0  0  0  0  0  0  0  0  0  0
   58.5350   33.4480   43.7490 C   0  0  0  0  0  0  0  0  0  0  0  0
   58.8230   34.0840   44.9590 C   0  0  0  0  0  0  0  0  0  0  0  0
   58.3380   33.5580   46.1660 C   0  0  0  0  0  0  0  0  0  0  0  0
   58.6900   34.2060   47.4810 C   0  0  0  0  0  0  0  0  0  0  0  0
   59.7840   33.4760   48.1220 N   0  0  0  0  0  0  0  0  0  0  0  0
   59.6550   32.5940   49.1430 C   0  0  0  0  0  0  0  0  0  0  0  0
   60.8660   31.9620   49.3820 C   0  0  0  0  0  0  0  0  0  0  0  0
   61.1700   30.6620   50.5790 S   0  0  0  0  0  0  0  0  0  0  0  0
   59.5270   29.8880   50.3830 C   0  0  0  0  0  0  0  0  0  0  0  0
   59.4640   29.0520   49.1360 C   0  0  0  0  0  0  0  0  0  0  0  0
   60.2190   28.0510   49.0310 O   0  0  0  0  0  0  0  0  0  0  0  0
   58.5250   29.3210   48.0870 N   0  0  0  0  0  0  0  0  0  0  0  0
   58.6430   28.8420   46.7420 C   0  0  0  0  0  0  0  0  0  0  0  0
   57.7260   27.8820   46.2920 C   0  0  0  0  0  0  0  0  0  0  0  0
   57.8050   27.3830   44.9900 C   0  0  0  0  0  0  0  0  0  0  0  0
   58.8120   27.8270   44.1330 C   0  0  0  0  0  0  0  0  0  0  0  0
   59.7510   28.7610   44.5800 C   0  0  0  0  0  0  0  0  0  0  0  0
   59.6930   29.2620   45.8910 C   0  0  0  0  0  0  0  0  0  0  0  0
   60.7580   30.2270   46.3400 C   0  0  0  0  0  0  0  0  0  0  0  0
   61.7590   32.4850   48.4720 C   0  0  0  0  0  0  0  0  0  0  0  0
   63.1000   32.1900   48.2320 C   0  0  0  0  0  0  0  0  0  0  0  0
   63.7430   32.8670   47.1800 C   0  0  0  0  0  0  0  0  0  0  0  0
   63.0400   33.8120   46.4020 C   0  0  0  0  0  0  0  0  0  0  0  0
   61.6850   34.0860   46.6650 C   0  0  0  0  0  0  0  0  0  0  0  0
   61.0700   33.4010   47.7170 C   0  0  0  0  0  0  0  0  0  0  0  0
   57.5500   32.3950   46.1450 C   0  0  0  0  0  0  0  0  0  0  0  0
   55.5683   29.0040   43.8848 H   0  0  0  0  0  0  0  0  0  0  0  0
   55.4711   30.5994   43.0651 H   0  0  0  0  0  0  0  0  0  0  0  0
   57.0156   29.6823   43.0651 H   0  0  0  0  0  0  0  0  0  0  0  0
   57.5487   31.7849   42.7779 H   0  0  0  0  0  0  0  0  0  0  0  0
   58.9161   33.8657   42.8055 H   0  0  0  0  0  0  0  0  0  0  0  0
   59.4319   35.0001   44.9655 H   0  0  0  0  0  0  0  0  0  0  0  0
   59.0012   35.2459   47.3028 H   0  0  0  0  0  0  0  0  0  0  0  0
   57.8092   34.1876   48.1396 H   0  0  0  0  0  0  0  0  0  0  0  0
   58.7255   32.4068   49.7006 H   0  0  0  0  0  0  0  0  0  0  0  0
   59.3260   29.2476   51.2545 H   0  0  0  0  0  0  0  0  0  0  0  0
   58.7738   30.6859   50.3052 H   0  0  0  0  0  0  0  0  0  0  0  0
   56.9387   27.5192   46.9691 H   0  0  0  0  0  0  0  0  0  0  0  0
   57.0732   26.6399   44.6404 H   0  0  0  0  0  0  0  0  0  0  0  0
   58.8673   27.4417   43.1042 H   0  0  0  0  0  0  0  0  0  0  0  0
   60.5426   29.1068   43.8989 H   0  0  0  0  0  0  0  0  0  0  0  0
   60.7882   30.2543   47.4392 H   0  0  0  0  0  0  0  0  0  0  0  0
   61.7350   29.9003   45.9544 H   0  0  0  0  0  0  0  0  0  0  0  0
   60.5289   31.2314   45.9544 H   0  0  0  0  0  0  0  0  0  0  0  0
   63.6378   31.4519   48.8452 H   0  0  0  0  0  0  0  0  0  0  0  0
   64.8009   32.6586   46.9621 H   0  0  0  0  0  0  0  0  0  0  0  0
   63.5549   34.3379   45.5845 H   0  0  0  0  0  0  0  0  0  0  0  0
   61.1269   34.8168   46.0613 H   0  0  0  0  0  0  0  0  0  0  0  0
   57.1521   31.9875   47.0861 H   0  0  0  0  0  0  0  0  0  0  0  0
  1  2  1  0
  2  3  1  0
  3  4  2  0
  4  5  1  0
  5  6  2  0
  6  7  1  0
  7  8  1  0
  8  9  1  0
  9 10  1  0
 10 11  2  0
 11 12  1  0
 12 13  1  0
 13 14  1  0
 14 15  2  0
 14 16  1  0
 16 17  1  0
 17 18  2  0
 18 19  1  0
 19 20  2  0
 20 21  1  0
 21 22  2  0
 22 23  1  0
 11 24  1  0
 24 25  2  0
 25 26  1  0
 26 27  2  0
 27 28  1  0
 28 29  2  0
  7 30  2  0
 30  3  1  0
 29  9  1  0
 22 17  1  0
 29 24  1  0
  1 31  1  0
  1 32  1  0
  1 33  1  0
  4 34  1  0
  5 35  1  0
  6 36  1  0
  8 37  1  0
  8 38  1  0
 10 39  1  0
 13 40  1  0
 13 41  1  0
 18 42  1  0
 19 43  1  0
 20 44  1  0
 21 45  1  0
 23 46  1  0
 23 47  1  0
 23 48  1  0
 25 49  1  0
 26 50  1  0
 27 51  1  0
 28 52  1  0
 30 53  1  0
M  CHG  1  16  -1
M  END
>  <UniqueID>  (62) 
58

>  <SMILES>  (62) 
COc1cccc(Cn2cc(SCC(=O)[N-]c3ccccc3C)c3ccccc32)c1

>  <Energy>  (62) 
89.91375781066914

>  <Genealogy>  (62) 
COc1cccc(Cn2cc(SCC(=O)[N-]c3ccccc3C)c3ccccc32)c1 (protonated)
COc1cccc(Cn2cc(SCC(=O)[N-]c3ccccc3C)c3ccccc32)c1 (3D coordinates assigned)
COc1cccc(Cn2cc(SCC(=O)[N-]c3ccccc3C)c3ccccc32)c1 (optimized conformer: 89.91375781066914 kcal/mol)

>  <smiles>  (62) 
COc1cccc(Cn2cc(SCC(=O)Nc3ccccc3C)c3ccccc32)c1

>  <score_type>  (62) 
oracle

>  <origin>  (62) 
adg

>  <m_score__min__energy>  (62) 
-11.02

>  <m_primary>  (62) 
energy

$$$$
62:0
     RDKit          3D

 34 36  0  0  0  0  0  0  0  0999 V2000
   58.9340   35.4780   44.5720 O   0  0  0  0  0  0  0  0  0  0  0  0
   59.1450   34.4090   45.2040 C   0  0  0  0  0  0  0  0  0  0  0  0
   60.2240   34.3860   46.1150 C   0  0  0  0  0  0  0  0  0  0  0  0
   60.5790   33.2710   46.8830 C   0  0  0  0  0  0  0  0  0  0  0  0
   61.7340   33.2920   47.8020 C   0  0  0  0  0  0  0  0  0  0  0  0
   63.0280   33.1630   47.2690 C   0  0  0  0  0  0  0  0  0  0  0  0
   64.1460   33.1920   48.1070 C   0  0  0  0  0  0  0  0  0  0  0  0
   63.9830   33.3450   49.4850 C   0  0  0  0  0  0  0  0  0  0  0  0
   62.7030   33.4590   50.0290 C   0  0  0  0  0  0  0  0  0  0  0  0
   61.5750   33.4300   49.1990 C   0  0  0  0  0  0  0  0  0  0  0  0
   59.8460   33.5030   50.0310 Br  0  0  0  0  0  0  0  0  0  0  0  0
   59.6670   31.8610   46.6830 S   0  0  0  0  0  0  0  0  0  0  0  0
   58.4080   32.0630   45.5670 C   0  0  0  0  0  0  0  0  0  0  0  0
   57.5090   30.9820   45.2570 N   0  0  0  0  0  0  0  0  0  0  0  0
   57.5660   29.7420   46.0360 C   0  0  0  0  0  0  0  0  0  0  0  0
   57.0210   28.5800   45.2000 C   0  0  0  0  0  0  0  0  0  0  0  0
   55.7420   28.8890   44.6810 O   0  0  0  0  0  0  0  0  0  0  0  0
   55.8440   29.9670   43.7700 C   0  0  0  0  0  0  0  0  0  0  0  0
   56.2880   31.2450   44.4890 C   0  0  0  0  0  0  0  0  0  0  0  0
   58.2890   33.3140   44.9500 C   0  0  0  0  0  0  0  0  0  0  0  0
   60.8229   35.3017   46.2280 H   0  0  0  0  0  0  0  0  0  0  0  0
   63.1618   33.0383   46.1843 H   0  0  0  0  0  0  0  0  0  0  0  0
   65.1552   33.0942   47.6805 H   0  0  0  0  0  0  0  0  0  0  0  0
   64.8643   33.3757   50.1426 H   0  0  0  0  0  0  0  0  0  0  0  0
   62.5791   33.5723   51.1161 H   0  0  0  0  0  0  0  0  0  0  0  0
   58.6094   29.5335   46.3151 H   0  0  0  0  0  0  0  0  0  0  0  0
   56.9554   29.8545   46.9440 H   0  0  0  0  0  0  0  0  0  0  0  0
   57.7101   28.3820   44.3658 H   0  0  0  0  0  0  0  0  0  0  0  0
   56.9341   27.6931   45.8448 H   0  0  0  0  0  0  0  0  0  0  0  0
   56.5814   29.7149   42.9937 H   0  0  0  0  0  0  0  0  0  0  0  0
   54.8568   30.1413   43.3172 H   0  0  0  0  0  0  0  0  0  0  0  0
   56.4856   32.0322   43.7466 H   0  0  0  0  0  0  0  0  0  0  0  0
   55.4915   31.5733   45.1729 H   0  0  0  0  0  0  0  0  0  0  0  0
   57.4772   33.4534   44.2209 H   0  0  0  0  0  0  0  0  0  0  0  0
  1  2  2  0
  2  3  1  0
  3  4  2  0
  4  5  1  0
  5  6  2  0
  6  7  1  0
  7  8  2  0
  8  9  1  0
  9 10  2  0
 10 11  1  0
  4 12  1  0
 12 13  1  0
 13 14  1  0
 14 15  1  0
 15 16  1  0
 16 17  1  0
 17 18  1  0
 18 19  1  0
 13 20  2  0
 20  2  1  0
 10  5  1  0
 19 14  1  0
  3 21  1  0
  6 22  1  0
  7 23  1  0
  8 24  1  0
  9 25  1  0
 15 26  1  0
 15 27  1  0
 16 28  1  0
 16 29  1  0
 18 30  1  0
 18 31  1  0
 19 32  1  0
 19 33  1  0
 20 34  1  0
M  END
>  <UniqueID>  (63) 
59

>  <SMILES>  (63) 
O=c1cc(-c2ccccc2Br)sc(N2CCOCC2)c1

>  <Energy>  (63) 
49.66724052861101

>  <Genealogy>  (63) 
O=c1cc(-c2ccccc2Br)sc(N2CCOCC2)c1 (3D coordinates assigned)
O=c1cc(-c2ccccc2Br)sc(N2CCOCC2)c1 (nonaromatic ring conformer: 49.66724052861101 kcal/mol)

>  <smiles>  (63) 
O=c1cc(-c2ccccc2Br)sc(N2CCOCC2)c1

>  <score_type>  (63) 
oracle

>  <origin>  (63) 
adg

>  <m_score__min__energy>  (63) 
-7.4900000000000002

>  <m_primary>  (63) 
energy

$$$$
63:0
     RDKit          3D

 32 34  0  0  0  0  0  0  0  0999 V2000
   63.0490   31.6640   47.5240 C   0  0  0  0  0  0  0  0  0  0  0  0
   63.4250   32.9210   47.0460 C   0  0  0  0  0  0  0  0  0  0  0  0
   62.4500   33.8810   46.7520 C   0  0  0  0  0  0  0  0  0  0  0  0
   61.0840   33.5890   46.9480 C   0  0  0  0  0  0  0  0  0  0  0  0
   60.0550   34.5090   46.6870 O   0  0  0  0  0  0  0  0  0  0  0  0
   59.4280   34.7550   45.4270 C   0  0  0  0  0  0  0  0  0  0  0  0
   58.8700   33.4650   44.8210 C   0  0  0  0  0  0  0  0  0  0  0  0
   57.0810   33.2670   45.1500 S   0  0  0  0  0  0  0  0  0  0  0  0
   57.0020   31.5530   44.6400 C   0  0  0  0  0  0  0  0  0  0  0  0
   56.8930   31.1500   43.3600 N   0  0  0  0  0  0  0  0  0  0  0  0
   56.8630   29.8270   43.3910 N   0  0  0  0  0  0  0  0  0  0  0  0
   56.9540   29.4790   44.6890 C   0  0  0  0  0  0  0  0  0  0  0  0
   56.9610   28.1000   45.1800 C   0  0  0  0  0  0  0  0  0  0  0  0
   58.0590   27.2680   45.2540 C   0  0  0  0  0  0  0  0  0  0  0  0
   57.5900   26.0810   45.7750 C   0  0  0  0  0  0  0  0  0  0  0  0
   56.2370   26.2630   45.9840 C   0  0  0  0  0  0  0  0  0  0  0  0
   55.8930   27.4760   45.6200 O   0  0  0  0  0  0  0  0  0  0  0  0
   57.0380   30.5340   45.4620 O   0  0  0  0  0  0  0  0  0  0  0  0
   60.7220   32.3210   47.4220 C   0  0  0  0  0  0  0  0  0  0  0  0
   61.6990   31.3620   47.7090 C   0  0  0  0  0  0  0  0  0  0  0  0
   63.8173   30.9114   47.7549 H   0  0  0  0  0  0  0  0  0  0  0  0
   64.4894   33.1571   46.9003 H   0  0  0  0  0  0  0  0  0  0  0  0
   62.7500   34.8667   46.3667 H   0  0  0  0  0  0  0  0  0  0  0  0
   58.6037   35.4691   45.5705 H   0  0  0  0  0  0  0  0  0  0  0  0
   60.1821   35.1637   44.7384 H   0  0  0  0  0  0  0  0  0  0  0  0
   59.0303   33.4861   43.7329 H   0  0  0  0  0  0  0  0  0  0  0  0
   59.3955   32.6177   45.2857 H   0  0  0  0  0  0  0  0  0  0  0  0
   59.0924   27.5027   44.9590 H   0  0  0  0  0  0  0  0  0  0  0  0
   58.1749   25.1728   45.9823 H   0  0  0  0  0  0  0  0  0  0  0  0
   55.5518   25.5061   46.3934 H   0  0  0  0  0  0  0  0  0  0  0  0
   59.6595   32.0775   47.5698 H   0  0  0  0  0  0  0  0  0  0  0  0
   61.4033   30.3698   48.0805 H   0  0  0  0  0  0  0  0  0  0  0  0
  1  2  2  0
  2  3  1  0
  3  4  2  0
  4  5  1  0
  5  6  1  0
  6  7  1  0
  7  8  1  0
  8  9  1  0
  9 10  2  0
 10 11  1  0
 11 12  2  0
 12 13  1  0
 13 14  2  0
 14 15  1  0
 15 16  2  0
 16 17  1  0
 12 18  1  0
  4 19  1  0
 19 20  2  0
 20  1  1  0
 18  9  1  0
 17 13  1  0
  1 21  1  0
  2 22  1  0
  3 23  1  0
  6 24  1  0
  6 25  1  0
  7 26  1  0
  7 27  1  0
 14 28  1  0
 15 29  1  0
 16 30  1  0
 19 31  1  0
 20 32  1  0
M  END
>  <UniqueID>  (64) 
60

>  <SMILES>  (64) 
c1ccc(OCCSc2nnc(-c3ccco3)o2)cc1

>  <Energy>  (64) 
89.9535611621086

>  <Genealogy>  (64) 
c1ccc(OCCSc2nnc(-c3ccco3)o2)cc1 (3D coordinates assigned)
c1ccc(OCCSc2nnc(-c3ccco3)o2)cc1 (optimized conformer: 89.9535611621086 kcal/mol)

>  <smiles>  (64) 
c1ccc(OCCSc2nnc(-c3ccco3)o2)cc1

>  <score_type>  (64) 
oracle

>  <origin>  (64) 
adg

>  <m_score__min__energy>  (64) 
-7.0300000000000002

>  <m_primary>  (64) 
energy

$$$$
64:0
     RDKit          3D

 44 46  0  0  0  0  0  0  0  0999 V2000
   60.3720   34.5950   48.7080 C   0  0  0  0  0  0  0  0  0  0  0  0
   59.4870   34.0910   47.6080 C   0  0  0  0  0  0  0  0  0  0  0  0
   59.5280   34.6940   46.3430 C   0  0  0  0  0  0  0  0  0  0  0  0
   58.7270   34.2100   45.3040 C   0  0  0  0  0  0  0  0  0  0  0  0
   57.8660   33.1200   45.5220 C   0  0  0  0  0  0  0  0  0  0  0  0
   57.0320   32.5940   44.4790 N   0  0  0  0  0  0  0  0  0  0  0  0
   57.3450   31.4870   43.6210 C   0  0  0  0  0  0  0  0  0  0  0  0
   57.2560   31.6460   42.3740 O   0  0  0  0  0  0  0  0  0  0  0  0
   57.8120   30.1870   44.1540 C   0  0  0  0  0  0  0  0  0  0  0  0
   59.0670   30.0620   44.7680 C   0  0  0  0  0  0  0  0  0  0  0  0
   59.4760   28.8330   45.2840 C   0  0  0  0  0  0  0  0  0  0  0  0
   58.6290   27.7290   45.1750 C   0  0  0  0  0  0  0  0  0  0  0  0
   59.1200   26.1480   45.8700 S   0  0  0  0  0  0  0  0  0  0  0  0
   57.5630   25.8900   46.7960 C   0  0  0  0  0  0  0  0  0  0  0  0
   56.4630   25.3910   45.8990 C   0  0  0  0  0  0  0  0  0  0  0  0
   55.3740   26.0290   45.8860 O   0  0  0  0  0  0  0  0  0  0  0  0
   56.6230   24.2030   45.0140 C   0  0  0  0  0  0  0  0  0  0  0  0
   55.9210   24.0880   43.7970 C   0  0  0  0  0  0  0  0  0  0  0  0
   56.0810   22.9570   42.9890 C   0  0  0  0  0  0  0  0  0  0  0  0
   56.9380   21.9290   43.3820 C   0  0  0  0  0  0  0  0  0  0  0  0
   57.6410   22.0290   44.5840 C   0  0  0  0  0  0  0  0  0  0  0  0
   57.4870   23.1570   45.3950 C   0  0  0  0  0  0  0  0  0  0  0  0
   57.4260   27.8510   44.5470 N   0  0  0  0  0  0  0  0  0  0  0  0
   57.0080   29.0410   44.0380 C   0  0  0  0  0  0  0  0  0  0  0  0
   57.8570   32.4940   46.7740 C   0  0  0  0  0  0  0  0  0  0  0  0
   58.6610   32.9750   47.8130 C   0  0  0  0  0  0  0  0  0  0  0  0
   59.9272   34.3417   49.6816 H   0  0  0  0  0  0  0  0  0  0  0  0
   61.3636   34.1261   48.6248 H   0  0  0  0  0  0  0  0  0  0  0  0
   60.4746   35.6870   48.6248 H   0  0  0  0  0  0  0  0  0  0  0  0
   60.1935   35.5520   46.1669 H   0  0  0  0  0  0  0  0  0  0  0  0
   58.7707   34.6839   44.3123 H   0  0  0  0  0  0  0  0  0  0  0  0
   59.7305   30.9362   44.8426 H   0  0  0  0  0  0  0  0  0  0  0  0
   60.4567   28.7344   45.7723 H   0  0  0  0  0  0  0  0  0  0  0  0
   57.7386   25.1505   47.5912 H   0  0  0  0  0  0  0  0  0  0  0  0
   57.2504   26.8555   47.2204 H   0  0  0  0  0  0  0  0  0  0  0  0
   55.2423   24.8936   43.4802 H   0  0  0  0  0  0  0  0  0  0  0  0
   55.5291   22.8782   42.0407 H   0  0  0  0  0  0  0  0  0  0  0  0
   57.0598   21.0403   42.7454 H   0  0  0  0  0  0  0  0  0  0  0  0
   58.3174   21.2186   44.8934 H   0  0  0  0  0  0  0  0  0  0  0  0
   58.0457   23.2289   46.3398 H   0  0  0  0  0  0  0  0  0  0  0  0
   56.8020   27.0180   44.4610 H   0  0  0  0  0  0  0  0  0  0  0  0
   56.0335   29.1065   43.5320 H   0  0  0  0  0  0  0  0  0  0  0  0
   57.2134   31.6179   46.9421 H   0  0  0  0  0  0  0  0  0  0  0  0
   58.6457   32.4769   48.7937 H   0  0  0  0  0  0  0  0  0  0  0  0
  1  2  1  0
  2  3  2  0
  3  4  1  0
  4  5  2  0
  5  6  1  0
  6  7  1  0
  7  8  2  0
  7  9  1  0
  9 10  2  0
 10 11  1  0
 11 12  2  0
 12 13  1  0
 13 14  1  0
 14 15  1  0
 15 16  2  0
 15 17  1  0
 17 18  2  0
 18 19  1  0
 19 20  2  0
 20 21  1  0
 21 22  2  0
 12 23  1  0
 23 24  2  0
  5 25  1  0
 25 26  2  0
 26  2  1  0
 24  9  1  0
 22 17  1  0
  1 27  1  0
  1 28  1  0
  1 29  1  0
  3 30  1  0
  4 31  1  0
 10 32  1  0
 11 33  1  0
 14 34  1  0
 14 35  1  0
 18 36  1  0
 19 37  1  0
 20 38  1  0
 21 39  1  0
 22 40  1  0
 23 41  1  0
 24 42  1  0
 25 43  1  0
 26 44  1  0
M  CHG  2   6  -1  23   1
M  END
>  <UniqueID>  (65) 
61

>  <SMILES>  (65) 
Cc1ccc([N-]C(=O)c2ccc(SCC(=O)c3ccccc3)[nH+]c2)cc1

>  <Energy>  (65) 
49.24954117941852

>  <Genealogy>  (65) 
Cc1ccc([N-]C(=O)c2ccc(SCC(=O)c3ccccc3)[nH+]c2)cc1 (protonated)
Cc1ccc([N-]C(=O)c2ccc(SCC(=O)c3ccccc3)[nH+]c2)cc1 (3D coordinates assigned)
Cc1ccc([N-]C(=O)c2ccc(SCC(=O)c3ccccc3)[nH+]c2)cc1 (optimized conformer: 49.24954117941852 kcal/mol)

>  <smiles>  (65) 
Cc1ccc(NC(=O)c2ccc(SCC(=O)c3ccccc3)nc2)cc1

>  <score_type>  (65) 
oracle

>  <origin>  (65) 
adg

>  <m_score__min__energy>  (65) 
-8.2400000000000002

>  <m_primary>  (65) 
energy

$$$$
65:0
     RDKit          3D

 34 36  0  0  0  0  0  0  0  0999 V2000
   55.5500   26.3360   45.9920 O   0  0  0  0  0  0  0  0  0  0  0  0
   56.7710   26.6010   45.8160 C   0  0  0  0  0  0  0  0  0  0  0  0
   57.6940   25.5700   45.5850 O   0  0  0  0  0  0  0  0  0  0  0  0
   57.4550   24.4230   44.8120 C   0  0  0  0  0  0  0  0  0  0  0  0
   56.5390   24.4120   43.7410 C   0  0  0  0  0  0  0  0  0  0  0  0
   56.3280   23.2390   43.0090 C   0  0  0  0  0  0  0  0  0  0  0  0
   57.0170   22.0700   43.3430 C   0  0  0  0  0  0  0  0  0  0  0  0
   57.9120   22.0700   44.4150 C   0  0  0  0  0  0  0  0  0  0  0  0
   58.1250   23.2400   45.1510 C   0  0  0  0  0  0  0  0  0  0  0  0
   57.2260   28.0080   45.7950 C   0  0  0  0  0  0  0  0  0  0  0  0
   58.3230   28.4160   46.5670 C   0  0  0  0  0  0  0  0  0  0  0  0
   58.7460   29.7460   46.5430 C   0  0  0  0  0  0  0  0  0  0  0  0
   58.0630   30.6780   45.7440 C   0  0  0  0  0  0  0  0  0  0  0  0
   58.4760   32.1050   45.6800 C   0  0  0  0  0  0  0  0  0  0  0  0
   57.7060   33.0230   44.9410 C   0  0  0  0  0  0  0  0  0  0  0  0
   58.0770   34.3690   44.8760 C   0  0  0  0  0  0  0  0  0  0  0  0
   59.2130   34.8170   45.5510 C   0  0  0  0  0  0  0  0  0  0  0  0
   59.9800   33.9200   46.2970 C   0  0  0  0  0  0  0  0  0  0  0  0
   59.6140   32.5720   46.3660 C   0  0  0  0  0  0  0  0  0  0  0  0
   57.0060   30.2560   44.9960 N   0  0  0  0  0  0  0  0  0  0  0  0
   56.5760   28.9670   45.0020 C   0  0  0  0  0  0  0  0  0  0  0  0
   55.9887   25.3281   43.4802 H   0  0  0  0  0  0  0  0  0  0  0  0
   55.6182   23.2367   42.1686 H   0  0  0  0  0  0  0  0  0  0  0  0
   56.8545   21.1503   42.7618 H   0  0  0  0  0  0  0  0  0  0  0  0
   58.4503   21.1483   44.6809 H   0  0  0  0  0  0  0  0  0  0  0  0
   58.8228   23.2315   46.0013 H   0  0  0  0  0  0  0  0  0  0  0  0
   58.8529   27.6844   47.1947 H   0  0  0  0  0  0  0  0  0  0  0  0
   59.6095   30.0626   47.1465 H   0  0  0  0  0  0  0  0  0  0  0  0
   56.8058   32.6785   44.4109 H   0  0  0  0  0  0  0  0  0  0  0  0
   57.4717   35.0771   44.2910 H   0  0  0  0  0  0  0  0  0  0  0  0
   59.5042   35.8763   45.4954 H   0  0  0  0  0  0  0  0  0  0  0  0
   60.8738   34.2742   46.8314 H   0  0  0  0  0  0  0  0  0  0  0  0
   60.2192   31.8715   46.9602 H   0  0  0  0  0  0  0  0  0  0  0  0
   55.7152   28.6738   44.3831 H   0  0  0  0  0  0  0  0  0  0  0  0
  1  2  2  0
  2  3  1  0
  3  4  1  0
  4  5  2  0
  5  6  1  0
  6  7  2  0
  7  8  1  0
  8  9  2  0
  2 10  1  0
 10 11  2  0
 11 12  1  0
 12 13  2  0
 13 14  1  0
 14 15  2  0
 15 16  1  0
 16 17  2  0
 17 18  1  0
 18 19  2  0
 13 20  1  0
 20 21  2  0
  9  4  1  0
 21 10  1  0
 19 14  1  0
  5 22  1  0
  6 23  1  0
  7 24  1  0
  8 25  1  0
  9 26  1  0
 11 27  1  0
 12 28  1  0
 15 29  1  0
 16 30  1  0
 17 31  1  0
 18 32  1  0
 19 33  1  0
 21 34  1  0
M  END
>  <UniqueID>  (66) 
62

>  <SMILES>  (66) 
O=C(Oc1ccccc1)c1ccc(-c2ccccc2)nc1

>  <Energy>  (66) 
46.78625118011646

>  <Genealogy>  (66) 
O=C(Oc1ccccc1)c1ccc(-c2ccccc2)nc1 (3D coordinates assigned)
O=C(Oc1ccccc1)c1ccc(-c2ccccc2)nc1 (optimized conformer: 46.78625118011646 kcal/mol)

>  <smiles>  (66) 
O=C(Oc1ccccc1)c1ccc(-c2ccccc2)nc1

>  <score_type>  (66) 
oracle

>  <origin>  (66) 
adg

>  <m_score__min__energy>  (66) 
-7.5700000000000003

>  <m_primary>  (66) 
energy

$$$$
66:0
     RDKit          3D

 42 43  0  0  0  0  0  0  0  0999 V2000
   57.7630   25.4760   43.8330 C   0  0  0  0  0  0  0  0  0  0  0  0
   58.1190   25.0180   45.2570 C   0  0  0  0  0  0  0  0  0  0  0  0
   58.4640   23.5190   45.2310 C   0  0  0  0  0  0  0  0  0  0  0  0
   56.9680   25.3120   46.2720 C   0  0  2  0  0  0  0  0  0  0  0  0
   55.5530   25.2110   45.6500 C   0  0  0  0  0  0  0  0  0  0  0  0
   54.7570   26.3080   46.0150 O   0  0  0  0  0  0  0  0  0  0  0  0
   57.1660   26.6060   46.9640 N   0  0  0  0  0  0  0  0  0  0  0  0
   58.2060   27.4920   46.3980 C   0  0  0  0  0  0  0  0  0  0  0  0
   57.6210   28.7040   45.7200 C   0  0  0  0  0  0  0  0  0  0  0  0
   56.5340   28.5880   44.8470 C   0  0  0  0  0  0  0  0  0  0  0  0
   56.0400   29.7420   44.2420 C   0  0  0  0  0  0  0  0  0  0  0  0
   56.6160   30.9440   44.5010 N   0  0  0  0  0  0  0  0  0  0  0  0
   57.6800   31.0500   45.3440 C   0  0  0  0  0  0  0  0  0  0  0  0
   58.2980   32.3720   45.6120 C   0  0  0  0  0  0  0  0  0  0  0  0
   58.2700   33.3870   44.6350 C   0  0  0  0  0  0  0  0  0  0  0  0
   58.8530   34.6310   44.8880 C   0  0  0  0  0  0  0  0  0  0  0  0
   59.4700   34.8820   46.1150 C   0  0  0  0  0  0  0  0  0  0  0  0
   59.5070   33.8850   47.0960 C   0  0  0  0  0  0  0  0  0  0  0  0
   60.1440   34.1440   48.3610 C   0  0  0  0  0  0  0  0  0  0  0  0
   60.6560   34.3520   49.3770 N   0  0  0  0  0  0  0  0  0  0  0  0
   58.9240   32.6360   46.8460 C   0  0  0  0  0  0  0  0  0  0  0  0
   58.1720   29.9290   45.9410 N   0  0  0  0  0  0  0  0  0  0  0  0
   57.0887   26.3435   43.8847 H   0  0  0  0  0  0  0  0  0  0  0  0
   58.6819   25.7573   43.2978 H   0  0  0  0  0  0  0  0  0  0  0  0
   57.2637   24.6549   43.2978 H   0  0  0  0  0  0  0  0  0  0  0  0
   58.9923   25.5913   45.6015 H   0  0  0  0  0  0  0  0  0  0  0  0
   58.5502   23.1446   46.2617 H   0  0  0  0  0  0  0  0  0  0  0  0
   57.6690   22.9688   44.7063 H   0  0  0  0  0  0  0  0  0  0  0  0
   59.4195   23.3717   44.7063 H   0  0  0  0  0  0  0  0  0  0  0  0
   57.0236   24.5119   47.0248 H   0  0  0  0  0  0  0  0  0  0  0  0
   55.6442   25.1831   44.5541 H   0  0  0  0  0  0  0  0  0  0  0  0
   55.0737   24.2941   46.0236 H   0  0  0  0  0  0  0  0  0  0  0  0
   54.9630   26.5070   46.9650 H   0  0  0  0  0  0  0  0  0  0  0  0
   56.2500   27.1060   47.0500 H   0  0  0  0  0  0  0  0  0  0  0  0
   58.8662   27.8266   47.2117 H   0  0  0  0  0  0  0  0  0  0  0  0
   58.7595   26.9181   45.6402 H   0  0  0  0  0  0  0  0  0  0  0  0
   56.0793   27.6074   44.6427 H   0  0  0  0  0  0  0  0  0  0  0  0
   55.1835   29.6792   43.5547 H   0  0  0  0  0  0  0  0  0  0  0  0
   57.7854   33.1983   43.6657 H   0  0  0  0  0  0  0  0  0  0  0  0
   58.8259   35.4157   44.1176 H   0  0  0  0  0  0  0  0  0  0  0  0
   59.9269   35.8633   46.3105 H   0  0  0  0  0  0  0  0  0  0  0  0
   58.9553   31.8548   47.6198 H   0  0  0  0  0  0  0  0  0  0  0  0
  1  2  1  0
  2  3  1  0
  2  4  1  0
  4  5  1  0
  5  6  1  0
  4  7  1  0
  7  8  1  0
  8  9  1  0
  9 10  2  0
 10 11  1  0
 11 12  2  0
 12 13  1  0
 13 14  1  0
 14 15  2  0
 15 16  1  0
 16 17  2  0
 17 18  1  0
 18 19  1  0
 19 20  3  0
 18 21  2  0
 13 22  2  0
 22  9  1  0
 21 14  1  0
  1 23  1  0
  1 24  1  0
  1 25  1  0
  2 26  1  0
  3 27  1  0
  3 28  1  0
  3 29  1  0
  4 30  1  1
  5 31  1  0
  5 32  1  0
  6 33  1  0
  7 34  1  0
  8 35  1  0
  8 36  1  0
 10 37  1  0
 11 38  1  0
 15 39  1  0
 16 40  1  0
 17 41  1  0
 21 42  1  0
M  END
>  <UniqueID>  (67) 
63

>  <SMILES>  (67) 
CC(C)[C@H](CO)NCc1ccnc(-c2cccc(C#N)c2)n1

>  <Energy>  (67) 
44.583797368075956

>  <Genealogy>  (67) 
CC(C)[C@H](CO)NCc1ccnc(-c2cccc(C#N)c2)n1 (chirality)
CC(C)[C@H](CO)NCc1ccnc(-c2cccc(C#N)c2)n1 (3D coordinates assigned)
CC(C)[C@H](CO)NCc1ccnc(-c2cccc(C#N)c2)n1 (optimized conformer: 44.583797368075956 kcal/mol)

>  <smiles>  (67) 
CC(C)C(CO)NCc1ccnc(-c2cccc(C#N)c2)n1

>  <score_type>  (67) 
oracle

>  <origin>  (67) 
adg

>  <m_score__min__energy>  (67) 
-9.2100000000000009

>  <m_primary>  (67) 
energy

$$$$
67:0
     RDKit          3D

 32 33  0  0  0  0  0  0  0  0999 V2000
   60.8560   29.6940   48.7140 O   0  0  0  0  0  0  0  0  0  0  0  0
   60.6970   29.5890   47.4800 N   0  0  0  0  0  0  0  0  0  0  0  0
   61.3770   30.4500   46.6490 O   0  0  0  0  0  0  0  0  0  0  0  0
   59.8190   28.5880   46.9350 C   0  0  0  0  0  0  0  0  0  0  0  0
   59.5100   27.4330   47.6750 C   0  0  0  0  0  0  0  0  0  0  0  0
   58.6520   26.4640   47.1520 C   0  0  0  0  0  0  0  0  0  0  0  0
   58.0930   26.6310   45.8840 C   0  0  0  0  0  0  0  0  0  0  0  0
   58.3970   27.7690   45.1240 C   0  0  0  0  0  0  0  0  0  0  0  0
   57.7680   27.9690   43.7730 C   0  0  0  0  0  0  0  0  0  0  0  0
   56.9290   29.5450   43.7030 S   0  0  0  0  0  0  0  0  0  0  0  0
   56.0090   29.7170   44.8790 O   0  0  0  0  0  0  0  0  0  0  0  0
   56.1130   29.6020   42.4430 O   0  0  0  0  0  0  0  0  0  0  0  0
   58.0940   30.8320   43.6750 N   0  0  0  0  0  0  0  0  0  0  0  0
   58.1100   31.9380   44.5970 C   0  0  0  0  0  0  0  0  0  0  0  0
   57.8170   33.2260   44.1220 C   0  0  0  0  0  0  0  0  0  0  0  0
   57.8250   34.3240   44.9880 C   0  0  0  0  0  0  0  0  0  0  0  0
   58.1240   34.1470   46.3390 C   0  0  0  0  0  0  0  0  0  0  0  0
   58.4140   32.8710   46.8290 C   0  0  0  0  0  0  0  0  0  0  0  0
   58.7880   32.6490   48.5290 Cl  0  0  0  0  0  0  0  0  0  0  0  0
   58.4060   31.7690   45.9650 C   0  0  0  0  0  0  0  0  0  0  0  0
   59.2510   28.7490   45.6560 C   0  0  0  0  0  0  0  0  0  0  0  0
   59.9479   27.2919   48.6741 H   0  0  0  0  0  0  0  0  0  0  0  0
   58.4156   25.5657   47.7412 H   0  0  0  0  0  0  0  0  0  0  0  0
   57.4120   25.8675   45.4799 H   0  0  0  0  0  0  0  0  0  0  0  0
   58.5511   27.9408   43.0010 H   0  0  0  0  0  0  0  0  0  0  0  0
   57.0356   27.1671   43.5984 H   0  0  0  0  0  0  0  0  0  0  0  0
   58.8480   30.7640   42.9570 H   0  0  0  0  0  0  0  0  0  0  0  0
   57.5788   33.3731   43.0582 H   0  0  0  0  0  0  0  0  0  0  0  0
   57.5952   35.3286   44.6033 H   0  0  0  0  0  0  0  0  0  0  0  0
   58.1315   35.0119   47.0186 H   0  0  0  0  0  0  0  0  0  0  0  0
   58.6319   30.7659   46.3559 H   0  0  0  0  0  0  0  0  0  0  0  0
   59.4784   29.6507   45.0684 H   0  0  0  0  0  0  0  0  0  0  0  0
  1  2  2  0
  2  3  1  0
  2  4  1  0
  4  5  2  0
  5  6  1  0
  6  7  2  0
  7  8  1  0
  8  9  1  0
  9 10  1  0
 10 11  2  0
 10 12  2  0
 10 13  1  0
 13 14  1  0
 14 15  2  0
 15 16  1  0
 16 17  2  0
 17 18  1  0
 18 19  1  0
 18 20  2  0
  8 21  2  0
 21  4  1  0
 20 14  1  0
  5 22  1  0
  6 23  1  0
  7 24  1  0
  9 25  1  0
  9 26  1  0
 13 27  1  0
 15 28  1  0
 16 29  1  0
 17 30  1  0
 20 31  1  0
 21 32  1  0
M  CHG  2   2   1   3  -1
M  END
>  <UniqueID>  (68) 
64

>  <SMILES>  (68) 
O=[N+]([O-])c1cccc(CS(=O)(=O)Nc2cccc(Cl)c2)c1

>  <Energy>  (68) 
31.658317569784717

>  <Genealogy>  (68) 
O=[N+]([O-])c1cccc(CS(=O)(=O)Nc2cccc(Cl)c2)c1 (3D coordinates assigned)
O=[N+]([O-])c1cccc(CS(=O)(=O)Nc2cccc(Cl)c2)c1 (optimized conformer: 31.658317569784717 kcal/mol)

>  <smiles>  (68) 
O=[N+]([O-])c1cccc(CS(=O)(=O)Nc2cccc(Cl)c2)c1

>  <score_type>  (68) 
oracle

>  <origin>  (68) 
adg

>  <m_score__min__energy>  (68) 
-8.9600000000000009

>  <m_primary>  (68) 
energy

$$$$
68:0
     RDKit          3D

 44 46  0  0  0  0  0  0  0  0999 V2000
   55.4413   28.9790   45.0783 H   0  0  0  0  0  0  0  0  0  0  0  0
   56.4550   29.3700   45.2500 C   0  0  0  0  0  0  0  0  0  0  0  0
   56.7930   30.6010   44.7850 N   0  0  0  0  0  0  0  0  0  0  0  0
   58.0390   31.1250   44.9470 C   0  0  0  0  0  0  0  0  0  0  0  0
   58.2750   32.3170   44.4720 N   0  0  0  0  0  0  0  0  0  0  0  0
   57.7730   33.6040   44.9710 C   0  0  0  0  0  0  0  0  0  0  0  0
   56.9161   33.9248   44.3605 H   0  0  0  0  0  0  0  0  0  0  0  0
   58.8870   34.6700   44.8580 C   0  0  0  0  0  0  0  0  0  0  0  0
   58.4674   35.5612   44.3684 H   0  0  0  0  0  0  0  0  0  0  0  0
   59.7061   34.2208   44.2773 H   0  0  0  0  0  0  0  0  0  0  0  0
   59.4760   35.0930   46.2190 C   0  0  0  0  0  0  0  0  0  0  0  0
   58.7865   35.8058   46.6949 H   0  0  0  0  0  0  0  0  0  0  0  0
   60.4606   35.5453   46.0293 H   0  0  0  0  0  0  0  0  0  0  0  0
   59.6780   33.9490   47.1320 N   0  0  0  0  0  0  0  0  0  0  0  0
   60.8240   33.1190   46.7270 C   0  0  0  0  0  0  0  0  0  0  0  0
   61.3406   32.7448   47.6232 H   0  0  0  0  0  0  0  0  0  0  0  0
   60.4671   32.2685   46.1276 H   0  0  0  0  0  0  0  0  0  0  0  0
   61.5208   33.7233   46.1276 H   0  0  0  0  0  0  0  0  0  0  0  0
   58.4530   33.1390   47.3750 C   0  0  0  0  0  0  0  0  0  0  0  0
   58.1173   33.3214   48.4065 H   0  0  0  0  0  0  0  0  0  0  0  0
   58.7267   32.0886   47.1968 H   0  0  0  0  0  0  0  0  0  0  0  0
   57.2860   33.4620   46.4220 C   0  0  0  0  0  0  0  0  0  0  0  0
   56.8172   34.4060   46.7367 H   0  0  0  0  0  0  0  0  0  0  0  0
   56.5625   32.6346   46.4661 H   0  0  0  0  0  0  0  0  0  0  0  0
   59.0190   30.3640   45.6150 C   0  0  0  0  0  0  0  0  0  0  0  0
   60.0335   30.7656   45.7546 H   0  0  0  0  0  0  0  0  0  0  0  0
   58.6910   29.0960   46.0980 C   0  0  0  0  0  0  0  0  0  0  0  0
   59.4559   28.4853   46.5999 H   0  0  0  0  0  0  0  0  0  0  0  0
   57.3890   28.5990   45.9450 C   0  0  0  0  0  0  0  0  0  0  0  0
   57.0330   27.2760   46.3770 N   0  0  0  0  0  0  0  0  0  0  0  0
   56.6700   26.2670   45.6350 C   0  0  0  0  0  0  0  0  0  0  0  0
   55.4830   25.6620   45.9060 N   0  0  0  0  0  0  0  0  0  0  0  0
   55.0130   24.5950   45.2020 C   0  0  0  0  0  0  0  0  0  0  0  0
   53.7620   24.0190   45.5920 N   0  0  0  0  0  0  0  0  0  0  0  0
   53.5100   23.8260   46.5840 H   0  0  0  0  0  0  0  0  0  0  0  0
   53.0230   23.8590   44.8720 H   0  0  0  0  0  0  0  0  0  0  0  0
   55.7800   24.0790   44.1320 C   0  0  0  0  0  0  0  0  0  0  0  0
   55.3280   22.9900   43.3160 N   0  0  0  0  0  0  0  0  0  0  0  0
   54.7640   22.2190   43.7360 H   0  0  0  0  0  0  0  0  0  0  0  0
   55.6060   22.8790   42.3180 H   0  0  0  0  0  0  0  0  0  0  0  0
   57.0210   24.6670   43.8550 C   0  0  0  0  0  0  0  0  0  0  0  0
   57.6437   24.2677   43.0409 H   0  0  0  0  0  0  0  0  0  0  0  0
   57.4740   25.7540   44.6020 C   0  0  0  0  0  0  0  0  0  0  0  0
   58.4528   26.2065   44.3847 H   0  0  0  0  0  0  0  0  0  0  0  0
  1  2  1  0
  2  3  1  0
  3  4  1  0
  4  5  2  0
  5  6  1  0
  6  7  1  0
  6  8  1  0
  8  9  1  0
  8 10  1  0
  8 11  1  0
 11 12  1  0
 11 13  1  0
 11 14  1  0
 14 15  1  0
 15 16  1  0
 15 17  1  0
 15 18  1  0
 14 19  1  0
 19 20  1  0
 19 21  1  0
 19 22  1  0
 22 23  1  0
 22 24  1  0
  4 25  1  0
 25 26  1  0
 25 27  2  0
 27 28  1  0
 27 29  1  0
 29 30  1  0
 30 31  2  0
 31 32  1  0
 32 33  1  0
 33 34  1  0
 34 35  1  0
 34 36  1  0
 33 37  2  0
 37 38  1  0
 38 39  1  0
 38 40  1  0
 37 41  1  0
 41 42  1  0
 41 43  2  0
 43 44  1  0
 29  2  2  0
 43 31  1  0
 22  6  1  0
M  CHG  2   3  -1  32  -1
M  END
>  <UniqueID>  (69) 
65

>  <SMILES>  (69) 
CN1CCC(/N=c2\ccc(/N=c3\ccc(N)c(N)[n-]3)c[n-]2)CC1

>  <Energy>  (69) 
68.49546139614553

>  <Genealogy>  (69) 
CN1CCC(N=c2ccc(N=c3ccc(N)c(N)[n-]3)c[n-]2)CC1 (protonated)
CN1CCC(/N=c2\ccc(/N=c3\ccc(N)c(N)[n-]3)c[n-]2)CC1 (cis-trans isomerization)
CN1CCC(/N=c2\ccc(/N=c3\ccc(N)c(N)[n-]3)c[n-]2)CC1 (3D coordinates assigned)
CN1CCC(/N=c2\ccc(/N=c3\ccc(N)c(N)[n-]3)c[n-]2)CC1 (nonaromatic ring conformer: 68.49546139614553 kcal/mol)

>  <smiles>  (69) 
CN1CCC(N=c2ccc(N=c3ccc(N)c(N)[nH]3)c[nH]2)CC1

>  <score_type>  (69) 
oracle

>  <origin>  (69) 
adg

>  <m_score__min__energy>  (69) 
-11.199999999999999

>  <m_primary>  (69) 
energy

$$$$
69:0
     RDKit          3D

 33 35  0  0  0  0  0  0  0  0999 V2000
   58.7710   35.5099   47.1038 H   0  0  0  0  0  0  0  0  0  0  0  0
   58.6520   34.6470   46.4320 C   0  0  0  0  0  0  0  0  0  0  0  0
   57.8590   33.2130   46.7990 S   0  0  0  0  0  0  0  0  0  0  0  0
   58.0950   32.4640   45.3070 C   0  0  0  0  0  0  0  0  0  0  0  0
   57.7210   31.0810   44.9280 C   0  0  0  0  0  0  0  0  0  0  0  0
   57.7470   30.1340   45.9030 N   0  0  0  0  0  0  0  0  0  0  0  0
   57.3980   28.8420   45.6700 C   0  0  0  0  0  0  0  0  0  0  0  0
   57.4170   27.9650   46.6320 N   0  0  0  0  0  0  0  0  0  0  0  0
   58.5960   27.6250   47.4290 C   0  0  0  0  0  0  0  0  0  0  0  0
   58.2734   27.1385   48.3613 H   0  0  0  0  0  0  0  0  0  0  0  0
   59.2338   26.9456   46.8445 H   0  0  0  0  0  0  0  0  0  0  0  0
   59.3870   28.8620   47.7650 C   0  0  0  0  0  0  0  0  0  0  0  0
   59.0530   29.6260   48.8940 C   0  0  0  0  0  0  0  0  0  0  0  0
   58.2256   29.3076   49.5452 H   0  0  0  0  0  0  0  0  0  0  0  0
   59.7670   30.7900   49.1950 C   0  0  0  0  0  0  0  0  0  0  0  0
   59.5016   31.3840   50.0820 H   0  0  0  0  0  0  0  0  0  0  0  0
   60.8180   31.1990   48.3690 C   0  0  0  0  0  0  0  0  0  0  0  0
   61.3784   32.1155   48.6055 H   0  0  0  0  0  0  0  0  0  0  0  0
   61.1570   30.4440   47.2430 C   0  0  0  0  0  0  0  0  0  0  0  0
   61.9839   30.7675   46.5938 H   0  0  0  0  0  0  0  0  0  0  0  0
   60.4470   29.2780   46.9400 C   0  0  0  0  0  0  0  0  0  0  0  0
   60.7183   28.6849   46.0542 H   0  0  0  0  0  0  0  0  0  0  0  0
   57.0160   28.4640   44.4220 N   0  0  0  0  0  0  0  0  0  0  0  0
   56.7450   27.4690   44.2420 H   0  0  0  0  0  0  0  0  0  0  0  0
   56.9860   29.3580   43.3980 C   0  0  0  0  0  0  0  0  0  0  0  0
   56.6390   28.9730   42.2480 O   0  0  0  0  0  0  0  0  0  0  0  0
   57.3410   30.6990   43.6210 C   0  0  0  0  0  0  0  0  0  0  0  0
   57.3650   31.6220   42.5080 C   0  0  0  0  0  0  0  0  0  0  0  0
   57.3900   32.3560   41.6140 N   0  0  0  0  0  0  0  0  0  0  0  0
   58.8320   33.3350   44.5090 C   0  0  0  0  0  0  0  0  0  0  0  0
   59.1496   33.0897   43.4848 H   0  0  0  0  0  0  0  0  0  0  0  0
   59.1310   34.5530   45.1330 C   0  0  0  0  0  0  0  0  0  0  0  0
   59.6930   35.3596   44.6394 H   0  0  0  0  0  0  0  0  0  0  0  0
  1  2  1  0
  2  3  1  0
  3  4  1  0
  4  5  1  0
  5  6  1  0
  6  7  1  0
  7  8  2  0
  8  9  1  0
  9 10  1  0
  9 11  1  0
  9 12  1  0
 12 13  2  0
 13 14  1  0
 13 15  1  0
 15 16  1  0
 15 17  2  0
 17 18  1  0
 17 19  1  0
 19 20  1  0
 19 21  2  0
 21 22  1  0
  7 23  1  0
 23 24  1  0
 23 25  1  0
 25 26  2  0
 25 27  1  0
 27 28  1  0
 28 29  3  0
  4 30  2  0
 30 31  1  0
 30 32  1  0
 32 33  1  0
 32  2  2  0
 27  5  2  0
 21 12  1  0
M  CHG  1   6  -1
M  END
>  <UniqueID>  (70) 
66

>  <SMILES>  (70) 
N#Cc1c(-c2cccs2)[n-]/c(=N\Cc2ccccc2)[nH]c1=O

>  <Energy>  (70) 
65.81656771554526

>  <Genealogy>  (70) 
N#Cc1c(-c2cccs2)[n-]c(=NCc2ccccc2)[nH]c1=O (protonated)
N#Cc1c(-c2cccs2)[n-]/c(=N\Cc2ccccc2)[nH]c1=O (cis-trans isomerization)
N#Cc1c(-c2cccs2)[n-]/c(=N\Cc2ccccc2)[nH]c1=O (3D coordinates assigned)
N#Cc1c(-c2cccs2)[n-]/c(=N\Cc2ccccc2)[nH]c1=O (optimized conformer: 65.81656771554526 kcal/mol)

>  <smiles>  (70) 
N#Cc1c(-c2cccs2)[nH]c(=NCc2ccccc2)[nH]c1=O

>  <score_type>  (70) 
oracle

>  <origin>  (70) 
adg

>  <m_score__min__energy>  (70) 
-8.5199999999999996

>  <m_primary>  (70) 
energy

$$$$
70:0
     RDKit          3D

 38 40  0  0  0  0  0  0  0  0999 V2000
   55.5420   28.9780   44.8910 O   0  0  0  0  0  0  0  0  0  0  0  0
   56.6320   29.5940   44.7540 C   0  0  0  0  0  0  0  0  0  0  0  0
   56.6450   31.0140   44.5670 N   0  0  0  0  0  0  0  0  0  0  0  0
   57.5200   31.9500   45.2150 C   0  0  0  0  0  0  0  0  0  0  0  0
   58.7880   31.5150   45.6210 C   0  0  0  0  0  0  0  0  0  0  0  0
   59.6620   32.3900   46.2730 C   0  0  0  0  0  0  0  0  0  0  0  0
   59.2810   33.7100   46.5300 C   0  0  0  0  0  0  0  0  0  0  0  0
   60.1820   34.5530   47.1980 O   0  0  0  0  0  0  0  0  0  0  0  0
   61.4750   34.1990   47.6100 C   0  0  0  0  0  0  0  0  0  0  0  0
   62.4660   33.7990   46.6940 C   0  0  0  0  0  0  0  0  0  0  0  0
   63.7380   33.4370   47.1470 C   0  0  0  0  0  0  0  0  0  0  0  0
   64.0280   33.4600   48.5140 C   0  0  0  0  0  0  0  0  0  0  0  0
   63.0430   33.8370   49.4320 C   0  0  0  0  0  0  0  0  0  0  0  0
   63.4030   33.8550   51.1480 Cl  0  0  0  0  0  0  0  0  0  0  0  0
   61.7690   34.2000   48.9810 C   0  0  0  0  0  0  0  0  0  0  0  0
   57.9930   34.1390   46.1640 C   0  0  0  0  0  0  0  0  0  0  0  0
   57.1180   33.2650   45.5120 C   0  0  0  0  0  0  0  0  0  0  0  0
   57.8700   28.8710   44.6930 N   0  0  0  0  0  0  0  0  0  0  0  0
   57.9980   27.4770   45.0230 C   0  0  0  0  0  0  0  0  0  0  0  0
   57.7510   26.4870   44.0540 C   0  0  0  0  0  0  0  0  0  0  0  0
   57.8480   25.1320   44.3850 C   0  0  0  0  0  0  0  0  0  0  0  0
   58.1820   24.7510   45.6860 C   0  0  0  0  0  0  0  0  0  0  0  0
   58.2740   23.4360   46.0040 F   0  0  0  0  0  0  0  0  0  0  0  0
   58.4130   25.7240   46.6610 C   0  0  0  0  0  0  0  0  0  0  0  0
   58.3170   27.0830   46.3390 C   0  0  0  0  0  0  0  0  0  0  0  0
   58.6370   28.2710   47.5970 Cl  0  0  0  0  0  0  0  0  0  0  0  0
   59.0982   30.4779   45.4255 H   0  0  0  0  0  0  0  0  0  0  0  0
   60.6559   32.0373   46.5857 H   0  0  0  0  0  0  0  0  0  0  0  0
   62.2388   33.7711   45.6181 H   0  0  0  0  0  0  0  0  0  0  0  0
   64.5118   33.1336   46.4265 H   0  0  0  0  0  0  0  0  0  0  0  0
   65.0316   33.1814   48.8679 H   0  0  0  0  0  0  0  0  0  0  0  0
   60.9937   34.4878   49.7063 H   0  0  0  0  0  0  0  0  0  0  0  0
   57.6725   35.1664   46.3916 H   0  0  0  0  0  0  0  0  0  0  0  0
   56.1112   33.6069   45.2301 H   0  0  0  0  0  0  0  0  0  0  0  0
   58.7100   29.3850   44.3440 H   0  0  0  0  0  0  0  0  0  0  0  0
   57.4798   26.7811   43.0293 H   0  0  0  0  0  0  0  0  0  0  0  0
   57.6609   24.3649   43.6191 H   0  0  0  0  0  0  0  0  0  0  0  0
   58.6715   25.4211   47.6864 H   0  0  0  0  0  0  0  0  0  0  0  0
  1  2  2  0
  2  3  1  0
  3  4  1  0
  4  5  2  0
  5  6  1  0
  6  7  2  0
  7  8  1  0
  8  9  1  0
  9 10  2  0
 10 11  1  0
 11 12  2  0
 12 13  1  0
 13 14  1  0
 13 15  2  0
  7 16  1  0
 16 17  2  0
  2 18  1  0
 18 19  1  0
 19 20  2  0
 20 21  1  0
 21 22  2  0
 22 23  1  0
 22 24  1  0
 24 25  2  0
 25 26  1  0
 17  4  1  0
 25 19  1  0
 15  9  1  0
  5 27  1  0
  6 28  1  0
 10 29  1  0
 11 30  1  0
 12 31  1  0
 15 32  1  0
 16 33  1  0
 17 34  1  0
 18 35  1  0
 20 36  1  0
 21 37  1  0
 24 38  1  0
M  CHG  1   3  -1
M  END
>  <UniqueID>  (71) 
67

>  <SMILES>  (71) 
O=C([N-]c1ccc(Oc2cccc(Cl)c2)cc1)Nc1ccc(F)cc1Cl

>  <Energy>  (71) 
54.97603089438395

>  <Genealogy>  (71) 
O=C([N-]c1ccc(Oc2cccc(Cl)c2)cc1)Nc1ccc(F)cc1Cl (protonated)
O=C([N-]c1ccc(Oc2cccc(Cl)c2)cc1)Nc1ccc(F)cc1Cl (3D coordinates assigned)
O=C([N-]c1ccc(Oc2cccc(Cl)c2)cc1)Nc1ccc(F)cc1Cl (optimized conformer: 54.97603089438395 kcal/mol)

>  <smiles>  (71) 
O=C(Nc1ccc(Oc2cccc(Cl)c2)cc1)Nc1ccc(F)cc1Cl

>  <score_type>  (71) 
oracle

>  <origin>  (71) 
adg

>  <m_score__min__energy>  (71) 
-10.43

>  <m_primary>  (71) 
energy

$$$$
71:0
     RDKit          3D

 60 65  0  0  0  0  0  0  0  0999 V2000
   68.5020   36.8790   53.2230 H   0  0  0  0  0  0  0  0  0  0  0  0
   68.6740   36.0610   53.8490 N   0  0  0  0  0  0  0  0  0  0  0  0
   67.8290   35.0830   53.9450 C   0  0  0  0  0  0  0  0  0  0  0  0
   67.3180   34.4300   52.7140 C   0  0  0  0  0  0  0  0  0  0  0  0
   68.1920   33.7000   51.8600 C   0  0  0  0  0  0  0  0  0  0  0  0
   69.2593   33.6202   52.1141 H   0  0  0  0  0  0  0  0  0  0  0  0
   67.7060   33.0790   50.6940 C   0  0  0  0  0  0  0  0  0  0  0  0
   68.3776   32.5186   50.0270 H   0  0  0  0  0  0  0  0  0  0  0  0
   66.3500   33.1970   50.4130 C   0  0  0  0  0  0  0  0  0  0  0  0
   65.6810   32.6880   49.3690 N   0  0  0  0  0  0  0  0  0  0  0  0
   64.4060   33.1040   49.5990 C   0  0  0  0  0  0  0  0  0  0  0  0
   63.2800   32.7830   48.6950 C   0  0  0  0  0  0  0  0  0  0  0  0
   62.8180   33.7310   47.7640 C   0  0  0  0  0  0  0  0  0  0  0  0
   63.2955   34.7204   47.7091 H   0  0  0  0  0  0  0  0  0  0  0  0
   61.7560   33.4240   46.9080 C   0  0  0  0  0  0  0  0  0  0  0  0
   61.3988   34.1746   46.1875 H   0  0  0  0  0  0  0  0  0  0  0  0
   61.1430   32.1610   46.9640 C   0  0  0  0  0  0  0  0  0  0  0  0
   60.0630   31.8230   46.1340 O   0  0  0  0  0  0  0  0  0  0  0  0
   59.4730   30.5530   46.0450 C   0  0  0  0  0  0  0  0  0  0  0  0
   58.7540   30.0680   47.1420 C   0  0  0  0  0  0  0  0  0  0  0  0
   58.6489   30.6895   48.0435 H   0  0  0  0  0  0  0  0  0  0  0  0
   58.1680   28.8000   47.1020 C   0  0  0  0  0  0  0  0  0  0  0  0
   57.5963   28.4358   47.9683 H   0  0  0  0  0  0  0  0  0  0  0  0
   58.3030   27.9860   45.9640 C   0  0  0  0  0  0  0  0  0  0  0  0
   57.6880   26.6350   45.9220 C   0  0  0  0  0  0  0  0  0  0  0  0
   58.3680   25.4410   45.6680 C   0  0  0  0  0  0  0  0  0  0  0  0
   59.4403   25.3151   45.4572 H   0  0  0  0  0  0  0  0  0  0  0  0
   57.4090   24.4560   45.7380 C   0  0  0  0  0  0  0  0  0  0  0  0
   57.5130   23.0770   45.5740 C   0  0  0  0  0  0  0  0  0  0  0  0
   58.4795   22.6077   45.3380 H   0  0  0  0  0  0  0  0  0  0  0  0
   56.3430   22.2960   45.7190 C   0  0  0  0  0  0  0  0  0  0  0  0
   56.4110   20.8220   45.5540 C   0  0  0  0  0  0  0  0  0  0  0  0
   55.3870   19.9930   46.1160 N   0  0  0  0  0  0  0  0  0  0  0  0
   54.6420   20.3960   46.7250 H   0  0  0  0  0  0  0  0  0  0  0  0
   55.3950   18.9590   45.9680 H   0  0  0  0  0  0  0  0  0  0  0  0
   57.3890   20.2740   44.8940 N   0  0  0  0  0  0  0  0  0  0  0  0
   58.3700   20.3340   45.2470 H   0  0  0  0  0  0  0  0  0  0  0  0
   57.2260   19.7370   44.0130 H   0  0  0  0  0  0  0  0  0  0  0  0
   55.1100   22.9360   46.0160 C   0  0  0  0  0  0  0  0  0  0  0  0
   54.1970   22.3322   46.1245 H   0  0  0  0  0  0  0  0  0  0  0  0
   55.0420   24.3320   46.1730 C   0  0  0  0  0  0  0  0  0  0  0  0
   54.0897   24.8307   46.4063 H   0  0  0  0  0  0  0  0  0  0  0  0
   56.2170   25.0630   46.0240 C   0  0  0  0  0  0  0  0  0  0  0  0
   56.3700   26.3920   46.1380 N   0  0  0  0  0  0  0  0  0  0  0  0
   55.6210   27.0810   46.3750 H   0  0  0  0  0  0  0  0  0  0  0  0
   59.0400   28.4710   44.8680 C   0  0  0  0  0  0  0  0  0  0  0  0
   59.1569   27.8462   43.9702 H   0  0  0  0  0  0  0  0  0  0  0  0
   59.6250   29.7400   44.9100 C   0  0  0  0  0  0  0  0  0  0  0  0
   60.2070   30.1034   44.0502 H   0  0  0  0  0  0  0  0  0  0  0  0
   61.5860   31.2260   47.9040 C   0  0  0  0  0  0  0  0  0  0  0  0
   61.0932   30.2449   47.9719 H   0  0  0  0  0  0  0  0  0  0  0  0
   62.6500   31.5280   48.7580 C   0  0  0  0  0  0  0  0  0  0  0  0
   62.9970   30.7785   49.4845 H   0  0  0  0  0  0  0  0  0  0  0  0
   64.2570   33.8430   50.7330 N   0  0  0  0  0  0  0  0  0  0  0  0
   65.5040   33.8830   51.2240 C   0  0  0  0  0  0  0  0  0  0  0  0
   65.9420   34.5120   52.3860 C   0  0  0  0  0  0  0  0  0  0  0  0
   65.2389   35.0580   53.0322 H   0  0  0  0  0  0  0  0  0  0  0  0
   67.4130   34.6360   55.2430 N   0  0  0  0  0  0  0  0  0  0  0  0
   66.8630   33.7580   55.3670 H   0  0  0  0  0  0  0  0  0  0  0  0
   67.7220   35.1430   56.1020 H   0  0  0  0  0  0  0  0  0  0  0  0
  1  2  1  0
  2  3  2  0
  3  4  1  0
  4  5  2  0
  5  6  1  0
  5  7  1  0
  7  8  1  0
  7  9  2  0
  9 10  1  0
 10 11  1  0
 11 12  1  0
 12 13  2  0
 13 14  1  0
 13 15  1  0
 15 16  1  0
 15 17  2  0
 17 18  1  0
 18 19  1  0
 19 20  2  0
 20 21  1  0
 20 22  1  0
 22 23  1  0
 22 24  2  0
 24 25  1  0
 25 26  2  0
 26 27  1  0
 26 28  1  0
 28 29  2  0
 29 30  1  0
 29 31  1  0
 31 32  1  0
 32 33  1  0
 33 34  1  0
 33 35  1  0
 32 36  2  0
 36 37  1  0
 36 38  1  0
 31 39  2  0
 39 40  1  0
 39 41  1  0
 41 42  1  0
 41 43  2  0
 43 44  1  0
 44 45  1  0
 24 46  1  0
 46 47  1  0
 46 48  2  0
 48 49  1  0
 17 50  1  0
 50 51  1  0
 50 52  2  0
 52 53  1  0
 11 54  2  0
 54 55  1  0
 55 56  2  0
 56 57  1  0
  3 58  1  0
 58 59  1  0
 58 60  1  0
 56  4  1  0
 55  9  1  0
 52 12  1  0
 48 19  1  0
 44 25  1  0
 43 28  1  0
M  CHG  2  10  -1  36   1
M  END
>  <UniqueID>  (72) 
68

>  <SMILES>  (72) 
[H]/N=C(\N)c1ccc2[n-]c(-c3ccc(Oc4ccc(-c5cc6cc(C(N)=[NH2+])ccc6[nH]5)cc4)cc3)nc2c1

>  <Energy>  (72) 
149.2652840801552

>  <Genealogy>  (72) 
N=C(N)c1ccc2[n-]c(-c3ccc(Oc4ccc(-c5cc6cc(C(N)=[NH2+])ccc6[nH]5)cc4)cc3)nc2c1 (protonated)
[H]/N=C(\N)c1ccc2[n-]c(-c3ccc(Oc4ccc(-c5cc6cc(C(N)=[NH2+])ccc6[nH]5)cc4)cc3)nc2c1 (cis-trans isomerization)
[H]/N=C(\N)c1ccc2[n-]c(-c3ccc(Oc4ccc(-c5cc6cc(C(N)=[NH2+])ccc6[nH]5)cc4)cc3)nc2c1 (3D coordinates assigned)
[H]/N=C(\N)c1ccc2[n-]c(-c3ccc(Oc4ccc(-c5cc6cc(C(N)=[NH2+])ccc6[nH]5)cc4)cc3)nc2c1 (optimized conformer: 149.2652840801552 kcal/mol)

>  <smiles>  (72) 
N=C(N)c1ccc2[nH]c(-c3ccc(Oc4ccc(-c5nc6cc(C(=N)N)ccc6[nH]5)cc4)cc3)cc2c1

>  <score_type>  (72) 
oracle

>  <origin>  (72) 
adg

>  <m_score__min__energy>  (72) 
-6.9000000000000004

>  <m_primary>  (72) 
energy

$$$$
72:0
     RDKit          3D

 48 50  0  0  0  0  0  0  0  0999 V2000
   56.3120   30.2640   43.0030 C   0  0  0  0  0  0  0  0  0  0  0  0
   57.3330   29.6150   43.8960 C   0  0  0  0  0  0  0  0  0  0  0  0
   57.5630   28.2310   43.8110 C   0  0  0  0  0  0  0  0  0  0  0  0
   58.4970   27.6170   44.6510 C   0  0  0  0  0  0  0  0  0  0  0  0
   59.2040   28.3750   45.5890 C   0  0  0  0  0  0  0  0  0  0  0  0
   60.3750   27.6030   46.6420 Cl  0  0  0  0  0  0  0  0  0  0  0  0
   58.9730   29.7500   45.6910 C   0  0  0  0  0  0  0  0  0  0  0  0
   58.0410   30.3740   44.8510 C   0  0  0  0  0  0  0  0  0  0  0  0
   57.8150   31.7830   44.9810 N   0  0  0  0  0  0  0  0  0  0  0  0
   57.9240   32.6500   43.8080 C   0  0  0  0  0  0  0  0  0  0  0  0
   58.9030   33.7790   44.1350 C   0  0  0  0  0  0  0  0  0  0  0  0
   58.4560   34.5920   45.3020 N   0  0  0  0  0  0  0  0  0  0  0  0
   59.5900   35.2720   45.9880 C   0  0  0  0  0  0  0  0  0  0  0  0
   60.2210   34.4700   47.1130 C   0  0  0  0  0  0  0  0  0  0  0  0
   59.7200   34.5620   48.4220 C   0  0  0  0  0  0  0  0  0  0  0  0
   60.2900   33.8120   49.4530 C   0  0  0  0  0  0  0  0  0  0  0  0
   61.3850   32.9860   49.1970 C   0  0  0  0  0  0  0  0  0  0  0  0
   61.9380   32.9250   47.9090 C   0  0  0  0  0  0  0  0  0  0  0  0
   63.1170   32.0290   47.6270 C   0  0  0  0  0  0  0  0  0  0  0  0
   64.1180   32.7200   46.8190 N   0  0  0  0  0  0  0  0  0  0  0  0
   61.3550   33.6720   46.8730 C   0  0  0  0  0  0  0  0  0  0  0  0
   57.5280   33.8950   46.2390 C   0  0  0  0  0  0  0  0  0  0  0  0
   57.7650   32.3750   46.3210 C   0  0  0  0  0  0  0  0  0  0  0  0
   55.5433   30.7527   43.6196 H   0  0  0  0  0  0  0  0  0  0  0  0
   56.8047   31.0150   42.3680 H   0  0  0  0  0  0  0  0  0  0  0  0
   55.8411   29.4991   42.3680 H   0  0  0  0  0  0  0  0  0  0  0  0
   57.0052   27.6277   43.0797 H   0  0  0  0  0  0  0  0  0  0  0  0
   58.6760   26.5344   44.5735 H   0  0  0  0  0  0  0  0  0  0  0  0
   59.5251   30.3445   46.4337 H   0  0  0  0  0  0  0  0  0  0  0  0
   58.2972   32.0707   42.9506 H   0  0  0  0  0  0  0  0  0  0  0  0
   56.9385   33.0654   43.5507 H   0  0  0  0  0  0  0  0  0  0  0  0
   59.8855   33.3406   44.3643 H   0  0  0  0  0  0  0  0  0  0  0  0
   58.9555   34.4442   43.2605 H   0  0  0  0  0  0  0  0  0  0  0  0
   57.8910   35.3750   44.8910 H   0  0  0  0  0  0  0  0  0  0  0  0
   60.3675   35.4827   45.2389 H   0  0  0  0  0  0  0  0  0  0  0  0
   59.1760   36.1815   46.4477 H   0  0  0  0  0  0  0  0  0  0  0  0
   58.8725   35.2296   48.6366 H   0  0  0  0  0  0  0  0  0  0  0  0
   59.8745   33.8726   50.4697 H   0  0  0  0  0  0  0  0  0  0  0  0
   61.8162   32.3805   50.0078 H   0  0  0  0  0  0  0  0  0  0  0  0
   63.5727   31.7234   48.5804 H   0  0  0  0  0  0  0  0  0  0  0  0
   62.7631   31.1492   47.0695 H   0  0  0  0  0  0  0  0  0  0  0  0
   64.5590   32.0270   46.1680 H   0  0  0  0  0  0  0  0  0  0  0  0
   64.8690   33.0830   47.4500 H   0  0  0  0  0  0  0  0  0  0  0  0
   61.7892   33.6331   45.8631 H   0  0  0  0  0  0  0  0  0  0  0  0
   57.6612   34.3229   47.2436 H   0  0  0  0  0  0  0  0  0  0  0  0
   56.5081   34.0432   45.8544 H   0  0  0  0  0  0  0  0  0  0  0  0
   58.7192   32.1860   46.8346 H   0  0  0  0  0  0  0  0  0  0  0  0
   56.9335   31.9180   46.8776 H   0  0  0  0  0  0  0  0  0  0  0  0
  1  2  1  0
  2  3  2  0
  3  4  1  0
  4  5  2  0
  5  6  1  0
  5  7  1  0
  7  8  2  0
  8  9  1  0
  9 10  1  0
 10 11  1  0
 11 12  1  0
 12 13  1  0
 13 14  1  0
 14 15  2  0
 15 16  1  0
 16 17  2  0
 17 18  1  0
 18 19  1  0
 19 20  1  0
 18 21  2  0
 12 22  1  0
 22 23  1  0
  8  2  1  0
 23  9  1  0
 21 14  1  0
  1 24  1  0
  1 25  1  0
  1 26  1  0
  3 27  1  0
  4 28  1  0
  7 29  1  0
 10 30  1  0
 10 31  1  0
 11 32  1  0
 11 33  1  0
 12 34  1  0
 13 35  1  0
 13 36  1  0
 15 37  1  0
 16 38  1  0
 17 39  1  0
 19 40  1  0
 19 41  1  0
 20 42  1  0
 20 43  1  0
 21 44  1  0
 22 45  1  0
 22 46  1  0
 23 47  1  0
 23 48  1  0
M  CHG  1  12   1
M  END
>  <UniqueID>  (73) 
69

>  <SMILES>  (73) 
Cc1ccc(Cl)cc1N1CC[NH+](Cc2cccc(CN)c2)CC1

>  <Energy>  (73) 
62.48192453870936

>  <Genealogy>  (73) 
Cc1ccc(Cl)cc1N1CC[NH+](Cc2cccc(CN)c2)CC1 (protonated)
Cc1ccc(Cl)cc1N1CC[NH+](Cc2cccc(CN)c2)CC1 (3D coordinates assigned)
Cc1ccc(Cl)cc1N1CC[NH+](Cc2cccc(CN)c2)CC1 (nonaromatic ring conformer: 62.48192453870936 kcal/mol)

>  <smiles>  (73) 
Cc1ccc(Cl)cc1N1CCN(Cc2cccc(CN)c2)CC1

>  <score_type>  (73) 
oracle

>  <origin>  (73) 
adg

>  <m_score__min__energy>  (73) 
-6.9400000000000004

>  <m_primary>  (73) 
energy

$$$$
73:0
     RDKit          3D

 59 62  0  0  0  0  0  0  0  0999 V2000
   55.7630   29.4710   45.2120 O   0  0  0  0  0  0  0  0  0  0  0  0
   56.9900   29.7640   45.2350 C   0  0  0  0  0  0  0  0  0  0  0  0
   57.4960   30.8010   44.3900 N   0  0  0  0  0  0  0  0  0  0  0  0
   57.0820   32.1970   44.4770 C   0  0  0  0  0  0  0  0  0  0  0  0
   57.9520   32.9410   45.4410 C   0  0  0  0  0  0  0  0  0  0  0  0
   57.7090   34.1780   46.0030 C   0  0  0  0  0  0  0  0  0  0  0  0
   58.7830   34.5420   46.7290 N   0  0  0  0  0  0  0  0  0  0  0  0
   59.6930   33.5840   46.6390 N   0  0  0  0  0  0  0  0  0  0  0  0
   61.0050   33.6750   47.2300 C   0  0  0  0  0  0  0  0  0  0  0  0
   61.1740   33.8280   48.6230 C   0  0  0  0  0  0  0  0  0  0  0  0
   62.4540   33.8550   49.1830 C   0  0  0  0  0  0  0  0  0  0  0  0
   63.5770   33.7300   48.3670 C   0  0  0  0  0  0  0  0  0  0  0  0
   63.4260   33.5840   46.9860 C   0  0  0  0  0  0  0  0  0  0  0  0
   62.1490   33.5650   46.4190 C   0  0  0  0  0  0  0  0  0  0  0  0
   59.2170   32.5910   45.8590 C   0  0  0  0  0  0  0  0  0  0  0  0
   57.8960   29.0220   46.0670 N   0  0  0  0  0  0  0  0  0  0  0  0
   58.5140   29.7330   47.1980 C   0  0  0  0  0  0  0  0  0  0  0  0
   60.0390   29.4930   47.2410 C   0  0  0  0  0  0  0  0  0  0  0  0
   60.6110   29.3130   45.8240 C   0  0  0  0  0  0  0  0  0  0  0  0
   59.9570   28.1310   45.0640 C   0  0  0  0  0  0  0  0  0  0  0  0
   58.5620   27.7830   45.6170 C   0  0  2  0  0  0  0  0  0  0  0  0
   57.7330   26.9270   44.6320 C   0  0  0  0  0  0  0  0  0  0  0  0
   57.6160   25.4700   45.0940 C   0  0  0  0  0  0  0  0  0  0  0  0
   56.7780   25.3790   46.3040 N   0  0  0  0  0  0  0  0  0  0  0  0
   57.0460   24.1740   47.1330 C   0  0  0  0  0  0  0  0  0  0  0  0
   55.7710   23.6640   47.7990 C   0  0  0  0  0  0  0  0  0  0  0  0
   54.6880   23.4130   46.7450 C   0  0  0  0  0  0  0  0  0  0  0  0
   54.8300   24.3880   45.5700 C   0  0  0  0  0  0  0  0  0  0  0  0
   55.4470   25.5910   45.9940 O   0  0  0  0  0  0  0  0  0  0  0  0
   57.1628   32.6615   43.4832 H   0  0  0  0  0  0  0  0  0  0  0  0
   56.0413   32.2387   44.8307 H   0  0  0  0  0  0  0  0  0  0  0  0
   56.7896   34.7690   45.8784 H   0  0  0  0  0  0  0  0  0  0  0  0
   60.2917   33.9267   49.2725 H   0  0  0  0  0  0  0  0  0  0  0  0
   62.5755   33.9751   50.2697 H   0  0  0  0  0  0  0  0  0  0  0  0
   64.5833   33.7463   48.8110 H   0  0  0  0  0  0  0  0  0  0  0  0
   64.3136   33.4839   46.3440 H   0  0  0  0  0  0  0  0  0  0  0  0
   62.0374   33.4632   45.3294 H   0  0  0  0  0  0  0  0  0  0  0  0
   59.7475   31.6624   45.6015 H   0  0  0  0  0  0  0  0  0  0  0  0
   58.3231   30.8111   47.0918 H   0  0  0  0  0  0  0  0  0  0  0  0
   58.0745   29.3520   48.1316 H   0  0  0  0  0  0  0  0  0  0  0  0
   60.5254   30.3567   47.7179 H   0  0  0  0  0  0  0  0  0  0  0  0
   60.2324   28.5750   47.8153 H   0  0  0  0  0  0  0  0  0  0  0  0
   60.4378   30.2376   45.2539 H   0  0  0  0  0  0  0  0  0  0  0  0
   61.6842   29.0930   45.9229 H   0  0  0  0  0  0  0  0  0  0  0  0
   59.8594   28.4031   44.0027 H   0  0  0  0  0  0  0  0  0  0  0  0
   60.6011   27.2488   45.1940 H   0  0  0  0  0  0  0  0  0  0  0  0
   58.6659   27.1320   46.4976 H   0  0  0  0  0  0  0  0  0  0  0  0
   56.7233   27.3561   44.5517 H   0  0  0  0  0  0  0  0  0  0  0  0
   58.2475   26.9345   43.6598 H   0  0  0  0  0  0  0  0  0  0  0  0
   57.1602   24.8711   44.2918 H   0  0  0  0  0  0  0  0  0  0  0  0
   58.6210   25.0882   45.3270 H   0  0  0  0  0  0  0  0  0  0  0  0
   57.4564   23.3811   46.4904 H   0  0  0  0  0  0  0  0  0  0  0  0
   57.7636   24.4472   47.9206 H   0  0  0  0  0  0  0  0  0  0  0  0
   55.9881   22.7242   48.3279 H   0  0  0  0  0  0  0  0  0  0  0  0
   55.4104   24.4209   48.5112 H   0  0  0  0  0  0  0  0  0  0  0  0
   54.7815   22.3827   46.3711 H   0  0  0  0  0  0  0  0  0  0  0  0
   53.7031   23.5655   47.2105 H   0  0  0  0  0  0  0  0  0  0  0  0
   55.4454   23.9226   44.7860 H   0  0  0  0  0  0  0  0  0  0  0  0
   53.8287   24.6210   45.1786 H   0  0  0  0  0  0  0  0  0  0  0  0
  1  2  2  0
  2  3  1  0
  3  4  1  0
  4  5  1  0
  5  6  1  0
  6  7  2  0
  7  8  1  0
  8  9  1  0
  9 10  2  0
 10 11  1  0
 11 12  2  0
 12 13  1  0
 13 14  2  0
  8 15  1  0
  2 16  1  0
 16 17  1  0
 17 18  1  0
 18 19  1  0
 19 20  1  0
 20 21  1  0
 21 22  1  0
 22 23  1  0
 23 24  1  0
 24 25  1  0
 25 26  1  0
 26 27  1  0
 27 28  1  0
 28 29  1  0
 15  5  2  0
 21 16  1  0
 29 24  1  0
 14  9  1  0
  4 30  1  0
  4 31  1  0
  6 32  1  0
 10 33  1  0
 11 34  1  0
 12 35  1  0
 13 36  1  0
 14 37  1  0
 15 38  1  0
 17 39  1  0
 17 40  1  0
 18 41  1  0
 18 42  1  0
 19 43  1  0
 19 44  1  0
 20 45  1  0
 20 46  1  0
 21 47  1  1
 22 48  1  0
 22 49  1  0
 23 50  1  0
 23 51  1  0
 25 52  1  0
 25 53  1  0
 26 54  1  0
 26 55  1  0
 27 56  1  0
 27 57  1  0
 28 58  1  0
 28 59  1  0
M  CHG  1   3  -1
M  END
>  <UniqueID>  (74) 
70

>  <SMILES>  (74) 
O=C([N-]Cc1cnn(-c2ccccc2)c1)N1CCCC[C@@H]1CCN1CCCCO1

>  <Energy>  (74) 
105.27590550667887

>  <Genealogy>  (74) 
O=C([N-]Cc1cnn(-c2ccccc2)c1)N1CCCCC1CCN1CCCCO1 (protonated)
O=C([N-]Cc1cnn(-c2ccccc2)c1)N1CCCC[C@@H]1CCN1CCCCO1 (chirality)
O=C([N-]Cc1cnn(-c2ccccc2)c1)N1CCCC[C@@H]1CCN1CCCCO1 (3D coordinates assigned)
O=C([N-]Cc1cnn(-c2ccccc2)c1)N1CCCC[C@@H]1CCN1CCCCO1 (nonaromatic ring conformer: 105.27590550667887 kcal/mol)

>  <smiles>  (74) 
O=C(NCc1cnn(-c2ccccc2)c1)N1CCCCC1CCN1CCCCO1

>  <score_type>  (74) 
oracle

>  <origin>  (74) 
adg

>  <m_score__min__energy>  (74) 
-10.949999999999999

>  <m_primary>  (74) 
energy

$$$$
74:0
     RDKit          3D

 25 25  0  0  0  0  0  0  0  0999 V2000
   59.1170   27.8640   46.4000 C   0  0  0  0  0  0  0  0  0  0  0  0
   57.8180   27.6650   46.6360 C   0  0  0  0  0  0  0  0  0  0  0  0
   56.8960   27.2100   45.5410 C   0  0  0  0  0  0  0  0  0  0  0  0
   55.8970   28.2350   45.2500 N   0  0  0  0  0  0  0  0  0  0  0  0
   56.1360   29.4770   44.5740 C   0  0  0  0  0  0  0  0  0  0  0  0
   55.1720   30.2730   44.4180 O   0  0  0  0  0  0  0  0  0  0  0  0
   57.4930   29.8770   44.0640 C   0  0  0  0  0  0  0  0  0  0  0  0
   57.3770   31.3930   43.0530 S   0  0  0  0  0  0  0  0  0  0  0  0
   57.7980   32.5020   44.3960 C   0  0  0  0  0  0  0  0  0  0  0  0
   58.5580   33.6520   44.1510 C   0  0  0  0  0  0  0  0  0  0  0  0
   58.8860   34.4910   45.2170 C   0  0  0  0  0  0  0  0  0  0  0  0
   58.4510   34.1800   46.5060 C   0  0  0  0  0  0  0  0  0  0  0  0
   57.6870   33.0280   46.7100 C   0  0  0  0  0  0  0  0  0  0  0  0
   57.3790   32.2210   45.6600 N   0  0  0  0  0  0  0  0  0  0  0  0
   59.7789   28.1973   47.2129 H   0  0  0  0  0  0  0  0  0  0  0  0
   59.5253   27.6946   45.3927 H   0  0  0  0  0  0  0  0  0  0  0  0
   57.4176   27.8366   47.6461 H   0  0  0  0  0  0  0  0  0  0  0  0
   57.4841   27.0105   44.6331 H   0  0  0  0  0  0  0  0  0  0  0  0
   56.3801   26.2956   45.8693 H   0  0  0  0  0  0  0  0  0  0  0  0
   58.1604   30.0623   44.9186 H   0  0  0  0  0  0  0  0  0  0  0  0
   57.8917   29.0637   43.4399 H   0  0  0  0  0  0  0  0  0  0  0  0
   58.8925   33.8914   43.1308 H   0  0  0  0  0  0  0  0  0  0  0  0
   59.4864   35.3958   45.0414 H   0  0  0  0  0  0  0  0  0  0  0  0
   58.7068   34.8346   47.3522 H   0  0  0  0  0  0  0  0  0  0  0  0
   57.3346   32.7739   47.7206 H   0  0  0  0  0  0  0  0  0  0  0  0
  1  2  2  0
  2  3  1  0
  3  4  1  0
  4  5  1  0
  5  6  2  0
  5  7  1  0
  7  8  1  0
  8  9  1  0
  9 10  2  0
 10 11  1  0
 11 12  2  0
 12 13  1  0
 13 14  2  0
 14  9  1  0
  1 15  1  0
  1 16  1  0
  2 17  1  0
  3 18  1  0
  3 19  1  0
  7 20  1  0
  7 21  1  0
 10 22  1  0
 11 23  1  0
 12 24  1  0
 13 25  1  0
M  CHG  1   4  -1
M  END
>  <UniqueID>  (75) 
71

>  <SMILES>  (75) 
C=CC[N-]C(=O)CSc1ccccn1

>  <Energy>  (75) 
14.199613561780414

>  <Genealogy>  (75) 
C=CC[N-]C(=O)CSc1ccccn1 (protonated)
C=CC[N-]C(=O)CSc1ccccn1 (3D coordinates assigned)
C=CC[N-]C(=O)CSc1ccccn1 (optimized conformer: 14.199613561780414 kcal/mol)

>  <smiles>  (75) 
C=CCNC(=O)CSc1ccccn1

>  <score_type>  (75) 
oracle

>  <origin>  (75) 
adg

>  <m_score__min__energy>  (75) 
-8.0199999999999996

>  <m_primary>  (75) 
energy

$$$$
75:0
     RDKit          3D

 43 45  0  0  0  0  0  0  0  0999 V2000
   61.6530   33.8630   50.6440 C   0  0  0  0  0  0  0  0  0  0  0  0
   60.2330   33.7260   50.3880 N   0  0  0  0  0  0  0  0  0  0  0  0
   59.2870   33.8710   51.4770 C   0  0  0  0  0  0  0  0  0  0  0  0
   59.7380   33.4530   49.0840 C   0  0  0  0  0  0  0  0  0  0  0  0
   59.5990   32.2830   48.4430 N   0  0  0  0  0  0  0  0  0  0  0  0
   59.0690   32.4740   47.2160 C   0  0  0  0  0  0  0  0  0  0  0  0
   58.7340   31.6160   46.1970 C   0  0  0  0  0  0  0  0  0  0  0  0
   58.1910   32.0910   45.0320 C   0  0  0  0  0  0  0  0  0  0  0  0
   57.8720   31.1600   44.0200 N   0  0  0  0  0  0  0  0  0  0  0  0
   56.7090   30.3600   43.9720 C   0  0  0  0  0  0  0  0  0  0  0  0
   55.7970   30.3630   44.8230 O   0  0  0  0  0  0  0  0  0  0  0  0
   56.5220   29.4120   42.8140 C   0  0  0  0  0  0  0  0  0  0  0  0
   57.4110   28.2080   42.9980 C   0  0  0  0  0  0  0  0  0  0  0  0
   58.0010   28.0980   44.3340 C   0  0  0  0  0  0  0  0  0  0  0  0
   59.3180   28.4700   44.4960 C   0  0  0  0  0  0  0  0  0  0  0  0
   59.8940   28.3790   45.7470 C   0  0  0  0  0  0  0  0  0  0  0  0
   59.1670   27.9220   46.8310 C   0  0  0  0  0  0  0  0  0  0  0  0
   57.8290   27.5420   46.6790 C   0  0  0  0  0  0  0  0  0  0  0  0
   57.2820   27.6480   45.3970 C   0  0  0  0  0  0  0  0  0  0  0  0
   58.0050   33.4500   44.9410 C   0  0  0  0  0  0  0  0  0  0  0  0
   58.3400   34.3290   45.9640 C   0  0  0  0  0  0  0  0  0  0  0  0
   58.8850   33.8480   47.1340 C   0  0  0  0  0  0  0  0  0  0  0  0
   59.2910   34.4460   48.2680 N   0  0  0  0  0  0  0  0  0  0  0  0
   61.8299   33.8801   51.7295 H   0  0  0  0  0  0  0  0  0  0  0  0
   62.1897   33.0125   50.1984 H   0  0  0  0  0  0  0  0  0  0  0  0
   62.0172   34.8004   50.1984 H   0  0  0  0  0  0  0  0  0  0  0  0
   59.8178   33.7896   52.4370 H   0  0  0  0  0  0  0  0  0  0  0  0
   58.7988   34.8545   51.4101 H   0  0  0  0  0  0  0  0  0  0  0  0
   58.5267   33.0789   51.4101 H   0  0  0  0  0  0  0  0  0  0  0  0
   58.9035   30.5358   46.3175 H   0  0  0  0  0  0  0  0  0  0  0  0
   58.5490   31.0350   43.2170 H   0  0  0  0  0  0  0  0  0  0  0  0
   55.4715   29.0885   42.7716 H   0  0  0  0  0  0  0  0  0  0  0  0
   56.7878   29.9229   41.8768 H   0  0  0  0  0  0  0  0  0  0  0  0
   56.8123   27.3047   42.8095 H   0  0  0  0  0  0  0  0  0  0  0  0
   58.2462   28.3198   42.2910 H   0  0  0  0  0  0  0  0  0  0  0  0
   59.9030   28.8349   43.6389 H   0  0  0  0  0  0  0  0  0  0  0  0
   60.9449   28.6738   45.8835 H   0  0  0  0  0  0  0  0  0  0  0  0
   59.6441   27.8568   47.8200 H   0  0  0  0  0  0  0  0  0  0  0  0
   57.2347   27.1765   47.5295 H   0  0  0  0  0  0  0  0  0  0  0  0
   56.2325   27.3570   45.2425 H   0  0  0  0  0  0  0  0  0  0  0  0
   57.5715   33.8601   44.0169 H   0  0  0  0  0  0  0  0  0  0  0  0
   58.1700   35.4086   45.8394 H   0  0  0  0  0  0  0  0  0  0  0  0
   59.2540   35.4710   48.4470 H   0  0  0  0  0  0  0  0  0  0  0  0
  1  2  1  0
  2  3  1  0
  2  4  1  0
  4  5  2  0
  5  6  1  0
  6  7  2  0
  7  8  1  0
  8  9  1  0
  9 10  1  0
 10 11  2  0
 10 12  1  0
 12 13  1  0
 13 14  1  0
 14 15  2  0
 15 16  1  0
 16 17  2  0
 17 18  1  0
 18 19  2  0
  8 20  2  0
 20 21  1  0
 21 22  2  0
 22 23  1  0
 23  4  1  0
 22  6  1  0
 19 14  1  0
  1 24  1  0
  1 25  1  0
  1 26  1  0
  3 27  1  0
  3 28  1  0
  3 29  1  0
  7 30  1  0
  9 31  1  0
 12 32  1  0
 12 33  1  0
 13 34  1  0
 13 35  1  0
 15 36  1  0
 16 37  1  0
 17 38  1  0
 18 39  1  0
 19 40  1  0
 20 41  1  0
 21 42  1  0
 23 43  1  0
M  END
>  <smiles>  (76) 
CN(C)c1nc2cc(NC(=O)CCc3ccccc3)ccc2[nH]1

>  <score_type>  (76) 
oracle

>  <origin>  (76) 
adg

>  <m_score__min__energy>  (76) 
-8

>  <m_primary>  (76) 
energy

$$$$
76:0
     RDKit          3D

 45 48  0  0  0  0  0  0  0  0999 V2000
   58.1400   26.8750   42.8630 C   0  0  0  0  0  0  0  0  0  0  0  0
   57.7610   28.1920   43.4880 C   0  0  0  0  0  0  0  0  0  0  0  0
   56.8950   29.0570   42.7980 C   0  0  0  0  0  0  0  0  0  0  0  0
   56.5230   30.2820   43.3530 C   0  0  0  0  0  0  0  0  0  0  0  0
   57.0190   30.6720   44.6060 C   0  0  0  0  0  0  0  0  0  0  0  0
   56.6500   31.9220   45.2060 N   0  0  0  0  0  0  0  0  0  0  0  0
   57.4670   33.0990   45.2800 C   0  0  0  0  0  0  0  0  0  0  0  0
   57.1340   34.1060   44.6010 O   0  0  0  0  0  0  0  0  0  0  0  0
   58.6510   33.1800   46.1690 C   0  0  0  0  0  0  0  0  0  0  0  0
   58.8940   34.3280   46.9410 C   0  0  0  0  0  0  0  0  0  0  0  0
   60.0110   34.3940   47.7790 C   0  0  0  0  0  0  0  0  0  0  0  0
   60.9120   33.3200   47.8510 C   0  0  0  0  0  0  0  0  0  0  0  0
   62.0590   33.3880   48.7150 N   0  0  0  0  0  0  0  0  0  0  0  0
   62.1060   33.8240   50.0790 C   0  0  0  0  0  0  0  0  0  0  0  0
   61.1020   34.1780   50.7510 O   0  0  0  0  0  0  0  0  0  0  0  0
   63.4720   33.7400   50.5830 C   0  0  0  0  0  0  0  0  0  0  0  0
   64.0010   34.0500   51.8350 C   0  0  0  0  0  0  0  0  0  0  0  0
   65.3810   33.8630   52.0340 C   0  0  0  0  0  0  0  0  0  0  0  0
   66.1950   33.3750   50.9890 C   0  0  0  0  0  0  0  0  0  0  0  0
   65.6370   33.0680   49.7350 C   0  0  0  0  0  0  0  0  0  0  0  0
   64.2670   33.2590   49.5640 C   0  0  0  0  0  0  0  0  0  0  0  0
   63.4130   33.0390   48.4020 C   0  0  0  0  0  0  0  0  0  0  0  0
   63.8060   32.6470   47.2720 O   0  0  0  0  0  0  0  0  0  0  0  0
   60.6790   32.1800   47.0640 C   0  0  0  0  0  0  0  0  0  0  0  0
   59.5610   32.1120   46.2280 C   0  0  0  0  0  0  0  0  0  0  0  0
   57.8540   29.8020   45.3150 C   0  0  0  0  0  0  0  0  0  0  0  0
   58.2320   28.5620   44.7710 C   0  0  0  0  0  0  0  0  0  0  0  0
   59.1510   27.6620   45.5550 C   0  0  0  0  0  0  0  0  0  0  0  0
   58.3513   26.1409   43.6545 H   0  0  0  0  0  0  0  0  0  0  0  0
   57.3096   26.5128   42.2391 H   0  0  0  0  0  0  0  0  0  0  0  0
   59.0359   27.0096   42.2391 H   0  0  0  0  0  0  0  0  0  0  0  0
   56.5066   28.7657   41.8109 H   0  0  0  0  0  0  0  0  0  0  0  0
   55.8374   30.9453   42.8053 H   0  0  0  0  0  0  0  0  0  0  0  0
   58.2010   35.1805   46.8858 H   0  0  0  0  0  0  0  0  0  0  0  0
   60.1852   35.2943   48.3865 H   0  0  0  0  0  0  0  0  0  0  0  0
   63.3585   34.4295   52.6432 H   0  0  0  0  0  0  0  0  0  0  0  0
   65.8289   34.0987   53.0107 H   0  0  0  0  0  0  0  0  0  0  0  0
   67.2730   33.2339   51.1566 H   0  0  0  0  0  0  0  0  0  0  0  0
   66.2630   32.6886   48.9139 H   0  0  0  0  0  0  0  0  0  0  0  0
   61.3816   31.3346   47.1060 H   0  0  0  0  0  0  0  0  0  0  0  0
   59.3928   31.2161   45.6123 H   0  0  0  0  0  0  0  0  0  0  0  0
   58.2196   30.0919   46.3111 H   0  0  0  0  0  0  0  0  0  0  0  0
   58.9891   27.8206   46.6314 H   0  0  0  0  0  0  0  0  0  0  0  0
   58.9391   26.6124   45.3030 H   0  0  0  0  0  0  0  0  0  0  0  0
   60.1959   27.8958   45.3030 H   0  0  0  0  0  0  0  0  0  0  0  0
  1  2  1  0
  2  3  2  0
  3  4  1  0
  4  5  2  0
  5  6  1  0
  6  7  1  0
  7  8  2  0
  7  9  1  0
  9 10  2  0
 10 11  1  0
 11 12  2  0
 12 13  1  0
 13 14  1  0
 14 15  2  0
 14 16  1  0
 16 17  2  0
 17 18  1  0
 18 19  2  0
 19 20  1  0
 20 21  2  0
 21 22  1  0
 22 23  2  0
 12 24  1  0
 24 25  2  0
  5 26  1  0
 26 27  2  0
 27 28  1  0
 27  2  1  0
 25  9  1  0
 22 13  1  0
 21 16  1  0
  1 29  1  0
  1 30  1  0
  1 31  1  0
  3 32  1  0
  4 33  1  0
 10 34  1  0
 11 35  1  0
 17 36  1  0
 18 37  1  0
 19 38  1  0
 20 39  1  0
 24 40  1  0
 25 41  1  0
 26 42  1  0
 28 43  1  0
 28 44  1  0
 28 45  1  0
M  CHG  1   6  -1
M  END
>  <UniqueID>  (77) 
72

>  <SMILES>  (77) 
Cc1ccc([N-]C(=O)c2ccc(N3C(=O)c4ccccc4C3=O)cc2)cc1C

>  <Energy>  (77) 
93.52722295813251

>  <Genealogy>  (77) 
Cc1ccc([N-]C(=O)c2ccc(N3C(=O)c4ccccc4C3=O)cc2)cc1C (protonated)
Cc1ccc([N-]C(=O)c2ccc(N3C(=O)c4ccccc4C3=O)cc2)cc1C (3D coordinates assigned)
Cc1ccc([N-]C(=O)c2ccc(N3C(=O)c4ccccc4C3=O)cc2)cc1C (nonaromatic ring conformer: 93.52722295813251 kcal/mol)

>  <smiles>  (77) 
Cc1ccc(NC(=O)c2ccc(N3C(=O)c4ccccc4C3=O)cc2)cc1C

>  <score_type>  (77) 
oracle

>  <origin>  (77) 
adg

>  <m_score__min__energy>  (77) 
-10.09

>  <m_primary>  (77) 
energy

$$$$
77:0
     RDKit          3D

 57 62  0  0  0  0  0  0  0  0999 V2000
   55.4150   25.7520   46.2210 O   0  0  0  0  0  0  0  0  0  0  0  0
   56.4610   25.1010   45.9420 C   0  0  0  0  0  0  0  0  0  0  0  0
   57.5340   25.7350   45.2280 N   0  0  0  0  0  0  0  0  0  0  0  0
   57.7470   27.1580   45.2110 C   0  0  0  0  0  0  0  0  0  0  0  0
   59.0350   27.7010   45.0690 C   0  0  0  0  0  0  0  0  0  0  0  0
   59.2160   29.0850   45.0090 C   0  0  0  0  0  0  0  0  0  0  0  0
   58.1140   29.9550   45.0960 C   0  0  0  0  0  0  0  0  0  0  0  0
   58.3100   31.4280   45.0300 C   0  0  0  0  0  0  0  0  0  0  0  0
   58.2620   32.0850   43.7890 C   0  0  0  0  0  0  0  0  0  0  0  0
   58.4910   33.4600   43.7030 C   0  0  0  0  0  0  0  0  0  0  0  0
   58.7770   34.2020   44.8490 C   0  0  0  0  0  0  0  0  0  0  0  0
   58.8220   33.5700   46.1030 C   0  0  0  0  0  0  0  0  0  0  0  0
   59.1100   34.2720   47.2840 C   0  0  0  0  0  0  0  0  0  0  0  0
   59.3590   35.5080   47.2590 O   0  0  0  0  0  0  0  0  0  0  0  0
   59.1280   33.5920   48.5030 C   0  0  0  0  0  0  0  0  0  0  0  0
   58.8480   32.2150   48.5260 C   0  0  0  0  0  0  0  0  0  0  0  0
   58.8530   31.4600   49.7570 N   0  0  0  0  0  0  0  0  0  0  0  0
   59.3690   30.0820   49.8000 C   0  0  0  0  0  0  0  0  0  0  0  0
   58.9520   29.3970   51.1030 C   0  0  0  0  0  0  0  0  0  0  0  0
   57.6060   29.7160   51.3820 O   0  0  0  0  0  0  0  0  0  0  0  0
   57.5010   31.0640   51.8180 C   0  0  0  0  0  0  0  0  0  0  0  0
   58.3440   32.0690   50.9950 C   0  0  0  0  0  0  0  0  0  0  0  0
   58.5830   31.5860   47.3840 O   0  0  0  0  0  0  0  0  0  0  0  0
   58.5740   32.1820   46.1950 C   0  0  0  0  0  0  0  0  0  0  0  0
   56.8250   29.4080   45.2150 C   0  0  0  0  0  0  0  0  0  0  0  0
   56.6430   28.0230   45.2640 C   0  0  0  0  0  0  0  0  0  0  0  0
   56.5540   23.6830   46.3290 C   0  0  0  0  0  0  0  0  0  0  0  0
   56.4230   23.1900   47.6300 C   0  0  0  0  0  0  0  0  0  0  0  0
   56.5950   21.8030   47.6940 C   0  0  0  0  0  0  0  0  0  0  0  0
   56.5340   21.0180   48.8500 C   0  0  0  0  0  0  0  0  0  0  0  0
   56.7450   19.6330   48.7390 C   0  0  0  0  0  0  0  0  0  0  0  0
   57.0120   19.0490   47.4820 C   0  0  0  0  0  0  0  0  0  0  0  0
   57.0720   19.8470   46.3290 C   0  0  0  0  0  0  0  0  0  0  0  0
   56.8590   21.2170   46.4650 C   0  0  0  0  0  0  0  0  0  0  0  0
   56.8860   22.3980   45.2760 S   0  0  0  0  0  0  0  0  0  0  0  0
   58.1790   25.1380   44.6660 H   0  0  0  0  0  0  0  0  0  0  0  0
   59.9061   27.0324   45.0047 H   0  0  0  0  0  0  0  0  0  0  0  0
   60.2289   29.4979   44.8927 H   0  0  0  0  0  0  0  0  0  0  0  0
   58.0420   31.5111   42.8767 H   0  0  0  0  0  0  0  0  0  0  0  0
   58.4455   33.9612   42.7249 H   0  0  0  0  0  0  0  0  0  0  0  0
   58.9674   35.2826   44.7709 H   0  0  0  0  0  0  0  0  0  0  0  0
   59.3588   34.1281   49.4354 H   0  0  0  0  0  0  0  0  0  0  0  0
   58.9643   29.5166   48.9476 H   0  0  0  0  0  0  0  0  0  0  0  0
   60.4674   30.1104   49.7473 H   0  0  0  0  0  0  0  0  0  0  0  0
   59.0579   28.3073   50.9966 H   0  0  0  0  0  0  0  0  0  0  0  0
   59.5936   29.7445   51.9262 H   0  0  0  0  0  0  0  0  0  0  0  0
   56.4452   31.3657   51.7526 H   0  0  0  0  0  0  0  0  0  0  0  0
   57.8920   31.0933   52.8458 H   0  0  0  0  0  0  0  0  0  0  0  0
   57.7159   32.9340   50.7356 H   0  0  0  0  0  0  0  0  0  0  0  0
   59.2047   32.3787   51.6060 H   0  0  0  0  0  0  0  0  0  0  0  0
   55.9522   30.0752   45.2700 H   0  0  0  0  0  0  0  0  0  0  0  0
   55.6274   27.6081   45.3447 H   0  0  0  0  0  0  0  0  0  0  0  0
   56.2088   23.8212   48.5050 H   0  0  0  0  0  0  0  0  0  0  0  0
   56.3248   21.4762   49.8279 H   0  0  0  0  0  0  0  0  0  0  0  0
   56.7018   18.9999   49.6375 H   0  0  0  0  0  0  0  0  0  0  0  0
   57.1738   17.9636   47.4057 H   0  0  0  0  0  0  0  0  0  0  0  0
   57.2815   19.4028   45.3447 H   0  0  0  0  0  0  0  0  0  0  0  0
  1  2  2  0
  2  3  1  0
  3  4  1  0
  4  5  2  0
  5  6  1  0
  6  7  2  0
  7  8  1  0
  8  9  2  0
  9 10  1  0
 10 11  2  0
 11 12  1  0
 12 13  1  0
 13 14  2  0
 13 15  1  0
 15 16  2  0
 16 17  1  0
 17 18  1  0
 18 19  1  0
 19 20  1  0
 20 21  1  0
 21 22  1  0
 16 23  1  0
 23 24  1  0
  7 25  1  0
 25 26  2  0
  2 27  1  0
 27 28  2  0
 28 29  1  0
 29 30  2  0
 30 31  1  0
 31 32  2  0
 32 33  1  0
 33 34  2  0
 34 35  1  0
 26  4  1  0
 35 27  1  0
 24  8  1  0
 34 29  1  0
 24 12  2  0
 22 17  1  0
  3 36  1  0
  5 37  1  0
  6 38  1  0
  9 39  1  0
 10 40  1  0
 11 41  1  0
 15 42  1  0
 18 43  1  0
 18 44  1  0
 19 45  1  0
 19 46  1  0
 21 47  1  0
 21 48  1  0
 22 49  1  0
 22 50  1  0
 25 51  1  0
 26 52  1  0
 28 53  1  0
 30 54  1  0
 31 55  1  0
 32 56  1  0
 33 57  1  0
M  END
>  <UniqueID>  (78) 
73

>  <SMILES>  (78) 
O=C(Nc1ccc(-c2cccc3c(=O)cc(N4CCOCC4)oc23)cc1)c1cc2ccccc2s1

>  <Energy>  (78) 
117.7615894237901

>  <Genealogy>  (78) 
O=C(Nc1ccc(-c2cccc3c(=O)cc(N4CCOCC4)oc23)cc1)c1cc2ccccc2s1 (3D coordinates assigned)
O=C(Nc1ccc(-c2cccc3c(=O)cc(N4CCOCC4)oc23)cc1)c1cc2ccccc2s1 (nonaromatic ring conformer: 117.7615894237901 kcal/mol)

>  <smiles>  (78) 
O=C(Nc1ccc(-c2cccc3c(=O)cc(N4CCOCC4)oc23)cc1)c1cc2ccccc2s1

>  <score_type>  (78) 
oracle

>  <origin>  (78) 
adg

>  <m_score__min__energy>  (78) 
-9.0999999999999996

>  <m_primary>  (78) 
energy

$$$$
78:0
     RDKit          3D

 47 50  0  0  0  0  0  0  0  0999 V2000
   54.4820   29.3510   43.4890 O   0  0  0  0  0  0  0  0  0  0  0  0
   55.5080   29.5080   44.2040 C   0  0  0  0  0  0  0  0  0  0  0  0
   55.7700   28.5590   45.2480 N   0  0  0  0  0  0  0  0  0  0  0  0
   57.0540   28.0350   45.6210 C   0  0  0  0  0  0  0  0  0  0  0  0
   57.9870   28.8890   46.2240 C   0  0  0  0  0  0  0  0  0  0  0  0
   59.2580   28.4180   46.5690 C   0  0  0  0  0  0  0  0  0  0  0  0
   59.6110   27.0930   46.2980 C   0  0  0  0  0  0  0  0  0  0  0  0
   60.8470   26.6420   46.6200 F   0  0  0  0  0  0  0  0  0  0  0  0
   58.6920   26.2370   45.6850 C   0  0  0  0  0  0  0  0  0  0  0  0
   57.4220   26.7070   45.3330 C   0  0  0  0  0  0  0  0  0  0  0  0
   56.4430   30.6130   43.9080 C   0  0  0  0  0  0  0  0  0  0  0  0
   56.9190   30.8350   42.6070 C   0  0  0  0  0  0  0  0  0  0  0  0
   57.7780   31.9090   42.3660 C   0  0  0  0  0  0  0  0  0  0  0  0
   58.1590   32.7480   43.4150 C   0  0  0  0  0  0  0  0  0  0  0  0
   57.6810   32.4920   44.7090 C   0  0  0  0  0  0  0  0  0  0  0  0
   58.0210   33.3540   45.8110 N   0  0  0  0  0  0  0  0  0  0  0  0
   58.1280   32.7900   47.1680 C   0  0  0  0  0  0  0  0  0  0  0  0
   59.0230   33.6570   48.0630 C   0  0  0  0  0  0  0  0  0  0  0  0
   60.1850   34.1270   47.2950 N   0  0  0  0  0  0  0  0  0  0  0  0
   61.5270   33.8330   47.7290 C   0  0  0  0  0  0  0  0  0  0  0  0
   61.8970   34.0130   49.0700 C   0  0  0  0  0  0  0  0  0  0  0  0
   63.2060   33.7350   49.4670 C   0  0  0  0  0  0  0  0  0  0  0  0
   64.1190   33.3050   48.5570 N   0  0  0  0  0  0  0  0  0  0  0  0
   63.7920   33.1320   47.2490 C   0  0  0  0  0  0  0  0  0  0  0  0
   62.4930   33.3940   46.8100 C   0  0  0  0  0  0  0  0  0  0  0  0
   59.9760   34.8170   46.0120 C   0  0  0  0  0  0  0  0  0  0  0  0
   58.5170   34.7140   45.5590 C   0  0  0  0  0  0  0  0  0  0  0  0
   56.8480   31.4360   44.9130 N   0  0  0  0  0  0  0  0  0  0  0  0
   57.7182   29.9361   46.4273 H   0  0  0  0  0  0  0  0  0  0  0  0
   59.9804   29.0909   47.0540 H   0  0  0  0  0  0  0  0  0  0  0  0
   58.9675   25.1922   45.4789 H   0  0  0  0  0  0  0  0  0  0  0  0
   56.7092   26.0371   44.8299 H   0  0  0  0  0  0  0  0  0  0  0  0
   56.6183   30.1692   41.7846 H   0  0  0  0  0  0  0  0  0  0  0  0
   58.1548   32.0942   41.3493 H   0  0  0  0  0  0  0  0  0  0  0  0
   58.8275   33.6015   43.2287 H   0  0  0  0  0  0  0  0  0  0  0  0
   57.1235   32.7336   47.6128 H   0  0  0  0  0  0  0  0  0  0  0  0
   58.5773   31.7887   47.0934 H   0  0  0  0  0  0  0  0  0  0  0  0
   58.4492   34.5230   48.4247 H   0  0  0  0  0  0  0  0  0  0  0  0
   59.3696   33.0598   48.9193 H   0  0  0  0  0  0  0  0  0  0  0  0
   61.1602   34.3710   49.8042 H   0  0  0  0  0  0  0  0  0  0  0  0
   63.4993   33.8643   50.5193 H   0  0  0  0  0  0  0  0  0  0  0  0
   64.5529   32.7847   46.5346 H   0  0  0  0  0  0  0  0  0  0  0  0
   62.2282   33.2574   45.7511 H   0  0  0  0  0  0  0  0  0  0  0  0
   60.2416   35.8781   46.1279 H   0  0  0  0  0  0  0  0  0  0  0  0
   60.6113   34.3388   45.2519 H   0  0  0  0  0  0  0  0  0  0  0  0
   57.9068   35.4368   46.1204 H   0  0  0  0  0  0  0  0  0  0  0  0
   58.4504   34.9353   44.4836 H   0  0  0  0  0  0  0  0  0  0  0  0
  1  2  2  0
  2  3  1  0
  3  4  1  0
  4  5  2  0
  5  6  1  0
  6  7  2  0
  7  8  1  0
  7  9  1  0
  9 10  2  0
  2 11  1  0
 11 12  2  0
 12 13  1  0
 13 14  2  0
 14 15  1  0
 15 16  1  0
 16 17  1  0
 17 18  1  0
 18 19  1  0
 19 20  1  0
 20 21  2  0
 21 22  1  0
 22 23  2  0
 23 24  1  0
 24 25  2  0
 19 26  1  0
 26 27  1  0
 15 28  2  0
 10  4  1  0
 28 11  1  0
 27 16  1  0
 25 20  1  0
  5 29  1  0
  6 30  1  0
  9 31  1  0
 10 32  1  0
 12 33  1  0
 13 34  1  0
 14 35  1  0
 17 36  1  0
 17 37  1  0
 18 38  1  0
 18 39  1  0
 21 40  1  0
 22 41  1  0
 24 42  1  0
 25 43  1  0
 26 44  1  0
 26 45  1  0
 27 46  1  0
 27 47  1  0
M  CHG  1   3  -1
M  END
>  <UniqueID>  (79) 
74

>  <SMILES>  (79) 
O=C([N-]c1ccc(F)cc1)c1cccc(N2CCN(c3ccncc3)CC2)n1

>  <Energy>  (79) 
61.325691906979536

>  <Genealogy>  (79) 
O=C([N-]c1ccc(F)cc1)c1cccc(N2CCN(c3ccncc3)CC2)n1 (protonated)
O=C([N-]c1ccc(F)cc1)c1cccc(N2CCN(c3ccncc3)CC2)n1 (3D coordinates assigned)
O=C([N-]c1ccc(F)cc1)c1cccc(N2CCN(c3ccncc3)CC2)n1 (nonaromatic ring conformer: 61.325691906979536 kcal/mol)

>  <smiles>  (79) 
O=C(Nc1ccc(F)cc1)c1cccc(N2CCN(c3ccncc3)CC2)n1

>  <score_type>  (79) 
oracle

>  <origin>  (79) 
adg

>  <m_score__min__energy>  (79) 
-11.85

>  <m_primary>  (79) 
energy

$$$$
79:0
     RDKit          3D

 22 23  0  0  0  0  0  0  0  0999 V2000
   56.0350   29.4370   44.7180 O   0  0  0  0  0  0  0  0  0  0  0  0
   56.6320   30.4520   44.2780 C   0  0  0  0  0  0  0  0  0  0  0  0
   56.7230   31.6820   45.0010 N   0  0  0  0  0  0  0  0  0  0  0  0
   57.3950   32.4860   44.2380 C   0  0  0  0  0  0  0  0  0  0  0  0
   57.7770   33.8740   44.6430 C   0  0  0  0  0  0  0  0  0  0  0  0
   58.7370   33.8320   45.8020 C   0  0  0  0  0  0  0  0  0  0  0  0
   60.1100   34.0350   45.5800 C   0  0  0  0  0  0  0  0  0  0  0  0
   61.0080   34.0310   46.6520 C   0  0  0  0  0  0  0  0  0  0  0  0
   62.3310   34.2250   46.4290 F   0  0  0  0  0  0  0  0  0  0  0  0
   60.5410   33.8330   47.9540 C   0  0  0  0  0  0  0  0  0  0  0  0
   59.1760   33.6420   48.1860 C   0  0  0  0  0  0  0  0  0  0  0  0
   58.2740   33.6450   47.1180 C   0  0  0  0  0  0  0  0  0  0  0  0
   56.9510   33.4660   47.3690 F   0  0  0  0  0  0  0  0  0  0  0  0
   57.7860   31.8110   43.0040 C   0  0  0  0  0  0  0  0  0  0  0  0
   58.4600   32.3070   42.0640 O   0  0  0  0  0  0  0  0  0  0  0  0
   57.2880   30.4870   43.0180 N   0  0  0  0  0  0  0  0  0  0  0  0
   58.2559   34.3817   43.7928 H   0  0  0  0  0  0  0  0  0  0  0  0
   56.8722   34.4212   44.9461 H   0  0  0  0  0  0  0  0  0  0  0  0
   60.4803   34.1980   44.5571 H   0  0  0  0  0  0  0  0  0  0  0  0
   61.2479   33.8275   48.7967 H   0  0  0  0  0  0  0  0  0  0  0  0
   58.8104   33.4888   49.2121 H   0  0  0  0  0  0  0  0  0  0  0  0
   57.3870   29.7350   42.3010 H   0  0  0  0  0  0  0  0  0  0  0  0
  1  2  2  0
  2  3  1  0
  3  4  2  0
  4  5  1  0
  5  6  1  0
  6  7  2  0
  7  8  1  0
  8  9  1  0
  8 10  2  0
 10 11  1  0
 11 12  2  0
 12 13  1  0
  4 14  1  0
 14 15  2  0
 14 16  1  0
 16  2  1  0
 12  6  1  0
  5 17  1  0
  5 18  1  0
  7 19  1  0
 10 20  1  0
 11 21  1  0
 16 22  1  0
M  END
>  <UniqueID>  (80) 
75

>  <SMILES>  (80) 
O=C1N=C(Cc2cc(F)ccc2F)C(=O)N1

>  <Energy>  (80) 
49.60385911806942

>  <Genealogy>  (80) 
O=C1N=C(Cc2cc(F)ccc2F)C(=O)N1 (3D coordinates assigned)
O=C1N=C(Cc2cc(F)ccc2F)C(=O)N1 (nonaromatic ring conformer: 49.60385911806942 kcal/mol)

>  <smiles>  (80) 
O=C1N=C(Cc2cc(F)ccc2F)C(=O)N1

>  <score_type>  (80) 
oracle

>  <origin>  (80) 
adg

>  <m_score__min__energy>  (80) 
-6.6200000000000001

>  <m_primary>  (80) 
energy

$$$$
80:0
     RDKit          3D

 24 25  0  0  0  0  0  0  0  0999 V2000
   54.7630   26.3090   45.7640 N   0  0  0  0  0  0  0  0  0  0  0  0
   56.1230   26.2780   46.1910 C   0  0  0  0  0  0  0  0  0  0  0  0
   56.5840   25.2260   46.7070 O   0  0  0  0  0  0  0  0  0  0  0  0
   56.9720   27.4730   46.0200 C   0  0  0  0  0  0  0  0  0  0  0  0
   58.3020   27.5800   46.3900 C   0  0  0  0  0  0  0  0  0  0  0  0
   58.7700   28.7970   46.0530 N   0  0  0  0  0  0  0  0  0  0  0  0
   57.7850   29.4740   45.4840 N   0  0  0  0  0  0  0  0  0  0  0  0
   57.9330   30.8260   45.0210 C   0  0  0  0  0  0  0  0  0  0  0  0
   58.1910   31.8560   45.9400 C   0  0  0  0  0  0  0  0  0  0  0  0
   58.3090   33.1790   45.5040 C   0  0  0  0  0  0  0  0  0  0  0  0
   58.1550   33.4860   44.1500 C   0  0  0  0  0  0  0  0  0  0  0  0
   57.8750   32.4710   43.2310 C   0  0  0  0  0  0  0  0  0  0  0  0
   57.7570   31.1460   43.6640 C   0  0  0  0  0  0  0  0  0  0  0  0
   56.6780   28.6980   45.4410 C   0  0  0  0  0  0  0  0  0  0  0  0
   55.4590   29.0590   44.7800 N   0  0  0  0  0  0  0  0  0  0  0  0
   54.0210   26.7230   46.3690 H   0  0  0  0  0  0  0  0  0  0  0  0
   58.8875   26.7907   46.8842 H   0  0  0  0  0  0  0  0  0  0  0  0
   58.3009   31.6205   47.0089 H   0  0  0  0  0  0  0  0  0  0  0  0
   58.5233   33.9790   46.2279 H   0  0  0  0  0  0  0  0  0  0  0  0
   58.2541   34.5265   43.8071 H   0  0  0  0  0  0  0  0  0  0  0  0
   57.7472   32.7143   42.1659 H   0  0  0  0  0  0  0  0  0  0  0  0
   57.5255   30.3514   42.9394 H   0  0  0  0  0  0  0  0  0  0  0  0
   54.7640   28.3320   44.5060 H   0  0  0  0  0  0  0  0  0  0  0  0
   55.2060   30.0530   44.6000 H   0  0  0  0  0  0  0  0  0  0  0  0
  1  2  1  0
  2  3  2  0
  2  4  1  0
  4  5  1  0
  5  6  2  0
  6  7  1  0
  7  8  1  0
  8  9  2  0
  9 10  1  0
 10 11  2  0
 11 12  1  0
 12 13  2  0
  7 14  1  0
 14 15  1  0
 14  4  2  0
 13  8  1  0
  1 16  1  0
  5 17  1  0
  9 18  1  0
 10 19  1  0
 11 20  1  0
 12 21  1  0
 13 22  1  0
 15 23  1  0
 15 24  1  0
M  CHG  1   1  -1
M  END
>  <UniqueID>  (81) 
76

>  <SMILES>  (81) 
[NH-]C(=O)c1cnn(-c2ccccc2)c1N

>  <Energy>  (81) 
60.97892127353506

>  <Genealogy>  (81) 
[NH-]C(=O)c1cnn(-c2ccccc2)c1N (protonated)
[NH-]C(=O)c1cnn(-c2ccccc2)c1N (3D coordinates assigned)
[NH-]C(=O)c1cnn(-c2ccccc2)c1N (optimized conformer: 60.97892127353506 kcal/mol)

>  <smiles>  (81) 
NC(=O)c1cnn(-c2ccccc2)c1N

>  <score_type>  (81) 
oracle

>  <origin>  (81) 
adg

>  <m_score__min__energy>  (81) 
-9.8200000000000003

>  <m_primary>  (81) 
energy

$$$$
81:0
     RDKit          3D

 30 32  0  0  0  0  0  0  0  0999 V2000
   57.0780   30.3240   43.0980 O   0  0  0  0  0  0  0  0  0  0  0  0
   57.5990   30.2720   44.2450 C   0  0  0  0  0  0  0  0  0  0  0  0
   57.9520   31.5380   44.9340 C   0  0  0  0  0  0  0  0  0  0  0  0
   58.2370   31.5360   46.3120 C   0  0  0  0  0  0  0  0  0  0  0  0
   58.5860   32.7220   46.9660 C   0  0  0  0  0  0  0  0  0  0  0  0
   58.6640   33.9190   46.2510 C   0  0  0  0  0  0  0  0  0  0  0  0
   58.3980   33.9320   44.8800 C   0  0  0  0  0  0  0  0  0  0  0  0
   58.0480   32.7490   44.2210 C   0  0  0  0  0  0  0  0  0  0  0  0
   57.8160   28.9440   44.8680 C   0  0  0  0  0  0  0  0  0  0  0  0
   56.7150   28.1390   45.1850 C   0  0  0  0  0  0  0  0  0  0  0  0
   56.9060   26.8770   45.7730 C   0  0  0  0  0  0  0  0  0  0  0  0
   55.8380   26.0150   46.1340 C   0  0  0  0  0  0  0  0  0  0  0  0
   54.4930   26.3360   45.9330 O   0  0  0  0  0  0  0  0  0  0  0  0
   56.1240   24.7760   46.7230 C   0  0  0  0  0  0  0  0  0  0  0  0
   57.4420   24.3810   46.9550 C   0  0  0  0  0  0  0  0  0  0  0  0
   57.7050   23.1480   47.5400 O   0  0  0  0  0  0  0  0  0  0  0  0
   58.4960   25.2230   46.6010 C   0  0  0  0  0  0  0  0  0  0  0  0
   58.2390   26.4640   46.0120 C   0  0  0  0  0  0  0  0  0  0  0  0
   59.2610   27.2460   45.6790 O   0  0  0  0  0  0  0  0  0  0  0  0
   59.1060   28.4400   45.1220 C   0  0  0  0  0  0  0  0  0  0  0  0
   60.1290   29.1050   44.8070 O   0  0  0  0  0  0  0  0  0  0  0  0
   58.1849   30.5948   46.8790 H   0  0  0  0  0  0  0  0  0  0  0  0
   58.7993   32.7119   48.0451 H   0  0  0  0  0  0  0  0  0  0  0  0
   58.9349   34.8516   46.7676 H   0  0  0  0  0  0  0  0  0  0  0  0
   58.4639   34.8748   44.3172 H   0  0  0  0  0  0  0  0  0  0  0  0
   57.8466   32.7644   43.1397 H   0  0  0  0  0  0  0  0  0  0  0  0
   55.6964   28.4959   44.9729 H   0  0  0  0  0  0  0  0  0  0  0  0
   53.7190   25.8550   46.3690 H   0  0  0  0  0  0  0  0  0  0  0  0
   55.2987   24.1061   47.0061 H   0  0  0  0  0  0  0  0  0  0  0  0
   59.5338   24.9090   46.7862 H   0  0  0  0  0  0  0  0  0  0  0  0
  1  2  2  0
  2  3  1  0
  3  4  2  0
  4  5  1  0
  5  6  2  0
  6  7  1  0
  7  8  2  0
  2  9  1  0
  9 10  2  0
 10 11  1  0
 11 12  2  0
 12 13  1  0
 12 14  1  0
 14 15  2  0
 15 16  1  0
 15 17  1  0
 17 18  2  0
 18 19  1  0
 19 20  1  0
 20 21  2  0
  8  3  1  0
 20  9  1  0
 18 11  1  0
  4 22  1  0
  5 23  1  0
  6 24  1  0
  7 25  1  0
  8 26  1  0
 10 27  1  0
 13 28  1  0
 14 29  1  0
 17 30  1  0
M  CHG  1  16  -1
M  END
>  <UniqueID>  (82) 
77

>  <SMILES>  (82) 
O=C(c1ccccc1)c1cc2c(O)cc([O-])cc2oc1=O

>  <Energy>  (82) 
47.925584642037435

>  <Genealogy>  (82) 
O=C(c1ccccc1)c1cc2c(O)cc([O-])cc2oc1=O (protonated)
O=C(c1ccccc1)c1cc2c(O)cc([O-])cc2oc1=O (3D coordinates assigned)
O=C(c1ccccc1)c1cc2c(O)cc([O-])cc2oc1=O (optimized conformer: 47.925584642037435 kcal/mol)

>  <smiles>  (82) 
O=C(c1ccccc1)c1cc2c(O)cc(O)cc2oc1=O

>  <score_type>  (82) 
oracle

>  <origin>  (82) 
adg

>  <m_score__min__energy>  (82) 
-10.25

>  <m_primary>  (82) 
energy

$$$$
82:0
     RDKit          3D

 21 21  0  0  0  0  0  0  0  0999 V2000
   55.5090   25.8590   45.9910 N   0  0  0  0  0  0  0  0  0  0  0  0
   56.9510   25.9390   46.2250 C   0  0  0  0  0  0  0  0  0  0  0  0
   57.7660   25.5690   44.9760 C   0  0  0  0  0  0  0  0  0  0  0  0
   57.3930   24.2080   44.4400 C   0  0  0  0  0  0  0  0  0  0  0  0
   56.4010   24.0870   43.4520 C   0  0  0  0  0  0  0  0  0  0  0  0
   56.0360   22.8280   42.9680 C   0  0  0  0  0  0  0  0  0  0  0  0
   56.6540   21.6740   43.4700 C   0  0  0  0  0  0  0  0  0  0  0  0
   56.2980   20.4140   42.9950 O   0  0  0  0  0  0  0  0  0  0  0  0
   57.6390   21.7890   44.4570 C   0  0  0  0  0  0  0  0  0  0  0  0
   58.0070   23.0470   44.9440 C   0  0  0  0  0  0  0  0  0  0  0  0
   58.9610   23.1310   45.9060 F   0  0  0  0  0  0  0  0  0  0  0  0
   55.0080   26.3740   46.7510 H   0  0  0  0  0  0  0  0  0  0  0  0
   55.2830   26.3240   45.0820 H   0  0  0  0  0  0  0  0  0  0  0  0
   57.2048   26.9676   46.5211 H   0  0  0  0  0  0  0  0  0  0  0  0
   57.2038   25.2189   47.0172 H   0  0  0  0  0  0  0  0  0  0  0  0
   57.5804   26.3213   44.1952 H   0  0  0  0  0  0  0  0  0  0  0  0
   58.8286   25.5431   45.2591 H   0  0  0  0  0  0  0  0  0  0  0  0
   55.9091   24.9883   43.0575 H   0  0  0  0  0  0  0  0  0  0  0  0
   55.2619   22.7421   42.1912 H   0  0  0  0  0  0  0  0  0  0  0  0
   56.8830   19.6030   43.1570 H   0  0  0  0  0  0  0  0  0  0  0  0
   58.1263   20.8853   44.8518 H   0  0  0  0  0  0  0  0  0  0  0  0
  1  2  1  0
  2  3  1  0
  3  4  1  0
  4  5  2  0
  5  6  1  0
  6  7  2  0
  7  8  1  0
  7  9  1  0
  9 10  2  0
 10 11  1  0
 10  4  1  0
  1 12  1  0
  1 13  1  0
  2 14  1  0
  2 15  1  0
  3 16  1  0
  3 17  1  0
  5 18  1  0
  6 19  1  0
  8 20  1  0
  9 21  1  0
M  END
>  <UniqueID>  (83) 
78

>  <SMILES>  (83) 
NCCc1ccc(O)cc1F

>  <Energy>  (83) 
16.280315319768327

>  <Genealogy>  (83) 
NCCc1ccc(O)cc1F (3D coordinates assigned)
NCCc1ccc(O)cc1F (optimized conformer: 16.280315319768327 kcal/mol)

>  <smiles>  (83) 
NCCc1ccc(O)cc1F

>  <score_type>  (83) 
oracle

>  <origin>  (83) 
adg

>  <m_score__min__energy>  (83) 
-5.7599999999999998

>  <m_primary>  (83) 
energy

$$$$
83:0
     RDKit          3D

 30 32  0  0  0  0  0  0  0  0999 V2000
   52.5020   28.7680   54.1827 H   0  0  0  0  0  0  0  0  0  0  0  0
   52.8140   29.5050   53.4280 C   0  0  0  0  0  0  0  0  0  0  0  0
   54.1440   29.5480   53.0050 C   0  0  0  0  0  0  0  0  0  0  0  0
   54.8755   28.8435   53.4275 H   0  0  0  0  0  0  0  0  0  0  0  0
   54.5510   30.4820   52.0470 C   0  0  0  0  0  0  0  0  0  0  0  0
   55.9240   30.4970   51.6370 N   0  0  0  0  0  0  0  0  0  0  0  0
   56.8460   30.9750   52.3700 N   0  0  0  0  0  0  0  0  0  0  0  0
   57.6500   32.0820   51.9520 C   0  0  0  0  0  0  0  0  0  0  0  0
   57.7110   33.3060   52.6020 C   0  0  0  0  0  0  0  0  0  0  0  0
   57.1501   33.5656   53.5119 H   0  0  0  0  0  0  0  0  0  0  0  0
   58.5610   34.1330   51.9530 N   0  0  0  0  0  0  0  0  0  0  0  0
   58.8010   35.1140   52.2180 H   0  0  0  0  0  0  0  0  0  0  0  0
   59.0330   33.4390   50.9000 C   0  0  0  0  0  0  0  0  0  0  0  0
   59.9420   33.8820   49.9410 C   0  0  0  0  0  0  0  0  0  0  0  0
   60.3622   34.8976   49.9844 H   0  0  0  0  0  0  0  0  0  0  0  0
   60.3050   32.9910   48.9170 C   0  0  0  0  0  0  0  0  0  0  0  0
   61.0198   33.3096   48.1440 H   0  0  0  0  0  0  0  0  0  0  0  0
   59.7590   31.6900   48.8730 C   0  0  0  0  0  0  0  0  0  0  0  0
   60.0521   31.0023   48.0661 H   0  0  0  0  0  0  0  0  0  0  0  0
   58.8430   31.2660   49.8530 C   0  0  0  0  0  0  0  0  0  0  0  0
   58.4116   30.2544   49.8275 H   0  0  0  0  0  0  0  0  0  0  0  0
   58.4990   32.1720   50.8600 C   0  0  0  0  0  0  0  0  0  0  0  0
   53.6090   31.3800   51.5100 C   0  0  0  0  0  0  0  0  0  0  0  0
   53.9249   32.1162   50.7562 H   0  0  0  0  0  0  0  0  0  0  0  0
   52.2670   31.3430   51.9300 C   0  0  0  0  0  0  0  0  0  0  0  0
   51.2790   32.2890   51.3640 C   0  0  0  0  0  0  0  0  0  0  0  0
   50.3220   32.7110   52.0660 O   0  0  0  0  0  0  0  0  0  0  0  0
   51.3950   32.7240   50.0490 O   0  0  0  0  0  0  0  0  0  0  0  0
   51.8780   30.3960   52.8950 C   0  0  0  0  0  0  0  0  0  0  0  0
   50.8316   30.3565   53.2319 H   0  0  0  0  0  0  0  0  0  0  0  0
  1  2  1  0
  2  3  2  0
  3  4  1  0
  3  5  1  0
  5  6  1  0
  6  7  2  0
  7  8  1  0
  8  9  2  0
  9 10  1  0
  9 11  1  0
 11 12  1  0
 11 13  1  0
 13 14  2  0
 14 15  1  0
 14 16  1  0
 16 17  1  0
 16 18  2  0
 18 19  1  0
 18 20  1  0
 20 21  1  0
 20 22  2  0
  5 23  2  0
 23 24  1  0
 23 25  1  0
 25 26  1  0
 26 27  2  0
 26 28  1  0
 25 29  2  0
 29 30  1  0
 29  2  1  0
 22  8  1  0
 22 13  1  0
M  CHG  1  28  -1
M  END
>  <UniqueID>  (84) 
79

>  <SMILES>  (84) 
O=C([O-])c1cccc(/N=N/c2c[nH]c3ccccc23)c1

>  <Energy>  (84) 
68.22020403706625

>  <Genealogy>  (84) 
O=C([O-])c1cccc(N=Nc2c[nH]c3ccccc23)c1 (protonated)
O=C([O-])c1cccc(/N=N/c2c[nH]c3ccccc23)c1 (cis-trans isomerization)
O=C([O-])c1cccc(/N=N/c2c[nH]c3ccccc23)c1 (3D coordinates assigned)
O=C([O-])c1cccc(/N=N/c2c[nH]c3ccccc23)c1 (optimized conformer: 68.22020403706625 kcal/mol)

>  <smiles>  (84) 
O=C(O)c1cccc(N=Nc2c[nH]c3ccccc23)c1

>  <score_type>  (84) 
oracle

>  <origin>  (84) 
adg

>  <m_score__min__energy>  (84) 
-10.85

>  <m_primary>  (84) 
energy

$$$$
84:0
     RDKit          3D

 41 44  0  0  0  0  0  0  0  0999 V2000
   51.0330   30.5300   48.1150 O   0  0  0  0  0  0  0  0  0  0  0  0
   51.2220   30.8400   49.3200 C   0  0  0  0  0  0  0  0  0  0  0  0
   50.6940   31.9450   49.8870 N   0  0  0  0  0  0  0  0  0  0  0  0
   51.0570   32.0420   51.1930 C   0  0  0  0  0  0  0  0  0  0  0  0
   50.6470   33.1070   51.9860 O   0  0  0  0  0  0  0  0  0  0  0  0
   51.8610   31.0080   51.6660 C   0  0  0  0  0  0  0  0  0  0  0  0
   52.4590   30.9000   53.0340 C   0  0  0  0  0  0  0  0  0  0  0  0
   53.9350   30.6270   52.9350 C   0  0  0  0  0  0  0  0  0  0  0  0
   54.7020   31.2420   51.9330 C   0  0  0  0  0  0  0  0  0  0  0  0
   56.0790   31.0150   51.8620 C   0  0  0  0  0  0  0  0  0  0  0  0
   56.7130   30.1800   52.7880 C   0  0  0  0  0  0  0  0  0  0  0  0
   58.0980   29.9830   52.6660 O   0  0  0  0  0  0  0  0  0  0  0  0
   58.7370   29.2410   51.6260 C   0  0  0  0  0  0  0  0  0  0  0  0
   59.0460   30.1300   50.4510 C   0  0  0  0  0  0  0  0  0  0  0  0
   59.2180   29.5770   49.1730 C   0  0  0  0  0  0  0  0  0  0  0  0
   59.5100   30.4090   48.0930 C   0  0  0  0  0  0  0  0  0  0  0  0
   59.6370   31.7870   48.2900 C   0  0  0  0  0  0  0  0  0  0  0  0
   59.9270   32.6480   47.2200 C   0  0  0  0  0  0  0  0  0  0  0  0
   60.0520   34.0230   47.4430 C   0  0  0  0  0  0  0  0  0  0  0  0
   59.8900   34.5450   48.7290 C   0  0  0  0  0  0  0  0  0  0  0  0
   59.6000   33.6960   49.8010 C   0  0  0  0  0  0  0  0  0  0  0  0
   59.4710   32.3130   49.5920 C   0  0  0  0  0  0  0  0  0  0  0  0
   59.1880   31.4760   50.6330 N   0  0  0  0  0  0  0  0  0  0  0  0
   55.9470   29.5770   53.8040 C   0  0  0  0  0  0  0  0  0  0  0  0
   54.5690   29.8010   53.8770 C   0  0  0  0  0  0  0  0  0  0  0  0
   52.1530   29.9420   50.3940 S   0  0  0  0  0  0  0  0  0  0  0  0
   52.2995   31.8438   53.5760 H   0  0  0  0  0  0  0  0  0  0  0  0
   51.9758   30.0716   53.5728 H   0  0  0  0  0  0  0  0  0  0  0  0
   54.2174   31.9049   51.2011 H   0  0  0  0  0  0  0  0  0  0  0  0
   56.6703   31.4978   51.0700 H   0  0  0  0  0  0  0  0  0  0  0  0
   59.6742   28.8129   52.0112 H   0  0  0  0  0  0  0  0  0  0  0  0
   58.0594   28.4402   51.2951 H   0  0  0  0  0  0  0  0  0  0  0  0
   59.1228   28.4913   49.0237 H   0  0  0  0  0  0  0  0  0  0  0  0
   59.6402   29.9818   47.0877 H   0  0  0  0  0  0  0  0  0  0  0  0
   60.0559   32.2413   46.2061 H   0  0  0  0  0  0  0  0  0  0  0  0
   60.2787   34.6960   46.6030 H   0  0  0  0  0  0  0  0  0  0  0  0
   59.9910   35.6272   48.8983 H   0  0  0  0  0  0  0  0  0  0  0  0
   59.4724   34.1122   50.8112 H   0  0  0  0  0  0  0  0  0  0  0  0
   59.0720   31.8720   51.5940 H   0  0  0  0  0  0  0  0  0  0  0  0
   56.4354   28.9262   54.5442 H   0  0  0  0  0  0  0  0  0  0  0  0
   53.9789   29.3281   54.6758 H   0  0  0  0  0  0  0  0  0  0  0  0
  1  2  2  0
  2  3  1  0
  3  4  1  0
  4  5  1  0
  4  6  2  0
  6  7  1  0
  7  8  1  0
  8  9  2  0
  9 10  1  0
 10 11  2  0
 11 12  1  0
 12 13  1  0
 13 14  1  0
 14 15  2  0
 15 16  1  0
 16 17  2  0
 17 18  1  0
 18 19  2  0
 19 20  1  0
 20 21  2  0
 21 22  1  0
 22 23  2  0
 11 24  1  0
 24 25  2  0
  6 26  1  0
 26  2  1  0
 25  8  1  0
 23 14  1  0
 22 17  1  0
  7 27  1  0
  7 28  1  0
  9 29  1  0
 10 30  1  0
 13 31  1  0
 13 32  1  0
 15 33  1  0
 16 34  1  0
 18 35  1  0
 19 36  1  0
 20 37  1  0
 21 38  1  0
 23 39  1  0
 24 40  1  0
 25 41  1  0
M  CHG  3   3  -1   5  -1  23   1
M  END
>  <UniqueID>  (85) 
80

>  <SMILES>  (85) 
O=c1[n-]c([O-])c(Cc2ccc(OCc3ccc4ccccc4[nH+]3)cc2)s1

>  <Energy>  (85) 
77.39734205807018

>  <Genealogy>  (85) 
O=c1[n-]c([O-])c(Cc2ccc(OCc3ccc4ccccc4[nH+]3)cc2)s1 (protonated)
O=c1[n-]c([O-])c(Cc2ccc(OCc3ccc4ccccc4[nH+]3)cc2)s1 (3D coordinates assigned)
O=c1[n-]c([O-])c(Cc2ccc(OCc3ccc4ccccc4[nH+]3)cc2)s1 (optimized conformer: 77.39734205807018 kcal/mol)

>  <smiles>  (85) 
O=c1[nH]c(O)c(Cc2ccc(OCc3ccc4ccccc4n3)cc2)s1

>  <score_type>  (85) 
oracle

>  <origin>  (85) 
adg

>  <m_score__min__energy>  (85) 
-13.59

>  <m_primary>  (85) 
energy

$$$$
85:0
     RDKit          3D

 36 38  0  0  0  0  0  0  0  0999 V2000
   56.1710   31.1810   44.5050 O   0  0  0  0  0  0  0  0  0  0  0  0
   57.5280   31.6370   44.0450 S   0  0  0  0  0  0  0  0  0  0  0  0
   57.3900   32.2120   42.6630 O   0  0  0  0  0  0  0  0  0  0  0  0
   58.6060   30.2710   44.0040 N   0  0  0  0  0  0  0  0  0  0  0  0
   57.9980   29.0800   44.6310 C   0  0  2  0  0  0  0  0  0  0  0  0
   57.7720   29.3230   46.1490 C   0  0  0  0  0  0  0  0  0  0  0  0
   58.2580   28.1770   46.9570 N   0  0  0  0  0  0  0  0  0  0  0  0
   59.7280   28.0710   46.8080 C   0  0  0  0  0  0  0  0  0  0  0  0
   60.1250   27.8580   45.3260 C   0  0  0  0  0  0  0  0  0  0  0  0
   58.8470   27.7860   44.4580 C   0  0  0  0  0  0  0  0  0  0  0  0
   58.0020   26.6200   45.0040 C   0  0  0  0  0  0  0  0  0  0  0  0
   57.6230   26.9200   46.4800 C   0  0  0  0  0  0  0  0  0  0  0  0
   58.1300   32.8670   45.1540 C   0  0  0  0  0  0  0  0  0  0  0  0
   58.0110   32.6780   46.5380 C   0  0  0  0  0  0  0  0  0  0  0  0
   58.5220   33.6320   47.4230 C   0  0  0  0  0  0  0  0  0  0  0  0
   59.1560   34.7760   46.9300 C   0  0  0  0  0  0  0  0  0  0  0  0
   59.2810   34.9670   45.5510 C   0  0  0  0  0  0  0  0  0  0  0  0
   58.7690   34.0140   44.6630 C   0  0  0  0  0  0  0  0  0  0  0  0
   58.8440   30.1020   43.0030 H   0  0  0  0  0  0  0  0  0  0  0  0
   57.0414   28.9245   44.1107 H   0  0  0  0  0  0  0  0  0  0  0  0
   58.3152   30.2305   46.4513 H   0  0  0  0  0  0  0  0  0  0  0  0
   56.6924   29.4387   46.3250 H   0  0  0  0  0  0  0  0  0  0  0  0
   60.1939   28.9974   47.1750 H   0  0  0  0  0  0  0  0  0  0  0  0
   60.0764   27.2055   47.3906 H   0  0  0  0  0  0  0  0  0  0  0  0
   60.7507   28.6977   44.9892 H   0  0  0  0  0  0  0  0  0  0  0  0
   60.6897   26.9191   45.2278 H   0  0  0  0  0  0  0  0  0  0  0  0
   59.1226   27.6620   43.4003 H   0  0  0  0  0  0  0  0  0  0  0  0
   57.0873   26.5137   44.4024 H   0  0  0  0  0  0  0  0  0  0  0  0
   58.5791   25.6851   44.9505 H   0  0  0  0  0  0  0  0  0  0  0  0
   56.5302   27.0196   46.5560 H   0  0  0  0  0  0  0  0  0  0  0  0
   57.9831   26.0903   47.1060 H   0  0  0  0  0  0  0  0  0  0  0  0
   57.5146   31.7773   46.9284 H   0  0  0  0  0  0  0  0  0  0  0  0
   58.4250   33.4822   48.5084 H   0  0  0  0  0  0  0  0  0  0  0  0
   59.5567   35.5263   47.6275 H   0  0  0  0  0  0  0  0  0  0  0  0
   59.7819   35.8665   45.1636 H   0  0  0  0  0  0  0  0  0  0  0  0
   58.8682   34.1653   43.5780 H   0  0  0  0  0  0  0  0  0  0  0  0
  1  2  2  0
  2  3  2  0
  2  4  1  0
  4  5  1  0
  5  6  1  0
  6  7  1  0
  7  8  1  0
  8  9  1  0
  9 10  1  0
 10 11  1  0
 11 12  1  0
  2 13  1  0
 13 14  2  0
 14 15  1  0
 15 16  2  0
 16 17  1  0
 17 18  2  0
 10  5  1  0
 18 13  1  0
 12  7  1  0
  4 19  1  0
  5 20  1  6
  6 21  1  0
  6 22  1  0
  8 23  1  0
  8 24  1  0
  9 25  1  0
  9 26  1  0
 10 27  1  0
 11 28  1  0
 11 29  1  0
 12 30  1  0
 12 31  1  0
 14 32  1  0
 15 33  1  0
 16 34  1  0
 17 35  1  0
 18 36  1  0
M  END
>  <UniqueID>  (86) 
81

>  <SMILES>  (86) 
O=S(=O)(N[C@@H]1CN2CCC1CC2)c1ccccc1

>  <Energy>  (86) 
51.615166713673354

>  <Genealogy>  (86) 
O=S(=O)(N[C@@H]1CN2CCC1CC2)c1ccccc1 (chirality)
O=S(=O)(N[C@@H]1CN2CCC1CC2)c1ccccc1 (3D coordinates assigned)
O=S(=O)(N[C@@H]1CN2CCC1CC2)c1ccccc1 (nonaromatic ring conformer: 51.615166713673354 kcal/mol)

>  <smiles>  (86) 
O=S(=O)(NC1CN2CCC1CC2)c1ccccc1

>  <score_type>  (86) 
oracle

>  <origin>  (86) 
adg

>  <m_score__min__energy>  (86) 
-7.6799999999999997

>  <m_primary>  (86) 
energy

$$$$
86:0
     RDKit          3D

 30 32  0  0  0  0  0  0  0  0999 V2000
   56.1480   29.7170   42.6270 C   0  0  0  0  0  0  0  0  0  0  0  0
   55.9500   30.3710   43.9170 N   0  0  0  0  0  0  0  0  0  0  0  0
   57.0260   30.8760   44.7270 C   0  0  0  0  0  0  0  0  0  0  0  0
   57.3190   32.2510   44.7980 C   0  0  0  0  0  0  0  0  0  0  0  0
   58.3720   32.7120   45.5930 C   0  0  0  0  0  0  0  0  0  0  0  0
   59.1580   31.8110   46.3340 C   0  0  0  0  0  0  0  0  0  0  0  0
   60.2760   32.2940   47.1820 C   0  0  0  0  0  0  0  0  0  0  0  0
   61.5490   31.8180   47.1220 N   0  0  0  0  0  0  0  0  0  0  0  0
   62.3680   32.4370   48.0120 C   0  0  0  0  0  0  0  0  0  0  0  0
   63.7260   32.1520   48.1780 C   0  0  0  0  0  0  0  0  0  0  0  0
   64.4540   32.8700   49.1420 C   0  0  0  0  0  0  0  0  0  0  0  0
   63.8210   33.8560   49.9260 C   0  0  0  0  0  0  0  0  0  0  0  0
   62.4560   34.1330   49.7510 C   0  0  0  0  0  0  0  0  0  0  0  0
   61.7580   33.4070   48.7880 C   0  0  0  0  0  0  0  0  0  0  0  0
   60.1390   33.5080   48.3640 S   0  0  0  0  0  0  0  0  0  0  0  0
   58.8580   30.4390   46.2670 C   0  0  0  0  0  0  0  0  0  0  0  0
   57.8060   29.9780   45.4700 C   0  0  0  0  0  0  0  0  0  0  0  0
   56.4633   28.6756   42.7884 H   0  0  0  0  0  0  0  0  0  0  0  0
   55.2053   29.7311   42.0603 H   0  0  0  0  0  0  0  0  0  0  0  0
   56.9246   30.2515   42.0603 H   0  0  0  0  0  0  0  0  0  0  0  0
   54.9670   30.4710   44.2610 H   0  0  0  0  0  0  0  0  0  0  0  0
   56.7145   32.9682   44.2233 H   0  0  0  0  0  0  0  0  0  0  0  0
   58.5881   33.7895   45.6397 H   0  0  0  0  0  0  0  0  0  0  0  0
   61.8690   31.0510   46.4900 H   0  0  0  0  0  0  0  0  0  0  0  0
   64.2157   31.3804   47.5658 H   0  0  0  0  0  0  0  0  0  0  0  0
   65.5244   32.6614   49.2858 H   0  0  0  0  0  0  0  0  0  0  0  0
   64.3998   34.4112   50.6788 H   0  0  0  0  0  0  0  0  0  0  0  0
   61.9521   34.9008   50.3564 H   0  0  0  0  0  0  0  0  0  0  0  0
   59.4568   29.7215   46.8472 H   0  0  0  0  0  0  0  0  0  0  0  0
   57.5880   28.9008   45.4252 H   0  0  0  0  0  0  0  0  0  0  0  0
  1  2  1  0
  2  3  1  0
  3  4  2  0
  4  5  1  0
  5  6  2  0
  6  7  1  0
  7  8  2  0
  8  9  1  0
  9 10  2  0
 10 11  1  0
 11 12  2  0
 12 13  1  0
 13 14  2  0
 14 15  1  0
  6 16  1  0
 16 17  2  0
 17  3  1  0
 15  7  1  0
 14  9  1  0
  1 18  1  0
  1 19  1  0
  1 20  1  0
  2 21  1  0
  4 22  1  0
  5 23  1  0
  8 24  1  0
 10 25  1  0
 11 26  1  0
 12 27  1  0
 13 28  1  0
 16 29  1  0
 17 30  1  0
M  CHG  1   8   1
M  END
>  <UniqueID>  (87) 
82

>  <SMILES>  (87) 
CNc1ccc(-c2[nH+]c3ccccc3s2)cc1

>  <Energy>  (87) 
67.79387649960468

>  <Genealogy>  (87) 
CNc1ccc(-c2[nH+]c3ccccc3s2)cc1 (protonated)
CNc1ccc(-c2[nH+]c3ccccc3s2)cc1 (3D coordinates assigned)
CNc1ccc(-c2[nH+]c3ccccc3s2)cc1 (optimized conformer: 67.79387649960468 kcal/mol)

>  <smiles>  (87) 
CNc1ccc(-c2nc3ccccc3s2)cc1

>  <score_type>  (87) 
oracle

>  <origin>  (87) 
adg

>  <m_score__min__energy>  (87) 
-4.8499999999999996

>  <m_primary>  (87) 
energy

$$$$
87:0
     RDKit          3D

 37 40  0  0  0  0  0  0  0  0999 V2000
   56.1920   27.8320   45.4690 O   0  0  0  0  0  0  0  0  0  0  0  0
   56.5610   29.1450   45.1960 C   0  0  0  0  0  0  0  0  0  0  0  0
   55.9410   29.9680   44.2880 C   0  0  0  0  0  0  0  0  0  0  0  0
   54.8690   29.6250   43.4710 O   0  0  0  0  0  0  0  0  0  0  0  0
   56.5740   31.1920   44.3410 C   0  0  0  0  0  0  0  0  0  0  0  0
   57.5780   31.0570   45.2940 C   0  0  0  0  0  0  0  0  0  0  0  0
   58.5520   32.1190   45.6300 C   0  0  0  0  0  0  0  0  0  0  0  0
   58.2140   33.4760   45.4860 C   0  0  0  0  0  0  0  0  0  0  0  0
   59.1400   34.4730   45.8110 C   0  0  0  0  0  0  0  0  0  0  0  0
   60.4030   34.1240   46.2920 C   0  0  0  0  0  0  0  0  0  0  0  0
   60.7430   32.7790   46.4570 C   0  0  0  0  0  0  0  0  0  0  0  0
   61.9680   32.4430   46.9290 F   0  0  0  0  0  0  0  0  0  0  0  0
   59.8200   31.7790   46.1320 C   0  0  0  0  0  0  0  0  0  0  0  0
   57.5630   29.8020   45.8170 N   0  0  0  0  0  0  0  0  0  0  0  0
   58.3610   29.2840   46.8960 C   0  0  0  0  0  0  0  0  0  0  0  0
   58.9990   28.0420   46.7740 C   0  0  0  0  0  0  0  0  0  0  0  0
   59.7690   27.5370   47.8250 C   0  0  0  0  0  0  0  0  0  0  0  0
   59.9210   28.2650   49.0200 C   0  0  0  0  0  0  0  0  0  0  0  0
   60.7430   27.7070   50.1250 C   0  0  0  0  0  0  0  0  0  0  0  0
   61.4710   28.4800   51.0360 C   0  0  0  0  0  0  0  0  0  0  0  0
   62.2340   27.4350   52.1070 S   0  0  0  0  0  0  0  0  0  0  0  0
   61.6200   26.0500   51.3860 C   0  0  0  0  0  0  0  0  0  0  0  0
   60.8340   26.3630   50.3340 N   0  0  0  0  0  0  0  0  0  0  0  0
   59.2900   29.5200   49.1290 C   0  0  0  0  0  0  0  0  0  0  0  0
   58.5200   30.0220   48.0760 C   0  0  0  0  0  0  0  0  0  0  0  0
   55.0150   29.0910   42.6230 H   0  0  0  0  0  0  0  0  0  0  0  0
   56.3345   32.0893   43.7516 H   0  0  0  0  0  0  0  0  0  0  0  0
   57.2165   33.7552   45.1159 H   0  0  0  0  0  0  0  0  0  0  0  0
   58.8726   35.5328   45.6874 H   0  0  0  0  0  0  0  0  0  0  0  0
   61.1318   34.9092   46.5415 H   0  0  0  0  0  0  0  0  0  0  0  0
   60.0881   30.7212   46.2701 H   0  0  0  0  0  0  0  0  0  0  0  0
   58.8930   27.4615   45.8457 H   0  0  0  0  0  0  0  0  0  0  0  0
   60.2619   26.5595   47.7172 H   0  0  0  0  0  0  0  0  0  0  0  0
   61.5328   29.5782   51.0486 H   0  0  0  0  0  0  0  0  0  0  0  0
   61.8297   25.0247   51.7249 H   0  0  0  0  0  0  0  0  0  0  0  0
   59.4043   30.1097   50.0505 H   0  0  0  0  0  0  0  0  0  0  0  0
   58.0350   31.0044   48.1747 H   0  0  0  0  0  0  0  0  0  0  0  0
  1  2  1  0
  2  3  2  0
  3  4  1  0
  3  5  1  0
  5  6  2  0
  6  7  1  0
  7  8  2  0
  8  9  1  0
  9 10  2  0
 10 11  1  0
 11 12  1  0
 11 13  2  0
  6 14  1  0
 14 15  1  0
 15 16  2  0
 16 17  1  0
 17 18  2  0
 18 19  1  0
 19 20  2  0
 20 21  1  0
 21 22  1  0
 22 23  2  0
 18 24  1  0
 24 25  2  0
 14  2  1  0
 25 15  1  0
 13  7  1  0
 23 19  1  0
  4 26  1  0
  5 27  1  0
  8 28  1  0
  9 29  1  0
 10 30  1  0
 13 31  1  0
 16 32  1  0
 17 33  1  0
 20 34  1  0
 22 35  1  0
 24 36  1  0
 25 37  1  0
M  CHG  1   1  -1
M  END
>  <UniqueID>  (88) 
83

>  <SMILES>  (88) 
[O-]c1c(O)cc(-c2cccc(F)c2)n1-c1ccc(-c2cscn2)cc1

>  <Energy>  (88) 
111.57193438152042

>  <Genealogy>  (88) 
[O-]c1c(O)cc(-c2cccc(F)c2)n1-c1ccc(-c2cscn2)cc1 (protonated)
[O-]c1c(O)cc(-c2cccc(F)c2)n1-c1ccc(-c2cscn2)cc1 (3D coordinates assigned)
[O-]c1c(O)cc(-c2cccc(F)c2)n1-c1ccc(-c2cscn2)cc1 (optimized conformer: 111.57193438152042 kcal/mol)

>  <smiles>  (88) 
Oc1cc(-c2cccc(F)c2)n(-c2ccc(-c3cscn3)cc2)c1O

>  <score_type>  (88) 
oracle

>  <origin>  (88) 
adg

>  <m_score__min__energy>  (88) 
-9.0999999999999996

>  <m_primary>  (88) 
energy

$$$$
88:0
     RDKit          3D

 21 23  0  0  0  0  0  0  0  0999 V2000
   59.7430   23.4010   45.6770 O   0  0  0  0  0  0  0  0  0  0  0  0
   58.7260   24.3570   45.7240 C   0  0  0  0  0  0  0  0  0  0  0  0
   57.4220   23.8990   45.4490 C   0  0  0  0  0  0  0  0  0  0  0  0
   56.3680   24.7890   45.5770 C   0  0  0  0  0  0  0  0  0  0  0  0
   55.0140   24.6370   45.4080 C   0  0  0  0  0  0  0  0  0  0  0  0
   54.4240   25.8250   45.6760 N   0  0  0  0  0  0  0  0  0  0  0  0
   55.3580   26.7120   46.0060 N   0  0  0  0  0  0  0  0  0  0  0  0
   56.5460   26.0830   45.9500 C   0  0  0  0  0  0  0  0  0  0  0  0
   57.8160   26.6080   46.2040 C   0  0  0  0  0  0  0  0  0  0  0  0
   57.9860   27.9510   46.5680 C   0  0  0  0  0  0  0  0  0  0  0  0
   59.2630   28.4610   46.7760 C   0  0  0  0  0  0  0  0  0  0  0  0
   60.3800   27.6460   46.6010 C   0  0  0  0  0  0  0  0  0  0  0  0
   60.2370   26.3020   46.2380 C   0  0  0  0  0  0  0  0  0  0  0  0
   61.3730   25.6050   46.0000 F   0  0  0  0  0  0  0  0  0  0  0  0
   58.9480   25.7390   46.0630 C   0  0  0  0  0  0  0  0  0  0  0  0
   60.2640   23.1620   44.8470 H   0  0  0  0  0  0  0  0  0  0  0  0
   57.2450   22.8583   45.1397 H   0  0  0  0  0  0  0  0  0  0  0  0
   54.4994   23.7124   45.1076 H   0  0  0  0  0  0  0  0  0  0  0  0
   57.1080   28.6025   46.6893 H   0  0  0  0  0  0  0  0  0  0  0  0
   59.3918   29.5104   47.0795 H   0  0  0  0  0  0  0  0  0  0  0  0
   61.3864   28.0643   46.7500 H   0  0  0  0  0  0  0  0  0  0  0  0
  1  2  1  0
  2  3  2  0
  3  4  1  0
  4  5  2  0
  5  6  1  0
  6  7  1  0
  7  8  2  0
  8  9  1  0
  9 10  2  0
 10 11  1  0
 11 12  2  0
 12 13  1  0
 13 14  1  0
 13 15  2  0
 15  2  1  0
  8  4  1  0
 15  9  1  0
  1 16  1  0
  3 17  1  0
  5 18  1  0
 10 19  1  0
 11 20  1  0
 12 21  1  0
M  CHG  1   6  -1
M  END
>  <UniqueID>  (89) 
84

>  <SMILES>  (89) 
Oc1cc2c[n-]nc2c2cccc(F)c12

>  <Energy>  (89) 
71.43086213058908

>  <Genealogy>  (89) 
Oc1cc2c[n-]nc2c2cccc(F)c12 (protonated)
Oc1cc2c[n-]nc2c2cccc(F)c12 (3D coordinates assigned)
Oc1cc2c[n-]nc2c2cccc(F)c12 (optimized conformer: 71.43086213058908 kcal/mol)

>  <smiles>  (89) 
Oc1cc2c[nH]nc2c2cccc(F)c12

>  <score_type>  (89) 
oracle

>  <origin>  (89) 
adg

>  <m_score__min__energy>  (89) 
-7.8099999999999996

>  <m_primary>  (89) 
energy

$$$$
89:0
     RDKit          3D

104108  0  0  0  0  0  0  0  0999 V2000
   66.0891   32.9707   49.2406 H   0  0  0  0  0  0  0  0  0  0  0  0
   65.0190   33.1140   49.4510 C   0  0  0  0  0  0  0  0  0  0  0  0
   64.1520   33.4730   48.4150 C   0  0  0  0  0  0  0  0  0  0  0  0
   64.5465   33.6321   47.4006 H   0  0  0  0  0  0  0  0  0  0  0  0
   62.7820   33.6310   48.6640 C   0  0  0  0  0  0  0  0  0  0  0  0
   62.2820   33.4450   49.9550 C   0  0  0  0  0  0  0  0  0  0  0  0
   63.1610   33.1170   50.9990 C   0  0  0  0  0  0  0  0  0  0  0  0
   62.7687   33.0011   52.0201 H   0  0  0  0  0  0  0  0  0  0  0  0
   64.5360   32.9340   50.7610 C   0  0  0  0  0  0  0  0  0  0  0  0
   65.4340   32.5930   51.8420 N   0  0  0  0  0  0  0  0  0  0  0  0
   65.2240   32.9840   53.2270 C   0  0  0  0  0  0  0  0  0  0  0  0
   65.0688   34.0706   53.2994 H   0  0  0  0  0  0  0  0  0  0  0  0
   64.3327   32.5012   53.6543 H   0  0  0  0  0  0  0  0  0  0  0  0
   66.4900   32.5790   53.9660 C   0  0  0  0  0  0  0  0  0  0  0  0
   67.1430   33.4514   54.1158 H   0  0  0  0  0  0  0  0  0  0  0  0
   66.2666   32.1698   54.9623 H   0  0  0  0  0  0  0  0  0  0  0  0
   67.1740   31.5490   53.0730 C   0  0  0  0  0  0  0  0  0  0  0  0
   68.2655   31.6830   53.0996 H   0  0  0  0  0  0  0  0  0  0  0  0
   66.9665   30.5214   53.4062 H   0  0  0  0  0  0  0  0  0  0  0  0
   66.6430   31.8020   51.6710 C   0  0  0  0  0  0  0  0  0  0  0  0
   67.3829   32.3570   51.0755 H   0  0  0  0  0  0  0  0  0  0  0  0
   66.4393   30.8609   51.1392 H   0  0  0  0  0  0  0  0  0  0  0  0
   60.8270   33.7110   50.2650 C   0  0  0  0  0  0  0  0  0  0  0  0
   60.7555   34.7088   50.7225 H   0  0  0  0  0  0  0  0  0  0  0  0
   60.5065   32.8935   50.9276 H   0  0  0  0  0  0  0  0  0  0  0  0
   59.9020   33.6750   49.0970 N   0  0  0  0  0  0  0  0  0  0  0  0
   58.7320   32.8130   49.3770 C   0  0  0  0  0  0  0  0  0  0  0  0
   58.1682   33.2477   50.2155 H   0  0  0  0  0  0  0  0  0  0  0  0
   59.1113   31.8086   49.6163 H   0  0  0  0  0  0  0  0  0  0  0  0
   57.7870   32.6750   48.1680 C   0  0  0  0  0  0  0  0  0  0  0  0
   56.7467   32.7073   48.5241 H   0  0  0  0  0  0  0  0  0  0  0  0
   58.0063   31.7184   47.6711 H   0  0  0  0  0  0  0  0  0  0  0  0
   57.9980   33.8060   47.1420 C   0  0  2  0  0  0  0  0  0  0  0  0
   57.7686   34.7541   47.6503 H   0  0  0  0  0  0  0  0  0  0  0  0
   57.0320   33.6700   45.9560 C   0  0  0  0  0  0  0  0  0  0  0  0
   56.0088   33.5330   46.3357 H   0  0  0  0  0  0  0  0  0  0  0  0
   57.0885   34.5817   45.3431 H   0  0  0  0  0  0  0  0  0  0  0  0
   57.4070   32.4910   45.1100 C   0  0  0  0  0  0  0  0  0  0  0  0
   56.4670   31.8400   44.5100 N   0  0  0  0  0  0  0  0  0  0  0  0
   56.3000   30.4050   44.5030 C   0  0  0  0  0  0  0  0  0  0  0  0
   55.4521   30.1431   43.8530 H   0  0  0  0  0  0  0  0  0  0  0  0
   56.1103   30.0655   45.5319 H   0  0  0  0  0  0  0  0  0  0  0  0
   57.5790   29.7090   43.9760 C   0  0  0  0  0  0  0  0  0  0  0  0
   58.3574   30.4785   43.8668 H   0  0  0  0  0  0  0  0  0  0  0  0
   57.2803   29.2247   43.0346 H   0  0  0  0  0  0  0  0  0  0  0  0
   58.1430   28.6060   44.8300 N   0  0  0  0  0  0  0  0  0  0  0  0
   59.1180   27.7920   44.0550 C   0  0  0  0  0  0  0  0  0  0  0  0
   59.7729   27.2452   44.7493 H   0  0  0  0  0  0  0  0  0  0  0  0
   58.5753   27.0750   43.4214 H   0  0  0  0  0  0  0  0  0  0  0  0
   59.7265   28.4540   43.4214 H   0  0  0  0  0  0  0  0  0  0  0  0
   57.0750   27.7040   45.3430 C   0  0  0  0  0  0  0  0  0  0  0  0
   57.0850   27.7124   46.4429 H   0  0  0  0  0  0  0  0  0  0  0  0
   56.0960   28.0528   44.9825 H   0  0  0  0  0  0  0  0  0  0  0  0
   57.2551   26.6805   44.9825 H   0  0  0  0  0  0  0  0  0  0  0  0
   58.8940   29.1960   45.9870 C   0  0  0  0  0  0  0  0  0  0  0  0
   59.9487   28.8971   45.8960 H   0  0  0  0  0  0  0  0  0  0  0  0
   58.7387   30.2834   45.9289 H   0  0  0  0  0  0  0  0  0  0  0  0
   58.3910   28.7630   47.3930 C   0  0  0  0  0  0  0  0  0  0  0  0
   57.3323   29.0460   47.4881 H   0  0  0  0  0  0  0  0  0  0  0  0
   58.5364   27.6755   47.4719 H   0  0  0  0  0  0  0  0  0  0  0  0
   59.1800   29.4170   48.5490 C   0  0  0  0  0  0  0  0  0  0  0  0
   58.7384   30.4050   48.7462 H   0  0  0  0  0  0  0  0  0  0  0  0
   59.1048   28.7243   49.4002 H   0  0  0  0  0  0  0  0  0  0  0  0
   60.6900   29.6120   48.2870 C   0  0  0  0  0  0  0  0  0  0  0  0
   61.1648   28.6202   48.3176 H   0  0  0  0  0  0  0  0  0  0  0  0
   60.7520   30.1201   47.3134 H   0  0  0  0  0  0  0  0  0  0  0  0
   61.4490   30.5240   49.2700 C   0  0  0  0  0  0  0  0  0  0  0  0
   62.2430   31.0306   48.7017 H   0  0  0  0  0  0  0  0  0  0  0  0
   60.6752   31.1820   49.6923 H   0  0  0  0  0  0  0  0  0  0  0  0
   62.1220   29.8520   50.5180 C   0  0  0  0  0  0  0  0  0  0  0  0
   62.3209   28.8052   50.2447 H   0  0  0  0  0  0  0  0  0  0  0  0
   62.9884   30.5007   50.7143 H   0  0  0  0  0  0  0  0  0  0  0  0
   61.4010   29.8250   51.8550 N   0  0  0  0  0  0  0  0  0  0  0  0
   62.3860   30.2010   52.9130 C   0  0  0  0  0  0  0  0  0  0  0  0
   61.9415   30.0313   53.9048 H   0  0  0  0  0  0  0  0  0  0  0  0
   63.2913   29.5852   52.8067 H   0  0  0  0  0  0  0  0  0  0  0  0
   62.6507   31.2634   52.8067 H   0  0  0  0  0  0  0  0  0  0  0  0
   61.0090   28.4130   52.2080 C   0  0  0  0  0  0  0  0  0  0  0  0
   61.6367   28.0905   53.0518 H   0  0  0  0  0  0  0  0  0  0  0  0
   59.9336   28.4521   52.4359 H   0  0  0  0  0  0  0  0  0  0  0  0
   61.1570   27.3730   51.0880 C   0  0  0  0  0  0  0  0  0  0  0  0
   60.1605   27.0241   50.7794 H   0  0  0  0  0  0  0  0  0  0  0  0
   61.6702   27.8327   50.2305 H   0  0  0  0  0  0  0  0  0  0  0  0
   62.1140   25.9880   51.6740 Cl  0  0  0  0  0  0  0  0  0  0  0  0
   60.1920   30.7180   51.9640 C   0  0  0  0  0  0  0  0  0  0  0  0
   60.2825   31.2804   52.9050 H   0  0  0  0  0  0  0  0  0  0  0  0
   60.2105   31.3250   51.0468 H   0  0  0  0  0  0  0  0  0  0  0  0
   58.7940   30.0420   51.9600 C   0  0  0  0  0  0  0  0  0  0  0  0
   58.7274   29.4126   51.0603 H   0  0  0  0  0  0  0  0  0  0  0  0
   58.7323   29.4842   52.9061 H   0  0  0  0  0  0  0  0  0  0  0  0
   57.3890   31.1450   51.9600 Cl  0  0  0  0  0  0  0  0  0  0  0  0
   58.8720   32.1150   45.0150 C   0  0  0  0  0  0  0  0  0  0  0  0
   59.0803   31.2988   45.7225 H   0  0  0  0  0  0  0  0  0  0  0  0
   59.0853   31.7960   43.9841 H   0  0  0  0  0  0  0  0  0  0  0  0
   59.7350   33.2640   45.3380 N   0  0  0  0  0  0  0  0  0  0  0  0
   59.5940   33.9890   44.5950 H   0  0  0  0  0  0  0  0  0  0  0  0
   60.7280   32.9490   45.2510 H   0  0  0  0  0  0  0  0  0  0  0  0
   59.4860   33.8950   46.6670 C   0  0  2  0  0  0  0  0  0  0  0  0
   59.6834   34.9666   46.5164 H   0  0  0  0  0  0  0  0  0  0  0  0
   60.4800   33.3880   47.7610 C   0  0  1  0  0  0  0  0  0  0  0  0
   60.6353   32.3035   47.6618 H   0  0  0  0  0  0  0  0  0  0  0  0
   61.8500   34.0780   47.5880 C   0  0  0  0  0  0  0  0  0  0  0  0
   61.7195   35.1686   47.6481 H   0  0  0  0  0  0  0  0  0  0  0  0
   62.2710   33.8078   46.6083 H   0  0  0  0  0  0  0  0  0  0  0  0
  1  2  1  0
  2  3  2  0
  3  4  1  0
  3  5  1  0
  5  6  2  0
  6  7  1  0
  7  8  1  0
  7  9  2  0
  9 10  1  0
 10 11  1  0
 11 12  1  0
 11 13  1  0
 11 14  1  0
 14 15  1  0
 14 16  1  0
 14 17  1  0
 17 18  1  0
 17 19  1  0
 17 20  1  0
 20 21  1  0
 20 22  1  0
  6 23  1  0
 23 24  1  0
 23 25  1  0
 23 26  1  0
 26 27  1  0
 27 28  1  0
 27 29  1  0
 27 30  1  0
 30 31  1  0
 30 32  1  0
 30 33  1  0
 33 34  1  1
 33 35  1  0
 35 36  1  0
 35 37  1  0
 35 38  1  0
 38 39  2  0
 39 40  1  0
 40 41  1  0
 40 42  1  0
 40 43  1  0
 43 44  1  0
 43 45  1  0
 43 46  1  0
 46 47  1  0
 47 48  1  0
 47 49  1  0
 47 50  1  0
 46 51  1  0
 51 52  1  0
 51 53  1  0
 51 54  1  0
 46 55  1  0
 55 56  1  0
 55 57  1  0
 55 58  1  0
 58 59  1  0
 58 60  1  0
 58 61  1  0
 61 62  1  0
 61 63  1  0
 61 64  1  0
 64 65  1  0
 64 66  1  0
 64 67  1  0
 67 68  1  0
 67 69  1  0
 67 70  1  0
 70 71  1  0
 70 72  1  0
 70 73  1  0
 73 74  1  0
 74 75  1  0
 74 76  1  0
 74 77  1  0
 73 78  1  0
 78 79  1  0
 78 80  1  0
 78 81  1  0
 81 82  1  0
 81 83  1  0
 81 84  1  0
 73 85  1  0
 85 86  1  0
 85 87  1  0
 85 88  1  0
 88 89  1  0
 88 90  1  0
 88 91  1  0
 38 92  1  0
 92 93  1  0
 92 94  1  0
 92 95  1  0
 95 96  1  0
 95 97  1  0
 95 98  1  0
 98 99  1  6
 98100  1  0
100101  1  6
100102  1  0
102103  1  0
102104  1  0
  9  2  1  0
 20 10  1  0
100 26  1  0
102  5  1  0
 98 33  1  0
M  CHG  3  46   1  73   1  95   1
M  END
>  <UniqueID>  (90) 
85

>  <SMILES>  (90) 
C[N+](C)(CCCCCC[N+](C)(CCCl)CCCl)CC/N=C1\C[NH2+][C@@H]2C3Cc4ccc(N5CCCC5)cc4CN3CC[C@@H]2C1

>  <Energy>  (90) 
173.87771377135545

>  <Genealogy>  (90) 
C[N+](C)(CCCCCC[N+](C)(CCCl)CCCl)CCN=C1C[NH2+]C2C(CCN3Cc4cc(N5CCCC5)ccc4CC23)C1 (protonated)
C[N+](C)(CCCCCC[N+](C)(CCCl)CCCl)CCN=C1C[NH2+][C@@H]2C3Cc4ccc(N5CCCC5)cc4CN3CC[C@@H]2C1 (chirality)
C[N+](C)(CCCCCC[N+](C)(CCCl)CCCl)CC/N=C1\C[NH2+][C@@H]2C3Cc4ccc(N5CCCC5)cc4CN3CC[C@@H]2C1 (cis-trans isomerization)
C[N+](C)(CCCCCC[N+](C)(CCCl)CCCl)CC/N=C1\C[NH2+][C@@H]2C3Cc4ccc(N5CCCC5)cc4CN3CC[C@@H]2C1 (3D coordinates assigned)
C[N+](C)(CCCCCC[N+](C)(CCCl)CCCl)CC/N=C1\C[NH2+][C@@H]2C3Cc4ccc(N5CCCC5)cc4CN3CC[C@@H]2C1 (nonaromatic ring conformer: 173.87771377135545 kcal/mol)

>  <smiles>  (90) 
C[N+](C)(CCCCCC[N+](C)(CCCl)CCCl)CCN=C1CNC2C(CCN3Cc4cc(N5CCCC5)ccc4CC23)C1

>  <score_type>  (90) 
oracle

>  <origin>  (90) 
adg

>  <m_score__min__energy>  (90) 
-4.6100000000000003

>  <m_primary>  (90) 
energy

$$$$
90:0
     RDKit          3D

 37 38  0  0  0  0  0  0  0  0999 V2000
   57.0120   27.5880   45.6080 C   0  0  0  0  0  0  0  0  0  0  0  0
   55.9090   28.4080   45.2440 O   0  0  0  0  0  0  0  0  0  0  0  0
   56.0600   29.5990   44.5280 C   0  0  0  0  0  0  0  0  0  0  0  0
   55.1360   30.4560   44.4990 O   0  0  0  0  0  0  0  0  0  0  0  0
   57.3590   29.8810   43.8370 C   0  0  0  0  0  0  0  0  0  0  0  0
   57.4360   31.3370   43.3590 C   0  0  0  0  0  0  0  0  0  0  0  0
   57.9370   32.2570   44.4450 C   0  0  0  0  0  0  0  0  0  0  0  0
   57.8360   31.8780   45.7920 C   0  0  0  0  0  0  0  0  0  0  0  0
   58.2620   32.7470   46.8020 C   0  0  0  0  0  0  0  0  0  0  0  0
   58.7950   34.0000   46.4830 C   0  0  0  0  0  0  0  0  0  0  0  0
   59.1960   34.8420   47.5320 O   0  0  0  0  0  0  0  0  0  0  0  0
   60.0230   34.4700   48.6020 C   0  0  0  0  0  0  0  0  0  0  0  0
   59.6090   34.5610   49.7900 O   0  0  0  0  0  0  0  0  0  0  0  0
   61.4090   34.0250   48.3340 C   0  0  0  0  0  0  0  0  0  0  0  0
   62.2920   33.7720   49.4000 C   0  0  0  0  0  0  0  0  0  0  0  0
   63.6020   33.3530   49.1490 C   0  0  0  0  0  0  0  0  0  0  0  0
   64.0440   33.1830   47.8340 C   0  0  0  0  0  0  0  0  0  0  0  0
   63.1770   33.4310   46.7680 C   0  0  0  0  0  0  0  0  0  0  0  0
   61.8660   33.8510   47.0140 C   0  0  0  0  0  0  0  0  0  0  0  0
   58.8700   34.3920   45.1340 C   0  0  0  0  0  0  0  0  0  0  0  0
   58.4470   33.5240   44.1230 C   0  0  0  0  0  0  0  0  0  0  0  0
   57.0834   27.5349   46.7044 H   0  0  0  0  0  0  0  0  0  0  0  0
   56.8671   26.5765   45.2006 H   0  0  0  0  0  0  0  0  0  0  0  0
   57.9388   28.0181   45.2006 H   0  0  0  0  0  0  0  0  0  0  0  0
   58.1854   29.6904   44.5375 H   0  0  0  0  0  0  0  0  0  0  0  0
   57.4323   29.2243   42.9576 H   0  0  0  0  0  0  0  0  0  0  0  0
   58.1207   31.3941   42.4999 H   0  0  0  0  0  0  0  0  0  0  0  0
   56.4223   31.6591   43.0784 H   0  0  0  0  0  0  0  0  0  0  0  0
   57.4204   30.8940   46.0548 H   0  0  0  0  0  0  0  0  0  0  0  0
   58.1771   32.4424   47.8556 H   0  0  0  0  0  0  0  0  0  0  0  0
   61.9496   33.9047   50.4369 H   0  0  0  0  0  0  0  0  0  0  0  0
   64.2860   33.1568   49.9879 H   0  0  0  0  0  0  0  0  0  0  0  0
   65.0752   32.8537   47.6388 H   0  0  0  0  0  0  0  0  0  0  0  0
   63.5256   33.2959   45.7335 H   0  0  0  0  0  0  0  0  0  0  0  0
   61.1875   34.0467   46.1706 H   0  0  0  0  0  0  0  0  0  0  0  0
   59.2632   35.3858   44.8735 H   0  0  0  0  0  0  0  0  0  0  0  0
   58.5143   33.8357   43.0702 H   0  0  0  0  0  0  0  0  0  0  0  0
  1  2  1  0
  2  3  1  0
  3  4  2  0
  3  5  1  0
  5  6  1  0
  6  7  1  0
  7  8  2  0
  8  9  1  0
  9 10  2  0
 10 11  1  0
 11 12  1  0
 12 13  2  0
 12 14  1  0
 14 15  2  0
 15 16  1  0
 16 17  2  0
 17 18  1  0
 18 19  2  0
 10 20  1  0
 20 21  2  0
 21  7  1  0
 19 14  1  0
  1 22  1  0
  1 23  1  0
  1 24  1  0
  5 25  1  0
  5 26  1  0
  6 27  1  0
  6 28  1  0
  8 29  1  0
  9 30  1  0
 15 31  1  0
 16 32  1  0
 17 33  1  0
 18 34  1  0
 19 35  1  0
 20 36  1  0
 21 37  1  0
M  END
>  <UniqueID>  (91) 
86

>  <SMILES>  (91) 
COC(=O)CCc1ccc(OC(=O)c2ccccc2)cc1

>  <Energy>  (91) 
35.93655378361759

>  <Genealogy>  (91) 
COC(=O)CCc1ccc(OC(=O)c2ccccc2)cc1 (3D coordinates assigned)
COC(=O)CCc1ccc(OC(=O)c2ccccc2)cc1 (optimized conformer: 35.93655378361759 kcal/mol)

>  <smiles>  (91) 
COC(=O)CCc1ccc(OC(=O)c2ccccc2)cc1

>  <score_type>  (91) 
oracle

>  <origin>  (91) 
adg

>  <m_score__min__energy>  (91) 
-7.7800000000000002

>  <m_primary>  (91) 
energy

$$$$
91:0
     RDKit          3D

 53 55  0  0  0  0  0  0  0  0999 V2000
   56.6360   22.5300   42.9860 C   0  0  0  0  0  0  0  0  0  0  0  0
   56.5120   23.8650   43.7040 C   0  0  0  0  0  0  0  0  0  0  0  0
   55.2760   23.8890   44.4810 N   0  0  0  0  0  0  0  0  0  0  0  0
   55.4700   24.9070   45.8750 S   0  0  0  0  0  0  0  0  0  0  0  0
   55.3200   24.0930   47.1290 O   0  0  0  0  0  0  0  0  0  0  0  0
   54.3910   25.9540   45.8650 O   0  0  0  0  0  0  0  0  0  0  0  0
   57.0450   25.7060   45.8470 C   0  0  0  0  0  0  0  0  0  0  0  0
   57.1430   27.0220   45.3710 C   0  0  0  0  0  0  0  0  0  0  0  0
   58.3810   27.6860   45.3500 C   0  0  0  0  0  0  0  0  0  0  0  0
   58.4630   29.0880   44.8800 C   0  0  0  0  0  0  0  0  0  0  0  0
   59.4230   29.4360   44.1440 O   0  0  0  0  0  0  0  0  0  0  0  0
   57.5020   30.0800   45.2710 N   0  0  0  0  0  0  0  0  0  0  0  0
   57.7790   31.4540   45.5830 C   0  0  0  0  0  0  0  0  0  0  0  0
   57.1290   32.4570   44.8560 C   0  0  0  0  0  0  0  0  0  0  0  0
   57.3780   33.8040   45.1340 C   0  0  0  0  0  0  0  0  0  0  0  0
   58.2710   34.1570   46.1480 C   0  0  0  0  0  0  0  0  0  0  0  0
   58.9090   33.1630   46.9030 C   0  0  0  0  0  0  0  0  0  0  0  0
   60.0330   33.6050   48.1910 S   0  0  0  0  0  0  0  0  0  0  0  0
   60.4100   35.0530   48.0420 O   0  0  0  0  0  0  0  0  0  0  0  0
   59.3520   33.4390   49.5210 O   0  0  0  0  0  0  0  0  0  0  0  0
   61.4750   32.6170   48.1550 N   0  0  0  0  0  0  0  0  0  0  0  0
   62.4130   33.0600   47.0930 C   0  0  0  0  0  0  0  0  0  0  0  0
   63.6150   33.8420   47.6430 C   0  0  0  0  0  0  0  0  0  0  0  0
   64.4060   33.0030   48.6620 C   0  0  0  0  0  0  0  0  0  0  0  0
   63.5140   32.0240   49.4480 C   0  0  0  0  0  0  0  0  0  0  0  0
   62.0670   32.5230   49.5070 C   0  0  0  0  0  0  0  0  0  0  0  0
   58.6520   31.8140   46.6260 C   0  0  0  0  0  0  0  0  0  0  0  0
   59.5310   27.0010   45.7770 C   0  0  0  0  0  0  0  0  0  0  0  0
   59.4390   25.6880   46.2410 C   0  0  0  0  0  0  0  0  0  0  0  0
   58.2030   25.0390   46.2810 C   0  0  0  0  0  0  0  0  0  0  0  0
   58.1440   23.7590   46.7270 F   0  0  0  0  0  0  0  0  0  0  0  0
   56.7112   21.7207   43.7272 H   0  0  0  0  0  0  0  0  0  0  0  0
   55.7490   22.3688   42.3558 H   0  0  0  0  0  0  0  0  0  0  0  0
   57.5376   22.5350   42.3558 H   0  0  0  0  0  0  0  0  0  0  0  0
   57.3710   23.9997   44.3778 H   0  0  0  0  0  0  0  0  0  0  0  0
   56.4945   24.6783   42.9636 H   0  0  0  0  0  0  0  0  0  0  0  0
   56.2416   27.5392   45.0106 H   0  0  0  0  0  0  0  0  0  0  0  0
   56.4185   32.1843   44.0617 H   0  0  0  0  0  0  0  0  0  0  0  0
   56.8696   34.5875   44.5530 H   0  0  0  0  0  0  0  0  0  0  0  0
   58.4743   35.2181   46.3548 H   0  0  0  0  0  0  0  0  0  0  0  0
   62.7858   32.1719   46.5617 H   0  0  0  0  0  0  0  0  0  0  0  0
   61.8586   33.7353   46.4247 H   0  0  0  0  0  0  0  0  0  0  0  0
   64.2789   34.1128   46.8088 H   0  0  0  0  0  0  0  0  0  0  0  0
   63.2412   34.7439   48.1499 H   0  0  0  0  0  0  0  0  0  0  0  0
   65.1719   32.4258   48.1233 H   0  0  0  0  0  0  0  0  0  0  0  0
   64.8545   33.6981   49.3870 H   0  0  0  0  0  0  0  0  0  0  0  0
   63.5355   31.0418   48.9532 H   0  0  0  0  0  0  0  0  0  0  0  0
   63.8996   31.9476   50.4754 H   0  0  0  0  0  0  0  0  0  0  0  0
   61.4711   31.8231   50.1112 H   0  0  0  0  0  0  0  0  0  0  0  0
   62.0641   33.5265   49.9576 H   0  0  0  0  0  0  0  0  0  0  0  0
   59.1360   31.0309   47.2280 H   0  0  0  0  0  0  0  0  0  0  0  0
   60.5095   27.5025   45.7454 H   0  0  0  0  0  0  0  0  0  0  0  0
   60.3446   25.1616   46.5769 H   0  0  0  0  0  0  0  0  0  0  0  0
  1  2  1  0
  2  3  1  0
  3  4  1  0
  4  5  2  0
  4  6  2  0
  4  7  1  0
  7  8  2  0
  8  9  1  0
  9 10  1  0
 10 11  2  0
 10 12  1  0
 12 13  1  0
 13 14  2  0
 14 15  1  0
 15 16  2  0
 16 17  1  0
 17 18  1  0
 18 19  2  0
 18 20  2  0
 18 21  1  0
 21 22  1  0
 22 23  1  0
 23 24  1  0
 24 25  1  0
 25 26  1  0
 17 27  2  0
  9 28  2  0
 28 29  1  0
 29 30  2  0
 30 31  1  0
 30  7  1  0
 27 13  1  0
 26 21  1  0
  1 32  1  0
  1 33  1  0
  1 34  1  0
  2 35  1  0
  2 36  1  0
  8 37  1  0
 14 38  1  0
 15 39  1  0
 16 40  1  0
 22 41  1  0
 22 42  1  0
 23 43  1  0
 23 44  1  0
 24 45  1  0
 24 46  1  0
 25 47  1  0
 25 48  1  0
 26 49  1  0
 26 50  1  0
 27 51  1  0
 28 52  1  0
 29 53  1  0
M  CHG  2   3  -1  12  -1
M  END
>  <UniqueID>  (92) 
87

>  <SMILES>  (92) 
CC[N-]S(=O)(=O)c1cc(C(=O)[N-]c2cccc(S(=O)(=O)N3CCCCC3)c2)ccc1F

>  <Energy>  (92) 
60.464820593573975

>  <Genealogy>  (92) 
CC[N-]S(=O)(=O)c1cc(C(=O)[N-]c2cccc(S(=O)(=O)N3CCCCC3)c2)ccc1F (protonated)
CC[N-]S(=O)(=O)c1cc(C(=O)[N-]c2cccc(S(=O)(=O)N3CCCCC3)c2)ccc1F (3D coordinates assigned)
CC[N-]S(=O)(=O)c1cc(C(=O)[N-]c2cccc(S(=O)(=O)N3CCCCC3)c2)ccc1F (nonaromatic ring conformer: 60.464820593573975 kcal/mol)

>  <smiles>  (92) 
CCNS(=O)(=O)c1cc(C(=O)Nc2cccc(S(=O)(=O)N3CCCCC3)c2)ccc1F

>  <score_type>  (92) 
oracle

>  <origin>  (92) 
adg

>  <m_score__min__energy>  (92) 
-13.43

>  <m_primary>  (92) 
energy

$$$$
92:0
     RDKit          3D

 61 63  0  0  0  0  0  0  0  0999 V2000
   61.2160   28.4490   50.3880 C   0  0  0  0  0  0  0  0  0  0  0  0
   60.3480   28.1380   49.2050 C   0  0  0  0  0  0  0  0  0  0  0  0
   59.1740   28.8730   48.9730 C   0  0  0  0  0  0  0  0  0  0  0  0
   58.3470   28.5560   47.8920 C   0  0  0  0  0  0  0  0  0  0  0  0
   58.6760   27.4960   47.0330 C   0  0  0  0  0  0  0  0  0  0  0  0
   57.7760   27.1540   45.8750 C   0  0  0  0  0  0  0  0  0  0  0  0
   56.8130   28.2250   45.6290 N   0  0  0  0  0  0  0  0  0  0  0  0
   57.1140   29.4990   45.0440 C   0  0  0  0  0  0  0  0  0  0  0  0
   56.1600   30.2560   44.7190 O   0  0  0  0  0  0  0  0  0  0  0  0
   58.5280   29.9740   44.8680 C   0  0  0  0  0  0  0  0  0  0  0  0
   59.0120   30.5340   46.0860 O   0  0  0  0  0  0  0  0  0  0  0  0
   60.3760   30.6430   46.3780 C   0  0  0  0  0  0  0  0  0  0  0  0
   61.1760   29.7660   45.9500 O   0  0  0  0  0  0  0  0  0  0  0  0
   60.8620   31.7830   47.1980 C   0  0  0  0  0  0  0  0  0  0  0  0
   61.9440   31.5750   48.0750 C   0  0  0  0  0  0  0  0  0  0  0  0
   62.4410   32.6180   48.8680 C   0  0  0  0  0  0  0  0  0  0  0  0
   63.7880   32.3280   49.9710 S   0  0  0  0  0  0  0  0  0  0  0  0
   65.0530   32.8670   49.3610 O   0  0  0  0  0  0  0  0  0  0  0  0
   63.9600   30.8470   50.1660 O   0  0  0  0  0  0  0  0  0  0  0  0
   63.5190   33.0940   51.5180 N   0  0  0  0  0  0  0  0  0  0  0  0
   63.8420   34.5250   51.4410 C   0  0  0  0  0  0  0  0  0  0  0  0
   62.1280   32.9010   51.9500 C   0  0  0  0  0  0  0  0  0  0  0  0
   61.8570   33.8850   48.7910 C   0  0  0  0  0  0  0  0  0  0  0  0
   60.7840   34.1110   47.9300 C   0  0  0  0  0  0  0  0  0  0  0  0
   60.2770   33.0730   47.1340 C   0  0  0  0  0  0  0  0  0  0  0  0
   59.1560   33.3470   46.2890 N   0  0  0  0  0  0  0  0  0  0  0  0
   57.7860   33.1030   46.6970 C   0  0  0  0  0  0  0  0  0  0  0  0
   56.9220   33.8450   45.6840 C   0  0  0  0  0  0  0  0  0  0  0  0
   57.8450   34.1940   44.5170 C   0  0  0  0  0  0  0  0  0  0  0  0
   59.2620   34.1210   45.0680 C   0  0  0  0  0  0  0  0  0  0  0  0
   59.8370   26.7460   47.2800 C   0  0  0  0  0  0  0  0  0  0  0  0
   60.6660   27.0640   48.3600 C   0  0  0  0  0  0  0  0  0  0  0  0
   60.6581   28.2491   51.3147 H   0  0  0  0  0  0  0  0  0  0  0  0
   62.1162   27.8175   50.3584 H   0  0  0  0  0  0  0  0  0  0  0  0
   61.5103   29.5085   50.3584 H   0  0  0  0  0  0  0  0  0  0  0  0
   58.9044   29.7013   49.6447 H   0  0  0  0  0  0  0  0  0  0  0  0
   57.4326   29.1408   47.7133 H   0  0  0  0  0  0  0  0  0  0  0  0
   58.3891   27.0069   44.9736 H   0  0  0  0  0  0  0  0  0  0  0  0
   57.2240   26.2342   46.1186 H   0  0  0  0  0  0  0  0  0  0  0  0
   59.1642   29.1240   44.5803 H   0  0  0  0  0  0  0  0  0  0  0  0
   58.5540   30.7437   44.0826 H   0  0  0  0  0  0  0  0  0  0  0  0
   62.4060   30.5788   48.1385 H   0  0  0  0  0  0  0  0  0  0  0  0
   64.1540   32.6440   52.2180 H   0  0  0  0  0  0  0  0  0  0  0  0
   63.9346   34.9352   52.4574 H   0  0  0  0  0  0  0  0  0  0  0  0
   64.7927   34.6579   50.9039 H   0  0  0  0  0  0  0  0  0  0  0  0
   63.0405   35.0534   50.9039 H   0  0  0  0  0  0  0  0  0  0  0  0
   62.0829   32.8947   53.0491 H   0  0  0  0  0  0  0  0  0  0  0  0
   61.5064   33.7215   51.5622 H   0  0  0  0  0  0  0  0  0  0  0  0
   61.7533   31.9423   51.5622 H   0  0  0  0  0  0  0  0  0  0  0  0
   62.2449   34.7064   49.4114 H   0  0  0  0  0  0  0  0  0  0  0  0
   60.3310   35.1119   47.8743 H   0  0  0  0  0  0  0  0  0  0  0  0
   57.5644   32.0258   46.6756 H   0  0  0  0  0  0  0  0  0  0  0  0
   57.5982   33.4481   47.7245 H   0  0  0  0  0  0  0  0  0  0  0  0
   56.0984   33.2018   45.3405 H   0  0  0  0  0  0  0  0  0  0  0  0
   56.4707   34.7466   46.1238 H   0  0  0  0  0  0  0  0  0  0  0  0
   57.7156   33.4714   43.6978 H   0  0  0  0  0  0  0  0  0  0  0  0
   57.6213   35.1912   44.1100 H   0  0  0  0  0  0  0  0  0  0  0  0
   59.9293   33.6206   44.3509 H   0  0  0  0  0  0  0  0  0  0  0  0
   59.6841   35.1203   45.2502 H   0  0  0  0  0  0  0  0  0  0  0  0
   60.0956   25.9043   46.6207 H   0  0  0  0  0  0  0  0  0  0  0  0
   61.5720   26.4692   48.5482 H   0  0  0  0  0  0  0  0  0  0  0  0
  1  2  1  0
  2  3  2  0
  3  4  1  0
  4  5  2  0
  5  6  1  0
  6  7  1  0
  7  8  1  0
  8  9  2  0
  8 10  1  0
 10 11  1  0
 11 12  1  0
 12 13  2  0
 12 14  1  0
 14 15  2  0
 15 16  1  0
 16 17  1  0
 17 18  2  0
 17 19  2  0
 17 20  1  0
 20 21  1  0
 20 22  1  0
 16 23  2  0
 23 24  1  0
 24 25  2  0
 25 26  1  0
 26 27  1  0
 27 28  1  0
 28 29  1  0
 29 30  1  0
  5 31  1  0
 31 32  2  0
 32  2  1  0
 25 14  1  0
 30 26  1  0
  1 33  1  0
  1 34  1  0
  1 35  1  0
  3 36  1  0
  4 37  1  0
  6 38  1  0
  6 39  1  0
 10 40  1  0
 10 41  1  0
 15 42  1  0
 20 43  1  0
 21 44  1  0
 21 45  1  0
 21 46  1  0
 22 47  1  0
 22 48  1  0
 22 49  1  0
 23 50  1  0
 24 51  1  0
 27 52  1  0
 27 53  1  0
 28 54  1  0
 28 55  1  0
 29 56  1  0
 29 57  1  0
 30 58  1  0
 30 59  1  0
 31 60  1  0
 32 61  1  0
M  CHG  2   7  -1  20   1
M  END
>  <UniqueID>  (93) 
88

>  <SMILES>  (93) 
Cc1ccc(C[N-]C(=O)COC(=O)c2cc(S(=O)(=O)[NH+](C)C)ccc2N2CCCC2)cc1

>  <Energy>  (93) 
60.9556709395767

>  <Genealogy>  (93) 
Cc1ccc(C[N-]C(=O)COC(=O)c2cc(S(=O)(=O)[NH+](C)C)ccc2N2CCCC2)cc1 (protonated)
Cc1ccc(C[N-]C(=O)COC(=O)c2cc(S(=O)(=O)[NH+](C)C)ccc2N2CCCC2)cc1 (3D coordinates assigned)
Cc1ccc(C[N-]C(=O)COC(=O)c2cc(S(=O)(=O)[NH+](C)C)ccc2N2CCCC2)cc1 (nonaromatic ring conformer: 60.9556709395767 kcal/mol)

>  <smiles>  (93) 
Cc1ccc(CNC(=O)COC(=O)c2cc(S(=O)(=O)N(C)C)ccc2N2CCCC2)cc1

>  <score_type>  (93) 
oracle

>  <origin>  (93) 
adg

>  <m_score__min__energy>  (93) 
-9.0399999999999991

>  <m_primary>  (93) 
energy

$$$$
