0:0
     RDKit          3D

 49 51  0  0  0  0  0  0  0  0999 V2000
   55.3080   22.8830   47.5750 C   0  0  0  0  0  0  0  0  0  0  0  0
   55.6830   22.8360   46.1190 C   0  0  0  0  0  0  0  0  0  0  0  0
   55.9940   21.6050   45.5120 C   0  0  0  0  0  0  0  0  0  0  0  0
   56.3550   21.5530   44.1630 C   0  0  0  0  0  0  0  0  0  0  0  0
   56.3940   22.7230   43.4040 C   0  0  0  0  0  0  0  0  0  0  0  0
   56.0870   23.9520   43.9940 C   0  0  0  0  0  0  0  0  0  0  0  0
   55.7500   24.0240   45.3600 C   0  0  0  0  0  0  0  0  0  0  0  0
   55.4100   25.2780   45.9740 N   0  0  0  0  0  0  0  0  0  0  0  0
   56.2720   26.4120   46.0990 C   0  0  0  0  0  0  0  0  0  0  0  0
   57.4360   26.2500   46.5540 O   0  0  0  0  0  0  0  0  0  0  0  0
   55.8570   27.6990   45.6250 N   0  0  0  0  0  0  0  0  0  0  0  0
   56.7460   28.7210   45.1590 C   0  0  0  0  0  0  0  0  0  0  0  0
   56.4080   29.4240   43.9990 C   0  0  0  0  0  0  0  0  0  0  0  0
   57.2390   30.4390   43.5190 C   0  0  0  0  0  0  0  0  0  0  0  0
   58.4060   30.7720   44.2030 C   0  0  0  0  0  0  0  0  0  0  0  0
   58.7430   30.1060   45.3890 C   0  0  0  0  0  0  0  0  0  0  0  0
   59.9790   30.4830   46.0970 C   0  0  0  0  0  0  0  0  0  0  0  0
   61.0030   29.7640   45.9410 O   0  0  0  0  0  0  0  0  0  0  0  0
   60.0230   31.6370   46.9670 N   0  0  0  0  0  0  0  0  0  0  0  0
   58.8410   32.5030   47.1120 C   0  0  0  0  0  0  0  0  0  0  0  0
   59.0680   33.5660   48.1880 C   0  0  0  0  0  0  0  0  0  0  0  0
   59.6680   32.9230   49.3680 N   0  0  0  0  0  0  0  0  0  0  0  0
   59.6640   33.8390   50.5170 C   0  0  0  0  0  0  0  0  0  0  0  0
   61.0390   32.4250   49.0970 C   0  0  0  0  0  0  0  0  0  0  0  0
   61.2790   32.0330   47.6220 C   0  0  0  0  0  0  0  0  0  0  0  0
   57.9030   29.0830   45.8820 C   0  0  0  0  0  0  0  0  0  0  0  0
   58.1760   28.4500   47.0990 O   0  0  0  0  0  0  0  0  0  0  0  0
   56.2126   22.7696   48.1905 H   0  0  0  0  0  0  0  0  0  0  0  0
   54.8303   23.8480   47.7996 H   0  0  0  0  0  0  0  0  0  0  0  0
   54.6069   22.0657   47.7996 H   0  0  0  0  0  0  0  0  0  0  0  0
   55.9527   20.6782   46.1030 H   0  0  0  0  0  0  0  0  0  0  0  0
   56.6087   20.5885   43.6990 H   0  0  0  0  0  0  0  0  0  0  0  0
   56.6669   22.6780   42.3393 H   0  0  0  0  0  0  0  0  0  0  0  0
   56.1086   24.8695   43.3877 H   0  0  0  0  0  0  0  0  0  0  0  0
   55.4814   29.1762   43.4605 H   0  0  0  0  0  0  0  0  0  0  0  0
   56.9710   30.9772   42.5978 H   0  0  0  0  0  0  0  0  0  0  0  0
   59.0652   31.5604   43.8108 H   0  0  0  0  0  0  0  0  0  0  0  0
   58.6398   33.0005   46.1518 H   0  0  0  0  0  0  0  0  0  0  0  0
   57.9850   31.8800   47.4105 H   0  0  0  0  0  0  0  0  0  0  0  0
   59.7466   34.3420   47.8042 H   0  0  0  0  0  0  0  0  0  0  0  0
   58.1101   34.0322   48.4619 H   0  0  0  0  0  0  0  0  0  0  0  0
   59.6665   33.2566   51.4502 H   0  0  0  0  0  0  0  0  0  0  0  0
   60.5594   34.4769   50.4805 H   0  0  0  0  0  0  0  0  0  0  0  0
   58.7631   34.4691   50.4805 H   0  0  0  0  0  0  0  0  0  0  0  0
   61.7549   33.2154   49.3668 H   0  0  0  0  0  0  0  0  0  0  0  0
   61.1734   31.5130   49.6972 H   0  0  0  0  0  0  0  0  0  0  0  0
   61.7072   32.8934   47.0869 H   0  0  0  0  0  0  0  0  0  0  0  0
   61.9705   31.1779   47.5964 H   0  0  0  0  0  0  0  0  0  0  0  0
   57.6760   27.6290   47.4150 H   0  0  0  0  0  0  0  0  0  0  0  0
  1  2  1  0
  2  3  2  0
  3  4  1  0
  4  5  2  0
  5  6  1  0
  6  7  2  0
  7  8  1  0
  8  9  1  0
  9 10  2  0
  9 11  1  0
 11 12  1  0
 12 13  2  0
 13 14  1  0
 14 15  2  0
 15 16  1  0
 16 17  1  0
 17 18  2  0
 17 19  1  0
 19 20  1  0
 20 21  1  0
 21 22  1  0
 22 23  1  0
 22 24  1  0
 24 25  1  0
 16 26  2  0
 26 27  1  0
  7  2  1  0
 26 12  1  0
 25 19  1  0
  1 28  1  0
  1 29  1  0
  1 30  1  0
  3 31  1  0
  4 32  1  0
  5 33  1  0
  6 34  1  0
 13 35  1  0
 14 36  1  0
 15 37  1  0
 20 38  1  0
 20 39  1  0
 21 40  1  0
 21 41  1  0
 23 42  1  0
 23 43  1  0
 23 44  1  0
 24 45  1  0
 24 46  1  0
 25 47  1  0
 25 48  1  0
 27 49  1  0
M  CHG  2   8  -1  11  -1
M  END
>  <UniqueID>  (1) 
1

>  <SMILES>  (1) 
Cc1ccccc1[N-]C(=O)[N-]c1cccc(C(=O)N2CCN(C)CC2)c1O

>  <Energy>  (1) 
72.08644890158627

>  <Genealogy>  (1) 
Cc1ccccc1[N-]C(=O)[N-]c1cccc(C(=O)N2CCN(C)CC2)c1O (protonated)
Cc1ccccc1[N-]C(=O)[N-]c1cccc(C(=O)N2CCN(C)CC2)c1O (3D coordinates assigned)
Cc1ccccc1[N-]C(=O)[N-]c1cccc(C(=O)N2CCN(C)CC2)c1O (nonaromatic ring conformer: 72.08644890158627 kcal/mol)

>  <smiles>  (1) 
Cc1ccccc1NC(=O)Nc1cccc(C(=O)N2CCN(C)CC2)c1O

>  <score_type>  (1) 
oracle

>  <origin>  (1) 
adg

>  <m_score__min__energy>  (1) 
-13.48

>  <m_primary>  (1) 
energy

$$$$
1:0
     RDKit          3D

 59 65  0  0  0  0  0  0  0  0999 V2000
   54.6970   28.5800   44.5060 H   0  0  0  0  0  0  0  0  0  0  0  0
   55.5560   28.5790   45.0450 O   0  0  0  0  0  0  0  0  0  0  0  0
   56.0110   27.4150   45.6510 C   0  0  0  0  0  0  0  0  0  0  0  0
   55.2170   26.3830   45.9820 N   0  0  0  0  0  0  0  0  0  0  0  0
   56.0880   25.5030   46.5170 C   0  0  0  0  0  0  0  0  0  0  0  0
   55.7310   24.3820   46.9610 O   0  0  0  0  0  0  0  0  0  0  0  0
   57.3740   25.9170   46.5380 N   0  0  0  0  0  0  0  0  0  0  0  0
   57.3150   27.1440   45.9930 C   0  0  0  0  0  0  0  0  0  0  0  0
   58.4700   28.0280   45.7380 C   0  0  0  0  0  0  0  0  0  0  0  0
   59.3401   27.5948   45.2229 H   0  0  0  0  0  0  0  0  0  0  0  0
   58.5350   29.3210   46.0890 C   0  0  0  0  0  0  0  0  0  0  0  0
   57.7430   30.4120   45.4860 C   0  0  0  0  0  0  0  0  0  0  0  0
   56.7584   30.2951   45.0097 H   0  0  0  0  0  0  0  0  0  0  0  0
   58.3900   31.5290   45.6060 N   0  0  0  0  0  0  0  0  0  0  0  0
   59.5830   31.2370   46.2740 N   0  0  0  0  0  0  0  0  0  0  0  0
   60.1690   31.9870   47.2150 C   0  0  0  0  0  0  0  0  0  0  0  0
   60.1200   33.2850   47.2330 N   0  0  0  0  0  0  0  0  0  0  0  0
   61.3020   34.1430   47.3040 C   0  0  1  0  0  0  0  0  0  0  0  0
   60.9314   35.1779   47.2640 H   0  0  0  0  0  0  0  0  0  0  0  0
   62.0740   33.8380   48.5310 C   0  0  0  0  0  0  0  0  0  0  0  0
   61.6280   33.9500   49.8520 C   0  0  0  0  0  0  0  0  0  0  0  0
   60.6014   34.2790   50.0706 H   0  0  0  0  0  0  0  0  0  0  0  0
   62.5140   33.6350   50.8930 C   0  0  0  0  0  0  0  0  0  0  0  0
   62.1813   33.7119   51.9387 H   0  0  0  0  0  0  0  0  0  0  0  0
   63.8270   33.2210   50.6030 C   0  0  0  0  0  0  0  0  0  0  0  0
   64.5186   32.9752   51.4223 H   0  0  0  0  0  0  0  0  0  0  0  0
   64.2560   33.1210   49.2710 C   0  0  0  0  0  0  0  0  0  0  0  0
   65.2813   32.8000   49.0349 H   0  0  0  0  0  0  0  0  0  0  0  0
   63.3560   33.4370   48.2500 C   0  0  0  0  0  0  0  0  0  0  0  0
   63.6300   33.4120   46.7970 C   0  0  0  0  0  0  0  0  0  0  0  0
   63.9149   32.4008   46.4708 H   0  0  0  0  0  0  0  0  0  0  0  0
   64.4640   34.0708   46.5135 H   0  0  0  0  0  0  0  0  0  0  0  0
   62.2960   33.8380   46.1550 C   0  0  0  0  0  0  0  0  0  0  0  0
   61.9051   33.0243   45.5264 H   0  0  0  0  0  0  0  0  0  0  0  0
   62.4377   34.7249   45.5199 H   0  0  0  0  0  0  0  0  0  0  0  0
   60.6800   31.2310   48.2100 N   0  0  0  0  0  0  0  0  0  0  0  0
   60.3220   29.9800   47.8280 C   0  0  0  0  0  0  0  0  0  0  0  0
   60.5060   28.9630   48.6220 N   0  0  0  0  0  0  0  0  0  0  0  0
   59.9360   28.7120   49.9350 C   0  0  0  0  0  0  0  0  0  0  0  0
   59.0825   28.0244   49.8418 H   0  0  0  0  0  0  0  0  0  0  0  0
   60.6939   28.2575   50.5899 H   0  0  0  0  0  0  0  0  0  0  0  0
   59.4720   30.0160   50.5210 C   0  0  0  0  0  0  0  0  0  0  0  0
   58.2400   30.5670   50.1350 C   0  0  0  0  0  0  0  0  0  0  0  0
   57.6285   30.0581   49.3753 H   0  0  0  0  0  0  0  0  0  0  0  0
   57.7850   31.7560   50.7080 C   0  0  0  0  0  0  0  0  0  0  0  0
   56.8224   32.1842   50.3916 H   0  0  0  0  0  0  0  0  0  0  0  0
   58.5520   32.4060   51.6860 C   0  0  0  0  0  0  0  0  0  0  0  0
   58.1030   33.6010   52.2720 C   0  0  0  0  0  0  0  0  0  0  0  0
   57.1439   34.0394   51.9592 H   0  0  0  0  0  0  0  0  0  0  0  0
   58.8730   34.2340   53.2520 C   0  0  0  0  0  0  0  0  0  0  0  0
   58.5183   35.1701   53.7080 H   0  0  0  0  0  0  0  0  0  0  0  0
   60.0910   33.6820   53.6540 C   0  0  0  0  0  0  0  0  0  0  0  0
   60.6916   34.1840   54.4269 H   0  0  0  0  0  0  0  0  0  0  0  0
   60.5500   32.4940   53.0780 C   0  0  0  0  0  0  0  0  0  0  0  0
   61.5102   32.0636   53.3987 H   0  0  0  0  0  0  0  0  0  0  0  0
   59.7880   31.8490   52.0910 C   0  0  0  0  0  0  0  0  0  0  0  0
   60.2370   30.6550   51.5090 C   0  0  0  0  0  0  0  0  0  0  0  0
   61.1940   30.2168   51.8285 H   0  0  0  0  0  0  0  0  0  0  0  0
   59.6940   29.9750   46.6150 N   0  0  0  0  0  0  0  0  0  0  0  0
  1  2  1  0
  2  3  1  0
  3  4  1  0
  4  5  1  0
  5  6  2  0
  5  7  1  0
  7  8  1  0
  8  9  1  0
  9 10  1  0
  9 11  2  0
 11 12  1  0
 12 13  1  0
 12 14  2  0
 14 15  1  0
 15 16  1  0
 16 17  2  3
 17 18  1  0
 18 19  1  1
 18 20  1  0
 20 21  2  0
 21 22  1  0
 21 23  1  0
 23 24  1  0
 23 25  2  0
 25 26  1  0
 25 27  1  0
 27 28  1  0
 27 29  2  0
 29 30  1  0
 30 31  1  0
 30 32  1  0
 30 33  1  0
 33 34  1  0
 33 35  1  0
 16 36  1  0
 36 37  1  0
 37 38  2  3
 38 39  1  0
 39 40  1  0
 39 41  1  0
 39 42  1  0
 42 43  2  0
 43 44  1  0
 43 45  1  0
 45 46  1  0
 45 47  2  0
 47 48  1  0
 48 49  1  0
 48 50  2  0
 50 51  1  0
 50 52  1  0
 52 53  1  0
 52 54  2  0
 54 55  1  0
 54 56  1  0
 56 57  2  0
 57 58  1  0
 37 59  1  0
  8  3  2  0
 59 11  1  0
 59 15  1  0
 33 18  1  0
 57 42  1  0
 29 20  1  0
 56 47  1  0
M  CHG  3   4  -1   7  -1  36  -1
M  END
>  <UniqueID>  (2) 
2

>  <SMILES>  (2) 
O=c1[n-]c(O)c(/C=C2\C=Nn3c(=N[C@@H]4CCc5ccccc54)[n-]c(=NCc4ccc5ccccc5c4)n32)[n-]1

>  <Energy>  (2) 
212.01000931598824

>  <Genealogy>  (2) 
O=c1[n-]c(O)c(C=C2C=Nn3c(=NC4CCc5ccccc54)[n-]c(=NCc4ccc5ccccc5c4)n32)[n-]1 (protonated)
O=c1[n-]c(O)c(C=C2C=Nn3c(=N[C@@H]4CCc5ccccc54)[n-]c(=NCc4ccc5ccccc5c4)n32)[n-]1 (chirality)
O=c1[n-]c(O)c(/C=C2\C=Nn3c(=N[C@@H]4CCc5ccccc54)[n-]c(=NCc4ccc5ccccc5c4)n32)[n-]1 (cis-trans isomerization)
O=c1[n-]c(O)c(/C=C2\C=Nn3c(=N[C@@H]4CCc5ccccc54)[n-]c(=NCc4ccc5ccccc5c4)n32)[n-]1 (3D coordinates assigned)
O=c1[n-]c(O)c(/C=C2\C=Nn3c(=N[C@@H]4CCc5ccccc54)[n-]c(=NCc4ccc5ccccc5c4)n32)[n-]1 (nonaromatic ring conformer: 212.01000931598824 kcal/mol)

>  <smiles>  (2) 
O=c1[nH]c(O)c(C=C2C=Nn3c(=NC4CCc5ccccc54)[nH]c(=NCc4ccc5ccccc5c4)n32)[nH]1

>  <score_type>  (2) 
oracle

>  <origin>  (2) 
adg

>  <m_score__min__energy>  (2) 
-16.579999999999998

>  <m_primary>  (2) 
energy

$$$$
2:0
     RDKit          3D

 46 48  0  0  0  0  0  0  0  0999 V2000
   53.8020   22.0810   45.3920 N   0  0  0  0  0  0  0  0  0  0  0  0
   54.4420   23.4970   44.6340 S   0  0  0  0  0  0  0  0  0  0  0  0
   53.3270   24.4730   44.3920 O   0  0  0  0  0  0  0  0  0  0  0  0
   55.0560   23.1000   43.3210 O   0  0  0  0  0  0  0  0  0  0  0  0
   55.6660   24.2490   45.6600 C   0  0  0  0  0  0  0  0  0  0  0  0
   56.7810   23.5100   46.0790 C   0  0  0  0  0  0  0  0  0  0  0  0
   57.7540   24.1000   46.8900 C   0  0  0  0  0  0  0  0  0  0  0  0
   57.6310   25.4430   47.2830 C   0  0  0  0  0  0  0  0  0  0  0  0
   58.6170   26.0810   48.1060 N   0  0  0  0  0  0  0  0  0  0  0  0
   59.6650   26.9510   47.6540 C   0  0  0  0  0  0  0  0  0  0  0  0
   60.7160   27.0350   48.3430 O   0  0  0  0  0  0  0  0  0  0  0  0
   59.5270   27.7870   46.4360 C   0  0  0  0  0  0  0  0  0  0  0  0
   60.6520   28.0660   45.6410 C   0  0  0  0  0  0  0  0  0  0  0  0
   60.5260   28.8440   44.4880 C   0  0  0  0  0  0  0  0  0  0  0  0
   59.2790   29.3540   44.1170 C   0  0  0  0  0  0  0  0  0  0  0  0
   58.1520   29.0980   44.9090 C   0  0  0  0  0  0  0  0  0  0  0  0
   56.5720   29.7410   44.4650 S   0  0  0  0  0  0  0  0  0  0  0  0
   56.3220   29.5440   42.9960 O   0  0  0  0  0  0  0  0  0  0  0  0
   55.5200   28.9890   45.2300 O   0  0  0  0  0  0  0  0  0  0  0  0
   56.4520   31.4340   44.8510 N   0  0  0  0  0  0  0  0  0  0  0  0
   57.5330   32.2070   44.2360 C   0  0  0  0  0  0  0  0  0  0  0  0
   58.2390   33.0650   45.2510 C   0  0  0  0  0  0  0  0  0  0  0  0
   58.9470   34.2100   44.8480 C   0  0  0  0  0  0  0  0  0  0  0  0
   59.5860   35.0130   45.7980 C   0  0  0  0  0  0  0  0  0  0  0  0
   59.5250   34.6780   47.1540 C   0  0  0  0  0  0  0  0  0  0  0  0
   58.8250   33.5400   47.5620 C   0  0  0  0  0  0  0  0  0  0  0  0
   58.1840   32.7340   46.6150 C   0  0  0  0  0  0  0  0  0  0  0  0
   58.2810   28.3290   46.0720 C   0  0  0  0  0  0  0  0  0  0  0  0
   56.4990   26.1690   46.8960 C   0  0  0  0  0  0  0  0  0  0  0  0
   55.5210   25.5810   46.0870 C   0  0  0  0  0  0  0  0  0  0  0  0
   54.4080   26.3280   45.7140 O   0  0  0  0  0  0  0  0  0  0  0  0
   52.7680   22.2150   45.4660 H   0  0  0  0  0  0  0  0  0  0  0  0
   56.8905   22.4606   45.7679 H   0  0  0  0  0  0  0  0  0  0  0  0
   58.6207   23.5098   47.2224 H   0  0  0  0  0  0  0  0  0  0  0  0
   61.6370   27.6695   45.9285 H   0  0  0  0  0  0  0  0  0  0  0  0
   61.4110   29.0559   43.8701 H   0  0  0  0  0  0  0  0  0  0  0  0
   59.1821   29.9571   43.2022 H   0  0  0  0  0  0  0  0  0  0  0  0
   58.2587   31.5131   43.7868 H   0  0  0  0  0  0  0  0  0  0  0  0
   57.0966   32.8645   43.4697 H   0  0  0  0  0  0  0  0  0  0  0  0
   58.9987   34.4755   43.7818 H   0  0  0  0  0  0  0  0  0  0  0  0
   60.1374   35.9094   45.4780 H   0  0  0  0  0  0  0  0  0  0  0  0
   60.0284   35.3107   47.8998 H   0  0  0  0  0  0  0  0  0  0  0  0
   58.7777   33.2773   48.6291 H   0  0  0  0  0  0  0  0  0  0  0  0
   57.6350   31.8378   46.9398 H   0  0  0  0  0  0  0  0  0  0  0  0
   57.4008   28.1472   46.7062 H   0  0  0  0  0  0  0  0  0  0  0  0
   56.3773   27.2098   47.2305 H   0  0  0  0  0  0  0  0  0  0  0  0
  1  2  1  0
  2  3  2  0
  2  4  2  0
  2  5  1  0
  5  6  2  0
  6  7  1  0
  7  8  2  0
  8  9  1  0
  9 10  1  0
 10 11  2  0
 10 12  1  0
 12 13  2  0
 13 14  1  0
 14 15  2  0
 15 16  1  0
 16 17  1  0
 17 18  2  0
 17 19  2  0
 17 20  1  0
 20 21  1  0
 21 22  1  0
 22 23  2  0
 23 24  1  0
 24 25  2  0
 25 26  1  0
 26 27  2  0
 16 28  2  0
  8 29  1  0
 29 30  2  0
 30 31  1  0
 30  5  1  0
 28 12  1  0
 27 22  1  0
  1 32  1  0
  6 33  1  0
  7 34  1  0
 13 35  1  0
 14 36  1  0
 15 37  1  0
 21 38  1  0
 21 39  1  0
 23 40  1  0
 24 41  1  0
 25 42  1  0
 26 43  1  0
 27 44  1  0
 28 45  1  0
 29 46  1  0
M  CHG  4   1  -1   9  -1  20  -1  31  -1
M  END
>  <UniqueID>  (3) 
3

>  <SMILES>  (3) 
[NH-]S(=O)(=O)c1ccc([N-]C(=O)c2cccc(S(=O)(=O)[N-]Cc3ccccc3)c2)cc1[O-]

>  <Energy>  (3) 
53.99108127113458

>  <Genealogy>  (3) 
[NH-]S(=O)(=O)c1ccc([N-]C(=O)c2cccc(S(=O)(=O)[N-]Cc3ccccc3)c2)cc1[O-] (protonated)
[NH-]S(=O)(=O)c1ccc([N-]C(=O)c2cccc(S(=O)(=O)[N-]Cc3ccccc3)c2)cc1[O-] (3D coordinates assigned)
[NH-]S(=O)(=O)c1ccc([N-]C(=O)c2cccc(S(=O)(=O)[N-]Cc3ccccc3)c2)cc1[O-] (optimized conformer: 53.99108127113458 kcal/mol)

>  <smiles>  (3) 
NS(=O)(=O)c1ccc(NC(=O)c2cccc(S(=O)(=O)NCc3ccccc3)c2)cc1O

>  <score_type>  (3) 
oracle

>  <origin>  (3) 
adg

>  <m_score__min__energy>  (3) 
-18.399999999999999

>  <m_primary>  (3) 
energy

$$$$
3:0
     RDKit          3D

 42 45  0  0  1  0  0  0  0  0999 V2000
   56.7970   29.1920   42.8690 O   0  0  0  0  0  0  0  0  0  0  0  0
   56.8520   29.6440   44.3140 S   0  0  0  0  0  0  0  0  0  0  0  0
   55.4090   29.5960   44.7940 O   0  0  0  0  0  0  0  0  0  0  0  0
   57.4860   31.2560   44.4280 C   0  0  0  0  0  0  0  0  0  0  0  0
   57.9590   31.8990   43.2830 C   0  0  0  0  0  0  0  0  0  0  0  0
   58.4660   33.1840   43.3630 C   0  0  0  0  0  0  0  0  0  0  0  0
   58.5290   33.8760   44.5520 C   0  0  0  0  0  0  0  0  0  0  0  0
   58.0640   33.2480   45.6890 C   0  0  0  0  0  0  0  0  0  0  0  0
   58.0790   33.8650   46.9770 N   0  0  0  0  0  0  0  0  0  0  0  0
   59.1290   33.9360   47.7060 C   0  0  0  0  0  0  0  0  0  0  0  0
   59.5750   34.7810   48.6020 N   0  0  0  0  0  0  0  0  0  0  0  0
   60.7170   34.4930   49.1330 N   0  0  0  0  0  0  0  0  0  0  0  0
   61.4270   33.6140   48.9590 C   0  0  0  0  0  0  0  0  0  0  0  0
   62.7350   33.0320   49.3860 C   0  0  0  0  0  0  0  0  0  0  0  0
   63.9260   33.5190   48.9050 C   0  0  0  0  0  0  0  0  0  0  0  0
   65.0760   32.8830   49.3870 C   0  0  0  0  0  0  0  0  0  0  0  0
   64.9330   31.8440   50.2800 C   0  0  0  0  0  0  0  0  0  0  0  0
   63.7530   31.3930   50.7300 N   0  0  0  0  0  0  0  0  0  0  0  0
   62.6390   31.9930   50.2770 C   0  0  0  0  0  0  0  0  0  0  0  0
   60.4600   32.6460   47.6390 S   0  0  0  0  0  0  0  0  0  0  0  0
   57.5500   31.9520   45.6190 C   0  0  0  0  0  0  0  0  0  0  0  0
   57.7630   28.4860   45.2560 C   0  0  0  0  0  0  0  0  0  0  0  0
   59.1290   28.5820   45.4450 C   0  0  0  0  0  0  0  0  0  0  0  0
   59.7650   27.6040   46.2160 C   0  0  0  0  0  0  0  0  0  0  0  0
   59.0000   26.5730   46.7610 C   0  0  0  0  0  0  0  0  0  0  0  0
   57.6550   26.4740   46.5780 C   0  0  0  0  0  0  0  0  0  0  0  0
   57.0290   27.4380   45.8190 C   0  0  0  0  0  0  0  0  0  0  0  0
   55.6530   27.3450   45.6250 O   0  0  0  0  0  0  0  0  0  0  0  0
   57.9286   31.3819   42.3126 H   0  0  0  0  0  0  0  0  0  0  0  0
   58.8311   33.6692   42.4458 H   0  0  0  0  0  0  0  0  0  0  0  0
   58.9370   34.8967   44.5938 H   0  0  0  0  0  0  0  0  0  0  0  0
   59.0290   35.6590   48.8820 H   0  0  0  0  0  0  0  0  0  0  0  0
   63.9728   34.3528   48.1891 H   0  0  0  0  0  0  0  0  0  0  0  0
   66.0748   33.2067   49.0589 H   0  0  0  0  0  0  0  0  0  0  0  0
   65.8458   31.3525   50.6478 H   0  0  0  0  0  0  0  0  0  0  0  0
   61.6513   31.6515   50.6202 H   0  0  0  0  0  0  0  0  0  0  0  0
   57.1855   31.4714   46.5389 H   0  0  0  0  0  0  0  0  0  0  0  0
   59.7022   29.4083   44.9994 H   0  0  0  0  0  0  0  0  0  0  0  0
   60.8503   27.6471   46.3897 H   0  0  0  0  0  0  0  0  0  0  0  0
   59.5061   25.8059   47.3655 H   0  0  0  0  0  0  0  0  0  0  0  0
   57.0835   25.6467   47.0240 H   0  0  0  0  0  0  0  0  0  0  0  0
   55.1430   27.8740   44.9570 H   0  0  0  0  0  0  0  0  0  0  0  0
  1  2  2  0
  2  3  2  0
  2  4  1  0
  4  5  2  0
  5  6  1  0
  6  7  2  0
  7  8  1  0
  8  9  1  0
  9 10  2  0
 10 11  1  0
 11 12  1  0
 12 13  2  0
 13 14  1  0
 14 15  2  0
 15 16  1  0
 16 17  2  0
 17 18  1  0
 18 19  2  0
 13 20  1  0
  8 21  2  0
  2 22  1  0
 22 23  2  0
 23 24  1  0
 24 25  2  0
 25 26  1  0
 26 27  2  0
 27 28  1  0
 21  4  1  0
 27 22  1  0
 20 10  1  0
 19 14  1  0
  5 29  1  0
  6 30  1  0
  7 31  1  0
 11 32  1  0
 15 33  1  0
 16 34  1  0
 17 35  1  0
 19 36  1  0
 21 37  1  0
 23 38  1  0
 24 39  1  0
 25 40  1  0
 26 41  1  0
 28 42  1  0
M  END
>  <smiles>  (4) 
O=S(=O)(c1cccc(N=c2[nH]nc(-c3cccnc3)s2)c1)c1ccccc1O

>  <score_type>  (4) 
oracle

>  <origin>  (4) 
adg

>  <m_score__min__energy>  (4) 
-10.710000000000001

>  <m_primary>  (4) 
energy

$$$$
4:0
     RDKit          3D

 47 49  0  0  0  0  0  0  0  0999 V2000
   57.6030   33.8570   47.3120 N   0  0  0  0  0  0  0  0  0  0  0  0
   57.8510   33.5430   45.6300 S   0  0  0  0  0  0  0  0  0  0  0  0
   56.6540   34.0210   44.8590 O   0  0  0  0  0  0  0  0  0  0  0  0
   59.0700   34.2800   45.1520 O   0  0  0  0  0  0  0  0  0  0  0  0
   58.0850   31.8150   45.3880 C   0  0  0  0  0  0  0  0  0  0  0  0
   57.2990   31.1060   44.4700 C   0  0  0  0  0  0  0  0  0  0  0  0
   57.4740   29.7290   44.3080 C   0  0  0  0  0  0  0  0  0  0  0  0
   58.4470   29.0500   45.0550 C   0  0  0  0  0  0  0  0  0  0  0  0
   58.6250   27.3050   44.9110 S   0  0  0  0  0  0  0  0  0  0  0  0
   60.0450   26.9400   45.2420 O   0  0  0  0  0  0  0  0  0  0  0  0
   58.3420   26.8710   43.4990 O   0  0  0  0  0  0  0  0  0  0  0  0
   57.5610   26.4560   45.9860 N   0  0  0  0  0  0  0  0  0  0  0  0
   56.7110   25.3800   45.5750 C   0  0  0  0  0  0  0  0  0  0  0  0
   57.2460   24.1950   45.0460 C   0  0  0  0  0  0  0  0  0  0  0  0
   56.4030   23.1560   44.6340 C   0  0  0  0  0  0  0  0  0  0  0  0
   57.0720   21.6630   43.9810 S   0  0  0  0  0  0  0  0  0  0  0  0
   58.5160   21.8600   43.6080 O   0  0  0  0  0  0  0  0  0  0  0  0
   56.3020   21.2920   42.7440 O   0  0  0  0  0  0  0  0  0  0  0  0
   56.9360   20.3920   45.1710 N   0  0  0  0  0  0  0  0  0  0  0  0
   55.5540   20.2930   45.6940 C   0  0  0  0  0  0  0  0  0  0  0  0
   55.4250   20.8700   47.1150 C   0  0  0  0  0  0  0  0  0  0  0  0
   56.2900   20.2510   48.0570 O   0  0  0  0  0  0  0  0  0  0  0  0
   57.5350   19.8370   47.5090 C   0  0  0  0  0  0  0  0  0  0  0  0
   57.9400   20.5920   46.2330 C   0  0  0  0  0  0  0  0  0  0  0  0
   55.0150   23.3070   44.7410 C   0  0  0  0  0  0  0  0  0  0  0  0
   54.4750   24.4970   45.2370 C   0  0  0  0  0  0  0  0  0  0  0  0
   55.3180   25.5350   45.6450 C   0  0  0  0  0  0  0  0  0  0  0  0
   54.7700   26.7160   46.1320 O   0  0  0  0  0  0  0  0  0  0  0  0
   59.2450   29.7610   45.9610 C   0  0  0  0  0  0  0  0  0  0  0  0
   59.0610   31.1370   46.1300 C   0  0  0  0  0  0  0  0  0  0  0  0
   56.5710   33.9240   47.4610 H   0  0  0  0  0  0  0  0  0  0  0  0
   57.9290   33.0120   47.8330 H   0  0  0  0  0  0  0  0  0  0  0  0
   56.5409   31.6355   43.8743 H   0  0  0  0  0  0  0  0  0  0  0  0
   56.8469   29.1766   43.5928 H   0  0  0  0  0  0  0  0  0  0  0  0
   58.3363   24.0818   44.9544 H   0  0  0  0  0  0  0  0  0  0  0  0
   54.8815   20.8488   45.0240 H   0  0  0  0  0  0  0  0  0  0  0  0
   55.2861   19.2270   45.7378 H   0  0  0  0  0  0  0  0  0  0  0  0
   55.6613   21.9437   47.0779 H   0  0  0  0  0  0  0  0  0  0  0  0
   54.3940   20.6819   47.4490 H   0  0  0  0  0  0  0  0  0  0  0  0
   58.3161   19.9956   48.2671 H   0  0  0  0  0  0  0  0  0  0  0  0
   57.4231   18.7789   47.2300 H   0  0  0  0  0  0  0  0  0  0  0  0
   58.0193   21.6658   46.4580 H   0  0  0  0  0  0  0  0  0  0  0  0
   58.9082   20.2041   45.8835 H   0  0  0  0  0  0  0  0  0  0  0  0
   54.3484   22.4876   44.4341 H   0  0  0  0  0  0  0  0  0  0  0  0
   53.3838   24.6171   45.3065 H   0  0  0  0  0  0  0  0  0  0  0  0
   60.0182   29.2356   46.5408 H   0  0  0  0  0  0  0  0  0  0  0  0
   59.6850   31.6891   46.8483 H   0  0  0  0  0  0  0  0  0  0  0  0
  1  2  1  0
  2  3  2  0
  2  4  2  0
  2  5  1  0
  5  6  2  0
  6  7  1  0
  7  8  2  0
  8  9  1  0
  9 10  2  0
  9 11  2  0
  9 12  1  0
 12 13  1  0
 13 14  2  0
 14 15  1  0
 15 16  1  0
 16 17  2  0
 16 18  2  0
 16 19  1  0
 19 20  1  0
 20 21  1  0
 21 22  1  0
 22 23  1  0
 23 24  1  0
 15 25  2  0
 25 26  1  0
 26 27  2  0
 27 28  1  0
  8 29  1  0
 29 30  2  0
 30  5  1  0
 27 13  1  0
 24 19  1  0
  1 31  1  0
  1 32  1  0
  6 33  1  0
  7 34  1  0
 14 35  1  0
 20 36  1  0
 20 37  1  0
 21 38  1  0
 21 39  1  0
 23 40  1  0
 23 41  1  0
 24 42  1  0
 24 43  1  0
 25 44  1  0
 26 45  1  0
 29 46  1  0
 30 47  1  0
M  CHG  2  12  -1  28  -1
M  END
>  <UniqueID>  (5) 
4

>  <SMILES>  (5) 
NS(=O)(=O)c1ccc(S(=O)(=O)[N-]c2cc(S(=O)(=O)N3CCOCC3)ccc2[O-])cc1

>  <Energy>  (5) 
64.12482045529363

>  <Genealogy>  (5) 
NS(=O)(=O)c1ccc(S(=O)(=O)[N-]c2cc(S(=O)(=O)N3CCOCC3)ccc2[O-])cc1 (protonated)
NS(=O)(=O)c1ccc(S(=O)(=O)[N-]c2cc(S(=O)(=O)N3CCOCC3)ccc2[O-])cc1 (3D coordinates assigned)
NS(=O)(=O)c1ccc(S(=O)(=O)[N-]c2cc(S(=O)(=O)N3CCOCC3)ccc2[O-])cc1 (nonaromatic ring conformer: 64.12482045529363 kcal/mol)

>  <smiles>  (5) 
NS(=O)(=O)c1ccc(S(=O)(=O)Nc2cc(S(=O)(=O)N3CCOCC3)ccc2O)cc1

>  <score_type>  (5) 
oracle

>  <origin>  (5) 
adg

>  <m_score__min__energy>  (5) 
-13.880000000000001

>  <m_primary>  (5) 
energy

$$$$
5:0
     RDKit          3D

 50 53  0  0  1  0  0  0  0  0999 V2000
   56.2640   27.1030   45.6360 C   0  0  0  0  0  0  0  0  0  0  0  0
   57.1340   28.1680   45.0030 C   0  0  1  0  0  0  0  0  0  0  0  0
   56.5230   29.4610   45.0170 N   0  0  0  0  0  0  0  0  0  0  0  0
   57.0720   30.5620   44.6300 C   0  0  0  0  0  0  0  0  0  0  0  0
   57.0500   30.8460   43.2820 C   0  0  0  0  0  0  0  0  0  0  0  0
   57.6200   32.0080   42.8050 C   0  0  0  0  0  0  0  0  0  0  0  0
   58.2060   32.8780   43.6770 N   0  0  0  0  0  0  0  0  0  0  0  0
   58.2230   32.5890   45.0090 C   0  0  0  0  0  0  0  0  0  0  0  0
   58.8440   33.5190   45.8900 N   0  0  0  0  0  0  0  0  0  0  0  0
   59.0450   34.9240   45.6420 C   0  0  0  0  0  0  0  0  0  0  0  0
   59.0320   35.4960   44.5000 O   0  0  0  0  0  0  0  0  0  0  0  0
   59.2600   35.5830   46.8370 O   0  0  0  0  0  0  0  0  0  0  0  0
   59.3400   34.6550   47.9030 C   0  0  0  0  0  0  0  0  0  0  0  0
   59.4100   33.2990   47.2060 C   0  0  1  0  0  0  0  0  0  0  0  0
   58.6290   32.2350   47.9210 C   0  0  0  0  0  0  0  0  0  0  0  0
   60.8280   32.9110   47.1940 C   0  0  0  0  0  0  0  0  0  0  0  0
   61.2030   31.6290   47.6010 C   0  0  0  0  0  0  0  0  0  0  0  0
   62.5530   31.3300   47.5670 C   0  0  0  0  0  0  0  0  0  0  0  0
   63.5170   32.2200   47.1580 C   0  0  0  0  0  0  0  0  0  0  0  0
   63.0840   33.4730   46.7680 C   0  0  0  0  0  0  0  0  0  0  0  0
   61.7550   33.8440   46.7750 C   0  0  0  0  0  0  0  0  0  0  0  0
   57.6550   31.4400   45.4410 N   0  0  0  0  0  0  0  0  0  0  0  0
   58.3800   28.2610   45.8100 C   0  0  0  0  0  0  0  0  0  0  0  0
   59.5960   28.6390   45.2820 C   0  0  0  0  0  0  0  0  0  0  0  0
   60.7490   28.7230   46.0350 C   0  0  0  0  0  0  0  0  0  0  0  0
   60.6990   28.4210   47.3710 C   0  0  0  0  0  0  0  0  0  0  0  0
   59.4980   28.0420   47.9170 C   0  0  0  0  0  0  0  0  0  0  0  0
   58.3300   27.9550   47.1600 C   0  0  0  0  0  0  0  0  0  0  0  0
   56.3276   27.1809   46.7314 H   0  0  0  0  0  0  0  0  0  0  0  0
   55.2205   27.2453   45.3183 H   0  0  0  0  0  0  0  0  0  0  0  0
   56.6117   26.1089   45.3183 H   0  0  0  0  0  0  0  0  0  0  0  0
   57.3113   27.8839   43.9552 H   0  0  0  0  0  0  0  0  0  0  0  0
   56.5753   30.1423   42.5824 H   0  0  0  0  0  0  0  0  0  0  0  0
   57.6021   32.2317   41.7281 H   0  0  0  0  0  0  0  0  0  0  0  0
   58.6170   33.7280   43.2780 H   0  0  0  0  0  0  0  0  0  0  0  0
   60.2417   34.8309   48.5080 H   0  0  0  0  0  0  0  0  0  0  0  0
   58.4896   34.7317   48.5965 H   0  0  0  0  0  0  0  0  0  0  0  0
   58.7305   32.3733   49.0075 H   0  0  0  0  0  0  0  0  0  0  0  0
   57.5680   32.3074   47.6397 H   0  0  0  0  0  0  0  0  0  0  0  0
   59.0161   31.2445   47.6397 H   0  0  0  0  0  0  0  0  0  0  0  0
   60.4587   30.8905   47.9335 H   0  0  0  0  0  0  0  0  0  0  0  0
   62.8721   30.3262   47.8843 H   0  0  0  0  0  0  0  0  0  0  0  0
   64.5827   31.9479   47.1418 H   0  0  0  0  0  0  0  0  0  0  0  0
   63.8326   34.2078   46.4370 H   0  0  0  0  0  0  0  0  0  0  0  0
   61.4444   34.8502   46.4571 H   0  0  0  0  0  0  0  0  0  0  0  0
   59.6495   28.8849   44.2112 H   0  0  0  0  0  0  0  0  0  0  0  0
   61.6972   29.0287   45.5687 H   0  0  0  0  0  0  0  0  0  0  0  0
   61.6038   28.4812   47.9936 H   0  0  0  0  0  0  0  0  0  0  0  0
   59.4554   27.7985   48.9889 H   0  0  0  0  0  0  0  0  0  0  0  0
   57.3831   27.6479   47.6280 H   0  0  0  0  0  0  0  0  0  0  0  0
  1  2  1  0
  2  3  1  0
  3  4  2  0
  4  5  1  0
  5  6  2  0
  6  7  1  0
  7  8  1  0
  8  9  1  0
  9 10  1  0
 10 11  2  0
 10 12  1  0
 12 13  1  0
 13 14  1  0
 14 15  1  1
 14 16  1  0
 16 17  2  0
 17 18  1  0
 18 19  2  0
 19 20  1  0
 20 21  2  0
  8 22  2  0
  2 23  1  0
 23 24  2  0
 24 25  1  0
 25 26  2  0
 26 27  1  0
 27 28  2  0
 22  4  1  0
 28 23  1  0
 14  9  1  0
 21 16  1  0
  1 29  1  0
  1 30  1  0
  1 31  1  0
  2 32  1  6
  5 33  1  0
  6 34  1  0
  7 35  1  0
 13 36  1  0
 13 37  1  0
 15 38  1  0
 15 39  1  0
 15 40  1  0
 17 41  1  0
 18 42  1  0
 19 43  1  0
 20 44  1  0
 21 45  1  0
 24 46  1  0
 25 47  1  0
 26 48  1  0
 27 49  1  0
 28 50  1  0
M  END
>  <smiles>  (6) 
CC(N=c1cc[nH]c(N2C(=O)OCC2(C)c2ccccc2)n1)c1ccccc1

>  <score_type>  (6) 
oracle

>  <origin>  (6) 
adg

>  <m_score__min__energy>  (6) 
-9.7100000000000009

>  <m_primary>  (6) 
energy

$$$$
6:0
     RDKit          3D

 60 63  0  0  0  0  0  0  0  0999 V2000
   55.5470   30.0820   53.9110 C   0  0  0  0  0  0  0  0  0  0  0  0
   56.5860   30.4070   52.8810 C   0  0  0  0  0  0  0  0  0  0  0  0
   56.5000   31.6000   52.1490 C   0  0  0  0  0  0  0  0  0  0  0  0
   57.4500   31.8960   51.1680 C   0  0  0  0  0  0  0  0  0  0  0  0
   58.4960   30.9990   50.8980 C   0  0  0  0  0  0  0  0  0  0  0  0
   59.4760   31.3030   49.8900 N   0  0  0  0  0  0  0  0  0  0  0  0
   60.3560   30.2510   49.3730 C   0  0  0  0  0  0  0  0  0  0  0  0
   59.8200   29.7250   48.0780 C   0  0  0  0  0  0  0  0  0  0  0  0
   60.3850   28.7360   47.5370 O   0  0  0  0  0  0  0  0  0  0  0  0
   58.7020   30.3600   47.4410 N   0  0  0  0  0  0  0  0  0  0  0  0
   58.1620   29.9110   46.1900 C   0  0  0  0  0  0  0  0  0  0  0  0
   58.0020   28.5340   45.9800 C   0  0  0  0  0  0  0  0  0  0  0  0
   57.4370   28.0590   44.7950 C   0  0  0  0  0  0  0  0  0  0  0  0
   57.0400   28.9550   43.8030 C   0  0  0  0  0  0  0  0  0  0  0  0
   57.2210   30.3280   43.9840 C   0  0  0  0  0  0  0  0  0  0  0  0
   57.7960   30.8210   45.1680 C   0  0  0  0  0  0  0  0  0  0  0  0
   58.0540   32.2300   45.3040 N   0  0  0  0  0  0  0  0  0  0  0  0
   56.9390   33.1480   45.5540 C   0  0  0  0  0  0  0  0  0  0  0  0
   57.3020   34.5460   45.0450 C   0  0  0  0  0  0  0  0  0  0  0  0
   58.5400   34.9710   45.5870 O   0  0  0  0  0  0  0  0  0  0  0  0
   59.5820   34.1370   45.1190 C   0  0  0  0  0  0  0  0  0  0  0  0
   59.4040   32.7010   45.6220 C   0  0  0  0  0  0  0  0  0  0  0  0
   59.7700   32.9550   49.4300 S   0  0  0  0  0  0  0  0  0  0  0  0
   58.8130   33.3650   48.3410 O   0  0  0  0  0  0  0  0  0  0  0  0
   59.5590   33.8540   50.6200 O   0  0  0  0  0  0  0  0  0  0  0  0
   61.4130   33.1230   48.8210 C   0  0  0  0  0  0  0  0  0  0  0  0
   61.6540   33.6700   47.5520 C   0  0  0  0  0  0  0  0  0  0  0  0
   62.9650   33.8070   47.0850 C   0  0  0  0  0  0  0  0  0  0  0  0
   64.0410   33.4030   47.8810 C   0  0  0  0  0  0  0  0  0  0  0  0
   63.8060   32.8630   49.1480 C   0  0  0  0  0  0  0  0  0  0  0  0
   62.4960   32.7260   49.6200 C   0  0  0  0  0  0  0  0  0  0  0  0
   58.5730   29.7990   51.6200 C   0  0  0  0  0  0  0  0  0  0  0  0
   57.6220   29.5020   52.6010 C   0  0  0  0  0  0  0  0  0  0  0  0
   55.9731   30.2153   54.9163 H   0  0  0  0  0  0  0  0  0  0  0  0
   54.6845   30.7533   53.7863 H   0  0  0  0  0  0  0  0  0  0  0  0
   55.2208   29.0389   53.7863 H   0  0  0  0  0  0  0  0  0  0  0  0
   55.6806   32.3063   52.3481 H   0  0  0  0  0  0  0  0  0  0  0  0
   57.3780   32.8375   50.6038 H   0  0  0  0  0  0  0  0  0  0  0  0
   61.3618   30.6653   49.2094 H   0  0  0  0  0  0  0  0  0  0  0  0
   60.4047   29.4300   50.1035 H   0  0  0  0  0  0  0  0  0  0  0  0
   58.3790   31.2840   47.8080 H   0  0  0  0  0  0  0  0  0  0  0  0
   58.3241   27.8226   46.7547 H   0  0  0  0  0  0  0  0  0  0  0  0
   57.3049   26.9775   44.6438 H   0  0  0  0  0  0  0  0  0  0  0  0
   56.5831   28.5795   42.8755 H   0  0  0  0  0  0  0  0  0  0  0  0
   56.9114   31.0285   43.1944 H   0  0  0  0  0  0  0  0  0  0  0  0
   56.0429   32.7878   45.0275 H   0  0  0  0  0  0  0  0  0  0  0  0
   56.7375   33.1930   46.6344 H   0  0  0  0  0  0  0  0  0  0  0  0
   57.3773   34.5224   43.9478 H   0  0  0  0  0  0  0  0  0  0  0  0
   56.5181   35.2510   45.3589 H   0  0  0  0  0  0  0  0  0  0  0  0
   59.5755   34.1362   44.0190 H   0  0  0  0  0  0  0  0  0  0  0  0
   60.5387   34.5251   45.4986 H   0  0  0  0  0  0  0  0  0  0  0  0
   60.1432   32.0485   45.1343 H   0  0  0  0  0  0  0  0  0  0  0  0
   59.5511   32.6760   46.7118 H   0  0  0  0  0  0  0  0  0  0  0  0
   60.8106   33.9916   46.9233 H   0  0  0  0  0  0  0  0  0  0  0  0
   63.1502   34.2339   46.0883 H   0  0  0  0  0  0  0  0  0  0  0  0
   65.0711   33.5101   47.5103 H   0  0  0  0  0  0  0  0  0  0  0  0
   64.6519   32.5452   49.7752 H   0  0  0  0  0  0  0  0  0  0  0  0
   62.3146   32.3059   50.6203 H   0  0  0  0  0  0  0  0  0  0  0  0
   59.3861   29.0876   51.4133 H   0  0  0  0  0  0  0  0  0  0  0  0
   57.6859   28.5545   53.1561 H   0  0  0  0  0  0  0  0  0  0  0  0
  1  2  1  0
  2  3  2  0
  3  4  1  0
  4  5  2  0
  5  6  1  0
  6  7  1  0
  7  8  1  0
  8  9  2  0
  8 10  1  0
 10 11  1  0
 11 12  2  0
 12 13  1  0
 13 14  2  0
 14 15  1  0
 15 16  2  0
 16 17  1  0
 17 18  1  0
 18 19  1  0
 19 20  1  0
 20 21  1  0
 21 22  1  0
  6 23  1  0
 23 24  2  0
 23 25  2  0
 23 26  1  0
 26 27  2  0
 27 28  1  0
 28 29  2  0
 29 30  1  0
 30 31  2  0
  5 32  1  0
 32 33  2  0
 33  2  1  0
 16 11  1  0
 22 17  1  0
 31 26  1  0
  1 34  1  0
  1 35  1  0
  1 36  1  0
  3 37  1  0
  4 38  1  0
  7 39  1  0
  7 40  1  0
 10 41  1  0
 12 42  1  0
 13 43  1  0
 14 44  1  0
 15 45  1  0
 18 46  1  0
 18 47  1  0
 19 48  1  0
 19 49  1  0
 21 50  1  0
 21 51  1  0
 22 52  1  0
 22 53  1  0
 27 54  1  0
 28 55  1  0
 29 56  1  0
 30 57  1  0
 31 58  1  0
 32 59  1  0
 33 60  1  0
M  END
>  <UniqueID>  (7) 
5

>  <SMILES>  (7) 
Cc1ccc(N(CC(=O)Nc2ccccc2N2CCOCC2)S(=O)(=O)c2ccccc2)cc1

>  <Energy>  (7) 
74.66156468253679

>  <Genealogy>  (7) 
Cc1ccc(N(CC(=O)Nc2ccccc2N2CCOCC2)S(=O)(=O)c2ccccc2)cc1 (3D coordinates assigned)
Cc1ccc(N(CC(=O)Nc2ccccc2N2CCOCC2)S(=O)(=O)c2ccccc2)cc1 (nonaromatic ring conformer: 74.66156468253679 kcal/mol)

>  <smiles>  (7) 
Cc1ccc(N(CC(=O)Nc2ccccc2N2CCOCC2)S(=O)(=O)c2ccccc2)cc1

>  <score_type>  (7) 
oracle

>  <origin>  (7) 
adg

>  <m_score__min__energy>  (7) 
-9.4000000000000004

>  <m_primary>  (7) 
energy

$$$$
7:0
     RDKit          3D

 31 33  0  0  0  0  0  0  0  0999 V2000
   58.1095   32.3124   45.5197 H   0  0  0  0  0  0  0  0  0  0  0  0
   57.6240   31.5720   44.8670 C   0  0  0  0  0  0  0  0  0  0  0  0
   57.0480   30.4650   45.4070 N   0  0  0  0  0  0  0  0  0  0  0  0
   56.4430   29.5140   44.6440 C   0  0  0  0  0  0  0  0  0  0  0  0
   55.9080   28.4870   45.2450 N   0  0  0  0  0  0  0  0  0  0  0  0
   56.5830   27.4470   45.9740 C   0  0  0  0  0  0  0  0  0  0  0  0
   57.8840   27.6250   46.4570 C   0  0  0  0  0  0  0  0  0  0  0  0
   58.4281   28.5584   46.2505 H   0  0  0  0  0  0  0  0  0  0  0  0
   58.4900   26.6060   47.2060 C   0  0  0  0  0  0  0  0  0  0  0  0
   59.7940   26.7260   47.7070 O   0  0  0  0  0  0  0  0  0  0  0  0
   60.2990   27.8420   48.3890 C   0  0  0  0  0  0  0  0  0  0  0  0
   60.6770   27.7780   49.7440 C   0  0  0  0  0  0  0  0  0  0  0  0
   60.5849   26.8300   50.2942 H   0  0  0  0  0  0  0  0  0  0  0  0
   61.1690   28.9150   50.3930 C   0  0  0  0  0  0  0  0  0  0  0  0
   61.4742   28.8570   51.4482 H   0  0  0  0  0  0  0  0  0  0  0  0
   61.2730   30.1250   49.7010 C   0  0  0  0  0  0  0  0  0  0  0  0
   61.6659   31.0175   50.2099 H   0  0  0  0  0  0  0  0  0  0  0  0
   60.8780   30.2010   48.3630 C   0  0  0  0  0  0  0  0  0  0  0  0
   60.9539   31.1554   47.8213 H   0  0  0  0  0  0  0  0  0  0  0  0
   60.3860   29.0650   47.7110 C   0  0  0  0  0  0  0  0  0  0  0  0
   60.0659   29.1324   46.6608 H   0  0  0  0  0  0  0  0  0  0  0  0
   57.7720   25.4900   47.4960 N   0  0  0  0  0  0  0  0  0  0  0  0
   56.5170   25.3320   47.0710 N   0  0  0  0  0  0  0  0  0  0  0  0
   55.8960   26.2790   46.3210 C   0  0  0  0  0  0  0  0  0  0  0  0
   54.7080   26.0970   45.9450 O   0  0  0  0  0  0  0  0  0  0  0  0
   56.3810   29.6970   43.2470 C   0  0  0  0  0  0  0  0  0  0  0  0
   55.8728   28.9557   42.6128 H   0  0  0  0  0  0  0  0  0  0  0  0
   56.9700   30.8270   42.6750 C   0  0  0  0  0  0  0  0  0  0  0  0
   56.9368   30.9728   41.5852 H   0  0  0  0  0  0  0  0  0  0  0  0
   57.6000   31.7700   43.4860 C   0  0  0  0  0  0  0  0  0  0  0  0
   58.0723   32.6591   43.0427 H   0  0  0  0  0  0  0  0  0  0  0  0
  1  2  1  0
  2  3  1  0
  3  4  1  0
  4  5  2  0
  5  6  1  0
  6  7  2  0
  7  8  1  0
  7  9  1  0
  9 10  1  0
 10 11  1  0
 11 12  2  0
 12 13  1  0
 12 14  1  0
 14 15  1  0
 14 16  2  0
 16 17  1  0
 16 18  1  0
 18 19  1  0
 18 20  2  0
 20 21  1  0
  9 22  2  0
 22 23  1  0
 23 24  1  0
 24 25  2  0
  4 26  1  0
 26 27  1  0
 26 28  2  0
 28 29  1  0
 28 30  1  0
 30 31  1  0
 30  2  2  0
 24  6  1  0
 20 11  1  0
M  CHG  2   3  -1  23  -1
M  END
>  <UniqueID>  (8) 
6

>  <SMILES>  (8) 
O=c1[n-]nc(Oc2ccccc2)cc1/N=c1\cccc[n-]1

>  <Energy>  (8) 
51.86096687975203

>  <Genealogy>  (8) 
O=c1[n-]nc(Oc2ccccc2)cc1N=c1cccc[n-]1 (protonated)
O=c1[n-]nc(Oc2ccccc2)cc1/N=c1\cccc[n-]1 (cis-trans isomerization)
O=c1[n-]nc(Oc2ccccc2)cc1/N=c1\cccc[n-]1 (3D coordinates assigned)
O=c1[n-]nc(Oc2ccccc2)cc1/N=c1\cccc[n-]1 (optimized conformer: 51.86096687975203 kcal/mol)

>  <smiles>  (8) 
O=c1[nH]nc(Oc2ccccc2)cc1N=c1cccc[nH]1

>  <score_type>  (8) 
oracle

>  <origin>  (8) 
adg

>  <m_score__min__energy>  (8) 
-10.48

>  <m_primary>  (8) 
energy

$$$$
8:0
     RDKit          3D

 50 52  0  0  0  0  0  0  0  0999 V2000
   60.3180   35.6453   48.7905 H   0  0  0  0  0  0  0  0  0  0  0  0
   60.3830   34.5520   48.8930 C   0  0  0  0  0  0  0  0  0  0  0  0
   61.0830   34.0680   49.9360 C   0  0  0  0  0  0  0  0  0  0  0  0
   60.3840   33.8180   51.1730 C   0  0  0  0  0  0  0  0  0  0  0  0
   59.8220   33.6160   52.1630 N   0  0  0  0  0  0  0  0  0  0  0  0
   62.5240   33.7210   49.8690 C   0  0  0  0  0  0  0  0  0  0  0  0
   63.0590   33.0800   48.7370 C   0  0  0  0  0  0  0  0  0  0  0  0
   62.4054   32.8355   47.8867 H   0  0  0  0  0  0  0  0  0  0  0  0
   64.4170   32.7520   48.6870 C   0  0  0  0  0  0  0  0  0  0  0  0
   64.8308   32.2608   47.7940 H   0  0  0  0  0  0  0  0  0  0  0  0
   65.2490   33.0470   49.7690 C   0  0  0  0  0  0  0  0  0  0  0  0
   66.3182   32.7922   49.7263 H   0  0  0  0  0  0  0  0  0  0  0  0
   64.7230   33.6660   50.9060 C   0  0  0  0  0  0  0  0  0  0  0  0
   65.3779   33.8925   51.7603 H   0  0  0  0  0  0  0  0  0  0  0  0
   63.3660   33.9980   50.9600 C   0  0  0  0  0  0  0  0  0  0  0  0
   62.9553   34.4782   51.8604 H   0  0  0  0  0  0  0  0  0  0  0  0
   59.6930   33.7290   47.8720 C   0  0  0  0  0  0  0  0  0  0  0  0
   58.7130   32.8150   48.2830 C   0  0  0  0  0  0  0  0  0  0  0  0
   58.4900   32.6981   49.3538 H   0  0  0  0  0  0  0  0  0  0  0  0
   58.0180   32.0520   47.3430 C   0  0  0  0  0  0  0  0  0  0  0  0
   57.2639   31.3261   47.6811 H   0  0  0  0  0  0  0  0  0  0  0  0
   58.2720   32.2020   45.9710 C   0  0  0  0  0  0  0  0  0  0  0  0
   57.5240   31.4110   45.0270 N   0  0  0  0  0  0  0  0  0  0  0  0
   56.4990   31.5910   44.9300 H   0  0  0  0  0  0  0  0  0  0  0  0
   58.1100   30.3970   44.1500 C   0  0  0  0  0  0  0  0  0  0  0  0
   59.1743   30.6278   43.9950 H   0  0  0  0  0  0  0  0  0  0  0  0
   57.5684   30.4081   43.1926 H   0  0  0  0  0  0  0  0  0  0  0  0
   57.9870   29.0150   44.7560 C   0  0  0  0  0  0  0  0  0  0  0  0
   59.1520   28.2600   44.9600 C   0  0  0  0  0  0  0  0  0  0  0  0
   60.1295   28.6783   44.6779 H   0  0  0  0  0  0  0  0  0  0  0  0
   59.0810   26.9870   45.5160 C   0  0  0  0  0  0  0  0  0  0  0  0
   60.0021   26.4097   45.6842 H   0  0  0  0  0  0  0  0  0  0  0  0
   57.8480   26.4420   45.8600 C   0  0  0  0  0  0  0  0  0  0  0  0
   57.8034   25.4379   46.3070 H   0  0  0  0  0  0  0  0  0  0  0  0
   56.6570   27.1600   45.6430 C   0  0  0  0  0  0  0  0  0  0  0  0
   55.4130   26.6020   45.9770 O   0  0  0  0  0  0  0  0  0  0  0  0
   55.0080   25.2690   45.6750 C   0  0  0  0  0  0  0  0  0  0  0  0
   54.8400   24.7159   46.6109 H   0  0  0  0  0  0  0  0  0  0  0  0
   54.0764   25.2923   45.0905 H   0  0  0  0  0  0  0  0  0  0  0  0
   55.7951   24.7701   45.0905 H   0  0  0  0  0  0  0  0  0  0  0  0
   56.7250   28.4630   45.0770 C   0  0  0  0  0  0  0  0  0  0  0  0
   55.5850   29.2480   44.8120 O   0  0  0  0  0  0  0  0  0  0  0  0
   55.1600   29.7400   43.5460 C   0  0  0  0  0  0  0  0  0  0  0  0
   54.4474   30.5649   43.6936 H   0  0  0  0  0  0  0  0  0  0  0  0
   56.0317   30.1048   42.9829 H   0  0  0  0  0  0  0  0  0  0  0  0
   54.6724   28.9306   42.9829 H   0  0  0  0  0  0  0  0  0  0  0  0
   59.2450   33.1320   45.5570 C   0  0  0  0  0  0  0  0  0  0  0  0
   59.4608   33.2570   44.4857 H   0  0  0  0  0  0  0  0  0  0  0  0
   59.9380   33.8970   46.4990 C   0  0  0  0  0  0  0  0  0  0  0  0
   60.6805   34.6358   46.1631 H   0  0  0  0  0  0  0  0  0  0  0  0
  1  2  1  0
  2  3  2  0
  3  4  1  0
  4  5  3  0
  3  6  1  0
  6  7  2  0
  7  8  1  0
  7  9  1  0
  9 10  1  0
  9 11  2  0
 11 12  1  0
 11 13  1  0
 13 14  1  0
 13 15  2  0
 15 16  1  0
  2 17  1  0
 17 18  2  0
 18 19  1  0
 18 20  1  0
 20 21  1  0
 20 22  2  0
 22 23  1  0
 23 24  1  0
 23 25  1  0
 25 26  1  0
 25 27  1  0
 25 28  1  0
 28 29  2  0
 29 30  1  0
 29 31  1  0
 31 32  1  0
 31 33  2  0
 33 34  1  0
 33 35  1  0
 35 36  1  0
 36 37  1  0
 37 38  1  0
 37 39  1  0
 37 40  1  0
 35 41  2  0
 41 42  1  0
 42 43  1  0
 43 44  1  0
 43 45  1  0
 43 46  1  0
 22 47  1  0
 47 48  1  0
 47 49  2  0
 49 50  1  0
 15  6  1  0
 49 17  1  0
 41 28  1  0
M  END
>  <UniqueID>  (9) 
7

>  <SMILES>  (9) 
COc1cccc(CNc2ccc(/C=C(/C#N)c3ccccc3)cc2)c1OC

>  <Energy>  (9) 
64.23597188191602

>  <Genealogy>  (9) 
COc1cccc(CNc2ccc(/C=C(/C#N)c3ccccc3)cc2)c1OC (cis-trans isomerization)
COc1cccc(CNc2ccc(/C=C(/C#N)c3ccccc3)cc2)c1OC (3D coordinates assigned)
COc1cccc(CNc2ccc(/C=C(/C#N)c3ccccc3)cc2)c1OC (optimized conformer: 64.23597188191602 kcal/mol)

>  <smiles>  (9) 
COc1cccc(CNc2ccc(C=C(C#N)c3ccccc3)cc2)c1OC

>  <score_type>  (9) 
oracle

>  <origin>  (9) 
adg

>  <m_score__min__energy>  (9) 
-8.2100000000000009

>  <m_primary>  (9) 
energy

$$$$
9:0
     RDKit          3D

 43 44  0  0  0  0  0  0  0  0999 V2000
   57.0290   31.2670   42.0530 C   0  0  0  0  0  0  0  0  0  0  0  0
   56.4670   30.0460   42.7710 C   0  0  0  0  0  0  0  0  0  0  0  0
   56.2770   30.3370   44.2260 C   0  0  0  0  0  0  0  0  0  0  0  0
   55.5280   29.5960   44.9190 O   0  0  0  0  0  0  0  0  0  0  0  0
   56.9600   31.4490   44.8180 N   0  0  0  0  0  0  0  0  0  0  0  0
   57.7540   31.4250   46.0130 C   0  0  0  0  0  0  0  0  0  0  0  0
   58.2340   30.1920   46.4760 C   0  0  0  0  0  0  0  0  0  0  0  0
   59.0280   30.1280   47.6250 C   0  0  0  0  0  0  0  0  0  0  0  0
   59.3560   31.2990   48.3170 C   0  0  0  0  0  0  0  0  0  0  0  0
   60.3720   31.2110   49.7950 S   0  0  0  0  0  0  0  0  0  0  0  0
   59.1560   32.0360   50.8800 C   0  0  0  0  0  0  0  0  0  0  0  0
   57.9900   31.1390   51.1670 C   0  0  0  0  0  0  0  0  0  0  0  0
   58.1150   29.8950   51.0110 O   0  0  0  0  0  0  0  0  0  0  0  0
   56.7320   31.7030   51.5660 N   0  0  0  0  0  0  0  0  0  0  0  0
   55.6450   30.9430   52.1210 C   0  0  0  0  0  0  0  0  0  0  0  0
   55.8320   30.0920   53.2270 C   0  0  0  0  0  0  0  0  0  0  0  0
   54.7500   29.3900   53.7670 C   0  0  0  0  0  0  0  0  0  0  0  0
   53.4740   29.5360   53.2180 C   0  0  0  0  0  0  0  0  0  0  0  0
   53.2690   30.3960   52.1320 C   0  0  0  0  0  0  0  0  0  0  0  0
   51.6610   30.5720   51.4360 S   0  0  0  0  0  0  0  0  0  0  0  0
   51.3120   32.2480   51.2090 N   0  0  0  0  0  0  0  0  0  0  0  0
   50.6360   29.9690   52.3550 O   0  0  0  0  0  0  0  0  0  0  0  0
   51.5990   29.8600   50.1130 O   0  0  0  0  0  0  0  0  0  0  0  0
   54.3560   31.0980   51.5890 C   0  0  0  0  0  0  0  0  0  0  0  0
   58.9100   32.5360   47.8420 C   0  0  0  0  0  0  0  0  0  0  0  0
   58.1150   32.6030   46.6940 C   0  0  0  0  0  0  0  0  0  0  0  0
   57.3685   32.0047   42.7950 H   0  0  0  0  0  0  0  0  0  0  0  0
   57.8779   30.9633   41.4229 H   0  0  0  0  0  0  0  0  0  0  0  0
   56.2462   31.7144   41.4229 H   0  0  0  0  0  0  0  0  0  0  0  0
   55.4976   29.7781   42.3255 H   0  0  0  0  0  0  0  0  0  0  0  0
   57.1761   29.2119   42.6640 H   0  0  0  0  0  0  0  0  0  0  0  0
   57.9844   29.2691   45.9320 H   0  0  0  0  0  0  0  0  0  0  0  0
   59.3953   29.1558   47.9854 H   0  0  0  0  0  0  0  0  0  0  0  0
   59.6448   32.3038   51.8284 H   0  0  0  0  0  0  0  0  0  0  0  0
   58.7855   32.9359   50.3673 H   0  0  0  0  0  0  0  0  0  0  0  0
   56.5770   32.7210   51.3850 H   0  0  0  0  0  0  0  0  0  0  0  0
   56.8333   29.9789   53.6680 H   0  0  0  0  0  0  0  0  0  0  0  0
   54.9041   28.7210   54.6265 H   0  0  0  0  0  0  0  0  0  0  0  0
   52.6278   28.9739   53.6399 H   0  0  0  0  0  0  0  0  0  0  0  0
   50.3080   32.3150   50.9250 H   0  0  0  0  0  0  0  0  0  0  0  0
   54.1959   31.7764   50.7380 H   0  0  0  0  0  0  0  0  0  0  0  0
   59.1854   33.4591   48.3731 H   0  0  0  0  0  0  0  0  0  0  0  0
   57.7705   33.5791   46.3217 H   0  0  0  0  0  0  0  0  0  0  0  0
  1  2  1  0
  2  3  1  0
  3  4  2  0
  3  5  1  0
  5  6  1  0
  6  7  2  0
  7  8  1  0
  8  9  2  0
  9 10  1  0
 10 11  1  0
 11 12  1  0
 12 13  2  0
 12 14  1  0
 14 15  1  0
 15 16  2  0
 16 17  1  0
 17 18  2  0
 18 19  1  0
 19 20  1  0
 20 21  1  0
 20 22  2  0
 20 23  2  0
 19 24  2  0
  9 25  1  0
 25 26  2  0
 26  6  1  0
 24 15  1  0
  1 27  1  0
  1 28  1  0
  1 29  1  0
  2 30  1  0
  2 31  1  0
  7 32  1  0
  8 33  1  0
 11 34  1  0
 11 35  1  0
 14 36  1  0
 16 37  1  0
 17 38  1  0
 18 39  1  0
 21 40  1  0
 24 41  1  0
 25 42  1  0
 26 43  1  0
M  CHG  2   5  -1  21  -1
M  END
>  <UniqueID>  (10) 
8

>  <SMILES>  (10) 
CCC(=O)[N-]c1ccc(SCC(=O)Nc2cccc(S([NH-])(=O)=O)c2)cc1

>  <Energy>  (10) 
39.28084268126828

>  <Genealogy>  (10) 
CCC(=O)[N-]c1ccc(SCC(=O)Nc2cccc(S([NH-])(=O)=O)c2)cc1 (protonated)
CCC(=O)[N-]c1ccc(SCC(=O)Nc2cccc(S([NH-])(=O)=O)c2)cc1 (3D coordinates assigned)
CCC(=O)[N-]c1ccc(SCC(=O)Nc2cccc(S([NH-])(=O)=O)c2)cc1 (optimized conformer: 39.28084268126828 kcal/mol)

>  <smiles>  (10) 
CCC(=O)Nc1ccc(SCC(=O)Nc2cccc(S(N)(=O)=O)c2)cc1

>  <score_type>  (10) 
oracle

>  <origin>  (10) 
adg

>  <m_score__min__energy>  (10) 
-12.890000000000001

>  <m_primary>  (10) 
energy

$$$$
10:0
     RDKit          3D

 53 56  0  0  0  0  0  0  0  0999 V2000
   58.9570   25.5850   46.5350 C   0  0  0  0  0  0  0  0  0  0  0  0
   58.4250   26.8150   45.8480 C   0  0  0  0  0  0  0  0  0  0  0  0
   59.3410   27.7130   45.2740 C   0  0  0  0  0  0  0  0  0  0  0  0
   58.9000   28.8840   44.6570 C   0  0  0  0  0  0  0  0  0  0  0  0
   57.5360   29.1810   44.6020 C   0  0  0  0  0  0  0  0  0  0  0  0
   56.9990   30.6670   43.8250 S   0  0  0  0  0  0  0  0  0  0  0  0
   56.6260   30.3610   42.4020 O   0  0  0  0  0  0  0  0  0  0  0  0
   55.7990   31.2400   44.5270 O   0  0  0  0  0  0  0  0  0  0  0  0
   58.2800   31.8370   43.8420 N   0  0  0  0  0  0  0  0  0  0  0  0
   58.6670   32.5960   45.0040 C   0  0  0  0  0  0  0  0  0  0  0  0
   58.8420   33.9940   44.9590 C   0  0  0  0  0  0  0  0  0  0  0  0
   59.2080   34.7010   46.1110 C   0  0  0  0  0  0  0  0  0  0  0  0
   59.4080   34.0190   47.3120 C   0  0  0  0  0  0  0  0  0  0  0  0
   59.2660   32.6280   47.3600 C   0  0  0  0  0  0  0  0  0  0  0  0
   58.8780   31.9220   46.2200 C   0  0  0  0  0  0  0  0  0  0  0  0
   59.5200   31.9600   48.5620 O   0  0  0  0  0  0  0  0  0  0  0  0
   60.1820   32.6180   49.6430 C   0  0  0  0  0  0  0  0  0  0  0  0
   59.7010   34.0700   49.7550 C   0  0  0  0  0  0  0  0  0  0  0  0
   59.7550   34.7090   48.4780 O   0  0  0  0  0  0  0  0  0  0  0  0
   56.6100   28.2900   45.1560 C   0  0  0  0  0  0  0  0  0  0  0  0
   57.0340   27.0950   45.7690 C   0  0  0  0  0  0  0  0  0  0  0  0
   56.0030   26.1800   46.3140 C   0  0  0  0  0  0  0  0  0  0  0  0
   54.7950   26.3430   45.9900 O   0  0  0  0  0  0  0  0  0  0  0  0
   56.3840   25.0630   47.1270 N   0  0  0  0  0  0  0  0  0  0  0  0
   56.5280   23.7000   46.6990 C   0  0  0  0  0  0  0  0  0  0  0  0
   56.5680   22.6310   47.6100 C   0  0  0  0  0  0  0  0  0  0  0  0
   56.7210   21.3200   47.1500 C   0  0  0  0  0  0  0  0  0  0  0  0
   56.8600   21.0670   45.7830 C   0  0  0  0  0  0  0  0  0  0  0  0
   56.8650   22.1290   44.8670 C   0  0  0  0  0  0  0  0  0  0  0  0
   56.9950   21.8540   43.3930 C   0  0  0  0  0  0  0  0  0  0  0  0
   56.2800   20.6970   43.0520 O   0  0  0  0  0  0  0  0  0  0  0  0
   56.6920   23.4410   45.3320 C   0  0  0  0  0  0  0  0  0  0  0  0
   58.8987   25.7198   47.6252 H   0  0  0  0  0  0  0  0  0  0  0  0
   58.3561   24.7119   46.2408 H   0  0  0  0  0  0  0  0  0  0  0  0
   60.0048   25.4249   46.2408 H   0  0  0  0  0  0  0  0  0  0  0  0
   60.4175   27.4902   45.3116 H   0  0  0  0  0  0  0  0  0  0  0  0
   59.6295   29.5765   44.2118 H   0  0  0  0  0  0  0  0  0  0  0  0
   58.7880   31.9920   42.9430 H   0  0  0  0  0  0  0  0  0  0  0  0
   58.6900   34.5333   44.0124 H   0  0  0  0  0  0  0  0  0  0  0  0
   59.3377   35.7925   46.0693 H   0  0  0  0  0  0  0  0  0  0  0  0
   58.7365   30.8324   46.2732 H   0  0  0  0  0  0  0  0  0  0  0  0
   59.9598   32.0884   50.5812 H   0  0  0  0  0  0  0  0  0  0  0  0
   61.2660   32.6129   49.4559 H   0  0  0  0  0  0  0  0  0  0  0  0
   58.6646   34.0818   50.1234 H   0  0  0  0  0  0  0  0  0  0  0  0
   60.3551   34.6112   50.4545 H   0  0  0  0  0  0  0  0  0  0  0  0
   55.5365   28.5261   45.1121 H   0  0  0  0  0  0  0  0  0  0  0  0
   56.4786   22.8265   48.6888 H   0  0  0  0  0  0  0  0  0  0  0  0
   56.7320   20.4852   47.8662 H   0  0  0  0  0  0  0  0  0  0  0  0
   56.9658   20.0325   45.4244 H   0  0  0  0  0  0  0  0  0  0  0  0
   56.5951   22.7084   42.8272 H   0  0  0  0  0  0  0  0  0  0  0  0
   58.0569   21.7054   43.1476 H   0  0  0  0  0  0  0  0  0  0  0  0
   56.8520   19.9240   43.3000 H   0  0  0  0  0  0  0  0  0  0  0  0
   56.6850   24.2756   44.6155 H   0  0  0  0  0  0  0  0  0  0  0  0
  1  2  1  0
  2  3  2  0
  3  4  1  0
  4  5  2  0
  5  6  1  0
  6  7  2  0
  6  8  2  0
  6  9  1  0
  9 10  1  0
 10 11  2  0
 11 12  1  0
 12 13  2  0
 13 14  1  0
 14 15  2  0
 14 16  1  0
 16 17  1  0
 17 18  1  0
 18 19  1  0
  5 20  1  0
 20 21  2  0
 21 22  1  0
 22 23  2  0
 22 24  1  0
 24 25  1  0
 25 26  2  0
 26 27  1  0
 27 28  2  0
 28 29  1  0
 29 30  1  0
 30 31  1  0
 29 32  2  0
 21  2  1  0
 32 25  1  0
 15 10  1  0
 19 13  1  0
  1 33  1  0
  1 34  1  0
  1 35  1  0
  3 36  1  0
  4 37  1  0
  9 38  1  0
 11 39  1  0
 12 40  1  0
 15 41  1  0
 17 42  1  0
 17 43  1  0
 18 44  1  0
 18 45  1  0
 20 46  1  0
 26 47  1  0
 27 48  1  0
 28 49  1  0
 30 50  1  0
 30 51  1  0
 31 52  1  0
 32 53  1  0
M  CHG  1  24  -1
M  END
>  <UniqueID>  (11) 
9

>  <SMILES>  (11) 
Cc1ccc(S(=O)(=O)Nc2ccc3c(c2)OCCO3)cc1C(=O)[N-]c1cccc(CO)c1

>  <Energy>  (11) 
67.8974597365782

>  <Genealogy>  (11) 
Cc1ccc(S(=O)(=O)Nc2ccc3c(c2)OCCO3)cc1C(=O)[N-]c1cccc(CO)c1 (protonated)
Cc1ccc(S(=O)(=O)Nc2ccc3c(c2)OCCO3)cc1C(=O)[N-]c1cccc(CO)c1 (3D coordinates assigned)
Cc1ccc(S(=O)(=O)Nc2ccc3c(c2)OCCO3)cc1C(=O)[N-]c1cccc(CO)c1 (nonaromatic ring conformer: 67.8974597365782 kcal/mol)

>  <smiles>  (11) 
Cc1ccc(S(=O)(=O)Nc2ccc3c(c2)OCCO3)cc1C(=O)Nc1cccc(CO)c1

>  <score_type>  (11) 
oracle

>  <origin>  (11) 
adg

>  <m_score__min__energy>  (11) 
-11.98

>  <m_primary>  (11) 
energy

$$$$
11:0
     RDKit          3D

 32 34  0  0  0  0  0  0  0  0999 V2000
   58.6490   34.5500   46.9700 O   0  0  0  0  0  0  0  0  0  0  0  0
   58.5250   33.8440   45.9780 C   0  0  0  0  0  0  0  0  0  0  0  0
   57.6170   34.2470   44.8760 C   0  0  0  0  0  0  0  0  0  0  0  0
   57.9210   33.1000   43.5090 S   0  0  0  0  0  0  0  0  0  0  0  0
   58.8230   31.9390   44.6010 C   0  0  2  0  0  0  0  0  0  0  0  0
   57.9540   30.7270   44.9260 C   0  0  0  0  0  0  0  0  0  0  0  0
   56.5890   30.7440   44.5820 C   0  0  0  0  0  0  0  0  0  0  0  0
   55.7820   29.6280   44.8170 C   0  0  0  0  0  0  0  0  0  0  0  0
   56.3280   28.4780   45.3930 C   0  0  0  0  0  0  0  0  0  0  0  0
   55.5250   27.3690   45.6250 O   0  0  0  0  0  0  0  0  0  0  0  0
   57.6820   28.4440   45.7340 C   0  0  0  0  0  0  0  0  0  0  0  0
   58.4940   29.5590   45.4980 C   0  0  0  0  0  0  0  0  0  0  0  0
   59.3380   32.6730   45.7870 N   0  0  2  0  0  0  0  0  0  0  0  0
   59.4830   31.8530   46.9840 C   0  0  0  0  0  0  0  0  0  0  0  0
   58.5190   31.9460   48.0060 C   0  0  0  0  0  0  0  0  0  0  0  0
   58.6650   31.2230   49.1930 C   0  0  0  0  0  0  0  0  0  0  0  0
   59.7800   30.4060   49.3840 C   0  0  0  0  0  0  0  0  0  0  0  0
   60.7550   30.3130   48.3900 C   0  0  0  0  0  0  0  0  0  0  0  0
   60.6140   31.0320   47.1980 C   0  0  0  0  0  0  0  0  0  0  0  0
   56.5691   34.1780   45.2033 H   0  0  0  0  0  0  0  0  0  0  0  0
   57.8026   35.2871   44.5696 H   0  0  0  0  0  0  0  0  0  0  0  0
   59.7058   31.5274   44.0898 H   0  0  0  0  0  0  0  0  0  0  0  0
   56.1537   31.6444   44.1239 H   0  0  0  0  0  0  0  0  0  0  0  0
   54.7157   29.6547   44.5483 H   0  0  0  0  0  0  0  0  0  0  0  0
   58.1109   27.5390   46.1890 H   0  0  0  0  0  0  0  0  0  0  0  0
   59.5615   29.5228   45.7611 H   0  0  0  0  0  0  0  0  0  0  0  0
   60.2860   33.0460   45.5390 H   0  0  0  0  0  0  0  0  0  0  0  0
   57.6414   32.5948   47.8686 H   0  0  0  0  0  0  0  0  0  0  0  0
   57.8989   31.2981   49.9788 H   0  0  0  0  0  0  0  0  0  0  0  0
   59.8904   29.8354   50.3179 H   0  0  0  0  0  0  0  0  0  0  0  0
   61.6363   29.6730   48.5439 H   0  0  0  0  0  0  0  0  0  0  0  0
   61.3893   30.9579   46.4212 H   0  0  0  0  0  0  0  0  0  0  0  0
  1  2  2  0
  2  3  1  0
  3  4  1  0
  4  5  1  0
  5  6  1  0
  6  7  2  0
  7  8  1  0
  8  9  2  0
  9 10  1  0
  9 11  1  0
 11 12  2  0
  5 13  1  0
 13 14  1  0
 14 15  2  0
 15 16  1  0
 16 17  2  0
 17 18  1  0
 18 19  2  0
 13  2  1  0
 19 14  1  0
 12  6  1  0
  3 20  1  0
  3 21  1  0
  5 22  1  6
  7 23  1  0
  8 24  1  0
 11 25  1  0
 12 26  1  0
 13 27  1  6
 15 28  1  0
 16 29  1  0
 17 30  1  0
 18 31  1  0
 19 32  1  0
M  CHG  2  10  -1  13   1
M  END
>  <UniqueID>  (12) 
10

>  <SMILES>  (12) 
O=C1CS[C@H](c2ccc([O-])cc2)[N@@H+]1c1ccccc1

>  <Energy>  (12) 
41.72975031200818

>  <Genealogy>  (12) 
O=C1CSC(c2ccc([O-])cc2)[NH+]1c1ccccc1 (protonated)
O=C1CS[C@H](c2ccc([O-])cc2)[N@@H+]1c1ccccc1 (chirality)
O=C1CS[C@H](c2ccc([O-])cc2)[N@@H+]1c1ccccc1 (3D coordinates assigned)
O=C1CS[C@H](c2ccc([O-])cc2)[N@@H+]1c1ccccc1 (nonaromatic ring conformer: 41.72975031200818 kcal/mol)

>  <smiles>  (12) 
O=C1CSC(c2ccc(O)cc2)N1c1ccccc1

>  <score_type>  (12) 
oracle

>  <origin>  (12) 
adg

>  <m_score__min__energy>  (12) 
-8.0199999999999996

>  <m_primary>  (12) 
energy

$$$$
12:0
     RDKit          3D

 50 53  0  0  1  0  0  0  0  0999 V2000
   59.0820   33.3430   51.7470 C   0  0  0  0  0  0  0  0  0  0  0  0
   59.2720   34.0070   50.5370 O   0  0  0  0  0  0  0  0  0  0  0  0
   60.3700   33.8660   49.6940 C   0  0  0  0  0  0  0  0  0  0  0  0
   61.6620   33.7510   50.1900 C   0  0  0  0  0  0  0  0  0  0  0  0
   62.7610   33.6110   49.3660 C   0  0  0  0  0  0  0  0  0  0  0  0
   64.1010   33.4930   49.9370 C   0  0  0  0  0  0  0  0  0  0  0  0
   64.4560   33.8670   51.1800 N   0  0  0  0  0  0  0  0  0  0  0  0
   65.7390   33.6060   51.3290 N   0  0  0  0  0  0  0  0  0  0  0  0
   66.2050   33.0600   50.1690 C   0  0  0  0  0  0  0  0  0  0  0  0
   67.4030   32.7180   50.0480 O   0  0  0  0  0  0  0  0  0  0  0  0
   65.1890   32.9840   49.2930 N   0  0  0  0  0  0  0  0  0  0  0  0
   62.5880   33.5830   47.9980 C   0  0  0  0  0  0  0  0  0  0  0  0
   61.3130   33.6970   47.4790 C   0  0  0  0  0  0  0  0  0  0  0  0
   60.2120   33.8370   48.3070 C   0  0  0  0  0  0  0  0  0  0  0  0
   58.8890   33.9550   47.7980 N   0  0  0  0  0  0  0  0  0  0  0  0
   58.6200   33.3880   46.6730 C   0  0  0  0  0  0  0  0  0  0  0  0
   57.8170   34.0590   45.8300 N   0  0  0  0  0  0  0  0  0  0  0  0
   57.4540   33.5890   44.6250 C   0  0  0  0  0  0  0  0  0  0  0  0
   57.9540   32.3410   44.2680 C   0  0  0  0  0  0  0  0  0  0  0  0
   57.5140   31.6850   42.7160 Cl  0  0  0  0  0  0  0  0  0  0  0  0
   58.7890   31.6430   45.1430 C   0  0  0  0  0  0  0  0  0  0  0  0
   59.2120   30.4930   44.7380 N   0  0  0  0  0  0  0  0  0  0  0  0
   59.3850   29.4530   45.6940 C   0  0  0  0  0  0  0  0  0  0  0  0
   60.5580   29.3080   46.4310 C   0  0  0  0  0  0  0  0  0  0  0  0
   60.6700   28.2650   47.3570 C   0  0  0  0  0  0  0  0  0  0  0  0
   59.6550   27.3670   47.5730 C   0  0  0  0  0  0  0  0  0  0  0  0
   58.4990   27.5460   46.8190 C   0  0  0  0  0  0  0  0  0  0  0  0
   58.3700   28.5540   45.9110 C   0  0  0  0  0  0  0  0  0  0  0  0
   56.8750   28.7070   45.0010 S   0  0  0  0  0  0  0  0  0  0  0  0
   57.2890   28.5770   43.3290 N   0  0  0  0  0  0  0  0  0  0  0  0
   56.2480   30.0410   45.2430 O   0  0  0  0  0  0  0  0  0  0  0  0
   55.8940   27.6470   45.4110 O   0  0  0  0  0  0  0  0  0  0  0  0
   59.1020   32.1800   46.3230 N   0  0  0  0  0  0  0  0  0  0  0  0
   59.2798   34.0342   52.5795 H   0  0  0  0  0  0  0  0  0  0  0  0
   58.0446   32.9824   51.8084 H   0  0  0  0  0  0  0  0  0  0  0  0
   59.7716   32.4882   51.8084 H   0  0  0  0  0  0  0  0  0  0  0  0
   61.8154   33.7722   51.2790 H   0  0  0  0  0  0  0  0  0  0  0  0
   66.2890   33.7920   52.1910 H   0  0  0  0  0  0  0  0  0  0  0  0
   65.2490   32.6080   48.3200 H   0  0  0  0  0  0  0  0  0  0  0  0
   63.4540   33.4713   47.3290 H   0  0  0  0  0  0  0  0  0  0  0  0
   61.1697   33.6762   46.3886 H   0  0  0  0  0  0  0  0  0  0  0  0
   57.4400   35.0040   46.1050 H   0  0  0  0  0  0  0  0  0  0  0  0
   56.7954   34.1615   43.9552 H   0  0  0  0  0  0  0  0  0  0  0  0
   61.3923   30.0101   46.2858 H   0  0  0  0  0  0  0  0  0  0  0  0
   61.6027   28.1614   47.9309 H   0  0  0  0  0  0  0  0  0  0  0  0
   59.7500   26.5496   48.3029 H   0  0  0  0  0  0  0  0  0  0  0  0
   57.6598   26.8492   46.9610 H   0  0  0  0  0  0  0  0  0  0  0  0
   57.4190   27.5740   43.1060 H   0  0  0  0  0  0  0  0  0  0  0  0
   58.2710   28.9830   43.2660 H   0  0  0  0  0  0  0  0  0  0  0  0
   59.7220   31.6580   46.9710 H   0  0  0  0  0  0  0  0  0  0  0  0
  1  2  1  0
  2  3  1  0
  3  4  2  0
  4  5  1  0
  5  6  1  0
  6  7  2  0
  7  8  1  0
  8  9  1  0
  9 10  2  0
  9 11  1  0
  5 12  2  0
 12 13  1  0
 13 14  2  0
 14 15  1  0
 15 16  2  0
 16 17  1  0
 17 18  1  0
 18 19  2  0
 19 20  1  0
 19 21  1  0
 21 22  2  0
 22 23  1  0
 23 24  2  0
 24 25  1  0
 25 26  2  0
 26 27  1  0
 27 28  2  0
 28 29  1  0
 29 30  1  0
 29 31  2  0
 29 32  2  0
 21 33  1  0
 14  3  1  0
 33 16  1  0
 11  6  1  0
 28 23  1  0
  1 34  1  0
  1 35  1  0
  1 36  1  0
  4 37  1  0
  8 38  1  0
 11 39  1  0
 12 40  1  0
 13 41  1  0
 17 42  1  0
 18 43  1  0
 24 44  1  0
 25 45  1  0
 26 46  1  0
 27 47  1  0
 30 48  1  0
 30 49  1  0
 33 50  1  0
M  END
>  <smiles>  (13) 
COc1cc(-c2n[nH]c(=O)[nH]2)ccc1N=c1[nH]cc(Cl)c(=Nc2ccccc2S(N)(=O)=O)[nH]1

>  <score_type>  (13) 
oracle

>  <origin>  (13) 
adg

>  <m_score__min__energy>  (13) 
-9.6300000000000008

>  <m_primary>  (13) 
energy

$$$$
13:0
     RDKit          3D

 40 42  0  0  0  0  0  0  0  0999 V2000
   54.1840   26.0740   46.3890 H   0  0  0  0  0  0  0  0  0  0  0  0
   54.8700   26.7040   45.9920 O   0  0  0  0  0  0  0  0  0  0  0  0
   56.2370   26.5500   46.2210 C   0  0  0  0  0  0  0  0  0  0  0  0
   57.1190   27.5430   45.7820 C   0  0  0  0  0  0  0  0  0  0  0  0
   56.7277   28.4285   45.2598 H   0  0  0  0  0  0  0  0  0  0  0  0
   58.5010   27.4180   46.0030 C   0  0  0  0  0  0  0  0  0  0  0  0
   59.4480   28.4690   45.4940 C   0  0  0  0  0  0  0  0  0  0  0  0
   60.0727   28.0397   44.6968 H   0  0  0  0  0  0  0  0  0  0  0  0
   60.0822   28.8128   46.3244 H   0  0  0  0  0  0  0  0  0  0  0  0
   58.6790   29.6410   44.9460 C   0  0  0  0  0  0  0  0  0  0  0  0
   57.8130   29.4710   43.8550 C   0  0  0  0  0  0  0  0  0  0  0  0
   57.7264   28.4864   43.3723 H   0  0  0  0  0  0  0  0  0  0  0  0
   57.0610   30.5470   43.3800 C   0  0  0  0  0  0  0  0  0  0  0  0
   56.3832   30.4075   42.5249 H   0  0  0  0  0  0  0  0  0  0  0  0
   57.1670   31.8010   43.9880 C   0  0  0  0  0  0  0  0  0  0  0  0
   56.5629   32.6422   43.6172 H   0  0  0  0  0  0  0  0  0  0  0  0
   58.0420   31.9920   45.0710 C   0  0  0  0  0  0  0  0  0  0  0  0
   58.1400   33.2930   45.7650 C   0  0  0  0  0  0  0  0  0  0  0  0
   57.4344   34.0858   45.4759 H   0  0  0  0  0  0  0  0  0  0  0  0
   59.0360   33.5680   46.7260 C   0  0  0  0  0  0  0  0  0  0  0  0
   60.6800   34.2440   46.4310 S   0  0  0  0  0  0  0  0  0  0  0  0
   60.9860   34.1110   48.1940 C   0  0  0  0  0  0  0  0  0  0  0  0
   62.0510   34.5460   48.7040 O   0  0  0  0  0  0  0  0  0  0  0  0
   59.9330   33.5330   48.9770 N   0  0  0  0  0  0  0  0  0  0  0  0
   59.9610   33.2970   50.4000 C   0  0  0  0  0  0  0  0  0  0  0  0
   59.2870   34.0340   51.1720 O   0  0  0  0  0  0  0  0  0  0  0  0
   60.7810   32.1980   51.0030 C   0  0  0  0  0  0  0  0  0  0  0  0
   60.7321   32.2636   52.0999 H   0  0  0  0  0  0  0  0  0  0  0  0
   60.3867   31.2246   50.6759 H   0  0  0  0  0  0  0  0  0  0  0  0
   61.8264   32.2988   50.6759 H   0  0  0  0  0  0  0  0  0  0  0  0
   58.8250   33.2330   48.1330 C   0  0  0  0  0  0  0  0  0  0  0  0
   57.7610   32.7120   48.5670 O   0  0  0  0  0  0  0  0  0  0  0  0
   58.7740   30.9000   45.5620 C   0  0  0  0  0  0  0  0  0  0  0  0
   59.4279   31.0310   46.4368 H   0  0  0  0  0  0  0  0  0  0  0  0
   58.9930   26.2760   46.6530 C   0  0  0  0  0  0  0  0  0  0  0  0
   60.0749   26.1625   46.8163 H   0  0  0  0  0  0  0  0  0  0  0  0
   58.1150   25.2820   47.0940 C   0  0  0  0  0  0  0  0  0  0  0  0
   58.5070   24.3925   47.6089 H   0  0  0  0  0  0  0  0  0  0  0  0
   56.7390   25.4160   46.8820 C   0  0  0  0  0  0  0  0  0  0  0  0
   55.8780   24.4180   47.3270 O   0  0  0  0  0  0  0  0  0  0  0  0
  1  2  1  0
  2  3  1  0
  3  4  2  0
  4  5  1  0
  4  6  1  0
  6  7  1  0
  7  8  1  0
  7  9  1  0
  7 10  1  0
 10 11  2  0
 11 12  1  0
 11 13  1  0
 13 14  1  0
 13 15  2  0
 15 16  1  0
 15 17  1  0
 17 18  1  0
 18 19  1  0
 18 20  2  0
 20 21  1  0
 21 22  1  0
 22 23  2  0
 22 24  1  0
 24 25  1  0
 25 26  2  0
 25 27  1  0
 27 28  1  0
 27 29  1  0
 27 30  1  0
 24 31  1  0
 31 32  2  0
 17 33  2  0
 33 34  1  0
  6 35  2  0
 35 36  1  0
 35 37  1  0
 37 38  1  0
 37 39  2  0
 39 40  1  0
 39  3  1  0
 33 10  1  0
 31 20  1  0
M  CHG  1  40  -1
M  END
>  <UniqueID>  (14) 
11

>  <SMILES>  (14) 
CC(=O)N1C(=O)S/C(=C\c2cccc(Cc3ccc([O-])c(O)c3)c2)C1=O

>  <Energy>  (14) 
67.4708589590549

>  <Genealogy>  (14) 
CC(=O)N1C(=O)SC(=Cc2cccc(Cc3ccc([O-])c(O)c3)c2)C1=O (protonated)
CC(=O)N1C(=O)S/C(=C\c2cccc(Cc3ccc([O-])c(O)c3)c2)C1=O (cis-trans isomerization)
CC(=O)N1C(=O)S/C(=C\c2cccc(Cc3ccc([O-])c(O)c3)c2)C1=O (3D coordinates assigned)
CC(=O)N1C(=O)S/C(=C\c2cccc(Cc3ccc([O-])c(O)c3)c2)C1=O (nonaromatic ring conformer: 67.4708589590549 kcal/mol)

>  <smiles>  (14) 
CC(=O)N1C(=O)SC(=Cc2cccc(Cc3ccc(O)c(O)c3)c2)C1=O

>  <score_type>  (14) 
oracle

>  <origin>  (14) 
adg

>  <m_score__min__energy>  (14) 
-12.68

>  <m_primary>  (14) 
energy

$$$$
14:0
     RDKit          3D

 56 59  0  0  0  0  0  0  0  0999 V2000
   58.5350   28.0090   47.0540 O   0  0  0  0  0  0  0  0  0  0  0  0
   57.7330   28.6180   46.2960 C   0  0  0  0  0  0  0  0  0  0  0  0
   57.6750   30.0460   46.3690 N   0  0  0  0  0  0  0  0  0  0  0  0
   57.7530   31.1140   45.0070 S   0  0  0  0  0  0  0  0  0  0  0  0
   56.3530   31.3650   44.5220 O   0  0  0  0  0  0  0  0  0  0  0  0
   58.5310   30.4490   43.9070 O   0  0  0  0  0  0  0  0  0  0  0  0
   58.5430   32.6480   45.4210 C   0  0  0  0  0  0  0  0  0  0  0  0
   58.3430   33.7470   44.5690 C   0  0  0  0  0  0  0  0  0  0  0  0
   58.8870   34.9950   44.8770 C   0  0  0  0  0  0  0  0  0  0  0  0
   59.6350   35.1640   46.0410 C   0  0  0  0  0  0  0  0  0  0  0  0
   59.8520   34.0820   46.8940 C   0  0  0  0  0  0  0  0  0  0  0  0
   59.3240   32.8150   46.5930 C   0  0  0  0  0  0  0  0  0  0  0  0
   59.6050   31.7030   47.5230 C   0  0  0  0  0  0  0  0  0  0  0  0
   60.5370   30.7130   47.1740 C   0  0  0  0  0  0  0  0  0  0  0  0
   60.8060   29.6580   48.0520 C   0  0  0  0  0  0  0  0  0  0  0  0
   60.1360   29.5780   49.2760 C   0  0  0  0  0  0  0  0  0  0  0  0
   59.1930   30.5500   49.6210 C   0  0  0  0  0  0  0  0  0  0  0  0
   58.9230   31.6070   48.7470 C   0  0  0  0  0  0  0  0  0  0  0  0
   56.8720   27.8770   45.4140 N   0  0  0  0  0  0  0  0  0  0  0  0
   56.8860   26.4450   45.3410 C   0  0  0  0  0  0  0  0  0  0  0  0
   58.0880   25.7910   45.0430 C   0  0  0  0  0  0  0  0  0  0  0  0
   58.1350   24.3980   44.9750 C   0  0  0  0  0  0  0  0  0  0  0  0
   56.9860   23.6430   45.2140 C   0  0  0  0  0  0  0  0  0  0  0  0
   57.0580   22.2900   45.1490 F   0  0  0  0  0  0  0  0  0  0  0  0
   55.7710   24.2800   45.5330 C   0  0  0  0  0  0  0  0  0  0  0  0
   54.5490   23.4410   45.8340 C   0  0  0  0  0  0  0  0  0  0  0  0
   54.7060   22.7170   47.1120 N   0  0  0  0  0  0  0  0  0  0  0  0
   55.3290   21.3880   46.9110 C   0  0  0  0  0  0  0  0  0  0  0  0
   55.9770   20.8820   48.2100 C   0  0  0  0  0  0  0  0  0  0  0  0
   57.0130   21.7240   48.7010 O   0  0  0  0  0  0  0  0  0  0  0  0
   56.8870   23.0800   48.2960 C   0  0  0  0  0  0  0  0  0  0  0  0
   55.4270   23.5350   48.1190 C   0  0  0  0  0  0  0  0  0  0  0  0
   55.7300   25.6880   45.6150 C   0  0  0  0  0  0  0  0  0  0  0  0
   54.5570   26.3320   45.9960 O   0  0  0  0  0  0  0  0  0  0  0  0
   57.7517   33.6227   43.6498 H   0  0  0  0  0  0  0  0  0  0  0  0
   58.7251   35.8467   44.1999 H   0  0  0  0  0  0  0  0  0  0  0  0
   60.0542   36.1508   46.2869 H   0  0  0  0  0  0  0  0  0  0  0  0
   60.4424   34.2219   47.8115 H   0  0  0  0  0  0  0  0  0  0  0  0
   61.0576   30.7671   46.2065 H   0  0  0  0  0  0  0  0  0  0  0  0
   61.5454   28.8907   47.7790 H   0  0  0  0  0  0  0  0  0  0  0  0
   60.3509   28.7501   49.9677 H   0  0  0  0  0  0  0  0  0  0  0  0
   58.6622   30.4832   50.5821 H   0  0  0  0  0  0  0  0  0  0  0  0
   58.1743   32.3657   49.0187 H   0  0  0  0  0  0  0  0  0  0  0  0
   56.0790   28.3670   44.9460 H   0  0  0  0  0  0  0  0  0  0  0  0
   59.0000   26.3786   44.8615 H   0  0  0  0  0  0  0  0  0  0  0  0
   59.0816   23.8930   44.7320 H   0  0  0  0  0  0  0  0  0  0  0  0
   53.6687   24.0975   45.8982 H   0  0  0  0  0  0  0  0  0  0  0  0
   54.4221   22.7043   45.0270 H   0  0  0  0  0  0  0  0  0  0  0  0
   54.5564   20.6729   46.5920 H   0  0  0  0  0  0  0  0  0  0  0  0
   56.1101   21.4795   46.1419 H   0  0  0  0  0  0  0  0  0  0  0  0
   55.1960   20.8076   48.9810 H   0  0  0  0  0  0  0  0  0  0  0  0
   56.4366   19.9092   47.9808 H   0  0  0  0  0  0  0  0  0  0  0  0
   57.3600   23.7164   49.0584 H   0  0  0  0  0  0  0  0  0  0  0  0
   57.3755   23.1713   47.3147 H   0  0  0  0  0  0  0  0  0  0  0  0
   54.9083   23.4468   49.0850 H   0  0  0  0  0  0  0  0  0  0  0  0
   55.4370   24.5766   47.7654 H   0  0  0  0  0  0  0  0  0  0  0  0
  1  2  2  0
  2  3  1  0
  3  4  1  0
  4  5  2  0
  4  6  2  0
  4  7  1  0
  7  8  2  0
  8  9  1  0
  9 10  2  0
 10 11  1  0
 11 12  2  0
 12 13  1  0
 13 14  2  0
 14 15  1  0
 15 16  2  0
 16 17  1  0
 17 18  2  0
  2 19  1  0
 19 20  1  0
 20 21  2  0
 21 22  1  0
 22 23  2  0
 23 24  1  0
 23 25  1  0
 25 26  1  0
 26 27  1  0
 27 28  1  0
 28 29  1  0
 29 30  1  0
 30 31  1  0
 31 32  1  0
 25 33  2  0
 33 34  1  0
 12  7  1  0
 18 13  1  0
 33 20  1  0
 32 27  1  0
  8 35  1  0
  9 36  1  0
 10 37  1  0
 11 38  1  0
 14 39  1  0
 15 40  1  0
 16 41  1  0
 17 42  1  0
 18 43  1  0
 19 44  1  0
 21 45  1  0
 22 46  1  0
 26 47  1  0
 26 48  1  0
 28 49  1  0
 28 50  1  0
 29 51  1  0
 29 52  1  0
 31 53  1  0
 31 54  1  0
 32 55  1  0
 32 56  1  0
M  CHG  2   3  -1  34  -1
M  END
>  <UniqueID>  (15) 
12

>  <SMILES>  (15) 
O=C([N-]S(=O)(=O)c1ccccc1-c1ccccc1)Nc1ccc(F)c(CN2CCOCC2)c1[O-]

>  <Energy>  (15) 
89.12903224883476

>  <Genealogy>  (15) 
O=C([N-]S(=O)(=O)c1ccccc1-c1ccccc1)Nc1ccc(F)c(CN2CCOCC2)c1[O-] (protonated)
O=C([N-]S(=O)(=O)c1ccccc1-c1ccccc1)Nc1ccc(F)c(CN2CCOCC2)c1[O-] (3D coordinates assigned)
O=C([N-]S(=O)(=O)c1ccccc1-c1ccccc1)Nc1ccc(F)c(CN2CCOCC2)c1[O-] (nonaromatic ring conformer: 89.12903224883476 kcal/mol)

>  <smiles>  (15) 
O=C(Nc1ccc(F)c(CN2CCOCC2)c1O)NS(=O)(=O)c1ccccc1-c1ccccc1

>  <score_type>  (15) 
oracle

>  <origin>  (15) 
adg

>  <m_score__min__energy>  (15) 
-14.65

>  <m_primary>  (15) 
energy

$$$$
15:0
     RDKit          3D

 38 40  0  0  0  0  0  0  0  0999 V2000
   57.8150   32.9920   43.6420 O   0  0  0  0  0  0  0  0  0  0  0  0
   57.2130   32.6630   44.6990 C   0  0  0  0  0  0  0  0  0  0  0  0
   57.2060   33.6130   45.8680 C   0  0  0  0  0  0  0  0  0  0  0  0
   58.5270   33.5700   46.5900 C   0  0  0  0  0  0  0  0  0  0  0  0
   59.6570   34.1920   46.0420 C   0  0  0  0  0  0  0  0  0  0  0  0
   60.8890   34.1260   46.7010 C   0  0  0  0  0  0  0  0  0  0  0  0
   61.0120   33.4310   47.9160 C   0  0  0  0  0  0  0  0  0  0  0  0
   62.3230   33.3620   48.6060 C   0  0  0  0  0  0  0  0  0  0  0  0
   63.3870   32.8610   48.0760 N   0  0  0  0  0  0  0  0  0  0  0  0
   64.5050   32.9260   49.0090 C   0  0  0  0  0  0  0  0  0  0  0  0
   63.9270   33.6010   50.2620 C   0  0  0  0  0  0  0  0  0  0  0  0
   62.5350   33.8310   49.9270 N   0  0  0  0  0  0  0  0  0  0  0  0
   59.8780   32.7950   48.4530 C   0  0  0  0  0  0  0  0  0  0  0  0
   58.6480   32.8610   47.7940 C   0  0  0  0  0  0  0  0  0  0  0  0
   56.6030   31.3690   44.7720 N   0  0  0  0  0  0  0  0  0  0  0  0
   57.2820   30.1200   44.9670 C   0  0  0  0  0  0  0  0  0  0  0  0
   58.6730   30.0660   45.1690 C   0  0  0  0  0  0  0  0  0  0  0  0
   59.3060   28.8400   45.3900 C   0  0  0  0  0  0  0  0  0  0  0  0
   58.5570   27.6610   45.4300 C   0  0  0  0  0  0  0  0  0  0  0  0
   57.1700   27.7100   45.2580 C   0  0  0  0  0  0  0  0  0  0  0  0
   56.5330   28.9350   45.0350 C   0  0  0  0  0  0  0  0  0  0  0  0
   55.1520   28.9700   44.8740 O   0  0  0  0  0  0  0  0  0  0  0  0
   57.0260   34.6349   45.5030 H   0  0  0  0  0  0  0  0  0  0  0  0
   56.4095   33.3137   46.5651 H   0  0  0  0  0  0  0  0  0  0  0  0
   59.5746   34.7348   45.0888 H   0  0  0  0  0  0  0  0  0  0  0  0
   61.7685   34.6221   46.2647 H   0  0  0  0  0  0  0  0  0  0  0  0
   63.4470   32.4310   47.1270 H   0  0  0  0  0  0  0  0  0  0  0  0
   64.8717   31.9164   49.2462 H   0  0  0  0  0  0  0  0  0  0  0  0
   65.3613   33.4789   48.5953 H   0  0  0  0  0  0  0  0  0  0  0  0
   64.0144   32.9405   51.1373 H   0  0  0  0  0  0  0  0  0  0  0  0
   64.4573   34.5279   50.5260 H   0  0  0  0  0  0  0  0  0  0  0  0
   61.8440   34.3290   50.5300 H   0  0  0  0  0  0  0  0  0  0  0  0
   59.9605   32.2411   49.3998 H   0  0  0  0  0  0  0  0  0  0  0  0
   57.7701   32.3544   48.2215 H   0  0  0  0  0  0  0  0  0  0  0  0
   59.2651   30.9929   45.1529 H   0  0  0  0  0  0  0  0  0  0  0  0
   60.3961   28.8029   45.5328 H   0  0  0  0  0  0  0  0  0  0  0  0
   59.0576   26.6958   45.5965 H   0  0  0  0  0  0  0  0  0  0  0  0
   56.5788   26.7832   45.2982 H   0  0  0  0  0  0  0  0  0  0  0  0
  1  2  2  0
  2  3  1  0
  3  4  1  0
  4  5  2  0
  5  6  1  0
  6  7  2  0
  7  8  1  0
  8  9  2  0
  9 10  1  0
 10 11  1  0
 11 12  1  0
  7 13  1  0
 13 14  2  0
  2 15  1  0
 15 16  1  0
 16 17  2  0
 17 18  1  0
 18 19  2  0
 19 20  1  0
 20 21  2  0
 21 22  1  0
 14  4  1  0
 21 16  1  0
 12  8  1  0
  3 23  1  0
  3 24  1  0
  5 25  1  0
  6 26  1  0
  9 27  1  0
 10 28  1  0
 10 29  1  0
 11 30  1  0
 11 31  1  0
 12 32  1  0
 13 33  1  0
 14 34  1  0
 17 35  1  0
 18 36  1  0
 19 37  1  0
 20 38  1  0
M  CHG  3   9   1  15  -1  22  -1
M  END
>  <UniqueID>  (16) 
13

>  <SMILES>  (16) 
O=C(Cc1ccc(C2=[NH+]CCN2)cc1)[N-]c1ccccc1[O-]

>  <Energy>  (16) 
57.36332716502947

>  <Genealogy>  (16) 
O=C(Cc1ccc(C2=[NH+]CCN2)cc1)[N-]c1ccccc1[O-] (protonated)
O=C(Cc1ccc(C2=[NH+]CCN2)cc1)[N-]c1ccccc1[O-] (3D coordinates assigned)
O=C(Cc1ccc(C2=[NH+]CCN2)cc1)[N-]c1ccccc1[O-] (nonaromatic ring conformer: 57.36332716502947 kcal/mol)

>  <smiles>  (16) 
O=C(Cc1ccc(C2=NCCN2)cc1)Nc1ccccc1O

>  <score_type>  (16) 
oracle

>  <origin>  (16) 
adg

>  <m_score__min__energy>  (16) 
-12.41

>  <m_primary>  (16) 
energy

$$$$
16:0
     RDKit          3D

 45 48  0  0  0  0  0  0  0  0999 V2000
   56.0800   26.3400   46.6800 O   0  0  0  0  0  0  0  0  0  0  0  0
   57.1820   26.1060   46.1170 C   0  0  0  0  0  0  0  0  0  0  0  0
   57.2340   25.9440   44.6300 C   0  0  0  0  0  0  0  0  0  0  0  0
   58.5080   27.0310   43.9030 S   0  0  0  0  0  0  0  0  0  0  0  0
   57.6350   28.5510   44.2710 C   0  0  0  0  0  0  0  0  0  0  0  0
   56.3290   28.5950   44.6130 N   0  0  0  0  0  0  0  0  0  0  0  0
   55.8940   29.8310   44.8530 N   0  0  0  0  0  0  0  0  0  0  0  0
   56.8560   30.7670   44.6890 C   0  0  0  0  0  0  0  0  0  0  0  0
   56.6890   32.0390   44.9030 N   0  0  0  0  0  0  0  0  0  0  0  0
   57.5900   32.9170   45.6000 C   0  0  0  0  0  0  0  0  0  0  0  0
   57.8270   32.6910   46.9620 C   0  0  0  0  0  0  0  0  0  0  0  0
   58.7160   33.5030   47.6720 C   0  0  0  0  0  0  0  0  0  0  0  0
   59.3920   34.5390   47.0190 C   0  0  0  0  0  0  0  0  0  0  0  0
   60.2560   35.3230   47.7070 F   0  0  0  0  0  0  0  0  0  0  0  0
   59.1860   34.7530   45.6540 C   0  0  0  0  0  0  0  0  0  0  0  0
   58.2960   33.9440   44.9420 C   0  0  0  0  0  0  0  0  0  0  0  0
   58.3290   30.0850   44.2460 S   0  0  0  0  0  0  0  0  0  0  0  0
   58.3930   26.0320   46.8780 N   0  0  0  0  0  0  0  0  0  0  0  0
   58.9760   27.0970   47.6430 C   0  0  0  0  0  0  0  0  0  0  0  0
   60.0230   26.8710   48.5560 C   0  0  0  0  0  0  0  0  0  0  0  0
   60.5820   27.9390   49.2630 C   0  0  0  0  0  0  0  0  0  0  0  0
   60.1150   29.2430   49.0570 C   0  0  0  0  0  0  0  0  0  0  0  0
   60.7940   30.5960   49.9600 S   0  0  0  0  0  0  0  0  0  0  0  0
   60.8620   30.2270   51.4150 O   0  0  0  0  0  0  0  0  0  0  0  0
   59.9350   31.8200   49.8140 O   0  0  0  0  0  0  0  0  0  0  0  0
   62.3910   30.9390   49.3810 N   0  0  0  0  0  0  0  0  0  0  0  0
   62.6530   31.9040   48.5560 C   0  0  0  0  0  0  0  0  0  0  0  0
   63.6060   32.8390   48.7640 N   0  0  0  0  0  0  0  0  0  0  0  0
   63.6560   33.7300   47.7380 C   0  0  0  0  0  0  0  0  0  0  0  0
   62.7440   33.5030   46.7130 C   0  0  0  0  0  0  0  0  0  0  0  0
   61.8410   32.1370   47.1060 S   0  0  0  0  0  0  0  0  0  0  0  0
   59.0870   29.4730   48.1350 C   0  0  0  0  0  0  0  0  0  0  0  0
   58.5280   28.4060   47.4260 C   0  0  0  0  0  0  0  0  0  0  0  0
   57.4729   24.8975   44.3895 H   0  0  0  0  0  0  0  0  0  0  0  0
   56.2549   26.2195   44.2111 H   0  0  0  0  0  0  0  0  0  0  0  0
   57.3095   31.8681   47.4768 H   0  0  0  0  0  0  0  0  0  0  0  0
   58.8841   33.3272   48.7448 H   0  0  0  0  0  0  0  0  0  0  0  0
   59.7259   35.5606   45.1380 H   0  0  0  0  0  0  0  0  0  0  0  0
   58.1462   34.1094   43.8649 H   0  0  0  0  0  0  0  0  0  0  0  0
   60.4024   25.8506   48.7135 H   0  0  0  0  0  0  0  0  0  0  0  0
   61.3920   27.7546   49.9841 H   0  0  0  0  0  0  0  0  0  0  0  0
   64.3665   34.5696   47.7201 H   0  0  0  0  0  0  0  0  0  0  0  0
   62.6319   34.1106   45.8029 H   0  0  0  0  0  0  0  0  0  0  0  0
   58.7183   30.4958   47.9681 H   0  0  0  0  0  0  0  0  0  0  0  0
   57.7306   28.5958   46.6924 H   0  0  0  0  0  0  0  0  0  0  0  0
  1  2  2  0
  2  3  1  0
  3  4  1  0
  4  5  1  0
  5  6  2  0
  6  7  1  0
  7  8  1  0
  8  9  2  3
  9 10  1  0
 10 11  2  0
 11 12  1  0
 12 13  2  0
 13 14  1  0
 13 15  1  0
 15 16  2  0
  8 17  1  0
  2 18  1  0
 18 19  1  0
 19 20  2  0
 20 21  1  0
 21 22  2  0
 22 23  1  0
 23 24  2  0
 23 25  2  0
 23 26  1  0
 26 27  2  3
 27 28  1  0
 28 29  1  0
 29 30  2  0
 30 31  1  0
 22 32  1  0
 32 33  2  0
 17  5  1  0
 33 19  1  0
 16 10  1  0
 31 27  1  0
  3 34  1  0
  3 35  1  0
 11 36  1  0
 12 37  1  0
 15 38  1  0
 16 39  1  0
 20 40  1  0
 21 41  1  0
 29 42  1  0
 30 43  1  0
 32 44  1  0
 33 45  1  0
M  CHG  3   7  -1  18  -1  28  -1
M  END
>  <UniqueID>  (17) 
14

>  <SMILES>  (17) 
O=C(CSc1n[n-]c(=Nc2ccc(F)cc2)s1)[N-]c1ccc(S(=O)(=O)N=c2[n-]ccs2)cc1

>  <Energy>  (17) 
120.84940925151277

>  <Genealogy>  (17) 
O=C(CSc1n[n-]c(=Nc2ccc(F)cc2)s1)[N-]c1ccc(S(=O)(=O)N=c2[n-]ccs2)cc1 (protonated)
O=C(CSc1n[n-]c(=Nc2ccc(F)cc2)s1)[N-]c1ccc(S(=O)(=O)N=c2[n-]ccs2)cc1 (3D coordinates assigned)
O=C(CSc1n[n-]c(=Nc2ccc(F)cc2)s1)[N-]c1ccc(S(=O)(=O)N=c2[n-]ccs2)cc1 (optimized conformer: 120.84940925151277 kcal/mol)

>  <smiles>  (17) 
O=C(CSc1n[nH]c(=Nc2ccc(F)cc2)s1)Nc1ccc(S(=O)(=O)N=c2[nH]ccs2)cc1

>  <score_type>  (17) 
oracle

>  <origin>  (17) 
adg

>  <m_score__min__energy>  (17) 
-13.109999999999999

>  <m_primary>  (17) 
energy

$$$$
17:0
     RDKit          3D

 47 49  0  0  0  0  0  0  0  0999 V2000
   62.6437   31.6942   46.4522 H   0  0  0  0  0  0  0  0  0  0  0  0
   61.8090   31.6660   47.1680 C   0  0  0  0  0  0  0  0  0  0  0  0
   60.9610   30.5560   47.2040 C   0  0  0  0  0  0  0  0  0  0  0  0
   61.1260   29.7190   46.5096 H   0  0  0  0  0  0  0  0  0  0  0  0
   59.9000   30.5030   48.1210 C   0  0  0  0  0  0  0  0  0  0  0  0
   58.9630   29.3250   48.1300 C   0  0  0  0  0  0  0  0  0  0  0  0
   57.9382   29.6789   48.3159 H   0  0  0  0  0  0  0  0  0  0  0  0
   59.2734   28.6292   48.9234 H   0  0  0  0  0  0  0  0  0  0  0  0
   59.0060   28.6240   46.8390 N   0  0  0  0  0  0  0  0  0  0  0  0
   58.7960   27.6110   47.0020 H   0  0  0  0  0  0  0  0  0  0  0  0
   59.9550   28.6650   46.4080 H   0  0  0  0  0  0  0  0  0  0  0  0
   57.9990   29.1550   45.9530 C   0  0  0  0  0  0  0  0  0  0  0  0
   58.1760   30.4090   45.4580 N   0  0  0  0  0  0  0  0  0  0  0  0
   57.2740   31.0070   44.6360 C   0  0  0  0  0  0  0  0  0  0  0  0
   57.4690   32.2080   44.1680 N   0  0  0  0  0  0  0  0  0  0  0  0
   57.4410   33.4940   44.8870 C   0  0  0  0  0  0  0  0  0  0  0  0
   56.5548   33.9295   44.4023 H   0  0  0  0  0  0  0  0  0  0  0  0
   57.5010   33.3740   46.4090 C   0  0  0  0  0  0  0  0  0  0  0  0
   56.6860   33.8933   46.9344 H   0  0  0  0  0  0  0  0  0  0  0  0
   57.4186   32.3917   46.8972 H   0  0  0  0  0  0  0  0  0  0  0  0
   58.8260   34.1320   46.4060 C   0  0  0  0  0  0  0  0  0  0  0  0
   58.7904   35.0974   46.9321 H   0  0  0  0  0  0  0  0  0  0  0  0
   59.7121   33.6988   46.8929 H   0  0  0  0  0  0  0  0  0  0  0  0
   58.7670   34.2510   44.8850 C   0  0  0  0  0  0  0  0  0  0  0  0
   58.6949   35.2849   44.5165 H   0  0  0  0  0  0  0  0  0  0  0  0
   59.6070   33.9074   44.2634 H   0  0  0  0  0  0  0  0  0  0  0  0
   56.1170   30.3110   44.2920 C   0  0  0  0  0  0  0  0  0  0  0  0
   55.3609   30.7787   43.6443 H   0  0  0  0  0  0  0  0  0  0  0  0
   55.9300   29.0520   44.7620 N   0  0  0  0  0  0  0  0  0  0  0  0
   56.8340   28.4330   45.5710 C   0  0  0  0  0  0  0  0  0  0  0  0
   56.5310   27.0450   45.9910 C   0  0  0  0  0  0  0  0  0  0  0  0
   57.4480   26.2330   46.2880 O   0  0  0  0  0  0  0  0  0  0  0  0
   55.1690   26.6060   46.0060 N   0  0  0  0  0  0  0  0  0  0  0  0
   54.7690   25.2640   45.6110 C   0  0  0  0  0  0  0  0  0  0  0  0
   54.5878   24.6560   46.5096 H   0  0  0  0  0  0  0  0  0  0  0  0
   53.8477   25.3173   45.0124 H   0  0  0  0  0  0  0  0  0  0  0  0
   55.5691   24.8042   45.0124 H   0  0  0  0  0  0  0  0  0  0  0  0
   59.6820   31.5880   48.9830 C   0  0  0  0  0  0  0  0  0  0  0  0
   58.8396   31.5654   49.6900 H   0  0  0  0  0  0  0  0  0  0  0  0
   60.5320   32.6990   48.9470 C   0  0  0  0  0  0  0  0  0  0  0  0
   60.3592   33.5403   49.6343 H   0  0  0  0  0  0  0  0  0  0  0  0
   61.6000   32.7490   48.0440 C   0  0  0  0  0  0  0  0  0  0  0  0
   62.4220   33.8860   48.0490 O   0  0  0  0  0  0  0  0  0  0  0  0
   63.7560   33.9260   47.5480 C   0  0  0  0  0  0  0  0  0  0  0  0
   64.2397   34.8586   47.8739 H   0  0  0  0  0  0  0  0  0  0  0  0
   64.3136   33.0610   47.9364 H   0  0  0  0  0  0  0  0  0  0  0  0
   63.7440   33.8750   46.1660 F   0  0  0  0  0  0  0  0  0  0  0  0
  1  2  1  0
  2  3  2  0
  3  4  1  0
  3  5  1  0
  5  6  1  0
  6  7  1  0
  6  8  1  0
  6  9  1  0
  9 10  1  0
  9 11  1  0
  9 12  1  0
 12 13  1  0
 13 14  1  0
 14 15  2  0
 15 16  1  0
 16 17  1  0
 16 18  1  0
 18 19  1  0
 18 20  1  0
 18 21  1  0
 21 22  1  0
 21 23  1  0
 21 24  1  0
 24 25  1  0
 24 26  1  0
 14 27  1  0
 27 28  1  0
 27 29  2  0
 29 30  1  0
 30 31  1  0
 31 32  2  0
 31 33  1  0
 33 34  1  0
 34 35  1  0
 34 36  1  0
 34 37  1  0
  5 38  2  0
 38 39  1  0
 38 40  1  0
 40 41  1  0
 40 42  2  0
 42 43  1  0
 43 44  1  0
 44 45  1  0
 44 46  1  0
 44 47  1  0
 42  2  1  0
 30 12  2  0
 24 16  1  0
M  CHG  3   9   1  13  -1  33  -1
M  END
>  <UniqueID>  (18) 
15

>  <SMILES>  (18) 
C[N-]C(=O)c1nc/c(=N/C2CCC2)[n-]c1[NH2+]Cc1ccc(OCF)cc1

>  <Energy>  (18) 
113.20688351405956

>  <Genealogy>  (18) 
C[N-]C(=O)c1ncc(=NC2CCC2)[n-]c1[NH2+]Cc1ccc(OCF)cc1 (protonated)
C[N-]C(=O)c1nc/c(=N/C2CCC2)[n-]c1[NH2+]Cc1ccc(OCF)cc1 (cis-trans isomerization)
C[N-]C(=O)c1nc/c(=N/C2CCC2)[n-]c1[NH2+]Cc1ccc(OCF)cc1 (3D coordinates assigned)
C[N-]C(=O)c1nc/c(=N/C2CCC2)[n-]c1[NH2+]Cc1ccc(OCF)cc1 (nonaromatic ring conformer: 113.20688351405956 kcal/mol)

>  <smiles>  (18) 
CNC(=O)c1ncc(=NC2CCC2)[nH]c1NCc1ccc(OCF)cc1

>  <score_type>  (18) 
oracle

>  <origin>  (18) 
adg

>  <m_score__min__energy>  (18) 
-8.4900000000000002

>  <m_primary>  (18) 
energy

$$$$
18:0
     RDKit          3D

 49 52  0  0  0  0  0  0  0  0999 V2000
   64.0670   32.7590   48.5640 C   0  0  0  0  0  0  0  0  0  0  0  0
   62.4590   33.1820   47.9360 S   0  0  0  0  0  0  0  0  0  0  0  0
   61.9480   34.3790   48.6880 O   0  0  0  0  0  0  0  0  0  0  0  0
   62.5790   33.4990   46.4710 O   0  0  0  0  0  0  0  0  0  0  0  0
   61.3980   31.8290   48.1690 N   0  0  0  0  0  0  0  0  0  0  0  0
   60.3280   31.6830   49.1180 C   0  0  0  0  0  0  0  0  0  0  0  0
   60.4260   30.6170   50.0250 C   0  0  0  0  0  0  0  0  0  0  0  0
   59.4410   30.3990   50.9890 C   0  0  0  0  0  0  0  0  0  0  0  0
   58.3370   31.2640   51.0690 C   0  0  0  0  0  0  0  0  0  0  0  0
   58.2180   32.3200   50.1590 C   0  0  0  0  0  0  0  0  0  0  0  0
   59.2030   32.5420   49.1770 C   0  0  0  0  0  0  0  0  0  0  0  0
   59.1000   33.6390   48.3120 O   0  0  0  0  0  0  0  0  0  0  0  0
   58.7620   33.5870   46.9520 C   0  0  0  0  0  0  0  0  0  0  0  0
   59.3560   34.4370   46.0040 C   0  0  0  0  0  0  0  0  0  0  0  0
   58.9790   34.3620   44.6610 C   0  0  0  0  0  0  0  0  0  0  0  0
   58.0050   33.4470   44.2550 C   0  0  0  0  0  0  0  0  0  0  0  0
   57.3910   32.6020   45.1980 C   0  0  0  0  0  0  0  0  0  0  0  0
   56.3820   31.6510   44.8320 N   0  0  0  0  0  0  0  0  0  0  0  0
   56.6650   29.9930   44.4130 S   0  0  0  0  0  0  0  0  0  0  0  0
   56.7460   29.8480   42.9200 O   0  0  0  0  0  0  0  0  0  0  0  0
   55.5200   29.1590   44.9110 O   0  0  0  0  0  0  0  0  0  0  0  0
   58.1460   29.4310   45.1680 C   0  0  0  0  0  0  0  0  0  0  0  0
   59.2750   28.9880   44.4960 C   0  0  0  0  0  0  0  0  0  0  0  0
   60.3050   28.6010   45.3590 C   0  0  0  0  0  0  0  0  0  0  0  0
   59.9860   28.7330   46.7040 C   0  0  0  0  0  0  0  0  0  0  0  0
   58.4230   29.3400   46.8220 S   0  0  0  0  0  0  0  0  0  0  0  0
   57.7670   32.6900   46.5450 C   0  0  0  0  0  0  0  0  0  0  0  0
   57.2600   31.0210   52.0980 C   0  0  0  0  0  0  0  0  0  0  0  0
   57.7950   30.2200   53.2920 C   0  0  0  0  0  0  0  0  0  0  0  0
   58.5390   28.9730   52.8020 C   0  0  0  0  0  0  0  0  0  0  0  0
   59.5790   29.3400   51.8950 O   0  0  0  0  0  0  0  0  0  0  0  0
   64.0443   32.7650   49.6637 H   0  0  0  0  0  0  0  0  0  0  0  0
   64.3474   31.7565   48.2085 H   0  0  0  0  0  0  0  0  0  0  0  0
   64.8044   33.4937   48.2085 H   0  0  0  0  0  0  0  0  0  0  0  0
   61.2933   29.9422   49.9753 H   0  0  0  0  0  0  0  0  0  0  0  0
   57.3438   32.9856   50.2111 H   0  0  0  0  0  0  0  0  0  0  0  0
   60.1195   35.1631   46.3200 H   0  0  0  0  0  0  0  0  0  0  0  0
   59.4506   35.0255   43.9211 H   0  0  0  0  0  0  0  0  0  0  0  0
   57.7170   33.3867   43.1951 H   0  0  0  0  0  0  0  0  0  0  0  0
   59.3523   28.9455   43.3995 H   0  0  0  0  0  0  0  0  0  0  0  0
   61.2771   28.2269   45.0054 H   0  0  0  0  0  0  0  0  0  0  0  0
   60.6444   28.4828   47.5489 H   0  0  0  0  0  0  0  0  0  0  0  0
   57.2753   32.0477   47.2904 H   0  0  0  0  0  0  0  0  0  0  0  0
   56.8835   31.9901   52.4573 H   0  0  0  0  0  0  0  0  0  0  0  0
   56.4549   30.4397   51.6248 H   0  0  0  0  0  0  0  0  0  0  0  0
   58.4849   30.8501   53.8724 H   0  0  0  0  0  0  0  0  0  0  0  0
   56.9496   29.9087   53.9232 H   0  0  0  0  0  0  0  0  0  0  0  0
   58.9778   28.4500   53.6646 H   0  0  0  0  0  0  0  0  0  0  0  0
   57.8281   28.3135   52.2828 H   0  0  0  0  0  0  0  0  0  0  0  0
  1  2  1  0
  2  3  2  0
  2  4  2  0
  2  5  1  0
  5  6  1  0
  6  7  2  0
  7  8  1  0
  8  9  2  0
  9 10  1  0
 10 11  2  0
 11 12  1  0
 12 13  1  0
 13 14  2  0
 14 15  1  0
 15 16  2  0
 16 17  1  0
 17 18  1  0
 18 19  1  0
 19 20  2  0
 19 21  2  0
 19 22  1  0
 22 23  2  0
 23 24  1  0
 24 25  2  0
 25 26  1  0
 17 27  2  0
  9 28  1  0
 28 29  1  0
 29 30  1  0
 30 31  1  0
 11  6  1  0
 27 13  1  0
 31  8  1  0
 26 22  1  0
  1 32  1  0
  1 33  1  0
  1 34  1  0
  7 35  1  0
 10 36  1  0
 14 37  1  0
 15 38  1  0
 16 39  1  0
 23 40  1  0
 24 41  1  0
 25 42  1  0
 27 43  1  0
 28 44  1  0
 28 45  1  0
 29 46  1  0
 29 47  1  0
 30 48  1  0
 30 49  1  0
M  CHG  2   5  -1  18  -1
M  END
>  <UniqueID>  (19) 
16

>  <SMILES>  (19) 
CS(=O)(=O)[N-]c1cc2c(cc1Oc1cccc([N-]S(=O)(=O)c3cccs3)c1)CCCO2

>  <Energy>  (19) 
89.47344429747984

>  <Genealogy>  (19) 
CS(=O)(=O)[N-]c1cc2c(cc1Oc1cccc([N-]S(=O)(=O)c3cccs3)c1)CCCO2 (protonated)
CS(=O)(=O)[N-]c1cc2c(cc1Oc1cccc([N-]S(=O)(=O)c3cccs3)c1)CCCO2 (3D coordinates assigned)
CS(=O)(=O)[N-]c1cc2c(cc1Oc1cccc([N-]S(=O)(=O)c3cccs3)c1)CCCO2 (nonaromatic ring conformer: 89.47344429747984 kcal/mol)

>  <smiles>  (19) 
CS(=O)(=O)Nc1cc2c(cc1Oc1cccc(NS(=O)(=O)c3cccs3)c1)CCCO2

>  <score_type>  (19) 
oracle

>  <origin>  (19) 
adg

>  <m_score__min__energy>  (19) 
-12.380000000000001

>  <m_primary>  (19) 
energy

$$$$
19:0
     RDKit          3D

 68 72  0  0  1  0  0  0  0  0999 V2000
   60.2800   33.7740   50.5020 C   0  0  0  0  0  0  0  0  0  0  0  0
   60.4710   34.5600   49.2140 C   0  0  0  0  0  0  0  0  0  0  0  0
   59.3040   34.2410   48.3120 C   0  0  0  0  0  0  0  0  0  0  0  0
   59.2560   35.1740   47.0870 C   0  0  0  0  0  0  0  0  0  0  0  0
   60.1110   34.5680   46.0310 C   0  0  0  0  0  0  0  0  0  0  0  0
   61.2850   33.7990   46.4320 C   0  0  0  0  0  0  0  0  0  0  0  0
   61.1380   32.2910   46.3720 C   0  0  0  0  0  0  0  0  0  0  0  0
   61.5690   31.7400   47.6350 N   0  0  0  0  0  0  0  0  0  0  0  0
   62.8420   32.0430   48.0540 C   0  0  0  0  0  0  0  0  0  0  0  0
   63.6490   32.6300   47.2560 O   0  0  0  0  0  0  0  0  0  0  0  0
   63.3090   31.7490   49.2950 C   0  0  0  0  0  0  0  0  0  0  0  0
   64.6060   32.1040   49.6160 C   0  0  0  0  0  0  0  0  0  0  0  0
   65.0980   31.8220   50.8710 C   0  0  0  0  0  0  0  0  0  0  0  0
   64.2930   31.1900   51.7930 C   0  0  0  0  0  0  0  0  0  0  0  0
   62.9820   30.8440   51.4330 C   0  0  0  0  0  0  0  0  0  0  0  0
   62.4770   31.1200   50.1800 C   0  0  0  0  0  0  0  0  0  0  0  0
   61.2050   30.8000   49.7980 C   0  0  0  0  0  0  0  0  0  0  0  0
   60.3840   30.1990   50.6960 N   0  0  0  0  0  0  0  0  0  0  0  0
   59.1160   29.9000   50.3230 C   0  0  0  0  0  0  0  0  0  0  0  0
   58.2930   29.3540   51.1580 N   0  0  0  0  0  0  0  0  0  0  0  0
   57.4050   30.1200   51.9600 C   0  0  0  0  0  0  0  0  0  0  0  0
   56.2410   29.7120   52.2450 O   0  0  0  0  0  0  0  0  0  0  0  0
   57.8710   31.4130   52.4530 C   0  0  0  0  0  0  0  0  0  0  0  0
   58.8810   31.3510   53.4190 C   0  0  0  0  0  0  0  0  0  0  0  0
   59.3740   32.5250   53.9250 C   0  0  0  0  0  0  0  0  0  0  0  0
   58.8570   33.7160   53.4650 C   0  0  0  0  0  0  0  0  0  0  0  0
   57.8560   33.7700   52.5080 C   0  0  0  0  0  0  0  0  0  0  0  0
   57.3530   32.5940   51.9890 C   0  0  0  0  0  0  0  0  0  0  0  0
   58.6910   30.1870   49.0920 N   0  0  0  0  0  0  0  0  0  0  0  0
   59.4890   30.7870   48.1670 C   0  0  0  0  0  0  0  0  0  0  0  0
   58.9040   30.8680   46.8440 C   0  0  0  0  0  0  0  0  0  0  0  0
   59.1510   29.7310   46.0270 C   0  0  0  0  0  0  0  0  0  0  0  0
   58.6080   29.6300   44.7700 C   0  0  0  0  0  0  0  0  0  0  0  0
   57.8060   30.6360   44.2630 C   0  0  0  0  0  0  0  0  0  0  0  0
   57.2540   30.5290   42.9820 O   0  0  0  0  0  0  0  0  0  0  0  0
   57.5830   31.7270   45.0740 C   0  0  0  0  0  0  0  0  0  0  0  0
   58.1150   31.8590   46.3470 C   0  0  0  0  0  0  0  0  0  0  0  0
   60.7690   31.1160   48.5110 C   0  0  0  0  0  0  0  0  0  0  0  0
   60.4413   34.4379   51.3641 H   0  0  0  0  0  0  0  0  0  0  0  0
   59.2575   33.3699   50.5367 H   0  0  0  0  0  0  0  0  0  0  0  0
   61.0030   32.9457   50.5367 H   0  0  0  0  0  0  0  0  0  0  0  0
   60.4941   35.6380   49.4316 H   0  0  0  0  0  0  0  0  0  0  0  0
   61.4208   34.2876   48.7305 H   0  0  0  0  0  0  0  0  0  0  0  0
   59.3964   33.2015   47.9644 H   0  0  0  0  0  0  0  0  0  0  0  0
   58.3777   34.3846   48.8876 H   0  0  0  0  0  0  0  0  0  0  0  0
   58.2212   35.2666   46.7255 H   0  0  0  0  0  0  0  0  0  0  0  0
   59.6182   36.1787   47.3502 H   0  0  0  0  0  0  0  0  0  0  0  0
   59.4697   33.8956   45.4423 H   0  0  0  0  0  0  0  0  0  0  0  0
   60.5299   35.4345   45.4983 H   0  0  0  0  0  0  0  0  0  0  0  0
   62.1169   34.0836   45.7709 H   0  0  0  0  0  0  0  0  0  0  0  0
   61.4530   34.0409   47.4918 H   0  0  0  0  0  0  0  0  0  0  0  0
   60.0854   32.0273   46.1916 H   0  0  0  0  0  0  0  0  0  0  0  0
   61.7503   31.8841   45.5537 H   0  0  0  0  0  0  0  0  0  0  0  0
   65.2413   32.6088   48.8733 H   0  0  0  0  0  0  0  0  0  0  0  0
   66.1288   32.1001   51.1359 H   0  0  0  0  0  0  0  0  0  0  0  0
   64.6734   30.9595   52.7991 H   0  0  0  0  0  0  0  0  0  0  0  0
   62.3399   30.3392   52.1698 H   0  0  0  0  0  0  0  0  0  0  0  0
   60.6400   29.9480   51.6520 H   0  0  0  0  0  0  0  0  0  0  0  0
   59.2704   30.3820   53.7644 H   0  0  0  0  0  0  0  0  0  0  0  0
   60.1688   32.5166   54.6854 H   0  0  0  0  0  0  0  0  0  0  0  0
   59.2529   34.6582   53.8719 H   0  0  0  0  0  0  0  0  0  0  0  0
   57.4664   34.7400   52.1656 H   0  0  0  0  0  0  0  0  0  0  0  0
   56.5605   32.6044   51.2262 H   0  0  0  0  0  0  0  0  0  0  0  0
   59.7876   28.9189   46.4082 H   0  0  0  0  0  0  0  0  0  0  0  0
   58.8133   28.7385   44.1592 H   0  0  0  0  0  0  0  0  0  0  0  0
   57.8360   30.0780   42.2650 H   0  0  0  0  0  0  0  0  0  0  0  0
   56.9474   32.5385   44.6899 H   0  0  0  0  0  0  0  0  0  0  0  0
   57.9018   32.7548   46.9488 H   0  0  0  0  0  0  0  0  0  0  0  0
  1  2  1  0
  2  3  1  0
  3  4  1  0
  4  5  1  0
  5  6  1  0
  6  7  1  0
  7  8  1  0
  8  9  1  0
  9 10  2  0
  9 11  1  0
 11 12  2  0
 12 13  1  0
 13 14  2  0
 14 15  1  0
 15 16  2  0
 16 17  1  0
 17 18  1  0
 18 19  1  0
 19 20  2  0
 20 21  1  0
 21 22  2  0
 21 23  1  0
 23 24  2  0
 24 25  1  0
 25 26  2  0
 26 27  1  0
 27 28  2  0
 19 29  1  0
 29 30  2  0
 30 31  1  0
 31 32  2  0
 32 33  1  0
 33 34  2  0
 34 35  1  0
 34 36  1  0
 36 37  2  0
 30 38  1  0
 38  8  1  0
 16 11  1  0
 38 17  2  0
 28 23  1  0
 37 31  1  0
  1 39  1  0
  1 40  1  0
  1 41  1  0
  2 42  1  0
  2 43  1  0
  3 44  1  0
  3 45  1  0
  4 46  1  0
  4 47  1  0
  5 48  1  0
  5 49  1  0
  6 50  1  0
  6 51  1  0
  7 52  1  0
  7 53  1  0
 12 54  1  0
 13 55  1  0
 14 56  1  0
 15 57  1  0
 18 58  1  0
 24 59  1  0
 25 60  1  0
 26 61  1  0
 27 62  1  0
 28 63  1  0
 32 64  1  0
 33 65  1  0
 35 66  1  0
 36 67  1  0
 37 68  1  0
M  END
>  <smiles>  (20) 
CCCCCCCn1c(=O)c2ccccc2c2[nH]c(=NC(=O)c3ccccc3)nc(-c3ccc(O)cc3)c21

>  <score_type>  (20) 
oracle

>  <origin>  (20) 
adg

>  <m_score__min__energy>  (20) 
-10

>  <m_primary>  (20) 
energy

$$$$
20:0
     RDKit          3D

 35 37  0  0  0  0  0  0  0  0999 V2000
   57.8050   32.3580   41.9260 O   0  0  0  0  0  0  0  0  0  0  0  0
   57.7680   32.3050   43.1830 C   0  0  0  0  0  0  0  0  0  0  0  0
   58.1830   33.4610   43.9250 N   0  0  0  0  0  0  0  0  0  0  0  0
   57.4550   34.0740   45.0290 C   0  0  0  0  0  0  0  0  0  0  0  0
   58.2280   33.8770   46.2960 C   0  0  0  0  0  0  0  0  0  0  0  0
   59.2920   34.7310   46.6230 C   0  0  0  0  0  0  0  0  0  0  0  0
   59.9750   34.5440   47.8260 C   0  0  0  0  0  0  0  0  0  0  0  0
   59.5890   33.5190   48.6920 C   0  0  0  0  0  0  0  0  0  0  0  0
   58.5170   32.6950   48.3410 C   0  0  0  0  0  0  0  0  0  0  0  0
   57.8640   32.8930   47.1640 N   0  0  0  0  0  0  0  0  0  0  0  0
   57.3480   31.0450   43.8250 C   0  0  0  0  0  0  0  0  0  0  0  0
   56.0720   30.4900   43.8450 C   0  0  0  0  0  0  0  0  0  0  0  0
   56.0150   29.2430   44.4810 C   0  0  0  0  0  0  0  0  0  0  0  0
   57.2470   28.8010   44.9580 C   0  0  0  0  0  0  0  0  0  0  0  0
   57.5270   27.5120   45.6350 C   0  0  0  0  0  0  0  0  0  0  0  0
   58.8600   27.1070   45.8230 C   0  0  0  0  0  0  0  0  0  0  0  0
   59.1520   25.8940   46.4470 C   0  0  0  0  0  0  0  0  0  0  0  0
   58.1200   25.0700   46.8960 C   0  0  0  0  0  0  0  0  0  0  0  0
   56.7880   25.4580   46.7330 C   0  0  0  0  0  0  0  0  0  0  0  0
   55.7780   24.6180   47.2020 O   0  0  0  0  0  0  0  0  0  0  0  0
   56.4850   26.6830   46.1090 C   0  0  0  0  0  0  0  0  0  0  0  0
   55.1570   27.0780   45.9920 O   0  0  0  0  0  0  0  0  0  0  0  0
   58.4040   29.9610   44.5610 S   0  0  0  0  0  0  0  0  0  0  0  0
   57.3317   35.1500   44.8364 H   0  0  0  0  0  0  0  0  0  0  0  0
   56.4637   33.6067   45.1236 H   0  0  0  0  0  0  0  0  0  0  0  0
   59.5852   35.5402   45.9380 H   0  0  0  0  0  0  0  0  0  0  0  0
   60.8153   35.2026   48.0911 H   0  0  0  0  0  0  0  0  0  0  0  0
   60.1234   33.3620   49.6406 H   0  0  0  0  0  0  0  0  0  0  0  0
   58.2009   31.8862   49.0162 H   0  0  0  0  0  0  0  0  0  0  0  0
   55.1930   30.9828   43.4040 H   0  0  0  0  0  0  0  0  0  0  0  0
   55.0847   28.6669   44.5932 H   0  0  0  0  0  0  0  0  0  0  0  0
   59.6800   27.7523   45.4750 H   0  0  0  0  0  0  0  0  0  0  0  0
   60.1990   25.5865   46.5853 H   0  0  0  0  0  0  0  0  0  0  0  0
   58.3559   24.1110   47.3803 H   0  0  0  0  0  0  0  0  0  0  0  0
   54.7960   24.8250   47.0620 H   0  0  0  0  0  0  0  0  0  0  0  0
  1  2  2  0
  2  3  1  0
  3  4  1  0
  4  5  1  0
  5  6  2  0
  6  7  1  0
  7  8  2  0
  8  9  1  0
  9 10  2  0
  2 11  1  0
 11 12  2  0
 12 13  1  0
 13 14  2  0
 14 15  1  0
 15 16  2  0
 16 17  1  0
 17 18  2  0
 18 19  1  0
 19 20  1  0
 19 21  2  0
 21 22  1  0
 14 23  1  0
 10  5  1  0
 23 11  1  0
 21 15  1  0
  4 24  1  0
  4 25  1  0
  6 26  1  0
  7 27  1  0
  8 28  1  0
  9 29  1  0
 12 30  1  0
 13 31  1  0
 16 32  1  0
 17 33  1  0
 18 34  1  0
 20 35  1  0
M  CHG  2   3  -1  22  -1
M  END
>  <UniqueID>  (21) 
17

>  <SMILES>  (21) 
O=C([N-]Cc1ccccn1)c1ccc(-c2cccc(O)c2[O-])s1

>  <Energy>  (21) 
71.04901121634221

>  <Genealogy>  (21) 
O=C([N-]Cc1ccccn1)c1ccc(-c2cccc(O)c2[O-])s1 (protonated)
O=C([N-]Cc1ccccn1)c1ccc(-c2cccc(O)c2[O-])s1 (3D coordinates assigned)
O=C([N-]Cc1ccccn1)c1ccc(-c2cccc(O)c2[O-])s1 (optimized conformer: 71.04901121634221 kcal/mol)

>  <smiles>  (21) 
O=C(NCc1ccccn1)c1ccc(-c2cccc(O)c2O)s1

>  <score_type>  (21) 
oracle

>  <origin>  (21) 
adg

>  <m_score__min__energy>  (21) 
-13.25

>  <m_primary>  (21) 
energy

$$$$
21:0
     RDKit          3D

 45 48  0  0  0  0  0  0  0  0999 V2000
   56.2380   30.0720   44.5730 O   0  0  0  0  0  0  0  0  0  0  0  0
   57.3810   30.2930   44.0890 C   0  0  0  0  0  0  0  0  0  0  0  0
   57.8190   31.7070   43.8640 C   0  0  0  0  0  0  0  0  0  0  0  0
   57.8940   32.4370   45.1710 C   0  0  0  0  0  0  0  0  0  0  0  0
   57.0190   33.4260   45.6140 C   0  0  0  0  0  0  0  0  0  0  0  0
   57.3370   33.8080   46.8710 N   0  0  0  0  0  0  0  0  0  0  0  0
   58.3970   33.0630   47.2300 C   0  0  0  0  0  0  0  0  0  0  0  0
   59.0710   33.0880   48.4500 C   0  0  0  0  0  0  0  0  0  0  0  0
   60.1530   32.2050   48.6220 C   0  0  0  0  0  0  0  0  0  0  0  0
   60.5310   31.3250   47.5830 C   0  0  0  0  0  0  0  0  0  0  0  0
   59.8310   31.3220   46.3630 C   0  0  0  0  0  0  0  0  0  0  0  0
   58.7640   32.2090   46.2210 C   0  0  0  0  0  0  0  0  0  0  0  0
   58.2940   29.2110   43.8410 N   0  0  0  0  0  0  0  0  0  0  0  0
   57.9310   27.8190   43.8850 C   0  0  0  0  0  0  0  0  0  0  0  0
   57.4800   27.2610   45.0860 C   0  0  0  0  0  0  0  0  0  0  0  0
   57.1440   25.9090   45.1520 C   0  0  0  0  0  0  0  0  0  0  0  0
   57.2720   25.1030   44.0060 C   0  0  0  0  0  0  0  0  0  0  0  0
   56.9320   23.6990   44.0260 N   0  0  0  0  0  0  0  0  0  0  0  0
   56.5600   23.0680   45.3000 C   0  0  0  0  0  0  0  0  0  0  0  0
   56.8600   21.5670   45.2600 C   0  0  0  0  0  0  0  0  0  0  0  0
   56.2850   20.9720   44.1140 O   0  0  0  0  0  0  0  0  0  0  0  0
   56.9150   21.4770   42.9550 C   0  0  0  0  0  0  0  0  0  0  0  0
   56.6310   22.9730   42.7850 C   0  0  0  0  0  0  0  0  0  0  0  0
   57.7450   25.6650   42.8570 N   0  0  0  0  0  0  0  0  0  0  0  0
   58.0760   26.9800   42.7700 C   0  0  0  0  0  0  0  0  0  0  0  0
   58.8109   31.7094   43.3885 H   0  0  0  0  0  0  0  0  0  0  0  0
   57.0901   32.2103   43.2117 H   0  0  0  0  0  0  0  0  0  0  0  0
   56.1868   33.8380   45.0243 H   0  0  0  0  0  0  0  0  0  0  0  0
   56.8470   34.5270   47.4470 H   0  0  0  0  0  0  0  0  0  0  0  0
   58.7667   33.7760   49.2526 H   0  0  0  0  0  0  0  0  0  0  0  0
   60.7083   32.1997   49.5716 H   0  0  0  0  0  0  0  0  0  0  0  0
   61.3777   30.6382   47.7292 H   0  0  0  0  0  0  0  0  0  0  0  0
   60.1160   30.6418   45.5469 H   0  0  0  0  0  0  0  0  0  0  0  0
   59.3030   29.4460   43.7130 H   0  0  0  0  0  0  0  0  0  0  0  0
   57.3899   27.8917   45.9827 H   0  0  0  0  0  0  0  0  0  0  0  0
   56.7808   25.4751   46.0953 H   0  0  0  0  0  0  0  0  0  0  0  0
   57.1352   23.5310   46.1153 H   0  0  0  0  0  0  0  0  0  0  0  0
   55.4826   23.2121   45.4683 H   0  0  0  0  0  0  0  0  0  0  0  0
   57.9495   21.4172   45.2363 H   0  0  0  0  0  0  0  0  0  0  0  0
   56.4290   21.0966   46.1561 H   0  0  0  0  0  0  0  0  0  0  0  0
   58.0010   21.3241   43.0400 H   0  0  0  0  0  0  0  0  0  0  0  0
   56.5187   20.9427   42.0789 H   0  0  0  0  0  0  0  0  0  0  0  0
   57.2572   23.3701   41.9725 H   0  0  0  0  0  0  0  0  0  0  0  0
   55.5662   23.1074   42.5440 H   0  0  0  0  0  0  0  0  0  0  0  0
   58.4587   27.3878   41.8228 H   0  0  0  0  0  0  0  0  0  0  0  0
  1  2  2  0
  2  3  1  0
  3  4  1  0
  4  5  2  0
  5  6  1  0
  6  7  1  0
  7  8  2  0
  8  9  1  0
  9 10  2  0
 10 11  1  0
 11 12  2  0
  2 13  1  0
 13 14  1  0
 14 15  2  0
 15 16  1  0
 16 17  2  0
 17 18  1  0
 18 19  1  0
 19 20  1  0
 20 21  1  0
 21 22  1  0
 22 23  1  0
 17 24  1  0
 24 25  2  0
 12  4  1  0
 25 14  1  0
 12  7  1  0
 23 18  1  0
  3 26  1  0
  3 27  1  0
  5 28  1  0
  6 29  1  0
  8 30  1  0
  9 31  1  0
 10 32  1  0
 11 33  1  0
 13 34  1  0
 15 35  1  0
 16 36  1  0
 19 37  1  0
 19 38  1  0
 20 39  1  0
 20 40  1  0
 22 41  1  0
 22 42  1  0
 23 43  1  0
 23 44  1  0
 25 45  1  0
M  END
>  <UniqueID>  (22) 
18

>  <SMILES>  (22) 
O=C(Cc1c[nH]c2ccccc12)Nc1ccc(N2CCOCC2)nc1

>  <Energy>  (22) 
86.66065697082419

>  <Genealogy>  (22) 
O=C(Cc1c[nH]c2ccccc12)Nc1ccc(N2CCOCC2)nc1 (3D coordinates assigned)
O=C(Cc1c[nH]c2ccccc12)Nc1ccc(N2CCOCC2)nc1 (nonaromatic ring conformer: 86.66065697082419 kcal/mol)

>  <smiles>  (22) 
O=C(Cc1c[nH]c2ccccc12)Nc1ccc(N2CCOCC2)nc1

>  <score_type>  (22) 
oracle

>  <origin>  (22) 
adg

>  <m_score__min__energy>  (22) 
-7.9800000000000004

>  <m_primary>  (22) 
energy

$$$$
22:0
     RDKit          3D

 33 35  0  0  0  0  0  0  0  0999 V2000
   57.0050   34.5400   44.9170 C   0  0  0  0  0  0  0  0  0  0  0  0
   57.8640   33.2770   44.9400 C   0  0  2  0  0  0  0  0  0  0  0  0
   56.9990   32.1020   45.0140 N   0  0  0  0  0  0  0  0  0  0  0  0
   57.1470   30.9550   44.1690 C   0  0  0  0  0  0  0  0  0  0  0  0
   57.1760   31.0990   42.9160 O   0  0  0  0  0  0  0  0  0  0  0  0
   57.2700   29.6040   44.7620 C   0  0  0  0  0  0  0  0  0  0  0  0
   58.5520   29.0540   45.0390 C   0  0  0  0  0  0  0  0  0  0  0  0
   58.6790   27.7720   45.6050 C   0  0  0  0  0  0  0  0  0  0  0  0
   57.5120   27.0670   45.8820 C   0  0  0  0  0  0  0  0  0  0  0  0
   57.4020   25.8420   46.4170 N   0  0  0  0  0  0  0  0  0  0  0  0
   56.0560   25.6710   46.4560 C   0  0  0  0  0  0  0  0  0  0  0  0
   55.5220   24.6230   46.9020 O   0  0  0  0  0  0  0  0  0  0  0  0
   55.3250   26.7120   45.9790 N   0  0  0  0  0  0  0  0  0  0  0  0
   56.2800   27.5830   45.6230 C   0  0  0  0  0  0  0  0  0  0  0  0
   56.1110   28.8470   45.0630 C   0  0  0  0  0  0  0  0  0  0  0  0
   58.8190   33.3100   46.1140 C   0  0  0  0  0  0  0  0  0  0  0  0
   59.2420   34.5360   46.6630 C   0  0  0  0  0  0  0  0  0  0  0  0
   60.1370   34.5570   47.7380 C   0  0  0  0  0  0  0  0  0  0  0  0
   60.6220   33.3600   48.2680 C   0  0  0  0  0  0  0  0  0  0  0  0
   60.2170   32.1380   47.7230 C   0  0  0  0  0  0  0  0  0  0  0  0
   59.3240   32.1120   46.6490 C   0  0  0  0  0  0  0  0  0  0  0  0
   56.7900   34.8561   45.9485 H   0  0  0  0  0  0  0  0  0  0  0  0
   57.5459   35.3418   44.3930 H   0  0  0  0  0  0  0  0  0  0  0  0
   56.0606   34.3316   44.3930 H   0  0  0  0  0  0  0  0  0  0  0  0
   58.4599   33.2266   44.0167 H   0  0  0  0  0  0  0  0  0  0  0  0
   59.4552   29.6379   44.8080 H   0  0  0  0  0  0  0  0  0  0  0  0
   59.6679   27.3416   45.8212 H   0  0  0  0  0  0  0  0  0  0  0  0
   55.1062   29.2461   44.8602 H   0  0  0  0  0  0  0  0  0  0  0  0
   58.8669   35.4816   46.2445 H   0  0  0  0  0  0  0  0  0  0  0  0
   60.4589   35.5178   48.1661 H   0  0  0  0  0  0  0  0  0  0  0  0
   61.3234   33.3784   49.1152 H   0  0  0  0  0  0  0  0  0  0  0  0
   60.6019   31.1958   48.1403 H   0  0  0  0  0  0  0  0  0  0  0  0
   59.0140   31.1481   46.2192 H   0  0  0  0  0  0  0  0  0  0  0  0
  1  2  1  0
  2  3  1  0
  3  4  1  0
  4  5  2  0
  4  6  1  0
  6  7  2  0
  7  8  1  0
  8  9  2  0
  9 10  1  0
 10 11  1  0
 11 12  2  0
 11 13  1  0
 13 14  1  0
 14 15  2  0
  2 16  1  0
 16 17  2  0
 17 18  1  0
 18 19  2  0
 19 20  1  0
 20 21  2  0
 15  6  1  0
 21 16  1  0
 14  9  1  0
  1 22  1  0
  1 23  1  0
  1 24  1  0
  2 25  1  6
  7 26  1  0
  8 27  1  0
 15 28  1  0
 17 29  1  0
 18 30  1  0
 19 31  1  0
 20 32  1  0
 21 33  1  0
M  CHG  3   3  -1  10  -1  13  -1
M  END
>  <UniqueID>  (23) 
19

>  <SMILES>  (23) 
C[C@H]([N-]C(=O)c1ccc2[n-]c(=O)[n-]c2c1)c1ccccc1

>  <Energy>  (23) 
67.39120537924887

>  <Genealogy>  (23) 
CC([N-]C(=O)c1ccc2[n-]c(=O)[n-]c2c1)c1ccccc1 (protonated)
C[C@H]([N-]C(=O)c1ccc2[n-]c(=O)[n-]c2c1)c1ccccc1 (chirality)
C[C@H]([N-]C(=O)c1ccc2[n-]c(=O)[n-]c2c1)c1ccccc1 (3D coordinates assigned)
C[C@H]([N-]C(=O)c1ccc2[n-]c(=O)[n-]c2c1)c1ccccc1 (optimized conformer: 67.39120537924887 kcal/mol)

>  <smiles>  (23) 
CC(NC(=O)c1ccc2[nH]c(=O)[nH]c2c1)c1ccccc1

>  <score_type>  (23) 
oracle

>  <origin>  (23) 
adg

>  <m_score__min__energy>  (23) 
-12.51

>  <m_primary>  (23) 
energy

$$$$
23:0
     RDKit          3D

 35 36  0  0  0  0  0  0  0  0999 V2000
   59.3340   33.8960   48.0790 C   0  0  0  0  0  0  0  0  0  0  0  0
   58.2040   33.0150   47.5540 C   0  0  0  0  0  0  0  0  0  0  0  0
   58.1010   33.1130   46.0600 C   0  0  0  0  0  0  0  0  0  0  0  0
   58.2850   34.2690   45.3920 N   0  0  0  0  0  0  0  0  0  0  0  0
   58.1880   34.0010   44.1210 O   0  0  0  0  0  0  0  0  0  0  0  0
   57.9490   32.7270   43.9210 C   0  0  0  0  0  0  0  0  0  0  0  0
   57.7970   32.1100   42.5680 C   0  0  0  0  0  0  0  0  0  0  0  0
   57.8740   32.0890   45.1480 C   0  0  0  0  0  0  0  0  0  0  0  0
   57.6500   30.6500   45.3960 C   0  0  0  0  0  0  0  0  0  0  0  0
   56.6290   30.0910   44.9100 O   0  0  0  0  0  0  0  0  0  0  0  0
   58.5380   29.9040   46.2410 N   0  0  0  0  0  0  0  0  0  0  0  0
   58.6620   28.4720   46.2090 C   0  0  0  0  0  0  0  0  0  0  0  0
   59.9190   27.8430   46.2490 C   0  0  0  0  0  0  0  0  0  0  0  0
   60.0100   26.4490   46.2470 C   0  0  0  0  0  0  0  0  0  0  0  0
   58.8520   25.6690   46.2150 C   0  0  0  0  0  0  0  0  0  0  0  0
   57.5920   26.2830   46.1880 C   0  0  0  0  0  0  0  0  0  0  0  0
   56.1310   25.3030   46.1730 S   0  0  0  0  0  0  0  0  0  0  0  0
   54.7570   26.3270   45.9450 N   0  0  0  0  0  0  0  0  0  0  0  0
   56.2010   24.3000   45.0550 O   0  0  0  0  0  0  0  0  0  0  0  0
   55.9960   24.5650   47.4750 O   0  0  0  0  0  0  0  0  0  0  0  0
   57.5010   27.6810   46.1980 C   0  0  0  0  0  0  0  0  0  0  0  0
   59.3241   33.8883   49.1789 H   0  0  0  0  0  0  0  0  0  0  0  0
   60.2984   33.5091   47.7183 H   0  0  0  0  0  0  0  0  0  0  0  0
   59.1940   34.9257   47.7183 H   0  0  0  0  0  0  0  0  0  0  0  0
   58.4020   31.9698   47.8339 H   0  0  0  0  0  0  0  0  0  0  0  0
   57.2564   33.3571   47.9956 H   0  0  0  0  0  0  0  0  0  0  0  0
   57.5352   31.0472   42.6770 H   0  0  0  0  0  0  0  0  0  0  0  0
   56.9999   32.6292   42.0157 H   0  0  0  0  0  0  0  0  0  0  0  0
   58.7441   32.1995   42.0157 H   0  0  0  0  0  0  0  0  0  0  0  0
   59.0490   30.4250   46.9870 H   0  0  0  0  0  0  0  0  0  0  0  0
   60.8348   28.4514   46.2820 H   0  0  0  0  0  0  0  0  0  0  0  0
   60.9971   25.9641   46.2707 H   0  0  0  0  0  0  0  0  0  0  0  0
   58.9286   24.5717   46.2110 H   0  0  0  0  0  0  0  0  0  0  0  0
   54.8140   27.0800   46.6670 H   0  0  0  0  0  0  0  0  0  0  0  0
   56.5124   28.1633   46.1972 H   0  0  0  0  0  0  0  0  0  0  0  0
  1  2  1  0
  2  3  1  0
  3  4  2  0
  4  5  1  0
  5  6  1  0
  6  7  1  0
  6  8  2  0
  8  9  1  0
  9 10  2  0
  9 11  1  0
 11 12  1  0
 12 13  2  0
 13 14  1  0
 14 15  2  0
 15 16  1  0
 16 17  1  0
 17 18  1  0
 17 19  2  0
 17 20  2  0
 16 21  2  0
  8  3  1  0
 21 12  1  0
  1 22  1  0
  1 23  1  0
  1 24  1  0
  2 25  1  0
  2 26  1  0
  7 27  1  0
  7 28  1  0
  7 29  1  0
 11 30  1  0
 13 31  1  0
 14 32  1  0
 15 33  1  0
 18 34  1  0
 21 35  1  0
M  CHG  1  18  -1
M  END
>  <UniqueID>  (24) 
20

>  <SMILES>  (24) 
CCc1noc(C)c1C(=O)Nc1cccc(S([NH-])(=O)=O)c1

>  <Energy>  (24) 
67.17662248503083

>  <Genealogy>  (24) 
CCc1noc(C)c1C(=O)Nc1cccc(S([NH-])(=O)=O)c1 (protonated)
CCc1noc(C)c1C(=O)Nc1cccc(S([NH-])(=O)=O)c1 (3D coordinates assigned)
CCc1noc(C)c1C(=O)Nc1cccc(S([NH-])(=O)=O)c1 (optimized conformer: 67.17662248503083 kcal/mol)

>  <smiles>  (24) 
CCc1noc(C)c1C(=O)Nc1cccc(S(N)(=O)=O)c1

>  <score_type>  (24) 
oracle

>  <origin>  (24) 
adg

>  <m_score__min__energy>  (24) 
-11.220000000000001

>  <m_primary>  (24) 
energy

$$$$
24:0
     RDKit          3D

 60 63  0  0  0  0  0  0  0  0999 V2000
   60.4130   33.4820   51.0470 C   0  0  0  0  0  0  0  0  0  0  0  0
   60.8620   33.9120   49.7660 O   0  0  0  0  0  0  0  0  0  0  0  0
   60.1350   33.7520   48.5770 C   0  0  0  0  0  0  0  0  0  0  0  0
   60.5940   34.2460   47.3390 C   0  0  0  0  0  0  0  0  0  0  0  0
   59.8260   34.0720   46.1840 C   0  0  0  0  0  0  0  0  0  0  0  0
   58.5940   33.4030   46.2480 C   0  0  0  0  0  0  0  0  0  0  0  0
   57.6200   33.1790   44.7980 S   0  0  0  0  0  0  0  0  0  0  0  0
   56.7270   34.3750   44.6210 O   0  0  0  0  0  0  0  0  0  0  0  0
   58.5080   33.0670   43.5890 O   0  0  0  0  0  0  0  0  0  0  0  0
   56.6370   31.7520   44.9480 N   0  0  0  0  0  0  0  0  0  0  0  0
   56.8270   30.8420   43.8130 C   0  0  0  0  0  0  0  0  0  0  0  0
   57.8400   29.7400   44.1520 C   0  0  1  0  0  0  0  0  0  0  0  0
   59.1320   30.2840   44.8270 C   0  0  0  0  0  0  0  0  0  0  0  0
   59.1560   29.6770   46.1550 N   0  0  0  0  0  0  0  0  0  0  0  0
   60.0610   30.0300   47.2190 C   0  0  0  0  0  0  0  0  0  0  0  0
   61.2450   30.7240   46.9330 C   0  0  0  0  0  0  0  0  0  0  0  0
   62.1210   31.0860   47.9580 C   0  0  0  0  0  0  0  0  0  0  0  0
   61.8290   30.7660   49.2940 C   0  0  0  0  0  0  0  0  0  0  0  0
   62.7120   31.1900   50.3470 N   0  0  0  0  0  0  0  0  0  0  0  0
   63.6350   32.2780   50.2150 C   0  0  0  0  0  0  0  0  0  0  0  0
   63.8050   32.8400   49.0970 O   0  0  0  0  0  0  0  0  0  0  0  0
   64.3990   32.6540   51.3280 O   0  0  0  0  0  0  0  0  0  0  0  0
   65.6620   33.2640   51.2800 C   0  0  0  0  0  0  0  0  0  0  0  0
   66.7210   32.7460   50.5110 C   0  0  0  0  0  0  0  0  0  0  0  0
   67.9560   33.4000   50.4850 C   0  0  0  0  0  0  0  0  0  0  0  0
   68.1430   34.5770   51.2150 C   0  0  0  0  0  0  0  0  0  0  0  0
   67.0910   35.1070   51.9650 C   0  0  0  0  0  0  0  0  0  0  0  0
   65.8540   34.4570   51.9920 C   0  0  0  0  0  0  0  0  0  0  0  0
   60.6320   30.0780   49.5950 C   0  0  0  0  0  0  0  0  0  0  0  0
   60.2680   29.7380   51.0160 C   0  0  0  0  0  0  0  0  0  0  0  0
   59.7550   29.7240   48.5550 C   0  0  0  0  0  0  0  0  0  0  0  0
   58.0440   28.8070   46.2330 C   0  0  0  0  0  0  0  0  0  0  0  0
   57.7940   28.0630   47.2170 O   0  0  0  0  0  0  0  0  0  0  0  0
   57.2820   28.8250   45.0890 O   0  0  0  0  0  0  0  0  0  0  0  0
   58.1420   32.9020   47.4760 C   0  0  0  0  0  0  0  0  0  0  0  0
   58.9080   33.0780   48.6320 C   0  0  0  0  0  0  0  0  0  0  0  0
   60.9712   34.0166   51.8297 H   0  0  0  0  0  0  0  0  0  0  0  0
   59.3392   33.6973   51.1505 H   0  0  0  0  0  0  0  0  0  0  0  0
   60.5817   32.3999   51.1505 H   0  0  0  0  0  0  0  0  0  0  0  0
   61.5595   34.7700   47.2817 H   0  0  0  0  0  0  0  0  0  0  0  0
   60.1888   34.4610   45.2211 H   0  0  0  0  0  0  0  0  0  0  0  0
   55.8626   30.3778   43.5594 H   0  0  0  0  0  0  0  0  0  0  0  0
   57.2130   31.4215   42.9614 H   0  0  0  0  0  0  0  0  0  0  0  0
   58.0852   29.2699   43.1882 H   0  0  0  0  0  0  0  0  0  0  0  0
   60.0216   29.9880   44.2516 H   0  0  0  0  0  0  0  0  0  0  0  0
   59.1376   31.3828   44.8775 H   0  0  0  0  0  0  0  0  0  0  0  0
   61.4859   30.9856   45.8921 H   0  0  0  0  0  0  0  0  0  0  0  0
   63.0482   31.6267   47.7171 H   0  0  0  0  0  0  0  0  0  0  0  0
   62.7560   30.6270   51.2270 H   0  0  0  0  0  0  0  0  0  0  0  0
   66.5763   31.8239   49.9289 H   0  0  0  0  0  0  0  0  0  0  0  0
   68.7829   32.9872   49.8884 H   0  0  0  0  0  0  0  0  0  0  0  0
   69.1182   35.0856   51.1988 H   0  0  0  0  0  0  0  0  0  0  0  0
   67.2360   36.0366   52.5349 H   0  0  0  0  0  0  0  0  0  0  0  0
   65.0252   34.8841   52.5757 H   0  0  0  0  0  0  0  0  0  0  0  0
   60.8946   30.3233   51.7051 H   0  0  0  0  0  0  0  0  0  0  0  0
   59.2087   29.9775   51.1905 H   0  0  0  0  0  0  0  0  0  0  0  0
   60.4348   28.6648   51.1905 H   0  0  0  0  0  0  0  0  0  0  0  0
   58.8168   29.2004   48.7907 H   0  0  0  0  0  0  0  0  0  0  0  0
   57.1815   32.3686   47.5306 H   0  0  0  0  0  0  0  0  0  0  0  0
   58.5445   32.6841   49.5926 H   0  0  0  0  0  0  0  0  0  0  0  0
  1  2  1  0
  2  3  1  0
  3  4  2  0
  4  5  1  0
  5  6  2  0
  6  7  1  0
  7  8  2  0
  7  9  2  0
  7 10  1  0
 10 11  1  0
 11 12  1  0
 12 13  1  0
 13 14  1  0
 14 15  1  0
 15 16  2  0
 16 17  1  0
 17 18  2  0
 18 19  1  0
 19 20  1  0
 20 21  2  0
 20 22  1  0
 22 23  1  0
 23 24  2  0
 24 25  1  0
 25 26  2  0
 26 27  1  0
 27 28  2  0
 18 29  1  0
 29 30  1  0
 29 31  2  0
 14 32  1  0
 32 33  2  0
 32 34  1  0
  6 35  1  0
 35 36  2  0
 36  3  1  0
 34 12  1  0
 31 15  1  0
 28 23  1  0
  1 37  1  0
  1 38  1  0
  1 39  1  0
  4 40  1  0
  5 41  1  0
 11 42  1  0
 11 43  1  0
 12 44  1  6
 13 45  1  0
 13 46  1  0
 16 47  1  0
 17 48  1  0
 19 49  1  0
 24 50  1  0
 25 51  1  0
 26 52  1  0
 27 53  1  0
 28 54  1  0
 30 55  1  0
 30 56  1  0
 30 57  1  0
 31 58  1  0
 35 59  1  0
 36 60  1  0
M  CHG  1  10  -1
M  END
>  <UniqueID>  (25) 
21

>  <SMILES>  (25) 
COc1ccc(S(=O)(=O)[N-]C[C@H]2CN(c3ccc(NC(=O)Oc4ccccc4)c(C)c3)C(=O)O2)cc1

>  <Energy>  (25) 
89.271924262071

>  <Genealogy>  (25) 
COc1ccc(S(=O)(=O)[N-]CC2CN(c3ccc(NC(=O)Oc4ccccc4)c(C)c3)C(=O)O2)cc1 (protonated)
COc1ccc(S(=O)(=O)[N-]C[C@H]2CN(c3ccc(NC(=O)Oc4ccccc4)c(C)c3)C(=O)O2)cc1 (chirality)
COc1ccc(S(=O)(=O)[N-]C[C@H]2CN(c3ccc(NC(=O)Oc4ccccc4)c(C)c3)C(=O)O2)cc1 (3D coordinates assigned)
COc1ccc(S(=O)(=O)[N-]C[C@H]2CN(c3ccc(NC(=O)Oc4ccccc4)c(C)c3)C(=O)O2)cc1 (nonaromatic ring conformer: 89.271924262071 kcal/mol)

>  <smiles>  (25) 
COc1ccc(S(=O)(=O)NCC2CN(c3ccc(NC(=O)Oc4ccccc4)c(C)c3)C(=O)O2)cc1

>  <score_type>  (25) 
oracle

>  <origin>  (25) 
adg

>  <m_score__min__energy>  (25) 
-10.16

>  <m_primary>  (25) 
energy

$$$$
25:0
     RDKit          3D

 33 35  0  0  0  0  0  0  0  0999 V2000
   55.1480   28.9700   44.5230 O   0  0  0  0  0  0  0  0  0  0  0  0
   56.2560   29.5620   44.6090 C   0  0  0  0  0  0  0  0  0  0  0  0
   56.3030   30.9770   44.3810 N   0  0  0  0  0  0  0  0  0  0  0  0
   57.1950   31.8940   45.0270 C   0  0  0  0  0  0  0  0  0  0  0  0
   57.7890   31.5910   46.2650 C   0  0  0  0  0  0  0  0  0  0  0  0
   58.6780   32.4930   46.8580 C   0  0  0  0  0  0  0  0  0  0  0  0
   58.9730   33.7080   46.2260 C   0  0  0  0  0  0  0  0  0  0  0  0
   60.1610   34.8130   46.9140 S   0  0  0  0  0  0  0  0  0  0  0  0
   59.9640   34.9580   48.3970 O   0  0  0  0  0  0  0  0  0  0  0  0
   60.0000   36.1610   46.2710 O   0  0  0  0  0  0  0  0  0  0  0  0
   61.7590   34.2150   46.6030 N   0  0  0  0  0  0  0  0  0  0  0  0
   62.5350   33.6940   47.5050 C   0  0  0  0  0  0  0  0  0  0  0  0
   62.5700   34.1390   48.7780 N   0  0  0  0  0  0  0  0  0  0  0  0
   63.4590   33.4490   49.5420 C   0  0  0  0  0  0  0  0  0  0  0  0
   64.1430   32.4390   48.8730 C   0  0  0  0  0  0  0  0  0  0  0  0
   63.6120   32.4160   47.2740 S   0  0  0  0  0  0  0  0  0  0  0  0
   58.3520   34.0270   45.0130 C   0  0  0  0  0  0  0  0  0  0  0  0
   57.4590   33.1280   44.4220 C   0  0  0  0  0  0  0  0  0  0  0  0
   57.4710   28.7740   44.8900 C   0  0  0  0  0  0  0  0  0  0  0  0
   58.7520   29.0130   44.3920 C   0  0  0  0  0  0  0  0  0  0  0  0
   59.6960   28.0730   44.8170 C   0  0  0  0  0  0  0  0  0  0  0  0
   59.1580   27.0900   45.6340 C   0  0  0  0  0  0  0  0  0  0  0  0
   60.0390   25.7510   46.3380 Cl  0  0  0  0  0  0  0  0  0  0  0  0
   57.5150   27.3780   45.8330 S   0  0  0  0  0  0  0  0  0  0  0  0
   57.5537   30.6417   46.7685 H   0  0  0  0  0  0  0  0  0  0  0  0
   59.1466   32.2480   47.8226 H   0  0  0  0  0  0  0  0  0  0  0  0
   61.9850   34.9240   49.1410 H   0  0  0  0  0  0  0  0  0  0  0  0
   63.6243   33.6723   50.6063 H   0  0  0  0  0  0  0  0  0  0  0  0
   64.8992   31.7714   49.3117 H   0  0  0  0  0  0  0  0  0  0  0  0
   58.5672   34.9881   44.5230 H   0  0  0  0  0  0  0  0  0  0  0  0
   56.9616   33.3919   43.4770 H   0  0  0  0  0  0  0  0  0  0  0  0
   58.9954   29.8574   43.7304 H   0  0  0  0  0  0  0  0  0  0  0  0
   60.7578   28.1096   44.5321 H   0  0  0  0  0  0  0  0  0  0  0  0
  1  2  2  0
  2  3  1  0
  3  4  1  0
  4  5  2  0
  5  6  1  0
  6  7  2  0
  7  8  1  0
  8  9  2  0
  8 10  2  0
  8 11  1  0
 11 12  2  3
 12 13  1  0
 13 14  1  0
 14 15  2  0
 15 16  1  0
  7 17  1  0
 17 18  2  0
  2 19  1  0
 19 20  2  0
 20 21  1  0
 21 22  2  0
 22 23  1  0
 22 24  1  0
 18  4  1  0
 24 19  1  0
 16 12  1  0
  5 25  1  0
  6 26  1  0
 13 27  1  0
 14 28  1  0
 15 29  1  0
 17 30  1  0
 18 31  1  0
 20 32  1  0
 21 33  1  0
M  CHG  1   3  -1
M  END
>  <UniqueID>  (26) 
22

>  <SMILES>  (26) 
O=C([N-]c1ccc(S(=O)(=O)N=c2[nH]ccs2)cc1)c1ccc(Cl)s1

>  <Energy>  (26) 
99.85549525840574

>  <Genealogy>  (26) 
O=C([N-]c1ccc(S(=O)(=O)N=c2[nH]ccs2)cc1)c1ccc(Cl)s1 (protonated)
O=C([N-]c1ccc(S(=O)(=O)N=c2[nH]ccs2)cc1)c1ccc(Cl)s1 (3D coordinates assigned)
O=C([N-]c1ccc(S(=O)(=O)N=c2[nH]ccs2)cc1)c1ccc(Cl)s1 (optimized conformer: 99.85549525840574 kcal/mol)

>  <smiles>  (26) 
O=C(Nc1ccc(S(=O)(=O)N=c2[nH]ccs2)cc1)c1ccc(Cl)s1

>  <score_type>  (26) 
oracle

>  <origin>  (26) 
adg

>  <m_score__min__energy>  (26) 
-9.8399999999999999

>  <m_primary>  (26) 
energy

$$$$
26:0
     RDKit          3D

 47 49  0  0  0  0  0  0  0  0999 V2000
   55.2480   23.8200   44.2160 C   0  0  0  0  0  0  0  0  0  0  0  0
   55.2750   24.6710   45.7780 S   0  0  0  0  0  0  0  0  0  0  0  0
   54.4470   25.9190   45.6610 O   0  0  0  0  0  0  0  0  0  0  0  0
   54.6900   23.8020   46.8570 O   0  0  0  0  0  0  0  0  0  0  0  0
   56.8990   25.1170   46.1910 N   0  0  0  0  0  0  0  0  0  0  0  0
   57.4350   26.4470   46.1810 C   0  0  0  0  0  0  0  0  0  0  0  0
   58.7180   26.6490   46.7050 C   0  0  0  0  0  0  0  0  0  0  0  0
   59.2880   27.9240   46.7090 C   0  0  0  0  0  0  0  0  0  0  0  0
   58.5760   29.0110   46.2000 C   0  0  0  0  0  0  0  0  0  0  0  0
   57.2840   28.8350   45.6930 C   0  0  0  0  0  0  0  0  0  0  0  0
   56.5770   29.9770   45.1900 N   0  0  0  0  0  0  0  0  0  0  0  0
   57.1020   30.9970   44.3260 C   0  0  0  0  0  0  0  0  0  0  0  0
   56.9930   30.8390   43.0810 O   0  0  0  0  0  0  0  0  0  0  0  0
   57.8150   32.1920   44.8450 C   0  0  0  0  0  0  0  0  0  0  0  0
   57.3920   33.4790   44.4740 C   0  0  0  0  0  0  0  0  0  0  0  0
   58.0550   34.6090   44.9580 C   0  0  0  0  0  0  0  0  0  0  0  0
   59.1410   34.4690   45.8230 C   0  0  0  0  0  0  0  0  0  0  0  0
   59.5850   33.1920   46.2060 C   0  0  0  0  0  0  0  0  0  0  0  0
   60.6990   33.0380   47.1730 C   0  0  0  0  0  0  0  0  0  0  0  0
   60.4450   32.6060   48.4850 C   0  0  0  0  0  0  0  0  0  0  0  0
   61.4900   32.4700   49.4020 C   0  0  0  0  0  0  0  0  0  0  0  0
   62.8080   32.7710   49.0280 C   0  0  0  0  0  0  0  0  0  0  0  0
   63.9280   32.5900   50.0190 C   0  0  0  0  0  0  0  0  0  0  0  0
   65.0210   31.9680   49.4010 O   0  0  0  0  0  0  0  0  0  0  0  0
   63.0740   33.1900   47.7110 C   0  0  0  0  0  0  0  0  0  0  0  0
   64.3820   33.4650   47.3150 O   0  0  0  0  0  0  0  0  0  0  0  0
   62.0210   33.3290   46.7940 C   0  0  0  0  0  0  0  0  0  0  0  0
   58.9330   32.0590   45.6880 C   0  0  0  0  0  0  0  0  0  0  0  0
   56.7230   27.5450   45.6610 C   0  0  0  0  0  0  0  0  0  0  0  0
   55.2136   22.7345   44.3904 H   0  0  0  0  0  0  0  0  0  0  0  0
   54.3592   24.1282   43.6459 H   0  0  0  0  0  0  0  0  0  0  0  0
   56.1546   24.0712   43.6459 H   0  0  0  0  0  0  0  0  0  0  0  0
   59.2805   25.7978   47.1161 H   0  0  0  0  0  0  0  0  0  0  0  0
   60.3000   28.0717   47.1141 H   0  0  0  0  0  0  0  0  0  0  0  0
   59.0331   30.0115   46.1974 H   0  0  0  0  0  0  0  0  0  0  0  0
   56.5327   33.5977   43.7976 H   0  0  0  0  0  0  0  0  0  0  0  0
   57.7201   35.6124   44.6564 H   0  0  0  0  0  0  0  0  0  0  0  0
   59.6526   35.3637   46.2074 H   0  0  0  0  0  0  0  0  0  0  0  0
   59.4150   32.3729   48.7929 H   0  0  0  0  0  0  0  0  0  0  0  0
   61.2778   32.1244   50.4245 H   0  0  0  0  0  0  0  0  0  0  0  0
   64.2377   33.5736   50.4019 H   0  0  0  0  0  0  0  0  0  0  0  0
   63.5764   31.9594   50.8489 H   0  0  0  0  0  0  0  0  0  0  0  0
   64.7190   31.6980   48.4940 H   0  0  0  0  0  0  0  0  0  0  0  0
   65.1410   32.8210   47.5030 H   0  0  0  0  0  0  0  0  0  0  0  0
   62.2320   33.6688   45.7693 H   0  0  0  0  0  0  0  0  0  0  0  0
   59.3022   31.0553   45.9455 H   0  0  0  0  0  0  0  0  0  0  0  0
   55.7234   27.3935   45.2277 H   0  0  0  0  0  0  0  0  0  0  0  0
  1  2  1  0
  2  3  2  0
  2  4  2  0
  2  5  1  0
  5  6  1  0
  6  7  2  0
  7  8  1  0
  8  9  2  0
  9 10  1  0
 10 11  1  0
 11 12  1  0
 12 13  2  0
 12 14  1  0
 14 15  2  0
 15 16  1  0
 16 17  2  0
 17 18  1  0
 18 19  1  0
 19 20  2  0
 20 21  1  0
 21 22  2  0
 22 23  1  0
 23 24  1  0
 22 25  1  0
 25 26  1  0
 25 27  2  0
 18 28  2  0
 10 29  2  0
 29  6  1  0
 28 14  1  0
 27 19  1  0
  1 30  1  0
  1 31  1  0
  1 32  1  0
  7 33  1  0
  8 34  1  0
  9 35  1  0
 15 36  1  0
 16 37  1  0
 17 38  1  0
 20 39  1  0
 21 40  1  0
 23 41  1  0
 23 42  1  0
 24 43  1  0
 26 44  1  0
 27 45  1  0
 28 46  1  0
 29 47  1  0
M  CHG  2   5  -1  11  -1
M  END
>  <UniqueID>  (27) 
23

>  <SMILES>  (27) 
CS(=O)(=O)[N-]c1cccc([N-]C(=O)c2cccc(-c3ccc(CO)c(O)c3)c2)c1

>  <Energy>  (27) 
56.47666793495343

>  <Genealogy>  (27) 
CS(=O)(=O)[N-]c1cccc([N-]C(=O)c2cccc(-c3ccc(CO)c(O)c3)c2)c1 (protonated)
CS(=O)(=O)[N-]c1cccc([N-]C(=O)c2cccc(-c3ccc(CO)c(O)c3)c2)c1 (3D coordinates assigned)
CS(=O)(=O)[N-]c1cccc([N-]C(=O)c2cccc(-c3ccc(CO)c(O)c3)c2)c1 (optimized conformer: 56.47666793495343 kcal/mol)

>  <smiles>  (27) 
CS(=O)(=O)Nc1cccc(NC(=O)c2cccc(-c3ccc(CO)c(O)c3)c2)c1

>  <score_type>  (27) 
oracle

>  <origin>  (27) 
adg

>  <m_score__min__energy>  (27) 
-12.630000000000001

>  <m_primary>  (27) 
energy

$$$$
27:0
     RDKit          3D

 47 49  0  0  0  0  0  0  0  0999 V2000
   57.6860   22.4210   44.6430 C   0  0  0  0  0  0  0  0  0  0  0  0
   56.4180   23.2180   43.6850 S   0  0  0  0  0  0  0  0  0  0  0  0
   57.0010   24.4190   42.9970 O   0  0  0  0  0  0  0  0  0  0  0  0
   55.8790   22.2720   42.6490 O   0  0  0  0  0  0  0  0  0  0  0  0
   55.1410   23.7320   44.7340 N   0  0  0  0  0  0  0  0  0  0  0  0
   55.3440   24.6730   45.7900 C   0  0  0  0  0  0  0  0  0  0  0  0
   54.7100   25.7610   45.8080 O   0  0  0  0  0  0  0  0  0  0  0  0
   56.3310   24.3650   46.8730 C   0  0  0  0  0  0  0  0  0  0  0  0
   56.8770   25.5660   47.4210 O   0  0  0  0  0  0  0  0  0  0  0  0
   57.6900   26.4780   46.7280 C   0  0  0  0  0  0  0  0  0  0  0  0
   59.0620   26.4850   47.0080 C   0  0  0  0  0  0  0  0  0  0  0  0
   59.9190   27.3590   46.3350 C   0  0  0  0  0  0  0  0  0  0  0  0
   59.4140   28.2350   45.3730 C   0  0  0  0  0  0  0  0  0  0  0  0
   58.0400   28.2530   45.0870 C   0  0  0  0  0  0  0  0  0  0  0  0
   57.4990   29.1620   44.0110 C   0  0  0  0  0  0  0  0  0  0  0  0
   56.2990   29.9530   44.4810 C   0  0  0  0  0  0  0  0  0  0  0  0
   55.2600   29.3480   44.8560 O   0  0  0  0  0  0  0  0  0  0  0  0
   56.2900   31.3900   44.5030 N   0  0  0  0  0  0  0  0  0  0  0  0
   57.2750   32.1770   44.8240 C   0  0  0  0  0  0  0  0  0  0  0  0
   57.7880   33.0950   43.9920 N   0  0  0  0  0  0  0  0  0  0  0  0
   58.7710   33.7000   44.6370 N   0  0  0  0  0  0  0  0  0  0  0  0
   58.8190   33.1160   45.8560 C   0  0  0  0  0  0  0  0  0  0  0  0
   59.7750   33.4800   46.9200 C   0  0  0  0  0  0  0  0  0  0  0  0
   61.1570   33.4250   46.6740 C   0  0  0  0  0  0  0  0  0  0  0  0
   62.0670   33.7670   47.6790 C   0  0  0  0  0  0  0  0  0  0  0  0
   61.6050   34.1660   48.9370 C   0  0  0  0  0  0  0  0  0  0  0  0
   62.4890   34.4970   49.9100 F   0  0  0  0  0  0  0  0  0  0  0  0
   60.2320   34.2220   49.1900 C   0  0  0  0  0  0  0  0  0  0  0  0
   59.3180   33.8810   48.1870 C   0  0  0  0  0  0  0  0  0  0  0  0
   57.9040   32.1780   45.9730 O   0  0  0  0  0  0  0  0  0  0  0  0
   57.1820   27.3720   45.7640 C   0  0  0  0  0  0  0  0  0  0  0  0
   57.4744   22.5540   45.7142 H   0  0  0  0  0  0  0  0  0  0  0  0
   57.7061   21.3475   44.4038 H   0  0  0  0  0  0  0  0  0  0  0  0
   58.6620   22.8683   44.4038 H   0  0  0  0  0  0  0  0  0  0  0  0
   55.8257   23.8019   47.6715 H   0  0  0  0  0  0  0  0  0  0  0  0
   57.1505   23.7702   46.4433 H   0  0  0  0  0  0  0  0  0  0  0  0
   59.4681   25.7968   47.7639 H   0  0  0  0  0  0  0  0  0  0  0  0
   60.9949   27.3568   46.5639 H   0  0  0  0  0  0  0  0  0  0  0  0
   60.0947   28.9132   44.8375 H   0  0  0  0  0  0  0  0  0  0  0  0
   58.2902   29.8643   43.7098 H   0  0  0  0  0  0  0  0  0  0  0  0
   57.1792   28.5330   43.1671 H   0  0  0  0  0  0  0  0  0  0  0  0
   57.4870   33.3120   43.0160 H   0  0  0  0  0  0  0  0  0  0  0  0
   61.5250   33.1114   45.6860 H   0  0  0  0  0  0  0  0  0  0  0  0
   63.1479   33.7221   47.4797 H   0  0  0  0  0  0  0  0  0  0  0  0
   59.8688   34.5349   50.1800 H   0  0  0  0  0  0  0  0  0  0  0  0
   58.2380   33.9269   48.3909 H   0  0  0  0  0  0  0  0  0  0  0  0
   56.1050   27.3794   45.5404 H   0  0  0  0  0  0  0  0  0  0  0  0
  1  2  1  0
  2  3  2  0
  2  4  2  0
  2  5  1  0
  5  6  1  0
  6  7  2  0
  6  8  1  0
  8  9  1  0
  9 10  1  0
 10 11  2  0
 11 12  1  0
 12 13  2  0
 13 14  1  0
 14 15  1  0
 15 16  1  0
 16 17  2  0
 16 18  1  0
 18 19  2  3
 19 20  1  0
 20 21  1  0
 21 22  2  0
 22 23  1  0
 23 24  2  0
 24 25  1  0
 25 26  2  0
 26 27  1  0
 26 28  1  0
 28 29  2  0
 22 30  1  0
 14 31  2  0
 31 10  1  0
 30 19  1  0
 29 23  1  0
  1 32  1  0
  1 33  1  0
  1 34  1  0
  8 35  1  0
  8 36  1  0
 11 37  1  0
 12 38  1  0
 13 39  1  0
 15 40  1  0
 15 41  1  0
 20 42  1  0
 24 43  1  0
 25 44  1  0
 28 45  1  0
 29 46  1  0
 31 47  1  0
M  CHG  1   5  -1
M  END
>  <UniqueID>  (28) 
24

>  <SMILES>  (28) 
CS(=O)(=O)[N-]C(=O)COc1cccc(CC(=O)N=c2[nH]nc(-c3ccc(F)cc3)o2)c1

>  <Energy>  (28) 
82.48914820867445

>  <Genealogy>  (28) 
CS(=O)(=O)[N-]C(=O)COc1cccc(CC(=O)N=c2[nH]nc(-c3ccc(F)cc3)o2)c1 (protonated)
CS(=O)(=O)[N-]C(=O)COc1cccc(CC(=O)N=c2[nH]nc(-c3ccc(F)cc3)o2)c1 (3D coordinates assigned)
CS(=O)(=O)[N-]C(=O)COc1cccc(CC(=O)N=c2[nH]nc(-c3ccc(F)cc3)o2)c1 (optimized conformer: 82.48914820867445 kcal/mol)

>  <smiles>  (28) 
CS(=O)(=O)NC(=O)COc1cccc(CC(=O)N=c2[nH]nc(-c3ccc(F)cc3)o2)c1

>  <score_type>  (28) 
oracle

>  <origin>  (28) 
adg

>  <m_score__min__energy>  (28) 
-11.68

>  <m_primary>  (28) 
energy

$$$$
28:0
     RDKit          3D

 59 63  0  0  0  0  0  0  0  0999 V2000
   58.9704   26.8987   44.5653 H   0  0  0  0  0  0  0  0  0  0  0  0
   58.1000   27.2110   45.1610 C   0  0  0  0  0  0  0  0  0  0  0  0
   57.4720   26.1940   46.0310 C   0  0  0  0  0  0  0  0  0  0  0  0
   58.0980   25.1450   46.5940 N   0  0  0  0  0  0  0  0  0  0  0  0
   57.1120   24.5140   47.2680 C   0  0  0  0  0  0  0  0  0  0  0  0
   57.3100   23.4660   47.9370 O   0  0  0  0  0  0  0  0  0  0  0  0
   55.8970   25.0930   47.1680 N   0  0  0  0  0  0  0  0  0  0  0  0
   56.1430   26.1540   46.3810 C   0  0  0  0  0  0  0  0  0  0  0  0
   55.1710   27.0670   45.9910 O   0  0  0  0  0  0  0  0  0  0  0  0
   57.6940   28.4850   45.0390 C   0  0  0  0  0  0  0  0  0  0  0  0
   56.8440   29.0770   44.0950 C   0  0  0  0  0  0  0  0  0  0  0  0
   56.3499   28.5460   43.2680 H   0  0  0  0  0  0  0  0  0  0  0  0
   56.7220   30.4030   44.3540 N   0  0  0  0  0  0  0  0  0  0  0  0
   57.4620   30.6540   45.4210 N   0  0  0  0  0  0  0  0  0  0  0  0
   57.6470   31.8420   46.0450 C   0  0  0  0  0  0  0  0  0  0  0  0
   57.0530   32.9140   45.5940 N   0  0  0  0  0  0  0  0  0  0  0  0
   57.5620   34.2350   45.1760 C   0  0  0  0  0  0  0  0  0  0  0  0
   56.5617   34.6113   44.9155 H   0  0  0  0  0  0  0  0  0  0  0  0
   58.7540   34.7880   45.9420 C   0  0  0  0  0  0  0  0  0  0  0  0
   58.8200   35.8652   46.1549 H   0  0  0  0  0  0  0  0  0  0  0  0
   59.2279   34.5685   46.9101 H   0  0  0  0  0  0  0  0  0  0  0  0
   58.9280   34.2780   44.5090 C   0  0  0  0  0  0  0  0  0  0  0  0
   59.1193   34.9883   43.6912 H   0  0  0  0  0  0  0  0  0  0  0  0
   59.5791   33.5394   44.0186 H   0  0  0  0  0  0  0  0  0  0  0  0
   58.4600   31.8600   47.1380 N   0  0  0  0  0  0  0  0  0  0  0  0
   59.0700   30.7190   47.5900 C   0  0  0  0  0  0  0  0  0  0  0  0
   59.9290   30.7610   48.7480 N   0  0  0  0  0  0  0  0  0  0  0  0
   61.1640   29.9610   48.8060 C   0  0  0  0  0  0  0  0  0  0  0  0
   61.4564   29.6724   47.7856 H   0  0  0  0  0  0  0  0  0  0  0  0
   60.9783   29.0644   49.4156 H   0  0  0  0  0  0  0  0  0  0  0  0
   62.3000   30.7700   49.4470 C   0  0  0  0  0  0  0  0  0  0  0  0
   62.6872   31.4863   48.7074 H   0  0  0  0  0  0  0  0  0  0  0  0
   63.0821   30.0648   49.7650 H   0  0  0  0  0  0  0  0  0  0  0  0
   61.8460   31.5120   50.6350 N   0  0  0  0  0  0  0  0  0  0  0  0
   62.6670   32.5450   51.2130 C   0  0  0  0  0  0  0  0  0  0  0  0
   62.1490   33.6640   51.4790 O   0  0  0  0  0  0  0  0  0  0  0  0
   64.1290   32.3320   51.5400 C   0  0  2  0  0  0  0  0  0  0  0  0
   64.2363   31.3641   52.0516 H   0  0  0  0  0  0  0  0  0  0  0  0
   64.5840   33.3890   52.4500 N   0  0  0  0  0  0  0  0  0  0  0  0
   64.3370   33.1540   53.4380 H   0  0  0  0  0  0  0  0  0  0  0  0
   64.0850   34.2790   52.2150 H   0  0  0  0  0  0  0  0  0  0  0  0
   65.0160   32.2120   50.2640 C   0  0  0  0  0  0  0  0  0  0  0  0
   64.9591   31.1635   49.9363 H   0  0  0  0  0  0  0  0  0  0  0  0
   64.5010   33.1190   49.1340 C   0  0  0  0  0  0  0  0  0  0  0  0
   64.0019   33.9980   49.5680 H   0  0  0  0  0  0  0  0  0  0  0  0
   65.3474   33.4474   48.5129 H   0  0  0  0  0  0  0  0  0  0  0  0
   63.7853   32.5604   48.5129 H   0  0  0  0  0  0  0  0  0  0  0  0
   66.4820   32.5680   50.5670 C   0  0  0  0  0  0  0  0  0  0  0  0
   66.6329   32.6046   51.6560 H   0  0  0  0  0  0  0  0  0  0  0  0
   67.1425   31.8041   50.1308 H   0  0  0  0  0  0  0  0  0  0  0  0
   66.7186   33.5497   50.1308 H   0  0  0  0  0  0  0  0  0  0  0  0
   60.4650   31.3400   51.1030 C   0  0  0  0  0  0  0  0  0  0  0  0
   60.2460   32.0880   51.8793 H   0  0  0  0  0  0  0  0  0  0  0  0
   60.3445   30.3293   51.5200 H   0  0  0  0  0  0  0  0  0  0  0  0
   59.4980   31.5240   49.9320 C   0  0  0  0  0  0  0  0  0  0  0  0
   59.4520   32.5917   49.6714 H   0  0  0  0  0  0  0  0  0  0  0  0
   58.5097   31.1520   50.2401 H   0  0  0  0  0  0  0  0  0  0  0  0
   58.8610   29.5380   46.9350 N   0  0  0  0  0  0  0  0  0  0  0  0
   58.0500   29.5390   45.8510 C   0  0  0  0  0  0  0  0  0  0  0  0
  1  2  1  0
  2  3  1  0
  3  4  1  0
  4  5  1  0
  5  6  2  0
  5  7  1  0
  7  8  1  0
  8  9  1  0
  2 10  2  0
 10 11  1  0
 11 12  1  0
 11 13  2  0
 13 14  1  0
 14 15  1  0
 15 16  2  0
 16 17  1  0
 17 18  1  0
 17 19  1  0
 19 20  1  0
 19 21  1  0
 19 22  1  0
 22 23  1  0
 22 24  1  0
 15 25  1  0
 25 26  2  0
 26 27  1  0
 27 28  1  0
 28 29  1  0
 28 30  1  0
 28 31  1  0
 31 32  1  0
 31 33  1  0
 31 34  1  0
 34 35  1  0
 35 36  2  0
 35 37  1  0
 37 38  1  1
 37 39  1  0
 39 40  1  0
 39 41  1  0
 37 42  1  0
 42 43  1  0
 42 44  1  0
 44 45  1  0
 44 46  1  0
 44 47  1  0
 42 48  1  0
 48 49  1  0
 48 50  1  0
 48 51  1  0
 34 52  1  0
 52 53  1  0
 52 54  1  0
 52 55  1  0
 55 56  1  0
 55 57  1  0
 26 58  1  0
 58 59  2  0
  8  3  2  0
 59 10  1  0
 59 14  1  0
 22 17  1  0
 55 27  1  0
M  CHG  3   4  -1   7  -1   9  -1
M  END
>  <UniqueID>  (29) 
25

>  <SMILES>  (29) 
CC(C)[C@@H](N)C(=O)N1CCN(c2n/c(=N\C3CC3)n3nc/c(=C\c4[n-]c(=O)[n-]c4[O-])c3n2)CC1

>  <Energy>  (29) 
407.2916809134362

>  <Genealogy>  (29) 
CC(C)C(N)C(=O)N1CCN(c2nc(=NC3CC3)n3ncc(=Cc4[n-]c(=O)[n-]c4[O-])c3n2)CC1 (protonated)
CC(C)[C@@H](N)C(=O)N1CCN(c2nc(=NC3CC3)n3ncc(=Cc4[n-]c(=O)[n-]c4[O-])c3n2)CC1 (chirality)
CC(C)[C@@H](N)C(=O)N1CCN(c2n/c(=N\C3CC3)n3nc/c(=C\c4[n-]c(=O)[n-]c4[O-])c3n2)CC1 (cis-trans isomerization)
CC(C)[C@@H](N)C(=O)N1CCN(c2n/c(=N\C3CC3)n3nc/c(=C\c4[n-]c(=O)[n-]c4[O-])c3n2)CC1 (3D coordinates assigned)
CC(C)[C@@H](N)C(=O)N1CCN(c2n/c(=N\C3CC3)n3nc/c(=C\c4[n-]c(=O)[n-]c4[O-])c3n2)CC1 (nonaromatic ring conformer: 407.2916809134362 kcal/mol)

>  <smiles>  (29) 
CC(C)C(N)C(=O)N1CCN(c2nc(=NC3CC3)n3ncc(=Cc4[nH]c(=O)[nH]c4O)c3n2)CC1

>  <score_type>  (29) 
oracle

>  <origin>  (29) 
adg

>  <m_score__min__energy>  (29) 
-17.510000000000002

>  <m_primary>  (29) 
energy

$$$$
29:0
     RDKit          3D

 35 38  0  0  0  0  0  0  0  0999 V2000
   52.8720   23.1860   44.5770 N   0  0  0  0  0  0  0  0  0  0  0  0
   53.9700   23.8330   44.7950 C   0  0  0  0  0  0  0  0  0  0  0  0
   54.0000   24.8180   45.7280 N   0  0  0  0  0  0  0  0  0  0  0  0
   55.1400   25.5120   45.9790 C   0  0  0  0  0  0  0  0  0  0  0  0
   56.3130   25.2120   45.2740 C   0  0  0  0  0  0  0  0  0  0  0  0
   57.5620   25.9690   45.5080 C   0  0  0  0  0  0  0  0  0  0  0  0
   57.5170   27.3740   45.5150 C   0  0  0  0  0  0  0  0  0  0  0  0
   58.6770   28.1300   45.7420 C   0  0  0  0  0  0  0  0  0  0  0  0
   58.6190   29.5680   45.7570 N   0  0  0  0  0  0  0  0  0  0  0  0
   57.5440   30.4060   45.3150 C   0  0  0  0  0  0  0  0  0  0  0  0
   56.4430   29.9820   44.8740 O   0  0  0  0  0  0  0  0  0  0  0  0
   57.8950   31.8080   45.5070 C   0  0  0  0  0  0  0  0  0  0  0  0
   57.1760   32.9700   45.2310 C   0  0  0  0  0  0  0  0  0  0  0  0
   57.7790   34.2060   45.5280 C   0  0  0  0  0  0  0  0  0  0  0  0
   59.0740   34.2520   46.0910 C   0  0  0  0  0  0  0  0  0  0  0  0
   59.7770   33.0660   46.3610 C   0  0  0  0  0  0  0  0  0  0  0  0
   59.1560   31.8540   46.0590 C   0  0  0  0  0  0  0  0  0  0  0  0
   59.6210   30.4810   46.2180 C   0  0  0  0  0  0  0  0  0  0  0  0
   60.7540   30.1390   46.6490 O   0  0  0  0  0  0  0  0  0  0  0  0
   59.8940   27.4680   45.9590 C   0  0  0  0  0  0  0  0  0  0  0  0
   59.9520   26.0730   45.9410 C   0  0  0  0  0  0  0  0  0  0  0  0
   58.7970   25.3170   45.7150 C   0  0  0  0  0  0  0  0  0  0  0  0
   58.9780   23.4080   45.6230 Br  0  0  0  0  0  0  0  0  0  0  0  0
   56.2550   24.2030   44.3050 C   0  0  0  0  0  0  0  0  0  0  0  0
   55.0930   23.5340   44.0880 N   0  0  0  0  0  0  0  0  0  0  0  0
   52.0120   23.3640   45.1440 H   0  0  0  0  0  0  0  0  0  0  0  0
   55.1425   26.3100   46.7361 H   0  0  0  0  0  0  0  0  0  0  0  0
   56.5600   27.8874   45.3402 H   0  0  0  0  0  0  0  0  0  0  0  0
   56.1676   32.9220   44.7942 H   0  0  0  0  0  0  0  0  0  0  0  0
   57.2392   35.1418   45.3207 H   0  0  0  0  0  0  0  0  0  0  0  0
   59.5354   35.2240   46.3197 H   0  0  0  0  0  0  0  0  0  0  0  0
   60.7864   33.0923   46.7973 H   0  0  0  0  0  0  0  0  0  0  0  0
   60.8082   28.0510   46.1445 H   0  0  0  0  0  0  0  0  0  0  0  0
   60.9134   25.5646   46.1058 H   0  0  0  0  0  0  0  0  0  0  0  0
   57.1513   23.9518   43.7189 H   0  0  0  0  0  0  0  0  0  0  0  0
  1  2  2  3
  2  3  1  0
  3  4  2  0
  4  5  1  0
  5  6  1  0
  6  7  2  0
  7  8  1  0
  8  9  1  0
  9 10  1  0
 10 11  2  0
 10 12  1  0
 12 13  2  0
 13 14  1  0
 14 15  2  0
 15 16  1  0
 16 17  2  0
 17 18  1  0
 18 19  2  0
  8 20  2  0
 20 21  1  0
 21 22  2  0
 22 23  1  0
  5 24  2  0
 24 25  1  0
 25  2  1  0
 22  6  1  0
 18  9  1  0
 17 12  1  0
  1 26  1  0
  4 27  1  0
  7 28  1  0
 13 29  1  0
 14 30  1  0
 15 31  1  0
 16 32  1  0
 20 33  1  0
 21 34  1  0
 24 35  1  0
M  CHG  1  25  -1
M  END
>  <UniqueID>  (30) 
26

>  <SMILES>  (30) 
N=c1ncc(-c2cc(N3C(=O)c4ccccc4C3=O)ccc2Br)c[n-]1

>  <Energy>  (30) 
85.54869452069416

>  <Genealogy>  (30) 
N=c1ncc(-c2cc(N3C(=O)c4ccccc4C3=O)ccc2Br)c[n-]1 (protonated)
N=c1ncc(-c2cc(N3C(=O)c4ccccc4C3=O)ccc2Br)c[n-]1 (3D coordinates assigned)
N=c1ncc(-c2cc(N3C(=O)c4ccccc4C3=O)ccc2Br)c[n-]1 (nonaromatic ring conformer: 85.54869452069416 kcal/mol)

>  <smiles>  (30) 
N=c1ncc(-c2cc(N3C(=O)c4ccccc4C3=O)ccc2Br)c[nH]1

>  <score_type>  (30) 
oracle

>  <origin>  (30) 
adg

>  <m_score__min__energy>  (30) 
-9.9800000000000004

>  <m_primary>  (30) 
energy

$$$$
30:0
     RDKit          3D

 43 44  0  0  0  0  0  0  0  0999 V2000
   57.1270   31.0960   52.3080 C   0  0  0  0  0  0  0  0  0  0  0  0
   57.4090   30.1610   51.2280 N   0  0  0  0  0  0  0  0  0  0  0  0
   58.5430   30.2630   50.3560 C   0  0  0  0  0  0  0  0  0  0  0  0
   59.2420   29.2370   50.1410 O   0  0  0  0  0  0  0  0  0  0  0  0
   58.8870   31.5250   49.6780 C   0  0  0  0  0  0  0  0  0  0  0  0
   59.2910   32.6250   50.4440 C   0  0  0  0  0  0  0  0  0  0  0  0
   59.6200   33.8310   49.8240 C   0  0  0  0  0  0  0  0  0  0  0  0
   59.5490   33.9480   48.4350 C   0  0  0  0  0  0  0  0  0  0  0  0
   59.1530   32.8510   47.6480 C   0  0  0  0  0  0  0  0  0  0  0  0
   59.0300   32.9720   46.2230 N   0  0  0  0  0  0  0  0  0  0  0  0
   57.8260   32.7760   45.4740 C   0  0  0  0  0  0  0  0  0  0  0  0
   57.2770   33.7680   44.9250 O   0  0  0  0  0  0  0  0  0  0  0  0
   57.2230   31.4800   45.3920 N   0  0  0  0  0  0  0  0  0  0  0  0
   57.4910   30.5350   44.3160 C   0  0  0  0  0  0  0  0  0  0  0  0
   57.5690   29.1370   44.8720 C   0  0  0  0  0  0  0  0  0  0  0  0
   58.8180   28.5670   45.1660 C   0  0  0  0  0  0  0  0  0  0  0  0
   58.8970   27.2930   45.7300 C   0  0  0  0  0  0  0  0  0  0  0  0
   57.7320   26.5760   46.0130 C   0  0  0  0  0  0  0  0  0  0  0  0
   56.4710   27.1320   45.7300 C   0  0  0  0  0  0  0  0  0  0  0  0
   55.2540   26.4250   46.0090 N   0  0  0  0  0  0  0  0  0  0  0  0
   55.0400   24.7090   45.8840 S   0  0  0  0  0  0  0  0  0  0  0  0
   55.9710   24.1090   44.4950 C   0  0  0  0  0  0  0  0  0  0  0  0
   55.5390   24.0400   47.1340 O   0  0  0  0  0  0  0  0  0  0  0  0
   53.5850   24.3920   45.6770 O   0  0  0  0  0  0  0  0  0  0  0  0
   56.3950   28.4140   45.1630 C   0  0  0  0  0  0  0  0  0  0  0  0
   55.1470   28.9720   44.8950 O   0  0  0  0  0  0  0  0  0  0  0  0
   58.7930   31.6420   48.2760 C   0  0  0  0  0  0  0  0  0  0  0  0
   58.3330   30.5550   47.5270 O   0  0  0  0  0  0  0  0  0  0  0  0
   57.2781   30.5950   53.2755 H   0  0  0  0  0  0  0  0  0  0  0  0
   57.8048   31.9590   52.2322 H   0  0  0  0  0  0  0  0  0  0  0  0
   56.0850   31.4403   52.2322 H   0  0  0  0  0  0  0  0  0  0  0  0
   59.3493   32.5382   51.5390 H   0  0  0  0  0  0  0  0  0  0  0  0
   59.9361   34.6918   50.4316 H   0  0  0  0  0  0  0  0  0  0  0  0
   59.8041   34.9032   47.9529 H   0  0  0  0  0  0  0  0  0  0  0  0
   56.6812   30.5880   43.5734 H   0  0  0  0  0  0  0  0  0  0  0  0
   58.4488   30.7900   43.8389 H   0  0  0  0  0  0  0  0  0  0  0  0
   59.7394   29.1278   44.9505 H   0  0  0  0  0  0  0  0  0  0  0  0
   59.8798   26.8519   45.9524 H   0  0  0  0  0  0  0  0  0  0  0  0
   57.8008   25.5728   46.4589 H   0  0  0  0  0  0  0  0  0  0  0  0
   56.8447   23.5459   44.8549 H   0  0  0  0  0  0  0  0  0  0  0  0
   55.3358   23.4498   43.8850 H   0  0  0  0  0  0  0  0  0  0  0  0
   56.3089   24.9597   43.8850 H   0  0  0  0  0  0  0  0  0  0  0  0
   58.0100   30.6490   46.5710 H   0  0  0  0  0  0  0  0  0  0  0  0
  1  2  1  0
  2  3  1  0
  3  4  2  0
  3  5  1  0
  5  6  2  0
  6  7  1  0
  7  8  2  0
  8  9  1  0
  9 10  1  0
 10 11  1  0
 11 12  2  0
 11 13  1  0
 13 14  1  0
 14 15  1  0
 15 16  2  0
 16 17  1  0
 17 18  2  0
 18 19  1  0
 19 20  1  0
 20 21  1  0
 21 22  1  0
 21 23  2  0
 21 24  2  0
 19 25  2  0
 25 26  1  0
  9 27  2  0
 27 28  1  0
 27  5  1  0
 25 15  1  0
  1 29  1  0
  1 30  1  0
  1 31  1  0
  6 32  1  0
  7 33  1  0
  8 34  1  0
 14 35  1  0
 14 36  1  0
 16 37  1  0
 17 38  1  0
 18 39  1  0
 22 40  1  0
 22 41  1  0
 22 42  1  0
 28 43  1  0
M  CHG  5   2  -1  10  -1  13  -1  20  -1  26  -1
M  END
>  <UniqueID>  (31) 
27

>  <SMILES>  (31) 
C[N-]C(=O)c1cccc([N-]C(=O)[N-]Cc2cccc([N-]S(C)(=O)=O)c2[O-])c1O

>  <Energy>  (31) 
48.94937684885215

>  <Genealogy>  (31) 
C[N-]C(=O)c1cccc([N-]C(=O)[N-]Cc2cccc([N-]S(C)(=O)=O)c2[O-])c1O (protonated)
C[N-]C(=O)c1cccc([N-]C(=O)[N-]Cc2cccc([N-]S(C)(=O)=O)c2[O-])c1O (3D coordinates assigned)
C[N-]C(=O)c1cccc([N-]C(=O)[N-]Cc2cccc([N-]S(C)(=O)=O)c2[O-])c1O (optimized conformer: 48.94937684885215 kcal/mol)

>  <smiles>  (31) 
CNC(=O)c1cccc(NC(=O)NCc2cccc(NS(C)(=O)=O)c2O)c1O

>  <score_type>  (31) 
oracle

>  <origin>  (31) 
adg

>  <m_score__min__energy>  (31) 
-16.300000000000001

>  <m_primary>  (31) 
energy

$$$$
31:0
     RDKit          3D

 63 66  0  0  0  0  0  0  0  0999 V2000
   64.3660   33.4600   49.5500 C   0  0  0  0  0  0  0  0  0  0  0  0
   63.5410   32.3550   49.0330 N   0  0  0  0  0  0  0  0  0  0  0  0
   62.9020   32.7580   47.7680 C   0  0  0  0  0  0  0  0  0  0  0  0
   61.8670   31.7290   47.2520 C   0  0  0  0  0  0  0  0  0  0  0  0
   61.5920   30.6010   48.1710 N   0  0  0  0  0  0  0  0  0  0  0  0
   60.8280   29.4850   47.6550 C   0  0  0  0  0  0  0  0  0  0  0  0
   60.7680   29.2050   46.2750 C   0  0  0  0  0  0  0  0  0  0  0  0
   60.0270   28.1140   45.8240 C   0  0  0  0  0  0  0  0  0  0  0  0
   59.3450   27.2990   46.7390 C   0  0  0  0  0  0  0  0  0  0  0  0
   58.5640   26.1030   46.2650 C   0  0  0  0  0  0  0  0  0  0  0  0
   57.5440   26.5060   45.3000 N   0  0  0  0  0  0  0  0  0  0  0  0
   56.2630   27.0170   45.6750 C   0  0  0  0  0  0  0  0  0  0  0  0
   55.5070   26.2980   46.3740 O   0  0  0  0  0  0  0  0  0  0  0  0
   55.8620   28.3240   45.2400 N   0  0  0  0  0  0  0  0  0  0  0  0
   56.6540   29.4790   44.9190 C   0  0  0  0  0  0  0  0  0  0  0  0
   57.4930   29.9870   45.9150 C   0  0  0  0  0  0  0  0  0  0  0  0
   58.2320   31.1500   45.6940 C   0  0  0  0  0  0  0  0  0  0  0  0
   58.1450   31.8260   44.4750 C   0  0  0  0  0  0  0  0  0  0  0  0
   58.8470   33.0660   44.3270 N   0  0  0  0  0  0  0  0  0  0  0  0
   58.8100   34.1190   45.2970 C   0  0  0  0  0  0  0  0  0  0  0  0
   58.9790   35.3110   44.9240 O   0  0  0  0  0  0  0  0  0  0  0  0
   58.6230   33.8150   46.6800 N   0  0  0  0  0  0  0  0  0  0  0  0
   59.5550   34.2240   47.7230 C   0  0  0  0  0  0  0  0  0  0  0  0
   59.3080   33.4000   48.9560 C   0  0  0  0  0  0  0  0  0  0  0  0
   59.7430   33.8630   50.2100 C   0  0  0  0  0  0  0  0  0  0  0  0
   59.5610   33.0800   51.3530 C   0  0  0  0  0  0  0  0  0  0  0  0
   58.9470   31.8270   51.2480 C   0  0  0  0  0  0  0  0  0  0  0  0
   58.5110   31.3580   50.0060 C   0  0  0  0  0  0  0  0  0  0  0  0
   58.6920   32.1410   48.8640 C   0  0  0  0  0  0  0  0  0  0  0  0
   57.3640   31.2810   43.4370 C   0  0  0  0  0  0  0  0  0  0  0  0
   57.3350   31.8480   42.1620 O   0  0  0  0  0  0  0  0  0  0  0  0
   56.6120   30.1250   43.6700 C   0  0  0  0  0  0  0  0  0  0  0  0
   59.4220   27.6070   48.1060 C   0  0  0  0  0  0  0  0  0  0  0  0
   60.1490   28.6770   48.5220 N   0  0  0  0  0  0  0  0  0  0  0  0
   61.8950   30.6660   49.6100 C   0  0  0  0  0  0  0  0  0  0  0  0
   62.5080   31.9990   50.0110 C   0  0  0  0  0  0  0  0  0  0  0  0
   64.3536   33.4434   50.6498 H   0  0  0  0  0  0  0  0  0  0  0  0
   65.4000   33.3437   49.1932 H   0  0  0  0  0  0  0  0  0  0  0  0
   63.9606   34.4183   49.1932 H   0  0  0  0  0  0  0  0  0  0  0  0
   62.3907   33.7191   47.9254 H   0  0  0  0  0  0  0  0  0  0  0  0
   63.6957   32.8311   47.0099 H   0  0  0  0  0  0  0  0  0  0  0  0
   60.9205   32.2592   47.0703 H   0  0  0  0  0  0  0  0  0  0  0  0
   62.3017   31.2858   46.3439 H   0  0  0  0  0  0  0  0  0  0  0  0
   61.3033   29.8443   45.5575 H   0  0  0  0  0  0  0  0  0  0  0  0
   59.9771   27.8918   44.7478 H   0  0  0  0  0  0  0  0  0  0  0  0
   59.2508   25.3883   45.7881 H   0  0  0  0  0  0  0  0  0  0  0  0
   58.0700   25.6360   47.1298 H   0  0  0  0  0  0  0  0  0  0  0  0
   57.5713   29.4659   46.8806 H   0  0  0  0  0  0  0  0  0  0  0  0
   58.8887   31.5376   46.4868 H   0  0  0  0  0  0  0  0  0  0  0  0
   60.5872   34.0675   47.3764 H   0  0  0  0  0  0  0  0  0  0  0  0
   59.4074   35.2893   47.9542 H   0  0  0  0  0  0  0  0  0  0  0  0
   60.2290   34.8464   50.2919 H   0  0  0  0  0  0  0  0  0  0  0  0
   59.8996   33.4477   52.3329 H   0  0  0  0  0  0  0  0  0  0  0  0
   58.8070   31.2086   52.1469 H   0  0  0  0  0  0  0  0  0  0  0  0
   58.0261   30.3737   49.9280 H   0  0  0  0  0  0  0  0  0  0  0  0
   58.3502   31.7697   47.8866 H   0  0  0  0  0  0  0  0  0  0  0  0
   57.7740   32.7340   41.9470 H   0  0  0  0  0  0  0  0  0  0  0  0
   55.9805   29.7162   42.8674 H   0  0  0  0  0  0  0  0  0  0  0  0
   58.8936   26.9820   48.8410 H   0  0  0  0  0  0  0  0  0  0  0  0
   60.9622   30.5214   50.1748 H   0  0  0  0  0  0  0  0  0  0  0  0
   62.6276   29.8771   49.8357 H   0  0  0  0  0  0  0  0  0  0  0  0
   61.7288   32.7753   50.0254 H   0  0  0  0  0  0  0  0  0  0  0  0
   62.9529   31.9202   51.0139 H   0  0  0  0  0  0  0  0  0  0  0  0
  1  2  1  0
  2  3  1  0
  3  4  1  0
  4  5  1  0
  5  6  1  0
  6  7  2  0
  7  8  1  0
  8  9  2  0
  9 10  1  0
 10 11  1  0
 11 12  1  0
 12 13  2  0
 12 14  1  0
 14 15  1  0
 15 16  2  0
 16 17  1  0
 17 18  2  0
 18 19  1  0
 19 20  1  0
 20 21  2  0
 20 22  1  0
 22 23  1  0
 23 24  1  0
 24 25  2  0
 25 26  1  0
 26 27  2  0
 27 28  1  0
 28 29  2  0
 18 30  1  0
 30 31  1  0
 30 32  2  0
  9 33  1  0
 33 34  2  0
  5 35  1  0
 35 36  1  0
 36  2  1  0
 34  6  1  0
 32 15  1  0
 29 24  1  0
  1 37  1  0
  1 38  1  0
  1 39  1  0
  3 40  1  0
  3 41  1  0
  4 42  1  0
  4 43  1  0
  7 44  1  0
  8 45  1  0
 10 46  1  0
 10 47  1  0
 16 48  1  0
 17 49  1  0
 23 50  1  0
 23 51  1  0
 25 52  1  0
 26 53  1  0
 27 54  1  0
 28 55  1  0
 29 56  1  0
 31 57  1  0
 32 58  1  0
 33 59  1  0
 35 60  1  0
 35 61  1  0
 36 62  1  0
 36 63  1  0
M  CHG  4  11  -1  14  -1  19  -1  22  -1
M  END
>  <UniqueID>  (32) 
28

>  <SMILES>  (32) 
CN1CCN(c2ccc(C[N-]C(=O)[N-]c3ccc([N-]C(=O)[N-]Cc4ccccc4)c(O)c3)cn2)CC1

>  <Energy>  (32) 
78.53898651809942

>  <Genealogy>  (32) 
CN1CCN(c2ccc(C[N-]C(=O)[N-]c3ccc([N-]C(=O)[N-]Cc4ccccc4)c(O)c3)cn2)CC1 (protonated)
CN1CCN(c2ccc(C[N-]C(=O)[N-]c3ccc([N-]C(=O)[N-]Cc4ccccc4)c(O)c3)cn2)CC1 (3D coordinates assigned)
CN1CCN(c2ccc(C[N-]C(=O)[N-]c3ccc([N-]C(=O)[N-]Cc4ccccc4)c(O)c3)cn2)CC1 (nonaromatic ring conformer: 78.53898651809942 kcal/mol)

>  <smiles>  (32) 
CN1CCN(c2ccc(CNC(=O)Nc3ccc(NC(=O)NCc4ccccc4)c(O)c3)cn2)CC1

>  <score_type>  (32) 
oracle

>  <origin>  (32) 
adg

>  <m_score__min__energy>  (32) 
-14.92

>  <m_primary>  (32) 
energy

$$$$
32:0
     RDKit          3D

 45 47  0  0  0  0  0  0  0  0999 V2000
   56.9570   34.6200   44.4990 O   0  0  0  0  0  0  0  0  0  0  0  0
   57.8620   34.0310   45.1480 C   0  0  0  0  0  0  0  0  0  0  0  0
   57.5540   32.9180   46.0060 N   0  0  0  0  0  0  0  0  0  0  0  0
   57.8170   31.6520   45.8360 C   0  0  0  0  0  0  0  0  0  0  0  0
   58.9610   31.0240   46.3680 C   0  0  0  0  0  0  0  0  0  0  0  0
   59.1610   29.6600   46.1500 C   0  0  0  0  0  0  0  0  0  0  0  0
   58.2330   28.9120   45.4110 C   0  0  0  0  0  0  0  0  0  0  0  0
   58.4410   27.4610   45.1860 C   0  0  0  0  0  0  0  0  0  0  0  0
   59.5000   26.9160   45.6020 O   0  0  0  0  0  0  0  0  0  0  0  0
   57.4770   26.6820   44.4570 N   0  0  0  0  0  0  0  0  0  0  0  0
   57.3970   25.2480   44.5220 C   0  0  0  0  0  0  0  0  0  0  0  0
   57.6260   24.5540   45.7260 C   0  0  0  0  0  0  0  0  0  0  0  0
   57.5250   23.1600   45.7680 C   0  0  0  0  0  0  0  0  0  0  0  0
   57.1800   22.4470   44.6160 C   0  0  0  0  0  0  0  0  0  0  0  0
   57.0510   20.6980   44.6710 Cl  0  0  0  0  0  0  0  0  0  0  0  0
   56.9280   23.1300   43.4220 C   0  0  0  0  0  0  0  0  0  0  0  0
   57.0290   24.5240   43.3780 C   0  0  0  0  0  0  0  0  0  0  0  0
   57.0930   29.5700   44.9230 C   0  0  0  0  0  0  0  0  0  0  0  0
   56.9180   30.8980   45.1480 N   0  0  0  0  0  0  0  0  0  0  0  0
   59.1960   34.5420   45.0910 N   0  0  0  0  0  0  0  0  0  0  0  0
   59.8130   35.3050   46.1720 C   0  0  0  0  0  0  0  0  0  0  0  0
   59.8540   34.4760   47.4580 C   0  0  0  0  0  0  0  0  0  0  0  0
   61.2100   33.8500   47.6400 C   0  0  0  0  0  0  0  0  0  0  0  0
   61.5950   33.3480   48.8950 C   0  0  0  0  0  0  0  0  0  0  0  0
   62.8690   32.8000   49.0730 C   0  0  0  0  0  0  0  0  0  0  0  0
   63.7700   32.7570   48.0040 C   0  0  0  0  0  0  0  0  0  0  0  0
   63.3980   33.2650   46.7570 C   0  0  0  0  0  0  0  0  0  0  0  0
   62.1260   33.8150   46.5740 C   0  0  0  0  0  0  0  0  0  0  0  0
   59.6911   31.6047   46.9509 H   0  0  0  0  0  0  0  0  0  0  0  0
   60.0543   29.1674   46.5614 H   0  0  0  0  0  0  0  0  0  0  0  0
   56.8840   27.1720   43.7500 H   0  0  0  0  0  0  0  0  0  0  0  0
   57.8856   25.1115   46.6380 H   0  0  0  0  0  0  0  0  0  0  0  0
   57.7173   22.6236   46.7089 H   0  0  0  0  0  0  0  0  0  0  0  0
   56.6501   22.5702   42.5168 H   0  0  0  0  0  0  0  0  0  0  0  0
   56.8183   25.0571   42.4391 H   0  0  0  0  0  0  0  0  0  0  0  0
   56.3374   29.0071   44.3554 H   0  0  0  0  0  0  0  0  0  0  0  0
   60.8392   35.5765   45.8835 H   0  0  0  0  0  0  0  0  0  0  0  0
   59.2172   36.2119   46.3523 H   0  0  0  0  0  0  0  0  0  0  0  0
   59.6390   35.1292   48.3165 H   0  0  0  0  0  0  0  0  0  0  0  0
   59.1004   33.6776   47.3900 H   0  0  0  0  0  0  0  0  0  0  0  0
   60.8918   33.3863   49.7400 H   0  0  0  0  0  0  0  0  0  0  0  0
   63.1632   32.4020   50.0554 H   0  0  0  0  0  0  0  0  0  0  0  0
   64.7710   32.3234   48.1452 H   0  0  0  0  0  0  0  0  0  0  0  0
   64.1077   33.2321   45.9172 H   0  0  0  0  0  0  0  0  0  0  0  0
   61.8407   34.2218   45.5926 H   0  0  0  0  0  0  0  0  0  0  0  0
  1  2  2  0
  2  3  1  0
  3  4  2  3
  4  5  1  0
  5  6  2  0
  6  7  1  0
  7  8  1  0
  8  9  2  0
  8 10  1  0
 10 11  1  0
 11 12  2  0
 12 13  1  0
 13 14  2  0
 14 15  1  0
 14 16  1  0
 16 17  2  0
  7 18  2  0
 18 19  1  0
  2 20  1  0
 20 21  1  0
 21 22  1  0
 22 23  1  0
 23 24  2  0
 24 25  1  0
 25 26  2  0
 26 27  1  0
 27 28  2  0
 19  4  1  0
 28 23  1  0
 17 11  1  0
  5 29  1  0
  6 30  1  0
 10 31  1  0
 12 32  1  0
 13 33  1  0
 16 34  1  0
 17 35  1  0
 18 36  1  0
 21 37  1  0
 21 38  1  0
 22 39  1  0
 22 40  1  0
 24 41  1  0
 25 42  1  0
 26 43  1  0
 27 44  1  0
 28 45  1  0
M  CHG  2  19  -1  20  -1
M  END
>  <UniqueID>  (33) 
29

>  <SMILES>  (33) 
O=C(N=c1ccc(C(=O)Nc2ccc(Cl)cc2)c[n-]1)[N-]CCc1ccccc1

>  <Energy>  (33) 
56.16048664110588

>  <Genealogy>  (33) 
O=C(N=c1ccc(C(=O)Nc2ccc(Cl)cc2)c[n-]1)[N-]CCc1ccccc1 (protonated)
O=C(N=c1ccc(C(=O)Nc2ccc(Cl)cc2)c[n-]1)[N-]CCc1ccccc1 (3D coordinates assigned)
O=C(N=c1ccc(C(=O)Nc2ccc(Cl)cc2)c[n-]1)[N-]CCc1ccccc1 (optimized conformer: 56.16048664110588 kcal/mol)

>  <smiles>  (33) 
O=C(N=c1ccc(C(=O)Nc2ccc(Cl)cc2)c[nH]1)NCCc1ccccc1

>  <score_type>  (33) 
oracle

>  <origin>  (33) 
adg

>  <m_score__min__energy>  (33) 
-10.25

>  <m_primary>  (33) 
energy

$$$$
33:0
     RDKit          3D

 32 33  0  0  0  0  0  0  0  0999 V2000
   61.3250   33.7530   47.3280 C   0  0  0  0  0  0  0  0  0  0  0  0
   59.9340   33.3680   47.5260 N   0  0  0  0  0  0  0  0  0  0  0  0
   59.4380   32.8640   48.6420 N   0  0  0  0  0  0  0  0  0  0  0  0
   58.1310   32.7080   48.4910 N   0  0  0  0  0  0  0  0  0  0  0  0
   57.7580   33.1180   47.2840 N   0  0  0  0  0  0  0  0  0  0  0  0
   58.8930   33.5370   46.6960 C   0  0  0  0  0  0  0  0  0  0  0  0
   58.9770   34.2290   45.0400 S   0  0  0  0  0  0  0  0  0  0  0  0
   57.4510   33.4190   44.4520 C   0  0  0  0  0  0  0  0  0  0  0  0
   57.6710   31.9480   44.2750 C   0  0  0  0  0  0  0  0  0  0  0  0
   57.9610   31.5000   43.1320 O   0  0  0  0  0  0  0  0  0  0  0  0
   57.5560   31.0610   45.3990 N   0  0  0  0  0  0  0  0  0  0  0  0
   58.1050   29.7340   45.4340 C   0  0  0  0  0  0  0  0  0  0  0  0
   59.4760   29.5510   45.2040 C   0  0  0  0  0  0  0  0  0  0  0  0
   60.0300   28.2680   45.2090 C   0  0  0  0  0  0  0  0  0  0  0  0
   59.2160   27.1550   45.4250 C   0  0  0  0  0  0  0  0  0  0  0  0
   57.8390   27.3180   45.6240 C   0  0  0  0  0  0  0  0  0  0  0  0
   56.8010   25.9200   45.8820 S   0  0  0  0  0  0  0  0  0  0  0  0
   55.1550   26.4350   45.9880 N   0  0  0  0  0  0  0  0  0  0  0  0
   56.9560   24.9570   44.7380 O   0  0  0  0  0  0  0  0  0  0  0  0
   57.1850   25.2200   47.1560 O   0  0  0  0  0  0  0  0  0  0  0  0
   57.2860   28.6070   45.6280 C   0  0  0  0  0  0  0  0  0  0  0  0
   61.8109   33.8875   48.3056 H   0  0  0  0  0  0  0  0  0  0  0  0
   61.8468   32.9655   46.7644 H   0  0  0  0  0  0  0  0  0  0  0  0
   61.3676   34.6967   46.7644 H   0  0  0  0  0  0  0  0  0  0  0  0
   56.6497   33.5789   45.1885 H   0  0  0  0  0  0  0  0  0  0  0  0
   57.1684   33.8550   43.4825 H   0  0  0  0  0  0  0  0  0  0  0  0
   57.0080   31.3890   46.2270 H   0  0  0  0  0  0  0  0  0  0  0  0
   60.1199   30.4233   45.0184 H   0  0  0  0  0  0  0  0  0  0  0  0
   61.1092   28.1351   45.0425 H   0  0  0  0  0  0  0  0  0  0  0  0
   59.6569   26.1473   45.4390 H   0  0  0  0  0  0  0  0  0  0  0  0
   55.1650   27.4780   46.0500 H   0  0  0  0  0  0  0  0  0  0  0  0
   56.2049   28.7374   45.7838 H   0  0  0  0  0  0  0  0  0  0  0  0
  1  2  1  0
  2  3  1  0
  3  4  2  0
  4  5  1  0
  5  6  2  0
  6  7  1  0
  7  8  1  0
  8  9  1  0
  9 10  2  0
  9 11  1  0
 11 12  1  0
 12 13  2  0
 13 14  1  0
 14 15  2  0
 15 16  1  0
 16 17  1  0
 17 18  1  0
 17 19  2  0
 17 20  2  0
 16 21  2  0
  6  2  1  0
 21 12  1  0
  1 22  1  0
  1 23  1  0
  1 24  1  0
  8 25  1  0
  8 26  1  0
 11 27  1  0
 13 28  1  0
 14 29  1  0
 15 30  1  0
 18 31  1  0
 21 32  1  0
M  CHG  1  18  -1
M  END
>  <UniqueID>  (34) 
30

>  <SMILES>  (34) 
Cn1nnnc1SCC(=O)Nc1cccc(S([NH-])(=O)=O)c1

>  <Energy>  (34) 
68.70422090064767

>  <Genealogy>  (34) 
Cn1nnnc1SCC(=O)Nc1cccc(S([NH-])(=O)=O)c1 (protonated)
Cn1nnnc1SCC(=O)Nc1cccc(S([NH-])(=O)=O)c1 (3D coordinates assigned)
Cn1nnnc1SCC(=O)Nc1cccc(S([NH-])(=O)=O)c1 (optimized conformer: 68.70422090064767 kcal/mol)

>  <smiles>  (34) 
Cn1nnnc1SCC(=O)Nc1cccc(S(N)(=O)=O)c1

>  <score_type>  (34) 
oracle

>  <origin>  (34) 
adg

>  <m_score__min__energy>  (34) 
-11.550000000000001

>  <m_primary>  (34) 
energy

$$$$
34:0
     RDKit          3D

 39 41  0  0  0  0  0  0  0  0999 V2000
   58.0270   32.3740   42.6090 C   0  0  0  0  0  0  0  0  0  0  0  0
   57.9100   32.6590   44.0540 C   0  0  0  0  0  0  0  0  0  0  0  0
   57.5200   33.9090   44.4960 C   0  0  0  0  0  0  0  0  0  0  0  0
   57.3970   34.2090   45.8540 C   0  0  0  0  0  0  0  0  0  0  0  0
   57.6830   33.1970   46.7600 C   0  0  0  0  0  0  0  0  0  0  0  0
   58.0740   31.9430   46.3430 C   0  0  0  0  0  0  0  0  0  0  0  0
   58.1830   31.6890   44.9790 C   0  0  0  0  0  0  0  0  0  0  0  0
   58.6060   30.3650   44.6260 N   0  0  0  0  0  0  0  0  0  0  0  0
   57.5680   29.3670   44.7000 C   0  0  0  0  0  0  0  0  0  0  0  0
   56.4340   29.8270   45.0700 O   0  0  0  0  0  0  0  0  0  0  0  0
   57.7910   27.9440   44.3800 C   0  0  0  0  0  0  0  0  0  0  0  0
   59.1660   27.2750   45.3410 S   0  0  0  0  0  0  0  0  0  0  0  0
   59.7700   28.4780   46.5010 C   0  0  0  0  0  0  0  0  0  0  0  0
   59.5710   28.6120   47.8170 N   0  0  0  0  0  0  0  0  0  0  0  0
   60.2120   29.6770   48.2540 N   0  0  0  0  0  0  0  0  0  0  0  0
   60.8410   30.2500   47.2150 C   0  0  0  0  0  0  0  0  0  0  0  0
   61.6690   31.4630   47.1940 C   0  0  0  0  0  0  0  0  0  0  0  0
   63.0090   31.4480   47.5600 C   0  0  0  0  0  0  0  0  0  0  0  0
   63.7460   32.6320   47.5340 C   0  0  0  0  0  0  0  0  0  0  0  0
   63.1430   33.8320   47.1420 C   0  0  0  0  0  0  0  0  0  0  0  0
   61.8050   33.8540   46.7750 C   0  0  0  0  0  0  0  0  0  0  0  0
   61.0700   32.6680   46.8020 C   0  0  0  0  0  0  0  0  0  0  0  0
   60.5630   29.5060   46.1510 N   0  0  0  0  0  0  0  0  0  0  0  0
   58.4412   31.3650   42.4667 H   0  0  0  0  0  0  0  0  0  0  0  0
   57.0326   32.4313   42.1423 H   0  0  0  0  0  0  0  0  0  0  0  0
   58.6943   33.1135   42.1423 H   0  0  0  0  0  0  0  0  0  0  0  0
   57.2997   34.6916   43.7551 H   0  0  0  0  0  0  0  0  0  0  0  0
   57.0856   35.2082   46.1927 H   0  0  0  0  0  0  0  0  0  0  0  0
   57.5954   33.4010   47.8374 H   0  0  0  0  0  0  0  0  0  0  0  0
   58.2966   31.1547   47.0772 H   0  0  0  0  0  0  0  0  0  0  0  0
   59.5710   30.1200   44.3370 H   0  0  0  0  0  0  0  0  0  0  0  0
   56.8786   27.3753   44.6127 H   0  0  0  0  0  0  0  0  0  0  0  0
   58.0350   27.8583   43.3108 H   0  0  0  0  0  0  0  0  0  0  0  0
   60.2120   29.9920   49.2340 H   0  0  0  0  0  0  0  0  0  0  0  0
   63.4868   30.5066   47.8690 H   0  0  0  0  0  0  0  0  0  0  0  0
   64.8072   32.6221   47.8233 H   0  0  0  0  0  0  0  0  0  0  0  0
   63.7315   34.7612   47.1247 H   0  0  0  0  0  0  0  0  0  0  0  0
   61.3287   34.7962   46.4661 H   0  0  0  0  0  0  0  0  0  0  0  0
   60.0089   32.6790   46.5124 H   0  0  0  0  0  0  0  0  0  0  0  0
  1  2  1  0
  2  3  2  0
  3  4  1  0
  4  5  2  0
  5  6  1  0
  6  7  2  0
  7  8  1  0
  8  9  1  0
  9 10  2  0
  9 11  1  0
 11 12  1  0
 12 13  1  0
 13 14  2  0
 14 15  1  0
 15 16  1  0
 16 17  1  0
 17 18  2  0
 18 19  1  0
 19 20  2  0
 20 21  1  0
 21 22  2  0
 16 23  2  0
  7  2  1  0
 23 13  1  0
 22 17  1  0
  1 24  1  0
  1 25  1  0
  1 26  1  0
  3 27  1  0
  4 28  1  0
  5 29  1  0
  6 30  1  0
  8 31  1  0
 11 32  1  0
 11 33  1  0
 15 34  1  0
 18 35  1  0
 19 36  1  0
 20 37  1  0
 21 38  1  0
 22 39  1  0
M  END
>  <smiles>  (35) 
Cc1ccccc1NC(=O)CSc1n[nH]c(-c2ccccc2)n1

>  <score_type>  (35) 
oracle

>  <origin>  (35) 
adg

>  <m_score__min__energy>  (35) 
-8.4100000000000001

>  <m_primary>  (35) 
energy

$$$$
35:0
     RDKit          3D

 39 41  0  0  0  0  0  0  0  0999 V2000
   56.6930   27.9890   45.6170 C   0  0  0  0  0  0  0  0  0  0  0  0
   55.8410   29.0990   45.2170 N   0  0  0  0  0  0  0  0  0  0  0  0
   56.1800   29.9930   44.1550 C   0  0  0  0  0  0  0  0  0  0  0  0
   55.6530   29.8460   43.0190 O   0  0  0  0  0  0  0  0  0  0  0  0
   57.1420   31.0920   44.3670 C   0  0  0  0  0  0  0  0  0  0  0  0
   57.7820   31.5020   45.8720 S   0  0  0  0  0  0  0  0  0  0  0  0
   58.7150   32.7530   45.2590 C   0  0  0  0  0  0  0  0  0  0  0  0
   59.5220   33.5780   46.0480 O   0  0  0  0  0  0  0  0  0  0  0  0
   60.6900   33.1710   46.7080 C   0  0  0  0  0  0  0  0  0  0  0  0
   60.6850   32.1620   47.6890 C   0  0  0  0  0  0  0  0  0  0  0  0
   61.8740   31.7930   48.3260 C   0  0  0  0  0  0  0  0  0  0  0  0
   63.0850   32.4260   47.9910 C   0  0  0  0  0  0  0  0  0  0  0  0
   64.2940   32.0920   48.6180 O   0  0  0  0  0  0  0  0  0  0  0  0
   64.8910   32.8060   49.6680 C   0  0  0  0  0  0  0  0  0  0  0  0
   64.1220   33.4270   50.6690 C   0  0  0  0  0  0  0  0  0  0  0  0
   64.7640   34.1110   51.7030 C   0  0  0  0  0  0  0  0  0  0  0  0
   66.1560   34.1650   51.7400 C   0  0  0  0  0  0  0  0  0  0  0  0
   66.8910   33.5220   50.7430 C   0  0  0  0  0  0  0  0  0  0  0  0
   66.2520   32.8580   49.7410 N   0  0  0  0  0  0  0  0  0  0  0  0
   63.0780   33.4560   47.0450 C   0  0  0  0  0  0  0  0  0  0  0  0
   61.8900   33.8250   46.4090 C   0  0  0  0  0  0  0  0  0  0  0  0
   58.5520   32.8910   43.9250 N   0  0  0  0  0  0  0  0  0  0  0  0
   57.6860   31.9720   43.4170 C   0  0  0  0  0  0  0  0  0  0  0  0
   57.3710   31.9480   41.9540 C   0  0  0  0  0  0  0  0  0  0  0  0
   56.7341   27.9355   46.7149 H   0  0  0  0  0  0  0  0  0  0  0  0
   56.2820   27.0494   45.2192 H   0  0  0  0  0  0  0  0  0  0  0  0
   57.7069   28.1431   45.2192 H   0  0  0  0  0  0  0  0  0  0  0  0
   59.7424   31.6617   47.9557 H   0  0  0  0  0  0  0  0  0  0  0  0
   61.8624   31.0042   49.0926 H   0  0  0  0  0  0  0  0  0  0  0  0
   63.0237   33.3741   50.6373 H   0  0  0  0  0  0  0  0  0  0  0  0
   64.1722   34.6063   52.4869 H   0  0  0  0  0  0  0  0  0  0  0  0
   66.6700   34.7086   52.5464 H   0  0  0  0  0  0  0  0  0  0  0  0
   67.9903   33.5518   50.7669 H   0  0  0  0  0  0  0  0  0  0  0  0
   66.8210   32.3820   49.0060 H   0  0  0  0  0  0  0  0  0  0  0  0
   64.0141   33.9791   46.8000 H   0  0  0  0  0  0  0  0  0  0  0  0
   61.8983   34.6368   45.6667 H   0  0  0  0  0  0  0  0  0  0  0  0
   56.2830   31.8651   41.8145 H   0  0  0  0  0  0  0  0  0  0  0  0
   57.7310   32.8762   41.4861 H   0  0  0  0  0  0  0  0  0  0  0  0
   57.8675   31.0851   41.4861 H   0  0  0  0  0  0  0  0  0  0  0  0
  1  2  1  0
  2  3  1  0
  3  4  2  0
  3  5  1  0
  5  6  1  0
  6  7  1  0
  7  8  1  0
  8  9  1  0
  9 10  2  0
 10 11  1  0
 11 12  2  0
 12 13  1  0
 13 14  1  0
 14 15  2  0
 15 16  1  0
 16 17  2  0
 17 18  1  0
 18 19  2  0
 12 20  1  0
 20 21  2  0
  7 22  2  0
 22 23  1  0
 23 24  1  0
 23  5  2  0
 21  9  1  0
 19 14  1  0
  1 25  1  0
  1 26  1  0
  1 27  1  0
 10 28  1  0
 11 29  1  0
 15 30  1  0
 16 31  1  0
 17 32  1  0
 18 33  1  0
 19 34  1  0
 20 35  1  0
 21 36  1  0
 24 37  1  0
 24 38  1  0
 24 39  1  0
M  CHG  2   2  -1  19   1
M  END
>  <UniqueID>  (36) 
31

>  <SMILES>  (36) 
C[N-]C(=O)c1sc(Oc2ccc(Oc3cccc[nH+]3)cc2)nc1C

>  <Energy>  (36) 
79.17914754655585

>  <Genealogy>  (36) 
C[N-]C(=O)c1sc(Oc2ccc(Oc3cccc[nH+]3)cc2)nc1C (protonated)
C[N-]C(=O)c1sc(Oc2ccc(Oc3cccc[nH+]3)cc2)nc1C (3D coordinates assigned)
C[N-]C(=O)c1sc(Oc2ccc(Oc3cccc[nH+]3)cc2)nc1C (optimized conformer: 79.17914754655585 kcal/mol)

>  <smiles>  (36) 
CNC(=O)c1sc(Oc2ccc(Oc3ccccn3)cc2)nc1C

>  <score_type>  (36) 
oracle

>  <origin>  (36) 
adg

>  <m_score__min__energy>  (36) 
-8.4600000000000009

>  <m_primary>  (36) 
energy

$$$$
36:0
     RDKit          3D

 48 51  0  0  0  0  0  0  0  0999 V2000
   64.0340   34.3440   50.8140 O   0  0  0  0  0  0  0  0  0  0  0  0
   64.3530   33.5660   49.8900 N   0  0  0  0  0  0  0  0  0  0  0  0
   65.6770   33.2170   49.7470 O   0  0  0  0  0  0  0  0  0  0  0  0
   63.3540   33.0420   48.9950 C   0  0  0  0  0  0  0  0  0  0  0  0
   63.4580   31.7370   48.4880 C   0  0  0  0  0  0  0  0  0  0  0  0
   62.4860   31.2280   47.6240 C   0  0  0  0  0  0  0  0  0  0  0  0
   61.3800   32.0160   47.2390 C   0  0  0  0  0  0  0  0  0  0  0  0
   60.3550   31.5000   46.4080 C   0  0  0  0  0  0  0  0  0  0  0  0
   60.3860   30.2160   46.1430 N   0  0  0  0  0  0  0  0  0  0  0  0
   59.3510   29.2290   46.2290 C   0  0  0  0  0  0  0  0  0  0  0  0
   59.0410   28.6260   47.4540 C   0  0  0  0  0  0  0  0  0  0  0  0
   58.0770   27.6160   47.5150 C   0  0  0  0  0  0  0  0  0  0  0  0
   57.4050   27.2080   46.3580 C   0  0  0  0  0  0  0  0  0  0  0  0
   56.4340   26.1610   46.4540 N   0  0  0  0  0  0  0  0  0  0  0  0
   56.8160   24.4620   46.4680 S   0  0  0  0  0  0  0  0  0  0  0  0
   58.3090   24.3300   46.3580 O   0  0  0  0  0  0  0  0  0  0  0  0
   56.3900   23.8610   47.7810 O   0  0  0  0  0  0  0  0  0  0  0  0
   56.0310   23.5860   45.1100 C   0  0  0  0  0  0  0  0  0  0  0  0
   54.6100   24.1040   44.8470 C   0  0  0  0  0  0  0  0  0  0  0  0
   54.0130   24.5260   46.0420 O   0  0  0  0  0  0  0  0  0  0  0  0
   57.7380   27.7940   45.1280 C   0  0  0  0  0  0  0  0  0  0  0  0
   58.7230   28.7840   45.0640 C   0  0  0  0  0  0  0  0  0  0  0  0
   59.3240   32.3880   45.9630 C   0  0  0  0  0  0  0  0  0  0  0  0
   58.4340   32.0930   44.9010 C   0  0  0  0  0  0  0  0  0  0  0  0
   57.4170   32.9800   44.5480 C   0  0  0  0  0  0  0  0  0  0  0  0
   57.2900   34.2000   45.2040 C   0  0  0  0  0  0  0  0  0  0  0  0
   58.2140   34.5620   46.1800 C   0  0  0  0  0  0  0  0  0  0  0  0
   59.2500   33.6840   46.5430 C   0  0  0  0  0  0  0  0  0  0  0  0
   60.2000   34.1030   47.4240 N   0  0  0  0  0  0  0  0  0  0  0  0
   61.2700   33.3290   47.7500 C   0  0  0  0  0  0  0  0  0  0  0  0
   62.2560   33.8320   48.6170 C   0  0  0  0  0  0  0  0  0  0  0  0
   64.3143   31.1087   48.7743 H   0  0  0  0  0  0  0  0  0  0  0  0
   62.5833   30.2020   47.2394 H   0  0  0  0  0  0  0  0  0  0  0  0
   59.5573   28.9479   48.3704 H   0  0  0  0  0  0  0  0  0  0  0  0
   57.8453   27.1390   48.4787 H   0  0  0  0  0  0  0  0  0  0  0  0
   56.6346   23.7233   44.2007 H   0  0  0  0  0  0  0  0  0  0  0  0
   55.9637   22.5221   45.3811 H   0  0  0  0  0  0  0  0  0  0  0  0
   54.6572   24.9512   44.1470 H   0  0  0  0  0  0  0  0  0  0  0  0
   54.0083   23.2899   44.4167 H   0  0  0  0  0  0  0  0  0  0  0  0
   54.7520   24.8120   46.6480 H   0  0  0  0  0  0  0  0  0  0  0  0
   57.2224   27.4736   44.2107 H   0  0  0  0  0  0  0  0  0  0  0  0
   59.0045   29.2143   44.0916 H   0  0  0  0  0  0  0  0  0  0  0  0
   58.5467   31.1499   44.3462 H   0  0  0  0  0  0  0  0  0  0  0  0
   56.7119   32.7134   43.7469 H   0  0  0  0  0  0  0  0  0  0  0  0
   56.4609   34.8775   44.9519 H   0  0  0  0  0  0  0  0  0  0  0  0
   58.1329   35.5429   46.6711 H   0  0  0  0  0  0  0  0  0  0  0  0
   60.1270   35.0640   47.8300 H   0  0  0  0  0  0  0  0  0  0  0  0
   62.1663   34.8576   49.0043 H   0  0  0  0  0  0  0  0  0  0  0  0
  1  2  2  0
  2  3  1  0
  2  4  1  0
  4  5  2  0
  5  6  1  0
  6  7  2  0
  7  8  1  0
  8  9  2  3
  9 10  1  0
 10 11  2  0
 11 12  1  0
 12 13  2  0
 13 14  1  0
 14 15  1  0
 15 16  2  0
 15 17  2  0
 15 18  1  0
 18 19  1  0
 19 20  1  0
 13 21  1  0
 21 22  2  0
  8 23  1  0
 23 24  2  0
 24 25  1  0
 25 26  2  0
 26 27  1  0
 27 28  2  0
 28 29  1  0
 29 30  1  0
 30 31  2  0
 31  4  1  0
 30  7  1  0
 22 10  1  0
 28 23  1  0
  5 32  1  0
  6 33  1  0
 11 34  1  0
 12 35  1  0
 18 36  1  0
 18 37  1  0
 19 38  1  0
 19 39  1  0
 20 40  1  0
 21 41  1  0
 22 42  1  0
 24 43  1  0
 25 44  1  0
 26 45  1  0
 27 46  1  0
 29 47  1  0
 31 48  1  0
M  CHG  3   2   1   3  -1  14  -1
M  END
>  <UniqueID>  (37) 
32

>  <SMILES>  (37) 
O=[N+]([O-])c1ccc2c(=Nc3ccc([N-]S(=O)(=O)CCO)cc3)c3ccccc3[nH]c2c1

>  <Energy>  (37) 
84.67358597658875

>  <Genealogy>  (37) 
O=[N+]([O-])c1ccc2c(=Nc3ccc([N-]S(=O)(=O)CCO)cc3)c3ccccc3[nH]c2c1 (protonated)
O=[N+]([O-])c1ccc2c(=Nc3ccc([N-]S(=O)(=O)CCO)cc3)c3ccccc3[nH]c2c1 (3D coordinates assigned)
O=[N+]([O-])c1ccc2c(=Nc3ccc([N-]S(=O)(=O)CCO)cc3)c3ccccc3[nH]c2c1 (optimized conformer: 84.67358597658875 kcal/mol)

>  <smiles>  (37) 
O=[N+]([O-])c1ccc2c(=Nc3ccc(NS(=O)(=O)CCO)cc3)c3ccccc3[nH]c2c1

>  <score_type>  (37) 
oracle

>  <origin>  (37) 
adg

>  <m_score__min__energy>  (37) 
-10.98

>  <m_primary>  (37) 
energy

$$$$
37:0
     RDKit          3D

 47 49  0  0  0  0  0  0  0  0999 V2000
   59.1210   32.1710   49.9160 C   0  0  0  0  0  0  0  0  0  0  0  0
   58.1470   32.3570   48.7550 C   0  0  0  0  0  0  0  0  0  0  0  0
   58.8420   32.2830   47.4570 N   0  0  0  0  0  0  0  0  0  0  0  0
   58.7510   33.4290   46.5330 C   0  0  0  0  0  0  0  0  0  0  0  0
   59.6030   34.6140   47.0060 C   0  0  0  0  0  0  0  0  0  0  0  0
   61.0000   34.1980   47.3870 C   0  0  0  0  0  0  0  0  0  0  0  0
   61.3980   34.2100   48.7340 C   0  0  0  0  0  0  0  0  0  0  0  0
   62.7050   33.8600   49.0860 C   0  0  0  0  0  0  0  0  0  0  0  0
   63.6220   33.4920   48.0990 C   0  0  0  0  0  0  0  0  0  0  0  0
   63.2330   33.4710   46.7560 C   0  0  0  0  0  0  0  0  0  0  0  0
   61.9290   33.8270   46.3990 C   0  0  0  0  0  0  0  0  0  0  0  0
   59.5010   31.0660   47.0250 C   0  0  0  0  0  0  0  0  0  0  0  0
   60.2340   30.4330   47.8350 O   0  0  0  0  0  0  0  0  0  0  0  0
   59.4050   30.5670   45.6020 C   0  0  0  0  0  0  0  0  0  0  0  0
   58.1410   29.8440   45.3740 N   0  0  0  0  0  0  0  0  0  0  0  0
   57.0120   30.5390   44.8010 C   0  0  0  0  0  0  0  0  0  0  0  0
   57.0710   31.7740   44.5580 O   0  0  0  0  0  0  0  0  0  0  0  0
   55.7780   29.7810   44.4100 C   0  0  0  0  0  0  0  0  0  0  0  0
   55.6300   28.5970   45.1900 O   0  0  0  0  0  0  0  0  0  0  0  0
   56.7260   27.8430   45.6140 C   0  0  0  0  0  0  0  0  0  0  0  0
   56.5420   26.5060   45.9810 C   0  0  0  0  0  0  0  0  0  0  0  0
   57.6330   25.7320   46.3820 C   0  0  0  0  0  0  0  0  0  0  0  0
   58.9110   26.2950   46.4190 C   0  0  0  0  0  0  0  0  0  0  0  0
   59.1000   27.6360   46.0700 C   0  0  0  0  0  0  0  0  0  0  0  0
   58.0030   28.4340   45.6800 C   0  0  0  0  0  0  0  0  0  0  0  0
   58.5803   32.2743   50.8684 H   0  0  0  0  0  0  0  0  0  0  0  0
   59.5737   31.1702   49.8580 H   0  0  0  0  0  0  0  0  0  0  0  0
   59.9107   32.9346   49.8580 H   0  0  0  0  0  0  0  0  0  0  0  0
   57.3828   31.5670   48.7981 H   0  0  0  0  0  0  0  0  0  0  0  0
   57.6841   33.3508   48.8453 H   0  0  0  0  0  0  0  0  0  0  0  0
   59.1013   33.1133   45.5392 H   0  0  0  0  0  0  0  0  0  0  0  0
   57.7014   33.7562   46.4978 H   0  0  0  0  0  0  0  0  0  0  0  0
   59.6632   35.3530   46.1934 H   0  0  0  0  0  0  0  0  0  0  0  0
   59.1226   35.0381   47.9001 H   0  0  0  0  0  0  0  0  0  0  0  0
   60.6783   34.4960   49.5152 H   0  0  0  0  0  0  0  0  0  0  0  0
   63.0116   33.8745   50.1423 H   0  0  0  0  0  0  0  0  0  0  0  0
   64.6503   33.2187   48.3781 H   0  0  0  0  0  0  0  0  0  0  0  0
   63.9536   33.1741   45.9797 H   0  0  0  0  0  0  0  0  0  0  0  0
   61.6286   33.8168   45.3409 H   0  0  0  0  0  0  0  0  0  0  0  0
   59.4556   31.4259   44.9166 H   0  0  0  0  0  0  0  0  0  0  0  0
   60.2399   29.8745   45.4190 H   0  0  0  0  0  0  0  0  0  0  0  0
   54.8986   30.4238   44.5635 H   0  0  0  0  0  0  0  0  0  0  0  0
   55.8680   29.4918   43.3525 H   0  0  0  0  0  0  0  0  0  0  0  0
   55.5355   26.0631   45.9537 H   0  0  0  0  0  0  0  0  0  0  0  0
   57.4862   24.6801   46.6684 H   0  0  0  0  0  0  0  0  0  0  0  0
   59.7716   25.6814   46.7237 H   0  0  0  0  0  0  0  0  0  0  0  0
   60.1097   28.0715   46.0996 H   0  0  0  0  0  0  0  0  0  0  0  0
  1  2  1  0
  2  3  1  0
  3  4  1  0
  4  5  1  0
  5  6  1  0
  6  7  2  0
  7  8  1  0
  8  9  2  0
  9 10  1  0
 10 11  2  0
  3 12  1  0
 12 13  2  0
 12 14  1  0
 14 15  1  0
 15 16  1  0
 16 17  2  0
 16 18  1  0
 18 19  1  0
 19 20  1  0
 20 21  2  0
 21 22  1  0
 22 23  2  0
 23 24  1  0
 24 25  2  0
 11  6  1  0
 25 15  1  0
 25 20  1  0
  1 26  1  0
  1 27  1  0
  1 28  1  0
  2 29  1  0
  2 30  1  0
  4 31  1  0
  4 32  1  0
  5 33  1  0
  5 34  1  0
  7 35  1  0
  8 36  1  0
  9 37  1  0
 10 38  1  0
 11 39  1  0
 14 40  1  0
 14 41  1  0
 18 42  1  0
 18 43  1  0
 21 44  1  0
 22 45  1  0
 23 46  1  0
 24 47  1  0
M  END
>  <UniqueID>  (38) 
33

>  <SMILES>  (38) 
CCN(CCc1ccccc1)C(=O)CN1C(=O)COc2ccccc21

>  <Energy>  (38) 
45.41407005437622

>  <Genealogy>  (38) 
CCN(CCc1ccccc1)C(=O)CN1C(=O)COc2ccccc21 (3D coordinates assigned)
CCN(CCc1ccccc1)C(=O)CN1C(=O)COc2ccccc21 (nonaromatic ring conformer: 45.41407005437622 kcal/mol)

>  <smiles>  (38) 
CCN(CCc1ccccc1)C(=O)CN1C(=O)COc2ccccc21

>  <score_type>  (38) 
oracle

>  <origin>  (38) 
adg

>  <m_score__min__energy>  (38) 
-7.6799999999999997

>  <m_primary>  (38) 
energy

$$$$
38:0
     RDKit          3D

 39 42  0  0  1  0  0  0  0  0999 V2000
   56.6540   31.2330   44.8660 O   0  0  0  0  0  0  0  0  0  0  0  0
   57.7210   30.6190   45.0830 C   0  0  0  0  0  0  0  0  0  0  0  0
   58.8820   31.2230   45.6250 N   0  0  0  0  0  0  0  0  0  0  0  0
   59.0080   32.5760   45.9940 C   0  0  0  0  0  0  0  0  0  0  0  0
   59.0370   33.6470   45.1460 C   0  0  0  0  0  0  0  0  0  0  0  0
   59.1730   34.9660   45.5890 C   0  0  0  0  0  0  0  0  0  0  0  0
   59.2830   35.2110   46.9220 C   0  0  0  0  0  0  0  0  0  0  0  0
   59.2580   34.1550   47.7920 C   0  0  0  0  0  0  0  0  0  0  0  0
   59.1230   32.8490   47.3490 C   0  0  0  0  0  0  0  0  0  0  0  0
   57.7050   29.1800   44.7360 C   0  0  0  0  0  0  0  0  0  0  0  0
   57.5590   28.1590   45.6380 C   0  0  0  0  0  0  0  0  0  0  0  0
   57.6030   26.9690   44.9180 C   0  0  0  0  0  0  0  0  0  0  0  0
   57.4920   25.8110   45.4870 N   0  0  0  0  0  0  0  0  0  0  0  0
   56.2100   25.1510   45.4860 C   0  0  0  0  0  0  0  0  0  0  0  0
   55.1940   25.6610   46.0200 O   0  0  0  0  0  0  0  0  0  0  0  0
   56.1850   23.8450   44.8150 C   0  0  0  0  0  0  0  0  0  0  0  0
   55.7890   23.7030   43.4940 C   0  0  0  0  0  0  0  0  0  0  0  0
   55.8980   22.3870   43.2450 N   0  0  0  0  0  0  0  0  0  0  0  0
   56.3250   21.7400   44.3070 N   0  0  0  0  0  0  0  0  0  0  0  0
   56.5790   20.4340   44.5150 C   0  0  0  0  0  0  0  0  0  0  0  0
   57.0320   19.9700   45.7410 C   0  0  0  0  0  0  0  0  0  0  0  0
   57.2230   20.8990   46.7710 C   0  0  0  0  0  0  0  0  0  0  0  0
   56.9610   22.2160   46.5410 N   0  0  0  0  0  0  0  0  0  0  0  0
   56.5210   22.6120   45.3250 C   0  0  0  0  0  0  0  0  0  0  0  0
   57.7700   27.2840   43.6370 N   0  0  0  0  0  0  0  0  0  0  0  0
   57.8320   28.6190   43.5300 N   0  0  0  0  0  0  0  0  0  0  0  0
   59.7090   30.5650   45.7460 H   0  0  0  0  0  0  0  0  0  0  0  0
   58.9493   33.4629   44.0651 H   0  0  0  0  0  0  0  0  0  0  0  0
   59.1908   35.7961   44.8675 H   0  0  0  0  0  0  0  0  0  0  0  0
   59.3902   36.2404   47.2946 H   0  0  0  0  0  0  0  0  0  0  0  0
   59.3474   34.3480   48.8712 H   0  0  0  0  0  0  0  0  0  0  0  0
   59.1069   32.0239   48.0763 H   0  0  0  0  0  0  0  0  0  0  0  0
   57.4312   28.2608   46.7258 H   0  0  0  0  0  0  0  0  0  0  0  0
   55.4588   24.4925   42.8029 H   0  0  0  0  0  0  0  0  0  0  0  0
   56.4236   19.7188   43.6938 H   0  0  0  0  0  0  0  0  0  0  0  0
   57.2358   18.9008   45.8999 H   0  0  0  0  0  0  0  0  0  0  0  0
   57.5814   20.5684   47.7571 H   0  0  0  0  0  0  0  0  0  0  0  0
   57.8400   26.5840   42.8570 H   0  0  0  0  0  0  0  0  0  0  0  0
   57.9630   29.1390   42.6200 H   0  0  0  0  0  0  0  0  0  0  0  0
  1  2  2  0
  2  3  1  0
  3  4  1  0
  4  5  2  0
  5  6  1  0
  6  7  2  0
  7  8  1  0
  8  9  2  0
  2 10  1  0
 10 11  2  0
 11 12  1  0
 12 13  2  0
 13 14  1  0
 14 15  2  0
 14 16  1  0
 16 17  1  0
 17 18  2  0
 18 19  1  0
 19 20  1  0
 20 21  2  0
 21 22  1  0
 22 23  2  0
 23 24  1  0
 12 25  1  0
 25 26  1  0
  9  4  1  0
 26 10  1  0
 24 16  2  0
 24 19  1  0
  3 27  1  0
  5 28  1  0
  6 29  1  0
  7 30  1  0
  8 31  1  0
  9 32  1  0
 11 33  1  0
 17 34  1  0
 20 35  1  0
 21 36  1  0
 22 37  1  0
 25 38  1  0
 26 39  1  0
M  END
>  <smiles>  (39) 
O=C(Nc1ccccc1)c1cc(=NC(=O)c2cnn3cccnc23)[nH][nH]1

>  <score_type>  (39) 
oracle

>  <origin>  (39) 
adg

>  <m_score__min__energy>  (39) 
-8.6699999999999999

>  <m_primary>  (39) 
energy

$$$$
39:0
     RDKit          3D

 46 49  0  0  0  0  0  0  0  0999 V2000
   56.7870   21.7230   46.7640 C   0  0  0  0  0  0  0  0  0  0  0  0
   55.6310   22.5750   46.3320 C   0  0  0  0  0  0  0  0  0  0  0  0
   54.4450   21.9700   46.0250 N   0  0  0  0  0  0  0  0  0  0  0  0
   53.4020   22.7300   45.6240 C   0  0  0  0  0  0  0  0  0  0  0  0
   52.1780   22.2780   45.3030 N   0  0  0  0  0  0  0  0  0  0  0  0
   51.5480   23.4420   44.9890 C   0  0  0  0  0  0  0  0  0  0  0  0
   52.3440   24.5330   45.1140 N   0  0  0  0  0  0  0  0  0  0  0  0
   53.5050   24.0520   45.5150 N   0  0  0  0  0  0  0  0  0  0  0  0
   54.6430   24.7310   45.7920 C   0  0  0  0  0  0  0  0  0  0  0  0
   54.6770   25.9810   45.6490 O   0  0  0  0  0  0  0  0  0  0  0  0
   55.7680   23.9870   46.2290 C   0  0  0  0  0  0  0  0  0  0  0  0
   57.0360   24.5840   46.5590 N   0  0  0  0  0  0  0  0  0  0  0  0
   58.3450   24.9610   45.4860 S   0  0  0  0  0  0  0  0  0  0  0  0
   58.0220   24.4510   44.1090 O   0  0  0  0  0  0  0  0  0  0  0  0
   59.6190   24.3370   45.9820 O   0  0  0  0  0  0  0  0  0  0  0  0
   58.5440   26.7080   45.4270 C   0  0  0  0  0  0  0  0  0  0  0  0
   59.8090   27.2740   45.6310 C   0  0  0  0  0  0  0  0  0  0  0  0
   59.9710   28.6610   45.6020 C   0  0  0  0  0  0  0  0  0  0  0  0
   58.8730   29.4910   45.3590 C   0  0  0  0  0  0  0  0  0  0  0  0
   57.6020   28.9370   45.1230 C   0  0  0  0  0  0  0  0  0  0  0  0
   56.4300   29.8070   44.8640 C   0  0  0  0  0  0  0  0  0  0  0  0
   55.2730   29.3730   45.1120 O   0  0  0  0  0  0  0  0  0  0  0  0
   56.5670   31.1550   44.3900 N   0  0  0  0  0  0  0  0  0  0  0  0
   57.4510   32.1560   44.9140 C   0  0  0  0  0  0  0  0  0  0  0  0
   58.0790   33.0340   44.0230 C   0  0  0  0  0  0  0  0  0  0  0  0
   58.9420   34.0210   44.4980 C   0  0  0  0  0  0  0  0  0  0  0  0
   59.1980   34.1310   45.8670 C   0  0  0  0  0  0  0  0  0  0  0  0
   58.5960   33.2450   46.7780 C   0  0  0  0  0  0  0  0  0  0  0  0
   58.8710   33.3590   48.2300 C   0  0  0  0  0  0  0  0  0  0  0  0
   59.6260   34.4560   48.7420 N   0  0  0  0  0  0  0  0  0  0  0  0
   58.4430   32.4840   49.0300 O   0  0  0  0  0  0  0  0  0  0  0  0
   57.7290   32.2500   46.2900 C   0  0  0  0  0  0  0  0  0  0  0  0
   57.4460   27.5410   45.1700 C   0  0  0  0  0  0  0  0  0  0  0  0
   56.8291   21.6919   47.8628 H   0  0  0  0  0  0  0  0  0  0  0  0
   56.6570   20.7031   46.3731 H   0  0  0  0  0  0  0  0  0  0  0  0
   57.7228   22.1490   46.3731 H   0  0  0  0  0  0  0  0  0  0  0  0
   50.4978   23.4933   44.6659 H   0  0  0  0  0  0  0  0  0  0  0  0
   60.6774   26.6242   45.8146 H   0  0  0  0  0  0  0  0  0  0  0  0
   60.9649   29.1011   45.7708 H   0  0  0  0  0  0  0  0  0  0  0  0
   59.0036   30.5832   45.3523 H   0  0  0  0  0  0  0  0  0  0  0  0
   57.8909   32.9450   42.9429 H   0  0  0  0  0  0  0  0  0  0  0  0
   59.4226   34.7150   43.7927 H   0  0  0  0  0  0  0  0  0  0  0  0
   59.8751   34.9160   46.2348 H   0  0  0  0  0  0  0  0  0  0  0  0
   59.1640   35.3600   48.9880 H   0  0  0  0  0  0  0  0  0  0  0  0
   57.2647   31.5398   46.9901 H   0  0  0  0  0  0  0  0  0  0  0  0
   56.4531   27.0978   45.0036 H   0  0  0  0  0  0  0  0  0  0  0  0
  1  2  1  0
  2  3  1  0
  3  4  1  0
  4  5  2  0
  5  6  1  0
  6  7  2  0
  7  8  1  0
  8  9  1  0
  9 10  2  0
  9 11  1  0
 11 12  1  0
 12 13  1  0
 13 14  2  0
 13 15  2  0
 13 16  1  0
 16 17  2  0
 17 18  1  0
 18 19  2  0
 19 20  1  0
 20 21  1  0
 21 22  2  0
 21 23  1  0
 23 24  1  0
 24 25  2  0
 25 26  1  0
 26 27  2  0
 27 28  1  0
 28 29  1  0
 29 30  1  0
 29 31  2  0
 28 32  2  0
 20 33  2  0
 11  2  2  0
 33 16  1  0
  8  4  1  0
 32 24  1  0
  1 34  1  0
  1 35  1  0
  1 36  1  0
  6 37  1  0
 17 38  1  0
 18 39  1  0
 19 40  1  0
 25 41  1  0
 26 42  1  0
 27 43  1  0
 30 44  1  0
 32 45  1  0
 33 46  1  0
M  CHG  4   3  -1  12  -1  23  -1  30  -1
M  END
>  <UniqueID>  (40) 
34

>  <SMILES>  (40) 
Cc1[n-]c2ncnn2c(=O)c1[N-]S(=O)(=O)c1cccc(C(=O)[N-]c2cccc(C([NH-])=O)c2)c1

>  <Energy>  (40) 
104.35000683149863

>  <Genealogy>  (40) 
Cc1[n-]c2ncnn2c(=O)c1[N-]S(=O)(=O)c1cccc(C(=O)[N-]c2cccc(C([NH-])=O)c2)c1 (protonated)
Cc1[n-]c2ncnn2c(=O)c1[N-]S(=O)(=O)c1cccc(C(=O)[N-]c2cccc(C([NH-])=O)c2)c1 (3D coordinates assigned)
Cc1[n-]c2ncnn2c(=O)c1[N-]S(=O)(=O)c1cccc(C(=O)[N-]c2cccc(C([NH-])=O)c2)c1 (optimized conformer: 104.35000683149863 kcal/mol)

>  <smiles>  (40) 
Cc1[nH]c2ncnn2c(=O)c1NS(=O)(=O)c1cccc(C(=O)Nc2cccc(C(N)=O)c2)c1

>  <score_type>  (40) 
oracle

>  <origin>  (40) 
adg

>  <m_score__min__energy>  (40) 
-16.91

>  <m_primary>  (40) 
energy

$$$$
40:0
     RDKit          3D

 28 30  0  0  0  0  0  0  0  0999 V2000
   54.3090   24.6120   46.1970 O   0  0  0  0  0  0  0  0  0  0  0  0
   55.2990   25.3590   45.9780 C   0  0  0  0  0  0  0  0  0  0  0  0
   56.5370   24.8670   45.7220 N   0  0  0  0  0  0  0  0  0  0  0  0
   57.2540   25.9880   45.5580 C   0  0  0  0  0  0  0  0  0  0  0  0
   58.6110   26.0950   45.2700 C   0  0  0  0  0  0  0  0  0  0  0  0
   59.1540   27.3870   45.1400 C   0  0  0  0  0  0  0  0  0  0  0  0
   58.3310   28.5370   45.3000 C   0  0  0  0  0  0  0  0  0  0  0  0
   58.8510   29.8670   45.1740 N   0  0  0  0  0  0  0  0  0  0  0  0
   57.9810   31.2240   44.5340 S   0  0  0  0  0  0  0  0  0  0  0  0
   58.1650   31.2680   43.0420 O   0  0  0  0  0  0  0  0  0  0  0  0
   56.5240   31.0800   44.8740 O   0  0  0  0  0  0  0  0  0  0  0  0
   58.5910   32.7270   45.2350 C   0  0  0  0  0  0  0  0  0  0  0  0
   58.6820   33.8790   44.4350 C   0  0  0  0  0  0  0  0  0  0  0  0
   59.1630   35.0760   44.9700 C   0  0  0  0  0  0  0  0  0  0  0  0
   59.5550   35.1390   46.3070 C   0  0  0  0  0  0  0  0  0  0  0  0
   59.4710   34.0010   47.1130 C   0  0  0  0  0  0  0  0  0  0  0  0
   58.9910   32.7950   46.5880 C   0  0  0  0  0  0  0  0  0  0  0  0
   58.9050   31.2790   47.7630 Br  0  0  0  0  0  0  0  0  0  0  0  0
   56.9600   28.3780   45.5920 C   0  0  0  0  0  0  0  0  0  0  0  0
   56.4620   27.0840   45.7130 C   0  0  0  0  0  0  0  0  0  0  0  0
   55.2010   26.7130   45.9830 N   0  0  0  0  0  0  0  0  0  0  0  0
   59.2385   25.1998   45.1480 H   0  0  0  0  0  0  0  0  0  0  0  0
   60.2234   27.5089   44.9128 H   0  0  0  0  0  0  0  0  0  0  0  0
   58.3723   33.8375   43.3803 H   0  0  0  0  0  0  0  0  0  0  0  0
   59.2329   35.9716   44.3352 H   0  0  0  0  0  0  0  0  0  0  0  0
   59.9301   36.0841   46.7266 H   0  0  0  0  0  0  0  0  0  0  0  0
   59.7838   34.0527   48.1663 H   0  0  0  0  0  0  0  0  0  0  0  0
   56.3037   29.2514   45.7203 H   0  0  0  0  0  0  0  0  0  0  0  0
  1  2  2  0
  2  3  1  0
  3  4  1  0
  4  5  2  0
  5  6  1  0
  6  7  2  0
  7  8  1  0
  8  9  1  0
  9 10  2  0
  9 11  2  0
  9 12  1  0
 12 13  2  0
 13 14  1  0
 14 15  2  0
 15 16  1  0
 16 17  2  0
 17 18  1  0
  7 19  1  0
 19 20  2  0
 20 21  1  0
 21  2  1  0
 20  4  1  0
 17 12  1  0
  5 22  1  0
  6 23  1  0
 13 24  1  0
 14 25  1  0
 15 26  1  0
 16 27  1  0
 19 28  1  0
M  CHG  3   3  -1   8  -1  21  -1
M  END
>  <UniqueID>  (41) 
35

>  <SMILES>  (41) 
O=c1[n-]c2ccc([N-]S(=O)(=O)c3ccccc3Br)cc2[n-]1

>  <Energy>  (41) 
72.12029976720365

>  <Genealogy>  (41) 
O=c1[n-]c2ccc([N-]S(=O)(=O)c3ccccc3Br)cc2[n-]1 (protonated)
O=c1[n-]c2ccc([N-]S(=O)(=O)c3ccccc3Br)cc2[n-]1 (3D coordinates assigned)
O=c1[n-]c2ccc([N-]S(=O)(=O)c3ccccc3Br)cc2[n-]1 (optimized conformer: 72.12029976720365 kcal/mol)

>  <smiles>  (41) 
O=c1[nH]c2ccc(NS(=O)(=O)c3ccccc3Br)cc2[nH]1

>  <score_type>  (41) 
oracle

>  <origin>  (41) 
adg

>  <m_score__min__energy>  (41) 
-13.07

>  <m_primary>  (41) 
energy

$$$$
41:0
     RDKit          3D

 49 52  0  0  0  0  0  0  0  0999 V2000
   59.3670   22.5360   44.8350 C   0  0  0  0  0  0  0  0  0  0  0  0
   57.9860   23.1120   44.7460 C   0  0  0  0  0  0  0  0  0  0  0  0
   56.9460   22.3920   44.1180 C   0  0  0  0  0  0  0  0  0  0  0  0
   55.6430   22.9310   44.0410 C   0  0  0  0  0  0  0  0  0  0  0  0
   55.3590   24.1960   44.5860 C   0  0  0  0  0  0  0  0  0  0  0  0
   56.4040   24.8860   45.1920 C   0  0  0  0  0  0  0  0  0  0  0  0
   56.4530   26.1110   45.8070 C   0  0  0  0  0  0  0  0  0  0  0  0
   55.3990   27.0000   45.9760 O   0  0  0  0  0  0  0  0  0  0  0  0
   57.7690   26.2780   46.2190 C   0  0  0  0  0  0  0  0  0  0  0  0
   58.3160   27.4310   46.9470 C   0  0  0  0  0  0  0  0  0  0  0  0
   57.7840   27.8010   48.0280 O   0  0  0  0  0  0  0  0  0  0  0  0
   59.4670   28.1300   46.4510 N   0  0  0  0  0  0  0  0  0  0  0  0
   59.6360   28.2720   44.9980 C   0  0  0  0  0  0  0  0  0  0  0  0
   58.5400   29.1200   44.4090 C   0  0  0  0  0  0  0  0  0  0  0  0
   58.4040   30.4650   44.7950 C   0  0  0  0  0  0  0  0  0  0  0  0
   57.3900   31.2580   44.2470 C   0  0  0  0  0  0  0  0  0  0  0  0
   56.5080   30.7160   43.3100 C   0  0  0  0  0  0  0  0  0  0  0  0
   56.6300   29.3780   42.9260 C   0  0  0  0  0  0  0  0  0  0  0  0
   57.6400   28.5790   43.4720 C   0  0  0  0  0  0  0  0  0  0  0  0
   57.7460   27.2850   43.0780 F   0  0  0  0  0  0  0  0  0  0  0  0
   60.2860   28.8840   47.3680 C   0  0  0  0  0  0  0  0  0  0  0  0
   60.7760   29.9880   47.0070 O   0  0  0  0  0  0  0  0  0  0  0  0
   60.5970   28.3620   48.7150 C   0  0  0  0  0  0  0  0  0  0  0  0
   60.5330   26.7630   49.1760 S   0  0  0  0  0  0  0  0  0  0  0  0
   61.1350   26.8580   50.7170 N   0  0  0  0  0  0  0  0  0  0  0  0
   61.4160   28.1730   50.9200 C   0  0  0  0  0  0  0  0  0  0  0  0
   61.9240   28.6210   52.2360 C   0  0  0  0  0  0  0  0  0  0  0  0
   62.0690   27.6880   53.3090 N   0  0  0  0  0  0  0  0  0  0  0  0
   62.1940   29.8340   52.4410 O   0  0  0  0  0  0  0  0  0  0  0  0
   61.1420   29.0330   49.8140 C   0  0  0  0  0  0  0  0  0  0  0  0
   61.4090   30.4410   49.8100 N   0  0  0  0  0  0  0  0  0  0  0  0
   58.4770   25.2140   45.8810 O   0  0  0  0  0  0  0  0  0  0  0  0
   57.6740   24.3720   45.2680 C   0  0  0  0  0  0  0  0  0  0  0  0
   59.6480   22.4188   45.8920 H   0  0  0  0  0  0  0  0  0  0  0  0
   59.3875   21.5543   44.3391 H   0  0  0  0  0  0  0  0  0  0  0  0
   60.0790   23.2122   44.3391 H   0  0  0  0  0  0  0  0  0  0  0  0
   57.1528   21.4022   43.6848 H   0  0  0  0  0  0  0  0  0  0  0  0
   54.8433   22.3565   43.5506 H   0  0  0  0  0  0  0  0  0  0  0  0
   54.3471   24.6244   44.5349 H   0  0  0  0  0  0  0  0  0  0  0  0
   60.6073   28.7459   44.7932 H   0  0  0  0  0  0  0  0  0  0  0  0
   59.5913   27.2728   44.5401 H   0  0  0  0  0  0  0  0  0  0  0  0
   59.0982   30.8960   45.5314 H   0  0  0  0  0  0  0  0  0  0  0  0
   57.2875   32.3092   44.5545 H   0  0  0  0  0  0  0  0  0  0  0  0
   55.7164   31.3429   42.8737 H   0  0  0  0  0  0  0  0  0  0  0  0
   55.9299   28.9519   42.1923 H   0  0  0  0  0  0  0  0  0  0  0  0
   61.8650   26.6720   53.1740 H   0  0  0  0  0  0  0  0  0  0  0  0
   62.4020   28.0110   54.2430 H   0  0  0  0  0  0  0  0  0  0  0  0
   61.3520   31.0060   48.9360 H   0  0  0  0  0  0  0  0  0  0  0  0
   61.6250   30.9510   50.6930 H   0  0  0  0  0  0  0  0  0  0  0  0
  1  2  1  0
  2  3  2  0
  3  4  1  0
  4  5  2  0
  5  6  1  0
  6  7  1  0
  7  8  1  0
  7  9  2  0
  9 10  1  0
 10 11  2  0
 10 12  1  0
 12 13  1  0
 13 14  1  0
 14 15  2  0
 15 16  1  0
 16 17  2  0
 17 18  1  0
 18 19  2  0
 19 20  1  0
 12 21  1  0
 21 22  2  0
 21 23  1  0
 23 24  1  0
 24 25  1  0
 25 26  2  0
 26 27  1  0
 27 28  1  0
 27 29  2  0
 26 30  1  0
 30 31  1  0
  9 32  1  0
 32 33  1  0
 33  2  1  0
 33  6  2  0
 19 14  1  0
 30 23  2  0
  1 34  1  0
  1 35  1  0
  1 36  1  0
  3 37  1  0
  4 38  1  0
  5 39  1  0
 13 40  1  0
 13 41  1  0
 15 42  1  0
 16 43  1  0
 17 44  1  0
 18 45  1  0
 28 46  1  0
 28 47  1  0
 31 48  1  0
 31 49  1  0
M  CHG  1   8  -1
M  END
>  <UniqueID>  (42) 
36

>  <SMILES>  (42) 
Cc1cccc2c([O-])c(C(=O)N(Cc3ccccc3F)C(=O)c3snc(C(N)=O)c3N)oc12

>  <Energy>  (42) 
128.6364068918271

>  <Genealogy>  (42) 
Cc1cccc2c([O-])c(C(=O)N(Cc3ccccc3F)C(=O)c3snc(C(N)=O)c3N)oc12 (protonated)
Cc1cccc2c([O-])c(C(=O)N(Cc3ccccc3F)C(=O)c3snc(C(N)=O)c3N)oc12 (3D coordinates assigned)
Cc1cccc2c([O-])c(C(=O)N(Cc3ccccc3F)C(=O)c3snc(C(N)=O)c3N)oc12 (optimized conformer: 128.6364068918271 kcal/mol)

>  <smiles>  (42) 
Cc1cccc2c(O)c(C(=O)N(Cc3ccccc3F)C(=O)c3snc(C(N)=O)c3N)oc12

>  <score_type>  (42) 
oracle

>  <origin>  (42) 
adg

>  <m_score__min__energy>  (42) 
-11.09

>  <m_primary>  (42) 
energy

$$$$
42:0
     RDKit          3D

 31 32  0  0  0  0  0  0  0  0999 V2000
   54.8910   29.3830   44.4170 O   0  0  0  0  0  0  0  0  0  0  0  0
   56.1380   29.4670   44.5830 C   0  0  0  0  0  0  0  0  0  0  0  0
   56.8190   28.5110   45.4030 N   0  0  0  0  0  0  0  0  0  0  0  0
   57.7430   27.5110   44.8790 C   0  0  0  0  0  0  0  0  0  0  0  0
   57.4790   26.1650   45.5090 C   0  0  0  0  0  0  0  0  0  0  0  0
   58.5140   25.2150   45.5570 C   0  0  0  0  0  0  0  0  0  0  0  0
   58.2960   23.9550   46.1200 C   0  0  0  0  0  0  0  0  0  0  0  0
   57.0440   23.6300   46.6430 C   0  0  0  0  0  0  0  0  0  0  0  0
   56.0050   24.5620   46.5990 C   0  0  0  0  0  0  0  0  0  0  0  0
   56.2080   25.8270   46.0350 C   0  0  0  0  0  0  0  0  0  0  0  0
   55.1320   26.7180   46.0130 O   0  0  0  0  0  0  0  0  0  0  0  0
   56.9030   30.5680   43.9660 C   0  0  0  0  0  0  0  0  0  0  0  0
   57.0650   30.5620   42.7150 O   0  0  0  0  0  0  0  0  0  0  0  0
   57.5050   31.6640   44.7630 C   0  0  0  0  0  0  0  0  0  0  0  0
   57.4290   32.9880   44.3000 C   0  0  0  0  0  0  0  0  0  0  0  0
   57.9820   34.0340   45.0460 C   0  0  0  0  0  0  0  0  0  0  0  0
   58.6060   33.7700   46.2680 C   0  0  0  0  0  0  0  0  0  0  0  0
   59.1540   34.8100   47.0090 O   0  0  0  0  0  0  0  0  0  0  0  0
   58.6730   32.4580   46.7470 C   0  0  0  0  0  0  0  0  0  0  0  0
   58.1220   31.4100   46.0030 C   0  0  0  0  0  0  0  0  0  0  0  0
   57.6119   27.4327   43.7897 H   0  0  0  0  0  0  0  0  0  0  0  0
   58.7721   27.8189   45.1162 H   0  0  0  0  0  0  0  0  0  0  0  0
   59.5038   25.4657   45.1479 H   0  0  0  0  0  0  0  0  0  0  0  0
   59.1124   23.2184   46.1510 H   0  0  0  0  0  0  0  0  0  0  0  0
   56.8753   22.6393   47.0902 H   0  0  0  0  0  0  0  0  0  0  0  0
   55.0192   24.3000   47.0108 H   0  0  0  0  0  0  0  0  0  0  0  0
   55.1500   27.5960   45.5120 H   0  0  0  0  0  0  0  0  0  0  0  0
   56.9307   33.2039   43.3434 H   0  0  0  0  0  0  0  0  0  0  0  0
   57.9255   35.0662   44.6700 H   0  0  0  0  0  0  0  0  0  0  0  0
   59.1601   32.2499   47.7110 H   0  0  0  0  0  0  0  0  0  0  0  0
   58.1709   30.3810   46.3887 H   0  0  0  0  0  0  0  0  0  0  0  0
  1  2  2  0
  2  3  1  0
  3  4  1  0
  4  5  1  0
  5  6  2  0
  6  7  1  0
  7  8  2  0
  8  9  1  0
  9 10  2  0
 10 11  1  0
  2 12  1  0
 12 13  2  0
 12 14  1  0
 14 15  2  0
 15 16  1  0
 16 17  2  0
 17 18  1  0
 17 19  1  0
 19 20  2  0
 10  5  1  0
 20 14  1  0
  4 21  1  0
  4 22  1  0
  6 23  1  0
  7 24  1  0
  8 25  1  0
  9 26  1  0
 11 27  1  0
 15 28  1  0
 16 29  1  0
 19 30  1  0
 20 31  1  0
M  CHG  2   3  -1  18  -1
M  END
>  <UniqueID>  (43) 
37

>  <SMILES>  (43) 
O=C([N-]Cc1ccccc1O)C(=O)c1ccc([O-])cc1

>  <Energy>  (43) 
34.34237663061582

>  <Genealogy>  (43) 
O=C([N-]Cc1ccccc1O)C(=O)c1ccc([O-])cc1 (protonated)
O=C([N-]Cc1ccccc1O)C(=O)c1ccc([O-])cc1 (3D coordinates assigned)
O=C([N-]Cc1ccccc1O)C(=O)c1ccc([O-])cc1 (optimized conformer: 34.34237663061582 kcal/mol)

>  <smiles>  (43) 
O=C(NCc1ccccc1O)C(=O)c1ccc(O)cc1

>  <score_type>  (43) 
oracle

>  <origin>  (43) 
adg

>  <m_score__min__energy>  (43) 
-10.51

>  <m_primary>  (43) 
energy

$$$$
43:0
     RDKit          3D

 57 60  0  0  1  0  0  0  0  0999 V2000
   55.9260   22.5950   42.9930 O   0  0  0  0  0  0  0  0  0  0  0  0
   56.6030   21.6970   43.5720 C   0  0  0  0  0  0  0  0  0  0  0  0
   56.2800   20.3500   43.5160 O   0  0  0  0  0  0  0  0  0  0  0  0
   57.7950   22.1890   44.3360 C   0  0  0  0  0  0  0  0  0  0  0  0
   57.4920   23.6270   44.6430 C   0  0  0  0  0  0  0  0  0  0  0  0
   57.7530   24.6280   43.7210 C   0  0  0  0  0  0  0  0  0  0  0  0
   57.4400   25.9200   44.0880 C   0  0  0  0  0  0  0  0  0  0  0  0
   56.8920   26.1940   45.3240 C   0  0  0  0  0  0  0  0  0  0  0  0
   56.5510   27.5030   45.7590 N   0  0  0  0  0  0  0  0  0  0  0  0
   57.0850   28.5770   45.2820 C   0  0  0  0  0  0  0  0  0  0  0  0
   56.6590   28.9740   44.0330 C   0  0  0  0  0  0  0  0  0  0  0  0
   57.2080   30.1090   43.5050 C   0  0  0  0  0  0  0  0  0  0  0  0
   58.1340   30.8050   44.1940 N   0  0  0  0  0  0  0  0  0  0  0  0
   58.5260   30.3880   45.4090 C   0  0  0  0  0  0  0  0  0  0  0  0
   59.5020   31.1550   46.0950 N   0  0  0  0  0  0  0  0  0  0  0  0
   59.4780   32.5920   46.2080 C   0  0  0  0  0  0  0  0  0  0  0  0
   59.7000   32.9780   47.6540 C   0  0  0  0  0  0  0  0  0  0  0  0
   60.9840   32.4420   48.0540 N   0  0  0  0  0  0  0  0  0  0  0  0
   61.6780   32.8770   49.2210 C   0  0  0  0  0  0  0  0  0  0  0  0
   62.8080   32.3830   49.5550 O   0  0  0  0  0  0  0  0  0  0  0  0
   61.0500   33.9220   50.0430 C   0  0  0  0  0  0  0  0  0  0  0  0
   59.9570   33.3020   50.8290 C   0  0  0  0  0  0  0  0  0  0  0  0
   59.1620   34.0430   51.6760 C   0  0  0  0  0  0  0  0  0  0  0  0
   58.1590   33.4100   52.3780 C   0  0  0  0  0  0  0  0  0  0  0  0
   57.9130   32.0530   52.2690 C   0  0  0  0  0  0  0  0  0  0  0  0
   58.7190   31.3250   51.4170 C   0  0  0  0  0  0  0  0  0  0  0  0
   59.7440   31.9390   50.6920 C   0  0  0  0  0  0  0  0  0  0  0  0
   61.6330   31.4010   47.2490 C   0  0  0  0  0  0  0  0  0  0  0  0
   60.6070   30.4200   46.7220 C   0  0  0  0  0  0  0  0  0  0  0  0
   58.0060   29.2750   45.9610 N   0  0  0  0  0  0  0  0  0  0  0  0
   56.6340   25.1670   46.2460 C   0  0  0  0  0  0  0  0  0  0  0  0
   56.9440   23.8800   45.8810 C   0  0  0  0  0  0  0  0  0  0  0  0
   57.0020   19.6600   43.6780 H   0  0  0  0  0  0  0  0  0  0  0  0
   57.9234   21.6139   45.2649 H   0  0  0  0  0  0  0  0  0  0  0  0
   58.7281   22.0758   43.7645 H   0  0  0  0  0  0  0  0  0  0  0  0
   58.1913   24.4016   42.7378 H   0  0  0  0  0  0  0  0  0  0  0  0
   57.6301   26.7442   43.3848 H   0  0  0  0  0  0  0  0  0  0  0  0
   55.9031   28.3973   43.4799 H   0  0  0  0  0  0  0  0  0  0  0  0
   56.8918   30.4569   42.5105 H   0  0  0  0  0  0  0  0  0  0  0  0
   58.5420   31.6590   43.7850 H   0  0  0  0  0  0  0  0  0  0  0  0
   60.2749   33.0240   45.5848 H   0  0  0  0  0  0  0  0  0  0  0  0
   58.5046   32.9746   45.8673 H   0  0  0  0  0  0  0  0  0  0  0  0
   59.7023   34.0734   47.7544 H   0  0  0  0  0  0  0  0  0  0  0  0
   58.8971   32.5772   48.2902 H   0  0  0  0  0  0  0  0  0  0  0  0
   61.7960   34.3585   50.7234 H   0  0  0  0  0  0  0  0  0  0  0  0
   60.6492   34.7198   49.4004 H   0  0  0  0  0  0  0  0  0  0  0  0
   59.3256   35.1247   51.7903 H   0  0  0  0  0  0  0  0  0  0  0  0
   57.5285   34.0081   53.0523 H   0  0  0  0  0  0  0  0  0  0  0  0
   57.1052   31.5720   52.8400 H   0  0  0  0  0  0  0  0  0  0  0  0
   58.5517   30.2434   51.3068 H   0  0  0  0  0  0  0  0  0  0  0  0
   60.3775   31.3447   50.0171 H   0  0  0  0  0  0  0  0  0  0  0  0
   62.1531   31.8709   46.4013 H   0  0  0  0  0  0  0  0  0  0  0  0
   62.3510   30.8586   47.8816 H   0  0  0  0  0  0  0  0  0  0  0  0
   61.0783   29.7616   45.9774 H   0  0  0  0  0  0  0  0  0  0  0  0
   60.2183   29.8146   47.5541 H   0  0  0  0  0  0  0  0  0  0  0  0
   56.1967   25.3867   47.2311 H   0  0  0  0  0  0  0  0  0  0  0  0
   56.7545   23.0504   46.5780 H   0  0  0  0  0  0  0  0  0  0  0  0
  1  2  2  0
  2  3  1  0
  2  4  1  0
  4  5  1  0
  5  6  2  0
  6  7  1  0
  7  8  2  0
  8  9  1  0
  9 10  2  0
 10 11  1  0
 11 12  2  0
 12 13  1  0
 13 14  1  0
 14 15  1  0
 15 16  1  0
 16 17  1  0
 17 18  1  0
 18 19  1  0
 19 20  2  0
 19 21  1  0
 21 22  1  0
 22 23  2  0
 23 24  1  0
 24 25  2  0
 25 26  1  0
 26 27  2  0
 18 28  1  0
 28 29  1  0
 14 30  2  0
  8 31  1  0
 31 32  2  0
 32  5  1  0
 30 10  1  0
 29 15  1  0
 27 22  1  0
  3 33  1  0
  4 34  1  0
  4 35  1  0
  6 36  1  0
  7 37  1  0
 11 38  1  0
 12 39  1  0
 13 40  1  0
 16 41  1  0
 16 42  1  0
 17 43  1  0
 17 44  1  0
 21 45  1  0
 21 46  1  0
 23 47  1  0
 24 48  1  0
 25 49  1  0
 26 50  1  0
 27 51  1  0
 28 52  1  0
 28 53  1  0
 29 54  1  0
 29 55  1  0
 31 56  1  0
 32 57  1  0
M  END
>  <smiles>  (44) 
O=C(O)Cc1ccc(N=c2cc[nH]c(N3CCN(C(=O)Cc4ccccc4)CC3)n2)cc1

>  <score_type>  (44) 
oracle

>  <origin>  (44) 
adg

>  <m_score__min__energy>  (44) 
-9.8300000000000001

>  <m_primary>  (44) 
energy

$$$$
44:0
     RDKit          3D

 51 53  0  0  0  0  0  0  0  0999 V2000
   62.2370   29.5200   51.1370 C   0  0  0  0  0  0  0  0  0  0  0  0
   62.5940   30.9430   51.1140 N   0  0  0  0  0  0  0  0  0  0  0  0
   61.6000   31.9510   51.3890 C   0  0  0  0  0  0  0  0  0  0  0  0
   61.4050   32.3140   52.5810 O   0  0  0  0  0  0  0  0  0  0  0  0
   60.7980   32.5640   50.3070 C   0  0  0  0  0  0  0  0  0  0  0  0
   61.2660   33.7020   49.6270 C   0  0  0  0  0  0  0  0  0  0  0  0
   60.5130   34.2660   48.5920 C   0  0  0  0  0  0  0  0  0  0  0  0
   59.2890   33.6950   48.2140 C   0  0  0  0  0  0  0  0  0  0  0  0
   58.4690   34.3190   47.1200 C   0  0  0  0  0  0  0  0  0  0  0  0
   59.1830   33.9590   45.5220 S   0  0  0  0  0  0  0  0  0  0  0  0
   60.6820   33.9250   45.6430 O   0  0  0  0  0  0  0  0  0  0  0  0
   58.8060   35.0200   44.5270 O   0  0  0  0  0  0  0  0  0  0  0  0
   58.6310   32.4060   44.9780 N   0  0  0  0  0  0  0  0  0  0  0  0
   58.9790   31.1640   45.6170 C   0  0  0  0  0  0  0  0  0  0  0  0
   60.1500   31.0680   46.3950 C   0  0  0  0  0  0  0  0  0  0  0  0
   60.5200   29.8570   46.9820 C   0  0  0  0  0  0  0  0  0  0  0  0
   59.7340   28.7210   46.7970 C   0  0  0  0  0  0  0  0  0  0  0  0
   58.5710   28.7940   46.0290 C   0  0  0  0  0  0  0  0  0  0  0  0
   58.1770   30.0070   45.4400 C   0  0  0  0  0  0  0  0  0  0  0  0
   56.6720   30.0530   44.5090 S   0  0  0  0  0  0  0  0  0  0  0  0
   55.5140   28.9510   45.1710 N   0  0  0  0  0  0  0  0  0  0  0  0
   56.0910   31.4400   44.5550 O   0  0  0  0  0  0  0  0  0  0  0  0
   56.9550   29.6680   43.0840 O   0  0  0  0  0  0  0  0  0  0  0  0
   58.8200   32.5600   48.8920 C   0  0  0  0  0  0  0  0  0  0  0  0
   59.5750   31.9910   49.9210 C   0  0  0  0  0  0  0  0  0  0  0  0
   63.9580   31.3400   50.8790 C   0  0  0  0  0  0  0  0  0  0  0  0
   64.2580   32.4010   50.0040 C   0  0  0  0  0  0  0  0  0  0  0  0
   65.5860   32.7820   49.7860 C   0  0  0  0  0  0  0  0  0  0  0  0
   66.6240   32.1110   50.4390 C   0  0  0  0  0  0  0  0  0  0  0  0
   66.3360   31.0600   51.3140 C   0  0  0  0  0  0  0  0  0  0  0  0
   65.0100   30.6770   51.5370 C   0  0  0  0  0  0  0  0  0  0  0  0
   62.1517   29.1802   52.1797 H   0  0  0  0  0  0  0  0  0  0  0  0
   61.2747   29.3751   50.6243 H   0  0  0  0  0  0  0  0  0  0  0  0
   63.0170   28.9380   50.6243 H   0  0  0  0  0  0  0  0  0  0  0  0
   62.2293   34.1512   49.9104 H   0  0  0  0  0  0  0  0  0  0  0  0
   60.8827   35.1620   48.0718 H   0  0  0  0  0  0  0  0  0  0  0  0
   57.4463   33.9158   47.1589 H   0  0  0  0  0  0  0  0  0  0  0  0
   58.4518   35.4092   47.2652 H   0  0  0  0  0  0  0  0  0  0  0  0
   57.9820   32.4110   44.1620 H   0  0  0  0  0  0  0  0  0  0  0  0
   60.7798   31.9579   46.5414 H   0  0  0  0  0  0  0  0  0  0  0  0
   61.4337   29.7990   47.5918 H   0  0  0  0  0  0  0  0  0  0  0  0
   60.0304   27.7665   47.2565 H   0  0  0  0  0  0  0  0  0  0  0  0
   57.9569   27.8930   45.8835 H   0  0  0  0  0  0  0  0  0  0  0  0
   54.5680   29.3570   44.9970 H   0  0  0  0  0  0  0  0  0  0  0  0
   57.8533   32.1158   48.6123 H   0  0  0  0  0  0  0  0  0  0  0  0
   59.2091   31.0883   50.4322 H   0  0  0  0  0  0  0  0  0  0  0  0
   63.4443   32.9329   49.4893 H   0  0  0  0  0  0  0  0  0  0  0  0
   65.8140   33.6109   49.0997 H   0  0  0  0  0  0  0  0  0  0  0  0
   67.6679   32.4103   50.2641 H   0  0  0  0  0  0  0  0  0  0  0  0
   67.1537   30.5334   51.8279 H   0  0  0  0  0  0  0  0  0  0  0  0
   64.7881   29.8527   52.2308 H   0  0  0  0  0  0  0  0  0  0  0  0
  1  2  1  0
  2  3  1  0
  3  4  2  0
  3  5  1  0
  5  6  2  0
  6  7  1  0
  7  8  2  0
  8  9  1  0
  9 10  1  0
 10 11  2  0
 10 12  2  0
 10 13  1  0
 13 14  1  0
 14 15  2  0
 15 16  1  0
 16 17  2  0
 17 18  1  0
 18 19  2  0
 19 20  1  0
 20 21  1  0
 20 22  2  0
 20 23  2  0
  8 24  1  0
 24 25  2  0
  2 26  1  0
 26 27  2  0
 27 28  1  0
 28 29  2  0
 29 30  1  0
 30 31  2  0
 25  5  1  0
 31 26  1  0
 19 14  1  0
  1 32  1  0
  1 33  1  0
  1 34  1  0
  6 35  1  0
  7 36  1  0
  9 37  1  0
  9 38  1  0
 13 39  1  0
 15 40  1  0
 16 41  1  0
 17 42  1  0
 18 43  1  0
 21 44  1  0
 24 45  1  0
 25 46  1  0
 27 47  1  0
 28 48  1  0
 29 49  1  0
 30 50  1  0
 31 51  1  0
M  CHG  1  21  -1
M  END
>  <UniqueID>  (45) 
38

>  <SMILES>  (45) 
CN(C(=O)c1ccc(CS(=O)(=O)Nc2ccccc2S([NH-])(=O)=O)cc1)c1ccccc1

>  <Energy>  (45) 
64.93266945654864

>  <Genealogy>  (45) 
CN(C(=O)c1ccc(CS(=O)(=O)Nc2ccccc2S([NH-])(=O)=O)cc1)c1ccccc1 (protonated)
CN(C(=O)c1ccc(CS(=O)(=O)Nc2ccccc2S([NH-])(=O)=O)cc1)c1ccccc1 (3D coordinates assigned)
CN(C(=O)c1ccc(CS(=O)(=O)Nc2ccccc2S([NH-])(=O)=O)cc1)c1ccccc1 (optimized conformer: 64.93266945654864 kcal/mol)

>  <smiles>  (45) 
CN(C(=O)c1ccc(CS(=O)(=O)Nc2ccccc2S(N)(=O)=O)cc1)c1ccccc1

>  <score_type>  (45) 
oracle

>  <origin>  (45) 
adg

>  <m_score__min__energy>  (45) 
-13.859999999999999

>  <m_primary>  (45) 
energy

$$$$
45:0
     RDKit          3D

 59 61  0  0  0  0  0  0  0  0999 V2000
   63.3780   33.8830   47.1620 C   0  0  0  0  0  0  0  0  0  0  0  0
   63.4380   33.7480   48.6860 C   0  0  0  0  0  0  0  0  0  0  0  0
   63.7960   32.3830   49.1510 N   0  0  2  0  0  0  0  0  0  0  0  0
   62.6490   31.7400   49.8400 C   0  0  0  0  0  0  0  0  0  0  0  0
   61.4480   32.6900   50.0850 C   0  0  0  0  0  0  0  0  0  0  0  0
   60.4590   32.7150   48.9380 C   0  0  0  0  0  0  0  0  0  0  0  0
   59.9270   33.9470   48.5170 C   0  0  0  0  0  0  0  0  0  0  0  0
   59.0330   34.0080   47.4480 C   0  0  0  0  0  0  0  0  0  0  0  0
   58.6570   32.8450   46.7780 C   0  0  0  0  0  0  0  0  0  0  0  0
   57.7400   32.9380   45.6750 N   0  0  0  0  0  0  0  0  0  0  0  0
   57.4430   32.0010   44.8200 C   0  0  0  0  0  0  0  0  0  0  0  0
   57.4970   32.2020   43.4250 C   0  0  0  0  0  0  0  0  0  0  0  0
   57.1380   31.1590   42.5690 C   0  0  0  0  0  0  0  0  0  0  0  0
   56.7130   29.9370   43.0930 C   0  0  0  0  0  0  0  0  0  0  0  0
   56.3550   28.9310   42.2550 F   0  0  0  0  0  0  0  0  0  0  0  0
   56.6370   29.7740   44.4850 C   0  0  0  0  0  0  0  0  0  0  0  0
   56.2010   28.5200   45.0420 N   0  0  0  0  0  0  0  0  0  0  0  0
   57.0450   27.6160   45.7740 C   0  0  0  0  0  0  0  0  0  0  0  0
   56.5430   26.4280   46.3400 C   0  0  0  0  0  0  0  0  0  0  0  0
   57.3990   25.5490   47.0110 C   0  0  0  0  0  0  0  0  0  0  0  0
   58.7630   25.8350   47.1100 C   0  0  0  0  0  0  0  0  0  0  0  0
   59.2750   26.9970   46.5300 C   0  0  0  0  0  0  0  0  0  0  0  0
   58.4220   27.8810   45.8620 C   0  0  0  0  0  0  0  0  0  0  0  0
   57.0140   30.8010   45.2990 N   0  0  0  0  0  0  0  0  0  0  0  0
   59.1140   31.6010   47.2390 C   0  0  0  0  0  0  0  0  0  0  0  0
   60.0200   31.5250   48.3160 C   0  0  0  0  0  0  0  0  0  0  0  0
   60.5040   30.2900   48.7800 O   0  0  0  0  0  0  0  0  0  0  0  0
   59.6870   29.1860   49.1550 C   0  0  0  0  0  0  0  0  0  0  0  0
   65.1740   32.4080   50.2410 S   0  0  0  0  0  0  0  0  0  0  0  0
   64.9500   33.5750   51.5700 C   0  0  0  0  0  0  0  0  0  0  0  0
   65.3780   31.0420   50.8390 O   0  0  0  0  0  0  0  0  0  0  0  0
   66.4210   32.7670   49.4830 O   0  0  0  0  0  0  0  0  0  0  0  0
   62.9444   34.8586   46.8971 H   0  0  0  0  0  0  0  0  0  0  0  0
   64.3940   33.8085   46.7470 H   0  0  0  0  0  0  0  0  0  0  0  0
   62.7525   33.0789   46.7470 H   0  0  0  0  0  0  0  0  0  0  0  0
   64.1907   34.4535   49.0678 H   0  0  0  0  0  0  0  0  0  0  0  0
   62.4291   33.9634   49.0678 H   0  0  0  0  0  0  0  0  0  0  0  0
   64.0690   31.7970   48.3270 H   0  0  0  0  0  0  0  0  0  0  0  0
   62.3033   30.8972   49.2235 H   0  0  0  0  0  0  0  0  0  0  0  0
   63.0097   31.4210   50.8290 H   0  0  0  0  0  0  0  0  0  0  0  0
   60.9215   32.3599   50.9926 H   0  0  0  0  0  0  0  0  0  0  0  0
   61.8535   33.7074   50.1873 H   0  0  0  0  0  0  0  0  0  0  0  0
   60.2189   34.8719   49.0360 H   0  0  0  0  0  0  0  0  0  0  0  0
   58.6228   34.9786   47.1322 H   0  0  0  0  0  0  0  0  0  0  0  0
   57.8188   33.1709   43.0155 H   0  0  0  0  0  0  0  0  0  0  0  0
   57.1902   31.3006   41.4794 H   0  0  0  0  0  0  0  0  0  0  0  0
   55.2090   28.2350   44.8940 H   0  0  0  0  0  0  0  0  0  0  0  0
   55.4724   26.1904   46.2538 H   0  0  0  0  0  0  0  0  0  0  0  0
   56.9973   24.6297   47.4622 H   0  0  0  0  0  0  0  0  0  0  0  0
   59.4328   25.1452   47.6444 H   0  0  0  0  0  0  0  0  0  0  0  0
   60.3505   27.2174   46.5985 H   0  0  0  0  0  0  0  0  0  0  0  0
   58.8326   28.7917   45.4015 H   0  0  0  0  0  0  0  0  0  0  0  0
   58.7623   30.6775   46.7559 H   0  0  0  0  0  0  0  0  0  0  0  0
   59.6391   29.1213   50.2520 H   0  0  0  0  0  0  0  0  0  0  0  0
   58.6734   29.3262   48.7513 H   0  0  0  0  0  0  0  0  0  0  0  0
   60.1173   28.2576   48.7513 H   0  0  0  0  0  0  0  0  0  0  0  0
   65.0497   33.0558   52.5346 H   0  0  0  0  0  0  0  0  0  0  0  0
   65.7131   34.3640   51.4977 H   0  0  0  0  0  0  0  0  0  0  0  0
   63.9490   34.0253   51.4977 H   0  0  0  0  0  0  0  0  0  0  0  0
  1  2  1  0
  2  3  1  0
  3  4  1  0
  4  5  1  0
  5  6  1  0
  6  7  2  0
  7  8  1  0
  8  9  2  0
  9 10  1  0
 10 11  2  3
 11 12  1  0
 12 13  2  0
 13 14  1  0
 14 15  1  0
 14 16  2  0
 16 17  1  0
 17 18  1  0
 18 19  2  0
 19 20  1  0
 20 21  2  0
 21 22  1  0
 22 23  2  0
 16 24  1  0
  9 25  1  0
 25 26  2  0
 26 27  1  0
 27 28  1  0
  3 29  1  0
 29 30  1  0
 29 31  2  0
 29 32  2  0
 26  6  1  0
 24 11  1  0
 23 18  1  0
  1 33  1  0
  1 34  1  0
  1 35  1  0
  2 36  1  0
  2 37  1  0
  3 38  1  6
  4 39  1  0
  4 40  1  0
  5 41  1  0
  5 42  1  0
  7 43  1  0
  8 44  1  0
 12 45  1  0
 13 46  1  0
 17 47  1  0
 19 48  1  0
 20 49  1  0
 21 50  1  0
 22 51  1  0
 23 52  1  0
 25 53  1  0
 28 54  1  0
 28 55  1  0
 28 56  1  0
 30 57  1  0
 30 58  1  0
 30 59  1  0
M  CHG  2   3   1  24  -1
M  END
>  <UniqueID>  (46) 
39

>  <SMILES>  (46) 
CC[N@H+](CCc1ccc(N=c2ccc(F)c(Nc3ccccc3)[n-]2)cc1OC)S(C)(=O)=O

>  <Energy>  (46) 
72.82274299205807

>  <Genealogy>  (46) 
CC[NH+](CCc1ccc(N=c2ccc(F)c(Nc3ccccc3)[n-]2)cc1OC)S(C)(=O)=O (protonated)
CC[N@H+](CCc1ccc(N=c2ccc(F)c(Nc3ccccc3)[n-]2)cc1OC)S(C)(=O)=O (chirality)
CC[N@H+](CCc1ccc(N=c2ccc(F)c(Nc3ccccc3)[n-]2)cc1OC)S(C)(=O)=O (3D coordinates assigned)
CC[N@H+](CCc1ccc(N=c2ccc(F)c(Nc3ccccc3)[n-]2)cc1OC)S(C)(=O)=O (optimized conformer: 72.82274299205807 kcal/mol)

>  <smiles>  (46) 
CCN(CCc1ccc(N=c2ccc(F)c(Nc3ccccc3)[nH]2)cc1OC)S(C)(=O)=O

>  <score_type>  (46) 
oracle

>  <origin>  (46) 
adg

>  <m_score__min__energy>  (46) 
-9.3200000000000003

>  <m_primary>  (46) 
energy

$$$$
46:0
     RDKit          3D

 71 75  0  0  0  0  0  0  0  0999 V2000
   57.9370   31.6430   42.6260 O   0  0  0  0  0  0  0  0  0  0  0  0
   57.4360   32.0020   43.7240 C   0  0  0  0  0  0  0  0  0  0  0  0
   57.4390   33.4510   44.0990 C   0  0  0  0  0  0  0  0  0  0  0  0
   58.2090   33.6520   45.3750 C   0  0  0  0  0  0  0  0  0  0  0  0
   59.2450   34.5980   45.4400 C   0  0  0  0  0  0  0  0  0  0  0  0
   59.9560   34.7820   46.6290 C   0  0  0  0  0  0  0  0  0  0  0  0
   59.6220   34.0420   47.7670 C   0  0  0  0  0  0  0  0  0  0  0  0
   58.5640   33.1250   47.7300 C   0  0  0  0  0  0  0  0  0  0  0  0
   58.2350   32.4000   48.9220 N   0  0  0  0  0  0  0  0  0  0  0  0
   59.1720   31.7410   49.7880 C   0  0  0  0  0  0  0  0  0  0  0  0
   59.5040   32.2690   50.8850 O   0  0  0  0  0  0  0  0  0  0  0  0
   59.8130   30.4500   49.3260 C   0  0  0  0  0  0  0  0  0  0  0  0
   60.8920   29.9730   50.3170 C   0  0  0  0  0  0  0  0  0  0  0  0
   62.1980   30.7960   50.2540 C   0  0  0  0  0  0  0  0  0  0  0  0
   62.1650   31.8070   49.1860 N   0  0  0  0  0  0  0  0  0  0  0  0
   62.7770   33.0950   49.3780 C   0  0  0  0  0  0  0  0  0  0  0  0
   62.0450   34.1230   49.3590 O   0  0  0  0  0  0  0  0  0  0  0  0
   64.2730   33.2800   49.5350 C   0  0  0  0  0  0  0  0  0  0  0  0
   64.6960   33.8050   50.9050 C   0  0  0  0  0  0  0  0  0  0  0  0
   65.4910   32.5270   51.1450 C   0  0  0  0  0  0  0  0  0  0  0  0
   65.0900   32.0100   49.7680 C   0  0  0  0  0  0  0  0  0  0  0  0
   61.6550   31.4690   47.8510 C   0  0  0  0  0  0  0  0  0  0  0  0
   60.4250   30.5390   47.9150 C   0  0  0  0  0  0  0  0  0  0  0  0
   57.8760   32.9130   46.5210 C   0  0  0  0  0  0  0  0  0  0  0  0
   56.7970   31.0540   44.5970 N   0  0  0  0  0  0  0  0  0  0  0  0
   57.2520   29.7360   44.9390 C   0  0  0  0  0  0  0  0  0  0  0  0
   58.6190   29.4140   45.0520 C   0  0  0  0  0  0  0  0  0  0  0  0
   59.0090   28.1180   45.4000 C   0  0  0  0  0  0  0  0  0  0  0  0
   58.0450   27.1450   45.6720 C   0  0  0  0  0  0  0  0  0  0  0  0
   56.6780   27.4710   45.6200 C   0  0  0  0  0  0  0  0  0  0  0  0
   55.6620   26.5040   45.9250 N   0  0  0  0  0  0  0  0  0  0  0  0
   55.8810   25.1160   46.2100 C   0  0  0  0  0  0  0  0  0  0  0  0
   55.8010   24.7280   47.4070 O   0  0  0  0  0  0  0  0  0  0  0  0
   56.2500   24.1410   45.1550 C   0  0  0  0  0  0  0  0  0  0  0  0
   57.4720   23.4490   45.2280 C   0  0  0  0  0  0  0  0  0  0  0  0
   57.8270   22.5280   44.2370 C   0  0  0  0  0  0  0  0  0  0  0  0
   56.9720   22.2960   43.1560 C   0  0  0  0  0  0  0  0  0  0  0  0
   55.7630   22.9910   43.0630 C   0  0  0  0  0  0  0  0  0  0  0  0
   55.4050   23.9140   44.0520 C   0  0  0  0  0  0  0  0  0  0  0  0
   56.2920   28.7590   45.2310 C   0  0  0  0  0  0  0  0  0  0  0  0
   57.9098   34.0343   43.2940 H   0  0  0  0  0  0  0  0  0  0  0  0
   56.4021   33.7872   44.2470 H   0  0  0  0  0  0  0  0  0  0  0  0
   59.4976   35.1961   44.5521 H   0  0  0  0  0  0  0  0  0  0  0  0
   60.7796   35.5101   46.6695 H   0  0  0  0  0  0  0  0  0  0  0  0
   60.1933   34.1807   48.6967 H   0  0  0  0  0  0  0  0  0  0  0  0
   58.9925   29.7184   49.2864 H   0  0  0  0  0  0  0  0  0  0  0  0
   60.4843   30.0454   51.3361 H   0  0  0  0  0  0  0  0  0  0  0  0
   61.1487   28.9396   50.0410 H   0  0  0  0  0  0  0  0  0  0  0  0
   62.3438   31.3040   51.2187 H   0  0  0  0  0  0  0  0  0  0  0  0
   63.0246   30.1030   50.0384 H   0  0  0  0  0  0  0  0  0  0  0  0
   64.4424   33.8685   48.6213 H   0  0  0  0  0  0  0  0  0  0  0  0
   65.3107   34.7165   50.8671 H   0  0  0  0  0  0  0  0  0  0  0  0
   63.9410   34.1375   51.6326 H   0  0  0  0  0  0  0  0  0  0  0  0
   66.5724   32.6881   51.2655 H   0  0  0  0  0  0  0  0  0  0  0  0
   65.3039   31.9180   52.0417 H   0  0  0  0  0  0  0  0  0  0  0  0
   65.9325   31.8831   49.0722 H   0  0  0  0  0  0  0  0  0  0  0  0
   64.6257   31.0190   49.6569 H   0  0  0  0  0  0  0  0  0  0  0  0
   61.3704   32.3978   47.3349 H   0  0  0  0  0  0  0  0  0  0  0  0
   62.4519   30.9382   47.3095 H   0  0  0  0  0  0  0  0  0  0  0  0
   59.6595   30.9216   47.2239 H   0  0  0  0  0  0  0  0  0  0  0  0
   60.7602   29.5290   47.6364 H   0  0  0  0  0  0  0  0  0  0  0  0
   57.0722   32.1635   46.4736 H   0  0  0  0  0  0  0  0  0  0  0  0
   59.3813   30.1848   44.8658 H   0  0  0  0  0  0  0  0  0  0  0  0
   60.0775   27.8638   45.4598 H   0  0  0  0  0  0  0  0  0  0  0  0
   58.3556   26.1212   45.9275 H   0  0  0  0  0  0  0  0  0  0  0  0
   58.1540   23.6335   46.0711 H   0  0  0  0  0  0  0  0  0  0  0  0
   58.7811   21.9852   44.3086 H   0  0  0  0  0  0  0  0  0  0  0  0
   57.2501   21.5678   42.3799 H   0  0  0  0  0  0  0  0  0  0  0  0
   55.0913   22.8120   42.2104 H   0  0  0  0  0  0  0  0  0  0  0  0
   54.4572   24.4658   43.9671 H   0  0  0  0  0  0  0  0  0  0  0  0
   55.2230   29.0065   45.1538 H   0  0  0  0  0  0  0  0  0  0  0  0
  1  2  2  0
  2  3  1  0
  3  4  1  0
  4  5  2  0
  5  6  1  0
  6  7  2  0
  7  8  1  0
  8  9  1  0
  9 10  1  0
 10 11  2  0
 10 12  1  0
 12 13  1  0
 13 14  1  0
 14 15  1  0
 15 16  1  0
 16 17  2  0
 16 18  1  0
 18 19  1  0
 19 20  1  0
 20 21  1  0
 15 22  1  0
 22 23  1  0
  8 24  2  0
  2 25  1  0
 25 26  1  0
 26 27  2  0
 27 28  1  0
 28 29  2  0
 29 30  1  0
 30 31  1  0
 31 32  1  0
 32 33  2  0
 32 34  1  0
 34 35  2  0
 35 36  1  0
 36 37  2  0
 37 38  1  0
 38 39  2  0
 30 40  2  0
 24  4  1  0
 40 26  1  0
 23 12  1  0
 39 34  1  0
 21 18  1  0
  3 41  1  0
  3 42  1  0
  5 43  1  0
  6 44  1  0
  7 45  1  0
 12 46  1  0
 13 47  1  0
 13 48  1  0
 14 49  1  0
 14 50  1  0
 18 51  1  0
 19 52  1  0
 19 53  1  0
 20 54  1  0
 20 55  1  0
 21 56  1  0
 21 57  1  0
 22 58  1  0
 22 59  1  0
 23 60  1  0
 23 61  1  0
 24 62  1  0
 27 63  1  0
 28 64  1  0
 29 65  1  0
 35 66  1  0
 36 67  1  0
 37 68  1  0
 38 69  1  0
 39 70  1  0
 40 71  1  0
M  CHG  3   9  -1  25  -1  31  -1
M  END
>  <UniqueID>  (47) 
40

>  <SMILES>  (47) 
O=C(Cc1cccc([N-]C(=O)C2CCN(C(=O)C3CCC3)CC2)c1)[N-]c1cccc([N-]C(=O)c2ccccc2)c1

>  <Energy>  (47) 
156.74541956857124

>  <Genealogy>  (47) 
O=C(Cc1cccc([N-]C(=O)C2CCN(C(=O)C3CCC3)CC2)c1)[N-]c1cccc([N-]C(=O)c2ccccc2)c1 (protonated)
O=C(Cc1cccc([N-]C(=O)C2CCN(C(=O)C3CCC3)CC2)c1)[N-]c1cccc([N-]C(=O)c2ccccc2)c1 (3D coordinates assigned)
O=C(Cc1cccc([N-]C(=O)C2CCN(C(=O)C3CCC3)CC2)c1)[N-]c1cccc([N-]C(=O)c2ccccc2)c1 (nonaromatic ring conformer: 156.74541956857124 kcal/mol)

>  <smiles>  (47) 
O=C(Cc1cccc(NC(=O)C2CCN(C(=O)C3CCC3)CC2)c1)Nc1cccc(NC(=O)c2ccccc2)c1

>  <score_type>  (47) 
oracle

>  <origin>  (47) 
adg

>  <m_score__min__energy>  (47) 
-15.02

>  <m_primary>  (47) 
energy

$$$$
47:0
     RDKit          3D

 44 46  0  0  0  0  0  0  0  0999 V2000
   50.9850   32.7500   51.6490 N   0  0  0  0  0  0  0  0  0  0  0  0
   51.3240   31.5550   52.8500 S   0  0  0  0  0  0  0  0  0  0  0  0
   51.0830   32.1340   54.2160 O   0  0  0  0  0  0  0  0  0  0  0  0
   50.4130   30.3750   52.6580 O   0  0  0  0  0  0  0  0  0  0  0  0
   53.0020   31.0430   52.7060 C   0  0  0  0  0  0  0  0  0  0  0  0
   53.6770   31.1730   51.4860 C   0  0  0  0  0  0  0  0  0  0  0  0
   55.0120   30.7760   51.3740 C   0  0  0  0  0  0  0  0  0  0  0  0
   55.6970   30.2580   52.4890 C   0  0  0  0  0  0  0  0  0  0  0  0
   57.0630   29.8190   52.3940 N   0  0  0  0  0  0  0  0  0  0  0  0
   58.0710   30.4910   51.6220 C   0  0  0  0  0  0  0  0  0  0  0  0
   57.9320   31.7050   51.3160 O   0  0  0  0  0  0  0  0  0  0  0  0
   59.2930   29.8280   51.2770 N   0  0  0  0  0  0  0  0  0  0  0  0
   59.5200   29.0450   50.0970 C   0  0  0  0  0  0  0  0  0  0  0  0
   60.3830   27.9370   50.1020 C   0  0  0  0  0  0  0  0  0  0  0  0
   60.5580   27.1790   48.9420 C   0  0  0  0  0  0  0  0  0  0  0  0
   59.8680   27.5110   47.7740 C   0  0  0  0  0  0  0  0  0  0  0  0
   58.9930   28.6110   47.7550 C   0  0  0  0  0  0  0  0  0  0  0  0
   58.2470   28.9650   46.5250 C   0  0  0  0  0  0  0  0  0  0  0  0
   58.5210   30.0380   45.9230 O   0  0  0  0  0  0  0  0  0  0  0  0
   57.1810   28.1500   46.0200 N   0  0  0  0  0  0  0  0  0  0  0  0
   57.1980   26.7200   45.8860 C   0  0  0  0  0  0  0  0  0  0  0  0
   58.4010   26.0130   45.7040 C   0  0  0  0  0  0  0  0  0  0  0  0
   58.3860   24.6230   45.5610 C   0  0  0  0  0  0  0  0  0  0  0  0
   57.1730   23.9290   45.5820 C   0  0  0  0  0  0  0  0  0  0  0  0
   55.9730   24.6260   45.7390 C   0  0  0  0  0  0  0  0  0  0  0  0
   55.9830   26.0180   45.8850 C   0  0  0  0  0  0  0  0  0  0  0  0
   54.7800   26.7010   46.0360 O   0  0  0  0  0  0  0  0  0  0  0  0
   58.8100   29.3600   48.9310 C   0  0  0  0  0  0  0  0  0  0  0  0
   55.0110   30.1180   53.7040 C   0  0  0  0  0  0  0  0  0  0  0  0
   53.6760   30.5160   53.8150 C   0  0  0  0  0  0  0  0  0  0  0  0
   50.2720   32.3420   51.0050 H   0  0  0  0  0  0  0  0  0  0  0  0
   53.1542   31.5893   50.6123 H   0  0  0  0  0  0  0  0  0  0  0  0
   55.5308   30.8689   50.4085 H   0  0  0  0  0  0  0  0  0  0  0  0
   57.3640   29.0150   52.9890 H   0  0  0  0  0  0  0  0  0  0  0  0
   60.9223   27.6656   51.0215 H   0  0  0  0  0  0  0  0  0  0  0  0
   61.2418   26.3174   48.9484 H   0  0  0  0  0  0  0  0  0  0  0  0
   60.0100   26.9088   46.8645 H   0  0  0  0  0  0  0  0  0  0  0  0
   59.3568   26.5566   45.6742 H   0  0  0  0  0  0  0  0  0  0  0  0
   59.3305   24.0741   45.4317 H   0  0  0  0  0  0  0  0  0  0  0  0
   57.1635   22.8343   45.4749 H   0  0  0  0  0  0  0  0  0  0  0  0
   55.0181   24.0800   45.7479 H   0  0  0  0  0  0  0  0  0  0  0  0
   58.1021   30.2019   48.9355 H   0  0  0  0  0  0  0  0  0  0  0  0
   55.5277   29.6916   54.5765 H   0  0  0  0  0  0  0  0  0  0  0  0
   53.1524   30.4150   54.7771 H   0  0  0  0  0  0  0  0  0  0  0  0
  1  2  1  0
  2  3  2  0
  2  4  2  0
  2  5  1  0
  5  6  2  0
  6  7  1  0
  7  8  2  0
  8  9  1  0
  9 10  1  0
 10 11  2  0
 10 12  1  0
 12 13  1  0
 13 14  2  0
 14 15  1  0
 15 16  2  0
 16 17  1  0
 17 18  1  0
 18 19  2  0
 18 20  1  0
 20 21  1  0
 21 22  2  0
 22 23  1  0
 23 24  2  0
 24 25  1  0
 25 26  2  0
 26 27  1  0
 17 28  2  0
  8 29  1  0
 29 30  2  0
 30  5  1  0
 28 13  1  0
 26 21  1  0
  1 31  1  0
  6 32  1  0
  7 33  1  0
  9 34  1  0
 14 35  1  0
 15 36  1  0
 16 37  1  0
 22 38  1  0
 23 39  1  0
 24 40  1  0
 25 41  1  0
 28 42  1  0
 29 43  1  0
 30 44  1  0
M  CHG  4   1  -1  12  -1  20  -1  27  -1
M  END
>  <UniqueID>  (48) 
41

>  <SMILES>  (48) 
[NH-]S(=O)(=O)c1ccc(NC(=O)[N-]c2cccc(C(=O)[N-]c3ccccc3[O-])c2)cc1

>  <Energy>  (48) 
60.870270948509095

>  <Genealogy>  (48) 
[NH-]S(=O)(=O)c1ccc(NC(=O)[N-]c2cccc(C(=O)[N-]c3ccccc3[O-])c2)cc1 (protonated)
[NH-]S(=O)(=O)c1ccc(NC(=O)[N-]c2cccc(C(=O)[N-]c3ccccc3[O-])c2)cc1 (3D coordinates assigned)
[NH-]S(=O)(=O)c1ccc(NC(=O)[N-]c2cccc(C(=O)[N-]c3ccccc3[O-])c2)cc1 (optimized conformer: 60.870270948509095 kcal/mol)

>  <smiles>  (48) 
NS(=O)(=O)c1ccc(NC(=O)Nc2cccc(C(=O)Nc3ccccc3O)c2)cc1

>  <score_type>  (48) 
oracle

>  <origin>  (48) 
adg

>  <m_score__min__energy>  (48) 
-16.77

>  <m_primary>  (48) 
energy

$$$$
48:0
     RDKit          3D

 78 82  0  0  0  0  0  0  0  0999 V2000
   55.2852   25.5566   46.6074 H   0  0  0  0  0  0  0  0  0  0  0  0
   56.1240   26.2470   46.4350 C   0  0  0  0  0  0  0  0  0  0  0  0
   55.9610   27.3160   45.6160 N   0  0  0  0  0  0  0  0  0  0  0  0
   56.9700   28.1900   45.3690 C   0  0  0  0  0  0  0  0  0  0  0  0
   56.7480   29.2840   44.5240 C   0  0  0  0  0  0  0  0  0  0  0  0
   55.7627   29.4229   44.0551 H   0  0  0  0  0  0  0  0  0  0  0  0
   57.7730   30.2000   44.2740 C   0  0  0  0  0  0  0  0  0  0  0  0
   57.4850   31.5760   43.2260 Cl  0  0  0  0  0  0  0  0  0  0  0  0
   59.0280   30.0230   44.8620 C   0  0  0  0  0  0  0  0  0  0  0  0
   59.8343   30.7434   44.6598 H   0  0  0  0  0  0  0  0  0  0  0  0
   59.2630   28.9330   45.7070 C   0  0  0  0  0  0  0  0  0  0  0  0
   60.2539   28.8009   46.1659 H   0  0  0  0  0  0  0  0  0  0  0  0
   58.2380   28.0030   45.9740 C   0  0  0  0  0  0  0  0  0  0  0  0
   58.4320   26.8960   46.8340 C   0  0  0  0  0  0  0  0  0  0  0  0
   59.5960   26.7280   47.4070 N   0  0  0  0  0  0  0  0  0  0  0  0
   60.2300   27.5770   48.4160 C   0  0  0  0  0  0  0  0  0  0  0  0
   59.4927   28.3022   48.7908 H   0  0  0  0  0  0  0  0  0  0  0  0
   61.0807   28.0975   47.9520 H   0  0  0  0  0  0  0  0  0  0  0  0
   60.7510   26.7390   49.5900 C   0  0  0  0  0  0  0  0  0  0  0  0
   61.7298   26.3171   49.3183 H   0  0  0  0  0  0  0  0  0  0  0  0
   60.0174   25.9447   49.7922 H   0  0  0  0  0  0  0  0  0  0  0  0
   60.9090   27.5740   50.8670 C   0  0  0  0  0  0  0  0  0  0  0  0
   61.8841   27.3509   51.3246 H   0  0  0  0  0  0  0  0  0  0  0  0
   60.0922   27.3172   51.5575 H   0  0  0  0  0  0  0  0  0  0  0  0
   60.8360   29.0050   50.5690 N   0  0  0  0  0  0  0  0  0  0  0  0
   61.1540   29.3250   49.6280 H   0  0  0  0  0  0  0  0  0  0  0  0
   60.2410   29.9730   51.4470 C   0  0  0  0  0  0  0  0  0  0  0  0
   59.7170   29.5940   52.5770 N   0  0  0  0  0  0  0  0  0  0  0  0
   58.3330   29.6980   52.9320 C   0  0  0  0  0  0  0  0  0  0  0  0
   57.5930   28.5760   53.3430 C   0  0  0  0  0  0  0  0  0  0  0  0
   58.0804   27.5919   53.4065 H   0  0  0  0  0  0  0  0  0  0  0  0
   56.2420   28.7050   53.6710 C   0  0  0  0  0  0  0  0  0  0  0  0
   55.6742   27.8241   54.0050 H   0  0  0  0  0  0  0  0  0  0  0  0
   55.6020   29.9550   53.5770 C   0  0  0  0  0  0  0  0  0  0  0  0
   54.2230   30.1000   53.9740 N   0  0  0  0  0  0  0  0  0  0  0  0
   54.1230   30.8790   54.6650 H   0  0  0  0  0  0  0  0  0  0  0  0
   53.9000   29.2280   54.4530 H   0  0  0  0  0  0  0  0  0  0  0  0
   53.4100   30.3780   52.8170 C   0  0  0  0  0  0  0  0  0  0  0  0
   52.2580   31.1780   52.9260 C   0  0  0  0  0  0  0  0  0  0  0  0
   51.9756   31.6015   53.9012 H   0  0  0  0  0  0  0  0  0  0  0  0
   51.4710   31.4370   51.8010 C   0  0  0  0  0  0  0  0  0  0  0  0
   50.5760   32.0702   51.8909 H   0  0  0  0  0  0  0  0  0  0  0  0
   51.8190   30.8930   50.5620 C   0  0  0  0  0  0  0  0  0  0  0  0
   51.1958   31.0969   49.6788 H   0  0  0  0  0  0  0  0  0  0  0  0
   52.9560   30.0910   50.4420 C   0  0  0  0  0  0  0  0  0  0  0  0
   53.2246   29.6589   49.4667 H   0  0  0  0  0  0  0  0  0  0  0  0
   53.7520   29.8380   51.5620 C   0  0  0  0  0  0  0  0  0  0  0  0
   54.6517   29.2129   51.4630 H   0  0  0  0  0  0  0  0  0  0  0  0
   56.3420   31.0710   53.1450 C   0  0  0  0  0  0  0  0  0  0  0  0
   55.8547   32.0544   53.0705 H   0  0  0  0  0  0  0  0  0  0  0  0
   57.6920   30.9380   52.8100 C   0  0  0  0  0  0  0  0  0  0  0  0
   58.2546   31.8114   52.4486 H   0  0  0  0  0  0  0  0  0  0  0  0
   60.1250   31.3250   50.9970 N   0  0  0  0  0  0  0  0  0  0  0  0
   60.9030   31.9880   51.2000 H   0  0  0  0  0  0  0  0  0  0  0  0
   59.1160   31.6920   50.0510 C   0  0  0  0  0  0  0  0  0  0  0  0
   58.0580   31.0100   49.9570 O   0  0  0  0  0  0  0  0  0  0  0  0
   59.3480   32.8340   49.1090 C   0  0  0  0  0  0  0  0  0  0  0  0
   58.3870   33.3232   48.8917 H   0  0  0  0  0  0  0  0  0  0  0  0
   60.0416   33.5453   49.5813 H   0  0  0  0  0  0  0  0  0  0  0  0
   59.9700   32.3390   47.7940 C   0  0  0  0  0  0  0  0  0  0  0  0
   61.0454   32.5705   47.7974 H   0  0  0  0  0  0  0  0  0  0  0  0
   59.8043   31.2541   47.7197 H   0  0  0  0  0  0  0  0  0  0  0  0
   59.3420   32.9870   46.6220 N   0  0  0  0  0  0  0  0  0  0  0  0
   59.8520   34.3560   46.4360 C   0  0  0  0  0  0  0  0  0  0  0  0
   59.5749   34.9700   47.3056 H   0  0  0  0  0  0  0  0  0  0  0  0
   60.9471   34.3249   46.3375 H   0  0  0  0  0  0  0  0  0  0  0  0
   59.2430   34.9730   45.1580 C   0  0  0  0  0  0  0  0  0  0  0  0
   58.8527   35.9726   45.3997 H   0  0  0  0  0  0  0  0  0  0  0  0
   60.0371   35.0233   44.3985 H   0  0  0  0  0  0  0  0  0  0  0  0
   58.1880   34.1880   44.6290 O   0  0  0  0  0  0  0  0  0  0  0  0
   57.2470   33.9050   45.6440 C   0  0  0  0  0  0  0  0  0  0  0  0
   56.9133   34.8491   46.0993 H   0  0  0  0  0  0  0  0  0  0  0  0
   56.3951   33.3730   45.1954 H   0  0  0  0  0  0  0  0  0  0  0  0
   57.8680   33.0100   46.7350 C   0  0  0  0  0  0  0  0  0  0  0  0
   57.5886   33.4015   47.7243 H   0  0  0  0  0  0  0  0  0  0  0  0
   57.4894   31.9852   46.6067 H   0  0  0  0  0  0  0  0  0  0  0  0
   57.3510   26.0190   47.0600 C   0  0  0  0  0  0  0  0  0  0  0  0
   57.4749   25.1548   47.7292 H   0  0  0  0  0  0  0  0  0  0  0  0
  1  2  1  0
  2  3  1  0
  3  4  1  0
  4  5  2  0
  5  6  1  0
  5  7  1  0
  7  8  1  0
  7  9  2  0
  9 10  1  0
  9 11  1  0
 11 12  1  0
 11 13  2  0
 13 14  1  0
 14 15  2  0
 15 16  1  0
 16 17  1  0
 16 18  1  0
 16 19  1  0
 19 20  1  0
 19 21  1  0
 19 22  1  0
 22 23  1  0
 22 24  1  0
 22 25  1  0
 25 26  1  0
 25 27  1  0
 27 28  2  0
 28 29  1  0
 29 30  2  0
 30 31  1  0
 30 32  1  0
 32 33  1  0
 32 34  2  0
 34 35  1  0
 35 36  1  0
 35 37  1  0
 35 38  1  0
 38 39  2  0
 39 40  1  0
 39 41  1  0
 41 42  1  0
 41 43  2  0
 43 44  1  0
 43 45  1  0
 45 46  1  0
 45 47  2  0
 47 48  1  0
 34 49  1  0
 49 50  1  0
 49 51  2  0
 51 52  1  0
 27 53  1  0
 53 54  1  0
 53 55  1  0
 55 56  2  0
 55 57  1  0
 57 58  1  0
 57 59  1  0
 57 60  1  0
 60 61  1  0
 60 62  1  0
 60 63  1  0
 63 64  1  0
 64 65  1  0
 64 66  1  0
 64 67  1  0
 67 68  1  0
 67 69  1  0
 67 70  1  0
 70 71  1  0
 71 72  1  0
 71 73  1  0
 71 74  1  0
 74 75  1  0
 74 76  1  0
 14 77  1  0
 77 78  1  0
 77  2  2  0
 13  4  1  0
 51 29  1  0
 74 63  1  0
 47 38  1  0
M  CHG  2   3  -1  35   1
M  END
>  <UniqueID>  (49) 
42

>  <SMILES>  (49) 
O=C(CCN1CCOCC1)N/C(=N\c1ccc([NH2+]c2ccccc2)cc1)NCCC/N=c1\cc[n-]c2cc(Cl)ccc12

>  <Energy>  (49) 
104.54196243637438

>  <Genealogy>  (49) 
O=C(CCN1CCOCC1)NC(=Nc1ccc([NH2+]c2ccccc2)cc1)NCCCN=c1cc[n-]c2cc(Cl)ccc12 (protonated)
O=C(CCN1CCOCC1)N/C(=N\c1ccc([NH2+]c2ccccc2)cc1)NCCC/N=c1\cc[n-]c2cc(Cl)ccc12 (cis-trans isomerization)
O=C(CCN1CCOCC1)N/C(=N\c1ccc([NH2+]c2ccccc2)cc1)NCCC/N=c1\cc[n-]c2cc(Cl)ccc12 (3D coordinates assigned)
O=C(CCN1CCOCC1)N/C(=N\c1ccc([NH2+]c2ccccc2)cc1)NCCC/N=c1\cc[n-]c2cc(Cl)ccc12 (nonaromatic ring conformer: 104.54196243637438 kcal/mol)

>  <smiles>  (49) 
O=C(CCN1CCOCC1)NC(=Nc1ccc(Nc2ccccc2)cc1)NCCCN=c1cc[nH]c2cc(Cl)ccc12

>  <score_type>  (49) 
oracle

>  <origin>  (49) 
adg

>  <m_score__min__energy>  (49) 
-10.34

>  <m_primary>  (49) 
energy

$$$$
49:0
     RDKit          3D

 50 52  0  0  0  0  0  0  0  0999 V2000
   54.8000   26.1750   45.9780 N   0  0  0  0  0  0  0  0  0  0  0  0
   56.4670   25.7290   45.9110 S   0  0  0  0  0  0  0  0  0  0  0  0
   56.9200   25.3030   47.2790 O   0  0  0  0  0  0  0  0  0  0  0  0
   56.6430   24.5780   44.9630 O   0  0  0  0  0  0  0  0  0  0  0  0
   57.4190   27.1010   45.3570 C   0  0  0  0  0  0  0  0  0  0  0  0
   58.7230   26.9180   44.8790 C   0  0  0  0  0  0  0  0  0  0  0  0
   59.4690   28.0140   44.4440 C   0  0  0  0  0  0  0  0  0  0  0  0
   58.9230   29.2990   44.4860 C   0  0  0  0  0  0  0  0  0  0  0  0
   57.6220   29.4990   44.9850 C   0  0  0  0  0  0  0  0  0  0  0  0
   56.9920   30.7900   45.0210 N   0  0  0  0  0  0  0  0  0  0  0  0
   57.5110   32.0530   44.5840 C   0  0  0  0  0  0  0  0  0  0  0  0
   58.0160   32.1910   43.4380 O   0  0  0  0  0  0  0  0  0  0  0  0
   57.5360   33.2030   45.5410 C   0  0  0  0  0  0  0  0  0  0  0  0
   58.5320   32.9910   46.6090 N   0  0  0  0  0  0  0  0  0  0  0  0
   59.3830   31.8260   46.2950 C   0  0  0  0  0  0  0  0  0  0  0  0
   59.5510   30.9470   47.5090 C   0  0  0  0  0  0  0  0  0  0  0  0
   58.8990   31.2660   48.7130 C   0  0  0  0  0  0  0  0  0  0  0  0
   59.0330   30.4350   49.8300 C   0  0  0  0  0  0  0  0  0  0  0  0
   59.8100   29.2750   49.7510 C   0  0  0  0  0  0  0  0  0  0  0  0
   60.4520   28.9430   48.5540 C   0  0  0  0  0  0  0  0  0  0  0  0
   60.3200   29.7710   47.4340 C   0  0  0  0  0  0  0  0  0  0  0  0
   59.5200   34.4280   46.8400 S   0  0  0  0  0  0  0  0  0  0  0  0
   58.9000   35.3250   47.8750 O   0  0  0  0  0  0  0  0  0  0  0  0
   59.6540   35.1990   45.5590 O   0  0  0  0  0  0  0  0  0  0  0  0
   61.1350   33.9430   47.3470 C   0  0  0  0  0  0  0  0  0  0  0  0
   61.3810   33.6760   48.7010 C   0  0  0  0  0  0  0  0  0  0  0  0
   62.6590   33.2970   49.1200 C   0  0  0  0  0  0  0  0  0  0  0  0
   63.6940   33.1750   48.1890 C   0  0  0  0  0  0  0  0  0  0  0  0
   63.4520   33.4360   46.8380 C   0  0  0  0  0  0  0  0  0  0  0  0
   62.1760   33.8200   46.4160 C   0  0  0  0  0  0  0  0  0  0  0  0
   56.8760   28.3910   45.4060 C   0  0  0  0  0  0  0  0  0  0  0  0
   54.7490   27.0900   46.4820 H   0  0  0  0  0  0  0  0  0  0  0  0
   59.1595   25.9088   44.8465 H   0  0  0  0  0  0  0  0  0  0  0  0
   60.4914   27.8654   44.0664 H   0  0  0  0  0  0  0  0  0  0  0  0
   59.5112   30.1569   44.1282 H   0  0  0  0  0  0  0  0  0  0  0  0
   57.7903   34.1211   44.9911 H   0  0  0  0  0  0  0  0  0  0  0  0
   56.5426   33.2896   46.0053 H   0  0  0  0  0  0  0  0  0  0  0  0
   58.9139   31.2428   45.4888 H   0  0  0  0  0  0  0  0  0  0  0  0
   60.3732   32.1859   45.9787 H   0  0  0  0  0  0  0  0  0  0  0  0
   58.2805   32.1734   48.7769 H   0  0  0  0  0  0  0  0  0  0  0  0
   58.5267   30.6941   50.7715 H   0  0  0  0  0  0  0  0  0  0  0  0
   59.9162   28.6234   50.6309 H   0  0  0  0  0  0  0  0  0  0  0  0
   61.0617   28.0295   48.4928 H   0  0  0  0  0  0  0  0  0  0  0  0
   60.8191   29.5017   46.4915 H   0  0  0  0  0  0  0  0  0  0  0  0
   60.5665   33.7650   49.4349 H   0  0  0  0  0  0  0  0  0  0  0  0
   62.8506   33.0944   50.1841 H   0  0  0  0  0  0  0  0  0  0  0  0
   64.6989   32.8736   48.5197 H   0  0  0  0  0  0  0  0  0  0  0  0
   64.2668   33.3392   46.1054 H   0  0  0  0  0  0  0  0  0  0  0  0
   61.9883   34.0260   45.3519 H   0  0  0  0  0  0  0  0  0  0  0  0
   55.8515   28.5357   45.7795 H   0  0  0  0  0  0  0  0  0  0  0  0
  1  2  1  0
  2  3  2  0
  2  4  2  0
  2  5  1  0
  5  6  2  0
  6  7  1  0
  7  8  2  0
  8  9  1  0
  9 10  1  0
 10 11  1  0
 11 12  2  0
 11 13  1  0
 13 14  1  0
 14 15  1  0
 15 16  1  0
 16 17  2  0
 17 18  1  0
 18 19  2  0
 19 20  1  0
 20 21  2  0
 14 22  1  0
 22 23  2  0
 22 24  2  0
 22 25  1  0
 25 26  2  0
 26 27  1  0
 27 28  2  0
 28 29  1  0
 29 30  2  0
  9 31  2  0
 31  5  1  0
 21 16  1  0
 30 25  1  0
  1 32  1  0
  6 33  1  0
  7 34  1  0
  8 35  1  0
 13 36  1  0
 13 37  1  0
 15 38  1  0
 15 39  1  0
 17 40  1  0
 18 41  1  0
 19 42  1  0
 20 43  1  0
 21 44  1  0
 26 45  1  0
 27 46  1  0
 28 47  1  0
 29 48  1  0
 30 49  1  0
 31 50  1  0
M  CHG  2   1  -1  10  -1
M  END
>  <UniqueID>  (50) 
43

>  <SMILES>  (50) 
[NH-]S(=O)(=O)c1cccc([N-]C(=O)CN(Cc2ccccc2)S(=O)(=O)c2ccccc2)c1

>  <Energy>  (50) 
51.42383587098442

>  <Genealogy>  (50) 
[NH-]S(=O)(=O)c1cccc([N-]C(=O)CN(Cc2ccccc2)S(=O)(=O)c2ccccc2)c1 (protonated)
[NH-]S(=O)(=O)c1cccc([N-]C(=O)CN(Cc2ccccc2)S(=O)(=O)c2ccccc2)c1 (3D coordinates assigned)
[NH-]S(=O)(=O)c1cccc([N-]C(=O)CN(Cc2ccccc2)S(=O)(=O)c2ccccc2)c1 (optimized conformer: 51.42383587098442 kcal/mol)

>  <smiles>  (50) 
NS(=O)(=O)c1cccc(NC(=O)CN(Cc2ccccc2)S(=O)(=O)c2ccccc2)c1

>  <score_type>  (50) 
oracle

>  <origin>  (50) 
adg

>  <m_score__min__energy>  (50) 
-14.210000000000001

>  <m_primary>  (50) 
energy

$$$$
50:0
     RDKit          3D

 68 72  0  0  0  0  0  0  0  0999 V2000
   56.2450   22.7020   48.4640 C   0  0  0  0  0  0  0  0  0  0  0  0
   57.3280   22.7610   47.5430 O   0  0  0  0  0  0  0  0  0  0  0  0
   57.1840   22.7980   46.1470 C   0  0  0  0  0  0  0  0  0  0  0  0
   57.2530   21.6350   45.3540 C   0  0  0  0  0  0  0  0  0  0  0  0
   57.1150   21.7190   43.9650 C   0  0  0  0  0  0  0  0  0  0  0  0
   56.8990   22.9560   43.3560 C   0  0  0  0  0  0  0  0  0  0  0  0
   56.8220   24.1140   44.1330 C   0  0  0  0  0  0  0  0  0  0  0  0
   56.9780   24.0410   45.5280 C   0  0  0  0  0  0  0  0  0  0  0  0
   56.9020   25.2170   46.3450 N   0  0  0  0  0  0  0  0  0  0  0  0
   56.4090   26.5030   45.9500 C   0  0  0  0  0  0  0  0  0  0  0  0
   55.1690   26.7100   46.0320 O   0  0  0  0  0  0  0  0  0  0  0  0
   57.3070   27.6140   45.5310 C   0  0  0  0  0  0  0  0  0  0  0  0
   58.7080   27.4680   45.5000 C   0  0  0  0  0  0  0  0  0  0  0  0
   59.5250   28.5300   45.1040 C   0  0  0  0  0  0  0  0  0  0  0  0
   58.9650   29.7740   44.8050 C   0  0  0  0  0  0  0  0  0  0  0  0
   57.5840   29.9640   44.9150 C   0  0  0  0  0  0  0  0  0  0  0  0
   57.0380   31.2860   44.7930 N   0  0  0  0  0  0  0  0  0  0  0  0
   57.3850   32.3550   45.6880 C   0  0  0  0  0  0  0  0  0  0  0  0
   56.5050   33.1960   46.0090 O   0  0  0  0  0  0  0  0  0  0  0  0
   58.7430   32.4530   46.2680 C   0  0  0  0  0  0  0  0  0  0  0  0
   59.1970   31.4950   47.1870 C   0  0  0  0  0  0  0  0  0  0  0  0
   60.5350   31.4870   47.5940 C   0  0  0  0  0  0  0  0  0  0  0  0
   61.4330   32.4430   47.0940 C   0  0  0  0  0  0  0  0  0  0  0  0
   62.9050   32.3390   47.4020 C   0  0  0  0  0  0  0  0  0  0  0  0
   63.3260   33.3960   48.3510 N   0  0  0  0  0  0  0  0  0  0  0  0
   64.1660   32.8680   49.4430 C   0  0  0  0  0  0  0  0  0  0  0  0
   63.3970   31.9140   50.3730 C   0  0  0  0  0  0  0  0  0  0  0  0
   62.0030   32.4000   50.6990 C   0  0  0  0  0  0  0  0  0  0  0  0
   61.4050   33.4270   49.9360 C   0  0  0  0  0  0  0  0  0  0  0  0
   60.0950   33.8340   50.2230 C   0  0  0  0  0  0  0  0  0  0  0  0
   59.3660   33.2100   51.2330 C   0  0  0  0  0  0  0  0  0  0  0  0
   59.9400   32.1770   51.9740 C   0  0  0  0  0  0  0  0  0  0  0  0
   61.2600   31.7570   51.7120 C   0  0  0  0  0  0  0  0  0  0  0  0
   61.8580   30.7110   52.4350 O   0  0  0  0  0  0  0  0  0  0  0  0
   61.7590   29.3320   52.0910 C   0  0  0  0  0  0  0  0  0  0  0  0
   62.1980   34.1820   48.8990 C   0  0  0  0  0  0  0  0  0  0  0  0
   60.9630   33.4410   46.2270 C   0  0  0  0  0  0  0  0  0  0  0  0
   59.6280   33.4510   45.8250 C   0  0  0  0  0  0  0  0  0  0  0  0
   56.7560   28.8740   45.2340 C   0  0  0  0  0  0  0  0  0  0  0  0
   56.6362   22.7233   49.4919 H   0  0  0  0  0  0  0  0  0  0  0  0
   55.5819   23.5654   48.3061 H   0  0  0  0  0  0  0  0  0  0  0  0
   55.6796   21.7717   48.3061 H   0  0  0  0  0  0  0  0  0  0  0  0
   57.4161   20.6568   45.8298 H   0  0  0  0  0  0  0  0  0  0  0  0
   57.1768   20.8083   43.3512 H   0  0  0  0  0  0  0  0  0  0  0  0
   56.7893   23.0190   42.2633 H   0  0  0  0  0  0  0  0  0  0  0  0
   56.6387   25.0861   43.6518 H   0  0  0  0  0  0  0  0  0  0  0  0
   59.1627   26.5093   45.7902 H   0  0  0  0  0  0  0  0  0  0  0  0
   60.6128   28.3858   45.0275 H   0  0  0  0  0  0  0  0  0  0  0  0
   59.6104   30.6045   44.4829 H   0  0  0  0  0  0  0  0  0  0  0  0
   58.4977   30.7471   47.5891 H   0  0  0  0  0  0  0  0  0  0  0  0
   60.8852   30.7281   48.3092 H   0  0  0  0  0  0  0  0  0  0  0  0
   63.1106   31.3541   47.8466 H   0  0  0  0  0  0  0  0  0  0  0  0
   63.4682   32.4649   46.4656 H   0  0  0  0  0  0  0  0  0  0  0  0
   65.0143   32.3232   49.0030 H   0  0  0  0  0  0  0  0  0  0  0  0
   64.5025   33.7231   50.0476 H   0  0  0  0  0  0  0  0  0  0  0  0
   63.3198   30.9328   49.8819 H   0  0  0  0  0  0  0  0  0  0  0  0
   63.9547   31.8578   51.3195 H   0  0  0  0  0  0  0  0  0  0  0  0
   59.6390   34.6523   49.6465 H   0  0  0  0  0  0  0  0  0  0  0  0
   58.3362   33.5324   51.4464 H   0  0  0  0  0  0  0  0  0  0  0  0
   59.3585   31.6865   52.7685 H   0  0  0  0  0  0  0  0  0  0  0  0
   61.7156   28.7273   53.0089 H   0  0  0  0  0  0  0  0  0  0  0  0
   60.8466   29.1663   51.4993 H   0  0  0  0  0  0  0  0  0  0  0  0
   62.6383   29.0377   51.4993 H   0  0  0  0  0  0  0  0  0  0  0  0
   61.5253   34.4538   48.0722 H   0  0  0  0  0  0  0  0  0  0  0  0
   62.6226   35.0698   49.3904 H   0  0  0  0  0  0  0  0  0  0  0  0
   61.6505   34.2187   45.8630 H   0  0  0  0  0  0  0  0  0  0  0  0
   59.2648   34.2455   45.1565 H   0  0  0  0  0  0  0  0  0  0  0  0
   55.6643   29.0076   45.2517 H   0  0  0  0  0  0  0  0  0  0  0  0
  1  2  1  0
  2  3  1  0
  3  4  2  0
  4  5  1  0
  5  6  2  0
  6  7  1  0
  7  8  2  0
  8  9  1  0
  9 10  1  0
 10 11  2  0
 10 12  1  0
 12 13  2  0
 13 14  1  0
 14 15  2  0
 15 16  1  0
 16 17  1  0
 17 18  1  0
 18 19  2  0
 18 20  1  0
 20 21  2  0
 21 22  1  0
 22 23  2  0
 23 24  1  0
 24 25  1  0
 25 26  1  0
 26 27  1  0
 27 28  1  0
 28 29  2  0
 29 30  1  0
 30 31  2  0
 31 32  1  0
 32 33  2  0
 33 34  1  0
 34 35  1  0
 29 36  1  0
 23 37  1  0
 37 38  2  0
 16 39  2  0
  8  3  1  0
 39 12  1  0
 38 20  1  0
 36 25  1  0
 33 28  1  0
  1 40  1  0
  1 41  1  0
  1 42  1  0
  4 43  1  0
  5 44  1  0
  6 45  1  0
  7 46  1  0
 13 47  1  0
 14 48  1  0
 15 49  1  0
 21 50  1  0
 22 51  1  0
 24 52  1  0
 24 53  1  0
 26 54  1  0
 26 55  1  0
 27 56  1  0
 27 57  1  0
 30 58  1  0
 31 59  1  0
 32 60  1  0
 35 61  1  0
 35 62  1  0
 35 63  1  0
 36 64  1  0
 36 65  1  0
 37 66  1  0
 38 67  1  0
 39 68  1  0
M  CHG  2   9  -1  17  -1
M  END
>  <UniqueID>  (51) 
44

>  <SMILES>  (51) 
COc1ccccc1[N-]C(=O)c1cccc([N-]C(=O)c2ccc(CN3CCc4c(cccc4OC)C3)cc2)c1

>  <Energy>  (51) 
92.22634199417674

>  <Genealogy>  (51) 
COc1ccccc1[N-]C(=O)c1cccc([N-]C(=O)c2ccc(CN3CCc4c(cccc4OC)C3)cc2)c1 (protonated)
COc1ccccc1[N-]C(=O)c1cccc([N-]C(=O)c2ccc(CN3CCc4c(cccc4OC)C3)cc2)c1 (3D coordinates assigned)
COc1ccccc1[N-]C(=O)c1cccc([N-]C(=O)c2ccc(CN3CCc4c(cccc4OC)C3)cc2)c1 (nonaromatic ring conformer: 92.22634199417674 kcal/mol)

>  <smiles>  (51) 
COc1ccccc1NC(=O)c1cccc(NC(=O)c2ccc(CN3CCc4c(cccc4OC)C3)cc2)c1

>  <score_type>  (51) 
oracle

>  <origin>  (51) 
adg

>  <m_score__min__energy>  (51) 
-13.720000000000001

>  <m_primary>  (51) 
energy

$$$$
51:0
     RDKit          3D

 52 55  0  0  0  0  0  0  0  0999 V2000
   61.0490   31.8210   51.5870 C   0  0  0  0  0  0  0  0  0  0  0  0
   60.4920   31.4070   50.2580 C   0  0  0  0  0  0  0  0  0  0  0  0
   59.1150   31.5050   50.0110 C   0  0  0  0  0  0  0  0  0  0  0  0
   58.5830   31.0590   48.7980 C   0  0  0  0  0  0  0  0  0  0  0  0
   59.4220   30.5050   47.8210 C   0  0  0  0  0  0  0  0  0  0  0  0
   58.8520   30.0000   46.5480 C   0  0  0  0  0  0  0  0  0  0  0  0
   58.2740   30.8960   45.6110 C   0  0  0  0  0  0  0  0  0  0  0  0
   58.2660   32.3910   45.9100 C   0  0  0  0  0  0  0  0  0  0  0  0
   59.5780   32.9690   45.6150 N   0  0  0  0  0  0  0  0  0  0  0  0
   59.9360   34.2280   46.7570 S   0  0  0  0  0  0  0  0  0  0  0  0
   60.0360   35.5500   46.0490 O   0  0  0  0  0  0  0  0  0  0  0  0
   58.8230   34.3120   47.7640 O   0  0  0  0  0  0  0  0  0  0  0  0
   61.4450   33.8730   47.5970 C   0  0  0  0  0  0  0  0  0  0  0  0
   61.6040   34.2140   48.9480 C   0  0  0  0  0  0  0  0  0  0  0  0
   62.8040   33.9330   49.6070 C   0  0  0  0  0  0  0  0  0  0  0  0
   63.8520   33.3080   48.9200 C   0  0  0  0  0  0  0  0  0  0  0  0
   65.3470   32.9290   49.7560 Cl  0  0  0  0  0  0  0  0  0  0  0  0
   63.7020   32.9800   47.5690 C   0  0  0  0  0  0  0  0  0  0  0  0
   62.5030   33.2670   46.9070 C   0  0  0  0  0  0  0  0  0  0  0  0
   57.6820   30.4050   44.4620 N   0  0  0  0  0  0  0  0  0  0  0  0
   57.0240   31.3260   43.5110 C   0  0  0  0  0  0  0  0  0  0  0  0
   57.7400   29.0660   44.1610 C   0  0  0  0  0  0  0  0  0  0  0  0
   57.2600   28.6400   43.0710 O   0  0  0  0  0  0  0  0  0  0  0  0
   58.3300   28.1510   45.0500 C   0  0  0  0  0  0  0  0  0  0  0  0
   58.3720   26.7730   44.7520 C   0  0  0  0  0  0  0  0  0  0  0  0
   58.9480   25.8700   45.6460 C   0  0  0  0  0  0  0  0  0  0  0  0
   59.4900   26.3260   46.8440 C   0  0  0  0  0  0  0  0  0  0  0  0
   59.4600   27.6860   47.1560 C   0  0  0  0  0  0  0  0  0  0  0  0
   58.8820   28.6190   46.2630 C   0  0  0  0  0  0  0  0  0  0  0  0
   60.7970   30.3970   48.0700 C   0  0  0  0  0  0  0  0  0  0  0  0
   61.3300   30.8440   49.2830 C   0  0  0  0  0  0  0  0  0  0  0  0
   60.4474   31.3739   52.3921 H   0  0  0  0  0  0  0  0  0  0  0  0
   62.0899   31.4756   51.6720 H   0  0  0  0  0  0  0  0  0  0  0  0
   61.0184   32.9173   51.6720 H   0  0  0  0  0  0  0  0  0  0  0  0
   58.4508   31.9348   50.7753 H   0  0  0  0  0  0  0  0  0  0  0  0
   57.5026   31.1429   48.6093 H   0  0  0  0  0  0  0  0  0  0  0  0
   57.5035   32.8825   45.2879 H   0  0  0  0  0  0  0  0  0  0  0  0
   58.0356   32.5444   46.9746 H   0  0  0  0  0  0  0  0  0  0  0  0
   59.5380   33.4260   44.6750 H   0  0  0  0  0  0  0  0  0  0  0  0
   60.7820   34.7040   49.4905 H   0  0  0  0  0  0  0  0  0  0  0  0
   62.9254   34.2031   50.6664 H   0  0  0  0  0  0  0  0  0  0  0  0
   64.5272   32.4960   47.0261 H   0  0  0  0  0  0  0  0  0  0  0  0
   62.3909   33.0161   45.8419 H   0  0  0  0  0  0  0  0  0  0  0  0
   56.4730   32.0973   44.0692 H   0  0  0  0  0  0  0  0  0  0  0  0
   57.7855   31.8051   42.8781 H   0  0  0  0  0  0  0  0  0  0  0  0
   56.3239   30.7609   42.8781 H   0  0  0  0  0  0  0  0  0  0  0  0
   57.9467   26.4069   43.8059 H   0  0  0  0  0  0  0  0  0  0  0  0
   58.9738   24.7973   45.4039 H   0  0  0  0  0  0  0  0  0  0  0  0
   59.9436   25.6121   47.5473 H   0  0  0  0  0  0  0  0  0  0  0  0
   59.8901   28.0362   48.1059 H   0  0  0  0  0  0  0  0  0  0  0  0
   61.4592   29.9591   47.3086 H   0  0  0  0  0  0  0  0  0  0  0  0
   62.4096   30.7541   49.4737 H   0  0  0  0  0  0  0  0  0  0  0  0
  1  2  1  0
  2  3  2  0
  3  4  1  0
  4  5  2  0
  5  6  1  0
  6  7  2  0
  7  8  1  0
  8  9  1  0
  9 10  1  0
 10 11  2  0
 10 12  2  0
 10 13  1  0
 13 14  2  0
 14 15  1  0
 15 16  2  0
 16 17  1  0
 16 18  1  0
 18 19  2  0
  7 20  1  0
 20 21  1  0
 20 22  1  0
 22 23  2  0
 22 24  1  0
 24 25  2  0
 25 26  1  0
 26 27  2  0
 27 28  1  0
 28 29  2  0
  5 30  1  0
 30 31  2  0
 31  2  1  0
 29  6  1  0
 19 13  1  0
 29 24  1  0
  1 32  1  0
  1 33  1  0
  1 34  1  0
  3 35  1  0
  4 36  1  0
  8 37  1  0
  8 38  1  0
  9 39  1  0
 14 40  1  0
 15 41  1  0
 18 42  1  0
 19 43  1  0
 21 44  1  0
 21 45  1  0
 21 46  1  0
 25 47  1  0
 26 48  1  0
 27 49  1  0
 28 50  1  0
 30 51  1  0
 31 52  1  0
M  END
>  <UniqueID>  (52) 
45

>  <SMILES>  (52) 
Cc1ccc(-c2c(CNS(=O)(=O)c3ccc(Cl)cc3)n(C)c(=O)c3ccccc23)cc1

>  <Energy>  (52) 
69.7859061872331

>  <Genealogy>  (52) 
Cc1ccc(-c2c(CNS(=O)(=O)c3ccc(Cl)cc3)n(C)c(=O)c3ccccc23)cc1 (3D coordinates assigned)
Cc1ccc(-c2c(CNS(=O)(=O)c3ccc(Cl)cc3)n(C)c(=O)c3ccccc23)cc1 (optimized conformer: 69.7859061872331 kcal/mol)

>  <smiles>  (52) 
Cc1ccc(-c2c(CNS(=O)(=O)c3ccc(Cl)cc3)n(C)c(=O)c3ccccc23)cc1

>  <score_type>  (52) 
oracle

>  <origin>  (52) 
adg

>  <m_score__min__energy>  (52) 
-9.5999999999999996

>  <m_primary>  (52) 
energy

$$$$
52:0
     RDKit          3D

 34 37  0  0  0  0  0  0  0  0999 V2000
   62.6260   34.2250   50.7440 N   0  0  0  0  0  0  0  0  0  0  0  0
   62.2760   33.2000   49.8150 C   0  0  0  0  0  0  0  0  0  0  0  0
   62.9660   33.0560   48.7700 O   0  0  0  0  0  0  0  0  0  0  0  0
   61.1170   32.3140   50.0730 C   0  0  0  0  0  0  0  0  0  0  0  0
   61.0630   31.0140   49.4970 C   0  0  0  0  0  0  0  0  0  0  0  0
   59.9670   30.1660   49.7360 C   0  0  0  0  0  0  0  0  0  0  0  0
   58.9450   30.6430   50.5500 C   0  0  0  0  0  0  0  0  0  0  0  0
   57.8190   30.0100   50.9070 N   0  0  0  0  0  0  0  0  0  0  0  0
   57.1980   30.9280   51.6970 C   0  0  0  0  0  0  0  0  0  0  0  0
   55.8880   30.6810   52.3400 C   0  0  0  0  0  0  0  0  0  0  0  0
   55.8220   30.2900   53.7020 C   0  0  0  0  0  0  0  0  0  0  0  0
   54.5850   30.0540   54.3230 C   0  0  0  0  0  0  0  0  0  0  0  0
   53.4300   30.2130   53.5630 C   0  0  0  0  0  0  0  0  0  0  0  0
   52.1640   30.0350   53.9750 N   0  0  0  0  0  0  0  0  0  0  0  0
   51.3810   30.3010   52.9070 C   0  0  0  0  0  0  0  0  0  0  0  0
   52.1590   30.6520   51.8040 C   0  0  0  0  0  0  0  0  0  0  0  0
   51.6360   31.0060   50.4710 C   0  0  0  0  0  0  0  0  0  0  0  0
   51.0270   32.2720   50.2330 N   0  0  0  0  0  0  0  0  0  0  0  0
   51.7310   30.1810   49.5240 O   0  0  0  0  0  0  0  0  0  0  0  0
   53.4750   30.5910   52.2440 C   0  0  0  0  0  0  0  0  0  0  0  0
   54.6910   30.8340   51.6000 C   0  0  0  0  0  0  0  0  0  0  0  0
   57.8860   32.0930   51.8430 N   0  0  0  0  0  0  0  0  0  0  0  0
   58.9850   31.8800   51.1060 C   0  0  0  0  0  0  0  0  0  0  0  0
   60.0510   32.7520   50.8960 C   0  0  0  0  0  0  0  0  0  0  0  0
   62.2260   34.2340   51.7090 H   0  0  0  0  0  0  0  0  0  0  0  0
   61.8883   30.6683   48.8572 H   0  0  0  0  0  0  0  0  0  0  0  0
   59.9195   29.1597   49.2943 H   0  0  0  0  0  0  0  0  0  0  0  0
   56.7511   30.1702   54.2786 H   0  0  0  0  0  0  0  0  0  0  0  0
   54.5304   29.7522   55.3794 H   0  0  0  0  0  0  0  0  0  0  0  0
   51.8440   29.7480   54.9270 H   0  0  0  0  0  0  0  0  0  0  0  0
   50.2823   30.2481   52.9072 H   0  0  0  0  0  0  0  0  0  0  0  0
   50.1100   32.3420   49.7400 H   0  0  0  0  0  0  0  0  0  0  0  0
   54.7175   31.1370   50.5429 H   0  0  0  0  0  0  0  0  0  0  0  0
   60.0643   33.7512   51.3558 H   0  0  0  0  0  0  0  0  0  0  0  0
  1  2  1  0
  2  3  2  0
  2  4  1  0
  4  5  2  0
  5  6  1  0
  6  7  2  0
  7  8  1  0
  8  9  1  0
  9 10  1  0
 10 11  2  0
 11 12  1  0
 12 13  2  0
 13 14  1  0
 14 15  1  0
 15 16  2  0
 16 17  1  0
 17 18  1  0
 17 19  2  0
 16 20  1  0
 20 21  2  0
  9 22  2  0
 22 23  1  0
 23 24  2  0
 24  4  1  0
 23  7  1  0
 21 10  1  0
 20 13  1  0
  1 25  1  0
  5 26  1  0
  6 27  1  0
 11 28  1  0
 12 29  1  0
 14 30  1  0
 15 31  1  0
 18 32  1  0
 21 33  1  0
 24 34  1  0
M  CHG  3   1  -1   8  -1  18  -1
M  END
>  <UniqueID>  (53) 
46

>  <SMILES>  (53) 
[NH-]C(=O)c1ccc2[n-]c(-c3ccc4[nH]cc(C([NH-])=O)c4c3)nc2c1

>  <Energy>  (53) 
107.41532830682429

>  <Genealogy>  (53) 
[NH-]C(=O)c1ccc2[n-]c(-c3ccc4[nH]cc(C([NH-])=O)c4c3)nc2c1 (protonated)
[NH-]C(=O)c1ccc2[n-]c(-c3ccc4[nH]cc(C([NH-])=O)c4c3)nc2c1 (3D coordinates assigned)
[NH-]C(=O)c1ccc2[n-]c(-c3ccc4[nH]cc(C([NH-])=O)c4c3)nc2c1 (optimized conformer: 107.41532830682429 kcal/mol)

>  <smiles>  (53) 
NC(=O)c1ccc2[nH]c(-c3ccc4[nH]cc(C(N)=O)c4c3)nc2c1

>  <score_type>  (53) 
oracle

>  <origin>  (53) 
adg

>  <m_score__min__energy>  (53) 
-12.33

>  <m_primary>  (53) 
energy

$$$$
53:0
     RDKit          3D

 38 40  0  0  0  0  0  0  0  0999 V2000
   60.0340   26.9512   46.1549 H   0  0  0  0  0  0  0  0  0  0  0  0
   58.9380   26.8830   46.0900 C   0  0  0  0  0  0  0  0  0  0  0  0
   58.2160   27.9510   45.6630 N   0  0  0  0  0  0  0  0  0  0  0  0
   56.8580   27.9260   45.5590 C   0  0  0  0  0  0  0  0  0  0  0  0
   56.2640   28.9940   45.0990 N   0  0  0  0  0  0  0  0  0  0  0  0
   56.8610   30.1770   44.5510 C   0  0  0  0  0  0  0  0  0  0  0  0
   57.2150   30.1850   43.3440 O   0  0  0  0  0  0  0  0  0  0  0  0
   57.0170   31.3700   45.3340 N   0  0  0  0  0  0  0  0  0  0  0  0
   58.2720   31.9790   45.6670 C   0  0  0  0  0  0  0  0  0  0  0  0
   58.5810   33.2890   45.2640 C   0  0  0  0  0  0  0  0  0  0  0  0
   57.8646   33.8581   44.6533 H   0  0  0  0  0  0  0  0  0  0  0  0
   59.7970   33.8720   45.6370 C   0  0  0  0  0  0  0  0  0  0  0  0
   60.0338   34.8970   45.3155 H   0  0  0  0  0  0  0  0  0  0  0  0
   60.7160   33.1560   46.4190 C   0  0  0  0  0  0  0  0  0  0  0  0
   61.9850   33.7900   46.8410 C   0  0  0  0  0  0  0  0  0  0  0  0
   62.9070   33.9500   45.9990 O   0  0  0  0  0  0  0  0  0  0  0  0
   62.2150   34.1890   48.1990 N   0  0  0  0  0  0  0  0  0  0  0  0
   61.4460   33.7760   49.3400 C   0  0  0  0  0  0  0  0  0  0  0  0
   61.9850   32.9300   50.3270 C   0  0  0  0  0  0  0  0  0  0  0  0
   63.0260   32.5843   50.2447 H   0  0  0  0  0  0  0  0  0  0  0  0
   61.2000   32.5280   51.4120 C   0  0  0  0  0  0  0  0  0  0  0  0
   61.6267   31.8733   52.1861 H   0  0  0  0  0  0  0  0  0  0  0  0
   59.8740   32.9570   51.5140 C   0  0  0  0  0  0  0  0  0  0  0  0
   59.2601   32.6466   52.3723 H   0  0  0  0  0  0  0  0  0  0  0  0
   59.3280   33.7800   50.5260 C   0  0  0  0  0  0  0  0  0  0  0  0
   58.2825   34.1129   50.6042 H   0  0  0  0  0  0  0  0  0  0  0  0
   60.1090   34.1810   49.4380 C   0  0  0  0  0  0  0  0  0  0  0  0
   59.6712   34.8177   48.6551 H   0  0  0  0  0  0  0  0  0  0  0  0
   60.4230   31.8290   46.7800 C   0  0  0  0  0  0  0  0  0  0  0  0
   61.1500   31.2476   47.3661 H   0  0  0  0  0  0  0  0  0  0  0  0
   59.2110   31.2450   46.3970 C   0  0  0  0  0  0  0  0  0  0  0  0
   58.9957   30.2019   46.6720 H   0  0  0  0  0  0  0  0  0  0  0  0
   56.1680   26.7540   45.9660 C   0  0  0  0  0  0  0  0  0  0  0  0
   54.7800   26.6860   46.0090 O   0  0  0  0  0  0  0  0  0  0  0  0
   56.9020   25.6420   46.3880 C   0  0  0  0  0  0  0  0  0  0  0  0
   56.3800   24.7173   46.6752 H   0  0  0  0  0  0  0  0  0  0  0  0
   58.2920   25.7010   46.4460 C   0  0  0  0  0  0  0  0  0  0  0  0
   58.8732   24.8247   46.7691 H   0  0  0  0  0  0  0  0  0  0  0  0
  1  2  1  0
  2  3  1  0
  3  4  1  0
  4  5  2  0
  5  6  1  0
  6  7  2  0
  6  8  1  0
  8  9  1  0
  9 10  2  0
 10 11  1  0
 10 12  1  0
 12 13  1  0
 12 14  2  0
 14 15  1  0
 15 16  2  0
 15 17  1  0
 17 18  1  0
 18 19  2  0
 19 20  1  0
 19 21  1  0
 21 22  1  0
 21 23  2  0
 23 24  1  0
 23 25  1  0
 25 26  1  0
 25 27  2  0
 27 28  1  0
 14 29  1  0
 29 30  1  0
 29 31  2  0
 31 32  1  0
  4 33  1  0
 33 34  1  0
 33 35  2  0
 35 36  1  0
 35 37  1  0
 37 38  1  0
 37  2  2  0
 31  9  1  0
 27 18  1  0
M  CHG  4   3  -1   8  -1  17  -1  34  -1
M  END
>  <UniqueID>  (54) 
47

>  <SMILES>  (54) 
O=C(/N=c1/[n-]cccc1[O-])[N-]c1ccc(C(=O)[N-]c2ccccc2)cc1

>  <Energy>  (54) 
62.169663866305925

>  <Genealogy>  (54) 
O=C(N=c1[n-]cccc1[O-])[N-]c1ccc(C(=O)[N-]c2ccccc2)cc1 (protonated)
O=C(/N=c1/[n-]cccc1[O-])[N-]c1ccc(C(=O)[N-]c2ccccc2)cc1 (cis-trans isomerization)
O=C(/N=c1/[n-]cccc1[O-])[N-]c1ccc(C(=O)[N-]c2ccccc2)cc1 (3D coordinates assigned)
O=C(/N=c1/[n-]cccc1[O-])[N-]c1ccc(C(=O)[N-]c2ccccc2)cc1 (optimized conformer: 62.169663866305925 kcal/mol)

>  <smiles>  (54) 
O=C(N=c1[nH]cccc1O)Nc1ccc(C(=O)Nc2ccccc2)cc1

>  <score_type>  (54) 
oracle

>  <origin>  (54) 
adg

>  <m_score__min__energy>  (54) 
-15.76

>  <m_primary>  (54) 
energy

$$$$
54:0
     RDKit          3D

 40 41  0  0  0  0  0  0  0  0999 V2000
   57.0060   24.1780   46.8520 C   0  0  0  0  0  0  0  0  0  0  0  0
   57.3450   25.5350   46.4070 N   0  0  0  0  0  0  0  0  0  0  0  0
   58.6580   25.9120   46.3330 C   0  0  0  0  0  0  0  0  0  0  0  0
   59.0070   27.1880   45.8900 C   0  0  0  0  0  0  0  0  0  0  0  0
   58.0090   28.0860   45.5260 C   0  0  0  0  0  0  0  0  0  0  0  0
   56.6610   27.7090   45.6170 C   0  0  0  0  0  0  0  0  0  0  0  0
   55.5980   28.5910   45.2250 N   0  0  0  0  0  0  0  0  0  0  0  0
   55.7070   29.7670   44.4120 C   0  0  0  0  0  0  0  0  0  0  0  0
   55.1400   29.8280   43.2890 O   0  0  0  0  0  0  0  0  0  0  0  0
   56.5080   30.8690   44.8460 N   0  0  0  0  0  0  0  0  0  0  0  0
   57.9020   31.0580   44.4570 C   0  0  0  0  0  0  0  0  0  0  0  0
   58.4690   32.2960   45.1080 C   0  0  0  0  0  0  0  0  0  0  0  0
   58.1310   33.5640   44.6110 C   0  0  0  0  0  0  0  0  0  0  0  0
   58.6260   34.7160   45.2210 C   0  0  0  0  0  0  0  0  0  0  0  0
   59.4630   34.6170   46.3340 C   0  0  0  0  0  0  0  0  0  0  0  0
   59.8160   33.3560   46.8490 C   0  0  0  0  0  0  0  0  0  0  0  0
   60.6750   33.2280   47.9920 N   0  0  0  0  0  0  0  0  0  0  0  0
   62.0090   32.1290   48.1290 S   0  0  0  0  0  0  0  0  0  0  0  0
   63.4330   33.0230   48.7060 C   0  0  0  0  0  0  0  0  0  0  0  0
   61.6780   31.0440   49.1140 O   0  0  0  0  0  0  0  0  0  0  0  0
   62.3180   31.5290   46.7860 O   0  0  0  0  0  0  0  0  0  0  0  0
   59.3150   32.1920   46.2310 C   0  0  0  0  0  0  0  0  0  0  0  0
   59.6440   30.9260   46.7220 O   0  0  0  0  0  0  0  0  0  0  0  0
   56.3500   26.4080   46.0440 C   0  0  0  0  0  0  0  0  0  0  0  0
   55.1390   26.0480   46.0940 O   0  0  0  0  0  0  0  0  0  0  0  0
   56.9975   24.1441   47.9514 H   0  0  0  0  0  0  0  0  0  0  0  0
   56.0118   23.9042   46.4690 H   0  0  0  0  0  0  0  0  0  0  0  0
   57.7546   23.4688   46.4690 H   0  0  0  0  0  0  0  0  0  0  0  0
   59.4459   25.2024   46.6255 H   0  0  0  0  0  0  0  0  0  0  0  0
   60.0652   27.4822   45.8289 H   0  0  0  0  0  0  0  0  0  0  0  0
   58.2766   29.0908   45.1671 H   0  0  0  0  0  0  0  0  0  0  0  0
   58.4879   30.1822   44.7728 H   0  0  0  0  0  0  0  0  0  0  0  0
   57.9539   31.1749   43.3645 H   0  0  0  0  0  0  0  0  0  0  0  0
   57.4715   33.6497   43.7348 H   0  0  0  0  0  0  0  0  0  0  0  0
   58.3562   35.7058   44.8241 H   0  0  0  0  0  0  0  0  0  0  0  0
   59.8487   35.5300   46.8111 H   0  0  0  0  0  0  0  0  0  0  0  0
   63.4416   33.0284   49.8060 H   0  0  0  0  0  0  0  0  0  0  0  0
   64.3468   32.5362   48.3345 H   0  0  0  0  0  0  0  0  0  0  0  0
   63.3917   34.0576   48.3345 H   0  0  0  0  0  0  0  0  0  0  0  0
   60.3740   30.7780   47.4070 H   0  0  0  0  0  0  0  0  0  0  0  0
  1  2  1  0
  2  3  1  0
  3  4  2  0
  4  5  1  0
  5  6  2  0
  6  7  1  0
  7  8  1  0
  8  9  2  0
  8 10  1  0
 10 11  1  0
 11 12  1  0
 12 13  2  0
 13 14  1  0
 14 15  2  0
 15 16  1  0
 16 17  1  0
 17 18  1  0
 18 19  1  0
 18 20  2  0
 18 21  2  0
 16 22  2  0
 22 23  1  0
  6 24  1  0
 24 25  2  0
 24  2  1  0
 22 12  1  0
  1 26  1  0
  1 27  1  0
  1 28  1  0
  3 29  1  0
  4 30  1  0
  5 31  1  0
 11 32  1  0
 11 33  1  0
 13 34  1  0
 14 35  1  0
 15 36  1  0
 19 37  1  0
 19 38  1  0
 19 39  1  0
 23 40  1  0
M  CHG  3   7  -1  10  -1  17  -1
M  END
>  <UniqueID>  (55) 
48

>  <SMILES>  (55) 
Cn1cccc([N-]C(=O)[N-]Cc2cccc([N-]S(C)(=O)=O)c2O)c1=O

>  <Energy>  (55) 
42.70599475513866

>  <Genealogy>  (55) 
Cn1cccc([N-]C(=O)[N-]Cc2cccc([N-]S(C)(=O)=O)c2O)c1=O (protonated)
Cn1cccc([N-]C(=O)[N-]Cc2cccc([N-]S(C)(=O)=O)c2O)c1=O (3D coordinates assigned)
Cn1cccc([N-]C(=O)[N-]Cc2cccc([N-]S(C)(=O)=O)c2O)c1=O (optimized conformer: 42.70599475513866 kcal/mol)

>  <smiles>  (55) 
Cn1cccc(NC(=O)NCc2cccc(NS(C)(=O)=O)c2O)c1=O

>  <score_type>  (55) 
oracle

>  <origin>  (55) 
adg

>  <m_score__min__energy>  (55) 
-13.529999999999999

>  <m_primary>  (55) 
energy

$$$$
55:0
     RDKit          3D

 33 34  0  0  0  0  0  0  0  0999 V2000
   55.1600   30.4690   45.2650 H   0  0  0  0  0  0  0  0  0  0  0  0
   55.3920   29.4860   45.1810 O   0  0  0  0  0  0  0  0  0  0  0  0
   56.7050   29.0240   45.2520 C   0  0  0  0  0  0  0  0  0  0  0  0
   56.9300   27.6480   45.3740 C   0  0  0  0  0  0  0  0  0  0  0  0
   56.0746   26.9584   45.4272 H   0  0  0  0  0  0  0  0  0  0  0  0
   58.2350   27.1410   45.4290 C   0  0  0  0  0  0  0  0  0  0  0  0
   58.4410   25.6880   45.5740 C   0  0  0  0  0  0  0  0  0  0  0  0
   59.4129   25.3413   45.9550 H   0  0  0  0  0  0  0  0  0  0  0  0
   57.5190   24.7620   45.2710 C   0  0  0  0  0  0  0  0  0  0  0  0
   56.7891   24.4904   46.0478 H   0  0  0  0  0  0  0  0  0  0  0  0
   57.4170   24.0670   43.9320 C   0  0  1  0  0  0  0  0  0  0  0  0
   58.1267   24.5888   43.2732 H   0  0  0  0  0  0  0  0  0  0  0  0
   57.7110   22.6450   44.0730 N   0  0  0  0  0  0  0  0  0  0  0  0
   59.0020   22.0650   44.4300 C   0  0  0  0  0  0  0  0  0  0  0  0
   59.0949   22.0233   45.5253 H   0  0  0  0  0  0  0  0  0  0  0  0
   59.0739   21.0481   44.0169 H   0  0  0  0  0  0  0  0  0  0  0  0
   59.8101   22.6866   44.0169 H   0  0  0  0  0  0  0  0  0  0  0  0
   56.5980   21.9280   43.5880 C   0  0  0  0  0  0  0  0  0  0  0  0
   56.5400   20.6720   43.5340 O   0  0  0  0  0  0  0  0  0  0  0  0
   55.5850   22.7560   43.1670 O   0  0  0  0  0  0  0  0  0  0  0  0
   55.9690   24.1140   43.3550 C   0  0  0  0  0  0  0  0  0  0  0  0
   55.2896   24.6101   44.0638 H   0  0  0  0  0  0  0  0  0  0  0  0
   55.9251   24.6823   42.4142 H   0  0  0  0  0  0  0  0  0  0  0  0
   59.3190   28.0290   45.4080 C   0  0  0  0  0  0  0  0  0  0  0  0
   60.3453   27.6414   45.4880 H   0  0  0  0  0  0  0  0  0  0  0  0
   59.1030   29.4040   45.2860 C   0  0  0  0  0  0  0  0  0  0  0  0
   59.9609   30.0918   45.2562 H   0  0  0  0  0  0  0  0  0  0  0  0
   57.7940   29.9140   45.2010 C   0  0  0  0  0  0  0  0  0  0  0  0
   57.5390   31.2900   45.0730 O   0  0  0  0  0  0  0  0  0  0  0  0
   57.8530   32.0650   43.9210 C   0  0  0  0  0  0  0  0  0  0  0  0
   58.2490   33.0425   44.2335 H   0  0  0  0  0  0  0  0  0  0  0  0
   58.6087   31.5384   43.3197 H   0  0  0  0  0  0  0  0  0  0  0  0
   56.9439   32.2130   43.3197 H   0  0  0  0  0  0  0  0  0  0  0  0
  1  2  1  0
  2  3  1  0
  3  4  2  0
  4  5  1  0
  4  6  1  0
  6  7  1  0
  7  8  1  0
  7  9  2  0
  9 10  1  0
  9 11  1  0
 11 12  1  6
 11 13  1  0
 13 14  1  0
 14 15  1  0
 14 16  1  0
 14 17  1  0
 13 18  1  0
 18 19  2  0
 18 20  1  0
 20 21  1  0
 21 22  1  0
 21 23  1  0
  6 24  2  0
 24 25  1  0
 24 26  1  0
 26 27  1  0
 26 28  2  0
 28 29  1  0
 29 30  1  0
 30 31  1  0
 30 32  1  0
 30 33  1  0
 28  3  1  0
 21 11  1  0
M  END
>  <UniqueID>  (56) 
49

>  <SMILES>  (56) 
COc1ccc(/C=C\[C@@H]2COC(=O)N2C)cc1O

>  <Energy>  (56) 
50.14078132706096

>  <Genealogy>  (56) 
COc1ccc(C=C[C@@H]2COC(=O)N2C)cc1O (chirality)
COc1ccc(/C=C\[C@@H]2COC(=O)N2C)cc1O (cis-trans isomerization)
COc1ccc(/C=C\[C@@H]2COC(=O)N2C)cc1O (3D coordinates assigned)
COc1ccc(/C=C\[C@@H]2COC(=O)N2C)cc1O (nonaromatic ring conformer: 50.14078132706096 kcal/mol)

>  <smiles>  (56) 
COc1ccc(C=CC2COC(=O)N2C)cc1O

>  <score_type>  (56) 
oracle

>  <origin>  (56) 
adg

>  <m_score__min__energy>  (56) 
-7.0499999999999998

>  <m_primary>  (56) 
energy

$$$$
56:0
     RDKit          3D

 65 69  0  0  0  0  0  0  0  0999 V2000
   58.6910   30.8250   43.7680 O   0  0  0  0  0  0  0  0  0  0  0  0
   57.9700   29.9860   44.3670 C   0  0  0  0  0  0  0  0  0  0  0  0
   58.4070   28.7800   44.7670 N   0  0  0  0  0  0  0  0  0  0  0  0
   57.2920   28.2760   45.3450 C   0  0  0  0  0  0  0  0  0  0  0  0
   57.1960   26.9220   45.9590 C   0  0  0  0  0  0  0  0  0  0  0  0
   56.3510   25.9690   45.3570 C   0  0  0  0  0  0  0  0  0  0  0  0
   56.2520   24.6730   45.8670 C   0  0  0  0  0  0  0  0  0  0  0  0
   56.9930   24.3030   46.9870 C   0  0  0  0  0  0  0  0  0  0  0  0
   57.8310   25.2310   47.6070 C   0  0  0  0  0  0  0  0  0  0  0  0
   57.9360   26.5410   47.1120 C   0  0  0  0  0  0  0  0  0  0  0  0
   58.8100   27.4820   47.8360 C   0  0  0  0  0  0  0  0  0  0  0  0
   60.0480   27.0510   48.3310 C   0  0  0  0  0  0  0  0  0  0  0  0
   60.9050   27.9560   48.9630 C   0  0  0  0  0  0  0  0  0  0  0  0
   60.5370   29.3050   49.1020 C   0  0  0  0  0  0  0  0  0  0  0  0
   61.4800   30.2860   49.7590 C   0  0  0  0  0  0  0  0  0  0  0  0
   60.7930   31.6080   50.0610 C   0  0  0  0  0  0  0  0  0  0  0  0
   60.2340   31.8960   51.3270 C   0  0  0  0  0  0  0  0  0  0  0  0
   60.1960   30.9110   52.4720 C   0  0  0  0  0  0  0  0  0  0  0  0
   58.8330   30.2130   52.5790 C   0  0  0  0  0  0  0  0  0  0  0  0
   57.6890   31.2050   52.8360 C   0  0  0  0  0  0  0  0  0  0  0  0
   56.7570   31.3310   51.6290 C   0  0  0  0  0  0  0  0  0  0  0  0
   57.4170   31.9430   50.5520 O   0  0  0  0  0  0  0  0  0  0  0  0
   59.6690   33.1120   51.5300 N   0  0  0  0  0  0  0  0  0  0  0  0
   59.6280   34.0350   50.5740 N   0  0  0  0  0  0  0  0  0  0  0  0
   60.1450   33.8150   49.3660 N   0  0  0  0  0  0  0  0  0  0  0  0
   60.0190   34.8710   48.3550 C   0  0  0  0  0  0  0  0  0  0  0  0
   59.3460   34.3290   47.1230 C   0  0  0  0  0  0  0  0  0  0  0  0
   59.8020   34.7080   45.8490 C   0  0  0  0  0  0  0  0  0  0  0  0
   59.1480   34.2490   44.7020 C   0  0  0  0  0  0  0  0  0  0  0  0
   58.0300   33.4160   44.8140 C   0  0  0  0  0  0  0  0  0  0  0  0
   57.3790   32.9780   43.6610 O   0  0  0  0  0  0  0  0  0  0  0  0
   57.5710   33.0350   46.0820 C   0  0  0  0  0  0  0  0  0  0  0  0
   58.2240   33.4920   47.2320 C   0  0  0  0  0  0  0  0  0  0  0  0
   60.7310   32.6140   49.0780 C   0  0  0  0  0  0  0  0  0  0  0  0
   61.2170   32.4090   47.9300 O   0  0  0  0  0  0  0  0  0  0  0  0
   59.2710   29.7190   48.6540 C   0  0  0  0  0  0  0  0  0  0  0  0
   58.4140   28.8140   48.0180 C   0  0  0  0  0  0  0  0  0  0  0  0
   56.2530   29.1380   45.2800 N   0  0  0  0  0  0  0  0  0  0  0  0
   56.7140   30.1860   44.6680 O   0  0  0  0  0  0  0  0  0  0  0  0
   55.7607   26.2500   44.4724 H   0  0  0  0  0  0  0  0  0  0  0  0
   55.5872   23.9423   45.3831 H   0  0  0  0  0  0  0  0  0  0  0  0
   56.9177   23.2794   47.3828 H   0  0  0  0  0  0  0  0  0  0  0  0
   58.4143   24.9338   48.4910 H   0  0  0  0  0  0  0  0  0  0  0  0
   60.3460   25.9978   48.2219 H   0  0  0  0  0  0  0  0  0  0  0  0
   61.8733   27.6103   49.3540 H   0  0  0  0  0  0  0  0  0  0  0  0
   61.8475   29.8517   50.7004 H   0  0  0  0  0  0  0  0  0  0  0  0
   62.3108   30.4813   49.0650 H   0  0  0  0  0  0  0  0  0  0  0  0
   60.9742   30.1500   52.3129 H   0  0  0  0  0  0  0  0  0  0  0  0
   60.3702   31.4656   53.4058 H   0  0  0  0  0  0  0  0  0  0  0  0
   58.6339   29.6795   51.6379 H   0  0  0  0  0  0  0  0  0  0  0  0
   58.8757   29.5200   53.4322 H   0  0  0  0  0  0  0  0  0  0  0  0
   57.1049   30.8571   53.7008 H   0  0  0  0  0  0  0  0  0  0  0  0
   58.1329   32.1932   53.0269 H   0  0  0  0  0  0  0  0  0  0  0  0
   56.4233   30.3280   51.3247 H   0  0  0  0  0  0  0  0  0  0  0  0
   55.8942   31.9516   51.9127 H   0  0  0  0  0  0  0  0  0  0  0  0
   57.9480   32.6920   50.9290 H   0  0  0  0  0  0  0  0  0  0  0  0
   59.4185   35.6968   48.7642 H   0  0  0  0  0  0  0  0  0  0  0  0
   61.0219   35.2348   48.0871 H   0  0  0  0  0  0  0  0  0  0  0  0
   60.6767   35.3682   45.7540 H   0  0  0  0  0  0  0  0  0  0  0  0
   59.5140   34.5440   43.7075 H   0  0  0  0  0  0  0  0  0  0  0  0
   57.0700   32.0190   43.5610 H   0  0  0  0  0  0  0  0  0  0  0  0
   56.6955   32.3753   46.1735 H   0  0  0  0  0  0  0  0  0  0  0  0
   57.8569   33.1944   48.2253 H   0  0  0  0  0  0  0  0  0  0  0  0
   58.9518   30.7609   48.8042 H   0  0  0  0  0  0  0  0  0  0  0  0
   57.4288   29.1482   47.6606 H   0  0  0  0  0  0  0  0  0  0  0  0
  1  2  2  0
  2  3  1  0
  3  4  2  0
  4  5  1  0
  5  6  2  0
  6  7  1  0
  7  8  2  0
  8  9  1  0
  9 10  2  0
 10 11  1  0
 11 12  2  0
 12 13  1  0
 13 14  2  0
 14 15  1  0
 15 16  1  0
 16 17  2  0
 17 18  1  0
 18 19  1  0
 19 20  1  0
 20 21  1  0
 21 22  1  0
 17 23  1  0
 23 24  2  0
 24 25  1  0
 25 26  1  0
 26 27  1  0
 27 28  2  0
 28 29  1  0
 29 30  2  0
 30 31  1  0
 30 32  1  0
 32 33  2  0
 25 34  1  0
 34 35  2  0
 14 36  1  0
 36 37  2  0
  4 38  1  0
 38 39  1  0
 39  2  1  0
 10  5  1  0
 37 11  1  0
 34 16  1  0
 33 27  1  0
  6 40  1  0
  7 41  1  0
  8 42  1  0
  9 43  1  0
 12 44  1  0
 13 45  1  0
 15 46  1  0
 15 47  1  0
 18 48  1  0
 18 49  1  0
 19 50  1  0
 19 51  1  0
 20 52  1  0
 20 53  1  0
 21 54  1  0
 21 55  1  0
 22 56  1  0
 26 57  1  0
 26 58  1  0
 28 59  1  0
 29 60  1  0
 31 61  1  0
 32 62  1  0
 33 63  1  0
 36 64  1  0
 37 65  1  0
M  CHG  1  38  -1
M  END
>  <UniqueID>  (57) 
50

>  <SMILES>  (57) 
O=c1nc(-c2ccccc2-c2ccc(Cc3c(CCCCO)nnn(Cc4ccc(O)cc4)c3=O)cc2)[n-]o1

>  <Energy>  (57) 
112.3960413542053

>  <Genealogy>  (57) 
O=c1nc(-c2ccccc2-c2ccc(Cc3c(CCCCO)nnn(Cc4ccc(O)cc4)c3=O)cc2)[n-]o1 (protonated)
O=c1nc(-c2ccccc2-c2ccc(Cc3c(CCCCO)nnn(Cc4ccc(O)cc4)c3=O)cc2)[n-]o1 (3D coordinates assigned)
O=c1nc(-c2ccccc2-c2ccc(Cc3c(CCCCO)nnn(Cc4ccc(O)cc4)c3=O)cc2)[n-]o1 (optimized conformer: 112.3960413542053 kcal/mol)

>  <smiles>  (57) 
O=c1nc(-c2ccccc2-c2ccc(Cc3c(CCCCO)nnn(Cc4ccc(O)cc4)c3=O)cc2)[nH]o1

>  <score_type>  (57) 
oracle

>  <origin>  (57) 
adg

>  <m_score__min__energy>  (57) 
-11.31

>  <m_primary>  (57) 
energy

$$$$
57:0
     RDKit          3D

 49 53  0  0  0  0  0  0  0  0999 V2000
   55.1820   29.3360   44.1610 O   0  0  0  0  0  0  0  0  0  0  0  0
   56.2240   29.5090   44.8290 C   0  0  0  0  0  0  0  0  0  0  0  0
   56.7400   30.7480   44.9390 N   0  0  0  0  0  0  0  0  0  0  0  0
   57.8580   31.0180   45.6380 C   0  0  0  0  0  0  0  0  0  0  0  0
   58.3520   32.3860   45.7090 C   0  0  0  0  0  0  0  0  0  0  0  0
   58.2030   33.2990   44.6880 C   0  0  0  0  0  0  0  0  0  0  0  0
   58.6740   34.5950   44.7600 C   0  0  0  0  0  0  0  0  0  0  0  0
   59.3070   34.9630   45.8920 N   0  0  0  0  0  0  0  0  0  0  0  0
   59.4880   34.1250   46.9250 C   0  0  0  0  0  0  0  0  0  0  0  0
   60.1900   34.6170   48.1180 C   0  0  0  0  0  0  0  0  0  0  0  0
   61.5740   34.0760   48.1440 C   0  0  0  0  0  0  0  0  0  0  0  0
   62.1670   33.9720   49.4010 C   0  0  0  0  0  0  0  0  0  0  0  0
   63.4510   33.4820   49.5550 C   0  0  0  0  0  0  0  0  0  0  0  0
   64.1350   33.0960   48.4150 C   0  0  0  0  0  0  0  0  0  0  0  0
   63.5470   33.1980   47.1510 C   0  0  0  0  0  0  0  0  0  0  0  0
   62.2570   33.6910   47.0080 C   0  0  0  0  0  0  0  0  0  0  0  0
   59.0080   32.8180   46.8410 C   0  0  0  0  0  0  0  0  0  0  0  0
   58.4600   29.9790   46.2400 N   0  0  0  0  0  0  0  0  0  0  0  0
   57.9960   28.7180   46.1700 C   0  0  0  0  0  0  0  0  0  0  0  0
   58.4170   27.4910   46.6870 C   0  0  0  0  0  0  0  0  0  0  0  0
   57.5380   26.5300   46.2790 N   0  0  0  0  0  0  0  0  0  0  0  0
   57.6630   25.1300   46.6300 C   0  0  0  0  0  0  0  0  0  0  0  0
   57.4140   24.2380   45.4670 C   0  0  0  0  0  0  0  0  0  0  0  0
   58.3340   23.2310   45.2020 C   0  0  0  0  0  0  0  0  0  0  0  0
   58.1340   22.3790   44.1240 C   0  0  0  0  0  0  0  0  0  0  0  0
   57.0140   22.5860   43.3670 C   0  0  0  0  0  0  0  0  0  0  0  0
   56.0850   23.5740   43.6050 C   0  0  0  0  0  0  0  0  0  0  0  0
   56.2900   24.4240   44.6860 C   0  0  0  0  0  0  0  0  0  0  0  0
   56.6180   27.1360   45.5450 N   0  0  0  0  0  0  0  0  0  0  0  0
   56.8580   28.4430   45.4580 C   0  0  0  0  0  0  0  0  0  0  0  0
   57.6841   32.9803   43.7719 H   0  0  0  0  0  0  0  0  0  0  0  0
   58.5380   35.2996   43.9263 H   0  0  0  0  0  0  0  0  0  0  0  0
   60.2275   35.7161   48.0928 H   0  0  0  0  0  0  0  0  0  0  0  0
   59.6527   34.2861   49.0190 H   0  0  0  0  0  0  0  0  0  0  0  0
   61.6012   34.2866   50.2903 H   0  0  0  0  0  0  0  0  0  0  0  0
   63.9133   33.4017   50.5499 H   0  0  0  0  0  0  0  0  0  0  0  0
   65.1582   32.7025   48.5054 H   0  0  0  0  0  0  0  0  0  0  0  0
   64.1120   32.8846   46.2607 H   0  0  0  0  0  0  0  0  0  0  0  0
   61.7912   33.7727   46.0148 H   0  0  0  0  0  0  0  0  0  0  0  0
   59.1542   32.1273   47.6845 H   0  0  0  0  0  0  0  0  0  0  0  0
   59.3290   30.1220   46.7970 H   0  0  0  0  0  0  0  0  0  0  0  0
   59.3049   27.3271   47.3154 H   0  0  0  0  0  0  0  0  0  0  0  0
   58.6808   24.9478   47.0053 H   0  0  0  0  0  0  0  0  0  0  0  0
   56.9084   24.9044   47.3979 H   0  0  0  0  0  0  0  0  0  0  0  0
   59.2185   23.1091   45.8445 H   0  0  0  0  0  0  0  0  0  0  0  0
   58.8450   21.5732   43.8893 H   0  0  0  0  0  0  0  0  0  0  0  0
   56.8438   21.9179   42.5099 H   0  0  0  0  0  0  0  0  0  0  0  0
   55.2036   23.6879   42.9568 H   0  0  0  0  0  0  0  0  0  0  0  0
   55.5732   25.2266   44.9142 H   0  0  0  0  0  0  0  0  0  0  0  0
  1  2  2  0
  2  3  1  0
  3  4  2  0
  4  5  1  0
  5  6  2  0
  6  7  1  0
  7  8  2  0
  8  9  1  0
  9 10  1  0
 10 11  1  0
 11 12  2  0
 12 13  1  0
 13 14  2  0
 14 15  1  0
 15 16  2  0
  9 17  2  0
  4 18  1  0
 18 19  1  0
 19 20  2  0
 20 21  1  0
 21 22  1  0
 22 23  1  0
 23 24  2  0
 24 25  1  0
 25 26  2  0
 26 27  1  0
 27 28  2  0
 21 29  1  0
 29 30  2  0
 30  2  1  0
 17  5  1  0
 30 19  1  0
 16 11  1  0
 28 23  1  0
  6 31  1  0
  7 32  1  0
 10 33  1  0
 10 34  1  0
 12 35  1  0
 13 36  1  0
 14 37  1  0
 15 38  1  0
 16 39  1  0
 17 40  1  0
 18 41  1  0
 20 42  1  0
 22 43  1  0
 22 44  1  0
 24 45  1  0
 25 46  1  0
 26 47  1  0
 27 48  1  0
 28 49  1  0
M  END
>  <smiles>  (58) 
O=c1nc(-c2ccnc(Cc3ccccc3)c2)[nH]c2cn(Cc3ccccc3)nc12

>  <score_type>  (58) 
oracle

>  <origin>  (58) 
adg

>  <m_score__min__energy>  (58) 
-10.039999999999999

>  <m_primary>  (58) 
energy

$$$$
58:0
     RDKit          3D

 43 46  0  0  0  0  0  0  0  0999 V2000
   50.1670   32.6600   52.0030 N   0  0  0  0  0  0  0  0  0  0  0  0
   50.7870   31.6990   53.2980 S   0  0  0  0  0  0  0  0  0  0  0  0
   49.9390   30.4680   53.4610 O   0  0  0  0  0  0  0  0  0  0  0  0
   50.7380   32.4900   54.5740 O   0  0  0  0  0  0  0  0  0  0  0  0
   52.4490   31.2370   52.9440 C   0  0  0  0  0  0  0  0  0  0  0  0
   53.0130   31.5430   51.7010 C   0  0  0  0  0  0  0  0  0  0  0  0
   54.3360   31.1900   51.4210 C   0  0  0  0  0  0  0  0  0  0  0  0
   55.1160   30.5220   52.3830 C   0  0  0  0  0  0  0  0  0  0  0  0
   56.5210   30.1550   52.0810 C   0  0  0  0  0  0  0  0  0  0  0  0
   56.9420   29.0060   52.3910 O   0  0  0  0  0  0  0  0  0  0  0  0
   57.4190   31.1050   51.4840 N   0  0  0  0  0  0  0  0  0  0  0  0
   58.6370   30.7390   50.8110 C   0  0  0  0  0  0  0  0  0  0  0  0
   59.7750   30.3270   51.5280 C   0  0  0  0  0  0  0  0  0  0  0  0
   60.9340   29.9450   50.8480 C   0  0  0  0  0  0  0  0  0  0  0  0
   60.9690   29.9660   49.4510 C   0  0  0  0  0  0  0  0  0  0  0  0
   59.8470   30.3720   48.7230 C   0  0  0  0  0  0  0  0  0  0  0  0
   59.9140   30.3640   47.3220 O   0  0  0  0  0  0  0  0  0  0  0  0
   59.1620   31.1890   46.4740 C   0  0  0  0  0  0  0  0  0  0  0  0
   59.5280   32.5400   46.3100 C   0  0  0  0  0  0  0  0  0  0  0  0
   58.7790   33.3910   45.4680 C   0  0  0  0  0  0  0  0  0  0  0  0
   57.6440   32.9070   44.7920 C   0  0  0  0  0  0  0  0  0  0  0  0
   57.2930   31.5740   44.9900 C   0  0  0  0  0  0  0  0  0  0  0  0
   56.2340   30.9250   44.4820 N   0  0  0  0  0  0  0  0  0  0  0  0
   56.3680   29.6920   45.0310 C   0  0  0  0  0  0  0  0  0  0  0  0
   55.5540   28.7590   44.8000 O   0  0  0  0  0  0  0  0  0  0  0  0
   57.4370   29.5360   45.8500 N   0  0  0  0  0  0  0  0  0  0  0  0
   58.0150   30.7470   45.7990 C   0  0  0  0  0  0  0  0  0  0  0  0
   58.6730   30.7340   49.4080 C   0  0  0  0  0  0  0  0  0  0  0  0
   54.5470   30.2330   53.6370 C   0  0  0  0  0  0  0  0  0  0  0  0
   53.2230   30.5890   53.9140 C   0  0  0  0  0  0  0  0  0  0  0  0
   50.6740   33.5720   52.0310 H   0  0  0  0  0  0  0  0  0  0  0  0
   52.4126   32.0638   50.9406 H   0  0  0  0  0  0  0  0  0  0  0  0
   54.7709   31.4363   50.4411 H   0  0  0  0  0  0  0  0  0  0  0  0
   57.2420   32.1210   51.6540 H   0  0  0  0  0  0  0  0  0  0  0  0
   59.7522   30.3056   52.6276 H   0  0  0  0  0  0  0  0  0  0  0  0
   61.8219   29.6267   51.4139 H   0  0  0  0  0  0  0  0  0  0  0  0
   61.8840   29.6615   48.9218 H   0  0  0  0  0  0  0  0  0  0  0  0
   60.4054   32.9353   46.8429 H   0  0  0  0  0  0  0  0  0  0  0  0
   59.0851   34.4397   45.3397 H   0  0  0  0  0  0  0  0  0  0  0  0
   57.0545   33.5587   44.1303 H   0  0  0  0  0  0  0  0  0  0  0  0
   57.7749   31.0158   48.8388 H   0  0  0  0  0  0  0  0  0  0  0  0
   55.1476   29.7235   54.4049 H   0  0  0  0  0  0  0  0  0  0  0  0
   52.7882   30.3589   54.8979 H   0  0  0  0  0  0  0  0  0  0  0  0
  1  2  1  0
  2  3  2  0
  2  4  2  0
  2  5  1  0
  5  6  2  0
  6  7  1  0
  7  8  2  0
  8  9  1  0
  9 10  2  0
  9 11  1  0
 11 12  1  0
 12 13  2  0
 13 14  1  0
 14 15  2  0
 15 16  1  0
 16 17  1  0
 17 18  1  0
 18 19  2  0
 19 20  1  0
 20 21  2  0
 21 22  1  0
 22 23  1  0
 23 24  1  0
 24 25  2  0
 24 26  1  0
 26 27  1  0
 16 28  2  0
  8 29  1  0
 29 30  2  0
 30  5  1  0
 28 12  1  0
 27 18  1  0
 27 22  2  0
  1 31  1  0
  6 32  1  0
  7 33  1  0
 11 34  1  0
 13 35  1  0
 14 36  1  0
 15 37  1  0
 19 38  1  0
 20 39  1  0
 21 40  1  0
 28 41  1  0
 29 42  1  0
 30 43  1  0
M  CHG  3   1  -1  23  -1  26  -1
M  END
>  <UniqueID>  (59) 
51

>  <SMILES>  (59) 
[NH-]S(=O)(=O)c1ccc(C(=O)Nc2cccc(Oc3cccc4[n-]c(=O)[n-]c34)c2)cc1

>  <Energy>  (59) 
95.20644470670244

>  <Genealogy>  (59) 
[NH-]S(=O)(=O)c1ccc(C(=O)Nc2cccc(Oc3cccc4[n-]c(=O)[n-]c34)c2)cc1 (protonated)
[NH-]S(=O)(=O)c1ccc(C(=O)Nc2cccc(Oc3cccc4[n-]c(=O)[n-]c34)c2)cc1 (3D coordinates assigned)
[NH-]S(=O)(=O)c1ccc(C(=O)Nc2cccc(Oc3cccc4[n-]c(=O)[n-]c34)c2)cc1 (optimized conformer: 95.20644470670244 kcal/mol)

>  <smiles>  (59) 
NS(=O)(=O)c1ccc(C(=O)Nc2cccc(Oc3cccc4[nH]c(=O)[nH]c34)c2)cc1

>  <score_type>  (59) 
oracle

>  <origin>  (59) 
adg

>  <m_score__min__energy>  (59) 
-14.48

>  <m_primary>  (59) 
energy

$$$$
59:0
     RDKit          3D

 66 70  0  0  0  0  0  0  0  0999 V2000
   56.6000   30.0280   42.9620 C   0  0  0  0  0  0  0  0  0  0  0  0
   57.1870   30.7720   44.1210 C   0  0  0  0  0  0  0  0  0  0  0  0
   57.1050   32.1080   44.2670 N   0  0  0  0  0  0  0  0  0  0  0  0
   57.6800   32.4100   45.4490 C   0  0  0  0  0  0  0  0  0  0  0  0
   57.7580   33.8090   46.0020 C   0  0  0  0  0  0  0  0  0  0  0  0
   58.6990   33.9140   47.2200 C   0  0  0  0  0  0  0  0  0  0  0  0
   59.8920   34.8490   46.9590 C   0  0  0  0  0  0  0  0  0  0  0  0
   61.1860   34.1950   47.3660 C   0  0  0  0  0  0  0  0  0  0  0  0
   61.4480   33.9230   48.7210 C   0  0  0  0  0  0  0  0  0  0  0  0
   62.6510   33.3150   49.0990 C   0  0  0  0  0  0  0  0  0  0  0  0
   63.5960   32.9720   48.1270 C   0  0  0  0  0  0  0  0  0  0  0  0
   63.3320   33.2200   46.7750 C   0  0  0  0  0  0  0  0  0  0  0  0
   62.1280   33.8230   46.3940 C   0  0  0  0  0  0  0  0  0  0  0  0
   58.1050   31.2550   46.0820 C   0  0  0  0  0  0  0  0  0  0  0  0
   57.8170   30.2130   45.2230 C   0  0  0  0  0  0  0  0  0  0  0  0
   58.0130   28.7730   45.5010 C   0  0  0  0  0  0  0  0  0  0  0  0
   56.8960   28.0030   45.5910 N   0  0  0  0  0  0  0  0  0  0  0  0
   56.9560   26.6850   45.8880 C   0  0  0  0  0  0  0  0  0  0  0  0
   55.7780   25.9370   45.9970 C   0  0  0  0  0  0  0  0  0  0  0  0
   55.8380   24.5800   46.3270 C   0  0  0  0  0  0  0  0  0  0  0  0
   57.0760   23.9670   46.5480 C   0  0  0  0  0  0  0  0  0  0  0  0
   58.2580   24.7100   46.4370 C   0  0  0  0  0  0  0  0  0  0  0  0
   58.2040   26.0770   46.1070 C   0  0  0  0  0  0  0  0  0  0  0  0
   59.3590   26.8700   45.9920 C   0  0  0  0  0  0  0  0  0  0  0  0
   60.4940   26.3410   46.1690 O   0  0  0  0  0  0  0  0  0  0  0  0
   59.2590   28.2090   45.6900 N   0  0  0  0  0  0  0  0  0  0  0  0
   60.5040   28.9970   45.5550 C   0  0  0  0  0  0  0  0  0  0  0  0
   60.8040   29.7620   46.8110 C   0  0  0  0  0  0  0  0  0  0  0  0
   61.6060   30.7390   46.7880 O   0  0  0  0  0  0  0  0  0  0  0  0
   60.1910   29.3570   48.0380 N   0  0  0  0  0  0  0  0  0  0  0  0
   60.7810   29.6190   49.3450 C   0  0  0  0  0  0  0  0  0  0  0  0
   60.1180   30.8070   49.9920 C   0  0  0  0  0  0  0  0  0  0  0  0
   58.8580   31.2450   49.5450 C   0  0  0  0  0  0  0  0  0  0  0  0
   58.2260   32.3250   50.1710 C   0  0  0  0  0  0  0  0  0  0  0  0
   58.8410   32.9670   51.2530 C   0  0  0  0  0  0  0  0  0  0  0  0
   60.0790   32.5210   51.7210 C   0  0  0  0  0  0  0  0  0  0  0  0
   60.7090   31.4370   51.1030 C   0  0  0  0  0  0  0  0  0  0  0  0
   55.9589   29.2155   43.3346 H   0  0  0  0  0  0  0  0  0  0  0  0
   55.9998   30.7173   42.3499 H   0  0  0  0  0  0  0  0  0  0  0  0
   57.4100   29.6046   42.3499 H   0  0  0  0  0  0  0  0  0  0  0  0
   56.6630   32.7790   43.5990 H   0  0  0  0  0  0  0  0  0  0  0  0
   58.1276   34.4798   45.2124 H   0  0  0  0  0  0  0  0  0  0  0  0
   56.7487   34.0921   46.3354 H   0  0  0  0  0  0  0  0  0  0  0  0
   58.1271   34.3013   48.0761 H   0  0  0  0  0  0  0  0  0  0  0  0
   59.0980   32.9094   47.4238 H   0  0  0  0  0  0  0  0  0  0  0  0
   59.9323   35.0908   45.8867 H   0  0  0  0  0  0  0  0  0  0  0  0
   59.7582   35.7643   47.5543 H   0  0  0  0  0  0  0  0  0  0  0  0
   60.7045   34.1891   49.4868 H   0  0  0  0  0  0  0  0  0  0  0  0
   62.8528   33.1072   50.1602 H   0  0  0  0  0  0  0  0  0  0  0  0
   64.5473   32.5071   48.4251 H   0  0  0  0  0  0  0  0  0  0  0  0
   64.0721   32.9405   46.0107 H   0  0  0  0  0  0  0  0  0  0  0  0
   61.9191   34.0060   45.3296 H   0  0  0  0  0  0  0  0  0  0  0  0
   58.5781   31.1817   47.0724 H   0  0  0  0  0  0  0  0  0  0  0  0
   54.8040   26.4175   45.8228 H   0  0  0  0  0  0  0  0  0  0  0  0
   54.9112   23.9937   46.4130 H   0  0  0  0  0  0  0  0  0  0  0  0
   57.1211   22.8995   46.8094 H   0  0  0  0  0  0  0  0  0  0  0  0
   59.2300   24.2243   46.6080 H   0  0  0  0  0  0  0  0  0  0  0  0
   61.3395   28.3135   45.3435 H   0  0  0  0  0  0  0  0  0  0  0  0
   60.3722   29.7164   44.7334 H   0  0  0  0  0  0  0  0  0  0  0  0
   60.6475   28.7355   49.9866 H   0  0  0  0  0  0  0  0  0  0  0  0
   61.8520   29.8344   49.2163 H   0  0  0  0  0  0  0  0  0  0  0  0
   58.3684   30.7370   48.7011 H   0  0  0  0  0  0  0  0  0  0  0  0
   57.2449   32.6702   49.8128 H   0  0  0  0  0  0  0  0  0  0  0  0
   58.3481   33.8241   51.7352 H   0  0  0  0  0  0  0  0  0  0  0  0
   60.5578   33.0223   52.5751 H   0  0  0  0  0  0  0  0  0  0  0  0
   61.6734   31.0739   51.4877 H   0  0  0  0  0  0  0  0  0  0  0  0
  1  2  1  0
  2  3  1  0
  3  4  1  0
  4  5  1  0
  5  6  1  0
  6  7  1  0
  7  8  1  0
  8  9  2  0
  9 10  1  0
 10 11  2  0
 11 12  1  0
 12 13  2  0
  4 14  2  0
 14 15  1  0
 15 16  1  0
 16 17  2  0
 17 18  1  0
 18 19  2  0
 19 20  1  0
 20 21  2  0
 21 22  1  0
 22 23  2  0
 23 24  1  0
 24 25  2  0
 24 26  1  0
 26 27  1  0
 27 28  1  0
 28 29  2  0
 28 30  1  0
 30 31  1  0
 31 32  1  0
 32 33  2  0
 33 34  1  0
 34 35  2  0
 35 36  1  0
 36 37  2  0
 15  2  2  0
 26 16  1  0
 37 32  1  0
 13  8  1  0
 23 18  1  0
  1 38  1  0
  1 39  1  0
  1 40  1  0
  3 41  1  0
  5 42  1  0
  5 43  1  0
  6 44  1  0
  6 45  1  0
  7 46  1  0
  7 47  1  0
  9 48  1  0
 10 49  1  0
 11 50  1  0
 12 51  1  0
 13 52  1  0
 14 53  1  0
 19 54  1  0
 20 55  1  0
 21 56  1  0
 22 57  1  0
 27 58  1  0
 27 59  1  0
 31 60  1  0
 31 61  1  0
 33 62  1  0
 34 63  1  0
 35 64  1  0
 36 65  1  0
 37 66  1  0
M  CHG  1  30  -1
M  END
>  <UniqueID>  (60) 
52

>  <SMILES>  (60) 
Cc1[nH]c(CCCc2ccccc2)cc1-c1nc2ccccc2c(=O)n1CC(=O)[N-]Cc1ccccc1

>  <Energy>  (60) 
102.53787281500573

>  <Genealogy>  (60) 
Cc1[nH]c(CCCc2ccccc2)cc1-c1nc2ccccc2c(=O)n1CC(=O)[N-]Cc1ccccc1 (protonated)
Cc1[nH]c(CCCc2ccccc2)cc1-c1nc2ccccc2c(=O)n1CC(=O)[N-]Cc1ccccc1 (3D coordinates assigned)
Cc1[nH]c(CCCc2ccccc2)cc1-c1nc2ccccc2c(=O)n1CC(=O)[N-]Cc1ccccc1 (optimized conformer: 102.53787281500573 kcal/mol)

>  <smiles>  (60) 
Cc1[nH]c(CCCc2ccccc2)cc1-c1nc2ccccc2c(=O)n1CC(=O)NCc1ccccc1

>  <score_type>  (60) 
oracle

>  <origin>  (60) 
adg

>  <m_score__min__energy>  (60) 
-11.529999999999999

>  <m_primary>  (60) 
energy

$$$$
60:0
     RDKit          3D

 45 48  0  0  0  0  0  0  0  0999 V2000
   58.1510   32.6340   42.7690 C   0  0  0  0  0  0  0  0  0  0  0  0
   58.1580   33.1880   44.1680 C   0  0  0  0  0  0  0  0  0  0  0  0
   59.0320   34.2370   44.5010 C   0  0  0  0  0  0  0  0  0  0  0  0
   59.0420   34.7640   45.7930 C   0  0  0  0  0  0  0  0  0  0  0  0
   58.1830   34.2500   46.7650 C   0  0  0  0  0  0  0  0  0  0  0  0
   57.3110   33.2060   46.4490 C   0  0  0  0  0  0  0  0  0  0  0  0
   57.2880   32.6650   45.1490 C   0  0  0  0  0  0  0  0  0  0  0  0
   56.4030   31.5890   44.7990 N   0  0  0  0  0  0  0  0  0  0  0  0
   56.8840   29.9480   44.5070 S   0  0  0  0  0  0  0  0  0  0  0  0
   55.9560   29.0260   45.2450 O   0  0  0  0  0  0  0  0  0  0  0  0
   56.7930   29.6630   43.0330 O   0  0  0  0  0  0  0  0  0  0  0  0
   58.5240   29.6940   45.0940 C   0  0  0  0  0  0  0  0  0  0  0  0
   59.3120   28.6570   44.5770 C   0  0  0  0  0  0  0  0  0  0  0  0
   60.6170   28.4710   45.0410 C   0  0  0  0  0  0  0  0  0  0  0  0
   61.1380   29.3140   46.0260 C   0  0  0  0  0  0  0  0  0  0  0  0
   60.3540   30.3470   46.5600 C   0  0  0  0  0  0  0  0  0  0  0  0
   60.8920   31.2190   47.5690 N   0  0  0  0  0  0  0  0  0  0  0  0
   62.1760   31.6430   47.6630 C   0  0  0  0  0  0  0  0  0  0  0  0
   63.1680   31.2680   46.7570 O   0  0  0  0  0  0  0  0  0  0  0  0
   62.3250   32.5000   48.7570 C   0  0  0  0  0  0  0  0  0  0  0  0
   63.5010   33.1670   49.2260 N   0  0  0  0  0  0  0  0  0  0  0  0
   64.5880   33.1080   48.6160 O   0  0  0  0  0  0  0  0  0  0  0  0
   61.0790   32.5870   49.3390 C   0  0  0  0  0  0  0  0  0  0  0  0
   60.6480   33.2850   50.4650 C   0  0  0  0  0  0  0  0  0  0  0  0
   59.3000   33.1560   50.8410 C   0  0  0  0  0  0  0  0  0  0  0  0
   58.4250   32.3350   50.0970 C   0  0  0  0  0  0  0  0  0  0  0  0
   58.8880   31.6400   48.9660 C   0  0  0  0  0  0  0  0  0  0  0  0
   60.2300   31.7990   48.5970 C   0  0  0  0  0  0  0  0  0  0  0  0
   59.0470   30.5360   46.0830 C   0  0  0  0  0  0  0  0  0  0  0  0
   58.1371   31.5348   42.8100 H   0  0  0  0  0  0  0  0  0  0  0  0
   57.2573   32.9924   42.2372 H   0  0  0  0  0  0  0  0  0  0  0  0
   59.0535   32.9697   42.2372 H   0  0  0  0  0  0  0  0  0  0  0  0
   59.7121   34.6449   43.7387 H   0  0  0  0  0  0  0  0  0  0  0  0
   59.7281   35.5859   46.0456 H   0  0  0  0  0  0  0  0  0  0  0  0
   58.1927   34.6680   47.7824 H   0  0  0  0  0  0  0  0  0  0  0  0
   56.6379   32.8037   47.2204 H   0  0  0  0  0  0  0  0  0  0  0  0
   58.9029   27.9886   43.8051 H   0  0  0  0  0  0  0  0  0  0  0  0
   61.2353   27.6593   44.6300 H   0  0  0  0  0  0  0  0  0  0  0  0
   62.1676   29.1668   46.3842 H   0  0  0  0  0  0  0  0  0  0  0  0
   64.1240   31.5840   46.8270 H   0  0  0  0  0  0  0  0  0  0  0  0
   61.3403   33.9166   51.0411 H   0  0  0  0  0  0  0  0  0  0  0  0
   58.9241   33.6984   51.7210 H   0  0  0  0  0  0  0  0  0  0  0  0
   57.3733   32.2384   50.4045 H   0  0  0  0  0  0  0  0  0  0  0  0
   58.2155   30.9898   48.3872 H   0  0  0  0  0  0  0  0  0  0  0  0
   58.4298   31.3510   46.4890 H   0  0  0  0  0  0  0  0  0  0  0  0
  1  2  1  0
  2  3  2  0
  3  4  1  0
  4  5  2  0
  5  6  1  0
  6  7  2  0
  7  8  1  0
  8  9  1  0
  9 10  2  0
  9 11  2  0
  9 12  1  0
 12 13  2  0
 13 14  1  0
 14 15  2  0
 15 16  1  0
 16 17  1  0
 17 18  1  0
 18 19  1  0
 18 20  2  0
 20 21  1  0
 21 22  2  0
 20 23  1  0
 23 24  2  0
 24 25  1  0
 25 26  2  0
 26 27  1  0
 27 28  2  0
 16 29  2  0
  7  2  1  0
 29 12  1  0
 28 17  1  0
 28 23  1  0
  1 30  1  0
  1 31  1  0
  1 32  1  0
  3 33  1  0
  4 34  1  0
  5 35  1  0
  6 36  1  0
 13 37  1  0
 14 38  1  0
 15 39  1  0
 19 40  1  0
 24 41  1  0
 25 42  1  0
 26 43  1  0
 27 44  1  0
 29 45  1  0
M  CHG  1   8  -1
M  END
>  <UniqueID>  (61) 
53

>  <SMILES>  (61) 
Cc1ccccc1[N-]S(=O)(=O)c1cccc(-n2c(O)c(N=O)c3ccccc32)c1

>  <Energy>  (61) 
95.92984215680907

>  <Genealogy>  (61) 
Cc1ccccc1[N-]S(=O)(=O)c1cccc(-n2c(O)c(N=O)c3ccccc32)c1 (protonated)
Cc1ccccc1[N-]S(=O)(=O)c1cccc(-n2c(O)c(N=O)c3ccccc32)c1 (3D coordinates assigned)
Cc1ccccc1[N-]S(=O)(=O)c1cccc(-n2c(O)c(N=O)c3ccccc32)c1 (optimized conformer: 95.92984215680907 kcal/mol)

>  <smiles>  (61) 
Cc1ccccc1NS(=O)(=O)c1cccc(-n2c(O)c(N=O)c3ccccc32)c1

>  <score_type>  (61) 
oracle

>  <origin>  (61) 
adg

>  <m_score__min__energy>  (61) 
-12.58

>  <m_primary>  (61) 
energy

$$$$
61:0
     RDKit          3D

 31 33  0  0  0  0  0  0  0  0999 V2000
   63.4740   34.2660   46.0200 O   0  0  0  0  0  0  0  0  0  0  0  0
   62.9310   33.3950   46.7320 N   0  0  0  0  0  0  0  0  0  0  0  0
   63.6760   32.3110   47.1350 O   0  0  0  0  0  0  0  0  0  0  0  0
   61.5580   33.5300   47.1380 C   0  0  0  0  0  0  0  0  0  0  0  0
   61.2080   33.4650   48.4980 C   0  0  0  0  0  0  0  0  0  0  0  0
   59.8780   33.6180   48.8960 C   0  0  0  0  0  0  0  0  0  0  0  0
   58.8800   33.8390   47.9430 C   0  0  0  0  0  0  0  0  0  0  0  0
   59.2050   33.8970   46.5810 C   0  0  0  0  0  0  0  0  0  0  0  0
   58.1380   34.1890   45.5620 C   0  0  0  0  0  0  0  0  0  0  0  0
   58.5080   33.3710   43.9710 S   0  0  0  0  0  0  0  0  0  0  0  0
   58.0620   31.7330   44.5460 C   0  0  0  0  0  0  0  0  0  0  0  0
   58.9470   30.8590   45.0830 N   0  0  0  0  0  0  0  0  0  0  0  0
   58.1980   29.7740   45.3220 C   0  0  0  0  0  0  0  0  0  0  0  0
   58.5870   28.5470   45.8550 C   0  0  0  0  0  0  0  0  0  0  0  0
   57.5970   27.5550   45.9900 C   0  0  0  0  0  0  0  0  0  0  0  0
   56.2620   27.8120   45.5910 C   0  0  0  0  0  0  0  0  0  0  0  0
   55.2970   26.8220   45.7290 O   0  0  0  0  0  0  0  0  0  0  0  0
   55.9070   29.0660   45.0550 C   0  0  0  0  0  0  0  0  0  0  0  0
   56.9120   30.0220   44.9380 C   0  0  0  0  0  0  0  0  0  0  0  0
   56.8380   31.2390   44.4630 O   0  0  0  0  0  0  0  0  0  0  0  0
   60.5440   33.7400   46.1830 C   0  0  0  0  0  0  0  0  0  0  0  0
   61.9876   33.2923   49.2545 H   0  0  0  0  0  0  0  0  0  0  0  0
   59.6153   33.5644   49.9628 H   0  0  0  0  0  0  0  0  0  0  0  0
   57.8355   33.9679   48.2631 H   0  0  0  0  0  0  0  0  0  0  0  0
   57.1716   33.8224   45.9384 H   0  0  0  0  0  0  0  0  0  0  0  0
   58.1008   35.2758   45.3962 H   0  0  0  0  0  0  0  0  0  0  0  0
   59.9700   30.9920   45.2480 H   0  0  0  0  0  0  0  0  0  0  0  0
   59.6276   28.3604   46.1587 H   0  0  0  0  0  0  0  0  0  0  0  0
   57.8621   26.5729   46.4085 H   0  0  0  0  0  0  0  0  0  0  0  0
   54.8750   29.2812   44.7410 H   0  0  0  0  0  0  0  0  0  0  0  0
   60.8027   33.7816   45.1147 H   0  0  0  0  0  0  0  0  0  0  0  0
  1  2  2  0
  2  3  1  0
  2  4  1  0
  4  5  2  0
  5  6  1  0
  6  7  2  0
  7  8  1  0
  8  9  1  0
  9 10  1  0
 10 11  1  0
 11 12  2  0
 12 13  1  0
 13 14  2  0
 14 15  1  0
 15 16  2  0
 16 17  1  0
 16 18  1  0
 18 19  2  0
 19 20  1  0
  8 21  2  0
 21  4  1  0
 20 11  1  0
 19 13  1  0
  5 22  1  0
  6 23  1  0
  7 24  1  0
  9 25  1  0
  9 26  1  0
 12 27  1  0
 14 28  1  0
 15 29  1  0
 18 30  1  0
 21 31  1  0
M  CHG  4   2   1   3  -1  12   1  17  -1
M  END
>  <UniqueID>  (62) 
54

>  <SMILES>  (62) 
O=[N+]([O-])c1cccc(CSc2[nH+]c3ccc([O-])cc3o2)c1

>  <Energy>  (62) 
68.53971994399559

>  <Genealogy>  (62) 
O=[N+]([O-])c1cccc(CSc2[nH+]c3ccc([O-])cc3o2)c1 (protonated)
O=[N+]([O-])c1cccc(CSc2[nH+]c3ccc([O-])cc3o2)c1 (3D coordinates assigned)
O=[N+]([O-])c1cccc(CSc2[nH+]c3ccc([O-])cc3o2)c1 (optimized conformer: 68.53971994399559 kcal/mol)

>  <smiles>  (62) 
O=[N+]([O-])c1cccc(CSc2nc3ccc(O)cc3o2)c1

>  <score_type>  (62) 
oracle

>  <origin>  (62) 
adg

>  <m_score__min__energy>  (62) 
-8.7699999999999996

>  <m_primary>  (62) 
energy

$$$$
62:0
     RDKit          3D

 38 40  0  0  0  0  0  0  0  0999 V2000
   57.4920   33.8100   46.9670 O   0  0  0  0  0  0  0  0  0  0  0  0
   58.7210   33.5410   46.8650 C   0  0  0  0  0  0  0  0  0  0  0  0
   59.2260   32.9470   45.6580 N   0  0  0  0  0  0  0  0  0  0  0  0
   58.4130   32.2150   44.7250 C   0  0  0  0  0  0  0  0  0  0  0  0
   58.3140   32.6040   43.3760 C   0  0  0  0  0  0  0  0  0  0  0  0
   57.4950   31.8900   42.4940 C   0  0  0  0  0  0  0  0  0  0  0  0
   57.3790   32.3800   40.8140 Cl  0  0  0  0  0  0  0  0  0  0  0  0
   56.7610   30.7920   42.9540 C   0  0  0  0  0  0  0  0  0  0  0  0
   56.8360   30.4130   44.2960 C   0  0  0  0  0  0  0  0  0  0  0  0
   55.9040   29.0440   44.8750 Cl  0  0  0  0  0  0  0  0  0  0  0  0
   57.6540   31.1260   45.1810 C   0  0  0  0  0  0  0  0  0  0  0  0
   59.6860   33.9470   47.9600 C   0  0  2  0  0  0  0  0  0  0  0  0
   61.1130   33.5190   47.6660 C   0  0  0  0  0  0  0  0  0  0  0  0
   61.7470   32.5030   48.4100 C   0  0  0  0  0  0  0  0  0  0  0  0
   63.0740   32.1530   48.1420 C   0  0  0  0  0  0  0  0  0  0  0  0
   63.7860   32.8160   47.1410 C   0  0  0  0  0  0  0  0  0  0  0  0
   63.1740   33.8360   46.4080 C   0  0  0  0  0  0  0  0  0  0  0  0
   61.8480   34.1900   46.6710 C   0  0  0  0  0  0  0  0  0  0  0  0
   59.2710   33.4530   49.3290 C   0  0  0  0  0  0  0  0  0  0  0  0
   59.6440   34.1330   50.5030 C   0  0  0  0  0  0  0  0  0  0  0  0
   59.2150   33.6510   51.7410 C   0  0  0  0  0  0  0  0  0  0  0  0
   58.4210   32.5060   51.8050 C   0  0  0  0  0  0  0  0  0  0  0  0
   58.0630   31.8570   50.6200 C   0  0  0  0  0  0  0  0  0  0  0  0
   58.4890   32.3410   49.4240 N   0  0  0  0  0  0  0  0  0  0  0  0
   60.2350   33.0910   45.4280 H   0  0  0  0  0  0  0  0  0  0  0  0
   58.8828   33.4729   43.0134 H   0  0  0  0  0  0  0  0  0  0  0  0
   56.1240   30.2264   42.2581 H   0  0  0  0  0  0  0  0  0  0  0  0
   57.7020   30.8310   46.2396 H   0  0  0  0  0  0  0  0  0  0  0  0
   59.6502   35.0463   47.9748 H   0  0  0  0  0  0  0  0  0  0  0  0
   61.1944   31.9825   49.2061 H   0  0  0  0  0  0  0  0  0  0  0  0
   63.5581   31.3531   48.7215 H   0  0  0  0  0  0  0  0  0  0  0  0
   64.8284   32.5356   46.9294 H   0  0  0  0  0  0  0  0  0  0  0  0
   63.7370   34.3613   45.6225 H   0  0  0  0  0  0  0  0  0  0  0  0
   61.3750   34.9995   46.0958 H   0  0  0  0  0  0  0  0  0  0  0  0
   60.2684   35.0368   50.4458 H   0  0  0  0  0  0  0  0  0  0  0  0
   59.5029   34.1737   52.6651 H   0  0  0  0  0  0  0  0  0  0  0  0
   58.0806   32.1184   52.7765 H   0  0  0  0  0  0  0  0  0  0  0  0
   57.4360   30.9539   50.6557 H   0  0  0  0  0  0  0  0  0  0  0  0
  1  2  2  0
  2  3  1  0
  3  4  1  0
  4  5  2  0
  5  6  1  0
  6  7  1  0
  6  8  2  0
  8  9  1  0
  9 10  1  0
  9 11  2  0
  2 12  1  0
 12 13  1  0
 13 14  2  0
 14 15  1  0
 15 16  2  0
 16 17  1  0
 17 18  2  0
 12 19  1  0
 19 20  2  0
 20 21  1  0
 21 22  2  0
 22 23  1  0
 23 24  2  0
 11  4  1  0
 18 13  1  0
 24 19  1  0
  3 25  1  0
  5 26  1  0
  8 27  1  0
 11 28  1  0
 12 29  1  1
 14 30  1  0
 15 31  1  0
 16 32  1  0
 17 33  1  0
 18 34  1  0
 20 35  1  0
 21 36  1  0
 22 37  1  0
 23 38  1  0
M  END
>  <UniqueID>  (63) 
55

>  <SMILES>  (63) 
O=C(Nc1cc(Cl)cc(Cl)c1)[C@H](c1ccccc1)c1ccccn1

>  <Energy>  (63) 
46.33178477243582

>  <Genealogy>  (63) 
O=C(Nc1cc(Cl)cc(Cl)c1)[C@H](c1ccccc1)c1ccccn1 (chirality)
O=C(Nc1cc(Cl)cc(Cl)c1)[C@H](c1ccccc1)c1ccccn1 (3D coordinates assigned)
O=C(Nc1cc(Cl)cc(Cl)c1)[C@H](c1ccccc1)c1ccccn1 (optimized conformer: 46.33178477243582 kcal/mol)

>  <smiles>  (63) 
O=C(Nc1cc(Cl)cc(Cl)c1)C(c1ccccc1)c1ccccn1

>  <score_type>  (63) 
oracle

>  <origin>  (63) 
adg

>  <m_score__min__energy>  (63) 
-8.25

>  <m_primary>  (63) 
energy

$$$$
63:0
     RDKit          3D

 36 38  0  0  1  0  0  0  0  0999 V2000
   54.4160   24.6860   45.5840 C   0  0  0  0  0  0  0  0  0  0  0  0
   55.4960   25.3800   46.1510 O   0  0  0  0  0  0  0  0  0  0  0  0
   56.6880   24.6540   46.0250 C   0  0  0  0  0  0  0  0  0  0  0  0
   57.7310   25.4740   46.7820 C   0  0  0  0  0  0  0  0  0  0  0  0
   58.2840   26.3890   45.8020 N   0  0  0  0  0  0  0  0  0  0  0  0
   57.9100   27.5910   45.6220 C   0  0  0  0  0  0  0  0  0  0  0  0
   56.6630   27.8340   45.1310 N   0  0  0  0  0  0  0  0  0  0  0  0
   56.3070   29.1200   44.9560 C   0  0  0  0  0  0  0  0  0  0  0  0
   55.1560   29.3390   44.5020 O   0  0  0  0  0  0  0  0  0  0  0  0
   57.1800   30.1460   45.2640 C   0  0  0  0  0  0  0  0  0  0  0  0
   58.4310   29.8730   45.7570 C   0  0  0  0  0  0  0  0  0  0  0  0
   58.7650   28.5760   45.9250 N   0  0  0  0  0  0  0  0  0  0  0  0
   59.0580   30.9760   45.9680 N   0  0  0  0  0  0  0  0  0  0  0  0
   58.2120   32.0530   45.6090 C   0  0  0  0  0  0  0  0  0  0  0  0
   58.7520   32.8660   44.4360 C   0  0  0  0  0  0  0  0  0  0  0  0
   57.8330   34.0680   44.4990 C   0  0  0  0  0  0  0  0  0  0  0  0
   57.8080   34.3830   45.9770 C   0  0  0  0  0  0  0  0  0  0  0  0
   57.9720   33.0490   46.7080 C   0  0  0  0  0  0  0  0  0  0  0  0
   57.0010   31.4160   45.1570 N   0  0  0  0  0  0  0  0  0  0  0  0
   53.7813   24.2782   46.3845 H   0  0  0  0  0  0  0  0  0  0  0  0
   53.8245   25.3735   44.9615 H   0  0  0  0  0  0  0  0  0  0  0  0
   54.7956   23.8623   44.9615 H   0  0  0  0  0  0  0  0  0  0  0  0
   56.5817   23.6550   46.4731 H   0  0  0  0  0  0  0  0  0  0  0  0
   56.9683   24.4985   44.9727 H   0  0  0  0  0  0  0  0  0  0  0  0
   57.2599   26.0304   47.6057 H   0  0  0  0  0  0  0  0  0  0  0  0
   58.5067   24.8364   47.2311 H   0  0  0  0  0  0  0  0  0  0  0  0
   56.0040   27.0390   44.8990 H   0  0  0  0  0  0  0  0  0  0  0  0
   59.7130   28.3660   46.2980 H   0  0  0  0  0  0  0  0  0  0  0  0
   59.8043   33.1491   44.5864 H   0  0  0  0  0  0  0  0  0  0  0  0
   58.7562   32.3379   43.4711 H   0  0  0  0  0  0  0  0  0  0  0  0
   58.2396   34.9102   43.9198 H   0  0  0  0  0  0  0  0  0  0  0  0
   56.8361   33.8808   44.0734 H   0  0  0  0  0  0  0  0  0  0  0  0
   58.6342   35.0618   46.2350 H   0  0  0  0  0  0  0  0  0  0  0  0
   56.8691   34.8801   46.2621 H   0  0  0  0  0  0  0  0  0  0  0  0
   58.8292   33.0843   47.3964 H   0  0  0  0  0  0  0  0  0  0  0  0
   57.0957   32.7950   47.3226 H   0  0  0  0  0  0  0  0  0  0  0  0
  1  2  1  0
  2  3  1  0
  3  4  1  0
  4  5  1  0
  5  6  2  0
  6  7  1  0
  7  8  1  0
  8  9  2  0
  8 10  1  0
 10 11  1  0
 11 12  1  0
 11 13  2  0
 13 14  1  0
 14 15  1  0
 15 16  1  0
 16 17  1  0
 17 18  1  0
 14 19  1  0
 12  6  1  0
 18 14  1  0
 19 10  2  0
  1 20  1  0
  1 21  1  0
  1 22  1  0
  3 23  1  0
  3 24  1  0
  4 25  1  0
  4 26  1  0
  7 27  1  0
 12 28  1  0
 15 29  1  0
 15 30  1  0
 16 31  1  0
 16 32  1  0
 17 33  1  0
 17 34  1  0
 18 35  1  0
 18 36  1  0
M  END
>  <smiles>  (64) 
COCCN=c1[nH]c(=O)c2c([nH]1)=NC1(CCCC1)N=2

>  <score_type>  (64) 
oracle

>  <origin>  (64) 
adg

>  <m_score__min__energy>  (64) 
-6.8499999999999996

>  <m_primary>  (64) 
energy

$$$$
64:0
     RDKit          3D

 39 40  0  0  0  0  0  0  0  0999 V2000
   64.7100   32.2250   46.7850 H   0  0  0  0  0  0  0  0  0  0  0  0
   63.7210   32.1340   46.7660 O   0  0  0  0  0  0  0  0  0  0  0  0
   63.1970   33.4310   46.8540 C   0  0  0  0  0  0  0  0  0  0  0  0
   62.1924   33.4479   46.4061 H   0  0  0  0  0  0  0  0  0  0  0  0
   63.8608   34.1231   46.3151 H   0  0  0  0  0  0  0  0  0  0  0  0
   63.1050   33.8660   48.3150 C   0  0  0  0  0  0  0  0  0  0  0  0
   62.0770   33.7102   48.6741 H   0  0  0  0  0  0  0  0  0  0  0  0
   63.3766   34.9296   48.3852 H   0  0  0  0  0  0  0  0  0  0  0  0
   64.2570   32.8950   49.3520 S   0  0  0  0  0  0  0  0  0  0  0  0
   63.0040   32.2220   50.5000 C   0  0  0  0  0  0  0  0  0  0  0  0
   62.7524   32.9858   51.2505 H   0  0  0  0  0  0  0  0  0  0  0  0
   63.4147   31.3288   50.9934 H   0  0  0  0  0  0  0  0  0  0  0  0
   61.7650   31.8380   49.7520 C   0  0  0  0  0  0  0  0  0  0  0  0
   60.6370   32.0360   50.2810 O   0  0  0  0  0  0  0  0  0  0  0  0
   61.8690   31.2160   48.4620 N   0  0  0  0  0  0  0  0  0  0  0  0
   62.7880   30.7950   48.1990 H   0  0  0  0  0  0  0  0  0  0  0  0
   60.7670   31.0650   47.5500 C   0  0  0  0  0  0  0  0  0  0  0  0
   60.7270   30.0130   46.6170 C   0  0  0  0  0  0  0  0  0  0  0  0
   61.5617   29.2987   46.5612 H   0  0  0  0  0  0  0  0  0  0  0  0
   59.6310   29.8710   45.7600 C   0  0  0  0  0  0  0  0  0  0  0  0
   59.6119   29.0529   45.0250 H   0  0  0  0  0  0  0  0  0  0  0  0
   58.5570   30.7680   45.8350 C   0  0  0  0  0  0  0  0  0  0  0  0
   57.1690   30.5870   44.7660 S   0  0  0  0  0  0  0  0  0  0  0  0
   57.6140   30.4210   43.3390 O   0  0  0  0  0  0  0  0  0  0  0  0
   56.3180   31.8210   44.8690 O   0  0  0  0  0  0  0  0  0  0  0  0
   56.2240   29.2070   45.2340 N   0  0  0  0  0  0  0  0  0  0  0  0
   56.6360   27.9720   45.3010 C   0  0  0  0  0  0  0  0  0  0  0  0
   55.8810   27.0700   45.9830 N   0  0  0  0  0  0  0  0  0  0  0  0
   56.2510   25.7680   46.0970 C   0  0  0  0  0  0  0  0  0  0  0  0
   55.6221   25.0594   46.6558 H   0  0  0  0  0  0  0  0  0  0  0  0
   57.4340   25.3380   45.5000 C   0  0  0  0  0  0  0  0  0  0  0  0
   57.7467   24.2866   45.5826 H   0  0  0  0  0  0  0  0  0  0  0  0
   58.1980   26.2280   44.8150 N   0  0  0  0  0  0  0  0  0  0  0  0
   57.8310   27.5310   44.6980 C   0  0  0  0  0  0  0  0  0  0  0  0
   58.4618   28.2362   44.1369 H   0  0  0  0  0  0  0  0  0  0  0  0
   58.5870   31.8050   46.7750 C   0  0  0  0  0  0  0  0  0  0  0  0
   57.7460   32.5112   46.8382 H   0  0  0  0  0  0  0  0  0  0  0  0
   59.6800   31.9470   47.6330 C   0  0  0  0  0  0  0  0  0  0  0  0
   59.6881   32.7558   48.3785 H   0  0  0  0  0  0  0  0  0  0  0  0
  1  2  1  0
  2  3  1  0
  3  4  1  0
  3  5  1  0
  3  6  1  0
  6  7  1  0
  6  8  1  0
  6  9  1  0
  9 10  1  0
 10 11  1  0
 10 12  1  0
 10 13  1  0
 13 14  2  0
 13 15  1  0
 15 16  1  0
 15 17  1  0
 17 18  2  0
 18 19  1  0
 18 20  1  0
 20 21  1  0
 20 22  2  0
 22 23  1  0
 23 24  2  0
 23 25  2  0
 23 26  1  0
 26 27  2  0
 27 28  1  0
 28 29  1  0
 29 30  1  0
 29 31  2  0
 31 32  1  0
 31 33  1  0
 33 34  2  0
 34 35  1  0
 22 36  1  0
 36 37  1  0
 36 38  2  0
 38 39  1  0
 38 17  1  0
 34 27  1  0
M  CHG  1  28  -1
M  END
>  <UniqueID>  (65) 
56

>  <SMILES>  (65) 
O=C(CSCCO)Nc1ccc(S(=O)(=O)/N=c2\cncc[n-]2)cc1

>  <Energy>  (65) 
43.433442335787085

>  <Genealogy>  (65) 
O=C(CSCCO)Nc1ccc(S(=O)(=O)N=c2cncc[n-]2)cc1 (protonated)
O=C(CSCCO)Nc1ccc(S(=O)(=O)/N=c2\cncc[n-]2)cc1 (cis-trans isomerization)
O=C(CSCCO)Nc1ccc(S(=O)(=O)/N=c2\cncc[n-]2)cc1 (3D coordinates assigned)
O=C(CSCCO)Nc1ccc(S(=O)(=O)/N=c2\cncc[n-]2)cc1 (optimized conformer: 43.433442335787085 kcal/mol)

>  <smiles>  (65) 
O=C(CSCCO)Nc1ccc(S(=O)(=O)N=c2cncc[nH]2)cc1

>  <score_type>  (65) 
oracle

>  <origin>  (65) 
adg

>  <m_score__min__energy>  (65) 
-8.7100000000000009

>  <m_primary>  (65) 
energy

$$$$
65:0
     RDKit          3D

 53 55  0  0  0  0  0  0  0  0999 V2000
   60.7290   28.9510   45.2510 C   0  0  0  0  0  0  0  0  0  0  0  0
   60.0050   28.4710   46.5040 C   0  0  0  0  0  0  0  0  0  0  0  0
   58.5730   28.1220   46.2060 C   0  0  0  0  0  0  0  0  0  0  0  0
   58.0020   26.9460   46.7190 C   0  0  0  0  0  0  0  0  0  0  0  0
   56.6720   26.6620   46.4040 C   0  0  0  0  0  0  0  0  0  0  0  0
   56.1290   25.6110   46.8410 O   0  0  0  0  0  0  0  0  0  0  0  0
   55.9600   27.5230   45.6250 N   0  0  0  0  0  0  0  0  0  0  0  0
   56.5250   28.6620   45.1420 C   0  0  0  0  0  0  0  0  0  0  0  0
   55.5430   29.8040   44.1680 S   0  0  0  0  0  0  0  0  0  0  0  0
   56.9590   30.8690   43.7070 C   0  0  0  0  0  0  0  0  0  0  0  0
   57.3240   31.7990   44.8250 C   0  0  0  0  0  0  0  0  0  0  0  0
   56.5360   32.7320   45.1440 O   0  0  0  0  0  0  0  0  0  0  0  0
   58.5910   31.6670   45.4830 N   0  0  0  0  0  0  0  0  0  0  0  0
   59.1120   32.6730   46.3660 C   0  0  0  0  0  0  0  0  0  0  0  0
   59.5850   32.2830   47.6280 C   0  0  0  0  0  0  0  0  0  0  0  0
   60.0780   33.2350   48.5290 C   0  0  0  0  0  0  0  0  0  0  0  0
   60.6380   32.7420   50.1300 S   0  0  0  0  0  0  0  0  0  0  0  0
   59.8280   31.5590   50.5830 O   0  0  0  0  0  0  0  0  0  0  0  0
   60.3930   33.8620   51.1030 O   0  0  0  0  0  0  0  0  0  0  0  0
   62.3380   32.3170   50.1540 N   0  0  0  0  0  0  0  0  0  0  0  0
   62.6690   31.2250   49.2130 C   0  0  0  0  0  0  0  0  0  0  0  0
   63.3230   31.7320   47.9160 C   0  0  0  0  0  0  0  0  0  0  0  0
   62.8650   33.0280   47.6080 O   0  0  0  0  0  0  0  0  0  0  0  0
   63.3870   33.9530   48.5450 C   0  0  0  0  0  0  0  0  0  0  0  0
   63.2140   33.4970   50.0160 C   0  0  0  0  0  0  0  0  0  0  0  0
   60.1200   34.5840   48.1580 C   0  0  0  0  0  0  0  0  0  0  0  0
   59.6760   34.9810   46.8950 C   0  0  0  0  0  0  0  0  0  0  0  0
   59.1930   34.0330   45.9790 C   0  0  0  0  0  0  0  0  0  0  0  0
   58.7720   34.4960   44.6080 C   0  0  0  0  0  0  0  0  0  0  0  0
   57.8200   28.9550   45.4330 N   0  0  0  0  0  0  0  0  0  0  0  0
   61.6135   29.5374   45.5405 H   0  0  0  0  0  0  0  0  0  0  0  0
   61.0442   28.0824   44.6542 H   0  0  0  0  0  0  0  0  0  0  0  0
   60.0516   29.5795   44.6542 H   0  0  0  0  0  0  0  0  0  0  0  0
   60.5174   27.5796   46.8949 H   0  0  0  0  0  0  0  0  0  0  0  0
   60.0179   29.2831   47.2458 H   0  0  0  0  0  0  0  0  0  0  0  0
   58.5884   26.2652   47.3536 H   0  0  0  0  0  0  0  0  0  0  0  0
   57.8251   30.2328   43.4722 H   0  0  0  0  0  0  0  0  0  0  0  0
   56.6719   31.4712   42.8324 H   0  0  0  0  0  0  0  0  0  0  0  0
   59.1160   30.7660   45.3990 H   0  0  0  0  0  0  0  0  0  0  0  0
   59.5685   31.2205   47.9121 H   0  0  0  0  0  0  0  0  0  0  0  0
   63.3644   30.5322   49.7095 H   0  0  0  0  0  0  0  0  0  0  0  0
   61.7266   30.7297   48.9365 H   0  0  0  0  0  0  0  0  0  0  0  0
   64.4151   31.7551   48.0460 H   0  0  0  0  0  0  0  0  0  0  0  0
   63.0541   31.0540   47.0926 H   0  0  0  0  0  0  0  0  0  0  0  0
   64.4604   34.0856   48.3442 H   0  0  0  0  0  0  0  0  0  0  0  0
   62.8248   34.8909   48.4257 H   0  0  0  0  0  0  0  0  0  0  0  0
   64.2044   33.2482   50.4248 H   0  0  0  0  0  0  0  0  0  0  0  0
   62.7402   34.3248   50.5639 H   0  0  0  0  0  0  0  0  0  0  0  0
   60.5044   35.3346   48.8643 H   0  0  0  0  0  0  0  0  0  0  0  0
   59.7049   36.0445   46.6157 H   0  0  0  0  0  0  0  0  0  0  0  0
   58.0349   35.3067   44.7051 H   0  0  0  0  0  0  0  0  0  0  0  0
   59.6514   34.8639   44.0591 H   0  0  0  0  0  0  0  0  0  0  0  0
   58.3224   33.6554   44.0591 H   0  0  0  0  0  0  0  0  0  0  0  0
  1  2  1  0
  2  3  1  0
  3  4  2  0
  4  5  1  0
  5  6  2  0
  5  7  1  0
  7  8  1  0
  8  9  1  0
  9 10  1  0
 10 11  1  0
 11 12  2  0
 11 13  1  0
 13 14  1  0
 14 15  2  0
 15 16  1  0
 16 17  1  0
 17 18  2  0
 17 19  2  0
 17 20  1  0
 20 21  1  0
 21 22  1  0
 22 23  1  0
 23 24  1  0
 24 25  1  0
 16 26  2  0
 26 27  1  0
 27 28  2  0
 28 29  1  0
  8 30  2  0
 30  3  1  0
 28 14  1  0
 25 20  1  0
  1 31  1  0
  1 32  1  0
  1 33  1  0
  2 34  1  0
  2 35  1  0
  4 36  1  0
 10 37  1  0
 10 38  1  0
 13 39  1  0
 15 40  1  0
 21 41  1  0
 21 42  1  0
 22 43  1  0
 22 44  1  0
 24 45  1  0
 24 46  1  0
 25 47  1  0
 25 48  1  0
 26 49  1  0
 27 50  1  0
 29 51  1  0
 29 52  1  0
 29 53  1  0
M  CHG  1   7  -1
M  END
>  <UniqueID>  (66) 
57

>  <SMILES>  (66) 
CCc1cc(=O)[n-]c(SCC(=O)Nc2cc(S(=O)(=O)N3CCOCC3)ccc2C)n1

>  <Energy>  (66) 
60.6396493384303

>  <Genealogy>  (66) 
CCc1cc(=O)[n-]c(SCC(=O)Nc2cc(S(=O)(=O)N3CCOCC3)ccc2C)n1 (protonated)
CCc1cc(=O)[n-]c(SCC(=O)Nc2cc(S(=O)(=O)N3CCOCC3)ccc2C)n1 (3D coordinates assigned)
CCc1cc(=O)[n-]c(SCC(=O)Nc2cc(S(=O)(=O)N3CCOCC3)ccc2C)n1 (nonaromatic ring conformer: 60.6396493384303 kcal/mol)

>  <smiles>  (66) 
CCc1cc(=O)[nH]c(SCC(=O)Nc2cc(S(=O)(=O)N3CCOCC3)ccc2C)n1

>  <score_type>  (66) 
oracle

>  <origin>  (66) 
adg

>  <m_score__min__energy>  (66) 
-10.880000000000001

>  <m_primary>  (66) 
energy

$$$$
66:0
     RDKit          3D

 36 37  0  0  0  0  0  0  0  0999 V2000
   57.6860   32.6900   44.0790 C   0  0  0  0  0  0  0  0  0  0  0  0
   58.4990   33.3170   45.1670 C   0  0  0  0  0  0  0  0  0  0  0  0
   58.8440   34.6720   45.1030 C   0  0  0  0  0  0  0  0  0  0  0  0
   59.6130   35.2320   46.1260 C   0  0  0  0  0  0  0  0  0  0  0  0
   60.0270   34.4380   47.1980 C   0  0  0  0  0  0  0  0  0  0  0  0
   59.6610   33.0870   47.2340 C   0  0  0  0  0  0  0  0  0  0  0  0
   60.1140   32.2040   48.3580 C   0  0  0  0  0  0  0  0  0  0  0  0
   59.6780   30.8280   48.1300 N   0  0  0  0  0  0  0  0  0  0  0  0
   60.3350   29.7030   48.7350 C   0  0  0  0  0  0  0  0  0  0  0  0
   61.2280   29.8860   49.6050 O   0  0  0  0  0  0  0  0  0  0  0  0
   59.9480   28.3630   48.4110 N   0  0  0  0  0  0  0  0  0  0  0  0
   59.2770   27.9480   47.2130 C   0  0  0  0  0  0  0  0  0  0  0  0
   59.6310   28.5420   45.9960 C   0  0  0  0  0  0  0  0  0  0  0  0
   58.9820   28.1720   44.8160 C   0  0  0  0  0  0  0  0  0  0  0  0
   57.9610   27.2190   44.8450 C   0  0  0  0  0  0  0  0  0  0  0  0
   57.5730   26.6420   46.0620 C   0  0  0  0  0  0  0  0  0  0  0  0
   56.2830   25.4440   46.1160 S   0  0  0  0  0  0  0  0  0  0  0  0
   54.7600   26.2280   45.8930 N   0  0  0  0  0  0  0  0  0  0  0  0
   56.2880   24.7370   47.4420 O   0  0  0  0  0  0  0  0  0  0  0  0
   56.4930   24.4310   45.0260 O   0  0  0  0  0  0  0  0  0  0  0  0
   58.2280   27.0120   47.2450 C   0  0  0  0  0  0  0  0  0  0  0  0
   58.9170   32.5630   46.2210 N   0  0  0  0  0  0  0  0  0  0  0  0
   56.8894   32.0757   44.5241 H   0  0  0  0  0  0  0  0  0  0  0  0
   57.2369   33.4778   43.4564 H   0  0  0  0  0  0  0  0  0  0  0  0
   58.3339   32.0554   43.4564 H   0  0  0  0  0  0  0  0  0  0  0  0
   58.5128   35.2899   44.2554 H   0  0  0  0  0  0  0  0  0  0  0  0
   59.8917   36.2954   46.0874 H   0  0  0  0  0  0  0  0  0  0  0  0
   60.6350   34.8701   48.0065 H   0  0  0  0  0  0  0  0  0  0  0  0
   61.2119   32.2310   48.4207 H   0  0  0  0  0  0  0  0  0  0  0  0
   59.6735   32.5675   49.2981 H   0  0  0  0  0  0  0  0  0  0  0  0
   58.8310   30.6720   47.5390 H   0  0  0  0  0  0  0  0  0  0  0  0
   60.4241   29.3038   45.9689 H   0  0  0  0  0  0  0  0  0  0  0  0
   59.2756   28.6323   43.8611 H   0  0  0  0  0  0  0  0  0  0  0  0
   57.4609   26.9211   43.9116 H   0  0  0  0  0  0  0  0  0  0  0  0
   54.7720   27.0910   46.4810 H   0  0  0  0  0  0  0  0  0  0  0  0
   57.9198   26.5679   48.2030 H   0  0  0  0  0  0  0  0  0  0  0  0
  1  2  1  0
  2  3  2  0
  3  4  1  0
  4  5  2  0
  5  6  1  0
  6  7  1  0
  7  8  1  0
  8  9  1  0
  9 10  2  0
  9 11  1  0
 11 12  1  0
 12 13  2  0
 13 14  1  0
 14 15  2  0
 15 16  1  0
 16 17  1  0
 17 18  1  0
 17 19  2  0
 17 20  2  0
 16 21  2  0
  6 22  2  0
 22  2  1  0
 21 12  1  0
  1 23  1  0
  1 24  1  0
  1 25  1  0
  3 26  1  0
  4 27  1  0
  5 28  1  0
  7 29  1  0
  7 30  1  0
  8 31  1  0
 13 32  1  0
 14 33  1  0
 15 34  1  0
 18 35  1  0
 21 36  1  0
M  CHG  2  11  -1  18  -1
M  END
>  <UniqueID>  (67) 
58

>  <SMILES>  (67) 
Cc1cccc(CNC(=O)[N-]c2cccc(S([NH-])(=O)=O)c2)n1

>  <Energy>  (67) 
36.28539875441164

>  <Genealogy>  (67) 
Cc1cccc(CNC(=O)[N-]c2cccc(S([NH-])(=O)=O)c2)n1 (protonated)
Cc1cccc(CNC(=O)[N-]c2cccc(S([NH-])(=O)=O)c2)n1 (3D coordinates assigned)
Cc1cccc(CNC(=O)[N-]c2cccc(S([NH-])(=O)=O)c2)n1 (optimized conformer: 36.28539875441164 kcal/mol)

>  <smiles>  (67) 
Cc1cccc(CNC(=O)Nc2cccc(S(N)(=O)=O)c2)n1

>  <score_type>  (67) 
oracle

>  <origin>  (67) 
adg

>  <m_score__min__energy>  (67) 
-12.26

>  <m_primary>  (67) 
energy

$$$$
67:0
     RDKit          3D

 52 55  0  0  0  0  0  0  0  0999 V2000
   63.9130   32.9620   49.4050 C   0  0  0  0  0  0  0  0  0  0  0  0
   62.8360   32.4640   48.4830 C   0  0  0  0  0  0  0  0  0  0  0  0
   63.0980   31.3600   47.7340 N   0  0  0  0  0  0  0  0  0  0  0  0
   62.1890   30.8300   46.8790 C   0  0  0  0  0  0  0  0  0  0  0  0
   60.9340   31.4160   46.7340 C   0  0  0  0  0  0  0  0  0  0  0  0
   60.6110   32.5710   47.4720 C   0  0  0  0  0  0  0  0  0  0  0  0
   59.3470   33.1980   47.3450 C   0  0  0  0  0  0  0  0  0  0  0  0
   58.3790   32.7350   46.3850 N   0  0  0  0  0  0  0  0  0  0  0  0
   58.4340   33.0860   44.9920 C   0  0  0  0  0  0  0  0  0  0  0  0
   59.2080   34.0000   44.6000 O   0  0  0  0  0  0  0  0  0  0  0  0
   57.6040   32.4280   44.0290 N   0  0  0  0  0  0  0  0  0  0  0  0
   56.6060   31.4210   44.3630 C   0  0  0  0  0  0  0  0  0  0  0  0
   57.2850   30.0980   44.5890 C   0  0  0  0  0  0  0  0  0  0  0  0
   58.6870   30.0100   44.5400 C   0  0  0  0  0  0  0  0  0  0  0  0
   59.3250   28.7830   44.7360 C   0  0  0  0  0  0  0  0  0  0  0  0
   58.5760   27.6210   44.9500 C   0  0  0  0  0  0  0  0  0  0  0  0
   59.2650   26.3840   45.1570 N   0  0  0  0  0  0  0  0  0  0  0  0
   58.6140   25.0230   46.0130 S   0  0  0  0  0  0  0  0  0  0  0  0
   59.6210   23.9080   45.9940 O   0  0  0  0  0  0  0  0  0  0  0  0
   58.3130   25.3660   47.4450 O   0  0  0  0  0  0  0  0  0  0  0  0
   57.1260   24.5190   45.2180 C   0  0  0  0  0  0  0  0  0  0  0  0
   57.1880   23.9110   43.9560 C   0  0  0  0  0  0  0  0  0  0  0  0
   56.0160   23.4940   43.3180 C   0  0  0  0  0  0  0  0  0  0  0  0
   54.7780   23.6790   43.9380 C   0  0  0  0  0  0  0  0  0  0  0  0
   54.7100   24.2810   45.1970 C   0  0  0  0  0  0  0  0  0  0  0  0
   55.8810   24.7000   45.8390 C   0  0  0  0  0  0  0  0  0  0  0  0
   57.1760   27.7030   45.0090 C   0  0  0  0  0  0  0  0  0  0  0  0
   56.5320   28.9320   44.8230 C   0  0  0  0  0  0  0  0  0  0  0  0
   55.1430   28.9870   44.8790 O   0  0  0  0  0  0  0  0  0  0  0  0
   59.0590   34.3350   48.1180 C   0  0  0  0  0  0  0  0  0  0  0  0
   59.9980   34.8410   49.0120 C   0  0  0  0  0  0  0  0  0  0  0  0
   61.2440   34.2330   49.1460 C   0  0  0  0  0  0  0  0  0  0  0  0
   61.5730   33.0980   48.3780 C   0  0  0  0  0  0  0  0  0  0  0  0
   63.5982   32.8164   50.4489 H   0  0  0  0  0  0  0  0  0  0  0  0
   64.8415   32.4018   49.2205 H   0  0  0  0  0  0  0  0  0  0  0  0
   64.0876   34.0323   49.2205 H   0  0  0  0  0  0  0  0  0  0  0  0
   62.4442   29.9323   46.2967 H   0  0  0  0  0  0  0  0  0  0  0  0
   60.1970   30.9778   46.0449 H   0  0  0  0  0  0  0  0  0  0  0  0
   57.6130   32.1090   46.7220 H   0  0  0  0  0  0  0  0  0  0  0  0
   56.0741   31.7212   45.2779 H   0  0  0  0  0  0  0  0  0  0  0  0
   55.8877   31.3279   43.5351 H   0  0  0  0  0  0  0  0  0  0  0  0
   59.2851   30.9126   44.3462 H   0  0  0  0  0  0  0  0  0  0  0  0
   60.4236   28.7300   44.7220 H   0  0  0  0  0  0  0  0  0  0  0  0
   58.1617   23.7617   43.4665 H   0  0  0  0  0  0  0  0  0  0  0  0
   56.0688   23.0198   42.3269 H   0  0  0  0  0  0  0  0  0  0  0  0
   53.8565   23.3507   43.4349 H   0  0  0  0  0  0  0  0  0  0  0  0
   53.7346   24.4259   45.6844 H   0  0  0  0  0  0  0  0  0  0  0  0
   55.8252   25.1716   46.8312 H   0  0  0  0  0  0  0  0  0  0  0  0
   56.5822   26.7974   45.2023 H   0  0  0  0  0  0  0  0  0  0  0  0
   58.0821   34.8301   48.0158 H   0  0  0  0  0  0  0  0  0  0  0  0
   59.7545   35.7270   49.6168 H   0  0  0  0  0  0  0  0  0  0  0  0
   61.9770   34.6420   49.8569 H   0  0  0  0  0  0  0  0  0  0  0  0
  1  2  1  0
  2  3  2  0
  3  4  1  0
  4  5  2  0
  5  6  1  0
  6  7  2  0
  7  8  1  0
  8  9  1  0
  9 10  2  0
  9 11  1  0
 11 12  1  0
 12 13  1  0
 13 14  2  0
 14 15  1  0
 15 16  2  0
 16 17  1  0
 17 18  1  0
 18 19  2  0
 18 20  2  0
 18 21  1  0
 21 22  2  0
 22 23  1  0
 23 24  2  0
 24 25  1  0
 25 26  2  0
 16 27  1  0
 27 28  2  0
 28 29  1  0
  7 30  1  0
 30 31  2  0
 31 32  1  0
 32 33  2  0
 33  2  1  0
 33  6  1  0
 28 13  1  0
 26 21  1  0
  1 34  1  0
  1 35  1  0
  1 36  1  0
  4 37  1  0
  5 38  1  0
  8 39  1  0
 12 40  1  0
 12 41  1  0
 14 42  1  0
 15 43  1  0
 22 44  1  0
 23 45  1  0
 24 46  1  0
 25 47  1  0
 26 48  1  0
 27 49  1  0
 30 50  1  0
 31 51  1  0
 32 52  1  0
M  CHG  3  11  -1  17  -1  29  -1
M  END
>  <UniqueID>  (68) 
59

>  <SMILES>  (68) 
Cc1nccc2c(NC(=O)[N-]Cc3ccc([N-]S(=O)(=O)c4ccccc4)cc3[O-])cccc12

>  <Energy>  (68) 
73.90918739755804

>  <Genealogy>  (68) 
Cc1nccc2c(NC(=O)[N-]Cc3ccc([N-]S(=O)(=O)c4ccccc4)cc3[O-])cccc12 (protonated)
Cc1nccc2c(NC(=O)[N-]Cc3ccc([N-]S(=O)(=O)c4ccccc4)cc3[O-])cccc12 (3D coordinates assigned)
Cc1nccc2c(NC(=O)[N-]Cc3ccc([N-]S(=O)(=O)c4ccccc4)cc3[O-])cccc12 (optimized conformer: 73.90918739755804 kcal/mol)

>  <smiles>  (68) 
Cc1nccc2c(NC(=O)NCc3ccc(NS(=O)(=O)c4ccccc4)cc3O)cccc12

>  <score_type>  (68) 
oracle

>  <origin>  (68) 
adg

>  <m_score__min__energy>  (68) 
-15.949999999999999

>  <m_primary>  (68) 
energy

$$$$
68:0
     RDKit          3D

 46 48  0  0  0  0  0  0  0  0999 V2000
   56.2910   30.1170   42.6980 C   0  0  0  0  0  0  0  0  0  0  0  0
   56.9220   29.7670   44.0120 C   0  0  0  0  0  0  0  0  0  0  0  0
   56.9780   28.4600   44.3820 N   0  0  0  0  0  0  0  0  0  0  0  0
   57.5410   28.0610   45.5270 N   0  0  0  0  0  0  0  0  0  0  0  0
   57.5760   26.6250   45.8180 C   0  0  0  0  0  0  0  0  0  0  0  0
   56.2830   26.1960   46.4370 C   0  0  0  0  0  0  0  0  0  0  0  0
   55.1990   26.6900   46.0250 O   0  0  0  0  0  0  0  0  0  0  0  0
   56.2830   25.1910   47.4560 N   0  0  0  0  0  0  0  0  0  0  0  0
   56.5720   23.7850   47.2010 C   0  0  0  0  0  0  0  0  0  0  0  0
   56.3200   23.4520   45.7520 C   0  0  0  0  0  0  0  0  0  0  0  0
   57.3410   22.8790   44.9740 C   0  0  0  0  0  0  0  0  0  0  0  0
   57.1210   22.5850   43.6270 C   0  0  0  0  0  0  0  0  0  0  0  0
   55.8840   22.8610   43.0430 C   0  0  0  0  0  0  0  0  0  0  0  0
   54.8640   23.4340   43.8040 C   0  0  0  0  0  0  0  0  0  0  0  0
   55.0750   23.7350   45.1580 C   0  0  0  0  0  0  0  0  0  0  0  0
   54.0540   24.3130   45.9110 O   0  0  0  0  0  0  0  0  0  0  0  0
   58.1150   28.9740   46.3710 C   0  0  0  0  0  0  0  0  0  0  0  0
   58.6750   28.6060   47.4390 O   0  0  0  0  0  0  0  0  0  0  0  0
   58.0820   30.3290   46.0470 C   0  0  0  0  0  0  0  0  0  0  0  0
   57.4560   30.7430   44.8720 C   0  0  0  0  0  0  0  0  0  0  0  0
   57.4190   32.1420   44.5500 N   0  0  0  0  0  0  0  0  0  0  0  0
   58.1360   33.1470   45.2860 C   0  0  0  0  0  0  0  0  0  0  0  0
   57.9730   33.2290   46.6790 C   0  0  0  0  0  0  0  0  0  0  0  0
   58.6490   34.2070   47.4140 C   0  0  0  0  0  0  0  0  0  0  0  0
   59.4830   35.1200   46.7650 C   0  0  0  0  0  0  0  0  0  0  0  0
   59.6410   35.0570   45.3780 C   0  0  0  0  0  0  0  0  0  0  0  0
   58.9680   34.0800   44.6380 C   0  0  0  0  0  0  0  0  0  0  0  0
   55.3417   30.6435   42.8758 H   0  0  0  0  0  0  0  0  0  0  0  0
   56.9698   30.7676   42.1270 H   0  0  0  0  0  0  0  0  0  0  0  0
   56.0985   29.1967   42.1270 H   0  0  0  0  0  0  0  0  0  0  0  0
   57.7347   26.0677   44.8830 H   0  0  0  0  0  0  0  0  0  0  0  0
   58.3978   26.4189   46.5196 H   0  0  0  0  0  0  0  0  0  0  0  0
   57.6259   23.5820   47.4418 H   0  0  0  0  0  0  0  0  0  0  0  0
   55.9151   23.1656   47.8294 H   0  0  0  0  0  0  0  0  0  0  0  0
   58.3185   22.6611   45.4289 H   0  0  0  0  0  0  0  0  0  0  0  0
   57.9242   22.1350   43.0250 H   0  0  0  0  0  0  0  0  0  0  0  0
   55.7127   22.6267   41.9820 H   0  0  0  0  0  0  0  0  0  0  0  0
   53.8904   23.6506   43.3402 H   0  0  0  0  0  0  0  0  0  0  0  0
   54.2490   24.8540   46.7450 H   0  0  0  0  0  0  0  0  0  0  0  0
   58.5476   31.0684   46.7151 H   0  0  0  0  0  0  0  0  0  0  0  0
   56.9230   32.4240   43.6740 H   0  0  0  0  0  0  0  0  0  0  0  0
   57.3093   32.5192   47.1944 H   0  0  0  0  0  0  0  0  0  0  0  0
   58.5239   34.2576   48.5057 H   0  0  0  0  0  0  0  0  0  0  0  0
   60.0152   35.8882   47.3452 H   0  0  0  0  0  0  0  0  0  0  0  0
   60.2964   35.7777   44.8671 H   0  0  0  0  0  0  0  0  0  0  0  0
   59.0890   34.0401   43.5454 H   0  0  0  0  0  0  0  0  0  0  0  0
  1  2  1  0
  2  3  2  0
  3  4  1  0
  4  5  1  0
  5  6  1  0
  6  7  2  0
  6  8  1  0
  8  9  1  0
  9 10  1  0
 10 11  2  0
 11 12  1  0
 12 13  2  0
 13 14  1  0
 14 15  2  0
 15 16  1  0
  4 17  1  0
 17 18  2  0
 17 19  1  0
 19 20  2  0
 20 21  1  0
 21 22  1  0
 22 23  2  0
 23 24  1  0
 24 25  2  0
 25 26  1  0
 26 27  2  0
 20  2  1  0
 27 22  1  0
 15 10  1  0
  1 28  1  0
  1 29  1  0
  1 30  1  0
  5 31  1  0
  5 32  1  0
  9 33  1  0
  9 34  1  0
 11 35  1  0
 12 36  1  0
 13 37  1  0
 14 38  1  0
 16 39  1  0
 19 40  1  0
 21 41  1  0
 23 42  1  0
 24 43  1  0
 25 44  1  0
 26 45  1  0
 27 46  1  0
M  CHG  1   8  -1
M  END
>  <UniqueID>  (69) 
60

>  <SMILES>  (69) 
Cc1nn(CC(=O)[N-]Cc2ccccc2O)c(=O)cc1Nc1ccccc1

>  <Energy>  (69) 
52.757591496583245

>  <Genealogy>  (69) 
Cc1nn(CC(=O)[N-]Cc2ccccc2O)c(=O)cc1Nc1ccccc1 (protonated)
Cc1nn(CC(=O)[N-]Cc2ccccc2O)c(=O)cc1Nc1ccccc1 (3D coordinates assigned)
Cc1nn(CC(=O)[N-]Cc2ccccc2O)c(=O)cc1Nc1ccccc1 (optimized conformer: 52.757591496583245 kcal/mol)

>  <smiles>  (69) 
Cc1nn(CC(=O)NCc2ccccc2O)c(=O)cc1Nc1ccccc1

>  <score_type>  (69) 
oracle

>  <origin>  (69) 
adg

>  <m_score__min__energy>  (69) 
-12.02

>  <m_primary>  (69) 
energy

$$$$
69:0
     RDKit          3D

 61 64  0  0  0  0  0  0  0  0999 V2000
   67.4630   33.5740   50.8760 C   0  0  0  0  0  0  0  0  0  0  0  0
   67.0590   32.3160   50.3480 O   0  0  0  0  0  0  0  0  0  0  0  0
   66.6980   31.2360   51.1610 C   0  0  0  0  0  0  0  0  0  0  0  0
   67.5810   30.6100   51.8090 O   0  0  0  0  0  0  0  0  0  0  0  0
   65.2810   30.8300   51.2320 C   0  0  0  0  0  0  0  0  0  0  0  0
   64.7220   29.6600   52.3030 S   0  0  0  0  0  0  0  0  0  0  0  0
   63.1150   29.7480   51.8420 C   0  0  0  0  0  0  0  0  0  0  0  0
   62.0650   28.9990   52.4540 N   0  0  0  0  0  0  0  0  0  0  0  0
   62.9710   30.6930   50.8270 C   0  0  0  0  0  0  0  0  0  0  0  0
   61.6730   30.9880   50.1850 C   0  0  0  0  0  0  0  0  0  0  0  0
   60.9460   31.8880   50.6880 O   0  0  0  0  0  0  0  0  0  0  0  0
   61.2100   30.2530   48.9790 C   0  0  0  0  0  0  0  0  0  0  0  0
   61.3830   30.7910   47.6870 C   0  0  0  0  0  0  0  0  0  0  0  0
   60.9420   30.0880   46.5620 C   0  0  0  0  0  0  0  0  0  0  0  0
   60.3030   28.8540   46.7070 C   0  0  0  0  0  0  0  0  0  0  0  0
   59.7360   27.9850   45.2870 Cl  0  0  0  0  0  0  0  0  0  0  0  0
   60.1100   28.3180   47.9820 C   0  0  0  0  0  0  0  0  0  0  0  0
   60.5600   29.0120   49.1120 C   0  0  0  0  0  0  0  0  0  0  0  0
   64.1950   31.3130   50.4770 C   0  0  0  0  0  0  0  0  0  0  0  0
   64.3380   32.3380   49.3750 C   0  0  0  0  0  0  0  0  0  0  0  0
   63.3820   33.3850   49.5440 O   0  0  0  0  0  0  0  0  0  0  0  0
   62.3970   33.7360   48.6050 C   0  0  0  0  0  0  0  0  0  0  0  0
   61.1410   34.2430   48.9840 C   0  0  0  0  0  0  0  0  0  0  0  0
   60.1830   34.5470   48.0130 C   0  0  0  0  0  0  0  0  0  0  0  0
   60.4690   34.3620   46.6510 C   0  0  0  0  0  0  0  0  0  0  0  0
   59.4080   34.6170   45.6150 C   0  0  0  0  0  0  0  0  0  0  0  0
   58.6470   33.3500   45.3320 C   0  0  0  0  0  0  0  0  0  0  0  0
   58.4200   32.4140   46.3510 C   0  0  0  0  0  0  0  0  0  0  0  0
   57.7690   31.2120   46.0700 C   0  0  0  0  0  0  0  0  0  0  0  0
   57.3590   30.9100   44.7630 C   0  0  0  0  0  0  0  0  0  0  0  0
   56.5950   29.3510   44.4280 S   0  0  0  0  0  0  0  0  0  0  0  0
   57.3990   28.5480   43.1220 N   0  0  0  0  0  0  0  0  0  0  0  0
   55.1570   29.5640   44.0450 O   0  0  0  0  0  0  0  0  0  0  0  0
   56.6670   28.4860   45.6560 O   0  0  0  0  0  0  0  0  0  0  0  0
   57.5660   31.8590   43.7400 C   0  0  0  0  0  0  0  0  0  0  0  0
   57.0410   31.5740   42.0840 Cl  0  0  0  0  0  0  0  0  0  0  0  0
   58.2080   33.0680   44.0300 C   0  0  0  0  0  0  0  0  0  0  0  0
   61.7290   33.8720   46.2750 C   0  0  0  0  0  0  0  0  0  0  0  0
   62.6870   33.5730   47.2460 C   0  0  0  0  0  0  0  0  0  0  0  0
   67.4494   33.5318   51.9751 H   0  0  0  0  0  0  0  0  0  0  0  0
   68.4811   33.8068   50.5305 H   0  0  0  0  0  0  0  0  0  0  0  0
   66.7708   34.3560   50.5305 H   0  0  0  0  0  0  0  0  0  0  0  0
   61.0740   29.0900   52.1300 H   0  0  0  0  0  0  0  0  0  0  0  0
   62.2690   28.3880   53.2720 H   0  0  0  0  0  0  0  0  0  0  0  0
   61.8682   31.7704   47.5636 H   0  0  0  0  0  0  0  0  0  0  0  0
   61.0989   30.5084   45.5577 H   0  0  0  0  0  0  0  0  0  0  0  0
   59.6034   27.3486   48.0989 H   0  0  0  0  0  0  0  0  0  0  0  0
   60.4039   28.5831   50.1128 H   0  0  0  0  0  0  0  0  0  0  0  0
   65.3517   32.7640   49.4052 H   0  0  0  0  0  0  0  0  0  0  0  0
   64.1636   31.8477   48.4059 H   0  0  0  0  0  0  0  0  0  0  0  0
   60.9120   34.4008   50.0483 H   0  0  0  0  0  0  0  0  0  0  0  0
   59.1992   34.9335   48.3176 H   0  0  0  0  0  0  0  0  0  0  0  0
   58.7126   35.3837   45.9874 H   0  0  0  0  0  0  0  0  0  0  0  0
   59.8864   34.9646   44.6875 H   0  0  0  0  0  0  0  0  0  0  0  0
   58.7564   32.6280   47.3762 H   0  0  0  0  0  0  0  0  0  0  0  0
   57.5756   30.4946   46.8811 H   0  0  0  0  0  0  0  0  0  0  0  0
   56.6820   27.9700   42.6310 H   0  0  0  0  0  0  0  0  0  0  0  0
   57.7030   29.2880   42.4500 H   0  0  0  0  0  0  0  0  0  0  0  0
   58.3700   33.8044   43.2291 H   0  0  0  0  0  0  0  0  0  0  0  0
   61.9631   33.7228   45.2106 H   0  0  0  0  0  0  0  0  0  0  0  0
   63.6779   33.2063   46.9399 H   0  0  0  0  0  0  0  0  0  0  0  0
  1  2  1  0
  2  3  1  0
  3  4  2  0
  3  5  1  0
  5  6  1  0
  6  7  1  0
  7  8  1  0
  7  9  2  0
  9 10  1  0
 10 11  2  0
 10 12  1  0
 12 13  2  0
 13 14  1  0
 14 15  2  0
 15 16  1  0
 15 17  1  0
 17 18  2  0
  9 19  1  0
 19 20  1  0
 20 21  1  0
 21 22  1  0
 22 23  2  0
 23 24  1  0
 24 25  2  0
 25 26  1  0
 26 27  1  0
 27 28  2  0
 28 29  1  0
 29 30  2  0
 30 31  1  0
 31 32  1  0
 31 33  2  0
 31 34  2  0
 30 35  1  0
 35 36  1  0
 35 37  2  0
 25 38  1  0
 38 39  2  0
 19  5  2  0
 39 22  1  0
 18 12  1  0
 37 27  1  0
  1 40  1  0
  1 41  1  0
  1 42  1  0
  8 43  1  0
  8 44  1  0
 13 45  1  0
 14 46  1  0
 17 47  1  0
 18 48  1  0
 20 49  1  0
 20 50  1  0
 23 51  1  0
 24 52  1  0
 26 53  1  0
 26 54  1  0
 28 55  1  0
 29 56  1  0
 32 57  1  0
 32 58  1  0
 37 59  1  0
 38 60  1  0
 39 61  1  0
M  END
>  <UniqueID>  (70) 
61

>  <SMILES>  (70) 
COC(=O)c1sc(N)c(C(=O)c2ccc(Cl)cc2)c1COc1ccc(Cc2ccc(S(N)(=O)=O)c(Cl)c2)cc1

>  <Energy>  (70) 
92.03275515208443

>  <Genealogy>  (70) 
COC(=O)c1sc(N)c(C(=O)c2ccc(Cl)cc2)c1COc1ccc(Cc2ccc(S(N)(=O)=O)c(Cl)c2)cc1 (3D coordinates assigned)
COC(=O)c1sc(N)c(C(=O)c2ccc(Cl)cc2)c1COc1ccc(Cc2ccc(S(N)(=O)=O)c(Cl)c2)cc1 (optimized conformer: 92.03275515208443 kcal/mol)

>  <smiles>  (70) 
COC(=O)c1sc(N)c(C(=O)c2ccc(Cl)cc2)c1COc1ccc(Cc2ccc(S(N)(=O)=O)c(Cl)c2)cc1

>  <score_type>  (70) 
oracle

>  <origin>  (70) 
adg

>  <m_score__min__energy>  (70) 
-9.9299999999999997

>  <m_primary>  (70) 
energy

$$$$
70:0
     RDKit          3D

 54 56  0  0  0  0  0  0  0  0999 V2000
   63.3460   33.8870   46.3950 C   0  0  0  0  0  0  0  0  0  0  0  0
   62.6900   32.9000   47.1820 O   0  0  0  0  0  0  0  0  0  0  0  0
   63.1620   32.4230   48.4160 C   0  0  0  0  0  0  0  0  0  0  0  0
   64.4250   32.7860   48.9240 C   0  0  0  0  0  0  0  0  0  0  0  0
   64.8630   32.2850   50.1530 C   0  0  0  0  0  0  0  0  0  0  0  0
   64.0560   31.4090   50.8780 C   0  0  0  0  0  0  0  0  0  0  0  0
   62.8040   31.0410   50.3840 C   0  0  0  0  0  0  0  0  0  0  0  0
   62.3390   31.5640   49.1650 C   0  0  0  0  0  0  0  0  0  0  0  0
   61.0620   31.1790   48.6330 N   0  0  0  0  0  0  0  0  0  0  0  0
   60.7980   30.0100   47.8480 C   0  0  0  0  0  0  0  0  0  0  0  0
   60.7920   28.8850   48.4140 O   0  0  0  0  0  0  0  0  0  0  0  0
   60.5510   30.0970   46.3700 C   0  0  0  0  0  0  0  0  0  0  0  0
   59.3280   30.7850   46.1130 O   0  0  0  0  0  0  0  0  0  0  0  0
   59.2500   32.1810   46.1140 C   0  0  0  0  0  0  0  0  0  0  0  0
   60.0570   32.8820   46.9600 N   0  0  0  0  0  0  0  0  0  0  0  0
   59.9830   34.2360   47.0650 C   0  0  0  0  0  0  0  0  0  0  0  0
   59.0670   34.9500   46.2940 C   0  0  0  0  0  0  0  0  0  0  0  0
   58.2460   34.2650   45.3990 C   0  0  0  0  0  0  0  0  0  0  0  0
   58.3440   32.8730   45.2770 C   0  0  0  0  0  0  0  0  0  0  0  0
   57.5310   32.1730   44.2660 C   0  0  0  0  0  0  0  0  0  0  0  0
   57.8380   32.2580   43.0440 O   0  0  0  0  0  0  0  0  0  0  0  0
   56.4170   31.3760   44.6840 N   0  0  0  0  0  0  0  0  0  0  0  0
   56.0320   30.2960   44.0770 C   0  0  0  0  0  0  0  0  0  0  0  0
   57.0380   29.4070   43.4170 C   0  0  0  0  0  0  0  0  0  0  0  0
   57.5440   28.3800   44.4040 C   0  0  0  0  0  0  0  0  0  0  0  0
   57.4520   28.6670   45.7780 C   0  0  0  0  0  0  0  0  0  0  0  0
   57.8840   27.7410   46.7290 C   0  0  0  0  0  0  0  0  0  0  0  0
   58.4100   26.5160   46.3230 C   0  0  0  0  0  0  0  0  0  0  0  0
   58.4970   26.2070   44.9640 C   0  0  0  0  0  0  0  0  0  0  0  0
   58.0530   27.1200   43.9910 C   0  0  0  0  0  0  0  0  0  0  0  0
   58.1520   26.7430   42.5360 C   0  0  0  0  0  0  0  0  0  0  0  0
   63.8326   34.6192   47.0561 H   0  0  0  0  0  0  0  0  0  0  0  0
   64.1043   33.4053   45.7602 H   0  0  0  0  0  0  0  0  0  0  0  0
   62.6083   34.3996   45.7602 H   0  0  0  0  0  0  0  0  0  0  0  0
   65.0700   33.4676   48.3501 H   0  0  0  0  0  0  0  0  0  0  0  0
   65.8454   32.5821   50.5488 H   0  0  0  0  0  0  0  0  0  0  0  0
   64.4067   31.0077   51.8403 H   0  0  0  0  0  0  0  0  0  0  0  0
   62.1773   30.3376   50.9518 H   0  0  0  0  0  0  0  0  0  0  0  0
   61.3805   30.6411   45.8947 H   0  0  0  0  0  0  0  0  0  0  0  0
   60.4831   29.0795   45.9576 H   0  0  0  0  0  0  0  0  0  0  0  0
   60.7360   32.3650   47.5630 H   0  0  0  0  0  0  0  0  0  0  0  0
   60.6479   34.7693   47.7604 H   0  0  0  0  0  0  0  0  0  0  0  0
   58.9926   36.0432   46.3907 H   0  0  0  0  0  0  0  0  0  0  0  0
   57.5193   34.8193   44.7870 H   0  0  0  0  0  0  0  0  0  0  0  0
   54.9642   30.0335   44.0476 H   0  0  0  0  0  0  0  0  0  0  0  0
   56.5677   28.8935   42.5654 H   0  0  0  0  0  0  0  0  0  0  0  0
   57.8829   30.0164   43.0637 H   0  0  0  0  0  0  0  0  0  0  0  0
   57.0355   29.6307   46.1063 H   0  0  0  0  0  0  0  0  0  0  0  0
   57.8091   27.9785   47.8004 H   0  0  0  0  0  0  0  0  0  0  0  0
   58.7572   25.7914   47.0742 H   0  0  0  0  0  0  0  0  0  0  0  0
   58.9171   25.2396   44.6514 H   0  0  0  0  0  0  0  0  0  0  0  0
   58.4305   25.6823   42.4502 H   0  0  0  0  0  0  0  0  0  0  0  0
   57.1802   26.9076   42.0476 H   0  0  0  0  0  0  0  0  0  0  0  0
   58.9176   27.3638   42.0476 H   0  0  0  0  0  0  0  0  0  0  0  0
  1  2  1  0
  2  3  1  0
  3  4  2  0
  4  5  1  0
  5  6  2  0
  6  7  1  0
  7  8  2  0
  8  9  1  0
  9 10  1  0
 10 11  2  0
 10 12  1  0
 12 13  1  0
 13 14  1  0
 14 15  2  0
 15 16  1  0
 16 17  2  0
 17 18  1  0
 18 19  2  0
 19 20  1  0
 20 21  2  0
 20 22  1  0
 22 23  2  3
 23 24  1  0
 24 25  1  0
 25 26  2  0
 26 27  1  0
 27 28  2  0
 28 29  1  0
 29 30  2  0
 30 31  1  0
  8  3  1  0
 19 14  1  0
 30 25  1  0
  1 32  1  0
  1 33  1  0
  1 34  1  0
  4 35  1  0
  5 36  1  0
  6 37  1  0
  7 38  1  0
 12 39  1  0
 12 40  1  0
 15 41  1  0
 16 42  1  0
 17 43  1  0
 18 44  1  0
 23 45  1  0
 24 46  1  0
 24 47  1  0
 26 48  1  0
 27 49  1  0
 28 50  1  0
 29 51  1  0
 31 52  1  0
 31 53  1  0
 31 54  1  0
M  CHG  2   9  -1  15   1
M  END
>  <UniqueID>  (71) 
62

>  <SMILES>  (71) 
COc1ccccc1[N-]C(=O)COc1[nH+]cccc1C(=O)N=CCc1ccccc1C

>  <Energy>  (71) 
67.02182724678954

>  <Genealogy>  (71) 
COc1ccccc1[N-]C(=O)COc1[nH+]cccc1C(=O)N=CCc1ccccc1C (protonated)
COc1ccccc1[N-]C(=O)COc1[nH+]cccc1C(=O)N=CCc1ccccc1C (3D coordinates assigned)
COc1ccccc1[N-]C(=O)COc1[nH+]cccc1C(=O)N=CCc1ccccc1C (optimized conformer: 67.02182724678954 kcal/mol)

>  <smiles>  (71) 
COc1ccccc1NC(=O)COc1ncccc1C(=O)N=CCc1ccccc1C

>  <score_type>  (71) 
oracle

>  <origin>  (71) 
adg

>  <m_score__min__energy>  (71) 
-9.5800000000000001

>  <m_primary>  (71) 
energy

$$$$
71:0
     RDKit          3D

 23 24  0  0  0  0  0  0  0  0999 V2000
   57.9340   27.5210   43.7910 O   0  0  0  0  0  0  0  0  0  0  0  0
   57.2890   27.6040   44.8690 C   0  0  0  0  0  0  0  0  0  0  0  0
   56.7240   28.8740   45.2360 N   0  0  0  0  0  0  0  0  0  0  0  0
   57.0540   30.0390   44.7550 C   0  0  0  0  0  0  0  0  0  0  0  0
   57.4320   31.0550   45.5830 N   0  0  0  0  0  0  0  0  0  0  0  0
   57.7680   32.2860   45.1130 C   0  0  0  0  0  0  0  0  0  0  0  0
   57.7230   32.5440   43.7430 C   0  0  0  0  0  0  0  0  0  0  0  0
   57.3300   31.5300   42.8700 C   0  0  0  0  0  0  0  0  0  0  0  0
   56.9880   30.2690   43.3680 C   0  0  0  0  0  0  0  0  0  0  0  0
   56.5950   29.2710   42.4740 O   0  0  0  0  0  0  0  0  0  0  0  0
   57.1860   26.4070   45.7410 C   0  0  0  0  0  0  0  0  0  0  0  0
   55.9500   25.9960   46.2720 C   0  0  0  0  0  0  0  0  0  0  0  0
   54.7870   26.7090   46.0050 O   0  0  0  0  0  0  0  0  0  0  0  0
   55.8840   24.9000   47.0700 N   0  0  0  0  0  0  0  0  0  0  0  0
   56.9990   24.1900   47.3810 C   0  0  0  0  0  0  0  0  0  0  0  0
   56.9120   23.1770   48.1220 O   0  0  0  0  0  0  0  0  0  0  0  0
   58.2060   24.5750   46.8960 N   0  0  0  0  0  0  0  0  0  0  0  0
   58.3270   25.6620   46.0910 C   0  0  0  0  0  0  0  0  0  0  0  0
   59.4650   25.9820   45.6560 O   0  0  0  0  0  0  0  0  0  0  0  0
   58.0750   33.0775   45.8125 H   0  0  0  0  0  0  0  0  0  0  0  0
   57.9947   33.5369   43.3552 H   0  0  0  0  0  0  0  0  0  0  0  0
   57.2890   31.7225   41.7878 H   0  0  0  0  0  0  0  0  0  0  0  0
   56.4840   28.3050   42.7550 H   0  0  0  0  0  0  0  0  0  0  0  0
  1  2  2  0
  2  3  1  0
  3  4  2  3
  4  5  1  0
  5  6  1  0
  6  7  2  0
  7  8  1  0
  8  9  2  0
  9 10  1  0
  2 11  1  0
 11 12  2  0
 12 13  1  0
 12 14  1  0
 14 15  1  0
 15 16  2  0
 15 17  1  0
 17 18  1  0
 18 19  2  0
  9  4  1  0
 18 11  1  0
  6 20  1  0
  7 21  1  0
  8 22  1  0
 10 23  1  0
M  CHG  4   5  -1  13  -1  14  -1  17  -1
M  END
>  <UniqueID>  (72) 
63

>  <SMILES>  (72) 
O=C(N=c1[n-]cccc1O)c1c([O-])[n-]c(=O)[n-]c1=O

>  <Energy>  (72) 
37.01391512156689

>  <Genealogy>  (72) 
O=C(N=c1[n-]cccc1O)c1c([O-])[n-]c(=O)[n-]c1=O (protonated)
O=C(N=c1[n-]cccc1O)c1c([O-])[n-]c(=O)[n-]c1=O (3D coordinates assigned)
O=C(N=c1[n-]cccc1O)c1c([O-])[n-]c(=O)[n-]c1=O (optimized conformer: 37.01391512156689 kcal/mol)

>  <smiles>  (72) 
O=C(N=c1[nH]cccc1O)c1c(O)[nH]c(=O)[nH]c1=O

>  <score_type>  (72) 
oracle

>  <origin>  (72) 
adg

>  <m_score__min__energy>  (72) 
-15.210000000000001

>  <m_primary>  (72) 
energy

$$$$
72:0
     RDKit          3D

 44 46  0  0  0  0  0  0  0  0999 V2000
   55.9960   29.6340   45.2310 O   0  0  0  0  0  0  0  0  0  0  0  0
   56.5690   30.4420   44.4510 C   0  0  0  0  0  0  0  0  0  0  0  0
   56.3750   30.3330   43.0720 C   0  0  0  0  0  0  0  0  0  0  0  0
   57.0150   31.2310   42.2210 C   0  0  0  0  0  0  0  0  0  0  0  0
   57.8370   32.2270   42.7500 C   0  0  0  0  0  0  0  0  0  0  0  0
   58.0090   32.3160   44.1440 C   0  0  0  0  0  0  0  0  0  0  0  0
   58.8230   33.2940   44.7420 O   0  0  0  0  0  0  0  0  0  0  0  0
   58.3660   34.3780   45.5520 C   0  0  0  0  0  0  0  0  0  0  0  0
   58.7080   34.1360   47.0190 C   0  0  0  0  0  0  0  0  0  0  0  0
   58.0800   32.9360   47.4600 O   0  0  0  0  0  0  0  0  0  0  0  0
   58.6210   32.0560   48.4120 C   0  0  0  0  0  0  0  0  0  0  0  0
   58.4890   32.2810   49.7970 C   0  0  0  0  0  0  0  0  0  0  0  0
   59.0410   31.3820   50.7120 C   0  0  0  0  0  0  0  0  0  0  0  0
   59.7270   30.2540   50.2580 C   0  0  0  0  0  0  0  0  0  0  0  0
   59.8640   30.0220   48.8870 C   0  0  0  0  0  0  0  0  0  0  0  0
   59.3120   30.9220   47.9550 C   0  0  0  0  0  0  0  0  0  0  0  0
   59.4280   30.7260   46.5710 O   0  0  0  0  0  0  0  0  0  0  0  0
   60.1630   29.6700   45.9610 C   0  0  0  0  0  0  0  0  0  0  0  0
   59.2220   28.5550   45.6090 C   0  0  0  0  0  0  0  0  0  0  0  0
   58.4560   27.9320   46.6080 C   0  0  0  0  0  0  0  0  0  0  0  0
   57.5520   26.9190   46.2730 C   0  0  0  0  0  0  0  0  0  0  0  0
   57.3970   26.5320   44.9390 C   0  0  0  0  0  0  0  0  0  0  0  0
   58.1430   27.1610   43.9370 C   0  0  0  0  0  0  0  0  0  0  0  0
   59.0480   28.1730   44.2690 C   0  0  0  0  0  0  0  0  0  0  0  0
   57.3750   31.4200   44.9520 N   0  0  0  0  0  0  0  0  0  0  0  0
   55.7239   29.5466   42.6626 H   0  0  0  0  0  0  0  0  0  0  0  0
   56.8726   31.1552   41.1329 H   0  0  0  0  0  0  0  0  0  0  0  0
   58.3467   32.9373   42.0824 H   0  0  0  0  0  0  0  0  0  0  0  0
   58.8491   35.3078   45.2171 H   0  0  0  0  0  0  0  0  0  0  0  0
   57.2735   34.4584   45.4520 H   0  0  0  0  0  0  0  0  0  0  0  0
   59.7983   34.0421   47.1309 H   0  0  0  0  0  0  0  0  0  0  0  0
   58.3495   34.9818   47.6240 H   0  0  0  0  0  0  0  0  0  0  0  0
   57.9489   33.1684   50.1587 H   0  0  0  0  0  0  0  0  0  0  0  0
   58.9352   31.5629   51.7919 H   0  0  0  0  0  0  0  0  0  0  0  0
   60.1603   29.5469   50.9807 H   0  0  0  0  0  0  0  0  0  0  0  0
   60.4056   29.1321   48.5339 H   0  0  0  0  0  0  0  0  0  0  0  0
   60.6519   30.0411   45.0482 H   0  0  0  0  0  0  0  0  0  0  0  0
   60.9294   29.3013   46.6586 H   0  0  0  0  0  0  0  0  0  0  0  0
   58.5676   28.2420   47.6575 H   0  0  0  0  0  0  0  0  0  0  0  0
   56.9624   26.4263   47.0601 H   0  0  0  0  0  0  0  0  0  0  0  0
   56.6882   25.7326   44.6771 H   0  0  0  0  0  0  0  0  0  0  0  0
   58.0173   26.8590   42.8868 H   0  0  0  0  0  0  0  0  0  0  0  0
   59.6262   28.6722   43.4775 H   0  0  0  0  0  0  0  0  0  0  0  0
   57.5100   31.4880   45.9880 H   0  0  0  0  0  0  0  0  0  0  0  0
  1  2  2  0
  2  3  1  0
  3  4  2  0
  4  5  1  0
  5  6  2  0
  6  7  1  0
  7  8  1  0
  8  9  1  0
  9 10  1  0
 10 11  1  0
 11 12  2  0
 12 13  1  0
 13 14  2  0
 14 15  1  0
 15 16  2  0
 16 17  1  0
 17 18  1  0
 18 19  1  0
 19 20  2  0
 20 21  1  0
 21 22  2  0
 22 23  1  0
 23 24  2  0
  6 25  1  0
 25  2  1  0
 16 11  1  0
 24 19  1  0
  3 26  1  0
  4 27  1  0
  5 28  1  0
  8 29  1  0
  8 30  1  0
  9 31  1  0
  9 32  1  0
 12 33  1  0
 13 34  1  0
 14 35  1  0
 15 36  1  0
 18 37  1  0
 18 38  1  0
 20 39  1  0
 21 40  1  0
 22 41  1  0
 23 42  1  0
 24 43  1  0
 25 44  1  0
M  END
>  <UniqueID>  (73) 
64

>  <SMILES>  (73) 
O=c1cccc(OCCOc2ccccc2OCc2ccccc2)[nH]1

>  <Energy>  (73) 
44.34481708729234

>  <Genealogy>  (73) 
O=c1cccc(OCCOc2ccccc2OCc2ccccc2)[nH]1 (3D coordinates assigned)
O=c1cccc(OCCOc2ccccc2OCc2ccccc2)[nH]1 (optimized conformer: 44.34481708729234 kcal/mol)

>  <smiles>  (73) 
O=c1cccc(OCCOc2ccccc2OCc2ccccc2)[nH]1

>  <score_type>  (73) 
oracle

>  <origin>  (73) 
adg

>  <m_score__min__energy>  (73) 
-7.5899999999999999

>  <m_primary>  (73) 
energy

$$$$
73:0
     RDKit          3D

 65 68  0  0  1  0  0  0  0  0999 V2000
   57.2960   32.6610   40.4030 C   0  0  0  0  0  0  0  0  0  0  0  0
   57.8070   32.6920   41.6850 O   0  0  0  0  0  0  0  0  0  0  0  0
   57.7130   31.9160   42.7680 C   0  0  0  0  0  0  0  0  0  0  0  0
   56.9520   30.7390   42.6540 C   0  0  0  0  0  0  0  0  0  0  0  0
   56.7850   29.8740   43.7060 C   0  0  0  0  0  0  0  0  0  0  0  0
   57.4090   30.2060   44.9320 C   0  0  0  0  0  0  0  0  0  0  0  0
   57.3440   24.8450   44.9180 N   0  0  0  0  0  0  0  0  0  0  0  0
   57.8000   25.8570   45.5400 C   0  0  0  0  0  0  0  0  0  0  0  0
   57.3000   27.0920   45.4820 N   0  0  0  0  0  0  0  0  0  0  0  0
   61.3360   30.5780   47.7480 C   0  0  0  0  0  0  0  0  0  0  0  0
   62.2530   31.1980   47.0870 N   0  0  0  0  0  0  0  0  0  0  0  0
   56.5540   23.8220   45.5320 C   0  0  0  0  0  0  0  0  0  0  0  0
   55.1720   23.7650   44.8770 C   0  0  0  0  0  0  0  0  0  0  0  0
   54.2960   24.6820   45.7150 C   0  0  0  0  0  0  0  0  0  0  0  0
   54.7860   26.0250   45.7720 N   0  0  0  0  0  0  0  0  0  0  0  0
   61.1830   30.8190   49.0510 N   0  0  0  0  0  0  0  0  0  0  0  0
   60.2250   30.1700   49.7410 C   0  0  0  0  0  0  0  0  0  0  0  0
   58.8640   28.0130   46.9410 C   0  0  0  0  0  0  0  0  0  0  0  0
   59.5540   29.0000   47.7250 C   0  0  0  0  0  0  0  0  0  0  0  0
   59.4080   29.2540   49.0660 C   0  0  0  0  0  0  0  0  0  0  0  0
   59.4030   26.7170   47.0090 C   0  0  0  0  0  0  0  0  0  0  0  0
   58.8930   25.6850   46.3380 N   0  0  0  0  0  0  0  0  0  0  0  0
   57.7840   28.1550   46.1400 C   0  0  0  0  0  0  0  0  0  0  0  0
   57.2540   29.2730   45.9600 N   0  0  0  0  0  0  0  0  0  0  0  0
   62.6710   32.5500   47.5130 C   0  0  0  0  0  0  0  0  0  0  0  0
   61.3940   33.3490   47.4020 C   0  0  0  0  0  0  0  0  0  0  0  0
   60.9090   33.5670   46.1340 C   0  0  0  0  0  0  0  0  0  0  0  0
   59.7600   34.3180   46.0250 C   0  0  0  0  0  0  0  0  0  0  0  0
   59.1510   34.8110   47.1740 C   0  0  0  0  0  0  0  0  0  0  0  0
   59.6480   34.5830   48.4330 C   0  0  0  0  0  0  0  0  0  0  0  0
   60.8060   33.8280   48.5490 C   0  0  0  0  0  0  0  0  0  0  0  0
   61.3860   33.5390   49.7710 O   0  0  0  0  0  0  0  0  0  0  0  0
   62.5230   34.2270   50.2490 C   0  0  0  0  0  0  0  0  0  0  0  0
   60.5540   29.7010   47.0980 N   0  0  0  0  0  0  0  0  0  0  0  0
   58.1560   31.3710   45.0180 C   0  0  0  0  0  0  0  0  0  0  0  0
   58.3080   32.2150   43.9530 N   0  0  0  0  0  0  0  0  0  0  0  0
   56.1989   32.5944   40.4471 H   0  0  0  0  0  0  0  0  0  0  0  0
   57.5866   33.5784   39.8702 H   0  0  0  0  0  0  0  0  0  0  0  0
   57.6953   31.7854   39.8702 H   0  0  0  0  0  0  0  0  0  0  0  0
   56.4754   30.5043   41.6908 H   0  0  0  0  0  0  0  0  0  0  0  0
   56.1880   28.9562   43.6003 H   0  0  0  0  0  0  0  0  0  0  0  0
   56.4670   27.2320   44.8750 H   0  0  0  0  0  0  0  0  0  0  0  0
   57.0559   22.8509   45.4091 H   0  0  0  0  0  0  0  0  0  0  0  0
   56.4377   24.0486   46.6021 H   0  0  0  0  0  0  0  0  0  0  0  0
   55.2224   24.1230   43.8381 H   0  0  0  0  0  0  0  0  0  0  0  0
   54.7764   22.7393   44.8400 H   0  0  0  0  0  0  0  0  0  0  0  0
   53.2858   24.6956   45.2798 H   0  0  0  0  0  0  0  0  0  0  0  0
   54.2955   24.2882   46.7421 H   0  0  0  0  0  0  0  0  0  0  0  0
   55.5800   26.1050   45.1080 H   0  0  0  0  0  0  0  0  0  0  0  0
   55.0780   26.2900   46.7280 H   0  0  0  0  0  0  0  0  0  0  0  0
   61.7800   31.5000   49.5630 H   0  0  0  0  0  0  0  0  0  0  0  0
   60.0867   30.3563   50.8163 H   0  0  0  0  0  0  0  0  0  0  0  0
   58.6258   28.7222   49.6275 H   0  0  0  0  0  0  0  0  0  0  0  0
   60.2848   26.5470   47.6442 H   0  0  0  0  0  0  0  0  0  0  0  0
   59.3260   24.7380   46.4120 H   0  0  0  0  0  0  0  0  0  0  0  0
   63.0436   32.5412   48.5479 H   0  0  0  0  0  0  0  0  0  0  0  0
   63.4939   32.9604   46.9094 H   0  0  0  0  0  0  0  0  0  0  0  0
   61.4160   33.1599   45.2467 H   0  0  0  0  0  0  0  0  0  0  0  0
   59.3267   34.5266   45.0357 H   0  0  0  0  0  0  0  0  0  0  0  0
   58.2332   35.4083   47.0695 H   0  0  0  0  0  0  0  0  0  0  0  0
   59.1433   34.9868   49.3231 H   0  0  0  0  0  0  0  0  0  0  0  0
   62.5179   34.2239   51.3490 H   0  0  0  0  0  0  0  0  0  0  0  0
   63.4333   33.7281   49.8852 H   0  0  0  0  0  0  0  0  0  0  0  0
   62.5034   35.2649   49.8852 H   0  0  0  0  0  0  0  0  0  0  0  0
   58.6412   31.6240   45.9722 H   0  0  0  0  0  0  0  0  0  0  0  0
  1  2  1  0
  2  3  1  0
  3  4  2  0
  4  5  1  0
  5  6  2  0
  6  7  1  0
  7  8  2  0
  8  9  1  0
  9 10  1  0
 10 11  2  0
 11 12  1  0
 12 13  1  0
 13 14  1  0
 14 15  1  0
 10 16  1  0
 16 17  1  0
 17 18  2  0
 18 19  1  0
 19 20  1  0
 20 21  2  0
 21 22  1  0
 22 23  1  0
 23 24  2  0
 24 25  1  0
 25 26  1  0
 26 27  2  0
 27 28  1  0
 28 29  2  0
 29 30  1  0
 30 31  2  0
 31 32  1  0
 32 33  1  0
 23 34  1  0
  6 35  1  0
 35 36  2  0
 36  3  1  0
 18  8  1  0
 34 19  2  0
 31 26  1  0
  1 37  1  0
  1 38  1  0
  1 39  1  0
  4 40  1  0
  5 41  1  0
  9 42  1  0
 12 43  1  0
 12 44  1  0
 13 45  1  0
 13 46  1  0
 14 47  1  0
 14 48  1  0
 15 49  1  0
 15 50  1  0
 16 51  1  0
 17 52  1  0
 20 53  1  0
 21 54  1  0
 22 55  1  0
 25 56  1  0
 25 57  1  0
 27 58  1  0
 28 59  1  0
 29 60  1  0
 30 61  1  0
 33 62  1  0
 33 63  1  0
 33 64  1  0
 35 65  1  0
M  END
>  <smiles>  (74) 
COc1ccc(N=c2[nH]c(=NCCCN)[nH]cc2-c2cc[nH]c(=NCc3ccccc3OC)n2)cn1

>  <score_type>  (74) 
oracle

>  <origin>  (74) 
adg

>  <m_score__min__energy>  (74) 
-9.3599999999999994

>  <m_primary>  (74) 
energy

$$$$
74:0
     RDKit          3D

 42 44  0  0  0  0  0  0  0  0999 V2000
   55.1480   26.6790   45.9900 N   0  0  0  0  0  0  0  0  0  0  0  0
   56.8570   26.8850   45.8510 S   0  0  0  0  0  0  0  0  0  0  0  0
   57.5180   26.5140   47.1490 O   0  0  0  0  0  0  0  0  0  0  0  0
   57.3780   25.9820   44.7670 O   0  0  0  0  0  0  0  0  0  0  0  0
   57.2180   28.5660   45.4700 C   0  0  0  0  0  0  0  0  0  0  0  0
   57.9020   29.3590   46.4000 C   0  0  0  0  0  0  0  0  0  0  0  0
   58.1870   30.6960   46.1100 C   0  0  0  0  0  0  0  0  0  0  0  0
   57.8050   31.2540   44.8820 C   0  0  0  0  0  0  0  0  0  0  0  0
   58.0970   32.6360   44.6330 N   0  0  0  0  0  0  0  0  0  0  0  0
   58.0690   33.6910   45.6030 C   0  0  0  0  0  0  0  0  0  0  0  0
   56.9870   34.0440   46.1440 O   0  0  0  0  0  0  0  0  0  0  0  0
   59.3410   34.3840   45.9760 C   0  0  0  0  0  0  0  0  0  0  0  0
   60.0650   33.5950   46.9840 N   0  0  0  0  0  0  0  0  0  0  0  0
   59.3670   33.0310   48.0120 C   0  0  0  0  0  0  0  0  0  0  0  0
   60.0230   32.2500   48.9620 C   0  0  0  0  0  0  0  0  0  0  0  0
   61.3670   32.0330   48.8660 N   0  0  0  0  0  0  0  0  0  0  0  0
   62.0140   31.2040   49.8540 C   0  0  0  0  0  0  0  0  0  0  0  0
   63.1860   31.6440   50.4930 C   0  0  0  0  0  0  0  0  0  0  0  0
   63.8050   30.8470   51.4610 C   0  0  0  0  0  0  0  0  0  0  0  0
   63.2600   29.6040   51.7990 C   0  0  0  0  0  0  0  0  0  0  0  0
   62.0930   29.1580   51.1720 C   0  0  0  0  0  0  0  0  0  0  0  0
   61.4090   27.6000   51.5980 Cl  0  0  0  0  0  0  0  0  0  0  0  0
   61.4680   29.9570   50.2060 C   0  0  0  0  0  0  0  0  0  0  0  0
   62.0760   32.5940   47.8350 C   0  0  0  0  0  0  0  0  0  0  0  0
   63.3250   32.4270   47.7480 O   0  0  0  0  0  0  0  0  0  0  0  0
   61.4150   33.3760   46.8760 C   0  0  0  0  0  0  0  0  0  0  0  0
   62.0710   33.8720   45.9170 O   0  0  0  0  0  0  0  0  0  0  0  0
   57.0930   30.4640   43.9610 C   0  0  0  0  0  0  0  0  0  0  0  0
   56.8070   29.1270   44.2520 C   0  0  0  0  0  0  0  0  0  0  0  0
   54.8620   27.0920   46.9070 H   0  0  0  0  0  0  0  0  0  0  0  0
   58.2160   28.9279   47.3621 H   0  0  0  0  0  0  0  0  0  0  0  0
   58.7148   31.3149   46.8505 H   0  0  0  0  0  0  0  0  0  0  0  0
   59.9703   34.4975   45.0810 H   0  0  0  0  0  0  0  0  0  0  0  0
   59.1047   35.3741   46.3930 H   0  0  0  0  0  0  0  0  0  0  0  0
   58.2819   33.1934   48.0913 H   0  0  0  0  0  0  0  0  0  0  0  0
   59.4548   31.8065   49.7930 H   0  0  0  0  0  0  0  0  0  0  0  0
   63.6187   32.6206   50.2302 H   0  0  0  0  0  0  0  0  0  0  0  0
   64.7218   31.1981   51.9573 H   0  0  0  0  0  0  0  0  0  0  0  0
   63.7500   28.9771   52.5586 H   0  0  0  0  0  0  0  0  0  0  0  0
   60.5452   29.6070   49.7202 H   0  0  0  0  0  0  0  0  0  0  0  0
   56.7599   30.9003   43.0078 H   0  0  0  0  0  0  0  0  0  0  0  0
   56.2577   28.5128   43.5233 H   0  0  0  0  0  0  0  0  0  0  0  0
  1  2  1  0
  2  3  2  0
  2  4  2  0
  2  5  1  0
  5  6  2  0
  6  7  1  0
  7  8  2  0
  8  9  1  0
  9 10  1  0
 10 11  2  0
 10 12  1  0
 12 13  1  0
 13 14  1  0
 14 15  2  0
 15 16  1  0
 16 17  1  0
 17 18  2  0
 18 19  1  0
 19 20  2  0
 20 21  1  0
 21 22  1  0
 21 23  2  0
 16 24  1  0
 24 25  2  0
 24 26  1  0
 26 27  2  0
  8 28  1  0
 28 29  2  0
 29  5  1  0
 26 13  1  0
 23 17  1  0
  1 30  1  0
  6 31  1  0
  7 32  1  0
 12 33  1  0
 12 34  1  0
 14 35  1  0
 15 36  1  0
 18 37  1  0
 19 38  1  0
 20 39  1  0
 23 40  1  0
 28 41  1  0
 29 42  1  0
M  CHG  2   1  -1   9  -1
M  END
>  <UniqueID>  (75) 
65

>  <SMILES>  (75) 
[NH-]S(=O)(=O)c1ccc([N-]C(=O)Cn2ccn(-c3cccc(Cl)c3)c(=O)c2=O)cc1

>  <Energy>  (75) 
58.36093694183228

>  <Genealogy>  (75) 
[NH-]S(=O)(=O)c1ccc([N-]C(=O)Cn2ccn(-c3cccc(Cl)c3)c(=O)c2=O)cc1 (protonated)
[NH-]S(=O)(=O)c1ccc([N-]C(=O)Cn2ccn(-c3cccc(Cl)c3)c(=O)c2=O)cc1 (3D coordinates assigned)
[NH-]S(=O)(=O)c1ccc([N-]C(=O)Cn2ccn(-c3cccc(Cl)c3)c(=O)c2=O)cc1 (optimized conformer: 58.36093694183228 kcal/mol)

>  <smiles>  (75) 
NS(=O)(=O)c1ccc(NC(=O)Cn2ccn(-c3cccc(Cl)c3)c(=O)c2=O)cc1

>  <score_type>  (75) 
oracle

>  <origin>  (75) 
adg

>  <m_score__min__energy>  (75) 
-12.109999999999999

>  <m_primary>  (75) 
energy

$$$$
75:0
     RDKit          3D

 56 58  0  0  0  0  0  0  0  0999 V2000
   59.9630   35.7150   46.0100 C   0  0  0  0  0  0  0  0  0  0  0  0
   59.5990   35.1940   47.4010 C   0  0  0  0  0  0  0  0  0  0  0  0
   59.7600   33.7280   47.4580 N   0  0  0  0  0  0  0  0  0  0  0  0
   61.0320   33.1930   47.9840 C   0  0  0  0  0  0  0  0  0  0  0  0
   61.2540   31.7660   47.5780 C   0  0  0  0  0  0  0  0  0  0  0  0
   62.3860   31.4130   47.1480 O   0  0  0  0  0  0  0  0  0  0  0  0
   60.2170   30.7960   47.7810 N   0  0  0  0  0  0  0  0  0  0  0  0
   60.2850   29.4410   47.3000 C   0  0  0  0  0  0  0  0  0  0  0  0
   60.3800   29.1740   45.9170 C   0  0  0  0  0  0  0  0  0  0  0  0
   60.4230   27.8540   45.4550 C   0  0  0  0  0  0  0  0  0  0  0  0
   60.3840   26.7910   46.3640 C   0  0  0  0  0  0  0  0  0  0  0  0
   60.2760   27.0450   47.7380 C   0  0  0  0  0  0  0  0  0  0  0  0
   60.2180   28.3630   48.2110 C   0  0  0  0  0  0  0  0  0  0  0  0
   60.0910   28.6310   49.9520 Cl  0  0  0  0  0  0  0  0  0  0  0  0
   58.6260   32.8840   47.1150 C   0  0  0  0  0  0  0  0  0  0  0  0
   57.8160   32.5360   48.0220 O   0  0  0  0  0  0  0  0  0  0  0  0
   58.3240   32.4550   45.7280 C   0  0  0  0  0  0  0  0  0  0  0  0
   58.4240   33.3960   44.6830 C   0  0  0  0  0  0  0  0  0  0  0  0
   58.0830   33.0380   43.3740 C   0  0  0  0  0  0  0  0  0  0  0  0
   57.6340   31.7410   43.0970 C   0  0  0  0  0  0  0  0  0  0  0  0
   57.5190   30.7990   44.1280 C   0  0  0  0  0  0  0  0  0  0  0  0
   56.8760   29.1970   43.7780 S   0  0  0  0  0  0  0  0  0  0  0  0
   57.9770   28.2820   43.3210 O   0  0  0  0  0  0  0  0  0  0  0  0
   55.8640   29.3110   42.6720 O   0  0  0  0  0  0  0  0  0  0  0  0
   56.0960   28.5730   45.2080 N   0  0  0  0  0  0  0  0  0  0  0  0
   57.0510   27.9240   46.1130 C   0  0  0  0  0  0  0  0  0  0  0  0
   57.0850   26.4280   45.9060 C   0  0  0  0  0  0  0  0  0  0  0  0
   57.4050   25.8900   44.6460 C   0  0  0  0  0  0  0  0  0  0  0  0
   57.4040   24.5020   44.4510 C   0  0  0  0  0  0  0  0  0  0  0  0
   57.0940   23.6450   45.5120 C   0  0  0  0  0  0  0  0  0  0  0  0
   56.7940   24.1710   46.7730 C   0  0  0  0  0  0  0  0  0  0  0  0
   56.7950   25.5570   46.9730 C   0  0  0  0  0  0  0  0  0  0  0  0
   57.8530   31.1610   45.4440 C   0  0  0  0  0  0  0  0  0  0  0  0
   60.5905   36.6132   46.1075 H   0  0  0  0  0  0  0  0  0  0  0  0
   60.5164   34.9389   45.4610 H   0  0  0  0  0  0  0  0  0  0  0  0
   59.0439   35.9677   45.4610 H   0  0  0  0  0  0  0  0  0  0  0  0
   60.2588   35.6607   48.1473 H   0  0  0  0  0  0  0  0  0  0  0  0
   58.5500   35.4470   47.6143 H   0  0  0  0  0  0  0  0  0  0  0  0
   61.8608   33.8047   47.5982 H   0  0  0  0  0  0  0  0  0  0  0  0
   60.9869   33.2299   49.0825 H   0  0  0  0  0  0  0  0  0  0  0  0
   59.4050   31.0710   48.3820 H   0  0  0  0  0  0  0  0  0  0  0  0
   60.4204   30.0070   45.1998 H   0  0  0  0  0  0  0  0  0  0  0  0
   60.4876   27.6517   44.3757 H   0  0  0  0  0  0  0  0  0  0  0  0
   60.4382   25.7545   45.9997 H   0  0  0  0  0  0  0  0  0  0  0  0
   60.2366   26.2061   48.4484 H   0  0  0  0  0  0  0  0  0  0  0  0
   58.7720   34.4172   44.8978 H   0  0  0  0  0  0  0  0  0  0  0  0
   58.1677   33.7756   42.5624 H   0  0  0  0  0  0  0  0  0  0  0  0
   57.3706   31.4606   42.0665 H   0  0  0  0  0  0  0  0  0  0  0  0
   58.0548   28.3332   45.9258 H   0  0  0  0  0  0  0  0  0  0  0  0
   56.7330   28.1210   47.1474 H   0  0  0  0  0  0  0  0  0  0  0  0
   57.6568   26.5608   43.8113 H   0  0  0  0  0  0  0  0  0  0  0  0
   57.6474   24.0861   43.4622 H   0  0  0  0  0  0  0  0  0  0  0  0
   57.0861   22.5563   45.3547 H   0  0  0  0  0  0  0  0  0  0  0  0
   56.5571   23.4954   47.6081 H   0  0  0  0  0  0  0  0  0  0  0  0
   56.5682   25.9668   47.9683 H   0  0  0  0  0  0  0  0  0  0  0  0
   57.7453   30.4277   46.2568 H   0  0  0  0  0  0  0  0  0  0  0  0
  1  2  1  0
  2  3  1  0
  3  4  1  0
  4  5  1  0
  5  6  2  0
  5  7  1  0
  7  8  1  0
  8  9  2  0
  9 10  1  0
 10 11  2  0
 11 12  1  0
 12 13  2  0
 13 14  1  0
  3 15  1  0
 15 16  2  0
 15 17  1  0
 17 18  2  0
 18 19  1  0
 19 20  2  0
 20 21  1  0
 21 22  1  0
 22 23  2  0
 22 24  2  0
 22 25  1  0
 25 26  1  0
 26 27  1  0
 27 28  2  0
 28 29  1  0
 29 30  2  0
 30 31  1  0
 31 32  2  0
 21 33  2  0
 13  8  1  0
 33 17  1  0
 32 27  1  0
  1 34  1  0
  1 35  1  0
  1 36  1  0
  2 37  1  0
  2 38  1  0
  4 39  1  0
  4 40  1  0
  7 41  1  0
  9 42  1  0
 10 43  1  0
 11 44  1  0
 12 45  1  0
 18 46  1  0
 19 47  1  0
 20 48  1  0
 26 49  1  0
 26 50  1  0
 28 51  1  0
 29 52  1  0
 30 53  1  0
 31 54  1  0
 32 55  1  0
 33 56  1  0
M  CHG  1  25  -1
M  END
>  <UniqueID>  (76) 
66

>  <SMILES>  (76) 
CCN(CC(=O)Nc1ccccc1Cl)C(=O)c1cccc(S(=O)(=O)[N-]Cc2ccccc2)c1

>  <Energy>  (76) 
57.86660828066747

>  <Genealogy>  (76) 
CCN(CC(=O)Nc1ccccc1Cl)C(=O)c1cccc(S(=O)(=O)[N-]Cc2ccccc2)c1 (protonated)
CCN(CC(=O)Nc1ccccc1Cl)C(=O)c1cccc(S(=O)(=O)[N-]Cc2ccccc2)c1 (3D coordinates assigned)
CCN(CC(=O)Nc1ccccc1Cl)C(=O)c1cccc(S(=O)(=O)[N-]Cc2ccccc2)c1 (optimized conformer: 57.86660828066747 kcal/mol)

>  <smiles>  (76) 
CCN(CC(=O)Nc1ccccc1Cl)C(=O)c1cccc(S(=O)(=O)NCc2ccccc2)c1

>  <score_type>  (76) 
oracle

>  <origin>  (76) 
adg

>  <m_score__min__energy>  (76) 
-11.640000000000001

>  <m_primary>  (76) 
energy

$$$$
76:0
     RDKit          3D

 40 42  0  0  0  0  0  0  0  0999 V2000
   60.2460   29.3100   44.4980 N   0  0  0  0  0  0  0  0  0  0  0  0
   59.9380   29.1990   45.8950 C   0  0  0  0  0  0  0  0  0  0  0  0
   60.8220   29.7670   46.8270 C   0  0  0  0  0  0  0  0  0  0  0  0
   60.5210   29.7600   48.1910 C   0  0  0  0  0  0  0  0  0  0  0  0
   61.6290   30.4880   49.3390 Cl  0  0  0  0  0  0  0  0  0  0  0  0
   59.3290   29.1870   48.6390 C   0  0  0  0  0  0  0  0  0  0  0  0
   58.4470   28.6030   47.7280 C   0  0  0  0  0  0  0  0  0  0  0  0
   58.7450   28.5800   46.3520 C   0  0  0  0  0  0  0  0  0  0  0  0
   57.8180   27.8740   45.4430 C   0  0  0  0  0  0  0  0  0  0  0  0
   57.2830   26.7890   45.7990 O   0  0  0  0  0  0  0  0  0  0  0  0
   57.4940   28.4440   44.1710 N   0  0  0  0  0  0  0  0  0  0  0  0
   56.5190   29.8660   44.0140 S   0  0  0  0  0  0  0  0  0  0  0  0
   55.2790   29.7140   44.8480 O   0  0  0  0  0  0  0  0  0  0  0  0
   56.1220   30.0330   42.5740 O   0  0  0  0  0  0  0  0  0  0  0  0
   57.4250   31.2640   44.5810 C   0  0  0  0  0  0  0  0  0  0  0  0
   57.7950   32.2630   43.6730 C   0  0  0  0  0  0  0  0  0  0  0  0
   58.5020   33.3880   44.1080 C   0  0  0  0  0  0  0  0  0  0  0  0
   58.8480   33.5330   45.4640 C   0  0  0  0  0  0  0  0  0  0  0  0
   59.5930   34.7290   45.9270 C   0  0  0  0  0  0  0  0  0  0  0  0
   59.5460   35.7930   45.2500 O   0  0  0  0  0  0  0  0  0  0  0  0
   60.3040   34.6850   47.1760 N   0  0  0  0  0  0  0  0  0  0  0  0
   61.4630   34.1460   47.4230 C   0  0  0  0  0  0  0  0  0  0  0  0
   62.3060   33.6230   46.4990 N   0  0  0  0  0  0  0  0  0  0  0  0
   63.4280   33.1050   47.0680 C   0  0  0  0  0  0  0  0  0  0  0  0
   63.4830   33.2080   48.4540 C   0  0  0  0  0  0  0  0  0  0  0  0
   62.0740   33.9710   48.9760 S   0  0  0  0  0  0  0  0  0  0  0  0
   58.4760   32.5220   46.3710 C   0  0  0  0  0  0  0  0  0  0  0  0
   57.7710   31.3960   45.9310 C   0  0  0  0  0  0  0  0  0  0  0  0
   59.4870   29.2560   43.7830 H   0  0  0  0  0  0  0  0  0  0  0  0
   61.2280   29.3180   44.1490 H   0  0  0  0  0  0  0  0  0  0  0  0
   61.7611   30.2221   46.4792 H   0  0  0  0  0  0  0  0  0  0  0  0
   59.0846   29.1958   49.7115 H   0  0  0  0  0  0  0  0  0  0  0  0
   57.5090   28.1559   48.0890 H   0  0  0  0  0  0  0  0  0  0  0  0
   57.5279   32.1623   42.6107 H   0  0  0  0  0  0  0  0  0  0  0  0
   58.7898   34.1653   43.3849 H   0  0  0  0  0  0  0  0  0  0  0  0
   62.1370   33.5680   45.4730 H   0  0  0  0  0  0  0  0  0  0  0  0
   64.2307   32.6400   46.4768 H   0  0  0  0  0  0  0  0  0  0  0  0
   64.3024   32.8536   49.0966 H   0  0  0  0  0  0  0  0  0  0  0  0
   58.7418   32.6181   47.4341 H   0  0  0  0  0  0  0  0  0  0  0  0
   57.4877   30.6119   46.6485 H   0  0  0  0  0  0  0  0  0  0  0  0
  1  2  1  0
  2  3  2  0
  3  4  1  0
  4  5  1  0
  4  6  2  0
  6  7  1  0
  7  8  2  0
  8  9  1  0
  9 10  2  0
  9 11  1  0
 11 12  1  0
 12 13  2  0
 12 14  2  0
 12 15  1  0
 15 16  2  0
 16 17  1  0
 17 18  2  0
 18 19  1  0
 19 20  2  0
 19 21  1  0
 21 22  2  3
 22 23  1  0
 23 24  1  0
 24 25  2  0
 25 26  1  0
 18 27  1  0
 27 28  2  0
  8  2  1  0
 28 15  1  0
 26 22  1  0
  1 29  1  0
  1 30  1  0
  3 31  1  0
  6 32  1  0
  7 33  1  0
 16 34  1  0
 17 35  1  0
 23 36  1  0
 24 37  1  0
 25 38  1  0
 27 39  1  0
 28 40  1  0
M  CHG  1  11  -1
M  END
>  <UniqueID>  (77) 
67

>  <SMILES>  (77) 
Nc1cc(Cl)ccc1C(=O)[N-]S(=O)(=O)c1ccc(C(=O)N=c2[nH]ccs2)cc1

>  <Energy>  (77) 
85.35232721265186

>  <Genealogy>  (77) 
Nc1cc(Cl)ccc1C(=O)[N-]S(=O)(=O)c1ccc(C(=O)N=c2[nH]ccs2)cc1 (protonated)
Nc1cc(Cl)ccc1C(=O)[N-]S(=O)(=O)c1ccc(C(=O)N=c2[nH]ccs2)cc1 (3D coordinates assigned)
Nc1cc(Cl)ccc1C(=O)[N-]S(=O)(=O)c1ccc(C(=O)N=c2[nH]ccs2)cc1 (optimized conformer: 85.35232721265186 kcal/mol)

>  <smiles>  (77) 
Nc1cc(Cl)ccc1C(=O)NS(=O)(=O)c1ccc(C(=O)N=c2[nH]ccs2)cc1

>  <score_type>  (77) 
oracle

>  <origin>  (77) 
adg

>  <m_score__min__energy>  (77) 
-11.26

>  <m_primary>  (77) 
energy

$$$$
77:0
     RDKit          3D

 27 29  0  0  0  0  0  0  0  0999 V2000
   58.4470   24.2670   46.4420 H   0  0  0  0  0  0  0  0  0  0  0  0
   58.5340   27.9540   44.4900 N   0  0  0  0  0  0  0  0  0  0  0  0
   58.0390   29.1530   44.5790 C   0  0  0  0  0  0  0  0  0  0  0  0
   58.6590   30.1930   45.1770 N   0  0  0  0  0  0  0  0  0  0  0  0
   54.9150   26.3490   45.9830 O   0  0  0  0  0  0  0  0  0  0  0  0
   55.8940   27.1360   45.6230 N   0  0  0  0  0  0  0  0  0  0  0  0
   57.0170   26.4080   45.7500 C   0  0  0  0  0  0  0  0  0  0  0  0
   58.3700   26.8990   45.4510 C   0  0  0  0  0  0  0  0  0  0  0  0
   59.3650   26.3910   46.0360 O   0  0  0  0  0  0  0  0  0  0  0  0
   57.4070   24.1640   46.4520 N   0  0  0  0  0  0  0  0  0  0  0  0
   56.6330   25.1690   46.1990 C   0  0  0  0  0  0  0  0  0  0  0  0
   55.3000   25.1540   46.3390 N   0  0  0  0  0  0  0  0  0  0  0  0
   57.9130   31.3320   45.1230 C   0  0  0  0  0  0  0  0  0  0  0  0
   58.4030   32.6050   45.7160 C   0  0  0  0  0  0  0  0  0  0  0  0
   58.6780   33.7050   44.8800 C   0  0  0  0  0  0  0  0  0  0  0  0
   58.5270   33.6155   43.7941 H   0  0  0  0  0  0  0  0  0  0  0  0
   59.1410   34.9090   45.4180 C   0  0  0  0  0  0  0  0  0  0  0  0
   59.3506   35.7616   44.7553 H   0  0  0  0  0  0  0  0  0  0  0  0
   59.3380   35.0320   46.7940 C   0  0  0  0  0  0  0  0  0  0  0  0
   59.6995   35.9816   47.2153 H   0  0  0  0  0  0  0  0  0  0  0  0
   59.0760   33.9490   47.6360 C   0  0  0  0  0  0  0  0  0  0  0  0
   59.2339   34.0459   48.7203 H   0  0  0  0  0  0  0  0  0  0  0  0
   58.6130   32.7410   47.1030 C   0  0  0  0  0  0  0  0  0  0  0  0
   58.4114   31.8911   47.7715 H   0  0  0  0  0  0  0  0  0  0  0  0
   56.6860   31.1840   44.4660 C   0  0  0  0  0  0  0  0  0  0  0  0
   55.9388   31.9765   44.3124 H   0  0  0  0  0  0  0  0  0  0  0  0
   56.5480   29.5880   43.9510 S   0  0  0  0  0  0  0  0  0  0  0  0
  1  2  1  0
  2  3  2  0
  3  4  1  0
  4  5  1  0
  5  6  1  0
  6  7  2  0
  7  8  1  0
  8  9  2  0
  8 10  1  0
 10 11  2  0
 11 12  1  0
 12 13  1  0
 13 14  1  0
 14 15  2  0
 15 16  1  0
 15 17  1  0
 17 18  1  0
 17 19  2  0
 19 20  1  0
 19 21  1  0
 21 22  1  0
 21 23  2  0
 23 24  1  0
 13 25  2  0
 25 26  1  0
 25 27  1  0
  7  3  1  0
 27 11  1  0
 23 14  1  0
M  CHG  2   4  -1  12  -1
M  END
>  <UniqueID>  (78) 
68

>  <SMILES>  (78) 
[H]/N=c1\[n-]onc1C(=O)/N=c1\[n-]c(-c2ccccc2)cs1

>  <Energy>  (78) 
99.56108683498714

>  <Genealogy>  (78) 
N=c1[n-]onc1C(=O)N=c1[n-]c(-c2ccccc2)cs1 (protonated)
[H]/N=c1\[n-]onc1C(=O)/N=c1\[n-]c(-c2ccccc2)cs1 (cis-trans isomerization)
[H]/N=c1\[n-]onc1C(=O)/N=c1\[n-]c(-c2ccccc2)cs1 (3D coordinates assigned)
[H]/N=c1\[n-]onc1C(=O)/N=c1\[n-]c(-c2ccccc2)cs1 (optimized conformer: 99.56108683498714 kcal/mol)

>  <smiles>  (78) 
N=c1[nH]onc1C(=O)N=c1[nH]c(-c2ccccc2)cs1

>  <score_type>  (78) 
oracle

>  <origin>  (78) 
adg

>  <m_score__min__energy>  (78) 
-11.56

>  <m_primary>  (78) 
energy

$$$$
78:0
     RDKit          3D

 41 42  0  0  0  0  0  0  0  0999 V2000
   59.6090   29.5710   48.1880 C   0  0  0  0  0  0  0  0  0  0  0  0
   59.9010   30.8280   48.7900 O   0  0  0  0  0  0  0  0  0  0  0  0
   60.9850   31.6500   48.4430 C   0  0  0  0  0  0  0  0  0  0  0  0
   62.2940   31.1360   48.3420 C   0  0  0  0  0  0  0  0  0  0  0  0
   63.3470   31.9550   47.9290 C   0  0  0  0  0  0  0  0  0  0  0  0
   63.1080   33.2900   47.6040 C   0  0  0  0  0  0  0  0  0  0  0  0
   61.8180   33.8140   47.7080 C   0  0  0  0  0  0  0  0  0  0  0  0
   60.7580   33.0150   48.1540 C   0  0  0  0  0  0  0  0  0  0  0  0
   59.4510   33.6030   48.2170 N   0  0  0  0  0  0  0  0  0  0  0  0
   58.4260   33.5050   47.2200 C   0  0  0  0  0  0  0  0  0  0  0  0
   57.3710   32.8550   47.4540 O   0  0  0  0  0  0  0  0  0  0  0  0
   58.5850   34.1980   45.8920 C   0  0  1  0  0  0  0  0  0  0  0  0
   59.9650   33.9610   45.2710 C   0  0  0  0  0  0  0  0  0  0  0  0
   57.2290   33.7640   44.7300 S   0  0  0  0  0  0  0  0  0  0  0  0
   57.3730   31.9790   44.8350 C   0  0  0  0  0  0  0  0  0  0  0  0
   58.5940   31.4000   44.9500 N   0  0  0  0  0  0  0  0  0  0  0  0
   58.7250   30.0500   45.0290 C   0  0  0  0  0  0  0  0  0  0  0  0
   59.8690   29.5510   45.1910 O   0  0  0  0  0  0  0  0  0  0  0  0
   57.5840   29.2310   44.9620 C   0  0  0  0  0  0  0  0  0  0  0  0
   57.6700   27.8020   45.0670 N   0  0  0  0  0  0  0  0  0  0  0  0
   56.9800   26.9880   46.0250 C   0  0  0  0  0  0  0  0  0  0  0  0
   57.7100   26.2270   47.0910 C   0  0  0  0  0  0  0  0  0  0  0  0
   55.7280   26.8850   45.9500 O   0  0  0  0  0  0  0  0  0  0  0  0
   56.3300   29.8540   44.8590 C   0  0  0  0  0  0  0  0  0  0  0  0
   55.1500   29.1130   44.8220 O   0  0  0  0  0  0  0  0  0  0  0  0
   56.2570   31.2080   44.7840 N   0  0  0  0  0  0  0  0  0  0  0  0
   59.4346   28.8203   48.9728 H   0  0  0  0  0  0  0  0  0  0  0  0
   58.7086   29.6641   47.5631 H   0  0  0  0  0  0  0  0  0  0  0  0
   60.4583   29.2576   47.5631 H   0  0  0  0  0  0  0  0  0  0  0  0
   62.4873   30.0820   48.5904 H   0  0  0  0  0  0  0  0  0  0  0  0
   64.3661   31.5467   47.8599 H   0  0  0  0  0  0  0  0  0  0  0  0
   63.9360   33.9303   47.2656 H   0  0  0  0  0  0  0  0  0  0  0  0
   61.6327   34.8639   47.4372 H   0  0  0  0  0  0  0  0  0  0  0  0
   58.5120   35.2776   46.0901 H   0  0  0  0  0  0  0  0  0  0  0  0
   60.7097   33.8331   46.0704 H   0  0  0  0  0  0  0  0  0  0  0  0
   59.9361   33.0547   44.6483 H   0  0  0  0  0  0  0  0  0  0  0  0
   60.2402   34.8250   44.6483 H   0  0  0  0  0  0  0  0  0  0  0  0
   57.3781   26.5730   48.0810 H   0  0  0  0  0  0  0  0  0  0  0  0
   57.4956   25.1531   46.9870 H   0  0  0  0  0  0  0  0  0  0  0  0
   58.7919   26.3966   46.9870 H   0  0  0  0  0  0  0  0  0  0  0  0
   55.1420   28.1030   44.8970 H   0  0  0  0  0  0  0  0  0  0  0  0
  1  2  1  0
  2  3  1  0
  3  4  2  0
  4  5  1  0
  5  6  2  0
  6  7  1  0
  7  8  2  0
  8  9  1  0
  9 10  1  0
 10 11  2  0
 10 12  1  0
 12 13  1  0
 12 14  1  0
 14 15  1  0
 15 16  2  0
 16 17  1  0
 17 18  2  0
 17 19  1  0
 19 20  1  0
 20 21  1  0
 21 22  1  0
 21 23  2  0
 19 24  2  0
 24 25  1  0
 24 26  1  0
  8  3  1  0
 26 15  1  0
  1 27  1  0
  1 28  1  0
  1 29  1  0
  4 30  1  0
  5 31  1  0
  6 32  1  0
  7 33  1  0
 12 34  1  1
 13 35  1  0
 13 36  1  0
 13 37  1  0
 22 38  1  0
 22 39  1  0
 22 40  1  0
 25 41  1  0
M  CHG  3   9  -1  20  -1  26  -1
M  END
>  <UniqueID>  (79) 
69

>  <SMILES>  (79) 
COc1ccccc1[N-]C(=O)[C@@H](C)Sc1nc(=O)c([N-]C(C)=O)c(O)[n-]1

>  <Energy>  (79) 
45.83201905092348

>  <Genealogy>  (79) 
COc1ccccc1[N-]C(=O)C(C)Sc1nc(=O)c([N-]C(C)=O)c(O)[n-]1 (protonated)
COc1ccccc1[N-]C(=O)[C@@H](C)Sc1nc(=O)c([N-]C(C)=O)c(O)[n-]1 (chirality)
COc1ccccc1[N-]C(=O)[C@@H](C)Sc1nc(=O)c([N-]C(C)=O)c(O)[n-]1 (3D coordinates assigned)
COc1ccccc1[N-]C(=O)[C@@H](C)Sc1nc(=O)c([N-]C(C)=O)c(O)[n-]1 (optimized conformer: 45.83201905092348 kcal/mol)

>  <smiles>  (79) 
COc1ccccc1NC(=O)C(C)Sc1nc(=O)c(NC(C)=O)c(O)[nH]1

>  <score_type>  (79) 
oracle

>  <origin>  (79) 
adg

>  <m_score__min__energy>  (79) 
-12.640000000000001

>  <m_primary>  (79) 
energy

$$$$
79:0
     RDKit          3D

 46 48  0  0  0  0  0  0  0  0999 V2000
   54.6690   25.9110   46.3820 H   0  0  0  0  0  0  0  0  0  0  0  0
   54.7790   24.9480   46.1700 O   0  0  0  0  0  0  0  0  0  0  0  0
   56.1570   24.6910   46.1630 C   0  0  0  0  0  0  0  0  0  0  0  0
   56.3817   23.9286   45.4026 H   0  0  0  0  0  0  0  0  0  0  0  0
   56.4621   24.3285   47.1557 H   0  0  0  0  0  0  0  0  0  0  0  0
   56.9090   25.9450   45.8450 C   0  0  0  0  0  0  0  0  0  0  0  0
   56.3380   27.1100   45.6440 O   0  0  0  0  0  0  0  0  0  0  0  0
   57.2770   27.9870   45.3750 C   0  0  0  0  0  0  0  0  0  0  0  0
   57.0090   29.3950   45.0650 C   0  0  0  0  0  0  0  0  0  0  0  0
   55.7760   29.9060   44.8690 N   0  0  0  0  0  0  0  0  0  0  0  0
   55.9440   31.1670   44.4950 N   0  0  0  0  0  0  0  0  0  0  0  0
   57.2330   31.4650   44.4500 N   0  0  0  0  0  0  0  0  0  0  0  0
   57.7710   32.7020   43.9640 C   0  0  0  0  0  0  0  0  0  0  0  0
   58.3590   32.7280   42.8500 O   0  0  0  0  0  0  0  0  0  0  0  0
   57.6680   33.9520   44.7480 C   0  0  0  0  0  0  0  0  0  0  0  0
   57.1301   34.7986   44.2964 H   0  0  0  0  0  0  0  0  0  0  0  0
   58.1730   34.1170   45.9400 N   0  0  0  0  0  0  0  0  0  0  0  0
   59.0590   33.2240   46.6350 C   0  0  0  0  0  0  0  0  0  0  0  0
   58.5150   32.1850   47.3950 C   0  0  0  0  0  0  0  0  0  0  0  0
   57.4269   32.0236   47.3989 H   0  0  0  0  0  0  0  0  0  0  0  0
   59.3480   31.3440   48.1550 C   0  0  0  0  0  0  0  0  0  0  0  0
   58.8340   30.3130   48.9570 O   0  0  0  0  0  0  0  0  0  0  0  0
   59.0720   28.9270   48.7370 C   0  0  0  0  0  0  0  0  0  0  0  0
   59.1604   28.4120   49.7050 H   0  0  0  0  0  0  0  0  0  0  0  0
   58.2346   28.4970   48.1680 H   0  0  0  0  0  0  0  0  0  0  0  0
   60.0049   28.8010   48.1680 H   0  0  0  0  0  0  0  0  0  0  0  0
   60.7370   31.5460   48.1390 C   0  0  0  0  0  0  0  0  0  0  0  0
   61.5380   30.7340   48.9520 O   0  0  0  0  0  0  0  0  0  0  0  0
   62.3980   31.2590   49.9600 C   0  0  0  0  0  0  0  0  0  0  0  0
   61.9932   31.0119   50.9525 H   0  0  0  0  0  0  0  0  0  0  0  0
   63.4003   30.8186   49.8527 H   0  0  0  0  0  0  0  0  0  0  0  0
   62.4643   32.3517   49.8527 H   0  0  0  0  0  0  0  0  0  0  0  0
   61.3010   32.5340   47.3080 C   0  0  0  0  0  0  0  0  0  0  0  0
   62.6980   32.6600   47.2500 O   0  0  0  0  0  0  0  0  0  0  0  0
   63.3890   33.7850   46.7180 C   0  0  0  0  0  0  0  0  0  0  0  0
   63.7699   34.4051   47.5429 H   0  0  0  0  0  0  0  0  0  0  0  0
   64.2309   33.4396   46.1000 H   0  0  0  0  0  0  0  0  0  0  0  0
   62.7003   34.3797   46.1000 H   0  0  0  0  0  0  0  0  0  0  0  0
   60.4520   33.3590   46.5460 C   0  0  0  0  0  0  0  0  0  0  0  0
   60.8849   34.1158   45.8753 H   0  0  0  0  0  0  0  0  0  0  0  0
   57.9370   30.3810   44.8170 C   0  0  0  0  0  0  0  0  0  0  0  0
   59.0306   30.2984   44.9019 H   0  0  0  0  0  0  0  0  0  0  0  0
   58.5180   27.3780   45.4010 C   0  0  0  0  0  0  0  0  0  0  0  0
   59.4940   27.8509   45.2173 H   0  0  0  0  0  0  0  0  0  0  0  0
   58.2780   26.0550   45.7050 C   0  0  0  0  0  0  0  0  0  0  0  0
   59.0230   25.2530   45.8136 H   0  0  0  0  0  0  0  0  0  0  0  0
  1  2  1  0
  2  3  1  0
  3  4  1  0
  3  5  1  0
  3  6  1  0
  6  7  1  0
  7  8  1  0
  8  9  1  0
  9 10  1  0
 10 11  2  0
 11 12  1  0
 12 13  1  0
 13 14  2  0
 13 15  1  0
 15 16  1  0
 15 17  2  0
 17 18  1  0
 18 19  2  0
 19 20  1  0
 19 21  1  0
 21 22  1  0
 22 23  1  0
 23 24  1  0
 23 25  1  0
 23 26  1  0
 21 27  2  0
 27 28  1  0
 28 29  1  0
 29 30  1  0
 29 31  1  0
 29 32  1  0
 27 33  1  0
 33 34  1  0
 34 35  1  0
 35 36  1  0
 35 37  1  0
 35 38  1  0
 33 39  2  0
 39 40  1  0
 12 41  1  0
 41 42  1  0
  8 43  2  0
 43 44  1  0
 43 45  1  0
 45 46  1  0
 45  6  2  0
 41  9  2  0
 39 18  1  0
M  END
>  <UniqueID>  (80) 
70

>  <SMILES>  (80) 
COc1cc(/N=C\C(=O)n2cc(-c3ccc(CO)o3)nn2)cc(OC)c1OC

>  <Energy>  (80) 
119.07603049142496

>  <Genealogy>  (80) 
COc1cc(/N=C\C(=O)n2cc(-c3ccc(CO)o3)nn2)cc(OC)c1OC (cis-trans isomerization)
COc1cc(/N=C\C(=O)n2cc(-c3ccc(CO)o3)nn2)cc(OC)c1OC (3D coordinates assigned)
COc1cc(/N=C\C(=O)n2cc(-c3ccc(CO)o3)nn2)cc(OC)c1OC (optimized conformer: 119.07603049142496 kcal/mol)

>  <smiles>  (80) 
COc1cc(N=CC(=O)n2cc(-c3ccc(CO)o3)nn2)cc(OC)c1OC

>  <score_type>  (80) 
oracle

>  <origin>  (80) 
adg

>  <m_score__min__energy>  (80) 
-8.0299999999999994

>  <m_primary>  (80) 
energy

$$$$
80:0
     RDKit          3D

 49 52  0  0  0  0  0  0  0  0999 V2000
   57.5660   29.3990   52.6310 C   0  0  0  0  0  0  0  0  0  0  0  0
   57.5130   29.7710   51.2570 O   0  0  0  0  0  0  0  0  0  0  0  0
   58.4520   30.5990   50.6210 C   0  0  0  0  0  0  0  0  0  0  0  0
   58.2890   31.9970   50.5480 C   0  0  0  0  0  0  0  0  0  0  0  0
   59.2440   32.7850   49.9010 C   0  0  0  0  0  0  0  0  0  0  0  0
   60.3720   32.1930   49.3320 C   0  0  0  0  0  0  0  0  0  0  0  0
   60.5430   30.8100   49.3980 C   0  0  0  0  0  0  0  0  0  0  0  0
   59.5800   30.0030   50.0300 C   0  0  0  0  0  0  0  0  0  0  0  0
   59.7460   28.5780   50.1080 N   0  0  0  0  0  0  0  0  0  0  0  0
   60.1520   27.7330   49.0220 C   0  0  0  0  0  0  0  0  0  0  0  0
   61.0860   26.9110   49.2090 O   0  0  0  0  0  0  0  0  0  0  0  0
   59.4750   27.7840   47.7080 C   0  0  0  0  0  0  0  0  0  0  0  0
   58.3360   27.0010   47.4630 C   0  0  0  0  0  0  0  0  0  0  0  0
   57.6650   27.0890   46.2410 C   0  0  0  0  0  0  0  0  0  0  0  0
   58.1180   27.9680   45.2430 C   0  0  0  0  0  0  0  0  0  0  0  0
   57.4060   28.1270   44.0060 N   0  0  0  0  0  0  0  0  0  0  0  0
   56.3520   29.4690   43.6910 S   0  0  0  0  0  0  0  0  0  0  0  0
   55.8920   29.4180   42.2600 O   0  0  0  0  0  0  0  0  0  0  0  0
   55.1520   29.3800   44.5920 O   0  0  0  0  0  0  0  0  0  0  0  0
   57.2220   30.9810   43.9500 C   0  0  0  0  0  0  0  0  0  0  0  0
   57.6900   31.7330   42.8620 C   0  0  0  0  0  0  0  0  0  0  0  0
   58.3500   32.9460   43.0750 C   0  0  0  0  0  0  0  0  0  0  0  0
   58.5530   33.4160   44.3780 C   0  0  0  0  0  0  0  0  0  0  0  0
   59.2000   34.5930   44.5870 N   0  0  0  0  0  0  0  0  0  0  0  0
   59.4160   35.0790   45.8390 C   0  0  0  0  0  0  0  0  0  0  0  0
   60.0170   36.1750   45.9890 O   0  0  0  0  0  0  0  0  0  0  0  0
   58.9700   34.3630   46.9550 C   0  0  0  0  0  0  0  0  0  0  0  0
   58.3000   33.1510   46.7730 C   0  0  0  0  0  0  0  0  0  0  0  0
   58.0840   32.6630   45.4780 C   0  0  0  0  0  0  0  0  0  0  0  0
   57.4200   31.4470   45.2570 C   0  0  0  0  0  0  0  0  0  0  0  0
   59.2870   28.7090   45.4680 C   0  0  0  0  0  0  0  0  0  0  0  0
   59.9620   28.6170   46.6890 C   0  0  0  0  0  0  0  0  0  0  0  0
   57.4385   30.2936   53.2583 H   0  0  0  0  0  0  0  0  0  0  0  0
   56.7610   28.6814   52.8479 H   0  0  0  0  0  0  0  0  0  0  0  0
   58.5394   28.9348   52.8479 H   0  0  0  0  0  0  0  0  0  0  0  0
   57.4059   32.4698   51.0025 H   0  0  0  0  0  0  0  0  0  0  0  0
   59.1063   33.8746   49.8400 H   0  0  0  0  0  0  0  0  0  0  0  0
   61.1268   32.8170   48.8311 H   0  0  0  0  0  0  0  0  0  0  0  0
   61.4365   30.3479   48.9530 H   0  0  0  0  0  0  0  0  0  0  0  0
   57.9691   26.3131   48.2390 H   0  0  0  0  0  0  0  0  0  0  0  0
   56.7766   26.4664   46.0590 H   0  0  0  0  0  0  0  0  0  0  0  0
   57.6510   27.5130   43.1960 H   0  0  0  0  0  0  0  0  0  0  0  0
   57.5366   31.3660   41.8364 H   0  0  0  0  0  0  0  0  0  0  0  0
   58.7107   33.5327   42.2173 H   0  0  0  0  0  0  0  0  0  0  0  0
   59.1457   34.7518   47.9689 H   0  0  0  0  0  0  0  0  0  0  0  0
   57.9431   32.5816   47.6439 H   0  0  0  0  0  0  0  0  0  0  0  0
   57.0541   30.8582   46.1111 H   0  0  0  0  0  0  0  0  0  0  0  0
   59.6760   29.3678   44.6777 H   0  0  0  0  0  0  0  0  0  0  0  0
   60.8799   29.2008   46.8518 H   0  0  0  0  0  0  0  0  0  0  0  0
  1  2  1  0
  2  3  1  0
  3  4  2  0
  4  5  1  0
  5  6  2  0
  6  7  1  0
  7  8  2  0
  8  9  1  0
  9 10  1  0
 10 11  2  0
 10 12  1  0
 12 13  2  0
 13 14  1  0
 14 15  2  0
 15 16  1  0
 16 17  1  0
 17 18  2  0
 17 19  2  0
 17 20  1  0
 20 21  2  0
 21 22  1  0
 22 23  2  0
 23 24  1  0
 24 25  1  0
 25 26  2  0
 25 27  1  0
 27 28  2  0
 28 29  1  0
 29 30  2  0
 15 31  1  0
 31 32  2  0
  8  3  1  0
 32 12  1  0
 30 20  1  0
 29 23  1  0
  1 33  1  0
  1 34  1  0
  1 35  1  0
  4 36  1  0
  5 37  1  0
  6 38  1  0
  7 39  1  0
 13 40  1  0
 14 41  1  0
 16 42  1  0
 21 43  1  0
 22 44  1  0
 27 45  1  0
 28 46  1  0
 30 47  1  0
 31 48  1  0
 32 49  1  0
M  CHG  2   9  -1  24  -1
M  END
>  <UniqueID>  (81) 
71

>  <SMILES>  (81) 
COc1ccccc1[N-]C(=O)c1ccc(NS(=O)(=O)c2ccc3[n-]c(=O)ccc3c2)cc1

>  <Energy>  (81) 
63.138603483495466

>  <Genealogy>  (81) 
COc1ccccc1[N-]C(=O)c1ccc(NS(=O)(=O)c2ccc3[n-]c(=O)ccc3c2)cc1 (protonated)
COc1ccccc1[N-]C(=O)c1ccc(NS(=O)(=O)c2ccc3[n-]c(=O)ccc3c2)cc1 (3D coordinates assigned)
COc1ccccc1[N-]C(=O)c1ccc(NS(=O)(=O)c2ccc3[n-]c(=O)ccc3c2)cc1 (optimized conformer: 63.138603483495466 kcal/mol)

>  <smiles>  (81) 
COc1ccccc1NC(=O)c1ccc(NS(=O)(=O)c2ccc3[nH]c(=O)ccc3c2)cc1

>  <score_type>  (81) 
oracle

>  <origin>  (81) 
adg

>  <m_score__min__energy>  (81) 
-12.69

>  <m_primary>  (81) 
energy

$$$$
81:0
     RDKit          3D

 72 75  0  0  0  0  0  0  0  0999 V2000
   56.6380   21.0660   43.3580 C   0  0  0  0  0  0  0  0  0  0  0  0
   57.0730   22.4040   43.8910 C   0  0  0  0  0  0  0  0  0  0  0  0
   56.7240   23.5690   43.1900 C   0  0  0  0  0  0  0  0  0  0  0  0
   57.0940   24.8270   43.6700 C   0  0  0  0  0  0  0  0  0  0  0  0
   57.8300   24.9460   44.8540 C   0  0  0  0  0  0  0  0  0  0  0  0
   58.1810   26.2530   45.3400 N   0  0  0  0  0  0  0  0  0  0  0  0
   57.2310   27.3180   45.5100 C   0  0  0  0  0  0  0  0  0  0  0  0
   56.0050   27.0480   45.6290 O   0  0  0  0  0  0  0  0  0  0  0  0
   57.6790   28.7280   45.5990 C   0  0  0  0  0  0  0  0  0  0  0  0
   58.8220   29.0600   46.3480 C   0  0  0  0  0  0  0  0  0  0  0  0
   59.2500   30.3880   46.4410 C   0  0  0  0  0  0  0  0  0  0  0  0
   58.5400   31.4100   45.7930 C   0  0  0  0  0  0  0  0  0  0  0  0
   58.9850   32.8440   45.9170 C   0  0  0  0  0  0  0  0  0  0  0  0
   59.7090   33.0580   47.1910 N   0  0  0  0  0  0  0  0  0  0  0  0
   61.0540   33.3100   47.1740 C   0  0  0  0  0  0  0  0  0  0  0  0
   61.6690   33.4040   46.0740 O   0  0  0  0  0  0  0  0  0  0  0  0
   61.7600   33.4540   48.3730 C   0  0  0  0  0  0  0  0  0  0  0  0
   63.1540   33.6630   48.3750 C   0  0  0  0  0  0  0  0  0  0  0  0
   63.8520   33.7690   49.5770 C   0  0  0  0  0  0  0  0  0  0  0  0
   63.1750   33.6550   50.7860 C   0  0  0  0  0  0  0  0  0  0  0  0
   61.7940   33.4520   50.8020 C   0  0  0  0  0  0  0  0  0  0  0  0
   61.0530   33.3720   49.5960 C   0  0  0  0  0  0  0  0  0  0  0  0
   59.6820   33.2030   49.5830 N   0  0  0  0  0  0  0  0  0  0  0  0
   58.8890   33.2280   50.8380 C   0  0  0  0  0  0  0  0  0  0  0  0
   59.1900   32.0630   51.7580 C   0  0  0  0  0  0  0  0  0  0  0  0
   59.7150   32.3110   52.8760 O   0  0  0  0  0  0  0  0  0  0  0  0
   58.9660   30.6860   51.4130 N   0  0  0  0  0  0  0  0  0  0  0  0
   59.5880   29.4970   51.9840 C   0  0  0  0  0  0  0  0  0  0  0  0
   60.6780   28.9480   51.0530 C   0  0  0  0  0  0  0  0  0  0  0  0
   60.3030   29.0820   49.5610 C   0  0  0  0  0  0  0  0  0  0  0  0
   60.3670   27.7330   48.8300 C   0  0  0  0  0  0  0  0  0  0  0  0
   61.2300   30.0920   48.8730 C   0  0  0  0  0  0  0  0  0  0  0  0
   59.0370   32.9780   48.3850 C   0  0  0  0  0  0  0  0  0  0  0  0
   57.8030   32.7030   48.3780 O   0  0  0  0  0  0  0  0  0  0  0  0
   57.3900   31.0830   45.0570 C   0  0  0  0  0  0  0  0  0  0  0  0
   56.9640   29.7550   44.9600 C   0  0  0  0  0  0  0  0  0  0  0  0
   58.1580   23.7880   45.5780 C   0  0  0  0  0  0  0  0  0  0  0  0
   57.7800   22.5160   45.1130 C   0  0  0  0  0  0  0  0  0  0  0  0
   58.1470   21.2970   45.9190 C   0  0  0  0  0  0  0  0  0  0  0  0
   56.4184   20.3905   44.1979 H   0  0  0  0  0  0  0  0  0  0  0  0
   55.7346   21.1923   42.7432 H   0  0  0  0  0  0  0  0  0  0  0  0
   57.4429   20.6369   42.7432 H   0  0  0  0  0  0  0  0  0  0  0  0
   56.1532   23.4901   42.2530 H   0  0  0  0  0  0  0  0  0  0  0  0
   56.8049   25.7307   43.1134 H   0  0  0  0  0  0  0  0  0  0  0  0
   59.1580   26.4010   45.6830 H   0  0  0  0  0  0  0  0  0  0  0  0
   59.3841   28.2684   46.8651 H   0  0  0  0  0  0  0  0  0  0  0  0
   60.1489   30.6329   47.0258 H   0  0  0  0  0  0  0  0  0  0  0  0
   59.6515   33.0894   45.0770 H   0  0  0  0  0  0  0  0  0  0  0  0
   58.0970   33.4930   45.9010 H   0  0  0  0  0  0  0  0  0  0  0  0
   63.6952   33.7431   47.4207 H   0  0  0  0  0  0  0  0  0  0  0  0
   64.9382   33.9428   49.5690 H   0  0  0  0  0  0  0  0  0  0  0  0
   63.7296   33.7250   51.7334 H   0  0  0  0  0  0  0  0  0  0  0  0
   61.2725   33.3525   51.7654 H   0  0  0  0  0  0  0  0  0  0  0  0
   59.1115   34.1627   51.3735 H   0  0  0  0  0  0  0  0  0  0  0  0
   57.8283   33.1556   50.5557 H   0  0  0  0  0  0  0  0  0  0  0  0
   60.0393   29.7568   52.9529 H   0  0  0  0  0  0  0  0  0  0  0  0
   58.8157   28.7247   52.1145 H   0  0  0  0  0  0  0  0  0  0  0  0
   61.6097   29.5041   51.2340 H   0  0  0  0  0  0  0  0  0  0  0  0
   60.7975   27.8769   51.2730 H   0  0  0  0  0  0  0  0  0  0  0  0
   59.2642   29.4405   49.5124 H   0  0  0  0  0  0  0  0  0  0  0  0
   60.4057   26.9178   49.5675 H   0  0  0  0  0  0  0  0  0  0  0  0
   59.4734   27.6149   48.1994 H   0  0  0  0  0  0  0  0  0  0  0  0
   61.2677   27.7000   48.1994 H   0  0  0  0  0  0  0  0  0  0  0  0
   61.7661   30.6761   49.6355 H   0  0  0  0  0  0  0  0  0  0  0  0
   61.9560   29.5548   48.2451 H   0  0  0  0  0  0  0  0  0  0  0  0
   60.6326   30.7694   48.2451 H   0  0  0  0  0  0  0  0  0  0  0  0
   56.8200   31.8775   44.5530 H   0  0  0  0  0  0  0  0  0  0  0  0
   56.0621   29.5122   44.3789 H   0  0  0  0  0  0  0  0  0  0  0  0
   58.7177   23.8773   46.5207 H   0  0  0  0  0  0  0  0  0  0  0  0
   58.0764   21.5316   46.9914 H   0  0  0  0  0  0  0  0  0  0  0  0
   57.4563   20.4758   45.6770 H   0  0  0  0  0  0  0  0  0  0  0  0
   59.1763   20.9937   45.6770 H   0  0  0  0  0  0  0  0  0  0  0  0
  1  2  1  0
  2  3  2  0
  3  4  1  0
  4  5  2  0
  5  6  1  0
  6  7  1  0
  7  8  2  0
  7  9  1  0
  9 10  2  0
 10 11  1  0
 11 12  2  0
 12 13  1  0
 13 14  1  0
 14 15  1  0
 15 16  2  0
 15 17  1  0
 17 18  2  0
 18 19  1  0
 19 20  2  0
 20 21  1  0
 21 22  2  0
 22 23  1  0
 23 24  1  0
 24 25  1  0
 25 26  2  0
 25 27  1  0
 27 28  1  0
 28 29  1  0
 29 30  1  0
 30 31  1  0
 30 32  1  0
 23 33  1  0
 33 34  2  0
 12 35  1  0
 35 36  2  0
  5 37  1  0
 37 38  2  0
 38 39  1  0
 38  2  1  0
 36  9  1  0
 33 14  1  0
 22 17  1  0
  1 40  1  0
  1 41  1  0
  1 42  1  0
  3 43  1  0
  4 44  1  0
  6 45  1  0
 10 46  1  0
 11 47  1  0
 13 48  1  0
 13 49  1  0
 18 50  1  0
 19 51  1  0
 20 52  1  0
 21 53  1  0
 24 54  1  0
 24 55  1  0
 28 56  1  0
 28 57  1  0
 29 58  1  0
 29 59  1  0
 30 60  1  0
 31 61  1  0
 31 62  1  0
 31 63  1  0
 32 64  1  0
 32 65  1  0
 32 66  1  0
 35 67  1  0
 36 68  1  0
 37 69  1  0
 39 70  1  0
 39 71  1  0
 39 72  1  0
M  CHG  1  27  -1
M  END
>  <UniqueID>  (82) 
72

>  <SMILES>  (82) 
Cc1ccc(NC(=O)c2ccc(Cn3c(=O)c4ccccc4n(CC(=O)[N-]CCC(C)C)c3=O)cc2)cc1C

>  <Energy>  (82) 
89.16266949244309

>  <Genealogy>  (82) 
Cc1ccc(NC(=O)c2ccc(Cn3c(=O)c4ccccc4n(CC(=O)[N-]CCC(C)C)c3=O)cc2)cc1C (protonated)
Cc1ccc(NC(=O)c2ccc(Cn3c(=O)c4ccccc4n(CC(=O)[N-]CCC(C)C)c3=O)cc2)cc1C (3D coordinates assigned)
Cc1ccc(NC(=O)c2ccc(Cn3c(=O)c4ccccc4n(CC(=O)[N-]CCC(C)C)c3=O)cc2)cc1C (optimized conformer: 89.16266949244309 kcal/mol)

>  <smiles>  (82) 
Cc1ccc(NC(=O)c2ccc(Cn3c(=O)c4ccccc4n(CC(=O)NCCC(C)C)c3=O)cc2)cc1C

>  <score_type>  (82) 
oracle

>  <origin>  (82) 
adg

>  <m_score__min__energy>  (82) 
-10.029999999999999

>  <m_primary>  (82) 
energy

$$$$
82:0
     RDKit          3D

 47 49  0  0  0  0  0  0  0  0999 V2000
   59.8472   36.5714   45.3946 H   0  0  0  0  0  0  0  0  0  0  0  0
   59.6510   35.5460   45.7410 C   0  0  0  0  0  0  0  0  0  0  0  0
   59.2480   34.5670   44.8310 C   0  0  0  0  0  0  0  0  0  0  0  0
   59.1254   34.8211   43.7678 H   0  0  0  0  0  0  0  0  0  0  0  0
   59.0000   33.2620   45.2720 C   0  0  0  0  0  0  0  0  0  0  0  0
   58.6802   32.4962   44.5500 H   0  0  0  0  0  0  0  0  0  0  0  0
   59.1550   32.9170   46.6300 C   0  0  0  0  0  0  0  0  0  0  0  0
   58.8960   31.4730   47.0680 C   0  0  2  0  0  0  0  0  0  0  0  0
   58.3426   31.6107   48.0086 H   0  0  0  0  0  0  0  0  0  0  0  0
   60.1240   30.7100   47.4230 N   0  0  0  0  0  0  0  0  0  0  0  0
   61.4420   31.2960   47.0830 C   0  0  0  0  0  0  0  0  0  0  0  0
   62.0106   30.5660   46.4883 H   0  0  0  0  0  0  0  0  0  0  0  0
   61.2621   32.2225   46.5179 H   0  0  0  0  0  0  0  0  0  0  0  0
   62.2610   31.6600   48.3340 C   0  0  0  0  0  0  0  0  0  0  0  0
   62.8301   30.7789   48.6654 H   0  0  0  0  0  0  0  0  0  0  0  0
   62.9513   32.4799   48.0865 H   0  0  0  0  0  0  0  0  0  0  0  0
   61.4000   32.0780   49.3730 O   0  0  0  0  0  0  0  0  0  0  0  0
   60.6550   30.9730   49.8640 C   0  0  0  0  0  0  0  0  0  0  0  0
   61.3132   30.3681   50.5050 H   0  0  0  0  0  0  0  0  0  0  0  0
   59.7953   31.3844   50.4132 H   0  0  0  0  0  0  0  0  0  0  0  0
   60.0850   30.0610   48.7510 C   0  0  0  0  0  0  0  0  0  0  0  0
   60.6798   29.1366   48.7112 H   0  0  0  0  0  0  0  0  0  0  0  0
   59.0329   29.8498   48.9930 H   0  0  0  0  0  0  0  0  0  0  0  0
   57.9230   30.6590   46.1640 C   0  0  0  0  0  0  0  0  0  0  0  0
   58.0761   30.9758   45.1218 H   0  0  0  0  0  0  0  0  0  0  0  0
   56.9071   30.8661   46.5316 H   0  0  0  0  0  0  0  0  0  0  0  0
   58.1030   29.2050   46.2320 N   0  0  0  0  0  0  0  0  0  0  0  0
   58.8250   28.8320   46.8920 H   0  0  0  0  0  0  0  0  0  0  0  0
   57.1450   28.2790   45.6920 C   0  0  0  0  0  0  0  0  0  0  0  0
   56.2770   28.6830   44.8050 N   0  0  0  0  0  0  0  0  0  0  0  0
   56.6040   29.3780   43.5630 C   0  0  0  0  0  0  0  0  0  0  0  0
   57.0616   30.3506   43.7966 H   0  0  0  0  0  0  0  0  0  0  0  0
   57.3110   28.7711   42.9784 H   0  0  0  0  0  0  0  0  0  0  0  0
   55.6857   29.5358   42.9784 H   0  0  0  0  0  0  0  0  0  0  0  0
   57.1900   26.8680   46.1450 C   0  0  0  0  0  0  0  0  0  0  0  0
   56.0080   26.1270   46.2940 C   0  0  0  0  0  0  0  0  0  0  0  0
   54.7710   26.6940   45.9930 O   0  0  0  0  0  0  0  0  0  0  0  0
   56.0650   24.8460   46.7430 N   0  0  0  0  0  0  0  0  0  0  0  0
   57.2510   24.2620   47.0600 C   0  0  0  0  0  0  0  0  0  0  0  0
   57.2810   23.0730   47.4750 O   0  0  0  0  0  0  0  0  0  0  0  0
   58.4080   24.9630   46.9330 N   0  0  0  0  0  0  0  0  0  0  0  0
   58.4040   26.2480   46.4870 C   0  0  0  0  0  0  0  0  0  0  0  0
   59.4950   26.8640   46.3770 O   0  0  0  0  0  0  0  0  0  0  0  0
   59.5590   33.9210   47.5340 C   0  0  0  0  0  0  0  0  0  0  0  0
   59.6819   33.6767   48.5995 H   0  0  0  0  0  0  0  0  0  0  0  0
   59.8050   35.2240   47.0900 C   0  0  0  0  0  0  0  0  0  0  0  0
   60.1207   35.9971   47.8060 H   0  0  0  0  0  0  0  0  0  0  0  0
  1  2  1  0
  2  3  2  0
  3  4  1  0
  3  5  1  0
  5  6  1  0
  5  7  2  0
  7  8  1  0
  8  9  1  1
  8 10  1  0
 10 11  1  0
 11 12  1  0
 11 13  1  0
 11 14  1  0
 14 15  1  0
 14 16  1  0
 14 17  1  0
 17 18  1  0
 18 19  1  0
 18 20  1  0
 18 21  1  0
 21 22  1  0
 21 23  1  0
  8 24  1  0
 24 25  1  0
 24 26  1  0
 24 27  1  0
 27 28  1  0
 27 29  1  0
 29 30  2  0
 30 31  1  0
 31 32  1  0
 31 33  1  0
 31 34  1  0
 29 35  1  0
 35 36  2  0
 36 37  1  0
 36 38  1  0
 38 39  1  0
 39 40  2  0
 39 41  1  0
 41 42  1  0
 42 43  2  0
  7 44  1  0
 44 45  1  0
 44 46  2  0
 46 47  1  0
 46  2  1  0
 21 10  1  0
 42 35  1  0
M  CHG  3  37  -1  38  -1  41  -1
M  END
>  <UniqueID>  (83) 
73

>  <SMILES>  (83) 
C/N=C(/NC[C@H](c1ccccc1)N1CCOCC1)c1c([O-])[n-]c(=O)[n-]c1=O

>  <Energy>  (83) 
78.64776546925111

>  <Genealogy>  (83) 
CN=C(NCC(c1ccccc1)N1CCOCC1)c1c([O-])[n-]c(=O)[n-]c1=O (protonated)
CN=C(NC[C@H](c1ccccc1)N1CCOCC1)c1c([O-])[n-]c(=O)[n-]c1=O (chirality)
C/N=C(/NC[C@H](c1ccccc1)N1CCOCC1)c1c([O-])[n-]c(=O)[n-]c1=O (cis-trans isomerization)
C/N=C(/NC[C@H](c1ccccc1)N1CCOCC1)c1c([O-])[n-]c(=O)[n-]c1=O (3D coordinates assigned)
C/N=C(/NC[C@H](c1ccccc1)N1CCOCC1)c1c([O-])[n-]c(=O)[n-]c1=O (nonaromatic ring conformer: 78.64776546925111 kcal/mol)

>  <smiles>  (83) 
CN=C(NCC(c1ccccc1)N1CCOCC1)c1c(O)[nH]c(=O)[nH]c1=O

>  <score_type>  (83) 
oracle

>  <origin>  (83) 
adg

>  <m_score__min__energy>  (83) 
-14.960000000000001

>  <m_primary>  (83) 
energy

$$$$
83:0
     RDKit          3D

 44 47  0  0  0  0  0  0  0  0999 V2000
   60.2690   33.8760   45.2440 O   0  0  0  0  0  0  0  0  0  0  0  0
   59.6450   33.9480   46.3320 C   0  0  0  0  0  0  0  0  0  0  0  0
   58.2310   34.3470   46.3550 C   0  0  0  0  0  0  0  0  0  0  0  0
   57.2900   33.7730   44.9240 S   0  0  0  0  0  0  0  0  0  0  0  0
   57.4260   32.0120   44.7750 C   0  0  0  0  0  0  0  0  0  0  0  0
   56.2590   31.3110   44.6930 N   0  0  0  0  0  0  0  0  0  0  0  0
   56.3660   29.9690   44.5570 C   0  0  0  0  0  0  0  0  0  0  0  0
   55.2520   29.3500   44.4830 O   0  0  0  0  0  0  0  0  0  0  0  0
   57.5710   29.3080   44.5000 C   0  0  0  0  0  0  0  0  0  0  0  0
   57.9010   27.9730   44.3640 C   0  0  0  0  0  0  0  0  0  0  0  0
   59.2440   27.9320   44.3700 N   0  0  0  0  0  0  0  0  0  0  0  0
   59.7440   29.1480   44.5010 N   0  0  0  0  0  0  0  0  0  0  0  0
   58.7220   30.0380   44.5850 C   0  0  0  0  0  0  0  0  0  0  0  0
   58.6200   31.3650   44.7190 N   0  0  0  0  0  0  0  0  0  0  0  0
   60.3370   33.6340   47.5400 N   0  0  0  0  0  0  0  0  0  0  0  0
   61.7080   33.2090   47.5900 C   0  0  0  0  0  0  0  0  0  0  0  0
   61.8640   32.0460   48.5240 C   0  0  0  0  0  0  0  0  0  0  0  0
   60.5620   31.5230   48.8410 N   0  0  0  0  0  0  0  0  0  0  0  0
   60.1410   30.1930   48.5840 C   0  0  0  0  0  0  0  0  0  0  0  0
   60.9540   29.1860   49.0900 C   0  0  0  0  0  0  0  0  0  0  0  0
   60.6620   27.8440   48.9170 C   0  0  0  0  0  0  0  0  0  0  0  0
   59.5070   27.5320   48.2070 C   0  0  0  0  0  0  0  0  0  0  0  0
   58.6880   28.5450   47.6970 C   0  0  0  0  0  0  0  0  0  0  0  0
   58.9930   29.8810   47.8790 C   0  0  0  0  0  0  0  0  0  0  0  0
   58.2200   30.8880   47.3980 F   0  0  0  0  0  0  0  0  0  0  0  0
   59.5580   32.3910   49.4860 C   0  0  0  0  0  0  0  0  0  0  0  0
   59.6380   33.7570   48.8260 C   0  0  0  0  0  0  0  0  0  0  0  0
   57.7684   33.9334   47.2632 H   0  0  0  0  0  0  0  0  0  0  0  0
   58.2073   35.4466   46.3347 H   0  0  0  0  0  0  0  0  0  0  0  0
   57.2095   27.1226   44.2705 H   0  0  0  0  0  0  0  0  0  0  0  0
   59.8180   27.0480   44.2830 H   0  0  0  0  0  0  0  0  0  0  0  0
   59.4900   31.9290   44.7860 H   0  0  0  0  0  0  0  0  0  0  0  0
   62.0311   32.9096   46.5821 H   0  0  0  0  0  0  0  0  0  0  0  0
   62.3258   34.0430   47.9543 H   0  0  0  0  0  0  0  0  0  0  0  0
   62.4683   31.2638   48.0414 H   0  0  0  0  0  0  0  0  0  0  0  0
   62.3676   32.3738   49.4454 H   0  0  0  0  0  0  0  0  0  0  0  0
   61.8606   29.4648   49.6471 H   0  0  0  0  0  0  0  0  0  0  0  0
   61.3153   27.0579   49.3235 H   0  0  0  0  0  0  0  0  0  0  0  0
   59.2351   26.4785   48.0451 H   0  0  0  0  0  0  0  0  0  0  0  0
   57.7805   28.2722   47.1384 H   0  0  0  0  0  0  0  0  0  0  0  0
   58.5524   31.9668   49.3491 H   0  0  0  0  0  0  0  0  0  0  0  0
   59.7543   32.4719   50.5653 H   0  0  0  0  0  0  0  0  0  0  0  0
   58.6221   34.1435   48.6567 H   0  0  0  0  0  0  0  0  0  0  0  0
   60.1874   34.4506   49.4795 H   0  0  0  0  0  0  0  0  0  0  0  0
  1  2  2  0
  2  3  1  0
  3  4  1  0
  4  5  1  0
  5  6  2  0
  6  7  1  0
  7  8  2  0
  7  9  1  0
  9 10  2  0
 10 11  1  0
 11 12  1  0
 12 13  2  0
 13 14  1  0
  2 15  1  0
 15 16  1  0
 16 17  1  0
 17 18  1  0
 18 19  1  0
 19 20  2  0
 20 21  1  0
 21 22  2  0
 22 23  1  0
 23 24  2  0
 24 25  1  0
 18 26  1  0
 26 27  1  0
 14  5  1  0
 27 15  1  0
 13  9  1  0
 24 19  1  0
  3 28  1  0
  3 29  1  0
 10 30  1  0
 11 31  1  0
 14 32  1  0
 16 33  1  0
 16 34  1  0
 17 35  1  0
 17 36  1  0
 20 37  1  0
 21 38  1  0
 22 39  1  0
 23 40  1  0
 26 41  1  0
 26 42  1  0
 27 43  1  0
 27 44  1  0
M  END
>  <smiles>  (84) 
O=C(CSc1nc(=O)c2c[nH]nc2[nH]1)N1CCN(c2ccccc2F)CC1

>  <score_type>  (84) 
oracle

>  <origin>  (84) 
adg

>  <m_score__min__energy>  (84) 
-8.4800000000000004

>  <m_primary>  (84) 
energy

$$$$
84:0
     RDKit          3D

 41 43  0  0  0  0  0  0  0  0999 V2000
   56.7600   26.0760   43.6920 H   0  0  0  0  0  0  0  0  0  0  0  0
   57.7730   26.2360   43.5890 N   0  0  0  0  0  0  0  0  0  0  0  0
   58.4940   26.6830   44.5550 C   0  0  0  0  0  0  0  0  0  0  0  0
   59.6410   28.0300   44.2050 S   0  0  0  0  0  0  0  0  0  0  0  0
   58.3430   29.2690   44.1520 C   0  0  0  0  0  0  0  0  0  0  0  0
   58.6030   30.5700   44.6010 C   0  0  0  0  0  0  0  0  0  0  0  0
   59.6025   30.8396   44.9730 H   0  0  0  0  0  0  0  0  0  0  0  0
   57.5820   31.5210   44.5720 C   0  0  0  0  0  0  0  0  0  0  0  0
   57.7715   32.5445   44.9279 H   0  0  0  0  0  0  0  0  0  0  0  0
   56.3190   31.1700   44.0900 C   0  0  0  0  0  0  0  0  0  0  0  0
   55.5047   31.9094   44.0726 H   0  0  0  0  0  0  0  0  0  0  0  0
   56.1020   29.8680   43.6300 C   0  0  0  0  0  0  0  0  0  0  0  0
   55.1133   29.5809   43.2426 H   0  0  0  0  0  0  0  0  0  0  0  0
   57.1110   28.9540   43.6600 N   0  0  0  0  0  0  0  0  0  0  0  0
   56.9330   27.9960   43.2880 H   0  0  0  0  0  0  0  0  0  0  0  0
   58.2630   26.1880   45.9680 C   0  0  2  0  0  0  0  0  0  0  0  0
   58.7729   25.2202   46.0835 H   0  0  0  0  0  0  0  0  0  0  0  0
   56.8220   25.9890   46.1920 C   0  0  0  0  0  0  0  0  0  0  0  0
   55.6880   25.8350   46.3700 N   0  0  0  0  0  0  0  0  0  0  0  0
   58.8820   27.1020   47.0080 C   0  0  0  0  0  0  0  0  0  0  0  0
   60.0060   26.6640   47.7290 C   0  0  0  0  0  0  0  0  0  0  0  0
   60.4091   25.6561   47.5508 H   0  0  0  0  0  0  0  0  0  0  0  0
   60.6160   27.4970   48.6700 C   0  0  0  0  0  0  0  0  0  0  0  0
   61.4948   27.1430   49.2290 H   0  0  0  0  0  0  0  0  0  0  0  0
   60.1120   28.7780   48.9020 C   0  0  0  0  0  0  0  0  0  0  0  0
   60.5978   29.4306   49.6423 H   0  0  0  0  0  0  0  0  0  0  0  0
   58.9930   29.2370   48.1990 C   0  0  0  0  0  0  0  0  0  0  0  0
   58.5330   30.5390   48.4420 O   0  0  0  0  0  0  0  0  0  0  0  0
   58.9980   31.6970   47.8010 C   0  0  0  0  0  0  0  0  0  0  0  0
   60.3420   31.7590   47.4100 C   0  0  0  0  0  0  0  0  0  0  0  0
   61.0067   30.9037   47.6018 H   0  0  0  0  0  0  0  0  0  0  0  0
   60.8440   32.9000   46.7780 C   0  0  0  0  0  0  0  0  0  0  0  0
   61.8975   32.9357   46.4637 H   0  0  0  0  0  0  0  0  0  0  0  0
   60.0080   33.9960   46.5450 C   0  0  0  0  0  0  0  0  0  0  0  0
   60.4030   34.8924   46.0445 H   0  0  0  0  0  0  0  0  0  0  0  0
   58.6700   33.9530   46.9480 C   0  0  0  0  0  0  0  0  0  0  0  0
   58.0138   34.8173   46.7682 H   0  0  0  0  0  0  0  0  0  0  0  0
   58.1650   32.8110   47.5800 C   0  0  0  0  0  0  0  0  0  0  0  0
   57.1145   32.7834   47.9051 H   0  0  0  0  0  0  0  0  0  0  0  0
   58.3950   28.4060   47.2350 C   0  0  0  0  0  0  0  0  0  0  0  0
   57.5389   28.7767   46.6522 H   0  0  0  0  0  0  0  0  0  0  0  0
  1  2  1  0
  2  3  2  0
  3  4  1  0
  4  5  1  0
  5  6  2  0
  6  7  1  0
  6  8  1  0
  8  9  1  0
  8 10  2  0
 10 11  1  0
 10 12  1  0
 12 13  1  0
 12 14  2  0
 14 15  1  0
  3 16  1  0
 16 17  1  6
 16 18  1  0
 18 19  3  0
 16 20  1  0
 20 21  2  0
 21 22  1  0
 21 23  1  0
 23 24  1  0
 23 25  2  0
 25 26  1  0
 25 27  1  0
 27 28  1  0
 28 29  1  0
 29 30  2  0
 30 31  1  0
 30 32  1  0
 32 33  1  0
 32 34  2  0
 34 35  1  0
 34 36  1  0
 36 37  1  0
 36 38  2  0
 38 39  1  0
 27 40  2  0
 40 41  1  0
 14  5  1  0
 40 20  1  0
 38 29  1  0
M  CHG  1  14   1
M  END
>  <UniqueID>  (85) 
74

>  <SMILES>  (85) 
[H]/N=C(/Sc1cccc[nH+]1)[C@H](C#N)c1cccc(Oc2ccccc2)c1

>  <Energy>  (85) 
44.525920675520325

>  <Genealogy>  (85) 
N#CC(C(=N)Sc1cccc[nH+]1)c1cccc(Oc2ccccc2)c1 (protonated)
N#C[C@@H](C(=N)Sc1cccc[nH+]1)c1cccc(Oc2ccccc2)c1 (chirality)
[H]/N=C(/Sc1cccc[nH+]1)[C@H](C#N)c1cccc(Oc2ccccc2)c1 (cis-trans isomerization)
[H]/N=C(/Sc1cccc[nH+]1)[C@H](C#N)c1cccc(Oc2ccccc2)c1 (3D coordinates assigned)
[H]/N=C(/Sc1cccc[nH+]1)[C@H](C#N)c1cccc(Oc2ccccc2)c1 (optimized conformer: 44.525920675520325 kcal/mol)

>  <smiles>  (85) 
N#CC(C(=N)Sc1ccccn1)c1cccc(Oc2ccccc2)c1

>  <score_type>  (85) 
oracle

>  <origin>  (85) 
adg

>  <m_score__min__energy>  (85) 
-6.8799999999999999

>  <m_primary>  (85) 
energy

$$$$
85:0
     RDKit          3D

 29 30  0  0  0  0  0  0  0  0999 V2000
   55.5130   26.9130   45.9350 O   0  0  0  0  0  0  0  0  0  0  0  0
   56.7430   27.0710   45.7080 C   0  0  0  0  0  0  0  0  0  0  0  0
   57.6530   26.0290   46.0880 N   0  0  0  0  0  0  0  0  0  0  0  0
   57.7990   24.8600   45.5270 C   0  0  0  0  0  0  0  0  0  0  0  0
   58.8480   23.9770   45.8650 C   0  0  0  0  0  0  0  0  0  0  0  0
   58.9360   22.7340   45.2260 C   0  0  0  0  0  0  0  0  0  0  0  0
   59.9660   21.8480   45.5350 O   0  0  0  0  0  0  0  0  0  0  0  0
   57.9810   22.3770   44.2740 C   0  0  0  0  0  0  0  0  0  0  0  0
   56.9440   23.2610   43.9800 C   0  0  0  0  0  0  0  0  0  0  0  0
   56.8760   24.4650   44.6090 N   0  0  0  0  0  0  0  0  0  0  0  0
   57.2110   28.2280   44.9960 N   0  0  0  0  0  0  0  0  0  0  0  0
   56.4030   29.3890   44.7330 C   0  0  0  0  0  0  0  0  0  0  0  0
   55.1520   29.3350   44.8900 O   0  0  0  0  0  0  0  0  0  0  0  0
   57.0200   30.6530   44.2610 C   0  0  0  0  0  0  0  0  0  0  0  0
   57.1270   30.9390   42.8860 C   0  0  0  0  0  0  0  0  0  0  0  0
   57.7190   32.1300   42.4560 C   0  0  0  0  0  0  0  0  0  0  0  0
   58.2150   33.0440   43.3890 C   0  0  0  0  0  0  0  0  0  0  0  0
   58.1240   32.7660   44.7540 C   0  0  0  0  0  0  0  0  0  0  0  0
   57.5340   31.5750   45.1900 C   0  0  0  0  0  0  0  0  0  0  0  0
   59.5904   24.2634   46.6245 H   0  0  0  0  0  0  0  0  0  0  0  0
   59.9390   20.8800   45.2350 H   0  0  0  0  0  0  0  0  0  0  0  0
   58.0456   21.4067   43.7599 H   0  0  0  0  0  0  0  0  0  0  0  0
   56.1799   22.9845   43.2385 H   0  0  0  0  0  0  0  0  0  0  0  0
   58.1870   28.2030   44.6250 H   0  0  0  0  0  0  0  0  0  0  0  0
   56.7426   30.2211   42.1465 H   0  0  0  0  0  0  0  0  0  0  0  0
   57.7945   32.3481   41.3805 H   0  0  0  0  0  0  0  0  0  0  0  0
   58.6770   33.9823   43.0482 H   0  0  0  0  0  0  0  0  0  0  0  0
   58.5170   33.4848   45.4881 H   0  0  0  0  0  0  0  0  0  0  0  0
   57.4717   31.3583   46.2666 H   0  0  0  0  0  0  0  0  0  0  0  0
  1  2  2  0
  2  3  1  0
  3  4  2  3
  4  5  1  0
  5  6  2  0
  6  7  1  0
  6  8  1  0
  8  9  2  0
  9 10  1  0
  2 11  1  0
 11 12  1  0
 12 13  2  0
 12 14  1  0
 14 15  2  0
 15 16  1  0
 16 17  2  0
 17 18  1  0
 18 19  2  0
 10  4  1  0
 19 14  1  0
  5 20  1  0
  7 21  1  0
  8 22  1  0
  9 23  1  0
 11 24  1  0
 15 25  1  0
 16 26  1  0
 17 27  1  0
 18 28  1  0
 19 29  1  0
M  CHG  1  10  -1
M  END
>  <UniqueID>  (86) 
75

>  <SMILES>  (86) 
O=C(N=c1cc(O)cc[n-]1)NC(=O)c1ccccc1

>  <Energy>  (86) 
40.77810986051422

>  <Genealogy>  (86) 
O=C(N=c1cc(O)cc[n-]1)NC(=O)c1ccccc1 (protonated)
O=C(N=c1cc(O)cc[n-]1)NC(=O)c1ccccc1 (3D coordinates assigned)
O=C(N=c1cc(O)cc[n-]1)NC(=O)c1ccccc1 (optimized conformer: 40.77810986051422 kcal/mol)

>  <smiles>  (86) 
O=C(N=c1cc(O)cc[nH]1)NC(=O)c1ccccc1

>  <score_type>  (86) 
oracle

>  <origin>  (86) 
adg

>  <m_score__min__energy>  (86) 
-8.9600000000000009

>  <m_primary>  (86) 
energy

$$$$
86:0
     RDKit          3D

 50 52  0  0  0  0  0  0  0  0999 V2000
   56.9360   23.8060   45.1360 C   0  0  0  0  0  0  0  0  0  0  0  0
   57.4060   24.3930   46.3460 O   0  0  0  0  0  0  0  0  0  0  0  0
   58.1170   25.6010   46.4170 C   0  0  0  0  0  0  0  0  0  0  0  0
   57.4230   26.7610   46.7740 C   0  0  0  0  0  0  0  0  0  0  0  0
   58.0870   27.9890   46.8610 C   0  0  0  0  0  0  0  0  0  0  0  0
   59.4640   28.0710   46.6110 C   0  0  0  0  0  0  0  0  0  0  0  0
   60.1190   29.3490   46.6830 N   0  0  0  0  0  0  0  0  0  0  0  0
   60.7730   29.8480   47.8660 C   0  0  0  0  0  0  0  0  0  0  0  0
   60.7210   29.1860   48.9390 O   0  0  0  0  0  0  0  0  0  0  0  0
   61.5070   31.1380   47.8540 C   0  0  0  0  0  0  0  0  0  0  0  0
   62.6990   31.2670   48.5900 C   0  0  0  0  0  0  0  0  0  0  0  0
   63.3960   32.4770   48.6040 C   0  0  0  0  0  0  0  0  0  0  0  0
   62.9170   33.5700   47.8790 C   0  0  0  0  0  0  0  0  0  0  0  0
   61.7420   33.4550   47.1270 C   0  0  0  0  0  0  0  0  0  0  0  0
   61.2160   34.5750   46.4070 N   0  0  0  0  0  0  0  0  0  0  0  0
   59.8350   34.9570   46.3570 C   0  0  0  0  0  0  0  0  0  0  0  0
   59.2400   35.2200   47.4350 O   0  0  0  0  0  0  0  0  0  0  0  0
   59.0500   34.9330   45.0700 C   0  0  0  0  0  0  0  0  0  0  0  0
   58.4540   33.5750   44.7910 C   0  0  0  0  0  0  0  0  0  0  0  0
   58.3260   33.1110   43.4700 C   0  0  0  0  0  0  0  0  0  0  0  0
   57.7910   31.8440   43.2130 C   0  0  0  0  0  0  0  0  0  0  0  0
   57.3960   31.0180   44.2730 C   0  0  0  0  0  0  0  0  0  0  0  0
   56.7140   29.4250   43.9560 S   0  0  0  0  0  0  0  0  0  0  0  0
   55.5910   29.0170   45.2030 N   0  0  0  0  0  0  0  0  0  0  0  0
   57.8160   28.4040   43.9210 O   0  0  0  0  0  0  0  0  0  0  0  0
   56.0100   29.4210   42.6280 O   0  0  0  0  0  0  0  0  0  0  0  0
   57.5340   31.4700   45.5910 C   0  0  0  0  0  0  0  0  0  0  0  0
   58.0660   32.7370   45.8500 C   0  0  0  0  0  0  0  0  0  0  0  0
   61.0240   32.2520   47.1410 C   0  0  0  0  0  0  0  0  0  0  0  0
   60.1600   26.9100   46.2290 C   0  0  0  0  0  0  0  0  0  0  0  0
   59.4960   25.6840   46.1390 C   0  0  0  0  0  0  0  0  0  0  0  0
   56.2645   22.9673   45.3720 H   0  0  0  0  0  0  0  0  0  0  0  0
   56.3892   24.5601   44.5509 H   0  0  0  0  0  0  0  0  0  0  0  0
   57.7914   23.4374   44.5509 H   0  0  0  0  0  0  0  0  0  0  0  0
   56.3454   26.7075   46.9883 H   0  0  0  0  0  0  0  0  0  0  0  0
   57.5250   28.8963   47.1273 H   0  0  0  0  0  0  0  0  0  0  0  0
   60.0580   29.9560   45.8370 H   0  0  0  0  0  0  0  0  0  0  0  0
   63.0849   30.4082   49.1588 H   0  0  0  0  0  0  0  0  0  0  0  0
   64.3241   32.5692   49.1872 H   0  0  0  0  0  0  0  0  0  0  0  0
   63.4644   34.5239   47.8989 H   0  0  0  0  0  0  0  0  0  0  0  0
   58.2361   35.6699   45.1377 H   0  0  0  0  0  0  0  0  0  0  0  0
   59.7408   35.1738   44.2486 H   0  0  0  0  0  0  0  0  0  0  0  0
   58.6485   33.7481   42.6333 H   0  0  0  0  0  0  0  0  0  0  0  0
   57.6803   31.4956   42.1755 H   0  0  0  0  0  0  0  0  0  0  0  0
   54.6500   29.3390   44.8820 H   0  0  0  0  0  0  0  0  0  0  0  0
   57.2226   30.8256   46.4263 H   0  0  0  0  0  0  0  0  0  0  0  0
   58.1814   33.0796   46.8889 H   0  0  0  0  0  0  0  0  0  0  0  0
   60.0748   32.1771   46.5902 H   0  0  0  0  0  0  0  0  0  0  0  0
   61.2343   26.9676   45.9996 H   0  0  0  0  0  0  0  0  0  0  0  0
   60.0519   24.7799   45.8500 H   0  0  0  0  0  0  0  0  0  0  0  0
  1  2  1  0
  2  3  1  0
  3  4  2  0
  4  5  1  0
  5  6  2  0
  6  7  1  0
  7  8  1  0
  8  9  2  0
  8 10  1  0
 10 11  2  0
 11 12  1  0
 12 13  2  0
 13 14  1  0
 14 15  1  0
 15 16  1  0
 16 17  2  0
 16 18  1  0
 18 19  1  0
 19 20  2  0
 20 21  1  0
 21 22  2  0
 22 23  1  0
 23 24  1  0
 23 25  2  0
 23 26  2  0
 22 27  1  0
 27 28  2  0
 14 29  2  0
  6 30  1  0
 30 31  2  0
 31  3  1  0
 29 10  1  0
 28 19  1  0
  1 32  1  0
  1 33  1  0
  1 34  1  0
  4 35  1  0
  5 36  1  0
  7 37  1  0
 11 38  1  0
 12 39  1  0
 13 40  1  0
 18 41  1  0
 18 42  1  0
 20 43  1  0
 21 44  1  0
 24 45  1  0
 27 46  1  0
 28 47  1  0
 29 48  1  0
 30 49  1  0
 31 50  1  0
M  CHG  2  15  -1  24  -1
M  END
>  <UniqueID>  (87) 
76

>  <SMILES>  (87) 
COc1ccc(NC(=O)c2cccc([N-]C(=O)Cc3ccc(S([NH-])(=O)=O)cc3)c2)cc1

>  <Energy>  (87) 
63.13488942673761

>  <Genealogy>  (87) 
COc1ccc(NC(=O)c2cccc([N-]C(=O)Cc3ccc(S([NH-])(=O)=O)cc3)c2)cc1 (protonated)
COc1ccc(NC(=O)c2cccc([N-]C(=O)Cc3ccc(S([NH-])(=O)=O)cc3)c2)cc1 (3D coordinates assigned)
COc1ccc(NC(=O)c2cccc([N-]C(=O)Cc3ccc(S([NH-])(=O)=O)cc3)c2)cc1 (optimized conformer: 63.13488942673761 kcal/mol)

>  <smiles>  (87) 
COc1ccc(NC(=O)c2cccc(NC(=O)Cc3ccc(S(N)(=O)=O)cc3)c2)cc1

>  <score_type>  (87) 
oracle

>  <origin>  (87) 
adg

>  <m_score__min__energy>  (87) 
-12.5

>  <m_primary>  (87) 
energy

$$$$
87:0
     RDKit          3D

 29 30  0  0  0  0  0  0  0  0999 V2000
   59.6890   29.7170   44.6230 O   0  0  0  0  0  0  0  0  0  0  0  0
   58.5940   29.6630   45.2420 C   0  0  0  0  0  0  0  0  0  0  0  0
   57.9460   30.8910   45.5980 N   0  0  0  0  0  0  0  0  0  0  0  0
   58.4720   31.9150   46.4610 C   0  0  0  0  0  0  0  0  0  0  0  0
   59.0460   31.5850   47.7020 C   0  0  0  0  0  0  0  0  0  0  0  0
   59.5500   32.5820   48.5370 C   0  0  0  0  0  0  0  0  0  0  0  0
   59.4730   33.9190   48.1520 C   0  0  0  0  0  0  0  0  0  0  0  0
   58.8830   34.2670   46.9360 C   0  0  0  0  0  0  0  0  0  0  0  0
   58.3680   33.2730   46.0800 C   0  0  0  0  0  0  0  0  0  0  0  0
   57.7300   33.6480   44.7600 C   0  0  0  0  0  0  0  0  0  0  0  0
   56.6480   32.8210   44.5170 F   0  0  0  0  0  0  0  0  0  0  0  0
   58.6170   33.5280   43.7050 F   0  0  0  0  0  0  0  0  0  0  0  0
   57.2930   34.9610   44.8140 F   0  0  0  0  0  0  0  0  0  0  0  0
   58.0350   28.3410   45.6080 C   0  0  0  0  0  0  0  0  0  0  0  0
   58.9100   27.3060   45.9770 C   0  0  0  0  0  0  0  0  0  0  0  0
   58.4140   26.0430   46.3070 C   0  0  0  0  0  0  0  0  0  0  0  0
   57.0410   25.8010   46.2810 C   0  0  0  0  0  0  0  0  0  0  0  0
   56.1540   26.8250   45.9380 C   0  0  0  0  0  0  0  0  0  0  0  0
   54.7880   26.5690   45.9310 O   0  0  0  0  0  0  0  0  0  0  0  0
   56.6430   28.1030   45.6110 C   0  0  0  0  0  0  0  0  0  0  0  0
   55.7570   29.1390   45.3100 O   0  0  0  0  0  0  0  0  0  0  0  0
   59.0978   30.5322   48.0165 H   0  0  0  0  0  0  0  0  0  0  0  0
   60.0085   32.3128   49.5000 H   0  0  0  0  0  0  0  0  0  0  0  0
   59.8786   34.7028   48.8087 H   0  0  0  0  0  0  0  0  0  0  0  0
   58.8195   35.3255   46.6435 H   0  0  0  0  0  0  0  0  0  0  0  0
   59.9938   27.4917   46.0062 H   0  0  0  0  0  0  0  0  0  0  0  0
   59.1080   25.2372   46.5881 H   0  0  0  0  0  0  0  0  0  0  0  0
   56.6551   24.8017   46.5311 H   0  0  0  0  0  0  0  0  0  0  0  0
   55.9130   30.0920   45.6170 H   0  0  0  0  0  0  0  0  0  0  0  0
  1  2  2  0
  2  3  1  0
  3  4  1  0
  4  5  2  0
  5  6  1  0
  6  7  2  0
  7  8  1  0
  8  9  2  0
  9 10  1  0
 10 11  1  0
 10 12  1  0
 10 13  1  0
  2 14  1  0
 14 15  2  0
 15 16  1  0
 16 17  2  0
 17 18  1  0
 18 19  1  0
 18 20  2  0
 20 21  1  0
  9  4  1  0
 20 14  1  0
  5 22  1  0
  6 23  1  0
  7 24  1  0
  8 25  1  0
 15 26  1  0
 16 27  1  0
 17 28  1  0
 21 29  1  0
M  CHG  2   3  -1  19  -1
M  END
>  <UniqueID>  (88) 
77

>  <SMILES>  (88) 
O=C([N-]c1ccccc1C(F)(F)F)c1cccc([O-])c1O

>  <Energy>  (88) 
40.04197629627047

>  <Genealogy>  (88) 
O=C([N-]c1ccccc1C(F)(F)F)c1cccc([O-])c1O (protonated)
O=C([N-]c1ccccc1C(F)(F)F)c1cccc([O-])c1O (3D coordinates assigned)
O=C([N-]c1ccccc1C(F)(F)F)c1cccc([O-])c1O (optimized conformer: 40.04197629627047 kcal/mol)

>  <smiles>  (88) 
O=C(Nc1ccccc1C(F)(F)F)c1cccc(O)c1O

>  <score_type>  (88) 
oracle

>  <origin>  (88) 
adg

>  <m_score__min__energy>  (88) 
-12.380000000000001

>  <m_primary>  (88) 
energy

$$$$
88:0
     RDKit          3D

 51 54  0  0  0  0  0  0  0  0999 V2000
   54.8160   26.1050   45.9900 O   0  0  0  0  0  0  0  0  0  0  0  0
   55.9880   26.5240   45.8040 C   0  0  0  0  0  0  0  0  0  0  0  0
   57.1180   25.5290   45.7780 C   0  0  0  0  0  0  0  0  0  0  0  0
   58.3460   26.0550   46.4760 C   0  0  0  0  0  0  0  0  0  0  0  0
   58.2250   26.9210   47.5770 C   0  0  0  0  0  0  0  0  0  0  0  0
   59.3670   27.4260   48.2070 C   0  0  0  0  0  0  0  0  0  0  0  0
   60.6370   27.0820   47.7360 C   0  0  0  0  0  0  0  0  0  0  0  0
   60.7660   26.2390   46.6300 C   0  0  0  0  0  0  0  0  0  0  0  0
   59.6270   25.7320   45.9960 C   0  0  0  0  0  0  0  0  0  0  0  0
   56.1900   27.9310   45.6150 N   0  0  0  0  0  0  0  0  0  0  0  0
   57.3370   28.6570   44.5370 S   0  0  0  0  0  0  0  0  0  0  0  0
   57.9580   27.6200   43.6440 O   0  0  0  0  0  0  0  0  0  0  0  0
   56.6550   29.6990   43.6940 O   0  0  0  0  0  0  0  0  0  0  0  0
   58.6070   29.4070   45.4980 C   0  0  0  0  0  0  0  0  0  0  0  0
   59.9520   29.1270   45.2440 C   0  0  0  0  0  0  0  0  0  0  0  0
   60.9520   29.7390   45.9990 C   0  0  0  0  0  0  0  0  0  0  0  0
   60.6260   30.6450   47.0220 C   0  0  0  0  0  0  0  0  0  0  0  0
   61.7350   31.3310   47.7270 C   0  0  0  0  0  0  0  0  0  0  0  0
   62.4560   32.3560   47.0910 C   0  0  0  0  0  0  0  0  0  0  0  0
   63.5120   32.9900   47.7540 C   0  0  0  0  0  0  0  0  0  0  0  0
   63.8620   32.5990   49.0490 C   0  0  0  0  0  0  0  0  0  0  0  0
   63.1580   31.5710   49.6840 C   0  0  0  0  0  0  0  0  0  0  0  0
   62.1000   30.9360   49.0260 C   0  0  0  0  0  0  0  0  0  0  0  0
   59.2600   30.9170   47.3040 C   0  0  0  0  0  0  0  0  0  0  0  0
   58.8370   31.7930   48.4240 C   0  0  0  0  0  0  0  0  0  0  0  0
   58.7460   31.3210   49.5900 O   0  0  0  0  0  0  0  0  0  0  0  0
   58.4950   33.1630   48.1550 N   0  0  0  0  0  0  0  0  0  0  0  0
   58.4810   33.7670   47.0000 C   0  0  0  0  0  0  0  0  0  0  0  0
   57.3460   33.9290   46.2880 N   0  0  0  0  0  0  0  0  0  0  0  0
   57.5590   34.5770   45.1110 C   0  0  0  0  0  0  0  0  0  0  0  0
   58.8810   34.9400   44.8750 C   0  0  0  0  0  0  0  0  0  0  0  0
   59.8040   34.4270   46.1870 S   0  0  0  0  0  0  0  0  0  0  0  0
   58.2660   30.3020   46.5200 C   0  0  0  0  0  0  0  0  0  0  0  0
   56.7912   24.6065   46.2801 H   0  0  0  0  0  0  0  0  0  0  0  0
   57.3792   25.3371   44.7268 H   0  0  0  0  0  0  0  0  0  0  0  0
   57.2273   27.2027   47.9447 H   0  0  0  0  0  0  0  0  0  0  0  0
   59.2654   28.0948   49.0744 H   0  0  0  0  0  0  0  0  0  0  0  0
   61.5345   27.4750   48.2361 H   0  0  0  0  0  0  0  0  0  0  0  0
   61.7659   25.9731   46.2566 H   0  0  0  0  0  0  0  0  0  0  0  0
   59.7342   25.0778   45.1182 H   0  0  0  0  0  0  0  0  0  0  0  0
   60.2232   28.4210   44.4453 H   0  0  0  0  0  0  0  0  0  0  0  0
   62.0076   29.5099   45.7913 H   0  0  0  0  0  0  0  0  0  0  0  0
   62.1890   32.6608   46.0683 H   0  0  0  0  0  0  0  0  0  0  0  0
   64.0677   33.7976   47.2551 H   0  0  0  0  0  0  0  0  0  0  0  0
   64.6917   33.1000   49.5692 H   0  0  0  0  0  0  0  0  0  0  0  0
   63.4368   31.2616   50.7021 H   0  0  0  0  0  0  0  0  0  0  0  0
   61.5514   30.1245   49.5265 H   0  0  0  0  0  0  0  0  0  0  0  0
   56.4070   33.5940   46.5990 H   0  0  0  0  0  0  0  0  0  0  0  0
   56.7484   34.7970   44.4007 H   0  0  0  0  0  0  0  0  0  0  0  0
   59.2575   35.4692   43.9872 H   0  0  0  0  0  0  0  0  0  0  0  0
   57.2067   30.5274   46.7126 H   0  0  0  0  0  0  0  0  0  0  0  0
  1  2  2  0
  2  3  1  0
  3  4  1  0
  4  5  2  0
  5  6  1  0
  6  7  2  0
  7  8  1  0
  8  9  2  0
  2 10  1  0
 10 11  1  0
 11 12  2  0
 11 13  2  0
 11 14  1  0
 14 15  2  0
 15 16  1  0
 16 17  2  0
 17 18  1  0
 18 19  2  0
 19 20  1  0
 20 21  2  0
 21 22  1  0
 22 23  2  0
 17 24  1  0
 24 25  1  0
 25 26  2  0
 25 27  1  0
 27 28  2  3
 28 29  1  0
 29 30  1  0
 30 31  2  0
 31 32  1  0
 24 33  2  0
  9  4  1  0
 33 14  1  0
 23 18  1  0
 32 28  1  0
  3 34  1  0
  3 35  1  0
  5 36  1  0
  6 37  1  0
  7 38  1  0
  8 39  1  0
  9 40  1  0
 15 41  1  0
 16 42  1  0
 19 43  1  0
 20 44  1  0
 21 45  1  0
 22 46  1  0
 23 47  1  0
 29 48  1  0
 30 49  1  0
 31 50  1  0
 33 51  1  0
M  CHG  1  10  -1
M  END
>  <UniqueID>  (89) 
78

>  <SMILES>  (89) 
O=C(Cc1ccccc1)[N-]S(=O)(=O)c1ccc(-c2ccccc2)c(C(=O)N=c2[nH]ccs2)c1

>  <Energy>  (89) 
102.0693858163687

>  <Genealogy>  (89) 
O=C(Cc1ccccc1)[N-]S(=O)(=O)c1ccc(-c2ccccc2)c(C(=O)N=c2[nH]ccs2)c1 (protonated)
O=C(Cc1ccccc1)[N-]S(=O)(=O)c1ccc(-c2ccccc2)c(C(=O)N=c2[nH]ccs2)c1 (3D coordinates assigned)
O=C(Cc1ccccc1)[N-]S(=O)(=O)c1ccc(-c2ccccc2)c(C(=O)N=c2[nH]ccs2)c1 (optimized conformer: 102.0693858163687 kcal/mol)

>  <smiles>  (89) 
O=C(Cc1ccccc1)NS(=O)(=O)c1ccc(-c2ccccc2)c(C(=O)N=c2[nH]ccs2)c1

>  <score_type>  (89) 
oracle

>  <origin>  (89) 
adg

>  <m_score__min__energy>  (89) 
-11.640000000000001

>  <m_primary>  (89) 
energy

$$$$
89:0
     RDKit          3D

 53 58  0  0  0  0  0  0  0  0999 V2000
   52.9799   32.1686   53.1257 H   0  0  0  0  0  0  0  0  0  0  0  0
   52.9850   31.2550   52.5130 C   0  0  0  0  0  0  0  0  0  0  0  0
   52.1570   31.2530   51.2930 C   0  0  0  0  0  0  0  0  0  0  0  0
   52.2150   30.3300   50.3170 N   0  0  0  0  0  0  0  0  0  0  0  0
   51.3700   30.8100   49.3800 C   0  0  0  0  0  0  0  0  0  0  0  0
   51.1410   30.2050   48.3000 O   0  0  0  0  0  0  0  0  0  0  0  0
   50.7940   31.9910   49.6880 N   0  0  0  0  0  0  0  0  0  0  0  0
   51.3140   32.2620   50.8960 C   0  0  0  0  0  0  0  0  0  0  0  0
   51.0240   33.4120   51.6210 O   0  0  0  0  0  0  0  0  0  0  0  0
   53.7450   30.2320   52.9370 C   0  0  0  0  0  0  0  0  0  0  0  0
   53.2920   29.1410   53.6680 C   0  0  0  0  0  0  0  0  0  0  0  0
   52.2540   28.9893   53.9990 H   0  0  0  0  0  0  0  0  0  0  0  0
   54.3160   28.2940   53.9120 N   0  0  0  0  0  0  0  0  0  0  0  0
   55.4050   28.7990   53.3580 N   0  0  0  0  0  0  0  0  0  0  0  0
   56.6770   28.2910   53.2910 C   0  0  0  0  0  0  0  0  0  0  0  0
   57.1000   27.1910   53.8670 N   0  0  0  0  0  0  0  0  0  0  0  0
   58.3260   26.5130   54.3340 C   0  0  0  0  0  0  0  0  0  0  0  0
   57.7615   25.6862   54.7898 H   0  0  0  0  0  0  0  0  0  0  0  0
   59.4800   27.3840   54.7790 C   0  0  0  0  0  0  0  0  0  0  0  0
   59.3818   28.4795   54.7651 H   0  0  0  0  0  0  0  0  0  0  0  0
   60.1034   27.4539   55.6826 H   0  0  0  0  0  0  0  0  0  0  0  0
   59.5540   26.5990   53.4580 C   0  0  0  0  0  0  0  0  0  0  0  0
   59.5094   27.1318   52.4967 H   0  0  0  0  0  0  0  0  0  0  0  0
   60.2533   25.8716   53.0200 H   0  0  0  0  0  0  0  0  0  0  0  0
   57.5890   28.9960   52.5660 N   0  0  0  0  0  0  0  0  0  0  0  0
   57.2620   30.1570   51.9220 C   0  0  0  0  0  0  0  0  0  0  0  0
   58.2590   30.8650   51.1570 N   0  0  0  0  0  0  0  0  0  0  0  0
   58.3550   32.3300   51.2820 C   0  0  0  0  0  0  0  0  0  0  0  0
   57.3951   32.7773   50.9843 H   0  0  0  0  0  0  0  0  0  0  0  0
   58.5931   32.5710   52.3285 H   0  0  0  0  0  0  0  0  0  0  0  0
   59.4650   32.9000   50.3950 C   0  0  0  0  0  0  0  0  0  0  0  0
   59.3374   33.9888   50.3038 H   0  0  0  0  0  0  0  0  0  0  0  0
   60.4428   32.6795   50.8480 H   0  0  0  0  0  0  0  0  0  0  0  0
   59.3970   32.2870   49.0620 N   0  0  0  0  0  0  0  0  0  0  0  0
   59.3110   33.1040   47.8800 C   0  0  0  0  0  0  0  0  0  0  0  0
   58.1360   33.1210   47.1080 C   0  0  0  0  0  0  0  0  0  0  0  0
   57.2719   32.5132   47.4145 H   0  0  0  0  0  0  0  0  0  0  0  0
   58.0590   33.9050   45.9540 C   0  0  0  0  0  0  0  0  0  0  0  0
   57.1351   33.9145   45.3571 H   0  0  0  0  0  0  0  0  0  0  0  0
   59.1540   34.6770   45.5570 C   0  0  0  0  0  0  0  0  0  0  0  0
   59.0910   35.2956   44.6496 H   0  0  0  0  0  0  0  0  0  0  0  0
   60.3290   34.6630   46.3130 C   0  0  0  0  0  0  0  0  0  0  0  0
   61.1911   35.2698   45.9990 H   0  0  0  0  0  0  0  0  0  0  0  0
   60.4110   33.8790   47.4680 C   0  0  0  0  0  0  0  0  0  0  0  0
   61.3398   33.8680   48.0573 H   0  0  0  0  0  0  0  0  0  0  0  0
   59.3370   30.8220   48.9390 C   0  0  0  0  0  0  0  0  0  0  0  0
   58.4592   30.5500   48.3345 H   0  0  0  0  0  0  0  0  0  0  0  0
   60.2654   30.4783   48.4595 H   0  0  0  0  0  0  0  0  0  0  0  0
   59.2260   30.1450   50.3110 C   0  0  0  0  0  0  0  0  0  0  0  0
   58.8892   29.1064   50.1774 H   0  0  0  0  0  0  0  0  0  0  0  0
   60.2114   30.1605   50.7995 H   0  0  0  0  0  0  0  0  0  0  0  0
   55.9930   30.6380   52.0150 N   0  0  0  0  0  0  0  0  0  0  0  0
   55.0890   29.9560   52.7550 C   0  0  0  0  0  0  0  0  0  0  0  0
  1  2  1  0
  2  3  1  0
  3  4  1  0
  4  5  1  0
  5  6  2  0
  5  7  1  0
  7  8  1  0
  8  9  1  0
  2 10  2  0
 10 11  1  0
 11 12  1  0
 11 13  2  0
 13 14  1  0
 14 15  1  0
 15 16  2  3
 16 17  1  0
 17 18  1  0
 17 19  1  0
 19 20  1  0
 19 21  1  0
 19 22  1  0
 22 23  1  0
 22 24  1  0
 15 25  1  0
 25 26  2  0
 26 27  1  0
 27 28  1  0
 28 29  1  0
 28 30  1  0
 28 31  1  0
 31 32  1  0
 31 33  1  0
 31 34  1  0
 34 35  1  0
 35 36  2  0
 36 37  1  0
 36 38  1  0
 38 39  1  0
 38 40  2  0
 40 41  1  0
 40 42  1  0
 42 43  1  0
 42 44  2  0
 44 45  1  0
 34 46  1  0
 46 47  1  0
 46 48  1  0
 46 49  1  0
 49 50  1  0
 49 51  1  0
 26 52  1  0
 52 53  2  0
  8  3  2  0
 53 10  1  0
 53 14  1  0
 22 17  1  0
 49 27  1  0
 44 35  1  0
M  CHG  3   4  -1   7  -1   9  -1
M  END
>  <UniqueID>  (90) 
79

>  <SMILES>  (90) 
O=c1[n-]c([O-])c(/C=c2/cnn3c(=NC4CC4)nc(N4CCN(c5ccccc5)CC4)nc23)[n-]1

>  <Energy>  (90) 
427.28409532796263

>  <Genealogy>  (90) 
O=c1[n-]c([O-])c(C=c2cnn3c(=NC4CC4)nc(N4CCN(c5ccccc5)CC4)nc23)[n-]1 (protonated)
O=c1[n-]c([O-])c(/C=c2/cnn3c(=NC4CC4)nc(N4CCN(c5ccccc5)CC4)nc23)[n-]1 (cis-trans isomerization)
O=c1[n-]c([O-])c(/C=c2/cnn3c(=NC4CC4)nc(N4CCN(c5ccccc5)CC4)nc23)[n-]1 (3D coordinates assigned)
O=c1[n-]c([O-])c(/C=c2/cnn3c(=NC4CC4)nc(N4CCN(c5ccccc5)CC4)nc23)[n-]1 (nonaromatic ring conformer: 427.28409532796263 kcal/mol)

>  <smiles>  (90) 
O=c1[nH]c(O)c(C=c2cnn3c(=NC4CC4)nc(N4CCN(c5ccccc5)CC4)nc23)[nH]1

>  <score_type>  (90) 
oracle

>  <origin>  (90) 
adg

>  <m_score__min__energy>  (90) 
-18.399999999999999

>  <m_primary>  (90) 
energy

$$$$
90:0
     RDKit          3D

 41 43  0  0  0  0  0  0  0  0999 V2000
   60.6540   34.0380   49.1400 C   0  0  0  0  0  0  0  0  0  0  0  0
   59.4220   34.4580   48.5620 O   0  0  0  0  0  0  0  0  0  0  0  0
   59.0370   34.1940   47.2390 C   0  0  0  0  0  0  0  0  0  0  0  0
   59.5810   34.9780   46.2190 C   0  0  0  0  0  0  0  0  0  0  0  0
   59.2160   34.7410   44.8940 C   0  0  0  0  0  0  0  0  0  0  0  0
   58.3440   33.7420   44.5960 N   0  0  0  0  0  0  0  0  0  0  0  0
   57.8010   32.9420   45.5540 C   0  0  0  0  0  0  0  0  0  0  0  0
   56.9720   32.0060   45.1810 N   0  0  0  0  0  0  0  0  0  0  0  0
   57.1620   31.0420   44.1330 C   0  0  0  0  0  0  0  0  0  0  0  0
   57.0390   31.4210   42.9370 O   0  0  0  0  0  0  0  0  0  0  0  0
   57.5690   29.6440   44.4180 C   0  0  0  0  0  0  0  0  0  0  0  0
   58.0510   29.2790   45.6870 C   0  0  0  0  0  0  0  0  0  0  0  0
   58.4180   27.9570   45.9520 C   0  0  0  0  0  0  0  0  0  0  0  0
   58.3180   26.9790   44.9570 C   0  0  0  0  0  0  0  0  0  0  0  0
   58.7020   25.6350   45.2760 N   0  0  0  0  0  0  0  0  0  0  0  0
   57.8710   24.5930   46.3860 S   0  0  0  0  0  0  0  0  0  0  0  0
   58.4840   23.2220   46.3360 O   0  0  0  0  0  0  0  0  0  0  0  0
   57.9800   25.1600   47.7740 O   0  0  0  0  0  0  0  0  0  0  0  0
   56.1650   24.4730   45.9470 C   0  0  0  0  0  0  0  0  0  0  0  0
   55.6180   23.2450   45.5490 C   0  0  0  0  0  0  0  0  0  0  0  0
   54.2680   23.1600   45.2030 C   0  0  0  0  0  0  0  0  0  0  0  0
   53.4740   24.3060   45.2610 C   0  0  0  0  0  0  0  0  0  0  0  0
   54.0160   25.4900   45.6510 N   0  0  0  0  0  0  0  0  0  0  0  0
   55.3280   25.6020   45.9930 C   0  0  0  0  0  0  0  0  0  0  0  0
   55.7800   26.7230   46.3470 O   0  0  0  0  0  0  0  0  0  0  0  0
   57.8490   27.3400   43.6830 C   0  0  0  0  0  0  0  0  0  0  0  0
   57.4810   28.6630   43.4160 C   0  0  0  0  0  0  0  0  0  0  0  0
   58.1290   33.1730   46.9070 C   0  0  0  0  0  0  0  0  0  0  0  0
   60.5728   34.0657   50.2366 H   0  0  0  0  0  0  0  0  0  0  0  0
   60.8806   33.0119   48.8149 H   0  0  0  0  0  0  0  0  0  0  0  0
   61.4602   34.7121   48.8149 H   0  0  0  0  0  0  0  0  0  0  0  0
   60.2948   35.7795   46.4600 H   0  0  0  0  0  0  0  0  0  0  0  0
   59.6343   35.3633   44.0892 H   0  0  0  0  0  0  0  0  0  0  0  0
   58.1399   30.0393   46.4769 H   0  0  0  0  0  0  0  0  0  0  0  0
   58.7884   27.6833   46.9509 H   0  0  0  0  0  0  0  0  0  0  0  0
   56.2530   22.3477   45.5093 H   0  0  0  0  0  0  0  0  0  0  0  0
   53.8347   22.1993   44.8879 H   0  0  0  0  0  0  0  0  0  0  0  0
   52.4091   24.2512   44.9910 H   0  0  0  0  0  0  0  0  0  0  0  0
   57.7708   26.5794   42.8922 H   0  0  0  0  0  0  0  0  0  0  0  0
   57.1199   28.9374   42.4138 H   0  0  0  0  0  0  0  0  0  0  0  0
   57.6765   32.5572   47.6982 H   0  0  0  0  0  0  0  0  0  0  0  0
  1  2  1  0
  2  3  1  0
  3  4  1  0
  4  5  2  0
  5  6  1  0
  6  7  1  0
  7  8  2  3
  8  9  1  0
  9 10  2  0
  9 11  1  0
 11 12  2  0
 12 13  1  0
 13 14  2  0
 14 15  1  0
 15 16  1  0
 16 17  2  0
 16 18  2  0
 16 19  1  0
 19 20  2  0
 20 21  1  0
 21 22  2  0
 22 23  1  0
 23 24  1  0
 24 25  2  0
 14 26  1  0
 26 27  2  0
  7 28  1  0
 28  3  2  0
 27 11  1  0
 24 19  1  0
  1 29  1  0
  1 30  1  0
  1 31  1  0
  4 32  1  0
  5 33  1  0
 12 34  1  0
 13 35  1  0
 20 36  1  0
 21 37  1  0
 22 38  1  0
 26 39  1  0
 27 40  1  0
 28 41  1  0
M  CHG  3   6  -1  15  -1  23  -1
M  END
>  <UniqueID>  (91) 
80

>  <SMILES>  (91) 
COc1cc[n-]c(=NC(=O)c2ccc([N-]S(=O)(=O)c3ccc[n-]c3=O)cc2)c1

>  <Energy>  (91) 
60.12086234938775

>  <Genealogy>  (91) 
COc1cc[n-]c(=NC(=O)c2ccc([N-]S(=O)(=O)c3ccc[n-]c3=O)cc2)c1 (protonated)
COc1cc[n-]c(=NC(=O)c2ccc([N-]S(=O)(=O)c3ccc[n-]c3=O)cc2)c1 (3D coordinates assigned)
COc1cc[n-]c(=NC(=O)c2ccc([N-]S(=O)(=O)c3ccc[n-]c3=O)cc2)c1 (optimized conformer: 60.12086234938775 kcal/mol)

>  <smiles>  (91) 
COc1cc[nH]c(=NC(=O)c2ccc(NS(=O)(=O)c3ccc[nH]c3=O)cc2)c1

>  <score_type>  (91) 
oracle

>  <origin>  (91) 
adg

>  <m_score__min__energy>  (91) 
-12.33

>  <m_primary>  (91) 
energy

$$$$
91:0
     RDKit          3D

 43 45  0  0  0  0  0  0  0  0999 V2000
   59.4210   27.4570   45.2930 C   0  0  0  0  0  0  0  0  0  0  0  0
   59.1510   27.7160   46.6530 O   0  0  0  0  0  0  0  0  0  0  0  0
   57.7880   28.0490   46.8260 C   0  0  0  0  0  0  0  0  0  0  0  0
   57.4410   29.2930   46.0450 C   0  0  0  0  0  0  0  0  0  0  0  0
   58.2270   30.4460   46.2080 C   0  0  0  0  0  0  0  0  0  0  0  0
   57.9240   31.6300   45.5100 C   0  0  0  0  0  0  0  0  0  0  0  0
   58.7590   32.8450   45.6870 C   0  0  0  0  0  0  0  0  0  0  0  0
   58.4320   34.0380   45.0260 C   0  0  0  0  0  0  0  0  0  0  0  0
   59.2280   35.1690   45.2060 C   0  0  0  0  0  0  0  0  0  0  0  0
   60.3190   35.1210   46.0160 N   0  0  0  0  0  0  0  0  0  0  0  0
   60.6740   33.9770   46.6720 C   0  0  0  0  0  0  0  0  0  0  0  0
   61.8300   33.9640   47.5300 N   0  0  0  0  0  0  0  0  0  0  0  0
   63.1670   33.7190   46.9710 C   0  0  0  0  0  0  0  0  0  0  0  0
   64.1570   33.3480   48.0810 C   0  0  0  0  0  0  0  0  0  0  0  0
   63.4930   32.4660   49.0470 N   0  0  0  0  0  0  0  0  0  0  0  0
   62.4350   33.1680   49.7990 C   0  0  0  0  0  0  0  0  0  0  0  0
   61.7020   34.2410   48.9670 C   0  0  0  0  0  0  0  0  0  0  0  0
   59.8900   32.8220   46.5200 C   0  0  0  0  0  0  0  0  0  0  0  0
   56.8170   31.6450   44.6450 C   0  0  0  0  0  0  0  0  0  0  0  0
   56.0270   30.5040   44.4850 C   0  0  0  0  0  0  0  0  0  0  0  0
   56.3310   29.3310   45.1820 C   0  0  0  0  0  0  0  0  0  0  0  0
   55.5210   28.2130   45.0110 O   0  0  0  0  0  0  0  0  0  0  0  0
   60.2128   26.6975   45.2146 H   0  0  0  0  0  0  0  0  0  0  0  0
   58.5086   27.0876   44.8019 H   0  0  0  0  0  0  0  0  0  0  0  0
   59.7521   28.3839   44.8019 H   0  0  0  0  0  0  0  0  0  0  0  0
   57.1645   27.2146   46.4724 H   0  0  0  0  0  0  0  0  0  0  0  0
   57.6021   28.2376   47.8937 H   0  0  0  0  0  0  0  0  0  0  0  0
   59.0900   30.4231   46.8897 H   0  0  0  0  0  0  0  0  0  0  0  0
   57.5513   34.0815   44.3683 H   0  0  0  0  0  0  0  0  0  0  0  0
   58.9716   36.1057   44.6894 H   0  0  0  0  0  0  0  0  0  0  0  0
   60.8750   35.9940   46.1510 H   0  0  0  0  0  0  0  0  0  0  0  0
   63.1101   32.8931   46.2467 H   0  0  0  0  0  0  0  0  0  0  0  0
   63.5175   34.6365   46.4757 H   0  0  0  0  0  0  0  0  0  0  0  0
   65.0223   32.8286   47.6433 H   0  0  0  0  0  0  0  0  0  0  0  0
   64.4995   34.2610   48.5900 H   0  0  0  0  0  0  0  0  0  0  0  0
   64.2110   32.1280   49.7280 H   0  0  0  0  0  0  0  0  0  0  0  0
   61.6975   32.4259   50.1386 H   0  0  0  0  0  0  0  0  0  0  0  0
   62.9217   33.6846   50.6394 H   0  0  0  0  0  0  0  0  0  0  0  0
   60.6365   34.2437   49.2403 H   0  0  0  0  0  0  0  0  0  0  0  0
   62.1540   35.2212   49.1789 H   0  0  0  0  0  0  0  0  0  0  0  0
   60.1615   31.8990   47.0533 H   0  0  0  0  0  0  0  0  0  0  0  0
   56.5705   32.5620   44.0896 H   0  0  0  0  0  0  0  0  0  0  0  0
   55.1612   30.5287   43.8070 H   0  0  0  0  0  0  0  0  0  0  0  0
  1  2  1  0
  2  3  1  0
  3  4  1  0
  4  5  2  0
  5  6  1  0
  6  7  1  0
  7  8  2  0
  8  9  1  0
  9 10  2  0
 10 11  1  0
 11 12  1  0
 12 13  1  0
 13 14  1  0
 14 15  1  0
 15 16  1  0
 16 17  1  0
 11 18  2  0
  6 19  2  0
 19 20  1  0
 20 21  2  0
 21 22  1  0
 21  4  1  0
 18  7  1  0
 17 12  1  0
  1 23  1  0
  1 24  1  0
  1 25  1  0
  3 26  1  0
  3 27  1  0
  5 28  1  0
  8 29  1  0
  9 30  1  0
 10 31  1  0
 13 32  1  0
 13 33  1  0
 14 34  1  0
 14 35  1  0
 15 36  1  0
 16 37  1  0
 16 38  1  0
 17 39  1  0
 17 40  1  0
 18 41  1  0
 19 42  1  0
 20 43  1  0
M  CHG  2  10   1  22  -1
M  END
>  <UniqueID>  (92) 
81

>  <SMILES>  (92) 
COCc1cc(-c2cc[nH+]c(N3CCNCC3)c2)ccc1[O-]

>  <Energy>  (92) 
59.20267243773218

>  <Genealogy>  (92) 
COCc1cc(-c2cc[nH+]c(N3CCNCC3)c2)ccc1[O-] (protonated)
COCc1cc(-c2cc[nH+]c(N3CCNCC3)c2)ccc1[O-] (3D coordinates assigned)
COCc1cc(-c2cc[nH+]c(N3CCNCC3)c2)ccc1[O-] (nonaromatic ring conformer: 59.20267243773218 kcal/mol)

>  <smiles>  (92) 
COCc1cc(-c2ccnc(N3CCNCC3)c2)ccc1O

>  <score_type>  (92) 
oracle

>  <origin>  (92) 
adg

>  <m_score__min__energy>  (92) 
-7.8600000000000003

>  <m_primary>  (92) 
energy

$$$$
92:0
     RDKit          3D

 50 53  0  0  0  0  0  0  0  0999 V2000
   57.8280   30.8340   44.8180 C   0  0  0  0  0  0  0  0  0  0  0  0
   58.4710   30.7770   45.9870 C   0  0  0  0  0  0  0  0  0  0  0  0
   58.1900   31.6110   47.0110 N   0  0  0  0  0  0  0  0  0  0  0  0
   58.9920   31.3090   48.0210 N   0  0  0  0  0  0  0  0  0  0  0  0
   58.9490   31.9860   49.2920 C   0  0  0  0  0  0  0  0  0  0  0  0
   59.6510   33.1850   49.5030 C   0  0  0  0  0  0  0  0  0  0  0  0
   59.5910   33.8350   50.7390 C   0  0  0  0  0  0  0  0  0  0  0  0
   58.8190   33.3050   51.7880 C   0  0  0  0  0  0  0  0  0  0  0  0
   58.7530   33.9900   53.0980 C   0  0  0  0  0  0  0  0  0  0  0  0
   58.5310   35.2280   53.1630 O   0  0  0  0  0  0  0  0  0  0  0  0
   58.9360   33.2740   54.2750 O   0  0  0  0  0  0  0  0  0  0  0  0
   58.1060   32.1150   51.5710 C   0  0  0  0  0  0  0  0  0  0  0  0
   58.1650   31.4660   50.3350 C   0  0  0  0  0  0  0  0  0  0  0  0
   59.7790   30.2720   47.6610 C   0  0  0  0  0  0  0  0  0  0  0  0
   60.5780   29.6870   48.4420 O   0  0  0  0  0  0  0  0  0  0  0  0
   59.4960   29.9020   46.3530 C   0  0  0  0  0  0  0  0  0  0  0  0
   60.0310   28.9060   45.6190 C   0  0  0  0  0  0  0  0  0  0  0  0
   59.4220   27.5720   45.4650 C   0  0  0  0  0  0  0  0  0  0  0  0
   58.3260   27.4080   44.6070 C   0  0  0  0  0  0  0  0  0  0  0  0
   57.7500   26.1460   44.4300 C   0  0  0  0  0  0  0  0  0  0  0  0
   58.2750   25.0310   45.1010 C   0  0  0  0  0  0  0  0  0  0  0  0
   57.6600   23.7000   44.9310 C   0  0  0  0  0  0  0  0  0  0  0  0
   58.3280   22.7510   44.1380 C   0  0  0  0  0  0  0  0  0  0  0  0
   57.7750   21.4870   43.9310 C   0  0  0  0  0  0  0  0  0  0  0  0
   56.5520   21.1560   44.5120 C   0  0  0  0  0  0  0  0  0  0  0  0
   55.8830   22.0830   45.3140 C   0  0  0  0  0  0  0  0  0  0  0  0
   56.4280   23.3560   45.5410 C   0  0  0  0  0  0  0  0  0  0  0  0
   55.5660   24.4750   46.6120 S   0  0  0  0  0  0  0  0  0  0  0  0
   54.6750   25.6290   45.6810 N   0  0  0  0  0  0  0  0  0  0  0  0
   56.5480   25.2180   47.4750 O   0  0  0  0  0  0  0  0  0  0  0  0
   54.6260   23.7040   47.4950 O   0  0  0  0  0  0  0  0  0  0  0  0
   59.4050   25.1840   45.9170 C   0  0  0  0  0  0  0  0  0  0  0  0
   59.9780   26.4460   46.0950 C   0  0  0  0  0  0  0  0  0  0  0  0
   58.0905   30.1339   44.0112 H   0  0  0  0  0  0  0  0  0  0  0  0
   57.0358   31.5811   44.6619 H   0  0  0  0  0  0  0  0  0  0  0  0
   60.2526   33.6155   48.6889 H   0  0  0  0  0  0  0  0  0  0  0  0
   60.1522   34.7686   50.8923 H   0  0  0  0  0  0  0  0  0  0  0  0
   57.4955   31.6899   52.3813 H   0  0  0  0  0  0  0  0  0  0  0  0
   57.5926   30.5400   50.1774 H   0  0  0  0  0  0  0  0  0  0  0  0
   60.9823   29.1008   45.1021 H   0  0  0  0  0  0  0  0  0  0  0  0
   57.9167   28.2764   44.0700 H   0  0  0  0  0  0  0  0  0  0  0  0
   56.8833   26.0271   43.7632 H   0  0  0  0  0  0  0  0  0  0  0  0
   59.2936   23.0067   43.6774 H   0  0  0  0  0  0  0  0  0  0  0  0
   58.3047   20.7508   43.3086 H   0  0  0  0  0  0  0  0  0  0  0  0
   56.1129   20.1625   44.3384 H   0  0  0  0  0  0  0  0  0  0  0  0
   54.9200   21.8128   45.7720 H   0  0  0  0  0  0  0  0  0  0  0  0
   55.3700   26.1840   45.1330 H   0  0  0  0  0  0  0  0  0  0  0  0
   54.2230   26.2860   46.3550 H   0  0  0  0  0  0  0  0  0  0  0  0
   59.8418   24.3078   46.4186 H   0  0  0  0  0  0  0  0  0  0  0  0
   60.8683   26.5583   46.7312 H   0  0  0  0  0  0  0  0  0  0  0  0
  1  2  2  0
  2  3  1  0
  3  4  1  0
  4  5  1  0
  5  6  2  0
  6  7  1  0
  7  8  2  0
  8  9  1  0
  9 10  2  0
  9 11  1  0
  8 12  1  0
 12 13  2  0
  4 14  1  0
 14 15  2  0
 14 16  1  0
 16 17  2  3
 17 18  1  0
 18 19  2  0
 19 20  1  0
 20 21  2  0
 21 22  1  0
 22 23  2  0
 23 24  1  0
 24 25  2  0
 25 26  1  0
 26 27  2  0
 27 28  1  0
 28 29  1  0
 28 30  2  0
 28 31  2  0
 21 32  1  0
 32 33  2  0
 16  2  1  0
 33 18  1  0
 13  5  1  0
 27 22  1  0
  1 34  1  0
  1 35  1  0
  6 36  1  0
  7 37  1  0
 12 38  1  0
 13 39  1  0
 17 40  1  0
 19 41  1  0
 20 42  1  0
 23 43  1  0
 24 44  1  0
 25 45  1  0
 26 46  1  0
 29 47  1  0
 29 48  1  0
 32 49  1  0
 33 50  1  0
M  CHG  2   3  -1  11  -1
M  END
>  <UniqueID>  (93) 
82

>  <SMILES>  (93) 
C=c1[n-]n(-c2ccc(C(=O)[O-])cc2)c(=O)c1=Cc1ccc(-c2ccccc2S(N)(=O)=O)cc1

>  <Energy>  (93) 
108.54227430500642

>  <Genealogy>  (93) 
C=c1[n-]n(-c2ccc(C(=O)[O-])cc2)c(=O)c1=Cc1ccc(-c2ccccc2S(N)(=O)=O)cc1 (protonated)
C=c1[n-]n(-c2ccc(C(=O)[O-])cc2)c(=O)c1=Cc1ccc(-c2ccccc2S(N)(=O)=O)cc1 (3D coordinates assigned)
C=c1[n-]n(-c2ccc(C(=O)[O-])cc2)c(=O)c1=Cc1ccc(-c2ccccc2S(N)(=O)=O)cc1 (optimized conformer: 108.54227430500642 kcal/mol)

>  <smiles>  (93) 
C=c1[nH]n(-c2ccc(C(=O)O)cc2)c(=O)c1=Cc1ccc(-c2ccccc2S(N)(=O)=O)cc1

>  <score_type>  (93) 
oracle

>  <origin>  (93) 
adg

>  <m_score__min__energy>  (93) 
-12.01

>  <m_primary>  (93) 
energy

$$$$
93:0
     RDKit          3D

 33 34  0  0  0  0  0  0  0  0999 V2000
   60.2490   29.6760   46.2470 C   0  0  0  0  0  0  0  0  0  0  0  0
   58.5040   29.7260   46.7620 S   0  0  0  0  0  0  0  0  0  0  0  0
   57.9170   30.2820   45.1540 C   0  0  0  0  0  0  0  0  0  0  0  0
   57.2150   29.3840   44.3390 C   0  0  0  0  0  0  0  0  0  0  0  0
   56.7660   29.7820   43.0770 C   0  0  0  0  0  0  0  0  0  0  0  0
   57.0120   31.0800   42.6230 C   0  0  0  0  0  0  0  0  0  0  0  0
   57.7110   31.9820   43.4290 C   0  0  0  0  0  0  0  0  0  0  0  0
   58.1720   31.5920   44.6970 C   0  0  0  0  0  0  0  0  0  0  0  0
   58.8820   32.5220   45.5270 N   0  0  0  0  0  0  0  0  0  0  0  0
   58.3840   33.8370   45.8170 C   0  0  0  0  0  0  0  0  0  0  0  0
   57.1960   34.1500   45.5370 O   0  0  0  0  0  0  0  0  0  0  0  0
   59.3100   34.8790   46.3660 C   0  0  0  0  0  0  0  0  0  0  0  0
   60.4550   34.2100   47.0770 C   0  0  0  0  0  0  0  0  0  0  0  0
   60.4110   34.0270   48.4690 C   0  0  0  0  0  0  0  0  0  0  0  0
   61.5040   33.4740   49.1430 C   0  0  0  0  0  0  0  0  0  0  0  0
   62.6510   33.1040   48.4340 C   0  0  0  0  0  0  0  0  0  0  0  0
   64.0260   32.4240   49.2820 Cl  0  0  0  0  0  0  0  0  0  0  0  0
   62.7040   33.2890   47.0490 C   0  0  0  0  0  0  0  0  0  0  0  0
   61.6130   33.8420   46.3720 C   0  0  0  0  0  0  0  0  0  0  0  0
   60.8939   29.6575   47.1380 H   0  0  0  0  0  0  0  0  0  0  0  0
   60.4282   28.7724   45.6459 H   0  0  0  0  0  0  0  0  0  0  0  0
   60.4796   30.5679   45.6459 H   0  0  0  0  0  0  0  0  0  0  0  0
   57.0166   28.3619   44.6940 H   0  0  0  0  0  0  0  0  0  0  0  0
   56.2180   29.0721   42.4401 H   0  0  0  0  0  0  0  0  0  0  0  0
   56.6552   31.3921   41.6304 H   0  0  0  0  0  0  0  0  0  0  0  0
   57.9014   33.0036   43.0684 H   0  0  0  0  0  0  0  0  0  0  0  0
   59.8810   32.3160   45.7560 H   0  0  0  0  0  0  0  0  0  0  0  0
   59.6998   35.4939   45.5414 H   0  0  0  0  0  0  0  0  0  0  0  0
   58.7628   35.5185   47.0742 H   0  0  0  0  0  0  0  0  0  0  0  0
   59.5123   34.3202   49.0315 H   0  0  0  0  0  0  0  0  0  0  0  0
   61.4616   33.3298   50.2327 H   0  0  0  0  0  0  0  0  0  0  0  0
   63.6063   32.9987   46.4908 H   0  0  0  0  0  0  0  0  0  0  0  0
   61.6615   33.9895   45.2830 H   0  0  0  0  0  0  0  0  0  0  0  0
  1  2  1  0
  2  3  1  0
  3  4  2  0
  4  5  1  0
  5  6  2  0
  6  7  1  0
  7  8  2  0
  8  9  1  0
  9 10  1  0
 10 11  2  0
 10 12  1  0
 12 13  1  0
 13 14  2  0
 14 15  1  0
 15 16  2  0
 16 17  1  0
 16 18  1  0
 18 19  2  0
  8  3  1  0
 19 13  1  0
  1 20  1  0
  1 21  1  0
  1 22  1  0
  4 23  1  0
  5 24  1  0
  6 25  1  0
  7 26  1  0
  9 27  1  0
 12 28  1  0
 12 29  1  0
 14 30  1  0
 15 31  1  0
 18 32  1  0
 19 33  1  0
M  END
>  <UniqueID>  (94) 
83

>  <SMILES>  (94) 
CSc1ccccc1NC(=O)Cc1ccc(Cl)cc1

>  <Energy>  (94) 
29.438580130157288

>  <Genealogy>  (94) 
CSc1ccccc1NC(=O)Cc1ccc(Cl)cc1 (3D coordinates assigned)
CSc1ccccc1NC(=O)Cc1ccc(Cl)cc1 (optimized conformer: 29.438580130157288 kcal/mol)

>  <smiles>  (94) 
CSc1ccccc1NC(=O)Cc1ccc(Cl)cc1

>  <score_type>  (94) 
oracle

>  <origin>  (94) 
adg

>  <m_score__min__energy>  (94) 
-7.3099999999999996

>  <m_primary>  (94) 
energy

$$$$
94:0
     RDKit          3D

 58 61  0  0  0  0  0  0  0  0999 V2000
   56.2440   25.2360   45.6990 C   0  0  0  0  0  0  0  0  0  0  0  0
   56.3860   26.5120   46.3120 O   0  0  0  0  0  0  0  0  0  0  0  0
   57.6050   27.1930   46.4720 C   0  0  0  0  0  0  0  0  0  0  0  0
   58.4300   26.9840   47.5930 C   0  0  0  0  0  0  0  0  0  0  0  0
   59.6070   27.7310   47.7800 C   0  0  0  0  0  0  0  0  0  0  0  0
   60.4520   27.4580   48.9710 C   0  0  0  0  0  0  0  0  0  0  0  0
   60.3880   26.3470   49.5650 O   0  0  0  0  0  0  0  0  0  0  0  0
   61.3160   28.4520   49.4500 O   0  0  0  0  0  0  0  0  0  0  0  0
   61.1980   29.0380   50.7460 C   0  0  0  0  0  0  0  0  0  0  0  0
   59.8240   29.6050   50.9390 C   0  0  0  0  0  0  0  0  0  0  0  0
   59.4310   30.7680   50.2480 C   0  0  0  0  0  0  0  0  0  0  0  0
   58.1510   31.2910   50.4780 C   0  0  0  0  0  0  0  0  0  0  0  0
   57.7680   32.3290   49.8760 O   0  0  0  0  0  0  0  0  0  0  0  0
   57.3350   30.6580   51.3620 N   0  0  0  0  0  0  0  0  0  0  0  0
   56.1020   31.0510   51.6710 N   0  0  0  0  0  0  0  0  0  0  0  0
   55.5230   30.2390   52.5890 C   0  0  0  0  0  0  0  0  0  0  0  0
   54.1300   30.4280   53.0820 C   0  0  0  0  0  0  0  0  0  0  0  0
   56.5470   28.9630   53.0450 S   0  0  0  0  0  0  0  0  0  0  0  0
   57.7370   29.5470   52.0120 C   0  0  0  0  0  0  0  0  0  0  0  0
   58.9660   29.0110   51.8200 N   0  0  0  0  0  0  0  0  0  0  0  0
   59.9420   28.7350   46.8420 C   0  0  0  0  0  0  0  0  0  0  0  0
   61.0710   29.5420   47.0660 O   0  0  0  0  0  0  0  0  0  0  0  0
   61.0550   30.9650   47.1210 C   0  0  0  0  0  0  0  0  0  0  0  0
   59.1300   28.9150   45.7070 C   0  0  0  0  0  0  0  0  0  0  0  0
   57.9930   28.1270   45.4990 C   0  0  0  0  0  0  0  0  0  0  0  0
   57.2190   28.3190   44.3080 N   0  0  0  0  0  0  0  0  0  0  0  0
   56.6850   29.8980   43.8150 S   0  0  0  0  0  0  0  0  0  0  0  0
   55.7720   30.4610   44.8670 O   0  0  0  0  0  0  0  0  0  0  0  0
   55.9360   29.8230   42.5150 O   0  0  0  0  0  0  0  0  0  0  0  0
   58.0910   30.9770   43.6030 C   0  0  0  0  0  0  0  0  0  0  0  0
   58.0670   32.0860   44.6190 C   0  0  0  0  0  0  0  0  0  0  0  0
   58.1240   33.4280   44.2060 C   0  0  0  0  0  0  0  0  0  0  0  0
   58.1440   34.4560   45.1520 C   0  0  0  0  0  0  0  0  0  0  0  0
   58.0970   34.1540   46.5160 C   0  0  0  0  0  0  0  0  0  0  0  0
   58.0350   32.8230   46.9350 C   0  0  0  0  0  0  0  0  0  0  0  0
   58.0280   31.7910   45.9930 C   0  0  0  0  0  0  0  0  0  0  0  0
   56.1580   24.4630   46.4769 H   0  0  0  0  0  0  0  0  0  0  0  0
   55.3395   25.2285   45.0731 H   0  0  0  0  0  0  0  0  0  0  0  0
   57.1247   25.0299   45.0731 H   0  0  0  0  0  0  0  0  0  0  0  0
   58.1493   26.2230   48.3360 H   0  0  0  0  0  0  0  0  0  0  0  0
   61.3834   28.2687   51.5100 H   0  0  0  0  0  0  0  0  0  0  0  0
   61.9354   29.8488   50.8399 H   0  0  0  0  0  0  0  0  0  0  0  0
   60.1166   31.2571   49.5404 H   0  0  0  0  0  0  0  0  0  0  0  0
   54.1272   30.4284   54.1820 H   0  0  0  0  0  0  0  0  0  0  0  0
   53.7378   31.3876   52.7140 H   0  0  0  0  0  0  0  0  0  0  0  0
   53.4963   29.6076   52.7140 H   0  0  0  0  0  0  0  0  0  0  0  0
   61.0513   31.2913   48.1715 H   0  0  0  0  0  0  0  0  0  0  0  0
   61.9487   31.3615   46.6170 H   0  0  0  0  0  0  0  0  0  0  0  0
   60.1526   31.3413   46.6170 H   0  0  0  0  0  0  0  0  0  0  0  0
   59.3938   29.6885   44.9707 H   0  0  0  0  0  0  0  0  0  0  0  0
   56.6590   27.5150   43.9510 H   0  0  0  0  0  0  0  0  0  0  0  0
   59.0156   30.3940   43.7263 H   0  0  0  0  0  0  0  0  0  0  0  0
   58.0500   31.4183   42.5962 H   0  0  0  0  0  0  0  0  0  0  0  0
   58.1530   33.6702   43.1334 H   0  0  0  0  0  0  0  0  0  0  0  0
   58.1968   35.5043   44.8230 H   0  0  0  0  0  0  0  0  0  0  0  0
   58.1088   34.9646   47.2595 H   0  0  0  0  0  0  0  0  0  0  0  0
   57.9916   32.5868   48.0085 H   0  0  0  0  0  0  0  0  0  0  0  0
   57.9918   30.7438   46.3278 H   0  0  0  0  0  0  0  0  0  0  0  0
  1  2  1  0
  2  3  1  0
  3  4  2  0
  4  5  1  0
  5  6  1  0
  6  7  2  0
  6  8  1  0
  8  9  1  0
  9 10  1  0
 10 11  2  0
 11 12  1  0
 12 13  2  0
 12 14  1  0
 14 15  1  0
 15 16  2  0
 16 17  1  0
 16 18  1  0
 18 19  1  0
 19 20  2  0
  5 21  2  0
 21 22  1  0
 22 23  1  0
 21 24  1  0
 24 25  2  0
 25 26  1  0
 26 27  1  0
 27 28  2  0
 27 29  2  0
 27 30  1  0
 30 31  1  0
 31 32  2  0
 32 33  1  0
 33 34  2  0
 34 35  1  0
 35 36  2  0
 25  3  1  0
 36 31  1  0
 20 10  1  0
 19 14  1  0
  1 37  1  0
  1 38  1  0
  1 39  1  0
  4 40  1  0
  9 41  1  0
  9 42  1  0
 11 43  1  0
 17 44  1  0
 17 45  1  0
 17 46  1  0
 23 47  1  0
 23 48  1  0
 23 49  1  0
 24 50  1  0
 26 51  1  0
 30 52  1  0
 30 53  1  0
 32 54  1  0
 33 55  1  0
 34 56  1  0
 35 57  1  0
 36 58  1  0
M  END
>  <UniqueID>  (95) 
84

>  <SMILES>  (95) 
COc1cc(C(=O)OCc2cc(=O)n3nc(C)sc3n2)c(OC)cc1NS(=O)(=O)Cc1ccccc1

>  <Energy>  (95) 
97.04498426019919

>  <Genealogy>  (95) 
COc1cc(C(=O)OCc2cc(=O)n3nc(C)sc3n2)c(OC)cc1NS(=O)(=O)Cc1ccccc1 (3D coordinates assigned)
COc1cc(C(=O)OCc2cc(=O)n3nc(C)sc3n2)c(OC)cc1NS(=O)(=O)Cc1ccccc1 (optimized conformer: 97.04498426019919 kcal/mol)

>  <smiles>  (95) 
COc1cc(C(=O)OCc2cc(=O)n3nc(C)sc3n2)c(OC)cc1NS(=O)(=O)Cc1ccccc1

>  <score_type>  (95) 
oracle

>  <origin>  (95) 
adg

>  <m_score__min__energy>  (95) 
-9.4700000000000006

>  <m_primary>  (95) 
energy

$$$$
95:0
     RDKit          3D

 45 47  0  0  0  0  0  0  0  0999 V2000
   57.1440   33.0300   46.5840 O   0  0  0  0  0  0  0  0  0  0  0  0
   57.5370   33.2000   45.3990 C   0  0  0  0  0  0  0  0  0  0  0  0
   57.7540   34.5970   44.8940 C   0  0  0  0  0  0  0  0  0  0  0  0
   59.2410   34.9780   44.9230 C   0  0  0  0  0  0  0  0  0  0  0  0
   59.8840   34.6170   46.2390 C   0  0  0  0  0  0  0  0  0  0  0  0
   59.2690   34.9710   47.4530 C   0  0  0  0  0  0  0  0  0  0  0  0
   59.8290   34.5690   48.6690 C   0  0  0  0  0  0  0  0  0  0  0  0
   61.0070   33.8160   48.6840 C   0  0  0  0  0  0  0  0  0  0  0  0
   61.6250   33.4600   47.4820 C   0  0  0  0  0  0  0  0  0  0  0  0
   61.0640   33.8530   46.2630 C   0  0  0  0  0  0  0  0  0  0  0  0
   57.8800   32.0790   44.5660 N   0  0  0  0  0  0  0  0  0  0  0  0
   57.9030   30.7170   45.0240 C   0  0  0  0  0  0  0  0  0  0  0  0
   58.5910   30.4010   46.2060 C   0  0  0  0  0  0  0  0  0  0  0  0
   58.6320   29.0850   46.6720 C   0  0  0  0  0  0  0  0  0  0  0  0
   57.9910   28.0650   45.9580 C   0  0  0  0  0  0  0  0  0  0  0  0
   57.9970   26.4070   46.5520 S   0  0  0  0  0  0  0  0  0  0  0  0
   58.6970   25.5380   45.5460 O   0  0  0  0  0  0  0  0  0  0  0  0
   58.7250   26.3050   47.8660 O   0  0  0  0  0  0  0  0  0  0  0  0
   56.3640   25.8470   46.7510 N   0  0  0  0  0  0  0  0  0  0  0  0
   55.6770   25.1400   45.9010 C   0  0  0  0  0  0  0  0  0  0  0  0
   56.2840   24.3330   44.9140 C   0  0  0  0  0  0  0  0  0  0  0  0
   55.4810   23.5880   44.0490 C   0  0  0  0  0  0  0  0  0  0  0  0
   54.0910   23.6530   44.1550 C   0  0  0  0  0  0  0  0  0  0  0  0
   53.5220   24.4680   45.1350 C   0  0  0  0  0  0  0  0  0  0  0  0
   54.3180   25.1830   45.9740 N   0  0  0  0  0  0  0  0  0  0  0  0
   57.3240   28.3690   44.7650 C   0  0  0  0  0  0  0  0  0  0  0  0
   57.2880   29.6850   44.2930 C   0  0  0  0  0  0  0  0  0  0  0  0
   57.3873   34.6646   43.8591 H   0  0  0  0  0  0  0  0  0  0  0  0
   57.2058   35.2909   45.5482 H   0  0  0  0  0  0  0  0  0  0  0  0
   59.7615   34.4448   44.1138 H   0  0  0  0  0  0  0  0  0  0  0  0
   59.3185   36.0673   44.7909 H   0  0  0  0  0  0  0  0  0  0  0  0
   58.3440   35.5663   47.4457 H   0  0  0  0  0  0  0  0  0  0  0  0
   59.3421   34.8455   49.6158 H   0  0  0  0  0  0  0  0  0  0  0  0
   61.4476   33.5036   49.6423 H   0  0  0  0  0  0  0  0  0  0  0  0
   62.5534   32.8702   47.4950 H   0  0  0  0  0  0  0  0  0  0  0  0
   61.5480   33.5632   45.3187 H   0  0  0  0  0  0  0  0  0  0  0  0
   58.3160   32.2830   43.6390 H   0  0  0  0  0  0  0  0  0  0  0  0
   59.1017   31.1958   46.7695 H   0  0  0  0  0  0  0  0  0  0  0  0
   59.1693   28.8491   47.6024 H   0  0  0  0  0  0  0  0  0  0  0  0
   57.3798   24.2919   44.8276 H   0  0  0  0  0  0  0  0  0  0  0  0
   55.9443   22.9489   43.2829 H   0  0  0  0  0  0  0  0  0  0  0  0
   53.4523   23.0698   43.4753 H   0  0  0  0  0  0  0  0  0  0  0  0
   52.4279   24.5319   45.2287 H   0  0  0  0  0  0  0  0  0  0  0  0
   56.8263   27.5695   44.1967 H   0  0  0  0  0  0  0  0  0  0  0  0
   56.7767   29.9137   43.3463 H   0  0  0  0  0  0  0  0  0  0  0  0
  1  2  2  0
  2  3  1  0
  3  4  1  0
  4  5  1  0
  5  6  2  0
  6  7  1  0
  7  8  2  0
  8  9  1  0
  9 10  2  0
  2 11  1  0
 11 12  1  0
 12 13  2  0
 13 14  1  0
 14 15  2  0
 15 16  1  0
 16 17  2  0
 16 18  2  0
 16 19  1  0
 19 20  2  3
 20 21  1  0
 21 22  2  0
 22 23  1  0
 23 24  2  0
 24 25  1  0
 15 26  1  0
 26 27  2  0
 10  5  1  0
 27 12  1  0
 25 20  1  0
  3 28  1  0
  3 29  1  0
  4 30  1  0
  4 31  1  0
  6 32  1  0
  7 33  1  0
  8 34  1  0
  9 35  1  0
 10 36  1  0
 11 37  1  0
 13 38  1  0
 14 39  1  0
 21 40  1  0
 22 41  1  0
 23 42  1  0
 24 43  1  0
 26 44  1  0
 27 45  1  0
M  CHG  1  25  -1
M  END
>  <UniqueID>  (96) 
85

>  <SMILES>  (96) 
O=C(CCc1ccccc1)Nc1ccc(S(=O)(=O)N=c2cccc[n-]2)cc1

>  <Energy>  (96) 
51.90951708461536

>  <Genealogy>  (96) 
O=C(CCc1ccccc1)Nc1ccc(S(=O)(=O)N=c2cccc[n-]2)cc1 (protonated)
O=C(CCc1ccccc1)Nc1ccc(S(=O)(=O)N=c2cccc[n-]2)cc1 (3D coordinates assigned)
O=C(CCc1ccccc1)Nc1ccc(S(=O)(=O)N=c2cccc[n-]2)cc1 (optimized conformer: 51.90951708461536 kcal/mol)

>  <smiles>  (96) 
O=C(CCc1ccccc1)Nc1ccc(S(=O)(=O)N=c2cccc[nH]2)cc1

>  <score_type>  (96) 
oracle

>  <origin>  (96) 
adg

>  <m_score__min__energy>  (96) 
-10.32

>  <m_primary>  (96) 
energy

$$$$
96:0
     RDKit          3D

 30 31  0  0  0  0  0  0  0  0999 V2000
   56.0075   30.1851   42.4684 H   0  0  0  0  0  0  0  0  0  0  0  0
   56.6920   30.4330   43.2930 C   0  0  0  0  0  0  0  0  0  0  0  0
   56.7970   29.4980   44.4300 C   0  0  0  0  0  0  0  0  0  0  0  0
   56.6340   29.9460   45.5960 O   0  0  0  0  0  0  0  0  0  0  0  0
   57.0260   28.0930   44.2290 N   0  0  0  0  0  0  0  0  0  0  0  0
   56.6980   27.6620   43.3350 H   0  0  0  0  0  0  0  0  0  0  0  0
   57.4450   27.2090   45.2810 C   0  0  0  0  0  0  0  0  0  0  0  0
   58.8160   27.0480   45.5360 C   0  0  0  0  0  0  0  0  0  0  0  0
   59.5525   27.5926   44.9269 H   0  0  0  0  0  0  0  0  0  0  0  0
   59.2520   26.2000   46.5590 C   0  0  0  0  0  0  0  0  0  0  0  0
   60.3285   26.0718   46.7453 H   0  0  0  0  0  0  0  0  0  0  0  0
   58.3220   25.5160   47.3440 C   0  0  0  0  0  0  0  0  0  0  0  0
   58.6663   24.8413   48.1416 H   0  0  0  0  0  0  0  0  0  0  0  0
   56.9540   25.6880   47.1170 C   0  0  0  0  0  0  0  0  0  0  0  0
   56.2234   25.1519   47.7405 H   0  0  0  0  0  0  0  0  0  0  0  0
   56.5100   26.5400   46.0990 C   0  0  0  0  0  0  0  0  0  0  0  0
   55.1440   26.7350   45.9270 O   0  0  0  0  0  0  0  0  0  0  0  0
   57.3960   31.5720   43.2230 C   0  0  0  0  0  0  0  0  0  0  0  0
   57.5528   32.0263   42.2336 H   0  0  0  0  0  0  0  0  0  0  0  0
   57.9750   32.2530   44.4070 C   0  0  0  0  0  0  0  0  0  0  0  0
   57.5610   33.5620   44.7020 C   0  0  0  0  0  0  0  0  0  0  0  0
   56.8275   34.0609   44.0516 H   0  0  0  0  0  0  0  0  0  0  0  0
   58.0720   34.2370   45.8140 C   0  0  0  0  0  0  0  0  0  0  0  0
   57.7455   35.2649   46.0305 H   0  0  0  0  0  0  0  0  0  0  0  0
   58.9970   33.6080   46.6510 C   0  0  0  0  0  0  0  0  0  0  0  0
   59.6930   34.5300   48.1720 Br  0  0  0  0  0  0  0  0  0  0  0  0
   59.4050   32.2990   46.3790 C   0  0  0  0  0  0  0  0  0  0  0  0
   60.1284   31.8015   47.0417 H   0  0  0  0  0  0  0  0  0  0  0  0
   58.8970   31.6200   45.2680 C   0  0  0  0  0  0  0  0  0  0  0  0
   59.2172   30.5877   45.0637 H   0  0  0  0  0  0  0  0  0  0  0  0
  1  2  1  0
  2  3  1  0
  3  4  2  0
  3  5  1  0
  5  6  1  0
  5  7  1  0
  7  8  2  0
  8  9  1  0
  8 10  1  0
 10 11  1  0
 10 12  2  0
 12 13  1  0
 12 14  1  0
 14 15  1  0
 14 16  2  0
 16 17  1  0
  2 18  2  0
 18 19  1  0
 18 20  1  0
 20 21  2  0
 21 22  1  0
 21 23  1  0
 23 24  1  0
 23 25  2  0
 25 26  1  0
 25 27  1  0
 27 28  1  0
 27 29  2  0
 29 30  1  0
 16  7  1  0
 29 20  1  0
M  CHG  1  17  -1
M  END
>  <UniqueID>  (97) 
86

>  <SMILES>  (97) 
O=C(/C=C/c1ccc(Br)cc1)Nc1ccccc1[O-]

>  <Energy>  (97) 
38.26423274518503

>  <Genealogy>  (97) 
O=C(C=Cc1ccc(Br)cc1)Nc1ccccc1[O-] (protonated)
O=C(/C=C/c1ccc(Br)cc1)Nc1ccccc1[O-] (cis-trans isomerization)
O=C(/C=C/c1ccc(Br)cc1)Nc1ccccc1[O-] (3D coordinates assigned)
O=C(/C=C/c1ccc(Br)cc1)Nc1ccccc1[O-] (optimized conformer: 38.26423274518503 kcal/mol)

>  <smiles>  (97) 
O=C(C=Cc1ccc(Br)cc1)Nc1ccccc1O

>  <score_type>  (97) 
oracle

>  <origin>  (97) 
adg

>  <m_score__min__energy>  (97) 
-11.949999999999999

>  <m_primary>  (97) 
energy

$$$$
