0:0
     RDKit          3D

 46 47  0  0  0  0  0  0  0  0999 V2000
   62.8410   33.6880   46.8540 C   0  0  0  0  0  0  0  0  0  0  0  0
   63.2860   31.9660   47.2390 S   0  0  0  0  0  0  0  0  0  0  0  0
   61.6170   31.5160   47.7180 C   0  0  0  0  0  0  0  0  0  0  0  0
   61.1600   31.7960   49.0100 C   0  0  0  0  0  0  0  0  0  0  0  0
   59.8650   31.4310   49.3870 C   0  0  0  0  0  0  0  0  0  0  0  0
   59.0200   30.7970   48.4720 C   0  0  0  0  0  0  0  0  0  0  0  0
   59.4570   30.5370   47.1630 C   0  0  0  0  0  0  0  0  0  0  0  0
   58.5760   29.8650   46.2470 N   0  0  0  0  0  0  0  0  0  0  0  0
   58.9910   28.8260   45.3460 C   0  0  0  0  0  0  0  0  0  0  0  0
   60.2160   28.5840   45.1660 O   0  0  0  0  0  0  0  0  0  0  0  0
   57.9710   28.0770   44.5400 C   0  0  0  0  0  0  0  0  0  0  0  0
   56.6600   27.9240   45.3120 C   0  0  0  0  0  0  0  0  0  0  0  0
   55.8850   29.1570   45.2450 N   0  0  0  0  0  0  0  0  0  0  0  0
   56.2240   30.2340   44.3710 C   0  0  0  0  0  0  0  0  0  0  0  0
   56.4880   29.9910   43.1640 O   0  0  0  0  0  0  0  0  0  0  0  0
   56.2650   31.5780   44.8640 N   0  0  0  0  0  0  0  0  0  0  0  0
   57.4930   32.2500   45.2860 C   0  0  0  0  0  0  0  0  0  0  0  0
   57.1730   33.2160   46.4350 C   0  0  0  0  0  0  0  0  0  0  0  0
   58.4460   33.8990   46.9750 C   0  0  0  0  0  0  0  0  0  0  0  0
   59.5490   34.0740   45.9120 C   0  0  0  0  0  0  0  0  0  0  0  0
   58.9610   34.2310   44.5080 C   0  0  0  0  0  0  0  0  0  0  0  0
   58.1360   32.9950   44.0910 C   0  0  0  0  0  0  0  0  0  0  0  0
   60.7700   30.8860   46.7970 C   0  0  0  0  0  0  0  0  0  0  0  0
   62.6964   34.2474   47.7900 H   0  0  0  0  0  0  0  0  0  0  0  0
   63.6484   34.1535   46.2696 H   0  0  0  0  0  0  0  0  0  0  0  0
   61.9092   33.7040   46.2696 H   0  0  0  0  0  0  0  0  0  0  0  0
   61.8199   32.3034   49.7291 H   0  0  0  0  0  0  0  0  0  0  0  0
   59.5098   31.6431   50.4062 H   0  0  0  0  0  0  0  0  0  0  0  0
   58.0064   30.4998   48.7791 H   0  0  0  0  0  0  0  0  0  0  0  0
   57.5950   30.2180   46.1650 H   0  0  0  0  0  0  0  0  0  0  0  0
   57.7762   28.6270   43.6075 H   0  0  0  0  0  0  0  0  0  0  0  0
   58.3667   27.0738   44.3231 H   0  0  0  0  0  0  0  0  0  0  0  0
   56.0742   27.1031   44.8727 H   0  0  0  0  0  0  0  0  0  0  0  0
   56.8892   27.7029   46.3649 H   0  0  0  0  0  0  0  0  0  0  0  0
   58.2183   31.5042   45.6434 H   0  0  0  0  0  0  0  0  0  0  0  0
   56.4812   33.9890   46.0691 H   0  0  0  0  0  0  0  0  0  0  0  0
   56.7195   32.6380   47.2537 H   0  0  0  0  0  0  0  0  0  0  0  0
   58.1717   34.8927   47.3588 H   0  0  0  0  0  0  0  0  0  0  0  0
   58.8547   33.2462   47.7604 H   0  0  0  0  0  0  0  0  0  0  0  0
   60.1385   34.9706   46.1541 H   0  0  0  0  0  0  0  0  0  0  0  0
   60.1804   33.1733   45.9210 H   0  0  0  0  0  0  0  0  0  0  0  0
   58.3086   35.1165   44.4921 H   0  0  0  0  0  0  0  0  0  0  0  0
   59.7943   34.3413   43.7985 H   0  0  0  0  0  0  0  0  0  0  0  0
   57.3342   33.3239   43.4136 H   0  0  0  0  0  0  0  0  0  0  0  0
   58.8292   32.2917   43.6064 H   0  0  0  0  0  0  0  0  0  0  0  0
   61.1331   30.6631   45.7829 H   0  0  0  0  0  0  0  0  0  0  0  0
  1  2  1  0
  2  3  1  0
  3  4  2  0
  4  5  1  0
  5  6  2  0
  6  7  1  0
  7  8  1  0
  8  9  1  0
  9 10  2  0
  9 11  1  0
 11 12  1  0
 12 13  1  0
 13 14  1  0
 14 15  2  0
 14 16  1  0
 16 17  1  0
 17 18  1  0
 18 19  1  0
 19 20  1  0
 20 21  1  0
 21 22  1  0
  7 23  2  0
 23  3  1  0
 22 17  1  0
  1 24  1  0
  1 25  1  0
  1 26  1  0
  4 27  1  0
  5 28  1  0
  6 29  1  0
  8 30  1  0
 11 31  1  0
 11 32  1  0
 12 33  1  0
 12 34  1  0
 17 35  1  0
 18 36  1  0
 18 37  1  0
 19 38  1  0
 19 39  1  0
 20 40  1  0
 20 41  1  0
 21 42  1  0
 21 43  1  0
 22 44  1  0
 22 45  1  0
 23 46  1  0
M  CHG  2  13  -1  16  -1
M  END
>  <UniqueID>  (1) 
1

>  <SMILES>  (1) 
CSc1cccc(NC(=O)CC[N-]C(=O)[N-]C2CCCCC2)c1

>  <Energy>  (1) 
36.91324737848984

>  <Genealogy>  (1) 
CSc1cccc(NC(=O)CC[N-]C(=O)[N-]C2CCCCC2)c1 (protonated)
CSc1cccc(NC(=O)CC[N-]C(=O)[N-]C2CCCCC2)c1 (3D coordinates assigned)
CSc1cccc(NC(=O)CC[N-]C(=O)[N-]C2CCCCC2)c1 (nonaromatic ring conformer: 36.91324737848984 kcal/mol)

>  <smiles>  (1) 
CSc1cccc(NC(=O)CCNC(=O)NC2CCCCC2)c1

>  <score_type>  (1) 
oracle

>  <origin>  (1) 
adg

>  <m_score__min__energy>  (1) 
-11.6

>  <m_primary>  (1) 
energy

$$$$
1:0
     RDKit          3D

 55 58  0  0  0  0  0  0  0  0999 V2000
   54.7780   26.3220   45.9850 N   0  0  0  0  0  0  0  0  0  0  0  0
   56.3020   25.5620   46.2850 S   0  0  0  0  0  0  0  0  0  0  0  0
   56.2470   24.8240   47.5940 O   0  0  0  0  0  0  0  0  0  0  0  0
   56.5980   24.5790   45.1880 O   0  0  0  0  0  0  0  0  0  0  0  0
   57.5620   26.7890   46.3470 C   0  0  0  0  0  0  0  0  0  0  0  0
   57.7230   27.6900   45.2850 C   0  0  0  0  0  0  0  0  0  0  0  0
   58.7060   28.6810   45.3490 C   0  0  0  0  0  0  0  0  0  0  0  0
   59.5390   28.7710   46.4670 C   0  0  0  0  0  0  0  0  0  0  0  0
   59.4030   27.8560   47.5270 C   0  0  0  0  0  0  0  0  0  0  0  0
   60.2070   27.9600   48.7150 N   0  0  0  0  0  0  0  0  0  0  0  0
   60.1950   28.8950   49.6330 C   0  0  0  0  0  0  0  0  0  0  0  0
   60.1190   28.4840   50.9200 N   0  0  0  0  0  0  0  0  0  0  0  0
   59.8320   29.2140   52.0250 C   0  0  0  0  0  0  0  0  0  0  0  0
   60.1030   28.6910   53.1430 O   0  0  0  0  0  0  0  0  0  0  0  0
   59.1020   30.3750   51.9870 N   0  0  0  0  0  0  0  0  0  0  0  0
   58.2670   30.7070   53.1730 C   0  0  0  0  0  0  0  0  0  0  0  0
   56.8200   30.3220   52.9460 C   0  0  0  0  0  0  0  0  0  0  0  0
   55.8820   31.2920   52.5460 C   0  0  0  0  0  0  0  0  0  0  0  0
   56.2580   32.5780   52.3330 F   0  0  0  0  0  0  0  0  0  0  0  0
   54.5440   30.9380   52.3430 C   0  0  0  0  0  0  0  0  0  0  0  0
   54.1290   29.6200   52.5320 C   0  0  0  0  0  0  0  0  0  0  0  0
   55.0530   28.6470   52.9180 C   0  0  0  0  0  0  0  0  0  0  0  0
   56.3930   28.9890   53.1200 C   0  0  0  0  0  0  0  0  0  0  0  0
   57.2700   28.0160   53.4760 F   0  0  0  0  0  0  0  0  0  0  0  0
   59.0970   31.2770   50.9490 C   0  0  0  0  0  0  0  0  0  0  0  0
   58.2470   32.2140   50.9740 O   0  0  0  0  0  0  0  0  0  0  0  0
   60.0620   31.3170   49.9750 N   0  0  0  0  0  0  0  0  0  0  0  0
   60.5230   32.6590   49.5320 C   0  0  0  0  0  0  0  0  0  0  0  0
   59.7110   33.1120   48.3510 C   0  0  0  0  0  0  0  0  0  0  0  0
   58.6040   32.3590   47.9260 C   0  0  0  0  0  0  0  0  0  0  0  0
   57.8190   32.7980   46.8560 C   0  0  0  0  0  0  0  0  0  0  0  0
   58.1290   33.9970   46.2060 C   0  0  0  0  0  0  0  0  0  0  0  0
   57.1420   34.5480   44.8650 Cl  0  0  0  0  0  0  0  0  0  0  0  0
   59.2220   34.7580   46.6310 C   0  0  0  0  0  0  0  0  0  0  0  0
   60.0090   34.3210   47.7010 C   0  0  0  0  0  0  0  0  0  0  0  0
   60.5530   30.2180   49.3210 C   0  0  0  0  0  0  0  0  0  0  0  0
   61.3730   30.3840   48.3740 O   0  0  0  0  0  0  0  0  0  0  0  0
   58.3920   26.8880   47.4730 C   0  0  0  0  0  0  0  0  0  0  0  0
   54.6750   27.0880   46.6880 H   0  0  0  0  0  0  0  0  0  0  0  0
   57.0743   27.6166   44.3997 H   0  0  0  0  0  0  0  0  0  0  0  0
   58.8242   29.3916   44.5176 H   0  0  0  0  0  0  0  0  0  0  0  0
   60.3038   29.5599   46.5186 H   0  0  0  0  0  0  0  0  0  0  0  0
   60.3020   27.4670   51.0890 H   0  0  0  0  0  0  0  0  0  0  0  0
   58.6512   30.1608   54.0471 H   0  0  0  0  0  0  0  0  0  0  0  0
   58.3172   31.7927   53.3428 H   0  0  0  0  0  0  0  0  0  0  0  0
   53.8162   31.7023   52.0330 H   0  0  0  0  0  0  0  0  0  0  0  0
   53.0747   29.3473   52.3771 H   0  0  0  0  0  0  0  0  0  0  0  0
   54.7250   27.6072   53.0637 H   0  0  0  0  0  0  0  0  0  0  0  0
   60.4012   33.3774   50.3561 H   0  0  0  0  0  0  0  0  0  0  0  0
   61.5830   32.6020   49.2436 H   0  0  0  0  0  0  0  0  0  0  0  0
   58.3534   31.4183   48.4382 H   0  0  0  0  0  0  0  0  0  0  0  0
   56.9570   32.2002   46.5250 H   0  0  0  0  0  0  0  0  0  0  0  0
   59.4635   35.7030   46.1224 H   0  0  0  0  0  0  0  0  0  0  0  0
   60.8646   34.9263   48.0349 H   0  0  0  0  0  0  0  0  0  0  0  0
   58.2481   26.2007   48.3197 H   0  0  0  0  0  0  0  0  0  0  0  0
  1  2  1  0
  2  3  2  0
  2  4  2  0
  2  5  1  0
  5  6  2  0
  6  7  1  0
  7  8  2  0
  8  9  1  0
  9 10  1  0
 10 11  2  3
 11 12  1  0
 12 13  1  0
 13 14  2  0
 13 15  1  0
 15 16  1  0
 16 17  1  0
 17 18  2  0
 18 19  1  0
 18 20  1  0
 20 21  2  0
 21 22  1  0
 22 23  2  0
 23 24  1  0
 15 25  1  0
 25 26  2  0
 25 27  1  0
 27 28  1  0
 28 29  1  0
 29 30  2  0
 30 31  1  0
 31 32  2  0
 32 33  1  0
 32 34  1  0
 34 35  2  0
 27 36  1  0
 36 37  2  0
  9 38  2  0
 38  5  1  0
 36 11  1  0
 23 17  1  0
 35 29  1  0
  1 39  1  0
  6 40  1  0
  7 41  1  0
  8 42  1  0
 12 43  1  0
 16 44  1  0
 16 45  1  0
 20 46  1  0
 21 47  1  0
 22 48  1  0
 28 49  1  0
 28 50  1  0
 30 51  1  0
 31 52  1  0
 34 53  1  0
 35 54  1  0
 38 55  1  0
M  CHG  1   1  -1
M  END
>  <UniqueID>  (2) 
2

>  <SMILES>  (2) 
[NH-]S(=O)(=O)c1cccc(N=c2[nH]c(=O)n(Cc3c(F)cccc3F)c(=O)n(Cc3ccc(Cl)cc3)c2=O)c1

>  <Energy>  (2) 
126.37781786400949

>  <Genealogy>  (2) 
[NH-]S(=O)(=O)c1cccc(N=c2[nH]c(=O)n(Cc3c(F)cccc3F)c(=O)n(Cc3ccc(Cl)cc3)c2=O)c1 (protonated)
[NH-]S(=O)(=O)c1cccc(N=c2[nH]c(=O)n(Cc3c(F)cccc3F)c(=O)n(Cc3ccc(Cl)cc3)c2=O)c1 (3D coordinates assigned)
[NH-]S(=O)(=O)c1cccc(N=c2[nH]c(=O)n(Cc3c(F)cccc3F)c(=O)n(Cc3ccc(Cl)cc3)c2=O)c1 (optimized conformer: 126.37781786400949 kcal/mol)

>  <smiles>  (2) 
NS(=O)(=O)c1cccc(N=c2[nH]c(=O)n(Cc3c(F)cccc3F)c(=O)n(Cc3ccc(Cl)cc3)c2=O)c1

>  <score_type>  (2) 
oracle

>  <origin>  (2) 
adg

>  <m_score__min__energy>  (2) 
-12.17

>  <m_primary>  (2) 
energy

$$$$
2:0
     RDKit          3D

 43 45  0  0  0  0  0  0  0  0999 V2000
   53.6087   22.6722   46.3967 H   0  0  0  0  0  0  0  0  0  0  0  0
   54.4420   23.2170   45.9290 C   0  0  0  0  0  0  0  0  0  0  0  0
   54.7690   24.4600   46.3630 N   0  0  0  0  0  0  0  0  0  0  0  0
   55.7820   25.1940   45.8240 C   0  0  0  0  0  0  0  0  0  0  0  0
   55.9970   26.3700   46.3550 N   0  0  0  0  0  0  0  0  0  0  0  0
   57.2300   27.0680   46.5460 C   0  0  0  0  0  0  0  0  0  0  0  0
   58.1550   26.5230   47.2030 O   0  0  0  0  0  0  0  0  0  0  0  0
   57.3790   28.4380   46.0240 C   0  0  0  0  0  0  0  0  0  0  0  0
   56.3740   29.1100   44.8560 S   0  0  0  0  0  0  0  0  0  0  0  0
   57.2420   30.5520   44.7690 C   0  0  0  0  0  0  0  0  0  0  0  0
   56.9920   31.5780   44.0050 N   0  0  0  0  0  0  0  0  0  0  0  0
   57.8360   32.6780   43.6140 C   0  0  0  0  0  0  0  0  0  0  0  0
   58.2420   32.7180   42.4230 O   0  0  0  0  0  0  0  0  0  0  0  0
   58.2210   33.8100   44.5320 C   0  0  0  0  0  0  0  0  0  0  0  0
   58.6315   34.6354   43.9318 H   0  0  0  0  0  0  0  0  0  0  0  0
   57.3239   34.1375   45.0778 H   0  0  0  0  0  0  0  0  0  0  0  0
   59.2260   33.3810   45.5050 N   0  0  0  0  0  0  0  0  0  0  0  0
   59.3640   32.3600   45.6800 H   0  0  0  0  0  0  0  0  0  0  0  0
   60.0450   34.3330   46.1980 C   0  0  0  0  0  0  0  0  0  0  0  0
   59.7280   35.5540   46.1910 O   0  0  0  0  0  0  0  0  0  0  0  0
   61.2600   33.9120   46.9150 C   0  0  0  0  0  0  0  0  0  0  0  0
   61.3130   33.4700   48.5380 S   0  0  0  0  0  0  0  0  0  0  0  0
   62.9640   33.1590   48.5980 C   0  0  0  0  0  0  0  0  0  0  0  0
   63.5241   32.8140   49.4796 H   0  0  0  0  0  0  0  0  0  0  0  0
   63.4980   33.4130   47.3420 C   0  0  0  0  0  0  0  0  0  0  0  0
   64.5661   33.2929   47.1079 H   0  0  0  0  0  0  0  0  0  0  0  0
   62.5520   33.8360   46.4010 C   0  0  0  0  0  0  0  0  0  0  0  0
   62.8040   34.0837   45.3593 H   0  0  0  0  0  0  0  0  0  0  0  0
   58.2830   30.5440   45.6270 N   0  0  0  0  0  0  0  0  0  0  0  0
   58.3730   29.3770   46.3250 C   0  0  0  0  0  0  0  0  0  0  0  0
   59.4790   29.1500   47.3070 C   0  0  0  0  0  0  0  0  0  0  0  0
   59.0833   29.2312   48.3301 H   0  0  0  0  0  0  0  0  0  0  0  0
   59.9028   28.1462   47.1564 H   0  0  0  0  0  0  0  0  0  0  0  0
   60.2639   29.9058   47.1564 H   0  0  0  0  0  0  0  0  0  0  0  0
   56.5220   24.6420   44.7290 C   0  0  0  0  0  0  0  0  0  0  0  0
   57.6060   25.3730   43.9760 C   0  0  0  0  0  0  0  0  0  0  0  0
   58.2986   25.8400   44.6917 H   0  0  0  0  0  0  0  0  0  0  0  0
   58.1570   24.6613   43.3437 H   0  0  0  0  0  0  0  0  0  0  0  0
   57.1527   26.1506   43.3437 H   0  0  0  0  0  0  0  0  0  0  0  0
   56.1980   23.3430   44.2990 C   0  0  0  0  0  0  0  0  0  0  0  0
   56.7725   22.8824   43.4818 H   0  0  0  0  0  0  0  0  0  0  0  0
   55.1600   22.6330   44.8940 C   0  0  0  0  0  0  0  0  0  0  0  0
   54.9106   21.6191   44.5479 H   0  0  0  0  0  0  0  0  0  0  0  0
  1  2  1  0
  2  3  1  0
  3  4  1  0
  4  5  2  3
  5  6  1  0
  6  7  2  0
  6  8  1  0
  8  9  1  0
  9 10  1  0
 10 11  2  0
 11 12  1  0
 12 13  2  0
 12 14  1  0
 14 15  1  0
 14 16  1  0
 14 17  1  0
 17 18  1  0
 17 19  1  0
 19 20  2  0
 19 21  1  0
 21 22  1  0
 22 23  1  0
 23 24  1  0
 23 25  2  0
 25 26  1  0
 25 27  1  0
 27 28  1  0
 10 29  1  0
 29 30  1  0
 30 31  1  0
 31 32  1  0
 31 33  1  0
 31 34  1  0
  4 35  1  0
 35 36  1  0
 36 37  1  0
 36 38  1  0
 36 39  1  0
 35 40  2  0
 40 41  1  0
 40 42  1  0
 42 43  1  0
 42  2  2  0
 30  8  2  0
 27 21  2  0
M  CHG  2   3  -1  29  -1
M  END
>  <UniqueID>  (3) 
3

>  <SMILES>  (3) 
Cc1[n-]/c(=N/C(=O)CNC(=O)c2cccs2)sc1C(=O)N=c1[n-]cccc1C

>  <Energy>  (3) 
116.61484749812739

>  <Genealogy>  (3) 
Cc1[n-]c(=NC(=O)CNC(=O)c2cccs2)sc1C(=O)N=c1[n-]cccc1C (protonated)
Cc1[n-]/c(=N/C(=O)CNC(=O)c2cccs2)sc1C(=O)N=c1[n-]cccc1C (cis-trans isomerization)
Cc1[n-]/c(=N/C(=O)CNC(=O)c2cccs2)sc1C(=O)N=c1[n-]cccc1C (3D coordinates assigned)
Cc1[n-]/c(=N/C(=O)CNC(=O)c2cccs2)sc1C(=O)N=c1[n-]cccc1C (optimized conformer: 116.61484749812739 kcal/mol)

>  <smiles>  (3) 
Cc1[nH]c(=NC(=O)CNC(=O)c2cccs2)sc1C(=O)N=c1[nH]cccc1C

>  <score_type>  (3) 
oracle

>  <origin>  (3) 
adg

>  <m_score__min__energy>  (3) 
-11.23

>  <m_primary>  (3) 
energy

$$$$
3:0
     RDKit          3D

 62 65  0  0  1  0  0  0  0  0999 V2000
   58.3680   32.7730   51.6430 C   0  0  0  0  0  0  0  0  0  0  0  0
   58.1450   31.5860   50.9050 O   0  0  0  0  0  0  0  0  0  0  0  0
   59.1660   30.8420   50.3570 C   0  0  0  0  0  0  0  0  0  0  0  0
   58.8050   29.7420   49.6350 N   0  0  0  0  0  0  0  0  0  0  0  0
   59.7780   29.0020   49.0890 C   0  0  0  0  0  0  0  0  0  0  0  0
   59.4320   27.9700   48.4100 N   0  0  0  0  0  0  0  0  0  0  0  0
   58.8990   28.1770   47.1030 C   0  0  0  0  0  0  0  0  0  0  0  0
   58.8870   27.2300   46.2870 O   0  0  0  0  0  0  0  0  0  0  0  0
   58.4080   29.4810   46.8240 N   0  0  0  0  0  0  0  0  0  0  0  0
   57.8390   29.8730   45.5850 C   0  0  0  0  0  0  0  0  0  0  0  0
   57.2880   28.9700   44.7010 C   0  0  0  0  0  0  0  0  0  0  0  0
   56.7410   29.3290   43.4880 C   0  0  0  0  0  0  0  0  0  0  0  0
   56.7360   30.6600   43.1200 C   0  0  0  0  0  0  0  0  0  0  0  0
   57.2850   31.5720   43.9990 C   0  0  0  0  0  0  0  0  0  0  0  0
   57.8340   31.2040   45.2180 C   0  0  0  0  0  0  0  0  0  0  0  0
   58.3610   32.2430   46.0200 N   0  0  0  0  0  0  0  0  0  0  0  0
   57.6000   33.3900   46.4680 C   0  0  0  0  0  0  0  0  0  0  0  0
   58.4710   34.6340   46.4640 C   0  0  0  0  0  0  0  0  0  0  0  0
   59.6290   34.3910   47.1590 O   0  0  0  0  0  0  0  0  0  0  0  0
   60.4110   33.4820   46.4480 C   0  0  0  0  0  0  0  0  0  0  0  0
   59.7680   32.1160   46.4080 C   0  0  0  0  0  0  0  0  0  0  0  0
   61.1180   29.3720   49.2720 C   0  0  0  0  0  0  0  0  0  0  0  0
   61.4910   30.4760   49.9970 C   0  0  0  0  0  0  0  0  0  0  0  0
   62.8020   30.9930   50.2010 C   0  0  0  0  0  0  0  0  0  0  0  0
   63.6230   30.3360   51.1250 C   0  0  0  0  0  0  0  0  0  0  0  0
   64.9290   30.7000   51.3580 C   0  0  0  0  0  0  0  0  0  0  0  0
   65.5120   31.7460   50.6880 C   0  0  0  0  0  0  0  0  0  0  0  0
   64.7290   32.4110   49.7740 C   0  0  0  0  0  0  0  0  0  0  0  0
   63.3930   32.0430   49.5300 C   0  0  0  0  0  0  0  0  0  0  0  0
   62.7130   32.8370   48.4840 C   0  0  0  0  0  0  0  0  0  0  0  0
   62.4010   34.2150   49.0250 C   0  0  0  0  0  0  0  0  0  0  0  0
   63.7660   33.1170   47.3710 C   0  0  0  0  0  0  0  0  0  0  0  0
   60.4480   31.1930   50.5300 N   0  0  0  0  0  0  0  0  0  0  0  0
   58.3259   32.5490   52.7191 H   0  0  0  0  0  0  0  0  0  0  0  0
   59.3584   33.1804   51.3917 H   0  0  0  0  0  0  0  0  0  0  0  0
   57.5930   33.5121   51.3917 H   0  0  0  0  0  0  0  0  0  0  0  0
   58.4490   30.2460   47.5650 H   0  0  0  0  0  0  0  0  0  0  0  0
   57.2847   27.9056   44.9787 H   0  0  0  0  0  0  0  0  0  0  0  0
   56.3139   28.5652   42.8216 H   0  0  0  0  0  0  0  0  0  0  0  0
   56.3090   30.9826   42.1590 H   0  0  0  0  0  0  0  0  0  0  0  0
   57.2870   32.6362   43.7205 H   0  0  0  0  0  0  0  0  0  0  0  0
   56.7445   33.5438   45.7939 H   0  0  0  0  0  0  0  0  0  0  0  0
   57.2440   33.2055   47.4923 H   0  0  0  0  0  0  0  0  0  0  0  0
   58.7173   34.9044   45.4266 H   0  0  0  0  0  0  0  0  0  0  0  0
   57.9262   35.4612   46.9424 H   0  0  0  0  0  0  0  0  0  0  0  0
   60.5386   33.8479   45.4185 H   0  0  0  0  0  0  0  0  0  0  0  0
   61.3839   33.3923   46.9534 H   0  0  0  0  0  0  0  0  0  0  0  0
   60.2937   31.4859   45.6755 H   0  0  0  0  0  0  0  0  0  0  0  0
   59.8305   31.6549   47.4047 H   0  0  0  0  0  0  0  0  0  0  0  0
   61.9031   28.7515   48.8154 H   0  0  0  0  0  0  0  0  0  0  0  0
   63.2048   29.4902   51.6905 H   0  0  0  0  0  0  0  0  0  0  0  0
   65.5193   30.1399   52.0982 H   0  0  0  0  0  0  0  0  0  0  0  0
   66.5561   32.0386   50.8733 H   0  0  0  0  0  0  0  0  0  0  0  0
   65.1599   33.2559   49.2169 H   0  0  0  0  0  0  0  0  0  0  0  0
   61.8139   32.3015   48.1452 H   0  0  0  0  0  0  0  0  0  0  0  0
   62.4073   34.1873   50.1246 H   0  0  0  0  0  0  0  0  0  0  0  0
   63.1604   34.9282   48.6719 H   0  0  0  0  0  0  0  0  0  0  0  0
   61.4085   34.5315   48.6719 H   0  0  0  0  0  0  0  0  0  0  0  0
   64.7301   33.3734   47.8345 H   0  0  0  0  0  0  0  0  0  0  0  0
   63.8866   32.2197   46.7462 H   0  0  0  0  0  0  0  0  0  0  0  0
   63.4250   33.9557   46.7462 H   0  0  0  0  0  0  0  0  0  0  0  0
   60.6050   32.0440   51.1130 H   0  0  0  0  0  0  0  0  0  0  0  0
  1  2  1  0
  2  3  1  0
  3  4  2  0
  4  5  1  0
  5  6  2  0
  6  7  1  0
  7  8  2  0
  7  9  1  0
  9 10  1  0
 10 11  2  0
 11 12  1  0
 12 13  2  0
 13 14  1  0
 14 15  2  0
 15 16  1  0
 16 17  1  0
 17 18  1  0
 18 19  1  0
 19 20  1  0
 20 21  1  0
  5 22  1  0
 22 23  2  0
 23 24  1  0
 24 25  2  0
 25 26  1  0
 26 27  2  0
 27 28  1  0
 28 29  2  0
 29 30  1  0
 30 31  1  0
 30 32  1  0
 23 33  1  0
 33  3  1  0
 15 10  1  0
 21 16  1  0
 29 24  1  0
  1 34  1  0
  1 35  1  0
  1 36  1  0
  9 37  1  0
 11 38  1  0
 12 39  1  0
 13 40  1  0
 14 41  1  0
 17 42  1  0
 17 43  1  0
 18 44  1  0
 18 45  1  0
 20 46  1  0
 20 47  1  0
 21 48  1  0
 21 49  1  0
 22 50  1  0
 25 51  1  0
 26 52  1  0
 27 53  1  0
 28 54  1  0
 30 55  1  0
 31 56  1  0
 31 57  1  0
 31 58  1  0
 32 59  1  0
 32 60  1  0
 32 61  1  0
 33 62  1  0
M  END
>  <smiles>  (4) 
COc1nc(=NC(=O)Nc2ccccc2N2CCOCC2)cc(-c2ccccc2C(C)C)[nH]1

>  <score_type>  (4) 
oracle

>  <origin>  (4) 
adg

>  <m_score__min__energy>  (4) 
-8.7400000000000002

>  <m_primary>  (4) 
energy

$$$$
4:0
     RDKit          3D

 71 74  0  0  0  0  0  0  0  0999 V2000
   54.9361   27.1696   46.5930 H   0  0  0  0  0  0  0  0  0  0  0  0
   55.7510   26.4780   46.3330 C   0  0  0  0  0  0  0  0  0  0  0  0
   55.4940   25.3910   45.5630 N   0  0  0  0  0  0  0  0  0  0  0  0
   56.4670   24.5040   45.2270 C   0  0  0  0  0  0  0  0  0  0  0  0
   56.1530   23.4020   44.4250 C   0  0  0  0  0  0  0  0  0  0  0  0
   55.1220   23.2593   44.0691 H   0  0  0  0  0  0  0  0  0  0  0  0
   57.1450   22.4810   44.0740 C   0  0  0  0  0  0  0  0  0  0  0  0
   56.7480   21.1010   43.0660 Cl  0  0  0  0  0  0  0  0  0  0  0  0
   58.4540   22.6570   44.5330 C   0  0  0  0  0  0  0  0  0  0  0  0
   59.2322   21.9289   44.2604 H   0  0  0  0  0  0  0  0  0  0  0  0
   58.7780   23.7530   45.3360 C   0  0  0  0  0  0  0  0  0  0  0  0
   59.8087   23.8786   45.6991 H   0  0  0  0  0  0  0  0  0  0  0  0
   57.7930   24.6990   45.6840 C   0  0  0  0  0  0  0  0  0  0  0  0
   58.0920   25.8400   46.4640 C   0  0  0  0  0  0  0  0  0  0  0  0
   59.3230   26.0530   46.8450 N   0  0  0  0  0  0  0  0  0  0  0  0
   60.4590   26.4690   46.0220 C   0  0  0  0  0  0  0  0  0  0  0  0
   60.4166   25.9356   45.0609 H   0  0  0  0  0  0  0  0  0  0  0  0
   61.3830   26.2277   46.5678 H   0  0  0  0  0  0  0  0  0  0  0  0
   60.4450   27.9830   45.7520 C   0  0  0  0  0  0  0  0  0  0  0  0
   61.3288   28.2385   45.1490 H   0  0  0  0  0  0  0  0  0  0  0  0
   60.4500   28.4886   46.7289 H   0  0  0  0  0  0  0  0  0  0  0  0
   59.1870   28.4550   45.0000 C   0  0  0  0  0  0  0  0  0  0  0  0
   58.4010   27.6935   45.1108 H   0  0  0  0  0  0  0  0  0  0  0  0
   59.4578   28.5984   43.9435 H   0  0  0  0  0  0  0  0  0  0  0  0
   58.6770   29.7490   45.5210 N   0  0  0  0  0  0  0  0  0  0  0  0
   59.5580   30.2740   46.5910 C   0  0  0  0  0  0  0  0  0  0  0  0
   59.6521   31.3642   46.4791 H   0  0  0  0  0  0  0  0  0  0  0  0
   60.5447   29.7956   46.5041 H   0  0  0  0  0  0  0  0  0  0  0  0
   58.9780   29.9590   47.9690 C   0  0  0  0  0  0  0  0  0  0  0  0
   59.6608   30.3298   48.7477 H   0  0  0  0  0  0  0  0  0  0  0  0
   57.9992   30.4495   48.0757 H   0  0  0  0  0  0  0  0  0  0  0  0
   58.8565   28.8710   48.0757 H   0  0  0  0  0  0  0  0  0  0  0  0
   58.5310   30.7380   44.4190 C   0  0  0  0  0  0  0  0  0  0  0  0
   59.0609   31.6627   44.6911 H   0  0  0  0  0  0  0  0  0  0  0  0
   58.9583   30.3097   43.5003 H   0  0  0  0  0  0  0  0  0  0  0  0
   57.0580   31.0580   44.1730 C   0  0  0  0  0  0  0  0  0  0  0  0
   56.9371   31.4445   43.1503 H   0  0  0  0  0  0  0  0  0  0  0  0
   56.4671   30.1393   44.3025 H   0  0  0  0  0  0  0  0  0  0  0  0
   56.5890   32.0600   45.1240 N   0  0  0  0  0  0  0  0  0  0  0  0
   57.1810   33.3460   45.3470 C   0  0  0  0  0  0  0  0  0  0  0  0
   56.6450   34.3540   44.8150 O   0  0  0  0  0  0  0  0  0  0  0  0
   58.4270   33.5250   46.1210 C   0  0  0  0  0  0  0  0  0  0  0  0
   59.6350   33.8640   45.4930 C   0  0  0  0  0  0  0  0  0  0  0  0
   59.6593   34.0207   44.4045 H   0  0  0  0  0  0  0  0  0  0  0  0
   60.8070   34.0040   46.2400 C   0  0  0  0  0  0  0  0  0  0  0  0
   61.7453   34.2794   45.7363 H   0  0  0  0  0  0  0  0  0  0  0  0
   60.7970   33.7960   47.6290 C   0  0  0  0  0  0  0  0  0  0  0  0
   62.0030   33.9600   48.4020 N   0  0  0  0  0  0  0  0  0  0  0  0
   61.9280   34.2150   49.8470 C   0  0  0  0  0  0  0  0  0  0  0  0
   61.7390   35.2854   50.0159 H   0  0  0  0  0  0  0  0  0  0  0  0
   61.1112   33.6129   50.2716 H   0  0  0  0  0  0  0  0  0  0  0  0
   63.2470   33.8190   50.5360 C   0  0  0  0  0  0  0  0  0  0  0  0
   63.9639   34.6472   50.4353 H   0  0  0  0  0  0  0  0  0  0  0  0
   63.0306   33.6097   51.5940 H   0  0  0  0  0  0  0  0  0  0  0  0
   63.8360   32.6000   49.9370 N   0  0  0  0  0  0  0  0  0  0  0  0
   63.0100   31.4080   50.2050 C   0  0  0  0  0  0  0  0  0  0  0  0
   62.9120   31.2665   51.2915 H   0  0  0  0  0  0  0  0  0  0  0  0
   62.0127   31.5457   49.7617 H   0  0  0  0  0  0  0  0  0  0  0  0
   63.4892   30.5226   49.7617 H   0  0  0  0  0  0  0  0  0  0  0  0
   64.1440   32.7470   48.4900 C   0  0  0  0  0  0  0  0  0  0  0  0
   65.2121   32.9883   48.3858 H   0  0  0  0  0  0  0  0  0  0  0  0
   63.8779   31.7947   48.0080 H   0  0  0  0  0  0  0  0  0  0  0  0
   63.3270   33.8480   47.7880 C   0  0  0  0  0  0  0  0  0  0  0  0
   63.8544   34.8087   47.8824 H   0  0  0  0  0  0  0  0  0  0  0  0
   63.2106   33.5881   46.7255 H   0  0  0  0  0  0  0  0  0  0  0  0
   59.5870   33.4510   48.2560 C   0  0  0  0  0  0  0  0  0  0  0  0
   59.5610   33.2949   49.3446 H   0  0  0  0  0  0  0  0  0  0  0  0
   58.4170   33.3050   47.5060 C   0  0  0  0  0  0  0  0  0  0  0  0
   57.4809   33.0153   48.0058 H   0  0  0  0  0  0  0  0  0  0  0  0
   57.0450   26.7230   46.7970 C   0  0  0  0  0  0  0  0  0  0  0  0
   57.2473   27.6050   47.4224 H   0  0  0  0  0  0  0  0  0  0  0  0
  1  2  1  0
  2  3  1  0
  3  4  1  0
  4  5  2  0
  5  6  1  0
  5  7  1  0
  7  8  1  0
  7  9  2  0
  9 10  1  0
  9 11  1  0
 11 12  1  0
 11 13  2  0
 13 14  1  0
 14 15  2  0
 15 16  1  0
 16 17  1  0
 16 18  1  0
 16 19  1  0
 19 20  1  0
 19 21  1  0
 19 22  1  0
 22 23  1  0
 22 24  1  0
 22 25  1  0
 25 26  1  0
 26 27  1  0
 26 28  1  0
 26 29  1  0
 29 30  1  0
 29 31  1  0
 29 32  1  0
 25 33  1  0
 33 34  1  0
 33 35  1  0
 33 36  1  0
 36 37  1  0
 36 38  1  0
 36 39  1  0
 39 40  1  0
 40 41  2  0
 40 42  1  0
 42 43  2  0
 43 44  1  0
 43 45  1  0
 45 46  1  0
 45 47  2  0
 47 48  1  0
 48 49  1  0
 49 50  1  0
 49 51  1  0
 49 52  1  0
 52 53  1  0
 52 54  1  0
 52 55  1  0
 55 56  1  0
 56 57  1  0
 56 58  1  0
 56 59  1  0
 55 60  1  0
 60 61  1  0
 60 62  1  0
 60 63  1  0
 63 64  1  0
 63 65  1  0
 47 66  1  0
 66 67  1  0
 66 68  2  0
 68 69  1  0
 14 70  1  0
 70 71  1  0
 70  2  2  0
 13  4  1  0
 68 42  1  0
 63 48  1  0
M  CHG  2   3  -1  39  -1
M  END
>  <UniqueID>  (5) 
4

>  <SMILES>  (5) 
CCN(CCC/N=c1\cc[n-]c2cc(Cl)ccc12)CC[N-]C(=O)c1ccc(N2CCN(C)CC2)cc1

>  <Energy>  (5) 
88.72708632243567

>  <Genealogy>  (5) 
CCN(CCCN=c1cc[n-]c2cc(Cl)ccc12)CC[N-]C(=O)c1ccc(N2CCN(C)CC2)cc1 (protonated)
CCN(CCC/N=c1\cc[n-]c2cc(Cl)ccc12)CC[N-]C(=O)c1ccc(N2CCN(C)CC2)cc1 (cis-trans isomerization)
CCN(CCC/N=c1\cc[n-]c2cc(Cl)ccc12)CC[N-]C(=O)c1ccc(N2CCN(C)CC2)cc1 (3D coordinates assigned)
CCN(CCC/N=c1\cc[n-]c2cc(Cl)ccc12)CC[N-]C(=O)c1ccc(N2CCN(C)CC2)cc1 (nonaromatic ring conformer: 88.72708632243567 kcal/mol)

>  <smiles>  (5) 
CCN(CCCN=c1cc[nH]c2cc(Cl)ccc12)CCNC(=O)c1ccc(N2CCN(C)CC2)cc1

>  <score_type>  (5) 
oracle

>  <origin>  (5) 
adg

>  <m_score__min__energy>  (5) 
-11.369999999999999

>  <m_primary>  (5) 
energy

$$$$
5:0
     RDKit          3D

 80 84  0  0  0  0  0  0  0  0999 V2000
   58.8950   30.8240   50.2300 C   0  0  0  0  0  0  0  0  0  0  0  0
   60.2590   31.2900   49.9880 N   0  0  0  0  0  0  0  0  0  0  0  0
   61.1480   30.1570   49.7010 C   0  0  0  0  0  0  0  0  0  0  0  0
   61.4500   30.0880   48.2030 C   0  0  0  0  0  0  0  0  0  0  0  0
   60.2070   30.0310   47.4290 N   0  0  0  0  0  0  0  0  0  0  0  0
   59.7190   31.0260   46.6580 C   0  0  0  0  0  0  0  0  0  0  0  0
   58.5940   30.5950   45.9750 C   0  0  0  0  0  0  0  0  0  0  0  0
   57.8150   31.4320   45.0600 C   0  0  0  0  0  0  0  0  0  0  0  0
   56.6170   31.1330   44.8060 O   0  0  0  0  0  0  0  0  0  0  0  0
   58.4010   32.6150   44.5130 N   0  0  0  0  0  0  0  0  0  0  0  0
   57.8820   33.9520   44.7670 C   0  0  0  0  0  0  0  0  0  0  0  0
   58.5170   34.5580   46.0330 C   0  0  0  0  0  0  0  0  0  0  0  0
   58.2920   33.6550   47.2710 C   0  0  0  0  0  0  0  0  0  0  0  0
   59.3610   33.9250   48.3340 C   0  0  0  0  0  0  0  0  0  0  0  0
   60.7160   33.5710   47.8480 N   0  0  0  0  0  0  0  0  0  0  0  0
   61.7420   34.2400   48.6630 C   0  0  0  0  0  0  0  0  0  0  0  0
   60.9350   33.8110   46.3980 C   0  0  0  0  0  0  0  0  0  0  0  0
   60.0150   34.9050   45.8280 C   0  0  0  0  0  0  0  0  0  0  0  0
   58.3860   29.2690   46.3510 C   0  0  0  0  0  0  0  0  0  0  0  0
   57.3960   28.3230   46.0060 C   0  0  0  0  0  0  0  0  0  0  0  0
   56.3670   28.6530   44.9520 C   0  0  0  0  0  0  0  0  0  0  0  0
   57.4320   27.0550   46.6700 C   0  0  0  0  0  0  0  0  0  0  0  0
   56.3450   26.0540   46.4820 C   0  0  0  0  0  0  0  0  0  0  0  0
   55.2480   26.4230   45.9840 O   0  0  0  0  0  0  0  0  0  0  0  0
   56.5330   24.6630   46.7660 N   0  0  0  0  0  0  0  0  0  0  0  0
   57.1300   23.7200   45.8710 C   0  0  0  0  0  0  0  0  0  0  0  0
   58.5230   23.7100   45.7260 C   0  0  0  0  0  0  0  0  0  0  0  0
   59.1400   22.7640   44.9030 C   0  0  0  0  0  0  0  0  0  0  0  0
   58.3660   21.8280   44.2120 C   0  0  0  0  0  0  0  0  0  0  0  0
   56.9740   21.8500   44.3240 C   0  0  0  0  0  0  0  0  0  0  0  0
   56.3420   22.8020   45.1370 C   0  0  0  0  0  0  0  0  0  0  0  0
   54.9080   22.8470   45.1700 N   0  0  0  0  0  0  0  0  0  0  0  0
   54.1700   21.8610   45.9680 C   0  0  0  0  0  0  0  0  0  0  0  0
   52.8100   22.4330   46.3750 C   0  0  0  0  0  0  0  0  0  0  0  0
   52.1230   22.9290   45.2430 O   0  0  0  0  0  0  0  0  0  0  0  0
   52.8060   24.0600   44.7350 C   0  0  0  0  0  0  0  0  0  0  0  0
   54.1910   23.6730   44.1980 C   0  0  0  0  0  0  0  0  0  0  0  0
   58.4880   26.7740   47.5720 C   0  0  0  0  0  0  0  0  0  0  0  0
   59.4820   27.7220   47.8480 C   0  0  0  0  0  0  0  0  0  0  0  0
   59.3930   28.9690   47.2410 C   0  0  0  0  0  0  0  0  0  0  0  0
   58.7153   30.7626   51.3135 H   0  0  0  0  0  0  0  0  0  0  0  0
   58.1812   31.5292   49.7793 H   0  0  0  0  0  0  0  0  0  0  0  0
   58.7619   29.8294   49.7793 H   0  0  0  0  0  0  0  0  0  0  0  0
   60.2350   31.9110   49.1440 H   0  0  0  0  0  0  0  0  0  0  0  0
   62.0893   30.2842   50.2558 H   0  0  0  0  0  0  0  0  0  0  0  0
   60.6524   29.2249   50.0103 H   0  0  0  0  0  0  0  0  0  0  0  0
   62.0194   30.9815   47.9074 H   0  0  0  0  0  0  0  0  0  0  0  0
   62.0361   29.1794   48.0006 H   0  0  0  0  0  0  0  0  0  0  0  0
   60.1526   32.0341   46.5831 H   0  0  0  0  0  0  0  0  0  0  0  0
   58.1109   34.5966   43.9056 H   0  0  0  0  0  0  0  0  0  0  0  0
   56.7946   33.8836   44.9181 H   0  0  0  0  0  0  0  0  0  0  0  0
   58.0010   35.5096   46.2284 H   0  0  0  0  0  0  0  0  0  0  0  0
   57.2988   33.8636   47.6954 H   0  0  0  0  0  0  0  0  0  0  0  0
   58.3581   32.6020   46.9597 H   0  0  0  0  0  0  0  0  0  0  0  0
   59.3432   34.9935   48.5947 H   0  0  0  0  0  0  0  0  0  0  0  0
   59.1372   33.3022   49.2127 H   0  0  0  0  0  0  0  0  0  0  0  0
   61.5165   34.0929   49.7295 H   0  0  0  0  0  0  0  0  0  0  0  0
   62.7289   33.8113   48.4344 H   0  0  0  0  0  0  0  0  0  0  0  0
   61.7478   35.3160   48.4344 H   0  0  0  0  0  0  0  0  0  0  0  0
   61.9806   34.1173   46.2466 H   0  0  0  0  0  0  0  0  0  0  0  0
   60.7028   32.8749   45.8690 H   0  0  0  0  0  0  0  0  0  0  0  0
   60.2337   35.8555   46.3365 H   0  0  0  0  0  0  0  0  0  0  0  0
   60.2043   34.9839   44.7473 H   0  0  0  0  0  0  0  0  0  0  0  0
   55.4275   28.9543   45.4384 H   0  0  0  0  0  0  0  0  0  0  0  0
   56.7361   29.4778   44.3248 H   0  0  0  0  0  0  0  0  0  0  0  0
   56.1875   27.7673   44.3248 H   0  0  0  0  0  0  0  0  0  0  0  0
   59.1344   24.4504   46.2626 H   0  0  0  0  0  0  0  0  0  0  0  0
   60.2351   22.7562   44.7991 H   0  0  0  0  0  0  0  0  0  0  0  0
   58.8539   21.0725   43.5787 H   0  0  0  0  0  0  0  0  0  0  0  0
   56.3696   21.1159   43.7710 H   0  0  0  0  0  0  0  0  0  0  0  0
   54.0185   20.9491   45.3718 H   0  0  0  0  0  0  0  0  0  0  0  0
   54.7478   21.6219   46.8730 H   0  0  0  0  0  0  0  0  0  0  0  0
   52.2094   21.6399   46.8443 H   0  0  0  0  0  0  0  0  0  0  0  0
   52.9689   23.2582   47.0848 H   0  0  0  0  0  0  0  0  0  0  0  0
   52.2144   24.5006   43.9190 H   0  0  0  0  0  0  0  0  0  0  0  0
   52.9376   24.7851   45.5517 H   0  0  0  0  0  0  0  0  0  0  0  0
   54.0708   23.1077   43.2621 H   0  0  0  0  0  0  0  0  0  0  0  0
   54.7701   24.5905   44.0167 H   0  0  0  0  0  0  0  0  0  0  0  0
   58.5282   25.7917   48.0655 H   0  0  0  0  0  0  0  0  0  0  0  0
   60.3129   27.4850   48.5288 H   0  0  0  0  0  0  0  0  0  0  0  0
  1  2  1  0
  2  3  1  0
  3  4  1  0
  4  5  1  0
  5  6  1  0
  6  7  2  0
  7  8  1  0
  8  9  2  0
  8 10  1  0
 10 11  1  0
 11 12  1  0
 12 13  1  0
 13 14  1  0
 14 15  1  0
 15 16  1  0
 15 17  1  0
 17 18  1  0
  7 19  1  0
 19 20  2  0
 20 21  1  0
 20 22  1  0
 22 23  1  0
 23 24  2  0
 23 25  1  0
 25 26  1  0
 26 27  2  0
 27 28  1  0
 28 29  2  0
 29 30  1  0
 30 31  2  0
 31 32  1  0
 32 33  1  0
 33 34  1  0
 34 35  1  0
 35 36  1  0
 36 37  1  0
 22 38  2  0
 38 39  1  0
 39 40  2  0
 40  5  1  0
 18 12  1  0
 40 19  1  0
 31 26  1  0
 37 32  1  0
  1 41  1  0
  1 42  1  0
  1 43  1  0
  2 44  1  0
  3 45  1  0
  3 46  1  0
  4 47  1  0
  4 48  1  0
  6 49  1  0
 11 50  1  0
 11 51  1  0
 12 52  1  0
 13 53  1  0
 13 54  1  0
 14 55  1  0
 14 56  1  0
 16 57  1  0
 16 58  1  0
 16 59  1  0
 17 60  1  0
 17 61  1  0
 18 62  1  0
 18 63  1  0
 21 64  1  0
 21 65  1  0
 21 66  1  0
 27 67  1  0
 28 68  1  0
 29 69  1  0
 30 70  1  0
 33 71  1  0
 33 72  1  0
 34 73  1  0
 34 74  1  0
 36 75  1  0
 36 76  1  0
 37 77  1  0
 37 78  1  0
 38 79  1  0
 39 80  1  0
M  CHG  2  10  -1  25  -1
M  END
>  <UniqueID>  (6) 
5

>  <SMILES>  (6) 
CNCCn1cc(C(=O)[N-]CC2CCN(C)CC2)c2c(C)c(C(=O)[N-]c3ccccc3N3CCOCC3)ccc21

>  <Energy>  (6) 
149.70009708089154

>  <Genealogy>  (6) 
CNCCn1cc(C(=O)[N-]CC2CCN(C)CC2)c2c(C)c(C(=O)[N-]c3ccccc3N3CCOCC3)ccc21 (protonated)
CNCCn1cc(C(=O)[N-]CC2CCN(C)CC2)c2c(C)c(C(=O)[N-]c3ccccc3N3CCOCC3)ccc21 (3D coordinates assigned)
CNCCn1cc(C(=O)[N-]CC2CCN(C)CC2)c2c(C)c(C(=O)[N-]c3ccccc3N3CCOCC3)ccc21 (nonaromatic ring conformer: 149.70009708089154 kcal/mol)

>  <smiles>  (6) 
CNCCn1cc(C(=O)NCC2CCN(C)CC2)c2c(C)c(C(=O)Nc3ccccc3N3CCOCC3)ccc21

>  <score_type>  (6) 
oracle

>  <origin>  (6) 
adg

>  <m_score__min__energy>  (6) 
-13.24

>  <m_primary>  (6) 
energy

$$$$
6:0
     RDKit          3D

 44 46  0  0  0  0  0  0  0  0999 V2000
   59.6530   35.7180   45.9020 C   0  0  0  0  0  0  0  0  0  0  0  0
   60.2960   34.8950   47.0120 C   0  0  0  0  0  0  0  0  0  0  0  0
   59.8480   33.4610   46.9410 C   0  0  0  0  0  0  0  0  0  0  0  0
   58.5010   33.1280   47.1540 C   0  0  0  0  0  0  0  0  0  0  0  0
   58.0910   31.7920   47.1230 C   0  0  0  0  0  0  0  0  0  0  0  0
   59.0230   30.7730   46.8830 C   0  0  0  0  0  0  0  0  0  0  0  0
   58.5940   29.3610   46.8620 C   0  0  0  0  0  0  0  0  0  0  0  0
   59.2730   28.3630   47.5670 C   0  0  0  0  0  0  0  0  0  0  0  0
   60.4800   28.5500   48.4340 C   0  0  0  0  0  0  0  0  0  0  0  0
   58.5910   26.8710   47.2070 S   0  0  0  0  0  0  0  0  0  0  0  0
   57.3980   27.4720   46.1830 C   0  0  0  0  0  0  0  0  0  0  0  0
   56.4580   26.6760   45.4490 N   0  0  0  0  0  0  0  0  0  0  0  0
   55.6760   25.6040   45.9880 C   0  0  0  0  0  0  0  0  0  0  0  0
   54.4220   25.7060   45.9740 O   0  0  0  0  0  0  0  0  0  0  0  0
   56.3100   24.4360   46.6320 C   0  0  0  0  0  0  0  0  0  0  0  0
   56.3720   24.2710   47.9670 N   0  0  0  0  0  0  0  0  0  0  0  0
   57.0110   23.0930   48.1110 C   0  0  0  0  0  0  0  0  0  0  0  0
   57.2660   22.5930   49.2370 O   0  0  0  0  0  0  0  0  0  0  0  0
   57.3590   22.4970   46.9540 N   0  0  0  0  0  0  0  0  0  0  0  0
   56.9020   23.3440   46.0140 C   0  0  0  0  0  0  0  0  0  0  0  0
   57.1250   23.1340   44.5470 C   0  0  0  0  0  0  0  0  0  0  0  0
   55.8940   22.5710   43.9120 C   0  0  0  0  0  0  0  0  0  0  0  0
   55.9850   21.7910   42.9280 O   0  0  0  0  0  0  0  0  0  0  0  0
   54.6420   22.8750   44.4330 O   0  0  0  0  0  0  0  0  0  0  0  0
   57.5300   28.8590   46.0720 C   0  0  0  0  0  0  0  0  0  0  0  0
   56.6250   29.6970   45.2470 C   0  0  0  0  0  0  0  0  0  0  0  0
   57.0390   30.7690   44.7350 O   0  0  0  0  0  0  0  0  0  0  0  0
   55.3150   29.3020   45.0050 O   0  0  0  0  0  0  0  0  0  0  0  0
   60.3710   31.1010   46.6870 C   0  0  0  0  0  0  0  0  0  0  0  0
   60.7830   32.4370   46.7200 C   0  0  0  0  0  0  0  0  0  0  0  0
   59.0333   36.5112   46.3456 H   0  0  0  0  0  0  0  0  0  0  0  0
   60.4386   36.1714   45.2796 H   0  0  0  0  0  0  0  0  0  0  0  0
   59.0231   35.0654   45.2796 H   0  0  0  0  0  0  0  0  0  0  0  0
   61.3899   34.9369   46.9046 H   0  0  0  0  0  0  0  0  0  0  0  0
   59.9905   35.3124   47.9828 H   0  0  0  0  0  0  0  0  0  0  0  0
   57.7646   33.9222   47.3462 H   0  0  0  0  0  0  0  0  0  0  0  0
   57.0331   31.5395   47.2876 H   0  0  0  0  0  0  0  0  0  0  0  0
   60.1822   28.5039   49.4919 H   0  0  0  0  0  0  0  0  0  0  0  0
   61.2096   27.7542   48.2234 H   0  0  0  0  0  0  0  0  0  0  0  0
   60.9346   29.5293   48.2234 H   0  0  0  0  0  0  0  0  0  0  0  0
   57.3689   24.0973   44.0752 H   0  0  0  0  0  0  0  0  0  0  0  0
   57.9556   22.4263   44.4083 H   0  0  0  0  0  0  0  0  0  0  0  0
   61.1080   30.3046   46.5065 H   0  0  0  0  0  0  0  0  0  0  0  0
   61.8440   32.6867   46.5722 H   0  0  0  0  0  0  0  0  0  0  0  0
  1  2  1  0
  2  3  1  0
  3  4  2  0
  4  5  1  0
  5  6  2  0
  6  7  1  0
  7  8  2  0
  8  9  1  0
  8 10  1  0
 10 11  1  0
 11 12  1  0
 12 13  1  0
 13 14  2  0
 13 15  1  0
 15 16  1  0
 16 17  1  0
 17 18  2  0
 17 19  1  0
 19 20  1  0
 20 21  1  0
 21 22  1  0
 22 23  2  0
 22 24  1  0
 11 25  2  0
 25 26  1  0
 26 27  2  0
 26 28  1  0
  6 29  1  0
 29 30  2  0
 30  3  1  0
 25  7  1  0
 20 15  2  0
  1 31  1  0
  1 32  1  0
  1 33  1  0
  2 34  1  0
  2 35  1  0
  4 36  1  0
  5 37  1  0
  9 38  1  0
  9 39  1  0
  9 40  1  0
 21 41  1  0
 21 42  1  0
 29 43  1  0
 30 44  1  0
M  CHG  5  12  -1  16  -1  19  -1  24  -1  28  -1
M  END
>  <UniqueID>  (7) 
6

>  <SMILES>  (7) 
CCc1ccc(-c2c(C)sc([N-]C(=O)c3[n-]c(=O)[n-]c3CC(=O)[O-])c2C(=O)[O-])cc1

>  <Energy>  (7) 
108.58793808967118

>  <Genealogy>  (7) 
CCc1ccc(-c2c(C)sc([N-]C(=O)c3[n-]c(=O)[n-]c3CC(=O)[O-])c2C(=O)[O-])cc1 (protonated)
CCc1ccc(-c2c(C)sc([N-]C(=O)c3[n-]c(=O)[n-]c3CC(=O)[O-])c2C(=O)[O-])cc1 (3D coordinates assigned)
CCc1ccc(-c2c(C)sc([N-]C(=O)c3[n-]c(=O)[n-]c3CC(=O)[O-])c2C(=O)[O-])cc1 (optimized conformer: 108.58793808967118 kcal/mol)

>  <smiles>  (7) 
CCc1ccc(-c2c(C)sc(NC(=O)c3[nH]c(=O)[nH]c3CC(=O)O)c2C(=O)O)cc1

>  <score_type>  (7) 
oracle

>  <origin>  (7) 
adg

>  <m_score__min__energy>  (7) 
-18.050000000000001

>  <m_primary>  (7) 
energy

$$$$
7:0
     RDKit          3D

 27 29  0  0  0  0  0  0  0  0999 V2000
   55.4579   24.0241   46.6707 H   0  0  0  0  0  0  0  0  0  0  0  0
   55.9040   24.9890   46.3880 C   0  0  0  0  0  0  0  0  0  0  0  0
   57.2420   25.2290   46.4580 N   0  0  0  0  0  0  0  0  0  0  0  0
   57.3260   26.4960   46.0290 C   0  0  0  0  0  0  0  0  0  0  0  0
   58.4410   27.3030   45.8720 C   0  0  0  0  0  0  0  0  0  0  0  0
   59.5980   26.8870   46.1420 O   0  0  0  0  0  0  0  0  0  0  0  0
   58.2480   28.5720   45.4080 N   0  0  0  0  0  0  0  0  0  0  0  0
   56.9900   29.0460   45.1130 C   0  0  0  0  0  0  0  0  0  0  0  0
   56.8150   30.2480   44.6480 N   0  0  0  0  0  0  0  0  0  0  0  0
   57.4340   31.4550   45.1220 C   0  0  0  0  0  0  0  0  0  0  0  0
   57.4020   32.6500   44.3820 C   0  0  0  0  0  0  0  0  0  0  0  0
   56.8675   32.6844   43.4212 H   0  0  0  0  0  0  0  0  0  0  0  0
   58.0460   33.7950   44.8610 C   0  0  0  0  0  0  0  0  0  0  0  0
   57.9951   34.7303   44.2842 H   0  0  0  0  0  0  0  0  0  0  0  0
   58.7580   33.7620   46.0730 C   0  0  0  0  0  0  0  0  0  0  0  0
   59.4310   34.9860   46.5710 C   0  0  0  0  0  0  0  0  0  0  0  0
   59.7530   35.0690   47.7870 O   0  0  0  0  0  0  0  0  0  0  0  0
   59.7130   36.0910   45.7060 N   0  0  0  0  0  0  0  0  0  0  0  0
   60.2410   36.9140   46.0710 H   0  0  0  0  0  0  0  0  0  0  0  0
   59.3300   36.1420   44.7370 H   0  0  0  0  0  0  0  0  0  0  0  0
   58.8050   32.5570   46.7990 C   0  0  0  0  0  0  0  0  0  0  0  0
   59.3534   32.5140   47.7516 H   0  0  0  0  0  0  0  0  0  0  0  0
   58.1590   31.4140   46.3170 C   0  0  0  0  0  0  0  0  0  0  0  0
   58.2219   30.4733   46.8837 H   0  0  0  0  0  0  0  0  0  0  0  0
   55.9030   28.2280   45.2660 N   0  0  0  0  0  0  0  0  0  0  0  0
   56.1000   26.9700   45.7260 C   0  0  0  0  0  0  0  0  0  0  0  0
   55.1620   26.0390   45.9400 N   0  0  0  0  0  0  0  0  0  0  0  0
  1  2  1  0
  2  3  2  0
  3  4  1  0
  4  5  1  0
  5  6  2  0
  5  7  1  0
  7  8  1  0
  8  9  2  0
  9 10  1  0
 10 11  2  0
 11 12  1  0
 11 13  1  0
 13 14  1  0
 13 15  2  0
 15 16  1  0
 16 17  2  0
 16 18  1  0
 18 19  1  0
 18 20  1  0
 15 21  1  0
 21 22  1  0
 21 23  2  0
 23 24  1  0
  8 25  1  0
 25 26  1  0
 26 27  1  0
 27  2  1  0
 26  4  2  0
 23 10  1  0
M  CHG  3   7  -1  25  -1  27  -1
M  END
>  <UniqueID>  (8) 
7

>  <SMILES>  (8) 
NC(=O)c1ccc(/N=c2\[n-]c(=O)c3nc[n-]c3[n-]2)cc1

>  <Energy>  (8) 
76.0762403657737

>  <Genealogy>  (8) 
NC(=O)c1ccc(N=c2[n-]c(=O)c3nc[n-]c3[n-]2)cc1 (protonated)
NC(=O)c1ccc(/N=c2\[n-]c(=O)c3nc[n-]c3[n-]2)cc1 (cis-trans isomerization)
NC(=O)c1ccc(/N=c2\[n-]c(=O)c3nc[n-]c3[n-]2)cc1 (3D coordinates assigned)
NC(=O)c1ccc(/N=c2\[n-]c(=O)c3nc[n-]c3[n-]2)cc1 (optimized conformer: 76.0762403657737 kcal/mol)

>  <smiles>  (8) 
NC(=O)c1ccc(N=c2[nH]c(=O)c3nc[nH]c3[nH]2)cc1

>  <score_type>  (8) 
oracle

>  <origin>  (8) 
adg

>  <m_score__min__energy>  (8) 
-11.890000000000001

>  <m_primary>  (8) 
energy

$$$$
8:0
     RDKit          3D

 27 28  0  0  0  0  0  0  0  0999 V2000
   59.0350   29.4050   48.0050 C   0  0  0  0  0  0  0  0  0  0  0  0
   58.6160   30.3770   47.1740 C   0  0  0  0  0  0  0  0  0  0  0  0
   58.5350   31.6190   47.7160 N   0  0  0  0  0  0  0  0  0  0  0  0
   58.1770   32.7150   47.0150 C   0  0  0  0  0  0  0  0  0  0  0  0
   57.8250   32.6110   45.6720 C   0  0  0  0  0  0  0  0  0  0  0  0
   57.3760   33.8580   44.9480 C   0  0  0  0  0  0  0  0  0  0  0  0
   57.8300   31.3360   45.0550 C   0  0  0  0  0  0  0  0  0  0  0  0
   57.0700   31.1940   43.5910 S   0  0  0  0  0  0  0  0  0  0  0  0
   58.3100   30.1890   45.7820 C   0  0  0  0  0  0  0  0  0  0  0  0
   58.4660   28.9620   45.1970 C   0  0  0  0  0  0  0  0  0  0  0  0
   57.6960   27.7340   45.5120 C   0  0  0  0  0  0  0  0  0  0  0  0
   56.2950   27.7750   45.5650 C   0  0  0  0  0  0  0  0  0  0  0  0
   55.6110   28.9520   45.2680 O   0  0  0  0  0  0  0  0  0  0  0  0
   55.5970   26.6580   45.8970 N   0  0  0  0  0  0  0  0  0  0  0  0
   56.2320   25.4960   46.1970 C   0  0  0  0  0  0  0  0  0  0  0  0
   55.3650   24.1700   46.5880 S   0  0  0  0  0  0  0  0  0  0  0  0
   57.5880   25.4390   46.1820 N   0  0  0  0  0  0  0  0  0  0  0  0
   58.3330   26.5280   45.8590 C   0  0  0  0  0  0  0  0  0  0  0  0
   59.5900   26.4450   45.8820 O   0  0  0  0  0  0  0  0  0  0  0  0
   59.1269   28.3713   47.6402 H   0  0  0  0  0  0  0  0  0  0  0  0
   59.2856   29.6442   49.0490 H   0  0  0  0  0  0  0  0  0  0  0  0
   58.1632   33.6981   47.5084 H   0  0  0  0  0  0  0  0  0  0  0  0
   57.0986   34.6285   45.6824 H   0  0  0  0  0  0  0  0  0  0  0  0
   58.1962   34.2311   44.3171 H   0  0  0  0  0  0  0  0  0  0  0  0
   56.5062   33.6226   44.3171 H   0  0  0  0  0  0  0  0  0  0  0  0
   59.2374   28.8781   44.4173 H   0  0  0  0  0  0  0  0  0  0  0  0
   55.5840   29.7180   45.9310 H   0  0  0  0  0  0  0  0  0  0  0  0
  1  2  2  0
  2  3  1  0
  3  4  1  0
  4  5  2  0
  5  6  1  0
  5  7  1  0
  7  8  2  0
  7  9  1  0
  9 10  2  3
 10 11  1  0
 11 12  2  0
 12 13  1  0
 12 14  1  0
 14 15  1  0
 15 16  2  0
 15 17  1  0
 17 18  1  0
 18 19  2  0
  9  2  1  0
 18 11  1  0
  1 20  1  0
  1 21  1  0
  4 22  1  0
  6 23  1  0
  6 24  1  0
  6 25  1  0
 10 26  1  0
 13 27  1  0
M  CHG  3   3  -1  14  -1  17  -1
M  END
>  <UniqueID>  (9) 
8

>  <SMILES>  (9) 
C=c1[n-]cc(C)c(=S)c1=Cc1c(O)[n-]c(=S)[n-]c1=O

>  <Energy>  (9) 
60.05637923338496

>  <Genealogy>  (9) 
C=c1[n-]cc(C)c(=S)c1=Cc1c(O)[n-]c(=S)[n-]c1=O (protonated)
C=c1[n-]cc(C)c(=S)c1=Cc1c(O)[n-]c(=S)[n-]c1=O (3D coordinates assigned)
C=c1[n-]cc(C)c(=S)c1=Cc1c(O)[n-]c(=S)[n-]c1=O (optimized conformer: 60.05637923338496 kcal/mol)

>  <smiles>  (9) 
C=c1[nH]cc(C)c(=S)c1=Cc1c(O)[nH]c(=S)[nH]c1=O

>  <score_type>  (9) 
oracle

>  <origin>  (9) 
adg

>  <m_score__min__energy>  (9) 
-12.130000000000001

>  <m_primary>  (9) 
energy

$$$$
9:0
     RDKit          3D

 54 58  0  0  0  0  0  0  0  0999 V2000
   58.7800   29.1470   47.4120 C   0  0  0  0  0  0  0  0  0  0  0  0
   58.9060   30.5740   47.7290 N   0  0  0  0  0  0  0  0  0  0  0  0
   59.3220   31.0720   48.9260 C   0  0  0  0  0  0  0  0  0  0  0  0
   59.4620   30.2950   50.1770 C   0  0  0  0  0  0  0  0  0  0  0  0
   60.3410   29.3950   50.2450 O   0  0  0  0  0  0  0  0  0  0  0  0
   58.5680   30.5000   51.2870 N   0  0  0  0  0  0  0  0  0  0  0  0
   58.1830   29.3450   52.1130 C   0  0  0  0  0  0  0  0  0  0  0  0
   57.2570   29.7610   53.2620 C   0  0  0  0  0  0  0  0  0  0  0  0
   56.2440   30.7010   52.7660 N   0  0  0  0  0  0  0  0  0  0  0  0
   54.8400   30.4330   52.9460 C   0  0  0  0  0  0  0  0  0  0  0  0
   54.4060   29.5530   53.9520 C   0  0  0  0  0  0  0  0  0  0  0  0
   53.0430   29.3040   54.1340 C   0  0  0  0  0  0  0  0  0  0  0  0
   52.1010   29.9350   53.3190 C   0  0  0  0  0  0  0  0  0  0  0  0
   52.5190   30.8190   52.3200 C   0  0  0  0  0  0  0  0  0  0  0  0
   51.3350   31.6200   51.3050 Cl  0  0  0  0  0  0  0  0  0  0  0  0
   53.8830   31.0690   52.1360 C   0  0  0  0  0  0  0  0  0  0  0  0
   56.6650   31.8880   52.0070 C   0  0  0  0  0  0  0  0  0  0  0  0
   58.1660   31.8550   51.6940 C   0  0  0  0  0  0  0  0  0  0  0  0
   59.5560   32.4330   48.8390 C   0  0  0  0  0  0  0  0  0  0  0  0
   59.2630   32.7670   47.5370 C   0  0  0  0  0  0  0  0  0  0  0  0
   59.3830   33.9940   46.9010 C   0  0  0  0  0  0  0  0  0  0  0  0
   59.7910   34.9910   47.5580 O   0  0  0  0  0  0  0  0  0  0  0  0
   59.0690   34.0950   45.5640 N   0  0  0  0  0  0  0  0  0  0  0  0
   59.2380   35.3930   44.8800 C   0  0  0  0  0  0  0  0  0  0  0  0
   58.5760   32.9920   44.8730 C   0  0  0  0  0  0  0  0  0  0  0  0
   58.1990   33.0870   43.5110 C   0  0  0  0  0  0  0  0  0  0  0  0
   57.6450   32.0010   42.8390 C   0  0  0  0  0  0  0  0  0  0  0  0
   57.4280   30.8020   43.5060 C   0  0  0  0  0  0  0  0  0  0  0  0
   57.7940   30.6650   44.8440 C   0  0  0  0  0  0  0  0  0  0  0  0
   58.4150   31.7270   45.5350 C   0  0  0  0  0  0  0  0  0  0  0  0
   58.8340   31.6420   46.8840 C   0  0  0  0  0  0  0  0  0  0  0  0
   58.7288   28.5672   48.3454 H   0  0  0  0  0  0  0  0  0  0  0  0
   57.8637   28.9810   46.8265 H   0  0  0  0  0  0  0  0  0  0  0  0
   59.6530   28.8230   46.8265 H   0  0  0  0  0  0  0  0  0  0  0  0
   57.6613   28.6113   51.4809 H   0  0  0  0  0  0  0  0  0  0  0  0
   59.0960   28.9096   52.5453 H   0  0  0  0  0  0  0  0  0  0  0  0
   56.7593   28.8696   53.6714 H   0  0  0  0  0  0  0  0  0  0  0  0
   57.8505   30.2476   54.0501 H   0  0  0  0  0  0  0  0  0  0  0  0
   55.1436   29.0572   54.6001 H   0  0  0  0  0  0  0  0  0  0  0  0
   52.7117   28.6099   54.9204 H   0  0  0  0  0  0  0  0  0  0  0  0
   51.0288   29.7363   53.4632 H   0  0  0  0  0  0  0  0  0  0  0  0
   54.2091   31.7682   51.3519 H   0  0  0  0  0  0  0  0  0  0  0  0
   56.1039   31.9247   51.0616 H   0  0  0  0  0  0  0  0  0  0  0  0
   56.4609   32.7784   52.6198 H   0  0  0  0  0  0  0  0  0  0  0  0
   58.3829   32.5595   50.8775 H   0  0  0  0  0  0  0  0  0  0  0  0
   58.7280   32.1417   52.5951 H   0  0  0  0  0  0  0  0  0  0  0  0
   59.9020   33.1039   49.6391 H   0  0  0  0  0  0  0  0  0  0  0  0
   59.3420   36.1915   45.6294 H   0  0  0  0  0  0  0  0  0  0  0  0
   60.1396   35.3612   44.2506 H   0  0  0  0  0  0  0  0  0  0  0  0
   58.3583   35.5931   44.2506 H   0  0  0  0  0  0  0  0  0  0  0  0
   58.3466   34.0360   42.9746 H   0  0  0  0  0  0  0  0  0  0  0  0
   57.3781   32.0927   41.7758 H   0  0  0  0  0  0  0  0  0  0  0  0
   56.9651   29.9566   42.9758 H   0  0  0  0  0  0  0  0  0  0  0  0
   57.5964   29.7179   45.3673 H   0  0  0  0  0  0  0  0  0  0  0  0
  1  2  1  0
  2  3  1  0
  3  4  1  0
  4  5  2  0
  4  6  1  0
  6  7  1  0
  7  8  1  0
  8  9  1  0
  9 10  1  0
 10 11  2  0
 11 12  1  0
 12 13  2  0
 13 14  1  0
 14 15  1  0
 14 16  2  0
  9 17  1  0
 17 18  1  0
  3 19  2  0
 19 20  1  0
 20 21  1  0
 21 22  2  0
 21 23  1  0
 23 24  1  0
 23 25  1  0
 25 26  2  0
 26 27  1  0
 27 28  2  0
 28 29  1  0
 29 30  2  0
 30 31  1  0
 31  2  1  0
 18  6  1  0
 31 20  2  0
 16 10  1  0
 30 25  1  0
  1 32  1  0
  1 33  1  0
  1 34  1  0
  7 35  1  0
  7 36  1  0
  8 37  1  0
  8 38  1  0
 11 39  1  0
 12 40  1  0
 13 41  1  0
 16 42  1  0
 17 43  1  0
 17 44  1  0
 18 45  1  0
 18 46  1  0
 19 47  1  0
 24 48  1  0
 24 49  1  0
 24 50  1  0
 26 51  1  0
 27 52  1  0
 28 53  1  0
 29 54  1  0
M  END
>  <UniqueID>  (10) 
9

>  <SMILES>  (10) 
Cn1c(C(=O)N2CCN(c3cccc(Cl)c3)CC2)cc2c(=O)n(C)c3ccccc3c21

>  <Energy>  (10) 
120.22481385890356

>  <Genealogy>  (10) 
Cn1c(C(=O)N2CCN(c3cccc(Cl)c3)CC2)cc2c(=O)n(C)c3ccccc3c21 (3D coordinates assigned)
Cn1c(C(=O)N2CCN(c3cccc(Cl)c3)CC2)cc2c(=O)n(C)c3ccccc3c21 (nonaromatic ring conformer: 120.22481385890356 kcal/mol)

>  <smiles>  (10) 
Cn1c(C(=O)N2CCN(c3cccc(Cl)c3)CC2)cc2c(=O)n(C)c3ccccc3c21

>  <score_type>  (10) 
oracle

>  <origin>  (10) 
adg

>  <m_score__min__energy>  (10) 
-8.6199999999999992

>  <m_primary>  (10) 
energy

$$$$
10:0
     RDKit          3D

 68 71  0  0  0  0  0  0  0  0999 V2000
   58.0019   20.2905   43.6641 H   0  0  0  0  0  0  0  0  0  0  0  0
   57.4360   21.0860   44.1710 C   0  0  0  0  0  0  0  0  0  0  0  0
   57.4910   21.2170   45.5600 C   0  0  0  0  0  0  0  0  0  0  0  0
   58.2440   20.3620   46.2940 F   0  0  0  0  0  0  0  0  0  0  0  0
   56.7900   22.2030   46.1790 N   0  0  0  0  0  0  0  0  0  0  0  0
   56.0190   23.0870   45.4830 C   0  0  0  0  0  0  0  0  0  0  0  0
   55.3530   24.0290   46.0860 N   0  0  0  0  0  0  0  0  0  0  0  0
   55.8240   25.3400   46.4380 C   0  0  0  0  0  0  0  0  0  0  0  0
   55.0690   26.3450   46.3450 O   0  0  0  0  0  0  0  0  0  0  0  0
   57.1670   25.5280   46.8970 N   0  0  0  0  0  0  0  0  0  0  0  0
   58.3320   25.8610   46.0720 C   0  0  1  0  0  0  0  0  0  0  0  0
   58.7173   24.9603   45.5718 H   0  0  0  0  0  0  0  0  0  0  0  0
   57.9320   26.7890   44.9320 C   0  0  0  0  0  0  0  0  0  0  0  0
   58.1310   26.4610   43.5750 C   0  0  0  0  0  0  0  0  0  0  0  0
   58.5720   25.4894   43.3075 H   0  0  0  0  0  0  0  0  0  0  0  0
   57.7730   27.3590   42.5690 C   0  0  0  0  0  0  0  0  0  0  0  0
   57.9390   27.0943   41.5143 H   0  0  0  0  0  0  0  0  0  0  0  0
   57.2050   28.5920   42.8950 C   0  0  0  0  0  0  0  0  0  0  0  0
   56.9269   29.2957   42.0966 H   0  0  0  0  0  0  0  0  0  0  0  0
   56.9880   28.9360   44.2360 C   0  0  0  0  0  0  0  0  0  0  0  0
   56.3980   30.2400   44.5970 C   0  0  0  0  0  0  0  0  0  0  0  0
   55.1450   30.3580   44.6270 O   0  0  0  0  0  0  0  0  0  0  0  0
   57.2050   31.3930   44.8720 N   0  0  0  0  0  0  0  0  0  0  0  0
   57.9960   32.1090   43.8800 C   0  0  0  0  0  0  0  0  0  0  0  0
   58.7186   32.7631   44.3899 H   0  0  0  0  0  0  0  0  0  0  0  0
   58.5360   31.3864   43.2506 H   0  0  0  0  0  0  0  0  0  0  0  0
   57.3306   32.7181   43.2506 H   0  0  0  0  0  0  0  0  0  0  0  0
   57.3790   28.0440   45.2470 C   0  0  0  0  0  0  0  0  0  0  0  0
   57.2512   28.3304   46.3013 H   0  0  0  0  0  0  0  0  0  0  0  0
   59.5090   26.3390   46.9520 C   0  0  0  0  0  0  0  0  0  0  0  0
   59.9465   25.4674   47.4609 H   0  0  0  0  0  0  0  0  0  0  0  0
   60.2412   26.8311   46.2949 H   0  0  0  0  0  0  0  0  0  0  0  0
   59.0680   27.3640   48.0160 C   0  0  0  0  0  0  0  0  0  0  0  0
   58.1166   27.8177   47.7014 H   0  0  0  0  0  0  0  0  0  0  0  0
   58.9547   26.8365   48.9746 H   0  0  0  0  0  0  0  0  0  0  0  0
   60.0750   28.4350   48.1940 N   0  0  0  0  0  0  0  0  0  0  0  0
   59.7010   29.3490   49.3100 C   0  0  0  0  0  0  0  0  0  0  0  0
   58.8808   28.8873   49.8793 H   0  0  0  0  0  0  0  0  0  0  0  0
   60.6009   29.4970   49.9250 H   0  0  0  0  0  0  0  0  0  0  0  0
   59.2440   30.7330   48.8340 C   0  0  0  0  0  0  0  0  0  0  0  0
   58.3698   30.6212   48.1757 H   0  0  0  0  0  0  0  0  0  0  0  0
   58.9776   31.3452   49.7083 H   0  0  0  0  0  0  0  0  0  0  0  0
   60.3790   31.4260   48.0600 C   0  0  0  0  0  0  0  0  0  0  0  0
   61.1279   31.7734   48.7870 H   0  0  0  0  0  0  0  0  0  0  0  0
   59.8520   32.6590   47.3260 C   0  0  0  0  0  0  0  0  0  0  0  0
   58.4580   32.8630   47.2410 C   0  0  0  0  0  0  0  0  0  0  0  0
   57.7744   32.1237   47.6838 H   0  0  0  0  0  0  0  0  0  0  0  0
   57.9340   33.9880   46.6040 C   0  0  0  0  0  0  0  0  0  0  0  0
   56.8444   34.1254   46.5410 H   0  0  0  0  0  0  0  0  0  0  0  0
   58.7870   34.9370   46.0480 C   0  0  0  0  0  0  0  0  0  0  0  0
   58.3712   35.8213   45.5430 H   0  0  0  0  0  0  0  0  0  0  0  0
   60.1680   34.7670   46.1310 C   0  0  0  0  0  0  0  0  0  0  0  0
   60.8355   35.5222   45.6904 H   0  0  0  0  0  0  0  0  0  0  0  0
   60.7190   33.6420   46.7710 C   0  0  0  0  0  0  0  0  0  0  0  0
   62.2200   33.5210   46.8420 C   0  0  0  0  0  0  0  0  0  0  0  0
   62.5364   33.4955   47.8952 H   0  0  0  0  0  0  0  0  0  0  0  0
   62.5373   32.5944   46.3413 H   0  0  0  0  0  0  0  0  0  0  0  0
   62.6816   34.3848   46.3413 H   0  0  0  0  0  0  0  0  0  0  0  0
   61.1310   30.4430   47.1240 C   0  0  0  0  0  0  0  0  0  0  0  0
   61.2766   30.9277   46.1473 H   0  0  0  0  0  0  0  0  0  0  0  0
   62.0912   30.1965   47.6007 H   0  0  0  0  0  0  0  0  0  0  0  0
   60.3640   29.1280   46.9120 C   0  0  0  0  0  0  0  0  0  0  0  0
   59.4124   29.3502   46.4069 H   0  0  0  0  0  0  0  0  0  0  0  0
   60.9943   28.4633   46.3030 H   0  0  0  0  0  0  0  0  0  0  0  0
   55.9410   22.9830   44.0880 C   0  0  0  0  0  0  0  0  0  0  0  0
   55.3229   23.6884   43.5133 H   0  0  0  0  0  0  0  0  0  0  0  0
   56.6540   21.9770   43.4330 C   0  0  0  0  0  0  0  0  0  0  0  0
   56.5999   21.8865   42.3381 H   0  0  0  0  0  0  0  0  0  0  0  0
  1  2  1  0
  2  3  2  0
  3  4  1  0
  3  5  1  0
  5  6  1  0
  6  7  2  0
  7  8  1  0
  8  9  2  0
  8 10  1  0
 10 11  1  0
 11 12  1  6
 11 13  1  0
 13 14  2  0
 14 15  1  0
 14 16  1  0
 16 17  1  0
 16 18  2  0
 18 19  1  0
 18 20  1  0
 20 21  1  0
 21 22  2  0
 21 23  1  0
 23 24  1  0
 24 25  1  0
 24 26  1  0
 24 27  1  0
 20 28  2  0
 28 29  1  0
 11 30  1  0
 30 31  1  0
 30 32  1  0
 30 33  1  0
 33 34  1  0
 33 35  1  0
 33 36  1  0
 36 37  1  0
 37 38  1  0
 37 39  1  0
 37 40  1  0
 40 41  1  0
 40 42  1  0
 40 43  1  0
 43 44  1  0
 43 45  1  0
 45 46  2  0
 46 47  1  0
 46 48  1  0
 48 49  1  0
 48 50  2  0
 50 51  1  0
 50 52  1  0
 52 53  1  0
 52 54  2  0
 54 55  1  0
 55 56  1  0
 55 57  1  0
 55 58  1  0
 43 59  1  0
 59 60  1  0
 59 61  1  0
 59 62  1  0
 62 63  1  0
 62 64  1  0
  6 65  1  0
 65 66  1  0
 65 67  2  0
 67 68  1  0
 67  2  1  0
 28 13  1  0
 62 36  1  0
 54 45  1  0
M  CHG  3   5  -1  10  -1  23  -1
M  END
>  <UniqueID>  (11) 
10

>  <SMILES>  (11) 
C[N-]C(=O)c1cccc([C@@H](CCN2CCC(c3ccccc3C)CC2)[N-]C(=O)/N=c2/cccc(F)[n-]2)c1

>  <Energy>  (11) 
89.24850351686497

>  <Genealogy>  (11) 
C[N-]C(=O)c1cccc(C(CCN2CCC(c3ccccc3C)CC2)[N-]C(=O)N=c2cccc(F)[n-]2)c1 (protonated)
C[N-]C(=O)c1cccc([C@@H](CCN2CCC(c3ccccc3C)CC2)[N-]C(=O)N=c2cccc(F)[n-]2)c1 (chirality)
C[N-]C(=O)c1cccc([C@@H](CCN2CCC(c3ccccc3C)CC2)[N-]C(=O)/N=c2/cccc(F)[n-]2)c1 (cis-trans isomerization)
C[N-]C(=O)c1cccc([C@@H](CCN2CCC(c3ccccc3C)CC2)[N-]C(=O)/N=c2/cccc(F)[n-]2)c1 (3D coordinates assigned)
C[N-]C(=O)c1cccc([C@@H](CCN2CCC(c3ccccc3C)CC2)[N-]C(=O)/N=c2/cccc(F)[n-]2)c1 (nonaromatic ring conformer: 89.24850351686497 kcal/mol)

>  <smiles>  (11) 
CNC(=O)c1cccc(C(CCN2CCC(c3ccccc3C)CC2)NC(=O)N=c2cccc(F)[nH]2)c1

>  <score_type>  (11) 
oracle

>  <origin>  (11) 
adg

>  <m_score__min__energy>  (11) 
-13.83

>  <m_primary>  (11) 
energy

$$$$
11:0
     RDKit          3D

 49 52  0  0  0  0  0  0  0  0999 V2000
   55.4989   28.7020   44.9303 H   0  0  0  0  0  0  0  0  0  0  0  0
   56.3530   29.3740   44.7600 C   0  0  0  0  0  0  0  0  0  0  0  0
   56.2060   30.7010   44.5130 N   0  0  0  0  0  0  0  0  0  0  0  0
   57.4030   31.3060   44.3230 C   0  0  0  0  0  0  0  0  0  0  0  0
   57.5500   32.5750   44.0820 N   0  0  0  0  0  0  0  0  0  0  0  0
   57.4770   33.6340   45.0510 C   0  0  0  0  0  0  0  0  0  0  0  0
   56.6620   34.5730   44.8450 O   0  0  0  0  0  0  0  0  0  0  0  0
   58.2780   33.6360   46.3020 C   0  0  0  0  0  0  0  0  0  0  0  0
   58.0290   32.7020   47.3230 C   0  0  0  0  0  0  0  0  0  0  0  0
   57.2404   31.9467   47.1906 H   0  0  0  0  0  0  0  0  0  0  0  0
   58.7750   32.7250   48.5050 C   0  0  0  0  0  0  0  0  0  0  0  0
   58.5713   31.9872   49.2950 H   0  0  0  0  0  0  0  0  0  0  0  0
   59.7820   33.6840   48.6890 C   0  0  0  0  0  0  0  0  0  0  0  0
   60.5580   33.7310   49.9710 C   0  0  0  0  0  0  0  0  0  0  0  0
   59.8626   33.6889   50.8223 H   0  0  0  0  0  0  0  0  0  0  0  0
   61.2447   32.8728   50.0156 H   0  0  0  0  0  0  0  0  0  0  0  0
   61.1361   34.6658   50.0156 H   0  0  0  0  0  0  0  0  0  0  0  0
   60.0090   34.6410   47.6900 C   0  0  0  0  0  0  0  0  0  0  0  0
   60.7759   35.4155   47.8384 H   0  0  0  0  0  0  0  0  0  0  0  0
   59.2650   34.6160   46.5050 C   0  0  0  0  0  0  0  0  0  0  0  0
   59.4541   35.3694   45.7261 H   0  0  0  0  0  0  0  0  0  0  0  0
   58.6920   30.2380   44.4770 S   0  0  0  0  0  0  0  0  0  0  0  0
   57.6700   28.9350   44.7800 C   0  0  0  0  0  0  0  0  0  0  0  0
   58.1980   27.2520   45.0830 S   0  0  0  0  0  0  0  0  0  0  0  0
   58.9760   27.6860   46.6380 C   0  0  0  0  0  0  0  0  0  0  0  0
   59.9890   26.8730   47.1590 C   0  0  0  0  0  0  0  0  0  0  0  0
   60.3092   25.9748   46.6106 H   0  0  0  0  0  0  0  0  0  0  0  0
   60.5940   27.2010   48.3750 C   0  0  0  0  0  0  0  0  0  0  0  0
   61.4079   26.5746   48.7688 H   0  0  0  0  0  0  0  0  0  0  0  0
   60.1660   28.3290   49.0970 C   0  0  0  0  0  0  0  0  0  0  0  0
   60.7450   28.6820   50.3620 N   0  0  0  0  0  0  0  0  0  0  0  0
   61.2160   29.9810   50.7510 C   0  0  0  0  0  0  0  0  0  0  0  0
   60.4520   30.7340   51.4090 O   0  0  0  0  0  0  0  0  0  0  0  0
   62.5340   30.4440   50.4250 N   0  0  0  0  0  0  0  0  0  0  0  0
   62.8660   31.3620   49.3730 C   0  0  0  0  0  0  0  0  0  0  0  0
   63.8300   32.3700   49.5510 C   0  0  0  0  0  0  0  0  0  0  0  0
   64.3511   32.4666   50.5149 H   0  0  0  0  0  0  0  0  0  0  0  0
   64.1280   33.2500   48.5060 C   0  0  0  0  0  0  0  0  0  0  0  0
   64.8915   34.0296   48.6445 H   0  0  0  0  0  0  0  0  0  0  0  0
   63.4550   33.1390   47.2840 C   0  0  0  0  0  0  0  0  0  0  0  0
   63.6956   33.8263   46.4595 H   0  0  0  0  0  0  0  0  0  0  0  0
   62.4790   32.1570   47.1110 C   0  0  0  0  0  0  0  0  0  0  0  0
   61.9440   32.0771   46.1532 H   0  0  0  0  0  0  0  0  0  0  0  0
   62.1800   31.2740   48.1540 C   0  0  0  0  0  0  0  0  0  0  0  0
   61.4032   30.5074   48.0168 H   0  0  0  0  0  0  0  0  0  0  0  0
   59.1740   29.1550   48.5550 C   0  0  0  0  0  0  0  0  0  0  0  0
   58.8607   30.0602   49.0957 H   0  0  0  0  0  0  0  0  0  0  0  0
   58.5790   28.8360   47.3300 C   0  0  0  0  0  0  0  0  0  0  0  0
   57.7993   29.4888   46.9106 H   0  0  0  0  0  0  0  0  0  0  0  0
  1  2  1  0
  2  3  1  0
  3  4  1  0
  4  5  2  0
  5  6  1  0
  6  7  2  0
  6  8  1  0
  8  9  2  0
  9 10  1  0
  9 11  1  0
 11 12  1  0
 11 13  2  0
 13 14  1  0
 14 15  1  0
 14 16  1  0
 14 17  1  0
 13 18  1  0
 18 19  1  0
 18 20  2  0
 20 21  1  0
  4 22  1  0
 22 23  1  0
 23 24  1  0
 24 25  1  0
 25 26  2  0
 26 27  1  0
 26 28  1  0
 28 29  1  0
 28 30  2  0
 30 31  1  0
 31 32  1  0
 32 33  2  0
 32 34  1  0
 34 35  1  0
 35 36  2  0
 36 37  1  0
 36 38  1  0
 38 39  1  0
 38 40  2  0
 40 41  1  0
 40 42  1  0
 42 43  1  0
 42 44  2  0
 44 45  1  0
 30 46  1  0
 46 47  1  0
 46 48  2  0
 48 49  1  0
 23  2  2  0
 48 25  1  0
 20  8  1  0
 44 35  1  0
M  CHG  3   3  -1  31  -1  34  -1
M  END
>  <UniqueID>  (12) 
11

>  <SMILES>  (12) 
Cc1ccc(C(=O)/N=c2\[n-]cc(Sc3ccc([N-]C(=O)[N-]c4ccccc4)cc3)s2)cc1

>  <Energy>  (12) 
90.81760435803817

>  <Genealogy>  (12) 
Cc1ccc(C(=O)N=c2[n-]cc(Sc3ccc([N-]C(=O)[N-]c4ccccc4)cc3)s2)cc1 (protonated)
Cc1ccc(C(=O)/N=c2\[n-]cc(Sc3ccc([N-]C(=O)[N-]c4ccccc4)cc3)s2)cc1 (cis-trans isomerization)
Cc1ccc(C(=O)/N=c2\[n-]cc(Sc3ccc([N-]C(=O)[N-]c4ccccc4)cc3)s2)cc1 (3D coordinates assigned)
Cc1ccc(C(=O)/N=c2\[n-]cc(Sc3ccc([N-]C(=O)[N-]c4ccccc4)cc3)s2)cc1 (optimized conformer: 90.81760435803817 kcal/mol)

>  <smiles>  (12) 
Cc1ccc(C(=O)N=c2[nH]cc(Sc3ccc(NC(=O)Nc4ccccc4)cc3)s2)cc1

>  <score_type>  (12) 
oracle

>  <origin>  (12) 
adg

>  <m_score__min__energy>  (12) 
-14.16

>  <m_primary>  (12) 
energy

$$$$
12:0
     RDKit          3D

 26 27  0  0  0  0  0  0  0  0999 V2000
   56.0180   24.7430   47.2080 H   0  0  0  0  0  0  0  0  0  0  0  0
   56.9700   25.0790   47.1150 O   0  0  0  0  0  0  0  0  0  0  0  0
   57.2720   26.2700   46.4560 C   0  0  0  0  0  0  0  0  0  0  0  0
   58.6080   26.6730   46.3560 C   0  0  0  0  0  0  0  0  0  0  0  0
   59.4019   26.0527   46.7976 H   0  0  0  0  0  0  0  0  0  0  0  0
   58.9380   27.8610   45.6970 C   0  0  0  0  0  0  0  0  0  0  0  0
   59.9897   28.1773   45.6342 H   0  0  0  0  0  0  0  0  0  0  0  0
   57.9390   28.6500   45.1170 C   0  0  0  0  0  0  0  0  0  0  0  0
   58.3140   29.8620   44.4450 N   0  0  0  0  0  0  0  0  0  0  0  0
   57.4330   30.9330   44.0780 C   0  0  0  0  0  0  0  0  0  0  0  0
   57.0180   31.0000   42.8940 O   0  0  0  0  0  0  0  0  0  0  0  0
   57.0160   31.9360   45.0180 N   0  0  0  0  0  0  0  0  0  0  0  0
   57.7700   32.8560   45.5440 C   0  0  0  0  0  0  0  0  0  0  0  0
   57.9410   32.9450   46.8950 N   0  0  0  0  0  0  0  0  0  0  0  0
   58.7220   33.9030   47.4610 C   0  0  0  0  0  0  0  0  0  0  0  0
   58.8419   33.9401   48.5538 H   0  0  0  0  0  0  0  0  0  0  0  0
   59.3720   34.8400   46.6550 C   0  0  0  0  0  0  0  0  0  0  0  0
   60.0092   35.6150   47.1060 H   0  0  0  0  0  0  0  0  0  0  0  0
   59.2040   34.7820   45.2710 C   0  0  0  0  0  0  0  0  0  0  0  0
   59.7058   35.5165   44.6239 H   0  0  0  0  0  0  0  0  0  0  0  0
   58.3970   33.7890   44.7080 C   0  0  0  0  0  0  0  0  0  0  0  0
   58.2556   33.7407   43.6182 H   0  0  0  0  0  0  0  0  0  0  0  0
   56.5930   28.2560   45.2360 C   0  0  0  0  0  0  0  0  0  0  0  0
   55.7983   28.8847   44.8079 H   0  0  0  0  0  0  0  0  0  0  0  0
   56.2620   27.0690   45.8960 C   0  0  0  0  0  0  0  0  0  0  0  0
   54.9270   26.6900   45.9940 O   0  0  0  0  0  0  0  0  0  0  0  0
  1  2  1  0
  2  3  1  0
  3  4  2  0
  4  5  1  0
  4  6  1  0
  6  7  1  0
  6  8  2  0
  8  9  1  0
  9 10  1  0
 10 11  2  0
 10 12  1  0
 12 13  2  0
 13 14  1  0
 14 15  1  0
 15 16  1  0
 15 17  2  0
 17 18  1  0
 17 19  1  0
 19 20  1  0
 19 21  2  0
 21 22  1  0
  8 23  1  0
 23 24  1  0
 23 25  2  0
 25 26  1  0
 25  3  1  0
 21 13  1  0
M  CHG  3   9  -1  14  -1  26  -1
M  END
>  <UniqueID>  (13) 
12

>  <SMILES>  (13) 
O=C(/N=c1/cccc[n-]1)[N-]c1ccc(O)c([O-])c1

>  <Energy>  (13) 
36.08310906659463

>  <Genealogy>  (13) 
O=C(N=c1cccc[n-]1)[N-]c1ccc(O)c([O-])c1 (protonated)
O=C(/N=c1/cccc[n-]1)[N-]c1ccc(O)c([O-])c1 (cis-trans isomerization)
O=C(/N=c1/cccc[n-]1)[N-]c1ccc(O)c([O-])c1 (3D coordinates assigned)
O=C(/N=c1/cccc[n-]1)[N-]c1ccc(O)c([O-])c1 (optimized conformer: 36.08310906659463 kcal/mol)

>  <smiles>  (13) 
O=C(N=c1cccc[nH]1)Nc1ccc(O)c(O)c1

>  <score_type>  (13) 
oracle

>  <origin>  (13) 
adg

>  <m_score__min__energy>  (13) 
-11.49

>  <m_primary>  (13) 
energy

$$$$
13:0
     RDKit          3D

 41 43  0  0  0  0  0  0  0  0999 V2000
   59.6477   33.0203   49.0325 H   0  0  0  0  0  0  0  0  0  0  0  0
   59.7300   31.9490   48.7970 C   0  0  0  0  0  0  0  0  0  0  0  0
   60.0867   31.2435   49.5619 H   0  0  0  0  0  0  0  0  0  0  0  0
   59.3970   31.5050   47.5830 C   0  0  0  0  0  0  0  0  0  0  0  0
   58.9000   32.2630   46.5340 C   0  0  0  0  0  0  0  0  0  0  0  0
   58.5390   33.7220   46.5940 C   0  0  0  0  0  0  0  0  0  0  0  0
   58.4609   34.0375   47.6449 H   0  0  0  0  0  0  0  0  0  0  0  0
   59.3179   34.3135   46.0905 H   0  0  0  0  0  0  0  0  0  0  0  0
   57.5742   33.8820   46.0905 H   0  0  0  0  0  0  0  0  0  0  0  0
   58.6390   31.3750   45.4880 C   0  0  0  0  0  0  0  0  0  0  0  0
   57.7930   31.7220   44.2770 C   0  0  0  0  0  0  0  0  0  0  0  0
   57.8282   32.8099   44.1183 H   0  0  0  0  0  0  0  0  0  0  0  0
   58.2007   31.1818   43.4098 H   0  0  0  0  0  0  0  0  0  0  0  0
   56.3300   31.2940   44.4600 C   0  0  0  0  0  0  0  0  0  0  0  0
   56.0255   31.4991   45.4969 H   0  0  0  0  0  0  0  0  0  0  0  0
   55.7141   31.8638   43.7487 H   0  0  0  0  0  0  0  0  0  0  0  0
   56.1410   29.8360   44.1780 C   0  0  0  0  0  0  0  0  0  0  0  0
   56.8600   29.2590   43.3220 O   0  0  0  0  0  0  0  0  0  0  0  0
   55.1950   29.1060   44.8870 O   0  0  0  0  0  0  0  0  0  0  0  0
   59.0330   30.1080   45.9570 C   0  0  0  0  0  0  0  0  0  0  0  0
   58.9910   28.9140   45.3360 C   0  0  0  0  0  0  0  0  0  0  0  0
   59.4559   28.8506   44.3411 H   0  0  0  0  0  0  0  0  0  0  0  0
   58.3810   27.6900   45.8670 C   0  0  0  0  0  0  0  0  0  0  0  0
   58.7900   26.9950   46.9870 C   0  0  0  0  0  0  0  0  0  0  0  0
   59.9140   27.2620   47.7570 O   0  0  0  0  0  0  0  0  0  0  0  0
   57.8730   25.9930   47.2170 C   0  0  0  0  0  0  0  0  0  0  0  0
   57.8972   25.2376   48.0162 H   0  0  0  0  0  0  0  0  0  0  0  0
   56.9120   26.1390   46.2260 C   0  0  0  0  0  0  0  0  0  0  0  0
   55.7120   25.2950   46.0670 C   0  0  0  0  0  0  0  0  0  0  0  0
   55.6340   23.9410   46.3460 C   0  0  0  0  0  0  0  0  0  0  0  0
   56.4415   23.2986   46.7270 H   0  0  0  0  0  0  0  0  0  0  0  0
   54.3420   23.5580   46.0510 C   0  0  0  0  0  0  0  0  0  0  0  0
   53.9165   22.5487   46.1522 H   0  0  0  0  0  0  0  0  0  0  0  0
   53.6870   24.6880   45.6040 C   0  0  0  0  0  0  0  0  0  0  0  0
   52.6345   24.7223   45.2861 H   0  0  0  0  0  0  0  0  0  0  0  0
   54.5240   25.7410   45.6140 N   0  0  0  0  0  0  0  0  0  0  0  0
   54.2830   26.7140   45.3220 H   0  0  0  0  0  0  0  0  0  0  0  0
   57.2160   27.1820   45.4230 N   0  0  0  0  0  0  0  0  0  0  0  0
   56.6590   27.5410   44.6160 H   0  0  0  0  0  0  0  0  0  0  0  0
   59.4730   30.2120   47.2280 N   0  0  0  0  0  0  0  0  0  0  0  0
   59.8120   29.4270   47.8320 H   0  0  0  0  0  0  0  0  0  0  0  0
  1  2  1  0
  2  3  1  0
  2  4  2  0
  4  5  1  0
  5  6  1  0
  6  7  1  0
  6  8  1  0
  6  9  1  0
  5 10  2  0
 10 11  1  0
 11 12  1  0
 11 13  1  0
 11 14  1  0
 14 15  1  0
 14 16  1  0
 14 17  1  0
 17 18  2  0
 17 19  1  0
 10 20  1  0
 20 21  2  0
 21 22  1  0
 21 23  1  0
 23 24  2  0
 24 25  1  0
 24 26  1  0
 26 27  1  0
 26 28  2  0
 28 29  1  0
 29 30  2  0
 30 31  1  0
 30 32  1  0
 32 33  1  0
 32 34  2  0
 34 35  1  0
 34 36  1  0
 36 37  1  0
 28 38  1  0
 38 39  1  0
 20 40  1  0
 40 41  1  0
 40  4  1  0
 38 23  1  0
 36 29  1  0
M  CHG  2  19  -1  25  -1
M  END
>  <UniqueID>  (14) 
13

>  <SMILES>  (14) 
C=c1[nH]/c(=C/c2[nH]c(-c3ccc[nH]3)cc2[O-])c(CCC(=O)[O-])c1C

>  <Energy>  (14) 
129.2348450723359

>  <Genealogy>  (14) 
C=c1[nH]c(=Cc2[nH]c(-c3ccc[nH]3)cc2[O-])c(CCC(=O)[O-])c1C (protonated)
C=c1[nH]/c(=C/c2[nH]c(-c3ccc[nH]3)cc2[O-])c(CCC(=O)[O-])c1C (cis-trans isomerization)
C=c1[nH]/c(=C/c2[nH]c(-c3ccc[nH]3)cc2[O-])c(CCC(=O)[O-])c1C (3D coordinates assigned)
C=c1[nH]/c(=C/c2[nH]c(-c3ccc[nH]3)cc2[O-])c(CCC(=O)[O-])c1C (optimized conformer: 129.2348450723359 kcal/mol)

>  <smiles>  (14) 
C=c1[nH]c(=Cc2[nH]c(-c3ccc[nH]3)cc2O)c(CCC(=O)O)c1C

>  <score_type>  (14) 
oracle

>  <origin>  (14) 
adg

>  <m_score__min__energy>  (14) 
-13.35

>  <m_primary>  (14) 
energy

$$$$
14:0
     RDKit          3D

 46 48  0  0  0  0  0  0  0  0999 V2000
   59.3880   33.0530   49.4820 N   0  0  0  0  0  0  0  0  0  0  0  0
   60.5990   33.8060   49.8050 C   0  0  0  0  0  0  0  0  0  0  0  0
   61.6320   33.6780   48.7040 C   0  0  0  0  0  0  0  0  0  0  0  0
   62.9300   33.2750   49.0670 C   0  0  0  0  0  0  0  0  0  0  0  0
   63.9250   33.1180   48.1020 C   0  0  0  0  0  0  0  0  0  0  0  0
   63.6390   33.3570   46.7600 C   0  0  0  0  0  0  0  0  0  0  0  0
   62.3560   33.7490   46.3770 C   0  0  0  0  0  0  0  0  0  0  0  0
   61.3350   33.9030   47.3320 C   0  0  0  0  0  0  0  0  0  0  0  0
   59.7240   34.4100   46.7840 S   0  0  0  0  0  0  0  0  0  0  0  0
   58.9230   34.9350   47.9420 O   0  0  0  0  0  0  0  0  0  0  0  0
   59.8720   35.5030   45.7610 O   0  0  0  0  0  0  0  0  0  0  0  0
   58.8250   33.0700   46.0740 C   0  0  0  0  0  0  0  0  0  0  0  0
   57.7430   33.3130   45.2160 C   0  0  0  0  0  0  0  0  0  0  0  0
   57.0360   32.2450   44.6560 C   0  0  0  0  0  0  0  0  0  0  0  0
   57.3980   30.9250   44.9580 C   0  0  0  0  0  0  0  0  0  0  0  0
   56.6150   29.8050   44.4060 C   0  0  0  0  0  0  0  0  0  0  0  0
   56.5040   29.6920   43.1570 O   0  0  0  0  0  0  0  0  0  0  0  0
   55.9400   28.8630   45.2510 N   0  0  0  0  0  0  0  0  0  0  0  0
   56.4410   27.5410   45.6240 C   0  0  0  0  0  0  0  0  0  0  0  0
   57.8650   27.6220   46.1120 C   0  0  0  0  0  0  0  0  0  0  0  0
   58.1430   27.7890   47.4800 C   0  0  0  0  0  0  0  0  0  0  0  0
   59.4660   27.8260   47.9300 C   0  0  0  0  0  0  0  0  0  0  0  0
   60.5190   27.7060   47.0200 C   0  0  0  0  0  0  0  0  0  0  0  0
   60.2510   27.5520   45.6560 C   0  0  0  0  0  0  0  0  0  0  0  0
   58.9290   27.5110   45.2010 C   0  0  0  0  0  0  0  0  0  0  0  0
   58.5020   30.6830   45.7900 C   0  0  0  0  0  0  0  0  0  0  0  0
   59.2090   31.7520   46.3460 C   0  0  0  0  0  0  0  0  0  0  0  0
   58.5510   33.6500   49.6730 H   0  0  0  0  0  0  0  0  0  0  0  0
   59.3900   32.8370   48.4590 H   0  0  0  0  0  0  0  0  0  0  0  0
   60.3389   34.8673   49.9317 H   0  0  0  0  0  0  0  0  0  0  0  0
   61.0260   33.3986   50.7333 H   0  0  0  0  0  0  0  0  0  0  0  0
   63.1631   33.0814   50.1244 H   0  0  0  0  0  0  0  0  0  0  0  0
   64.9363   32.8052   48.4012 H   0  0  0  0  0  0  0  0  0  0  0  0
   64.4259   33.2365   46.0009 H   0  0  0  0  0  0  0  0  0  0  0  0
   62.1404   33.9399   45.3154 H   0  0  0  0  0  0  0  0  0  0  0  0
   57.4496   34.3472   44.9828 H   0  0  0  0  0  0  0  0  0  0  0  0
   56.1934   32.4410   43.9766 H   0  0  0  0  0  0  0  0  0  0  0  0
   55.8090   27.1294   46.4247 H   0  0  0  0  0  0  0  0  0  0  0  0
   56.4105   26.8911   44.7371 H   0  0  0  0  0  0  0  0  0  0  0  0
   57.3166   27.8909   48.1988 H   0  0  0  0  0  0  0  0  0  0  0  0
   59.6781   27.9498   49.0022 H   0  0  0  0  0  0  0  0  0  0  0  0
   61.5593   27.7326   47.3763 H   0  0  0  0  0  0  0  0  0  0  0  0
   61.0812   27.4630   44.9399 H   0  0  0  0  0  0  0  0  0  0  0  0
   58.7218   27.3916   44.1273 H   0  0  0  0  0  0  0  0  0  0  0  0
   58.8113   29.6495   46.0048 H   0  0  0  0  0  0  0  0  0  0  0  0
   60.0713   31.5569   47.0005 H   0  0  0  0  0  0  0  0  0  0  0  0
  1  2  1  0
  2  3  1  0
  3  4  2  0
  4  5  1  0
  5  6  2  0
  6  7  1  0
  7  8  2  0
  8  9  1  0
  9 10  2  0
  9 11  2  0
  9 12  1  0
 12 13  2  0
 13 14  1  0
 14 15  2  0
 15 16  1  0
 16 17  2  0
 16 18  1  0
 18 19  1  0
 19 20  1  0
 20 21  2  0
 21 22  1  0
 22 23  2  0
 23 24  1  0
 24 25  2  0
 15 26  1  0
 26 27  2  0
  8  3  1  0
 27 12  1  0
 25 20  1  0
  1 28  1  0
  1 29  1  0
  2 30  1  0
  2 31  1  0
  4 32  1  0
  5 33  1  0
  6 34  1  0
  7 35  1  0
 13 36  1  0
 14 37  1  0
 19 38  1  0
 19 39  1  0
 21 40  1  0
 22 41  1  0
 23 42  1  0
 24 43  1  0
 25 44  1  0
 26 45  1  0
 27 46  1  0
M  CHG  1  18  -1
M  END
>  <UniqueID>  (15) 
14

>  <SMILES>  (15) 
NCc1ccccc1S(=O)(=O)c1ccc(C(=O)[N-]Cc2ccccc2)cc1

>  <Energy>  (15) 
54.67025031190613

>  <Genealogy>  (15) 
NCc1ccccc1S(=O)(=O)c1ccc(C(=O)[N-]Cc2ccccc2)cc1 (protonated)
NCc1ccccc1S(=O)(=O)c1ccc(C(=O)[N-]Cc2ccccc2)cc1 (3D coordinates assigned)
NCc1ccccc1S(=O)(=O)c1ccc(C(=O)[N-]Cc2ccccc2)cc1 (optimized conformer: 54.67025031190613 kcal/mol)

>  <smiles>  (15) 
NCc1ccccc1S(=O)(=O)c1ccc(C(=O)NCc2ccccc2)cc1

>  <score_type>  (15) 
oracle

>  <origin>  (15) 
adg

>  <m_score__min__energy>  (15) 
-10.23

>  <m_primary>  (15) 
energy

$$$$
15:0
     RDKit          3D

 51 55  0  0  0  0  0  0  0  0999 V2000
   59.6480   27.8570   49.3850 O   0  0  0  0  0  0  0  0  0  0  0  0
   59.4580   28.9110   48.7210 C   0  0  0  0  0  0  0  0  0  0  0  0
   59.4570   30.1580   49.4120 N   0  0  0  0  0  0  0  0  0  0  0  0
   59.3890   31.4010   48.7170 C   0  0  0  0  0  0  0  0  0  0  0  0
   59.4030   32.4740   49.3770 O   0  0  0  0  0  0  0  0  0  0  0  0
   59.3390   31.4260   47.2780 N   0  0  0  0  0  0  0  0  0  0  0  0
   59.3200   32.6860   46.5810 C   0  0  0  0  0  0  0  0  0  0  0  0
   60.3040   33.6540   46.8380 C   0  0  0  0  0  0  0  0  0  0  0  0
   60.2820   34.8780   46.1610 C   0  0  0  0  0  0  0  0  0  0  0  0
   59.2800   35.1450   45.2220 C   0  0  0  0  0  0  0  0  0  0  0  0
   59.2710   36.3680   44.5550 O   0  0  0  0  0  0  0  0  0  0  0  0
   58.2960   34.1820   44.9630 C   0  0  0  0  0  0  0  0  0  0  0  0
   58.3150   32.9590   45.6390 C   0  0  0  0  0  0  0  0  0  0  0  0
   59.2950   30.1890   46.5370 C   0  0  0  0  0  0  0  0  0  0  0  0
   59.2300   30.2220   45.2760 O   0  0  0  0  0  0  0  0  0  0  0  0
   59.2870   28.8820   47.2450 C   0  0  0  0  0  0  0  0  0  0  0  0
   59.1380   27.7390   46.5350 C   0  0  0  0  0  0  0  0  0  0  0  0
   57.8700   27.0110   46.3600 C   0  0  0  0  0  0  0  0  0  0  0  0
   56.7480   27.3680   45.6170 C   0  0  0  0  0  0  0  0  0  0  0  0
   56.5550   28.6030   44.8410 C   0  0  0  0  0  0  0  0  0  0  0  0
   57.3100   28.9940   43.7540 C   0  0  0  0  0  0  0  0  0  0  0  0
   56.7810   30.2010   43.3490 C   0  0  0  0  0  0  0  0  0  0  0  0
   55.7380   30.4720   44.2120 C   0  0  0  0  0  0  0  0  0  0  0  0
   55.6300   29.5020   45.0900 O   0  0  0  0  0  0  0  0  0  0  0  0
   55.8550   26.3550   45.6340 N   0  0  0  0  0  0  0  0  0  0  0  0
   56.3730   25.3710   46.3550 N   0  0  0  0  0  0  0  0  0  0  0  0
   55.7350   24.0710   46.5310 C   0  0  0  0  0  0  0  0  0  0  0  0
   56.0480   23.1860   45.3570 C   0  0  0  0  0  0  0  0  0  0  0  0
   56.1850   23.7390   44.0740 C   0  0  0  0  0  0  0  0  0  0  0  0
   56.5160   22.9230   42.9870 C   0  0  0  0  0  0  0  0  0  0  0  0
   56.7210   21.5540   43.1770 C   0  0  0  0  0  0  0  0  0  0  0  0
   56.6010   20.9990   44.4530 C   0  0  0  0  0  0  0  0  0  0  0  0
   56.2700   21.8110   45.5430 C   0  0  0  0  0  0  0  0  0  0  0  0
   57.5990   25.7290   46.7790 C   0  0  0  0  0  0  0  0  0  0  0  0
   58.4500   24.9130   47.5150 O   0  0  0  0  0  0  0  0  0  0  0  0
   61.0951   33.4492   47.5744 H   0  0  0  0  0  0  0  0  0  0  0  0
   61.0550   35.6328   46.3676 H   0  0  0  0  0  0  0  0  0  0  0  0
   59.9430   37.0950   44.7720 H   0  0  0  0  0  0  0  0  0  0  0  0
   57.5064   34.3890   44.2257 H   0  0  0  0  0  0  0  0  0  0  0  0
   57.5393   32.2069   45.4323 H   0  0  0  0  0  0  0  0  0  0  0  0
   60.0335   27.3218   46.0513 H   0  0  0  0  0  0  0  0  0  0  0  0
   58.1571   28.4551   43.3045 H   0  0  0  0  0  0  0  0  0  0  0  0
   57.1213   30.8228   42.5078 H   0  0  0  0  0  0  0  0  0  0  0  0
   55.0958   31.3641   44.1703 H   0  0  0  0  0  0  0  0  0  0  0  0
   56.1107   23.6018   47.4522 H   0  0  0  0  0  0  0  0  0  0  0  0
   54.6459   24.2080   46.6018 H   0  0  0  0  0  0  0  0  0  0  0  0
   56.0316   24.8177   43.9229 H   0  0  0  0  0  0  0  0  0  0  0  0
   56.6149   23.3594   41.9821 H   0  0  0  0  0  0  0  0  0  0  0  0
   56.9772   20.9127   42.3208 H   0  0  0  0  0  0  0  0  0  0  0  0
   56.7670   19.9217   44.6011 H   0  0  0  0  0  0  0  0  0  0  0  0
   56.1833   21.3721   46.5479 H   0  0  0  0  0  0  0  0  0  0  0  0
  1  2  2  0
  2  3  1  0
  3  4  1  0
  4  5  2  0
  4  6  1  0
  6  7  1  0
  7  8  2  0
  8  9  1  0
  9 10  2  0
 10 11  1  0
 10 12  1  0
 12 13  2  0
  6 14  1  0
 14 15  2  0
 14 16  1  0
 16 17  2  3
 17 18  1  0
 18 19  1  0
 19 20  1  0
 20 21  2  0
 21 22  1  0
 22 23  2  0
 23 24  1  0
 19 25  2  0
 25 26  1  0
 26 27  1  0
 27 28  1  0
 28 29  2  0
 29 30  1  0
 30 31  2  0
 31 32  1  0
 32 33  2  0
 26 34  1  0
 34 35  1  0
 16  2  1  0
 34 18  2  0
 13  7  1  0
 24 20  1  0
 33 28  1  0
  8 36  1  0
  9 37  1  0
 11 38  1  0
 12 39  1  0
 13 40  1  0
 17 41  1  0
 21 42  1  0
 22 43  1  0
 23 44  1  0
 27 45  1  0
 27 46  1  0
 29 47  1  0
 30 48  1  0
 31 49  1  0
 32 50  1  0
 33 51  1  0
M  CHG  2   3  -1  35  -1
M  END
>  <UniqueID>  (16) 
15

>  <SMILES>  (16) 
O=C1[N-]C(=O)N(c2ccc(O)cc2)C(=O)C1=Cc1c(-c2ccco2)nn(Cc2ccccc2)c1[O-]

>  <Energy>  (16) 
128.59549261712723

>  <Genealogy>  (16) 
O=C1[N-]C(=O)N(c2ccc(O)cc2)C(=O)C1=Cc1c(-c2ccco2)nn(Cc2ccccc2)c1[O-] (protonated)
O=C1[N-]C(=O)N(c2ccc(O)cc2)C(=O)C1=Cc1c(-c2ccco2)nn(Cc2ccccc2)c1[O-] (3D coordinates assigned)
O=C1[N-]C(=O)N(c2ccc(O)cc2)C(=O)C1=Cc1c(-c2ccco2)nn(Cc2ccccc2)c1[O-] (nonaromatic ring conformer: 128.59549261712723 kcal/mol)

>  <smiles>  (16) 
O=C1NC(=O)N(c2ccc(O)cc2)C(=O)C1=Cc1c(-c2ccco2)nn(Cc2ccccc2)c1O

>  <score_type>  (16) 
oracle

>  <origin>  (16) 
adg

>  <m_score__min__energy>  (16) 
-11.99

>  <m_primary>  (16) 
energy

$$$$
16:0
     RDKit          3D

 65 69  0  0  0  0  0  0  0  0999 V2000
   57.3910   34.2470   44.9190 C   0  0  0  0  0  0  0  0  0  0  0  0
   58.0730   33.5480   46.0640 C   0  0  0  0  0  0  0  0  0  0  0  0
   58.7550   34.2740   47.0000 N   0  0  0  0  0  0  0  0  0  0  0  0
   59.4150   33.6760   48.0410 C   0  0  0  0  0  0  0  0  0  0  0  0
   60.1090   34.3650   48.9060 N   0  0  0  0  0  0  0  0  0  0  0  0
   60.8110   33.8510   50.0830 C   0  0  0  0  0  0  0  0  0  0  0  0
   59.8590   33.1380   51.0130 C   0  0  0  0  0  0  0  0  0  0  0  0
   59.9240   31.7440   51.1640 C   0  0  0  0  0  0  0  0  0  0  0  0
   59.0170   31.0830   51.9960 C   0  0  0  0  0  0  0  0  0  0  0  0
   58.0290   31.8060   52.6880 C   0  0  0  0  0  0  0  0  0  0  0  0
   57.0970   31.1750   53.5240 O   0  0  0  0  0  0  0  0  0  0  0  0
   55.9030   30.5650   53.1040 C   0  0  0  0  0  0  0  0  0  0  0  0
   55.1740   31.1660   52.0690 C   0  0  0  0  0  0  0  0  0  0  0  0
   53.9840   30.5850   51.6140 C   0  0  0  0  0  0  0  0  0  0  0  0
   53.5240   29.3930   52.1800 C   0  0  0  0  0  0  0  0  0  0  0  0
   54.2550   28.7740   53.1970 C   0  0  0  0  0  0  0  0  0  0  0  0
   55.4450   29.3510   53.6540 C   0  0  0  0  0  0  0  0  0  0  0  0
   57.9990   33.2000   52.5770 C   0  0  0  0  0  0  0  0  0  0  0  0
   58.9060   33.8640   51.7470 C   0  0  0  0  0  0  0  0  0  0  0  0
   59.3760   32.2840   48.1790 C   0  0  0  0  0  0  0  0  0  0  0  0
   58.6850   31.5100   47.2370 C   0  0  0  0  0  0  0  0  0  0  0  0
   58.6310   30.1070   47.3050 C   0  0  0  0  0  0  0  0  0  0  0  0
   59.2050   29.4810   48.2370 O   0  0  0  0  0  0  0  0  0  0  0  0
   57.9620   29.4130   46.3480 N   0  0  0  0  0  0  0  0  0  0  0  0
   57.3330   30.0420   45.3230 C   0  0  0  0  0  0  0  0  0  0  0  0
   56.7170   29.3370   44.4250 N   0  0  0  0  0  0  0  0  0  0  0  0
   57.3920   28.5930   43.3600 C   0  0  0  0  0  0  0  0  0  0  0  0
   58.4510   27.6640   43.9560 C   0  0  0  0  0  0  0  0  0  0  0  0
   57.8080   26.4980   44.6620 C   0  0  0  0  0  0  0  0  0  0  0  0
   57.5890   26.5370   46.0480 C   0  0  0  0  0  0  0  0  0  0  0  0
   57.0620   25.4250   46.7110 C   0  0  0  0  0  0  0  0  0  0  0  0
   56.7460   24.2610   45.9990 C   0  0  0  0  0  0  0  0  0  0  0  0
   56.1230   22.8450   46.8440 S   0  0  0  0  0  0  0  0  0  0  0  0
   57.3600   22.1950   47.8600 N   0  0  0  0  0  0  0  0  0  0  0  0
   54.9350   23.2300   47.6800 O   0  0  0  0  0  0  0  0  0  0  0  0
   55.6940   21.8060   45.8480 O   0  0  0  0  0  0  0  0  0  0  0  0
   56.9690   24.2160   44.6160 C   0  0  0  0  0  0  0  0  0  0  0  0
   57.4990   25.3260   43.9520 C   0  0  0  0  0  0  0  0  0  0  0  0
   57.3680   31.4010   45.2430 N   0  0  0  0  0  0  0  0  0  0  0  0
   58.0290   32.1470   46.1690 C   0  0  0  0  0  0  0  0  0  0  0  0
   56.6738   34.9821   45.3130 H   0  0  0  0  0  0  0  0  0  0  0  0
   58.1432   34.7621   44.3035 H   0  0  0  0  0  0  0  0  0  0  0  0
   56.8575   33.5077   44.3035 H   0  0  0  0  0  0  0  0  0  0  0  0
   58.7620   35.3130   46.8990 H   0  0  0  0  0  0  0  0  0  0  0  0
   61.5908   33.1468   49.7575 H   0  0  0  0  0  0  0  0  0  0  0  0
   61.2580   34.6992   50.6223 H   0  0  0  0  0  0  0  0  0  0  0  0
   60.6921   31.1698   50.6252 H   0  0  0  0  0  0  0  0  0  0  0  0
   59.0760   29.9906   52.1105 H   0  0  0  0  0  0  0  0  0  0  0  0
   55.5381   32.0980   51.6121 H   0  0  0  0  0  0  0  0  0  0  0  0
   53.4101   31.0679   50.8094 H   0  0  0  0  0  0  0  0  0  0  0  0
   52.5858   28.9418   51.8246 H   0  0  0  0  0  0  0  0  0  0  0  0
   53.8950   27.8330   53.6385 H   0  0  0  0  0  0  0  0  0  0  0  0
   56.0254   28.8550   54.4459 H   0  0  0  0  0  0  0  0  0  0  0  0
   57.2563   33.7775   53.1470 H   0  0  0  0  0  0  0  0  0  0  0  0
   58.8737   34.9607   51.6679 H   0  0  0  0  0  0  0  0  0  0  0  0
   59.8861   31.7989   49.0242 H   0  0  0  0  0  0  0  0  0  0  0  0
   56.6516   27.9943   42.8091 H   0  0  0  0  0  0  0  0  0  0  0  0
   57.8807   29.3047   42.6783 H   0  0  0  0  0  0  0  0  0  0  0  0
   59.0940   27.2855   43.1477 H   0  0  0  0  0  0  0  0  0  0  0  0
   59.0459   28.2322   44.6862 H   0  0  0  0  0  0  0  0  0  0  0  0
   57.8333   27.4473   46.6152 H   0  0  0  0  0  0  0  0  0  0  0  0
   56.8946   25.4643   47.7975 H   0  0  0  0  0  0  0  0  0  0  0  0
   57.7650   22.9960   48.3960 H   0  0  0  0  0  0  0  0  0  0  0  0
   56.7261   23.3039   44.0511 H   0  0  0  0  0  0  0  0  0  0  0  0
   57.6751   25.2815   42.8671 H   0  0  0  0  0  0  0  0  0  0  0  0
  1  2  1  0
  2  3  1  0
  3  4  1  0
  4  5  2  3
  5  6  1  0
  6  7  1  0
  7  8  2  0
  8  9  1  0
  9 10  2  0
 10 11  1  0
 11 12  1  0
 12 13  2  0
 13 14  1  0
 14 15  2  0
 15 16  1  0
 16 17  2  0
 10 18  1  0
 18 19  2  0
  4 20  1  0
 20 21  2  0
 21 22  1  0
 22 23  2  0
 22 24  1  0
 24 25  1  0
 25 26  2  3
 26 27  1  0
 27 28  1  0
 28 29  1  0
 29 30  2  0
 30 31  1  0
 31 32  2  0
 32 33  1  0
 33 34  1  0
 33 35  2  0
 33 36  2  0
 32 37  1  0
 37 38  2  0
 25 39  1  0
 39 40  1  0
 40  2  2  0
 19  7  1  0
 40 21  1  0
 17 12  1  0
 38 29  1  0
  1 41  1  0
  1 42  1  0
  1 43  1  0
  3 44  1  0
  6 45  1  0
  6 46  1  0
  8 47  1  0
  9 48  1  0
 13 49  1  0
 14 50  1  0
 15 51  1  0
 16 52  1  0
 17 53  1  0
 18 54  1  0
 19 55  1  0
 20 56  1  0
 27 57  1  0
 27 58  1  0
 28 59  1  0
 28 60  1  0
 30 61  1  0
 31 62  1  0
 34 63  1  0
 37 64  1  0
 38 65  1  0
M  CHG  3  24  -1  34  -1  39  -1
M  END
>  <UniqueID>  (17) 
16

>  <SMILES>  (17) 
Cc1[nH]c(=NCc2ccc(Oc3ccccc3)cc2)cc2c(=O)[n-]c(=NCCc3ccc(S([NH-])(=O)=O)cc3)[n-]c12

>  <Energy>  (17) 
80.36681454744487

>  <Genealogy>  (17) 
Cc1[nH]c(=NCc2ccc(Oc3ccccc3)cc2)cc2c(=O)[n-]c(=NCCc3ccc(S([NH-])(=O)=O)cc3)[n-]c12 (protonated)
Cc1[nH]c(=NCc2ccc(Oc3ccccc3)cc2)cc2c(=O)[n-]c(=NCCc3ccc(S([NH-])(=O)=O)cc3)[n-]c12 (3D coordinates assigned)
Cc1[nH]c(=NCc2ccc(Oc3ccccc3)cc2)cc2c(=O)[n-]c(=NCCc3ccc(S([NH-])(=O)=O)cc3)[n-]c12 (optimized conformer: 80.36681454744487 kcal/mol)

>  <smiles>  (17) 
Cc1[nH]c(=NCc2ccc(Oc3ccccc3)cc2)cc2c(=O)[nH]c(=NCCc3ccc(S(N)(=O)=O)cc3)[nH]c12

>  <score_type>  (17) 
oracle

>  <origin>  (17) 
adg

>  <m_score__min__energy>  (17) 
-15.220000000000001

>  <m_primary>  (17) 
energy

$$$$
17:0
     RDKit          3D

 48 50  0  0  0  0  0  0  0  0999 V2000
   60.4810   28.0100   49.5500 C   0  0  0  0  0  0  0  0  0  0  0  0
   60.8920   29.1920   49.0660 C   0  0  0  0  0  0  0  0  0  0  0  0
   61.4320   30.0540   49.9600 N   0  0  0  0  0  0  0  0  0  0  0  0
   61.6970   31.3460   49.6620 C   0  0  0  0  0  0  0  0  0  0  0  0
   62.2060   32.0810   50.5510 O   0  0  0  0  0  0  0  0  0  0  0  0
   61.3790   31.8470   48.4290 N   0  0  0  0  0  0  0  0  0  0  0  0
   61.5650   33.2870   48.1380 C   0  0  0  0  0  0  0  0  0  0  0  0
   60.2760   34.0800   48.3950 C   0  0  0  0  0  0  0  0  0  0  0  0
   59.3460   34.0290   47.2110 C   0  0  0  0  0  0  0  0  0  0  0  0
   59.6610   34.7270   46.0320 C   0  0  0  0  0  0  0  0  0  0  0  0
   58.8210   34.6400   44.9170 C   0  0  0  0  0  0  0  0  0  0  0  0
   57.6670   33.8530   44.9690 C   0  0  0  0  0  0  0  0  0  0  0  0
   57.3520   33.1500   46.1350 C   0  0  0  0  0  0  0  0  0  0  0  0
   58.1890   33.2340   47.2520 C   0  0  0  0  0  0  0  0  0  0  0  0
   60.8620   31.0150   47.4670 C   0  0  0  0  0  0  0  0  0  0  0  0
   60.5820   31.4870   46.3270 O   0  0  0  0  0  0  0  0  0  0  0  0
   60.6750   29.6300   47.7250 C   0  0  0  0  0  0  0  0  0  0  0  0
   60.3300   28.8140   46.6880 C   0  0  0  0  0  0  0  0  0  0  0  0
   58.9820   28.2730   46.4080 C   0  0  0  0  0  0  0  0  0  0  0  0
   58.6590   26.9780   46.8320 C   0  0  0  0  0  0  0  0  0  0  0  0
   57.3800   26.4650   46.6140 C   0  0  0  0  0  0  0  0  0  0  0  0
   56.4040   27.2470   45.9900 C   0  0  0  0  0  0  0  0  0  0  0  0
   55.1370   26.7180   45.7740 O   0  0  0  0  0  0  0  0  0  0  0  0
   56.6970   28.5570   45.5860 C   0  0  0  0  0  0  0  0  0  0  0  0
   55.6800   29.3050   44.9680 O   0  0  0  0  0  0  0  0  0  0  0  0
   55.8760   30.3360   44.0000 C   0  0  0  0  0  0  0  0  0  0  0  0
   56.6000   29.7960   42.7720 C   0  0  0  0  0  0  0  0  0  0  0  0
   57.9900   29.0710   45.8090 C   0  0  0  0  0  0  0  0  0  0  0  0
   60.0333   27.2652   48.8756 H   0  0  0  0  0  0  0  0  0  0  0  0
   60.5917   27.7858   50.6212 H   0  0  0  0  0  0  0  0  0  0  0  0
   62.3634   33.6825   48.7830 H   0  0  0  0  0  0  0  0  0  0  0  0
   61.8325   33.3945   47.0764 H   0  0  0  0  0  0  0  0  0  0  0  0
   59.7633   33.6535   49.2698 H   0  0  0  0  0  0  0  0  0  0  0  0
   60.5490   35.1308   48.5721 H   0  0  0  0  0  0  0  0  0  0  0  0
   60.5709   35.3435   45.9863 H   0  0  0  0  0  0  0  0  0  0  0  0
   59.0688   35.1916   43.9981 H   0  0  0  0  0  0  0  0  0  0  0  0
   57.0065   33.7870   44.0918 H   0  0  0  0  0  0  0  0  0  0  0  0
   56.4444   32.5297   46.1741 H   0  0  0  0  0  0  0  0  0  0  0  0
   57.9403   32.6753   48.1663 H   0  0  0  0  0  0  0  0  0  0  0  0
   61.1329   28.5304   45.9916 H   0  0  0  0  0  0  0  0  0  0  0  0
   59.4168   26.3627   47.3390 H   0  0  0  0  0  0  0  0  0  0  0  0
   57.1387   25.4408   46.9346 H   0  0  0  0  0  0  0  0  0  0  0  0
   54.8973   30.7350   43.6951 H   0  0  0  0  0  0  0  0  0  0  0  0
   56.4901   31.1298   44.4503 H   0  0  0  0  0  0  0  0  0  0  0  0
   57.4438   29.1666   43.0911 H   0  0  0  0  0  0  0  0  0  0  0  0
   55.9023   29.1959   42.1694 H   0  0  0  0  0  0  0  0  0  0  0  0
   56.9763   30.6358   42.1694 H   0  0  0  0  0  0  0  0  0  0  0  0
   58.2255   30.1038   45.5126 H   0  0  0  0  0  0  0  0  0  0  0  0
  1  2  2  0
  2  3  1  0
  3  4  1  0
  4  5  2  0
  4  6  1  0
  6  7  1  0
  7  8  1  0
  8  9  1  0
  9 10  2  0
 10 11  1  0
 11 12  2  0
 12 13  1  0
 13 14  2  0
  6 15  1  0
 15 16  2  0
 15 17  1  0
 17 18  2  3
 18 19  1  0
 19 20  2  0
 20 21  1  0
 21 22  2  0
 22 23  1  0
 22 24  1  0
 24 25  1  0
 25 26  1  0
 26 27  1  0
 24 28  2  0
 17  2  1  0
 28 19  1  0
 14  9  1  0
  1 29  1  0
  1 30  1  0
  7 31  1  0
  7 32  1  0
  8 33  1  0
  8 34  1  0
 10 35  1  0
 11 36  1  0
 12 37  1  0
 13 38  1  0
 14 39  1  0
 18 40  1  0
 20 41  1  0
 21 42  1  0
 26 43  1  0
 26 44  1  0
 27 45  1  0
 27 46  1  0
 27 47  1  0
 28 48  1  0
M  CHG  2   3  -1  23  -1
M  END
>  <UniqueID>  (18) 
17

>  <SMILES>  (18) 
C=c1[n-]c(=O)n(CCc2ccccc2)c(=O)c1=Cc1ccc([O-])c(OCC)c1

>  <Energy>  (18) 
71.67059632605105

>  <Genealogy>  (18) 
C=c1[n-]c(=O)n(CCc2ccccc2)c(=O)c1=Cc1ccc([O-])c(OCC)c1 (protonated)
C=c1[n-]c(=O)n(CCc2ccccc2)c(=O)c1=Cc1ccc([O-])c(OCC)c1 (3D coordinates assigned)
C=c1[n-]c(=O)n(CCc2ccccc2)c(=O)c1=Cc1ccc([O-])c(OCC)c1 (optimized conformer: 71.67059632605105 kcal/mol)

>  <smiles>  (18) 
C=c1[nH]c(=O)n(CCc2ccccc2)c(=O)c1=Cc1ccc(O)c(OCC)c1

>  <score_type>  (18) 
oracle

>  <origin>  (18) 
adg

>  <m_score__min__energy>  (18) 
-13.24

>  <m_primary>  (18) 
energy

$$$$
18:0
     RDKit          3D

 65 68  0  0  0  0  0  0  0  0999 V2000
   60.8300   27.7900   48.3920 O   0  0  0  0  0  0  0  0  0  0  0  0
   59.6230   28.1120   48.5470 C   0  0  0  0  0  0  0  0  0  0  0  0
   59.2460   29.1280   49.4900 N   0  0  0  0  0  0  0  0  0  0  0  0
   60.1670   30.0890   50.0370 C   0  0  0  0  0  0  0  0  0  0  0  0
   61.3980   30.0050   49.7730 O   0  0  0  0  0  0  0  0  0  0  0  0
   59.6950   31.1720   50.9340 C   0  0  0  0  0  0  0  0  0  0  0  0
   60.1870   32.4700   50.7080 C   0  0  0  0  0  0  0  0  0  0  0  0
   59.8300   33.5240   51.5490 C   0  0  0  0  0  0  0  0  0  0  0  0
   58.9790   33.2970   52.6260 C   0  0  0  0  0  0  0  0  0  0  0  0
   58.4680   32.0200   52.8620 C   0  0  0  0  0  0  0  0  0  0  0  0
   58.7960   30.9490   52.0120 C   0  0  0  0  0  0  0  0  0  0  0  0
   58.1230   29.6510   52.2510 C   0  0  0  0  0  0  0  0  0  0  0  0
   57.0730   29.3430   51.6310 O   0  0  0  0  0  0  0  0  0  0  0  0
   58.6200   28.7800   53.2180 O   0  0  0  0  0  0  0  0  0  0  0  0
   58.6120   27.4080   47.8220 N   0  0  0  0  0  0  0  0  0  0  0  0
   58.3340   27.6310   46.4250 C   0  0  0  0  0  0  0  0  0  0  0  0
   58.4250   26.5630   45.5100 C   0  0  0  0  0  0  0  0  0  0  0  0
   58.0980   26.7440   44.1680 C   0  0  0  0  0  0  0  0  0  0  0  0
   57.6740   27.9900   43.7110 C   0  0  0  0  0  0  0  0  0  0  0  0
   57.5930   29.0760   44.5890 C   0  0  0  0  0  0  0  0  0  0  0  0
   57.1020   30.6580   43.9390 S   0  0  0  0  0  0  0  0  0  0  0  0
   57.4060   30.7120   42.4670 O   0  0  0  0  0  0  0  0  0  0  0  0
   55.6160   30.8150   44.1080 O   0  0  0  0  0  0  0  0  0  0  0  0
   57.9040   31.9830   44.7490 N   0  0  0  0  0  0  0  0  0  0  0  0
   56.9590   32.7150   45.6050 C   0  0  0  0  0  0  0  0  0  0  0  0
   57.6910   33.8110   46.4060 C   0  0  0  0  0  0  0  0  0  0  0  0
   59.0680   34.0460   45.9070 N   0  0  0  0  0  0  0  0  0  0  0  0
   59.6480   35.2730   46.5070 C   0  0  0  0  0  0  0  0  0  0  0  0
   60.4020   34.9580   47.8050 C   0  0  0  0  0  0  0  0  0  0  0  0
   61.2980   33.7630   47.6150 C   0  0  0  0  0  0  0  0  0  0  0  0
   60.7560   32.4780   47.4610 C   0  0  0  0  0  0  0  0  0  0  0  0
   61.6110   31.3910   47.2480 C   0  0  0  0  0  0  0  0  0  0  0  0
   62.9550   31.5820   47.1770 N   0  0  0  0  0  0  0  0  0  0  0  0
   63.5040   32.8190   47.3110 C   0  0  0  0  0  0  0  0  0  0  0  0
   62.6890   33.9320   47.5330 C   0  0  0  0  0  0  0  0  0  0  0  0
   59.0540   34.1740   44.4360 C   0  0  0  0  0  0  0  0  0  0  0  0
   58.5110   32.8960   43.7640 C   0  0  0  0  0  0  0  0  0  0  0  0
   57.9270   28.9050   45.9490 C   0  0  0  0  0  0  0  0  0  0  0  0
   57.8750   30.0200   46.7940 O   0  0  0  0  0  0  0  0  0  0  0  0
   58.2420   29.1720   49.7740 H   0  0  0  0  0  0  0  0  0  0  0  0
   60.8608   32.6561   49.8586 H   0  0  0  0  0  0  0  0  0  0  0  0
   60.2213   34.5347   51.3607 H   0  0  0  0  0  0  0  0  0  0  0  0
   58.7078   34.1276   53.2943 H   0  0  0  0  0  0  0  0  0  0  0  0
   57.8024   31.8497   53.7210 H   0  0  0  0  0  0  0  0  0  0  0  0
   58.0700   26.7050   48.3670 H   0  0  0  0  0  0  0  0  0  0  0  0
   58.7582   25.5747   45.8596 H   0  0  0  0  0  0  0  0  0  0  0  0
   58.1748   25.9001   43.4666 H   0  0  0  0  0  0  0  0  0  0  0  0
   57.4013   28.1206   42.6534 H   0  0  0  0  0  0  0  0  0  0  0  0
   56.1872   33.1817   44.9752 H   0  0  0  0  0  0  0  0  0  0  0  0
   56.4976   32.0080   46.3102 H   0  0  0  0  0  0  0  0  0  0  0  0
   57.1208   34.7483   46.3263 H   0  0  0  0  0  0  0  0  0  0  0  0
   57.7638   33.4736   47.4504 H   0  0  0  0  0  0  0  0  0  0  0  0
   60.3463   35.7272   45.7886 H   0  0  0  0  0  0  0  0  0  0  0  0
   58.8262   35.9650   46.7430 H   0  0  0  0  0  0  0  0  0  0  0  0
   61.0129   35.8274   48.0894 H   0  0  0  0  0  0  0  0  0  0  0  0
   59.6716   34.7340   48.5964 H   0  0  0  0  0  0  0  0  0  0  0  0
   59.6675   32.3263   47.5073 H   0  0  0  0  0  0  0  0  0  0  0  0
   61.1943   30.3790   47.1377 H   0  0  0  0  0  0  0  0  0  0  0  0
   64.5949   32.9439   47.2443 H   0  0  0  0  0  0  0  0  0  0  0  0
   63.1337   34.9321   47.6426 H   0  0  0  0  0  0  0  0  0  0  0  0
   58.4143   35.0243   44.1570 H   0  0  0  0  0  0  0  0  0  0  0  0
   60.0870   34.3329   44.0929 H   0  0  0  0  0  0  0  0  0  0  0  0
   57.7497   33.1784   43.0220 H   0  0  0  0  0  0  0  0  0  0  0  0
   59.3523   32.3750   43.2836 H   0  0  0  0  0  0  0  0  0  0  0  0
   58.3010   30.9110   46.5790 H   0  0  0  0  0  0  0  0  0  0  0  0
  1  2  2  0
  2  3  1  0
  3  4  1  0
  4  5  2  0
  4  6  1  0
  6  7  2  0
  7  8  1  0
  8  9  2  0
  9 10  1  0
 10 11  2  0
 11 12  1  0
 12 13  2  0
 12 14  1  0
  2 15  1  0
 15 16  1  0
 16 17  2  0
 17 18  1  0
 18 19  2  0
 19 20  1  0
 20 21  1  0
 21 22  2  0
 21 23  2  0
 21 24  1  0
 24 25  1  0
 25 26  1  0
 26 27  1  0
 27 28  1  0
 28 29  1  0
 29 30  1  0
 30 31  2  0
 31 32  1  0
 32 33  2  0
 33 34  1  0
 34 35  2  0
 27 36  1  0
 36 37  1  0
 20 38  2  0
 38 39  1  0
 11  6  1  0
 38 16  1  0
 37 24  1  0
 35 30  1  0
  3 40  1  0
  7 41  1  0
  8 42  1  0
  9 43  1  0
 10 44  1  0
 15 45  1  0
 17 46  1  0
 18 47  1  0
 19 48  1  0
 25 49  1  0
 25 50  1  0
 26 51  1  0
 26 52  1  0
 28 53  1  0
 28 54  1  0
 29 55  1  0
 29 56  1  0
 31 57  1  0
 32 58  1  0
 34 59  1  0
 35 60  1  0
 36 61  1  0
 36 62  1  0
 37 63  1  0
 37 64  1  0
 39 65  1  0
M  CHG  1  14  -1
M  END
>  <UniqueID>  (19) 
18

>  <SMILES>  (19) 
O=C(NC(=O)c1ccccc1C(=O)[O-])Nc1cccc(S(=O)(=O)N2CCN(CCc3ccncc3)CC2)c1O

>  <Energy>  (19) 
97.27240628857928

>  <Genealogy>  (19) 
O=C(NC(=O)c1ccccc1C(=O)[O-])Nc1cccc(S(=O)(=O)N2CCN(CCc3ccncc3)CC2)c1O (protonated)
O=C(NC(=O)c1ccccc1C(=O)[O-])Nc1cccc(S(=O)(=O)N2CCN(CCc3ccncc3)CC2)c1O (3D coordinates assigned)
O=C(NC(=O)c1ccccc1C(=O)[O-])Nc1cccc(S(=O)(=O)N2CCN(CCc3ccncc3)CC2)c1O (nonaromatic ring conformer: 97.27240628857928 kcal/mol)

>  <smiles>  (19) 
O=C(NC(=O)c1ccccc1C(=O)O)Nc1cccc(S(=O)(=O)N2CCN(CCc3ccncc3)CC2)c1O

>  <score_type>  (19) 
oracle

>  <origin>  (19) 
adg

>  <m_score__min__energy>  (19) 
-12.640000000000001

>  <m_primary>  (19) 
energy

$$$$
19:0
     RDKit          3D

 62 65  0  0  1  0  0  0  0  0999 V2000
   58.1760   34.1770   52.7220 C   0  0  0  0  0  0  0  0  0  0  0  0
   58.6310   33.2260   51.6610 C   0  0  0  0  0  0  0  0  0  0  0  0
   59.5270   33.6260   50.6660 C   0  0  0  0  0  0  0  0  0  0  0  0
   59.9650   32.7510   49.6860 C   0  0  0  0  0  0  0  0  0  0  0  0
   60.9510   33.2560   48.6670 C   0  0  0  0  0  0  0  0  0  0  0  0
   60.2540   34.2840   47.8210 C   0  0  0  0  0  0  0  0  0  0  0  0
   60.0500   33.9140   46.3810 C   0  0  0  0  0  0  0  0  0  0  0  0
   59.2150   32.6320   46.3990 C   0  0  0  0  0  0  0  0  0  0  0  0
   57.7680   32.9060   46.7740 C   0  0  0  0  0  0  0  0  0  0  0  0
   57.1560   33.7840   45.8880 O   0  0  0  0  0  0  0  0  0  0  0  0
   58.0510   34.2720   44.9380 C   0  0  0  0  0  0  0  0  0  0  0  0
   59.2750   34.9190   45.5940 C   0  0  0  0  0  0  0  0  0  0  0  0
   59.5180   31.4250   49.6620 C   0  0  0  0  0  0  0  0  0  0  0  0
   60.0180   30.4990   48.6280 C   0  0  0  0  0  0  0  0  0  0  0  0
   59.1090   29.4170   48.3180 N   0  0  0  0  0  0  0  0  0  0  0  0
   59.3590   28.5030   47.2620 C   0  0  0  0  0  0  0  0  0  0  0  0
   60.3690   28.5820   46.5200 O   0  0  0  0  0  0  0  0  0  0  0  0
   58.3840   27.4130   47.0440 C   0  0  0  0  0  0  0  0  0  0  0  0
   57.1800   27.4530   46.3880 C   0  0  0  0  0  0  0  0  0  0  0  0
   56.6460   26.1810   46.4130 C   0  0  0  0  0  0  0  0  0  0  0  0
   55.5510   25.7400   45.9400 N   0  0  0  0  0  0  0  0  0  0  0  0
   55.2670   24.3620   45.9200 C   0  0  0  0  0  0  0  0  0  0  0  0
   54.6560   23.6950   46.7630 O   0  0  0  0  0  0  0  0  0  0  0  0
   55.7660   23.6230   44.7370 C   0  0  0  0  0  0  0  0  0  0  0  0
   56.2490   24.1190   43.5490 C   0  0  0  0  0  0  0  0  0  0  0  0
   56.5710   23.0440   42.7900 N   0  0  0  0  0  0  0  0  0  0  0  0
   56.3110   21.8980   43.4490 C   0  0  0  0  0  0  0  0  0  0  0  0
   56.5080   20.5960   42.9990 O   0  0  0  0  0  0  0  0  0  0  0  0
   55.7970   22.2360   44.6960 C   0  0  0  0  0  0  0  0  0  0  0  0
   57.5220   25.3870   47.0780 N   0  0  0  0  0  0  0  0  0  0  0  0
   58.5460   26.1130   47.4490 N   0  0  0  0  0  0  0  0  0  0  0  0
   58.6370   31.0780   50.6610 C   0  0  0  0  0  0  0  0  0  0  0  0
   58.1350   29.9300   50.7930 O   0  0  0  0  0  0  0  0  0  0  0  0
   58.2230   31.9650   51.6160 N   0  0  0  0  0  0  0  0  0  0  0  0
   58.3820   33.7465   53.7131 H   0  0  0  0  0  0  0  0  0  0  0  0
   58.7159   35.1296   52.6166 H   0  0  0  0  0  0  0  0  0  0  0  0
   57.0955   34.3543   52.6166 H   0  0  0  0  0  0  0  0  0  0  0  0
   59.8940   34.6630   50.6611 H   0  0  0  0  0  0  0  0  0  0  0  0
   61.8133   33.7123   49.1752 H   0  0  0  0  0  0  0  0  0  0  0  0
   61.3147   32.4273   48.0417 H   0  0  0  0  0  0  0  0  0  0  0  0
   59.2652   34.4723   48.2646 H   0  0  0  0  0  0  0  0  0  0  0  0
   60.9151   35.1632   47.8132 H   0  0  0  0  0  0  0  0  0  0  0  0
   61.0392   33.8270   45.9078 H   0  0  0  0  0  0  0  0  0  0  0  0
   59.2432   32.1747   45.3990 H   0  0  0  0  0  0  0  0  0  0  0  0
   59.6420   31.9565   47.1549 H   0  0  0  0  0  0  0  0  0  0  0  0
   57.2145   31.9554   46.7706 H   0  0  0  0  0  0  0  0  0  0  0  0
   57.7584   33.3696   47.7715 H   0  0  0  0  0  0  0  0  0  0  0  0
   58.3856   33.4391   44.3022 H   0  0  0  0  0  0  0  0  0  0  0  0
   57.5349   35.0393   44.3423 H   0  0  0  0  0  0  0  0  0  0  0  0
   59.9226   35.3409   44.8113 H   0  0  0  0  0  0  0  0  0  0  0  0
   58.9315   35.7110   46.2758 H   0  0  0  0  0  0  0  0  0  0  0  0
   60.1988   31.0734   47.7075 H   0  0  0  0  0  0  0  0  0  0  0  0
   60.9344   30.0402   49.0278 H   0  0  0  0  0  0  0  0  0  0  0  0
   58.2210   29.2920   48.8320 H   0  0  0  0  0  0  0  0  0  0  0  0
   56.7224   28.3398   45.9252 H   0  0  0  0  0  0  0  0  0  0  0  0
   56.3532   25.1780   43.2703 H   0  0  0  0  0  0  0  0  0  0  0  0
   56.9750   23.0220   41.8150 H   0  0  0  0  0  0  0  0  0  0  0  0
   57.1850   19.9690   43.3810 H   0  0  0  0  0  0  0  0  0  0  0  0
   55.4791   21.5439   45.4897 H   0  0  0  0  0  0  0  0  0  0  0  0
   57.4280   24.3470   47.2770 H   0  0  0  0  0  0  0  0  0  0  0  0
   59.3540   25.7130   47.9860 H   0  0  0  0  0  0  0  0  0  0  0  0
   57.5400   31.6640   52.3690 H   0  0  0  0  0  0  0  0  0  0  0  0
  1  2  1  0
  2  3  2  0
  3  4  1  0
  4  5  1  0
  5  6  1  0
  6  7  1  0
  7  8  1  0
  8  9  1  0
  9 10  1  0
 10 11  1  0
 11 12  1  0
  4 13  2  0
 13 14  1  0
 14 15  1  0
 15 16  1  0
 16 17  2  0
 16 18  1  0
 18 19  2  0
 19 20  1  0
 20 21  2  0
 21 22  1  0
 22 23  2  0
 22 24  1  0
 24 25  2  0
 25 26  1  0
 26 27  1  0
 27 28  1  0
 27 29  2  0
 20 30  1  0
 30 31  1  0
 13 32  1  0
 32 33  2  0
 32 34  1  0
 34  2  1  0
 12  7  1  0
 31 18  1  0
 29 24  1  0
  1 35  1  0
  1 36  1  0
  1 37  1  0
  3 38  1  0
  5 39  1  0
  5 40  1  0
  6 41  1  0
  6 42  1  0
  7 43  1  0
  8 44  1  0
  8 45  1  0
  9 46  1  0
  9 47  1  0
 11 48  1  0
 11 49  1  0
 12 50  1  0
 12 51  1  0
 14 52  1  0
 14 53  1  0
 15 54  1  0
 19 55  1  0
 25 56  1  0
 26 57  1  0
 28 58  1  0
 29 59  1  0
 30 60  1  0
 31 61  1  0
 34 62  1  0
M  END
>  <smiles>  (20) 
Cc1cc(CCC2CCOCC2)c(CNC(=O)c2cc(=NC(=O)c3c[nH]c(O)c3)[nH][nH]2)c(=O)[nH]1

>  <score_type>  (20) 
oracle

>  <origin>  (20) 
adg

>  <m_score__min__energy>  (20) 
-10.08

>  <m_primary>  (20) 
energy

$$$$
20:0
     RDKit          3D

 72 75  0  0  0  0  0  0  0  0999 V2000
   57.2810   20.0270   43.5670 H   0  0  0  0  0  0  0  0  0  0  0  0
   56.9180   20.8330   43.0080 N   0  0  0  0  0  0  0  0  0  0  0  0
   56.2810   21.8100   43.5680 C   0  0  0  0  0  0  0  0  0  0  0  0
   55.4840   21.5770   44.6460 N   0  0  0  0  0  0  0  0  0  0  0  0
   54.7950   22.5700   45.2710 C   0  0  0  0  0  0  0  0  0  0  0  0
   53.9660   22.2170   46.4730 C   0  0  0  0  0  0  0  0  0  0  0  0
   54.5272   22.4559   47.3884 H   0  0  0  0  0  0  0  0  0  0  0  0
   53.0300   22.7946   46.4554 H   0  0  0  0  0  0  0  0  0  0  0  0
   53.7338   21.1419   46.4554 H   0  0  0  0  0  0  0  0  0  0  0  0
   54.8780   23.8950   44.7780 C   0  0  0  0  0  0  0  0  0  0  0  0
   54.1260   25.0380   45.4180 C   0  0  0  0  0  0  0  0  0  0  0  0
   53.2950   25.3375   44.7624 H   0  0  0  0  0  0  0  0  0  0  0  0
   53.7380   24.7086   46.3931 H   0  0  0  0  0  0  0  0  0  0  0  0
   55.0130   26.1790   45.6220 N   0  0  0  0  0  0  0  0  0  0  0  0
   54.7730   27.0900   45.1710 H   0  0  0  0  0  0  0  0  0  0  0  0
   56.1750   26.0920   46.4600 C   0  0  0  0  0  0  0  0  0  0  0  0
   56.3020   25.1260   47.2610 O   0  0  0  0  0  0  0  0  0  0  0  0
   57.2420   27.1040   46.3700 C   0  0  0  0  0  0  0  0  0  0  0  0
   58.3740   27.1820   47.1570 C   0  0  0  0  0  0  0  0  0  0  0  0
   58.6979   26.4550   47.9163 H   0  0  0  0  0  0  0  0  0  0  0  0
   59.0220   28.3540   46.8040 C   0  0  0  0  0  0  0  0  0  0  0  0
   60.2310   28.8700   47.4940 C   0  0  0  0  0  0  0  0  0  0  0  0
   61.0700   28.0760   47.9910 O   0  0  0  0  0  0  0  0  0  0  0  0
   60.3860   30.2710   47.7380 N   0  0  0  0  0  0  0  0  0  0  0  0
   59.8100   31.0280   48.6320 C   0  0  0  0  0  0  0  0  0  0  0  0
   59.4730   30.4430   50.1650 S   0  0  0  0  0  0  0  0  0  0  0  0
   58.6060   31.8080   50.6380 C   0  0  0  0  0  0  0  0  0  0  0  0
   57.9810   32.0640   52.0010 C   0  0  0  0  0  0  0  0  0  0  0  0
   58.6910   31.2470   53.1030 C   0  0  0  0  0  0  0  0  0  0  0  0
   58.3742   31.6115   54.0913 H   0  0  0  0  0  0  0  0  0  0  0  0
   58.4243   30.1847   53.0012 H   0  0  0  0  0  0  0  0  0  0  0  0
   59.7801   31.3630   53.0012 H   0  0  0  0  0  0  0  0  0  0  0  0
   58.0960   33.5620   52.3360 C   0  0  0  0  0  0  0  0  0  0  0  0
   58.1061   33.6938   53.4280 H   0  0  0  0  0  0  0  0  0  0  0  0
   59.0275   33.9626   51.9097 H   0  0  0  0  0  0  0  0  0  0  0  0
   57.2365   34.1001   51.9097 H   0  0  0  0  0  0  0  0  0  0  0  0
   56.4970   31.6510   51.9670 C   0  0  0  0  0  0  0  0  0  0  0  0
   56.1218   31.5466   52.9957 H   0  0  0  0  0  0  0  0  0  0  0  0
   55.9141   32.4210   51.4405 H   0  0  0  0  0  0  0  0  0  0  0  0
   56.3957   30.6905   51.4405 H   0  0  0  0  0  0  0  0  0  0  0  0
   58.6440   32.7130   49.5780 C   0  0  0  0  0  0  0  0  0  0  0  0
   58.1509   33.6949   49.6296 H   0  0  0  0  0  0  0  0  0  0  0  0
   59.3330   32.3030   48.4700 N   0  0  0  0  0  0  0  0  0  0  0  0
   59.6860   33.2920   47.4330 C   0  0  0  0  0  0  0  0  0  0  0  0
   59.7130   32.7856   46.4569 H   0  0  0  0  0  0  0  0  0  0  0  0
   58.9252   34.0862   47.4549 H   0  0  0  0  0  0  0  0  0  0  0  0
   61.0580   33.9490   47.6880 C   0  0  1  0  0  0  0  0  0  0  0  0
   60.9052   35.0258   47.5230 H   0  0  0  0  0  0  0  0  0  0  0  0
   61.4890   33.7210   49.0140 O   0  0  0  0  0  0  0  0  0  0  0  0
   62.7900   33.1860   48.9540 C   0  0  0  0  0  0  0  0  0  0  0  0
   62.7526   32.1035   49.1460 H   0  0  0  0  0  0  0  0  0  0  0  0
   63.4242   33.6663   49.7137 H   0  0  0  0  0  0  0  0  0  0  0  0
   63.3640   33.4370   47.5770 C   0  0  0  0  0  0  0  0  0  0  0  0
   64.0290   32.6167   47.2692 H   0  0  0  0  0  0  0  0  0  0  0  0
   63.9795   34.3469   47.5204 H   0  0  0  0  0  0  0  0  0  0  0  0
   62.1420   33.4930   46.7150 C   0  0  0  0  0  0  0  0  0  0  0  0
   61.9072   32.5031   46.2967 H   0  0  0  0  0  0  0  0  0  0  0  0
   62.2536   34.1587   45.8464 H   0  0  0  0  0  0  0  0  0  0  0  0
   58.3320   28.9750   45.8120 N   0  0  0  0  0  0  0  0  0  0  0  0
   58.5980   30.2750   45.1870 C   0  0  0  0  0  0  0  0  0  0  0  0
   58.8680   31.0022   45.9669 H   0  0  0  0  0  0  0  0  0  0  0  0
   59.4242   30.1603   44.4699 H   0  0  0  0  0  0  0  0  0  0  0  0
   57.3660   30.7760   44.4400 C   0  0  0  0  0  0  0  0  0  0  0  0
   56.5994   31.0877   45.1647 H   0  0  0  0  0  0  0  0  0  0  0  0
   57.6434   31.6328   43.8083 H   0  0  0  0  0  0  0  0  0  0  0  0
   56.9668   29.9688   43.8083 H   0  0  0  0  0  0  0  0  0  0  0  0
   57.2440   28.2210   45.5560 C   0  0  0  0  0  0  0  0  0  0  0  0
   56.4720   28.4596   44.8096 H   0  0  0  0  0  0  0  0  0  0  0  0
   55.7140   24.1490   43.6790 C   0  0  0  0  0  0  0  0  0  0  0  0
   55.8167   25.1746   43.2948 H   0  0  0  0  0  0  0  0  0  0  0  0
   56.4150   23.1070   43.0720 C   0  0  0  0  0  0  0  0  0  0  0  0
   57.0680   23.3063   42.2095 H   0  0  0  0  0  0  0  0  0  0  0  0
  1  2  1  0
  2  3  2  0
  3  4  1  0
  4  5  1  0
  5  6  1  0
  6  7  1  0
  6  8  1  0
  6  9  1  0
  5 10  2  0
 10 11  1  0
 11 12  1  0
 11 13  1  0
 11 14  1  0
 14 15  1  0
 14 16  1  0
 16 17  2  0
 16 18  1  0
 18 19  1  0
 19 20  1  0
 19 21  2  0
 21 22  1  0
 22 23  2  0
 22 24  1  0
 24 25  2  3
 25 26  1  0
 26 27  1  0
 27 28  1  0
 28 29  1  0
 29 30  1  0
 29 31  1  0
 29 32  1  0
 28 33  1  0
 33 34  1  0
 33 35  1  0
 33 36  1  0
 28 37  1  0
 37 38  1  0
 37 39  1  0
 37 40  1  0
 27 41  2  0
 41 42  1  0
 41 43  1  0
 43 44  1  0
 44 45  1  0
 44 46  1  0
 44 47  1  0
 47 48  1  1
 47 49  1  0
 49 50  1  0
 50 51  1  0
 50 52  1  0
 50 53  1  0
 53 54  1  0
 53 55  1  0
 53 56  1  0
 56 57  1  0
 56 58  1  0
 21 59  1  0
 59 60  1  0
 60 61  1  0
 60 62  1  0
 60 63  1  0
 63 64  1  0
 63 65  1  0
 63 66  1  0
 59 67  1  0
 67 68  1  0
 10 69  1  0
 69 70  1  0
 69 71  2  0
 71 72  1  0
 71  3  1  0
 67 18  2  0
 43 25  1  0
 56 47  1  0
M  CHG  1   4  -1
M  END
>  <UniqueID>  (21) 
19

>  <SMILES>  (21) 
[H]/N=c1/ccc(CNC(=O)c2cc(C(=O)N=c3sc(C(C)(C)C)cn3C[C@@H]3CCCO3)n(CC)c2)c(C)[n-]1

>  <Energy>  (21) 
133.96868717643846

>  <Genealogy>  (21) 
CCn1cc(C(=O)NCc2ccc(=N)[n-]c2C)cc1C(=O)N=c1sc(C(C)(C)C)cn1CC1CCCO1 (protonated)
CCn1cc(C(=O)NCc2ccc(=N)[n-]c2C)cc1C(=O)N=c1sc(C(C)(C)C)cn1C[C@@H]1CCCO1 (chirality)
[H]/N=c1/ccc(CNC(=O)c2cc(C(=O)N=c3sc(C(C)(C)C)cn3C[C@@H]3CCCO3)n(CC)c2)c(C)[n-]1 (cis-trans isomerization)
[H]/N=c1/ccc(CNC(=O)c2cc(C(=O)N=c3sc(C(C)(C)C)cn3C[C@@H]3CCCO3)n(CC)c2)c(C)[n-]1 (3D coordinates assigned)
[H]/N=c1/ccc(CNC(=O)c2cc(C(=O)N=c3sc(C(C)(C)C)cn3C[C@@H]3CCCO3)n(CC)c2)c(C)[n-]1 (nonaromatic ring conformer: 133.96868717643846 kcal/mol)

>  <smiles>  (21) 
CCn1cc(C(=O)NCc2ccc(=N)[nH]c2C)cc1C(=O)N=c1sc(C(C)(C)C)cn1CC1CCCO1

>  <score_type>  (21) 
oracle

>  <origin>  (21) 
adg

>  <m_score__min__energy>  (21) 
-12.279999999999999

>  <m_primary>  (21) 
energy

$$$$
21:0
     RDKit          3D

 34 35  0  0  0  0  0  0  0  0999 V2000
   56.3440   29.8240   42.7630 C   0  0  0  0  0  0  0  0  0  0  0  0
   55.7020   30.1590   44.1060 C   0  0  0  0  0  0  0  0  0  0  0  0
   55.5150   28.9790   44.8860 O   0  0  0  0  0  0  0  0  0  0  0  0
   56.5390   28.1850   45.4310 C   0  0  0  0  0  0  0  0  0  0  0  0
   57.8890   28.5900   45.4430 C   0  0  0  0  0  0  0  0  0  0  0  0
   58.8750   27.7740   46.0220 C   0  0  0  0  0  0  0  0  0  0  0  0
   60.3010   28.2540   46.1000 C   0  0  0  0  0  0  0  0  0  0  0  0
   60.3910   29.3930   47.0680 C   0  0  0  0  0  0  0  0  0  0  0  0
   61.1390   29.2970   48.0780 O   0  0  0  0  0  0  0  0  0  0  0  0
   59.6870   30.6130   46.8040 N   0  0  0  0  0  0  0  0  0  0  0  0
   60.2040   31.9030   47.2490 C   0  0  0  0  0  0  0  0  0  0  0  0
   59.3980   33.0030   46.6340 C   0  0  0  0  0  0  0  0  0  0  0  0
   59.8000   34.2880   46.5920 N   0  0  0  0  0  0  0  0  0  0  0  0
   58.8890   34.9490   45.9000 N   0  0  0  0  0  0  0  0  0  0  0  0
   57.9700   34.0400   45.5340 C   0  0  0  0  0  0  0  0  0  0  0  0
   56.9550   34.3240   44.8460 O   0  0  0  0  0  0  0  0  0  0  0  0
   58.2460   32.7960   45.9650 N   0  0  0  0  0  0  0  0  0  0  0  0
   58.5060   26.5470   46.5920 C   0  0  0  0  0  0  0  0  0  0  0  0
   57.1720   26.1370   46.5740 C   0  0  0  0  0  0  0  0  0  0  0  0
   56.1920   26.9520   45.9990 C   0  0  0  0  0  0  0  0  0  0  0  0
   54.8670   26.5340   45.9990 O   0  0  0  0  0  0  0  0  0  0  0  0
   57.3076   29.3212   42.9325 H   0  0  0  0  0  0  0  0  0  0  0  0
   55.6781   29.1584   42.1942 H   0  0  0  0  0  0  0  0  0  0  0  0
   56.5091   30.7509   42.1942 H   0  0  0  0  0  0  0  0  0  0  0  0
   56.3546   30.8542   44.6544 H   0  0  0  0  0  0  0  0  0  0  0  0
   54.7202   30.6199   43.9225 H   0  0  0  0  0  0  0  0  0  0  0  0
   58.1730   29.5536   44.9950 H   0  0  0  0  0  0  0  0  0  0  0  0
   60.9469   27.4313   46.4405 H   0  0  0  0  0  0  0  0  0  0  0  0
   60.6300   28.5904   45.1057 H   0  0  0  0  0  0  0  0  0  0  0  0
   58.9070   30.6050   46.1090 H   0  0  0  0  0  0  0  0  0  0  0  0
   60.1354   31.9670   48.3450 H   0  0  0  0  0  0  0  0  0  0  0  0
   61.2552   32.0025   46.9406 H   0  0  0  0  0  0  0  0  0  0  0  0
   59.2704   25.9056   47.0548 H   0  0  0  0  0  0  0  0  0  0  0  0
   56.8904   25.1689   47.0139 H   0  0  0  0  0  0  0  0  0  0  0  0
  1  2  1  0
  2  3  1  0
  3  4  1  0
  4  5  2  0
  5  6  1  0
  6  7  1  0
  7  8  1  0
  8  9  2  0
  8 10  1  0
 10 11  1  0
 11 12  1  0
 12 13  2  0
 13 14  1  0
 14 15  1  0
 15 16  2  0
 15 17  1  0
  6 18  2  0
 18 19  1  0
 19 20  2  0
 20 21  1  0
 20  4  1  0
 17 12  1  0
  1 22  1  0
  1 23  1  0
  1 24  1  0
  2 25  1  0
  2 26  1  0
  5 27  1  0
  7 28  1  0
  7 29  1  0
 10 30  1  0
 11 31  1  0
 11 32  1  0
 18 33  1  0
 19 34  1  0
M  CHG  3  14  -1  17  -1  21  -1
M  END
>  <UniqueID>  (22) 
20

>  <SMILES>  (22) 
CCOc1cc(CC(=O)NCc2n[n-]c(=O)[n-]2)ccc1[O-]

>  <Energy>  (22) 
58.0669161127349

>  <Genealogy>  (22) 
CCOc1cc(CC(=O)NCc2n[n-]c(=O)[n-]2)ccc1[O-] (protonated)
CCOc1cc(CC(=O)NCc2n[n-]c(=O)[n-]2)ccc1[O-] (3D coordinates assigned)
CCOc1cc(CC(=O)NCc2n[n-]c(=O)[n-]2)ccc1[O-] (optimized conformer: 58.0669161127349 kcal/mol)

>  <smiles>  (22) 
CCOc1cc(CC(=O)NCc2n[nH]c(=O)[nH]2)ccc1O

>  <score_type>  (22) 
oracle

>  <origin>  (22) 
adg

>  <m_score__min__energy>  (22) 
-11.91

>  <m_primary>  (22) 
energy

$$$$
22:0
     RDKit          3D

 39 41  0  0  0  0  0  0  0  0999 V2000
   56.8810   31.9230   53.1330 O   0  0  0  0  0  0  0  0  0  0  0  0
   56.3290   30.9440   52.5590 C   0  0  0  0  0  0  0  0  0  0  0  0
   54.9400   30.6750   52.7750 N   0  0  0  0  0  0  0  0  0  0  0  0
   54.1510   29.8250   51.8900 C   0  0  0  0  0  0  0  0  0  0  0  0
   53.0170   30.6130   51.3000 C   0  0  0  0  0  0  0  0  0  0  0  0
   52.4830   31.7140   51.9800 C   0  0  0  0  0  0  0  0  0  0  0  0
   51.3900   32.3780   51.4220 C   0  0  0  0  0  0  0  0  0  0  0  0
   50.8870   33.3730   52.0050 O   0  0  0  0  0  0  0  0  0  0  0  0
   50.8630   31.9450   50.2460 N   0  0  0  0  0  0  0  0  0  0  0  0
   51.3830   30.8670   49.6040 C   0  0  0  0  0  0  0  0  0  0  0  0
   50.8760   30.4750   48.5220 O   0  0  0  0  0  0  0  0  0  0  0  0
   52.4480   30.2090   50.1320 N   0  0  0  0  0  0  0  0  0  0  0  0
   57.0850   30.0980   51.6860 N   0  0  0  0  0  0  0  0  0  0  0  0
   58.1770   30.5730   50.8770 C   0  0  0  0  0  0  0  0  0  0  0  0
   59.2610   29.7240   50.6130 C   0  0  0  0  0  0  0  0  0  0  0  0
   60.3180   30.1590   49.8080 C   0  0  0  0  0  0  0  0  0  0  0  0
   60.2890   31.4360   49.2400 C   0  0  0  0  0  0  0  0  0  0  0  0
   59.1960   32.2820   49.4580 C   0  0  0  0  0  0  0  0  0  0  0  0
   59.1950   33.5550   48.8680 O   0  0  0  0  0  0  0  0  0  0  0  0
   58.8370   33.8280   47.5380 C   0  0  0  0  0  0  0  0  0  0  0  0
   57.7170   33.2270   46.9350 C   0  0  0  0  0  0  0  0  0  0  0  0
   57.3890   33.5240   45.6090 C   0  0  0  0  0  0  0  0  0  0  0  0
   58.1820   34.4090   44.8730 C   0  0  0  0  0  0  0  0  0  0  0  0
   59.3090   34.9890   45.4590 C   0  0  0  0  0  0  0  0  0  0  0  0
   59.6400   34.6930   46.7860 C   0  0  0  0  0  0  0  0  0  0  0  0
   58.1480   31.8520   50.2910 C   0  0  0  0  0  0  0  0  0  0  0  0
   54.7924   29.4471   51.0802 H   0  0  0  0  0  0  0  0  0  0  0  0
   53.7438   28.9816   52.4669 H   0  0  0  0  0  0  0  0  0  0  0  0
   52.9160   32.0486   52.9342 H   0  0  0  0  0  0  0  0  0  0  0  0
   56.7900   29.1000   51.5950 H   0  0  0  0  0  0  0  0  0  0  0  0
   59.2799   28.7110   51.0412 H   0  0  0  0  0  0  0  0  0  0  0  0
   61.1746   29.4947   49.6211 H   0  0  0  0  0  0  0  0  0  0  0  0
   61.1298   31.7776   48.6184 H   0  0  0  0  0  0  0  0  0  0  0  0
   57.0978   32.5215   47.5085 H   0  0  0  0  0  0  0  0  0  0  0  0
   56.5061   33.0608   45.1444 H   0  0  0  0  0  0  0  0  0  0  0  0
   57.9183   34.6486   43.8323 H   0  0  0  0  0  0  0  0  0  0  0  0
   59.9372   35.6793   44.8769 H   0  0  0  0  0  0  0  0  0  0  0  0
   60.5355   35.1423   47.2402 H   0  0  0  0  0  0  0  0  0  0  0  0
   57.2975   32.5217   50.4864 H   0  0  0  0  0  0  0  0  0  0  0  0
  1  2  2  0
  2  3  1  0
  3  4  1  0
  4  5  1  0
  5  6  2  0
  6  7  1  0
  7  8  2  0
  7  9  1  0
  9 10  1  0
 10 11  2  0
 10 12  1  0
  2 13  1  0
 13 14  1  0
 14 15  2  0
 15 16  1  0
 16 17  2  0
 17 18  1  0
 18 19  1  0
 19 20  1  0
 20 21  2  0
 21 22  1  0
 22 23  2  0
 23 24  1  0
 24 25  2  0
 18 26  2  0
 12  5  1  0
 26 14  1  0
 25 20  1  0
  4 27  1  0
  4 28  1  0
  6 29  1  0
 13 30  1  0
 15 31  1  0
 16 32  1  0
 17 33  1  0
 21 34  1  0
 22 35  1  0
 23 36  1  0
 24 37  1  0
 25 38  1  0
 26 39  1  0
M  CHG  3   3  -1   9  -1  12  -1
M  END
>  <UniqueID>  (23) 
21

>  <SMILES>  (23) 
O=C([N-]Cc1cc(=O)[n-]c(=O)[n-]1)Nc1cccc(Oc2ccccc2)c1

>  <Energy>  (23) 
48.27840167934527

>  <Genealogy>  (23) 
O=C([N-]Cc1cc(=O)[n-]c(=O)[n-]1)Nc1cccc(Oc2ccccc2)c1 (protonated)
O=C([N-]Cc1cc(=O)[n-]c(=O)[n-]1)Nc1cccc(Oc2ccccc2)c1 (3D coordinates assigned)
O=C([N-]Cc1cc(=O)[n-]c(=O)[n-]1)Nc1cccc(Oc2ccccc2)c1 (optimized conformer: 48.27840167934527 kcal/mol)

>  <smiles>  (23) 
O=C(NCc1cc(=O)[nH]c(=O)[nH]1)Nc1cccc(Oc2ccccc2)c1

>  <score_type>  (23) 
oracle

>  <origin>  (23) 
adg

>  <m_score__min__energy>  (23) 
-14.58

>  <m_primary>  (23) 
energy

$$$$
23:0
     RDKit          3D

 51 55  0  0  0  0  0  0  0  0999 V2000
   51.7930   22.5868   45.3185 H   0  0  0  0  0  0  0  0  0  0  0  0
   52.7720   23.0270   45.5590 C   0  0  0  0  0  0  0  0  0  0  0  0
   53.8230   22.2070   45.9810 C   0  0  0  0  0  0  0  0  0  0  0  0
   53.6684   21.1221   46.0764 H   0  0  0  0  0  0  0  0  0  0  0  0
   55.0700   22.7630   46.2820 C   0  0  0  0  0  0  0  0  0  0  0  0
   55.8883   22.1169   46.6327 H   0  0  0  0  0  0  0  0  0  0  0  0
   55.2810   24.1440   46.1380 C   0  0  0  0  0  0  0  0  0  0  0  0
   56.5390   24.7420   46.4700 N   0  0  0  0  0  0  0  0  0  0  0  0
   57.4040   25.4570   45.5820 C   0  0  0  0  0  0  0  0  0  0  0  0
   58.5490   24.9780   45.3510 O   0  0  0  0  0  0  0  0  0  0  0  0
   57.0650   26.8610   45.0940 C   0  0  2  0  0  0  0  0  0  0  0  0
   55.9884   26.8474   44.8689 H   0  0  0  0  0  0  0  0  0  0  0  0
   57.7610   27.2470   43.7970 C   0  0  0  0  0  0  0  0  0  0  0  0
   58.0180   26.2540   42.7020 C   0  0  0  0  0  0  0  0  0  0  0  0
   58.2705   25.2786   43.1434 H   0  0  0  0  0  0  0  0  0  0  0  0
   57.1165   26.1527   42.0799 H   0  0  0  0  0  0  0  0  0  0  0  0
   58.8555   26.6027   42.0799 H   0  0  0  0  0  0  0  0  0  0  0  0
   57.9530   28.5030   43.5280 N   0  0  0  0  0  0  0  0  0  0  0  0
   57.5980   29.5560   44.4320 C   0  0  0  0  0  0  0  0  0  0  0  0
   57.6910   30.9120   43.9690 N   0  0  0  0  0  0  0  0  0  0  0  0
   58.1500   31.9140   44.6560 C   0  0  0  0  0  0  0  0  0  0  0  0
   58.5400   33.0760   44.0660 N   0  0  0  0  0  0  0  0  0  0  0  0
   58.8920   33.8160   45.1320 C   0  0  0  0  0  0  0  0  0  0  0  0
   59.3590   35.1300   45.1450 C   0  0  0  0  0  0  0  0  0  0  0  0
   59.5058   35.6923   44.2111 H   0  0  0  0  0  0  0  0  0  0  0  0
   59.6360   35.7110   46.3990 C   0  0  0  0  0  0  0  0  0  0  0  0
   60.0031   36.7466   46.4520 H   0  0  0  0  0  0  0  0  0  0  0  0
   59.4450   34.9710   47.5910 C   0  0  0  0  0  0  0  0  0  0  0  0
   59.6666   35.4346   48.5636 H   0  0  0  0  0  0  0  0  0  0  0  0
   58.9730   33.6450   47.5390 C   0  0  0  0  0  0  0  0  0  0  0  0
   58.8217   33.0565   48.4559 H   0  0  0  0  0  0  0  0  0  0  0  0
   58.7050   33.1070   46.2820 C   0  0  0  0  0  0  0  0  0  0  0  0
   58.2460   31.9230   45.9770 O   0  0  0  0  0  0  0  0  0  0  0  0
   57.2740   29.2810   45.6680 N   0  0  0  0  0  0  0  0  0  0  0  0
   57.0880   30.0520   46.3470 H   0  0  0  0  0  0  0  0  0  0  0  0
   57.3470   27.9160   46.2020 C   0  0  2  0  0  0  0  0  0  0  0  0
   56.5592   27.7774   46.9571 H   0  0  0  0  0  0  0  0  0  0  0  0
   58.6770   27.7080   46.8870 C   0  0  0  0  0  0  0  0  0  0  0  0
   59.7980   27.2980   46.2530 N   0  0  0  0  0  0  0  0  0  0  0  0
   60.7580   27.2530   47.1670 N   0  0  0  0  0  0  0  0  0  0  0  0
   60.2910   27.6300   48.3440 N   0  0  0  0  0  0  0  0  0  0  0  0
   61.0570   27.6090   49.5850 C   0  0  0  0  0  0  0  0  0  0  0  0
   60.3675   27.6279   50.4419 H   0  0  0  0  0  0  0  0  0  0  0  0
   61.6660   26.6938   49.6245 H   0  0  0  0  0  0  0  0  0  0  0  0
   61.7152   28.4894   49.6245 H   0  0  0  0  0  0  0  0  0  0  0  0
   58.9840   27.9280   48.2160 C   0  0  0  0  0  0  0  0  0  0  0  0
   58.3019   28.2749   49.0062 H   0  0  0  0  0  0  0  0  0  0  0  0
   54.2140   24.9650   45.7430 C   0  0  0  0  0  0  0  0  0  0  0  0
   54.3950   26.3340   45.6350 O   0  0  0  0  0  0  0  0  0  0  0  0
   52.9660   24.4060   45.4430 C   0  0  0  0  0  0  0  0  0  0  0  0
   52.1381   25.0523   45.1160 H   0  0  0  0  0  0  0  0  0  0  0  0
  1  2  1  0
  2  3  2  0
  3  4  1  0
  3  5  1  0
  5  6  1  0
  5  7  2  0
  7  8  1  0
  8  9  1  0
  9 10  2  0
  9 11  1  0
 11 12  1  6
 11 13  1  0
 13 14  1  0
 14 15  1  0
 14 16  1  0
 14 17  1  0
 13 18  2  0
 18 19  1  0
 19 20  1  0
 20 21  2  0
 21 22  1  0
 22 23  1  0
 23 24  2  0
 24 25  1  0
 24 26  1  0
 26 27  1  0
 26 28  2  0
 28 29  1  0
 28 30  1  0
 30 31  1  0
 30 32  2  0
 32 33  1  0
 19 34  2  0
 34 35  1  0
 34 36  1  0
 36 37  1  1
 36 38  1  0
 38 39  1  0
 39 40  2  0
 40 41  1  0
 41 42  1  0
 42 43  1  0
 42 44  1  0
 42 45  1  0
 41 46  1  0
 46 47  1  0
  7 48  1  0
 48 49  1  0
 48 50  2  0
 50 51  1  0
 50  2  1  0
 36 11  1  0
 46 38  2  0
 33 21  1  0
 32 23  1  0
M  CHG  4   8  -1  22  -1  34   1  49  -1
M  END
>  <UniqueID>  (24) 
22

>  <SMILES>  (24) 
CC1=NC(/N=c2/[n-]c3ccccc3o2)=[NH+][C@H](c2cn(C)nn2)[C@@H]1C(=O)[N-]c1ccccc1[O-]

>  <Energy>  (24) 
142.87303844912498

>  <Genealogy>  (24) 
CC1=NC(N=c2[n-]c3ccccc3o2)=[NH+]C(c2cn(C)nn2)C1C(=O)[N-]c1ccccc1[O-] (protonated)
CC1=NC(N=c2[n-]c3ccccc3o2)=[NH+][C@H](c2cn(C)nn2)[C@@H]1C(=O)[N-]c1ccccc1[O-] (chirality)
CC1=NC(/N=c2/[n-]c3ccccc3o2)=[NH+][C@H](c2cn(C)nn2)[C@@H]1C(=O)[N-]c1ccccc1[O-] (cis-trans isomerization)
CC1=NC(/N=c2/[n-]c3ccccc3o2)=[NH+][C@H](c2cn(C)nn2)[C@@H]1C(=O)[N-]c1ccccc1[O-] (3D coordinates assigned)
CC1=NC(/N=c2/[n-]c3ccccc3o2)=[NH+][C@H](c2cn(C)nn2)[C@@H]1C(=O)[N-]c1ccccc1[O-] (nonaromatic ring conformer: 142.87303844912498 kcal/mol)

>  <smiles>  (24) 
CC1=NC(N=c2[nH]c3ccccc3o2)=NC(c2cn(C)nn2)C1C(=O)Nc1ccccc1O

>  <score_type>  (24) 
oracle

>  <origin>  (24) 
adg

>  <m_score__min__energy>  (24) 
-14

>  <m_primary>  (24) 
energy

$$$$
24:0
     RDKit          3D

 45 47  0  0  0  0  0  0  0  0999 V2000
   55.6960   29.1850   44.8620 O   0  0  0  0  0  0  0  0  0  0  0  0
   56.7630   29.8170   44.6380 C   0  0  0  0  0  0  0  0  0  0  0  0
   56.6820   31.2140   44.1020 C   0  0  0  0  0  0  0  0  0  0  0  0
   56.6430   32.1550   45.1720 O   0  0  0  0  0  0  0  0  0  0  0  0
   57.7380   32.9410   45.5480 C   0  0  0  0  0  0  0  0  0  0  0  0
   57.7970   34.1590   45.2260 O   0  0  0  0  0  0  0  0  0  0  0  0
   58.8260   32.3470   46.3280 C   0  0  0  0  0  0  0  0  0  0  0  0
   60.0010   32.9780   46.6890 C   0  0  0  0  0  0  0  0  0  0  0  0
   60.7180   32.0470   47.4100 C   0  0  0  0  0  0  0  0  0  0  0  0
   59.9350   30.9110   47.4410 C   0  0  0  0  0  0  0  0  0  0  0  0
   60.3920   29.2720   48.2970 Br  0  0  0  0  0  0  0  0  0  0  0  0
   58.8150   31.1180   46.7890 O   0  0  0  0  0  0  0  0  0  0  0  0
   58.0390   29.2370   44.9590 N   0  0  0  0  0  0  0  0  0  0  0  0
   58.2220   27.8700   45.3620 C   0  0  0  0  0  0  0  0  0  0  0  0
   59.5030   27.3460   45.6160 C   0  0  0  0  0  0  0  0  0  0  0  0
   59.6520   26.0160   46.0210 C   0  0  0  0  0  0  0  0  0  0  0  0
   58.5280   25.2030   46.1900 C   0  0  0  0  0  0  0  0  0  0  0  0
   57.2450   25.7230   45.9690 C   0  0  0  0  0  0  0  0  0  0  0  0
   55.8200   24.7060   46.1620 S   0  0  0  0  0  0  0  0  0  0  0  0
   55.7850   24.1290   47.5510 O   0  0  0  0  0  0  0  0  0  0  0  0
   54.5930   25.5520   45.9630 O   0  0  0  0  0  0  0  0  0  0  0  0
   55.8490   23.4250   44.9770 N   0  0  0  0  0  0  0  0  0  0  0  0
   56.2950   23.9520   43.6760 C   0  0  0  0  0  0  0  0  0  0  0  0
   56.6190   22.8050   42.6970 C   0  0  0  0  0  0  0  0  0  0  0  0
   56.1160   21.5740   43.1760 O   0  0  0  0  0  0  0  0  0  0  0  0
   56.7820   21.2180   44.3750 C   0  0  0  0  0  0  0  0  0  0  0  0
   56.7460   22.3490   45.4260 C   0  0  0  0  0  0  0  0  0  0  0  0
   57.0980   27.0540   45.5590 C   0  0  0  0  0  0  0  0  0  0  0  0
   57.5639   31.4137   43.4756 H   0  0  0  0  0  0  0  0  0  0  0  0
   55.7638   31.3145   43.5047 H   0  0  0  0  0  0  0  0  0  0  0  0
   60.3018   34.0089   46.4507 H   0  0  0  0  0  0  0  0  0  0  0  0
   61.7097   32.1818   47.8664 H   0  0  0  0  0  0  0  0  0  0  0  0
   58.8680   29.8730   44.9980 H   0  0  0  0  0  0  0  0  0  0  0  0
   60.3903   27.9849   45.4955 H   0  0  0  0  0  0  0  0  0  0  0  0
   60.6567   25.6085   46.2071 H   0  0  0  0  0  0  0  0  0  0  0  0
   58.6501   24.1537   46.4968 H   0  0  0  0  0  0  0  0  0  0  0  0
   55.4966   24.5758   43.2477 H   0  0  0  0  0  0  0  0  0  0  0  0
   57.2067   24.5472   43.8328 H   0  0  0  0  0  0  0  0  0  0  0  0
   56.1621   23.0251   41.7209 H   0  0  0  0  0  0  0  0  0  0  0  0
   57.7118   22.7239   42.6009 H   0  0  0  0  0  0  0  0  0  0  0  0
   56.2955   20.3268   44.7982 H   0  0  0  0  0  0  0  0  0  0  0  0
   57.8360   21.0227   44.1282 H   0  0  0  0  0  0  0  0  0  0  0  0
   56.3813   21.9460   46.3823 H   0  0  0  0  0  0  0  0  0  0  0  0
   57.7603   22.7547   45.5546 H   0  0  0  0  0  0  0  0  0  0  0  0
   56.0913   27.4637   45.3898 H   0  0  0  0  0  0  0  0  0  0  0  0
  1  2  2  0
  2  3  1  0
  3  4  1  0
  4  5  1  0
  5  6  2  0
  5  7  1  0
  7  8  2  0
  8  9  1  0
  9 10  2  0
 10 11  1  0
 10 12  1  0
  2 13  1  0
 13 14  1  0
 14 15  2  0
 15 16  1  0
 16 17  2  0
 17 18  1  0
 18 19  1  0
 19 20  2  0
 19 21  2  0
 19 22  1  0
 22 23  1  0
 23 24  1  0
 24 25  1  0
 25 26  1  0
 26 27  1  0
 18 28  2  0
 12  7  1  0
 28 14  1  0
 27 22  1  0
  3 29  1  0
  3 30  1  0
  8 31  1  0
  9 32  1  0
 13 33  1  0
 15 34  1  0
 16 35  1  0
 17 36  1  0
 23 37  1  0
 23 38  1  0
 24 39  1  0
 24 40  1  0
 26 41  1  0
 26 42  1  0
 27 43  1  0
 27 44  1  0
 28 45  1  0
M  END
>  <UniqueID>  (25) 
23

>  <SMILES>  (25) 
O=C(COC(=O)c1ccc(Br)o1)Nc1cccc(S(=O)(=O)N2CCOCC2)c1

>  <Energy>  (25) 
78.71705229648042

>  <Genealogy>  (25) 
O=C(COC(=O)c1ccc(Br)o1)Nc1cccc(S(=O)(=O)N2CCOCC2)c1 (3D coordinates assigned)
O=C(COC(=O)c1ccc(Br)o1)Nc1cccc(S(=O)(=O)N2CCOCC2)c1 (nonaromatic ring conformer: 78.71705229648042 kcal/mol)

>  <smiles>  (25) 
O=C(COC(=O)c1ccc(Br)o1)Nc1cccc(S(=O)(=O)N2CCOCC2)c1

>  <score_type>  (25) 
oracle

>  <origin>  (25) 
adg

>  <m_score__min__energy>  (25) 
-9.7699999999999996

>  <m_primary>  (25) 
energy

$$$$
25:0
     RDKit          3D

 33 34  0  0  0  0  0  0  0  0999 V2000
   56.5010   34.0090   47.4950 H   0  0  0  0  0  0  0  0  0  0  0  0
   57.4460   33.8780   47.0690 N   0  0  0  0  0  0  0  0  0  0  0  0
   57.7910   32.7770   46.4780 C   0  0  0  0  0  0  0  0  0  0  0  0
   58.5300   31.8270   47.1780 C   0  0  0  0  0  0  0  0  0  0  0  0
   58.8118   32.0133   48.2248 H   0  0  0  0  0  0  0  0  0  0  0  0
   58.9150   30.6360   46.5530 C   0  0  0  0  0  0  0  0  0  0  0  0
   59.6950   29.6320   47.3650 C   0  0  0  0  0  0  0  0  0  0  0  0
   59.5421   29.8288   48.4364 H   0  0  0  0  0  0  0  0  0  0  0  0
   59.3466   28.6165   47.1253 H   0  0  0  0  0  0  0  0  0  0  0  0
   60.7651   29.7186   47.1253 H   0  0  0  0  0  0  0  0  0  0  0  0
   58.6010   30.4310   45.1830 C   0  0  0  0  0  0  0  0  0  0  0  0
   59.1090   29.1990   44.4420 C   0  0  0  0  0  0  0  0  0  0  0  0
   59.5416   29.5130   43.4806 H   0  0  0  0  0  0  0  0  0  0  0  0
   59.8664   28.7063   45.0694 H   0  0  0  0  0  0  0  0  0  0  0  0
   58.0310   28.2450   44.1890 N   0  0  0  0  0  0  0  0  0  0  0  0
   56.9930   27.9060   45.1170 C   0  0  0  0  0  0  0  0  0  0  0  0
   56.0060   28.6750   45.2400 O   0  0  0  0  0  0  0  0  0  0  0  0
   57.0670   26.6950   45.9510 C   0  0  0  0  0  0  0  0  0  0  0  0
   58.3030   26.2500   46.4330 C   0  0  0  0  0  0  0  0  0  0  0  0
   59.2202   26.8079   46.1932 H   0  0  0  0  0  0  0  0  0  0  0  0
   58.3700   25.1290   47.1970 N   0  0  0  0  0  0  0  0  0  0  0  0
   57.2470   24.4320   47.5140 C   0  0  0  0  0  0  0  0  0  0  0  0
   57.3300   23.3960   48.2220 O   0  0  0  0  0  0  0  0  0  0  0  0
   56.0350   24.8540   47.0680 N   0  0  0  0  0  0  0  0  0  0  0  0
   55.9200   25.9660   46.2970 C   0  0  0  0  0  0  0  0  0  0  0  0
   54.7810   26.3340   45.9030 O   0  0  0  0  0  0  0  0  0  0  0  0
   57.7810   31.3940   44.5330 C   0  0  0  0  0  0  0  0  0  0  0  0
   57.2760   31.1890   43.1260 C   0  0  0  0  0  0  0  0  0  0  0  0
   56.2572   30.7754   43.1587 H   0  0  0  0  0  0  0  0  0  0  0  0
   57.2635   32.1532   42.5968 H   0  0  0  0  0  0  0  0  0  0  0  0
   57.9391   30.4889   42.5968 H   0  0  0  0  0  0  0  0  0  0  0  0
   57.4250   32.5380   45.1890 N   0  0  0  0  0  0  0  0  0  0  0  0
   56.8470   33.2540   44.6900 H   0  0  0  0  0  0  0  0  0  0  0  0
  1  2  1  0
  2  3  2  0
  3  4  1  0
  4  5  1  0
  4  6  2  0
  6  7  1  0
  7  8  1  0
  7  9  1  0
  7 10  1  0
  6 11  1  0
 11 12  1  0
 12 13  1  0
 12 14  1  0
 12 15  1  0
 15 16  1  0
 16 17  2  0
 16 18  1  0
 18 19  2  0
 19 20  1  0
 19 21  1  0
 21 22  1  0
 22 23  2  0
 22 24  1  0
 24 25  1  0
 25 26  2  0
 11 27  2  0
 27 28  1  0
 28 29  1  0
 28 30  1  0
 28 31  1  0
 27 32  1  0
 32 33  1  0
 32  3  1  0
 25 18  1  0
M  CHG  3  15  -1  21  -1  24  -1
M  END
>  <UniqueID>  (26) 
24

>  <SMILES>  (26) 
[H]/N=c1/cc(C)c(C[N-]C(=O)c2c[n-]c(=O)[n-]c2=O)c(C)[nH]1

>  <Energy>  (26) 
42.984020452565105

>  <Genealogy>  (26) 
Cc1cc(=N)[nH]c(C)c1C[N-]C(=O)c1c[n-]c(=O)[n-]c1=O (protonated)
[H]/N=c1/cc(C)c(C[N-]C(=O)c2c[n-]c(=O)[n-]c2=O)c(C)[nH]1 (cis-trans isomerization)
[H]/N=c1/cc(C)c(C[N-]C(=O)c2c[n-]c(=O)[n-]c2=O)c(C)[nH]1 (3D coordinates assigned)
[H]/N=c1/cc(C)c(C[N-]C(=O)c2c[n-]c(=O)[n-]c2=O)c(C)[nH]1 (optimized conformer: 42.984020452565105 kcal/mol)

>  <smiles>  (26) 
Cc1cc(=N)[nH]c(C)c1CNC(=O)c1c[nH]c(=O)[nH]c1=O

>  <score_type>  (26) 
oracle

>  <origin>  (26) 
adg

>  <m_score__min__energy>  (26) 
-11.6

>  <m_primary>  (26) 
energy

$$$$
26:0
     RDKit          3D

 53 55  0  0  1  0  0  0  0  0999 V2000
   55.3640   29.7040   43.7520 C   0  0  0  0  0  0  0  0  0  0  0  0
   56.6090   30.1200   43.6100 C   0  0  0  0  0  0  0  0  0  0  0  0
   57.2750   31.0330   44.5320 C   0  0  0  0  0  0  0  0  0  0  0  0
   57.4360   30.5720   45.7140 O   0  0  0  0  0  0  0  0  0  0  0  0
   57.7190   32.3310   44.1890 N   0  0  0  0  0  0  0  0  0  0  0  0
   58.3730   33.2260   45.0680 C   0  0  0  0  0  0  0  0  0  0  0  0
   58.8840   34.3860   44.5050 C   0  0  0  0  0  0  0  0  0  0  0  0
   59.5350   35.3060   45.2830 C   0  0  0  0  0  0  0  0  0  0  0  0
   59.7010   35.1050   46.6450 C   0  0  0  0  0  0  0  0  0  0  0  0
   59.2100   33.9730   47.2260 C   0  0  0  0  0  0  0  0  0  0  0  0
   59.2910   33.6460   48.6710 C   0  0  0  0  0  0  0  0  0  0  0  0
   58.3410   32.7230   49.1440 N   0  0  0  0  0  0  0  0  0  0  0  0
   58.5140   31.5810   49.6170 C   0  0  0  0  0  0  0  0  0  0  0  0
   59.1190   30.6090   48.8530 C   0  0  0  0  0  0  0  0  0  0  0  0
   59.2690   29.3740   49.4590 C   0  0  0  0  0  0  0  0  0  0  0  0
   59.8900   28.3130   48.7510 N   0  0  0  0  0  0  0  0  0  0  0  0
   59.6420   28.2380   47.3410 C   0  0  0  0  0  0  0  0  0  0  0  0
   60.5510   28.7680   46.4730 C   0  0  0  0  0  0  0  0  0  0  0  0
   60.3290   28.7110   45.0910 C   0  0  0  0  0  0  0  0  0  0  0  0
   59.1950   28.1200   44.5810 C   0  0  0  0  0  0  0  0  0  0  0  0
   58.2640   27.5780   45.4510 C   0  0  0  0  0  0  0  0  0  0  0  0
   57.0880   26.9720   44.9910 N   0  0  0  0  0  0  0  0  0  0  0  0
   56.2210   25.7440   45.7970 S   0  0  0  0  0  0  0  0  0  0  0  0
   56.1720   24.2150   44.9040 C   0  0  0  0  0  0  0  0  0  0  0  0
   54.7740   26.1790   45.9930 O   0  0  0  0  0  0  0  0  0  0  0  0
   56.7650   25.5140   47.1730 O   0  0  0  0  0  0  0  0  0  0  0  0
   58.5100   27.6490   46.8170 C   0  0  0  0  0  0  0  0  0  0  0  0
   58.8620   29.1100   50.7120 N   0  0  0  0  0  0  0  0  0  0  0  0
   58.2780   30.0780   51.4250 C   0  0  0  0  0  0  0  0  0  0  0  0
   58.1110   31.3070   50.8670 N   0  0  0  0  0  0  0  0  0  0  0  0
   58.5460   33.0490   46.4020 C   0  0  0  0  0  0  0  0  0  0  0  0
   54.9273   29.0138   43.0152 H   0  0  0  0  0  0  0  0  0  0  0  0
   54.7634   30.0476   44.6071 H   0  0  0  0  0  0  0  0  0  0  0  0
   57.1792   29.7555   42.7428 H   0  0  0  0  0  0  0  0  0  0  0  0
   57.5280   32.6230   43.1870 H   0  0  0  0  0  0  0  0  0  0  0  0
   58.7656   34.5682   43.4267 H   0  0  0  0  0  0  0  0  0  0  0  0
   59.9333   36.2206   44.8193 H   0  0  0  0  0  0  0  0  0  0  0  0
   60.2264   35.8553   47.2541 H   0  0  0  0  0  0  0  0  0  0  0  0
   60.2909   33.2319   48.8678 H   0  0  0  0  0  0  0  0  0  0  0  0
   59.0838   34.5867   49.2022 H   0  0  0  0  0  0  0  0  0  0  0  0
   59.4616   30.8017   47.8256 H   0  0  0  0  0  0  0  0  0  0  0  0
   60.4830   27.6450   49.2690 H   0  0  0  0  0  0  0  0  0  0  0  0
   61.4642   29.2432   46.8607 H   0  0  0  0  0  0  0  0  0  0  0  0
   61.0708   29.1443   44.4040 H   0  0  0  0  0  0  0  0  0  0  0  0
   59.0303   28.0788   43.4942 H   0  0  0  0  0  0  0  0  0  0  0  0
   56.7150   27.3160   44.0530 H   0  0  0  0  0  0  0  0  0  0  0  0
   56.1451   23.3759   45.6148 H   0  0  0  0  0  0  0  0  0  0  0  0
   55.2725   24.1885   44.2713 H   0  0  0  0  0  0  0  0  0  0  0  0
   57.0679   24.1310   44.2713 H   0  0  0  0  0  0  0  0  0  0  0  0
   57.7716   27.2177   47.5089 H   0  0  0  0  0  0  0  0  0  0  0  0
   57.9361   29.8827   52.4521 H   0  0  0  0  0  0  0  0  0  0  0  0
   57.6600   32.0410   51.4330 H   0  0  0  0  0  0  0  0  0  0  0  0
   58.1453   32.1339   46.8625 H   0  0  0  0  0  0  0  0  0  0  0  0
  1  2  2  0
  2  3  1  0
  3  4  2  0
  3  5  1  0
  5  6  1  0
  6  7  2  0
  7  8  1  0
  8  9  2  0
  9 10  1  0
 10 11  1  0
 11 12  1  0
 12 13  2  0
 13 14  1  0
 14 15  2  0
 15 16  1  0
 16 17  1  0
 17 18  2  0
 18 19  1  0
 19 20  2  0
 20 21  1  0
 21 22  1  0
 22 23  1  0
 23 24  1  0
 23 25  2  0
 23 26  2  0
 21 27  2  0
 15 28  1  0
 28 29  2  0
 29 30  1  0
 10 31  2  0
 31  6  1  0
 30 13  1  0
 27 17  1  0
  1 32  1  0
  1 33  1  0
  2 34  1  0
  5 35  1  0
  7 36  1  0
  8 37  1  0
  9 38  1  0
 11 39  1  0
 11 40  1  0
 14 41  1  0
 16 42  1  0
 18 43  1  0
 19 44  1  0
 20 45  1  0
 22 46  1  0
 24 47  1  0
 24 48  1  0
 24 49  1  0
 27 50  1  0
 29 51  1  0
 30 52  1  0
 31 53  1  0
M  END
>  <smiles>  (27) 
C=CC(=O)Nc1cccc(CN=c2cc(Nc3cccc(NS(C)(=O)=O)c3)nc[nH]2)c1

>  <score_type>  (27) 
oracle

>  <origin>  (27) 
adg

>  <m_score__min__energy>  (27) 
-9.25

>  <m_primary>  (27) 
energy

$$$$
27:0
     RDKit          3D

 45 48  0  0  0  0  0  0  0  0999 V2000
   60.7430   30.7430   50.1840 C   0  0  0  0  0  0  0  0  0  0  0  0
   59.1360   30.4460   49.4870 S   0  0  0  0  0  0  0  0  0  0  0  0
   58.1400   30.2430   50.5940 O   0  0  0  0  0  0  0  0  0  0  0  0
   58.7120   31.6360   48.6700 O   0  0  0  0  0  0  0  0  0  0  0  0
   59.1990   29.0170   48.4610 C   0  0  0  0  0  0  0  0  0  0  0  0
   60.2870   28.1400   48.5530 C   0  0  0  0  0  0  0  0  0  0  0  0
   60.3380   26.9970   47.7510 C   0  0  0  0  0  0  0  0  0  0  0  0
   59.3030   26.7240   46.8520 C   0  0  0  0  0  0  0  0  0  0  0  0
   58.2090   27.5930   46.7570 C   0  0  0  0  0  0  0  0  0  0  0  0
   56.8990   27.2510   45.6290 S   0  0  0  0  0  0  0  0  0  0  0  0
   57.4370   26.6390   44.3640 O   0  0  0  0  0  0  0  0  0  0  0  0
   55.9440   26.2860   46.2730 O   0  0  0  0  0  0  0  0  0  0  0  0
   56.0530   28.7140   45.2360 N   0  0  0  0  0  0  0  0  0  0  0  0
   56.6230   29.8410   44.5560 C   0  0  0  0  0  0  0  0  0  0  0  0
   56.4420   30.0540   43.1790 C   0  0  0  0  0  0  0  0  0  0  0  0
   57.0220   31.1610   42.5590 C   0  0  0  0  0  0  0  0  0  0  0  0
   57.7880   32.0650   43.2990 C   0  0  0  0  0  0  0  0  0  0  0  0
   57.9770   31.8690   44.6790 C   0  0  0  0  0  0  0  0  0  0  0  0
   58.7860   32.8080   45.4870 C   0  0  0  0  0  0  0  0  0  0  0  0
   58.5660   34.1540   45.7080 C   0  0  0  0  0  0  0  0  0  0  0  0
   59.5410   34.6310   46.5040 N   0  0  0  0  0  0  0  0  0  0  0  0
   60.3150   33.5500   46.7380 C   0  0  0  0  0  0  0  0  0  0  0  0
   61.5440   33.5650   47.5950 C   0  0  0  0  0  0  0  0  0  0  0  0
   62.8310   33.5250   46.7810 C   0  0  0  0  0  0  0  0  0  0  0  0
   62.4000   32.3030   47.5800 C   0  0  0  0  0  0  0  0  0  0  0  0
   59.8750   32.4700   46.1360 O   0  0  0  0  0  0  0  0  0  0  0  0
   57.3860   30.7520   45.2960 C   0  0  0  0  0  0  0  0  0  0  0  0
   58.1560   28.7350   47.5690 C   0  0  0  0  0  0  0  0  0  0  0  0
   60.6746   30.7304   51.2818 H   0  0  0  0  0  0  0  0  0  0  0  0
   61.4379   29.9581   49.8509 H   0  0  0  0  0  0  0  0  0  0  0  0
   61.1115   31.7245   49.8509 H   0  0  0  0  0  0  0  0  0  0  0  0
   61.1038   28.3516   49.2587 H   0  0  0  0  0  0  0  0  0  0  0  0
   61.1942   26.3107   47.8272 H   0  0  0  0  0  0  0  0  0  0  0  0
   59.3479   25.8258   46.2186 H   0  0  0  0  0  0  0  0  0  0  0  0
   55.8416   29.3463   42.5885 H   0  0  0  0  0  0  0  0  0  0  0  0
   56.8753   31.3230   41.4809 H   0  0  0  0  0  0  0  0  0  0  0  0
   58.2448   32.9329   42.8009 H   0  0  0  0  0  0  0  0  0  0  0  0
   57.7298   34.7406   45.2997 H   0  0  0  0  0  0  0  0  0  0  0  0
   61.1222   34.1868   48.3984 H   0  0  0  0  0  0  0  0  0  0  0  0
   62.7861   33.5071   45.6821 H   0  0  0  0  0  0  0  0  0  0  0  0
   63.7406   34.1419   46.7342 H   0  0  0  0  0  0  0  0  0  0  0  0
   62.0433   31.4026   47.0585 H   0  0  0  0  0  0  0  0  0  0  0  0
   62.8686   31.6717   48.3493 H   0  0  0  0  0  0  0  0  0  0  0  0
   57.5252   30.5919   46.3753 H   0  0  0  0  0  0  0  0  0  0  0  0
   57.2917   29.4125   47.5054 H   0  0  0  0  0  0  0  0  0  0  0  0
  1  2  1  0
  2  3  2  0
  2  4  2  0
  2  5  1  0
  5  6  2  0
  6  7  1  0
  7  8  2  0
  8  9  1  0
  9 10  1  0
 10 11  2  0
 10 12  2  0
 10 13  1  0
 13 14  1  0
 14 15  2  0
 15 16  1  0
 16 17  2  0
 17 18  1  0
 18 19  1  0
 19 20  2  0
 20 21  1  0
 21 22  2  0
 22 23  1  0
 23 24  1  0
 24 25  1  0
 22 26  1  0
 18 27  2  0
  9 28  2  0
 28  5  1  0
 27 14  1  0
 26 19  1  0
 25 23  1  0
  1 29  1  0
  1 30  1  0
  1 31  1  0
  6 32  1  0
  7 33  1  0
  8 34  1  0
 15 35  1  0
 16 36  1  0
 17 37  1  0
 20 38  1  0
 23 39  1  0
 24 40  1  0
 24 41  1  0
 25 42  1  0
 25 43  1  0
 27 44  1  0
 28 45  1  0
M  CHG  1  13  -1
M  END
>  <UniqueID>  (28) 
25

>  <SMILES>  (28) 
CS(=O)(=O)c1cccc(S(=O)(=O)[N-]c2cccc(-c3cnc(C4CC4)o3)c2)c1

>  <Energy>  (28) 
342.1651455611792

>  <Genealogy>  (28) 
CS(=O)(=O)c1cccc(S(=O)(=O)[N-]c2cccc(-c3cnc(C4CC4)o3)c2)c1 (protonated)
CS(=O)(=O)c1cccc(S(=O)(=O)[N-]c2cccc(-c3cnc(C4CC4)o3)c2)c1 (3D coordinates assigned)
CS(=O)(=O)c1cccc(S(=O)(=O)[N-]c2cccc(-c3cnc(C4CC4)o3)c2)c1 (nonaromatic ring conformer: 342.1651455611792 kcal/mol)

>  <smiles>  (28) 
CS(=O)(=O)c1cccc(S(=O)(=O)Nc2cccc(-c3cnc(C4CC4)o3)c2)c1

>  <score_type>  (28) 
oracle

>  <origin>  (28) 
adg

>  <m_score__min__energy>  (28) 
-11.390000000000001

>  <m_primary>  (28) 
energy

$$$$
28:0
     RDKit          3D

 45 47  0  0  0  0  0  0  0  0999 V2000
   57.8180   32.3300   42.8770 C   0  0  0  0  0  0  0  0  0  0  0  0
   57.9320   32.6310   44.3390 C   0  0  0  0  0  0  0  0  0  0  0  0
   57.7710   33.8710   44.8730 C   0  0  0  0  0  0  0  0  0  0  0  0
   57.8960   34.0510   46.2420 C   0  0  0  0  0  0  0  0  0  0  0  0
   58.1860   32.9710   47.0750 C   0  0  0  0  0  0  0  0  0  0  0  0
   58.3490   31.7010   46.5190 C   0  0  0  0  0  0  0  0  0  0  0  0
   58.6400   30.5580   47.3100 N   0  0  0  0  0  0  0  0  0  0  0  0
   59.9060   29.9480   47.1190 C   0  0  0  0  0  0  0  0  0  0  0  0
   60.7070   30.4360   46.2730 O   0  0  0  0  0  0  0  0  0  0  0  0
   60.2650   28.7310   47.9340 C   0  0  0  0  0  0  0  0  0  0  0  0
   60.5120   29.2490   49.6620 S   0  0  0  0  0  0  0  0  0  0  0  0
   59.5600   30.7030   50.0510 C   0  0  0  0  0  0  0  0  0  0  0  0
   58.2140   30.7290   50.1080 N   0  0  0  0  0  0  0  0  0  0  0  0
   57.8620   31.9570   50.4360 N   0  0  0  0  0  0  0  0  0  0  0  0
   58.9730   32.6910   50.5840 C   0  0  0  0  0  0  0  0  0  0  0  0
   58.9450   33.9100   50.8990 O   0  0  0  0  0  0  0  0  0  0  0  0
   60.0680   31.9100   50.3430 N   0  0  0  0  0  0  0  0  0  0  0  0
   61.4220   32.3700   50.4260 C   0  0  0  0  0  0  0  0  0  0  0  0
   61.9220   32.7780   49.0800 C   0  0  0  0  0  0  0  0  0  0  0  0
   63.2120   32.4780   48.7350 C   0  0  0  0  0  0  0  0  0  0  0  0
   63.7520   32.8290   47.5180 C   0  0  0  0  0  0  0  0  0  0  0  0
   62.9470   33.5160   46.6020 C   0  0  0  0  0  0  0  0  0  0  0  0
   61.6240   33.8400   46.9150 C   0  0  0  0  0  0  0  0  0  0  0  0
   61.1560   33.4520   48.1610 C   0  0  0  0  0  0  0  0  0  0  0  0
   58.2200   31.5460   45.1550 C   0  0  0  0  0  0  0  0  0  0  0  0
   58.3830   30.2330   44.5980 N   0  0  0  0  0  0  0  0  0  0  0  0
   57.4313   31.3091   42.7419 H   0  0  0  0  0  0  0  0  0  0  0  0
   57.1295   33.0480   42.4074 H   0  0  0  0  0  0  0  0  0  0  0  0
   58.8094   32.4118   42.4074 H   0  0  0  0  0  0  0  0  0  0  0  0
   57.5426   34.7276   44.2218 H   0  0  0  0  0  0  0  0  0  0  0  0
   57.7653   35.0539   46.6746 H   0  0  0  0  0  0  0  0  0  0  0  0
   58.2854   33.1185   48.1605 H   0  0  0  0  0  0  0  0  0  0  0  0
   57.9310   30.1930   48.0050 H   0  0  0  0  0  0  0  0  0  0  0  0
   59.4501   27.9941   47.8799 H   0  0  0  0  0  0  0  0  0  0  0  0
   61.1843   28.2714   47.5421 H   0  0  0  0  0  0  0  0  0  0  0  0
   56.8850   32.2910   50.5590 H   0  0  0  0  0  0  0  0  0  0  0  0
   61.4694   33.2332   51.1061 H   0  0  0  0  0  0  0  0  0  0  0  0
   62.0518   31.5517   50.8050 H   0  0  0  0  0  0  0  0  0  0  0  0
   63.8409   31.9363   49.4569 H   0  0  0  0  0  0  0  0  0  0  0  0
   64.7934   32.5750   47.2710 H   0  0  0  0  0  0  0  0  0  0  0  0
   63.3605   33.8043   45.6243 H   0  0  0  0  0  0  0  0  0  0  0  0
   60.9817   34.3796   46.2034 H   0  0  0  0  0  0  0  0  0  0  0  0
   60.1172   33.6968   48.4272 H   0  0  0  0  0  0  0  0  0  0  0  0
   59.2380   29.6710   44.8890 H   0  0  0  0  0  0  0  0  0  0  0  0
   57.7120   29.8100   43.9320 H   0  0  0  0  0  0  0  0  0  0  0  0
  1  2  1  0
  2  3  2  0
  3  4  1  0
  4  5  2  0
  5  6  1  0
  6  7  1  0
  7  8  1  0
  8  9  2  0
  8 10  1  0
 10 11  1  0
 11 12  1  0
 12 13  2  0
 13 14  1  0
 14 15  1  0
 15 16  2  0
 15 17  1  0
 17 18  1  0
 18 19  1  0
 19 20  2  0
 20 21  1  0
 21 22  2  0
 22 23  1  0
 23 24  2  0
  6 25  2  0
 25 26  1  0
 25  2  1  0
 17 12  1  0
 24 19  1  0
  1 27  1  0
  1 28  1  0
  1 29  1  0
  3 30  1  0
  4 31  1  0
  5 32  1  0
  7 33  1  0
 10 34  1  0
 10 35  1  0
 14 36  1  0
 18 37  1  0
 18 38  1  0
 20 39  1  0
 21 40  1  0
 22 41  1  0
 23 42  1  0
 24 43  1  0
 26 44  1  0
 26 45  1  0
M  END
>  <smiles>  (29) 
Cc1cccc(NC(=O)CSc2n[nH]c(=O)n2Cc2ccccc2)c1N

>  <score_type>  (29) 
oracle

>  <origin>  (29) 
adg

>  <m_score__min__energy>  (29) 
-7.8300000000000001

>  <m_primary>  (29) 
energy

$$$$
29:0
     RDKit          3D

 25 26  0  0  0  0  0  0  0  0999 V2000
   55.1480   27.9920   44.9050 H   0  0  0  0  0  0  0  0  0  0  0  0
   55.5200   28.9350   44.9190 O   0  0  0  0  0  0  0  0  0  0  0  0
   56.8920   29.1750   45.0100 C   0  0  0  0  0  0  0  0  0  0  0  0
   57.3680   30.4280   45.4140 C   0  0  0  0  0  0  0  0  0  0  0  0
   56.6594   31.2325   45.6604 H   0  0  0  0  0  0  0  0  0  0  0  0
   58.7420   30.6560   45.5040 C   0  0  0  0  0  0  0  0  0  0  0  0
   59.1232   31.6391   45.8174 H   0  0  0  0  0  0  0  0  0  0  0  0
   59.6270   29.6230   45.1920 C   0  0  0  0  0  0  0  0  0  0  0  0
   60.7123   29.7887   45.2611 H   0  0  0  0  0  0  0  0  0  0  0  0
   59.1480   28.4130   44.8030 N   0  0  0  0  0  0  0  0  0  0  0  0
   57.8110   28.1620   44.6930 C   0  0  0  0  0  0  0  0  0  0  0  0
   57.3750   26.9890   44.3320 N   0  0  0  0  0  0  0  0  0  0  0  0
   57.3830   25.7950   45.1320 C   0  0  0  0  0  0  0  0  0  0  0  0
   58.3920   25.5610   45.8490 O   0  0  0  0  0  0  0  0  0  0  0  0
   56.2180   24.8800   45.1970 C   0  0  0  0  0  0  0  0  0  0  0  0
   56.3590   23.5350   44.8110 C   0  0  0  0  0  0  0  0  0  0  0  0
   57.3381   23.1645   44.4731 H   0  0  0  0  0  0  0  0  0  0  0  0
   55.2660   22.6650   44.8530 C   0  0  0  0  0  0  0  0  0  0  0  0
   55.3893   21.6125   44.5579 H   0  0  0  0  0  0  0  0  0  0  0  0
   54.0160   23.1320   45.2700 C   0  0  0  0  0  0  0  0  0  0  0  0
   52.9300   22.2670   45.3110 O   0  0  0  0  0  0  0  0  0  0  0  0
   53.8600   24.4680   45.6460 C   0  0  0  0  0  0  0  0  0  0  0  0
   52.8750   24.8335   45.9720 H   0  0  0  0  0  0  0  0  0  0  0  0
   54.9510   25.3440   45.6100 C   0  0  0  0  0  0  0  0  0  0  0  0
   54.7690   26.6660   46.0010 O   0  0  0  0  0  0  0  0  0  0  0  0
  1  2  1  0
  2  3  1  0
  3  4  2  0
  4  5  1  0
  4  6  1  0
  6  7  1  0
  6  8  2  0
  8  9  1  0
  8 10  1  0
 10 11  1  0
 11 12  2  0
 12 13  1  0
 13 14  2  0
 13 15  1  0
 15 16  2  0
 16 17  1  0
 16 18  1  0
 18 19  1  0
 18 20  2  0
 20 21  1  0
 20 22  1  0
 22 23  1  0
 22 24  2  0
 24 25  1  0
 11  3  1  0
 24 15  1  0
M  CHG  3  10  -1  21  -1  25  -1
M  END
>  <UniqueID>  (30) 
26

>  <SMILES>  (30) 
O=C(/N=c1\[n-]cccc1O)c1ccc([O-])cc1[O-]

>  <Energy>  (30) 
35.885275112832474

>  <Genealogy>  (30) 
O=C(N=c1[n-]cccc1O)c1ccc([O-])cc1[O-] (protonated)
O=C(/N=c1\[n-]cccc1O)c1ccc([O-])cc1[O-] (cis-trans isomerization)
O=C(/N=c1\[n-]cccc1O)c1ccc([O-])cc1[O-] (3D coordinates assigned)
O=C(/N=c1\[n-]cccc1O)c1ccc([O-])cc1[O-] (optimized conformer: 35.885275112832474 kcal/mol)

>  <smiles>  (30) 
O=C(N=c1[nH]cccc1O)c1ccc(O)cc1O

>  <score_type>  (30) 
oracle

>  <origin>  (30) 
adg

>  <m_score__min__energy>  (30) 
-13.609999999999999

>  <m_primary>  (30) 
energy

$$$$
30:0
     RDKit          3D

 55 58  0  0  1  0  0  0  0  0999 V2000
   56.2070   22.8780   47.0760 C   0  0  0  0  0  0  0  0  0  0  0  0
   55.7910   24.2060   47.4540 N   0  0  0  0  0  0  0  0  0  0  0  0
   56.1560   25.2690   46.1490 S   0  0  0  0  0  0  0  0  0  0  0  0
   56.2440   24.5460   44.8510 O   0  0  0  0  0  0  0  0  0  0  0  0
   55.0030   26.2550   46.0340 O   0  0  0  0  0  0  0  0  0  0  0  0
   57.6050   26.2000   46.4080 C   0  0  0  0  0  0  0  0  0  0  0  0
   58.8430   25.5720   46.4290 C   0  0  0  0  0  0  0  0  0  0  0  0
   59.9930   26.3130   46.6360 C   0  0  0  0  0  0  0  0  0  0  0  0
   59.8930   27.6780   46.8190 C   0  0  0  0  0  0  0  0  0  0  0  0
   58.6730   28.3440   46.8050 C   0  0  0  0  0  0  0  0  0  0  0  0
   60.3710   34.4070   47.9950 N   0  0  0  0  0  0  0  0  0  0  0  0
   58.2490   30.4770   45.9940 C   0  0  0  0  0  0  0  0  0  0  0  0
   57.5510   29.9960   44.9510 N   0  0  0  0  0  0  0  0  0  0  0  0
   57.1800   30.7750   43.9090 C   0  0  0  0  0  0  0  0  0  0  0  0
   56.3280   30.1810   42.6410 S   0  0  0  0  0  0  0  0  0  0  0  0
   57.4950   32.0850   43.8660 N   0  0  0  0  0  0  0  0  0  0  0  0
   58.2040   32.6090   44.9070 C   0  0  0  0  0  0  0  0  0  0  0  0
   58.5080   33.9520   44.8260 C   0  0  0  0  0  0  0  0  0  0  0  0
   59.2230   34.5080   45.8630 C   0  0  0  0  0  0  0  0  0  0  0  0
   59.6360   33.7550   46.9670 C   0  0  0  0  0  0  0  0  0  0  0  0
   58.6160   29.7550   46.9980 N   0  0  0  0  0  0  0  0  0  0  0  0
   61.5420   33.9680   48.2960 C   0  0  0  0  0  0  0  0  0  0  0  0
   62.5070   33.8030   47.1740 C   0  0  0  0  0  0  0  0  0  0  0  0
   62.9600   32.3600   47.1770 C   0  0  0  0  0  0  0  0  0  0  0  0
   63.7830   32.1260   48.4070 C   0  0  0  0  0  0  0  0  0  0  0  0
   64.1060   33.3820   49.1630 C   0  0  0  0  0  0  0  0  0  0  0  0
   63.1040   33.5980   50.3050 C   0  0  0  0  0  0  0  0  0  0  0  0
   61.7870   33.6860   49.6640 N   0  0  0  0  0  0  0  0  0  0  0  0
   59.3090   32.4140   47.0060 C   0  0  0  0  0  0  0  0  0  0  0  0
   58.5940   31.8290   45.9820 C   0  0  0  0  0  0  0  0  0  0  0  0
   57.5450   27.5690   46.5950 C   0  0  0  0  0  0  0  0  0  0  0  0
   56.3940   22.2809   47.9807 H   0  0  0  0  0  0  0  0  0  0  0  0
   55.4151   22.4016   46.4795 H   0  0  0  0  0  0  0  0  0  0  0  0
   57.1292   22.9385   46.4795 H   0  0  0  0  0  0  0  0  0  0  0  0
   56.1670   24.5230   48.3500 H   0  0  0  0  0  0  0  0  0  0  0  0
   58.9097   24.4841   46.2809 H   0  0  0  0  0  0  0  0  0  0  0  0
   60.9762   25.8201   46.6546 H   0  0  0  0  0  0  0  0  0  0  0  0
   60.8124   28.2596   46.9818 H   0  0  0  0  0  0  0  0  0  0  0  0
   57.2790   28.9950   44.9270 H   0  0  0  0  0  0  0  0  0  0  0  0
   57.2110   32.7060   43.0580 H   0  0  0  0  0  0  0  0  0  0  0  0
   58.1906   34.5570   43.9639 H   0  0  0  0  0  0  0  0  0  0  0  0
   59.4773   35.5774   45.8220 H   0  0  0  0  0  0  0  0  0  0  0  0
   62.0172   34.0415   46.2184 H   0  0  0  0  0  0  0  0  0  0  0  0
   63.3651   34.4802   47.2964 H   0  0  0  0  0  0  0  0  0  0  0  0
   62.0835   31.6954   47.1843 H   0  0  0  0  0  0  0  0  0  0  0  0
   63.5563   32.1489   46.2771 H   0  0  0  0  0  0  0  0  0  0  0  0
   63.2263   31.4519   49.0746 H   0  0  0  0  0  0  0  0  0  0  0  0
   64.7392   31.6935   48.0774 H   0  0  0  0  0  0  0  0  0  0  0  0
   65.1198   33.3011   49.5821 H   0  0  0  0  0  0  0  0  0  0  0  0
   64.0466   34.2365   48.4728 H   0  0  0  0  0  0  0  0  0  0  0  0
   63.1335   32.7515   51.0068 H   0  0  0  0  0  0  0  0  0  0  0  0
   63.3360   34.5042   50.8837 H   0  0  0  0  0  0  0  0  0  0  0  0
   60.9440   33.5280   50.2680 H   0  0  0  0  0  0  0  0  0  0  0  0
   59.6231   31.8039   47.8657 H   0  0  0  0  0  0  0  0  0  0  0  0
   56.5618   28.0619   46.5761 H   0  0  0  0  0  0  0  0  0  0  0  0
  1  2  1  0
  2  3  1  0
  3  4  2  0
  3  5  2  0
  3  6  1  0
  6  7  2  0
  7  8  1  0
  8  9  2  0
  9 10  1  0
 10 11  1  0
 11 12  2  0
 12 13  1  0
 13 14  1  0
 14 15  2  0
 14 16  1  0
 16 17  1  0
 17 18  2  0
 18 19  1  0
 19 20  2  0
 20 21  1  0
 21 22  2  0
 22 23  1  0
 23 24  1  0
 24 25  1  0
 25 26  1  0
 26 27  1  0
 27 28  1  0
 20 29  1  0
 29 30  2  0
 10 31  2  0
 31  6  1  0
 30 12  1  0
 30 17  1  0
 28 22  1  0
  1 32  1  0
  1 33  1  0
  1 34  1  0
  2 35  1  0
  7 36  1  0
  8 37  1  0
  9 38  1  0
 13 39  1  0
 16 40  1  0
 18 41  1  0
 19 42  1  0
 23 43  1  0
 23 44  1  0
 24 45  1  0
 24 46  1  0
 25 47  1  0
 25 48  1  0
 26 49  1  0
 26 50  1  0
 27 51  1  0
 27 52  1  0
 28 53  1  0
 29 54  1  0
 31 55  1  0
M  END
>  <smiles>  (31) 
CNS(=O)(=O)c1cccc(N=c2[nH]c(=S)[nH]c3ccc(N=C4CCCCCN4)cc23)c1

>  <score_type>  (31) 
oracle

>  <origin>  (31) 
adg

>  <m_score__min__energy>  (31) 
-8.6199999999999992

>  <m_primary>  (31) 
energy

$$$$
31:0
     RDKit          3D

 45 47  0  0  0  0  0  0  0  0999 V2000
   55.4602   30.3574   42.8054 H   0  0  0  0  0  0  0  0  0  0  0  0
   56.2890   30.1270   43.4910 C   0  0  0  0  0  0  0  0  0  0  0  0
   56.5960   30.9850   44.4970 N   0  0  0  0  0  0  0  0  0  0  0  0
   57.6160   30.7630   45.3710 C   0  0  0  0  0  0  0  0  0  0  0  0
   57.7340   31.5980   46.3680 N   0  0  0  0  0  0  0  0  0  0  0  0
   58.3160   32.9120   46.4000 C   0  0  0  0  0  0  0  0  0  0  0  0
   58.5550   33.6080   45.2020 C   0  0  0  0  0  0  0  0  0  0  0  0
   58.1873   33.1989   44.2494 H   0  0  0  0  0  0  0  0  0  0  0  0
   59.2560   34.8150   45.2140 C   0  0  0  0  0  0  0  0  0  0  0  0
   59.4165   35.3667   44.2760 H   0  0  0  0  0  0  0  0  0  0  0  0
   59.7530   35.3220   46.4140 C   0  0  0  0  0  0  0  0  0  0  0  0
   60.3131   36.2687   46.4198 H   0  0  0  0  0  0  0  0  0  0  0  0
   59.5410   34.6300   47.6090 C   0  0  0  0  0  0  0  0  0  0  0  0
   59.9418   35.0311   48.5516 H   0  0  0  0  0  0  0  0  0  0  0  0
   58.8190   33.4250   47.6140 C   0  0  0  0  0  0  0  0  0  0  0  0
   58.6180   32.6760   48.9010 C   0  0  0  0  0  0  0  0  0  0  0  0
   58.7992   33.3512   49.7503 H   0  0  0  0  0  0  0  0  0  0  0  0
   57.5864   32.2970   48.9474 H   0  0  0  0  0  0  0  0  0  0  0  0
   59.3213   31.8315   48.9474 H   0  0  0  0  0  0  0  0  0  0  0  0
   58.4570   29.6290   45.1710 C   0  0  0  0  0  0  0  0  0  0  0  0
   59.7950   29.4730   45.7850 C   0  0  0  0  0  0  0  0  0  0  0  0
   60.6240   28.6720   45.2780 O   0  0  0  0  0  0  0  0  0  0  0  0
   60.1070   30.1550   47.0070 N   0  0  0  0  0  0  0  0  0  0  0  0
   59.5500   31.0070   47.2490 H   0  0  0  0  0  0  0  0  0  0  0  0
   60.8570   29.5130   48.0850 C   0  0  0  0  0  0  0  0  0  0  0  0
   60.2490   28.6987   48.5059 H   0  0  0  0  0  0  0  0  0  0  0  0
   61.7976   29.1275   47.6647 H   0  0  0  0  0  0  0  0  0  0  0  0
   61.2050   30.5020   49.2040 C   0  0  0  0  0  0  0  0  0  0  0  0
   60.2706   30.8507   49.6680 H   0  0  0  0  0  0  0  0  0  0  0  0
   61.8464   29.9740   49.9250 H   0  0  0  0  0  0  0  0  0  0  0  0
   61.9720   31.7000   48.7070 C   0  0  0  0  0  0  0  0  0  0  0  0
   61.9710   32.9000   49.4380 C   0  0  0  0  0  0  0  0  0  0  0  0
   61.3898   32.9730   50.3691 H   0  0  0  0  0  0  0  0  0  0  0  0
   62.7050   34.0020   48.9880 C   0  0  0  0  0  0  0  0  0  0  0  0
   62.7045   34.9363   49.5686 H   0  0  0  0  0  0  0  0  0  0  0  0
   63.4390   33.9180   47.8020 C   0  0  0  0  0  0  0  0  0  0  0  0
   64.0035   34.7906   47.4416 H   0  0  0  0  0  0  0  0  0  0  0  0
   63.4560   32.7260   47.0740 C   0  0  0  0  0  0  0  0  0  0  0  0
   64.0378   32.6589   46.1429 H   0  0  0  0  0  0  0  0  0  0  0  0
   62.7340   31.6180   47.5280 C   0  0  0  0  0  0  0  0  0  0  0  0
   62.7622   30.6767   46.9596 H   0  0  0  0  0  0  0  0  0  0  0  0
   58.1110   28.7150   44.1610 C   0  0  0  0  0  0  0  0  0  0  0  0
   58.7061   27.7995   44.0278 H   0  0  0  0  0  0  0  0  0  0  0  0
   57.0220   28.9570   43.3270 C   0  0  0  0  0  0  0  0  0  0  0  0
   56.7453   28.2313   42.5481 H   0  0  0  0  0  0  0  0  0  0  0  0
  1  2  1  0
  2  3  1  0
  3  4  1  0
  4  5  2  0
  5  6  1  0
  6  7  2  0
  7  8  1  0
  7  9  1  0
  9 10  1  0
  9 11  2  0
 11 12  1  0
 11 13  1  0
 13 14  1  0
 13 15  2  0
 15 16  1  0
 16 17  1  0
 16 18  1  0
 16 19  1  0
  4 20  1  0
 20 21  1  0
 21 22  2  0
 21 23  1  0
 23 24  1  0
 23 25  1  0
 25 26  1  0
 25 27  1  0
 25 28  1  0
 28 29  1  0
 28 30  1  0
 28 31  1  0
 31 32  2  0
 32 33  1  0
 32 34  1  0
 34 35  1  0
 34 36  2  0
 36 37  1  0
 36 38  1  0
 38 39  1  0
 38 40  2  0
 40 41  1  0
 20 42  2  0
 42 43  1  0
 42 44  1  0
 44 45  1  0
 44  2  2  0
 15  6  1  0
 40 31  1  0
M  CHG  1   3  -1
M  END
>  <UniqueID>  (32) 
27

>  <SMILES>  (32) 
Cc1ccccc1/N=c1/[n-]cccc1C(=O)NCCc1ccccc1

>  <Energy>  (32) 
64.4768796521068

>  <Genealogy>  (32) 
Cc1ccccc1N=c1[n-]cccc1C(=O)NCCc1ccccc1 (protonated)
Cc1ccccc1/N=c1/[n-]cccc1C(=O)NCCc1ccccc1 (cis-trans isomerization)
Cc1ccccc1/N=c1/[n-]cccc1C(=O)NCCc1ccccc1 (3D coordinates assigned)
Cc1ccccc1/N=c1/[n-]cccc1C(=O)NCCc1ccccc1 (optimized conformer: 64.4768796521068 kcal/mol)

>  <smiles>  (32) 
Cc1ccccc1N=c1[nH]cccc1C(=O)NCCc1ccccc1

>  <score_type>  (32) 
oracle

>  <origin>  (32) 
adg

>  <m_score__min__energy>  (32) 
-9.2699999999999996

>  <m_primary>  (32) 
energy

$$$$
32:0
     RDKit          3D

 52 54  0  0  0  0  0  0  0  0999 V2000
   60.9240   28.6230   44.8680 C   0  0  0  0  0  0  0  0  0  0  0  0
   60.7890   29.6820   45.9580 C   0  0  0  0  0  0  0  0  0  0  0  0
   60.3610   29.0640   47.2200 N   0  0  0  0  0  0  0  0  0  0  0  0
   60.5120   29.8020   48.4830 C   0  0  0  0  0  0  0  0  0  0  0  0
   60.5780   31.2770   48.2350 C   0  0  0  0  0  0  0  0  0  0  0  0
   61.6970   31.8600   48.2190 O   0  0  0  0  0  0  0  0  0  0  0  0
   59.3640   32.0180   48.0770 N   0  0  0  0  0  0  0  0  0  0  0  0
   58.7250   32.3730   46.8430 C   0  0  0  0  0  0  0  0  0  0  0  0
   58.6420   33.7260   46.4980 C   0  0  0  0  0  0  0  0  0  0  0  0
   57.9980   34.1190   45.3200 C   0  0  0  0  0  0  0  0  0  0  0  0
   57.4190   33.1580   44.4860 C   0  0  0  0  0  0  0  0  0  0  0  0
   57.4760   31.8060   44.8340 C   0  0  0  0  0  0  0  0  0  0  0  0
   56.6800   30.4920   43.6960 Br  0  0  0  0  0  0  0  0  0  0  0  0
   58.1170   31.4110   46.0140 C   0  0  0  0  0  0  0  0  0  0  0  0
   60.0430   27.6580   47.2480 C   0  0  0  0  0  0  0  0  0  0  0  0
   60.9170   26.8240   47.6100 O   0  0  0  0  0  0  0  0  0  0  0  0
   58.7070   27.1750   46.8510 C   0  0  0  0  0  0  0  0  0  0  0  0
   58.2340   25.9360   47.3090 C   0  0  0  0  0  0  0  0  0  0  0  0
   56.9550   25.4960   46.9580 C   0  0  0  0  0  0  0  0  0  0  0  0
   56.1350   26.2860   46.1290 C   0  0  0  0  0  0  0  0  0  0  0  0
   54.8060   25.8960   45.7520 N   0  0  0  0  0  0  0  0  0  0  0  0
   54.2110   24.2890   45.4600 S   0  0  0  0  0  0  0  0  0  0  0  0
   52.9470   24.3200   44.6470 O   0  0  0  0  0  0  0  0  0  0  0  0
   53.8840   23.6810   46.7940 O   0  0  0  0  0  0  0  0  0  0  0  0
   55.4410   23.3060   44.6590 C   0  0  0  0  0  0  0  0  0  0  0  0
   55.5570   23.3170   43.2590 C   0  0  0  0  0  0  0  0  0  0  0  0
   56.5280   22.5340   42.6250 C   0  0  0  0  0  0  0  0  0  0  0  0
   57.3900   21.7400   43.3840 C   0  0  0  0  0  0  0  0  0  0  0  0
   57.2840   21.7250   44.7770 C   0  0  0  0  0  0  0  0  0  0  0  0
   56.3120   22.5050   45.4130 C   0  0  0  0  0  0  0  0  0  0  0  0
   56.6300   27.5010   45.6420 C   0  0  0  0  0  0  0  0  0  0  0  0
   57.9060   27.9440   45.9980 C   0  0  0  0  0  0  0  0  0  0  0  0
   61.0501   27.6335   45.3317 H   0  0  0  0  0  0  0  0  0  0  0  0
   60.0187   28.6224   44.2432 H   0  0  0  0  0  0  0  0  0  0  0  0
   61.8005   28.8496   44.2432 H   0  0  0  0  0  0  0  0  0  0  0  0
   61.7609   30.1752   46.1069 H   0  0  0  0  0  0  0  0  0  0  0  0
   60.0349   30.4203   45.6477 H   0  0  0  0  0  0  0  0  0  0  0  0
   59.6514   29.5841   49.1326 H   0  0  0  0  0  0  0  0  0  0  0  0
   61.4479   29.4845   48.9660 H   0  0  0  0  0  0  0  0  0  0  0  0
   59.0861   34.4861   47.1575 H   0  0  0  0  0  0  0  0  0  0  0  0
   57.9472   35.1841   45.0499 H   0  0  0  0  0  0  0  0  0  0  0  0
   56.9187   33.4661   43.5561 H   0  0  0  0  0  0  0  0  0  0  0  0
   58.1458   30.3476   46.2940 H   0  0  0  0  0  0  0  0  0  0  0  0
   58.8730   25.3081   47.9473 H   0  0  0  0  0  0  0  0  0  0  0  0
   56.5871   24.5287   47.3307 H   0  0  0  0  0  0  0  0  0  0  0  0
   54.8815   23.9440   42.6585 H   0  0  0  0  0  0  0  0  0  0  0  0
   56.6123   22.5440   41.5283 H   0  0  0  0  0  0  0  0  0  0  0  0
   58.1535   21.1255   42.8846 H   0  0  0  0  0  0  0  0  0  0  0  0
   57.9647   21.1000   45.3737 H   0  0  0  0  0  0  0  0  0  0  0  0
   56.2302   22.4902   46.5099 H   0  0  0  0  0  0  0  0  0  0  0  0
   56.0081   28.1132   44.9723 H   0  0  0  0  0  0  0  0  0  0  0  0
   58.2830   28.9005   45.6068 H   0  0  0  0  0  0  0  0  0  0  0  0
  1  2  1  0
  2  3  1  0
  3  4  1  0
  4  5  1  0
  5  6  2  0
  5  7  1  0
  7  8  1  0
  8  9  2  0
  9 10  1  0
 10 11  2  0
 11 12  1  0
 12 13  1  0
 12 14  2  0
  3 15  1  0
 15 16  2  0
 15 17  1  0
 17 18  2  0
 18 19  1  0
 19 20  2  0
 20 21  1  0
 21 22  1  0
 22 23  2  0
 22 24  2  0
 22 25  1  0
 25 26  2  0
 26 27  1  0
 27 28  2  0
 28 29  1  0
 29 30  2  0
 20 31  1  0
 31 32  2  0
 14  8  1  0
 32 17  1  0
 30 25  1  0
  1 33  1  0
  1 34  1  0
  1 35  1  0
  2 36  1  0
  2 37  1  0
  4 38  1  0
  4 39  1  0
  9 40  1  0
 10 41  1  0
 11 42  1  0
 14 43  1  0
 18 44  1  0
 19 45  1  0
 26 46  1  0
 27 47  1  0
 28 48  1  0
 29 49  1  0
 30 50  1  0
 31 51  1  0
 32 52  1  0
M  CHG  2   7  -1  21  -1
M  END
>  <UniqueID>  (33) 
28

>  <SMILES>  (33) 
CCN(CC(=O)[N-]c1cccc(Br)c1)C(=O)c1ccc([N-]S(=O)(=O)c2ccccc2)cc1

>  <Energy>  (33) 
62.92914638359278

>  <Genealogy>  (33) 
CCN(CC(=O)[N-]c1cccc(Br)c1)C(=O)c1ccc([N-]S(=O)(=O)c2ccccc2)cc1 (protonated)
CCN(CC(=O)[N-]c1cccc(Br)c1)C(=O)c1ccc([N-]S(=O)(=O)c2ccccc2)cc1 (3D coordinates assigned)
CCN(CC(=O)[N-]c1cccc(Br)c1)C(=O)c1ccc([N-]S(=O)(=O)c2ccccc2)cc1 (optimized conformer: 62.92914638359278 kcal/mol)

>  <smiles>  (33) 
CCN(CC(=O)Nc1cccc(Br)c1)C(=O)c1ccc(NS(=O)(=O)c2ccccc2)cc1

>  <score_type>  (33) 
oracle

>  <origin>  (33) 
adg

>  <m_score__min__energy>  (33) 
-12.140000000000001

>  <m_primary>  (33) 
energy

$$$$
33:0
     RDKit          3D

 45 47  0  0  0  0  0  0  0  0999 V2000
   58.2890   34.2230   52.4470 C   0  0  0  0  0  0  0  0  0  0  0  0
   59.3240   33.2630   51.9620 C   0  0  0  0  0  0  0  0  0  0  0  0
   59.6150   32.2620   52.6720 O   0  0  0  0  0  0  0  0  0  0  0  0
   60.0740   33.5760   50.7760 N   0  0  0  0  0  0  0  0  0  0  0  0
   59.6610   33.5600   49.5390 C   0  0  0  0  0  0  0  0  0  0  0  0
   60.3210   34.2500   48.5000 C   0  0  0  0  0  0  0  0  0  0  0  0
   59.8280   34.1690   47.1980 C   0  0  0  0  0  0  0  0  0  0  0  0
   58.6780   33.4220   46.9290 C   0  0  0  0  0  0  0  0  0  0  0  0
   58.0200   33.3180   45.2980 S   0  0  0  0  0  0  0  0  0  0  0  0
   56.6100   33.8430   45.2560 O   0  0  0  0  0  0  0  0  0  0  0  0
   58.8630   34.1560   44.3780 O   0  0  0  0  0  0  0  0  0  0  0  0
   58.0480   31.6690   44.7520 N   0  0  0  0  0  0  0  0  0  0  0  0
   58.6770   30.5770   45.4390 C   0  0  0  0  0  0  0  0  0  0  0  0
   59.8000   30.8400   46.2320 C   0  0  0  0  0  0  0  0  0  0  0  0
   60.4400   29.8040   46.9170 C   0  0  0  0  0  0  0  0  0  0  0  0
   59.9750   28.4930   46.8020 C   0  0  0  0  0  0  0  0  0  0  0  0
   58.8510   28.2050   46.0070 C   0  0  0  0  0  0  0  0  0  0  0  0
   58.3620   26.8100   45.8750 C   0  0  0  0  0  0  0  0  0  0  0  0
   59.0430   25.8620   46.3570 O   0  0  0  0  0  0  0  0  0  0  0  0
   57.1530   26.5220   45.1480 N   0  0  0  0  0  0  0  0  0  0  0  0
   56.4580   25.2660   45.2300 C   0  0  0  0  0  0  0  0  0  0  0  0
   57.1210   24.0950   44.8260 C   0  0  0  0  0  0  0  0  0  0  0  0
   56.4740   22.8550   44.8880 C   0  0  0  0  0  0  0  0  0  0  0  0
   55.1550   22.7750   45.3410 C   0  0  0  0  0  0  0  0  0  0  0  0
   54.4760   23.9360   45.7230 C   0  0  0  0  0  0  0  0  0  0  0  0
   55.1140   25.1820   45.6530 C   0  0  0  0  0  0  0  0  0  0  0  0
   54.3970   26.3280   45.9810 O   0  0  0  0  0  0  0  0  0  0  0  0
   58.1990   29.2600   45.3410 C   0  0  0  0  0  0  0  0  0  0  0  0
   58.0600   32.7350   47.9790 C   0  0  0  0  0  0  0  0  0  0  0  0
   58.5650   32.8120   49.2390 N   0  0  0  0  0  0  0  0  0  0  0  0
   58.2818   34.2297   53.5470 H   0  0  0  0  0  0  0  0  0  0  0  0
   58.5220   35.2319   52.0757 H   0  0  0  0  0  0  0  0  0  0  0  0
   57.3005   33.9149   52.0757 H   0  0  0  0  0  0  0  0  0  0  0  0
   61.2187   34.8480   48.7157 H   0  0  0  0  0  0  0  0  0  0  0  0
   60.3452   34.6940   46.3814 H   0  0  0  0  0  0  0  0  0  0  0  0
   60.1810   31.8685   46.3164 H   0  0  0  0  0  0  0  0  0  0  0  0
   61.3134   30.0223   47.5491 H   0  0  0  0  0  0  0  0  0  0  0  0
   60.4902   27.6809   47.3358 H   0  0  0  0  0  0  0  0  0  0  0  0
   56.8830   27.1700   44.3750 H   0  0  0  0  0  0  0  0  0  0  0  0
   58.1561   24.1529   44.4583 H   0  0  0  0  0  0  0  0  0  0  0  0
   57.0051   21.9424   44.5796 H   0  0  0  0  0  0  0  0  0  0  0  0
   54.6508   21.7990   45.3972 H   0  0  0  0  0  0  0  0  0  0  0  0
   53.4375   23.8713   46.0797 H   0  0  0  0  0  0  0  0  0  0  0  0
   57.3043   29.0503   44.7365 H   0  0  0  0  0  0  0  0  0  0  0  0
   57.1620   32.1301   47.7846 H   0  0  0  0  0  0  0  0  0  0  0  0
  1  2  1  0
  2  3  2  0
  2  4  1  0
  4  5  2  3
  5  6  1  0
  6  7  2  0
  7  8  1  0
  8  9  1  0
  9 10  2  0
  9 11  2  0
  9 12  1  0
 12 13  1  0
 13 14  2  0
 14 15  1  0
 15 16  2  0
 16 17  1  0
 17 18  1  0
 18 19  2  0
 18 20  1  0
 20 21  1  0
 21 22  2  0
 22 23  1  0
 23 24  2  0
 24 25  1  0
 25 26  2  0
 26 27  1  0
 17 28  2  0
  8 29  2  0
 29 30  1  0
 30  5  1  0
 28 13  1  0
 26 21  1  0
  1 31  1  0
  1 32  1  0
  1 33  1  0
  6 34  1  0
  7 35  1  0
 14 36  1  0
 15 37  1  0
 16 38  1  0
 20 39  1  0
 22 40  1  0
 23 41  1  0
 24 42  1  0
 25 43  1  0
 28 44  1  0
 29 45  1  0
M  CHG  3  12  -1  27  -1  30  -1
M  END
>  <UniqueID>  (34) 
29

>  <SMILES>  (34) 
CC(=O)N=c1ccc(S(=O)(=O)[N-]c2cccc(C(=O)Nc3ccccc3[O-])c2)c[n-]1

>  <Energy>  (34) 
64.21218209822182

>  <Genealogy>  (34) 
CC(=O)N=c1ccc(S(=O)(=O)[N-]c2cccc(C(=O)Nc3ccccc3[O-])c2)c[n-]1 (protonated)
CC(=O)N=c1ccc(S(=O)(=O)[N-]c2cccc(C(=O)Nc3ccccc3[O-])c2)c[n-]1 (3D coordinates assigned)
CC(=O)N=c1ccc(S(=O)(=O)[N-]c2cccc(C(=O)Nc3ccccc3[O-])c2)c[n-]1 (optimized conformer: 64.21218209822182 kcal/mol)

>  <smiles>  (34) 
CC(=O)N=c1ccc(S(=O)(=O)Nc2cccc(C(=O)Nc3ccccc3O)c2)c[nH]1

>  <score_type>  (34) 
oracle

>  <origin>  (34) 
adg

>  <m_score__min__energy>  (34) 
-14.58

>  <m_primary>  (34) 
energy

$$$$
34:0
     RDKit          3D

 45 47  0  0  0  0  0  0  0  0999 V2000
   56.8480   23.6990   47.6010 C   0  0  0  0  0  0  0  0  0  0  0  0
   56.8280   23.5330   46.1050 C   0  0  0  0  0  0  0  0  0  0  0  0
   56.9970   22.2530   45.5490 C   0  0  0  0  0  0  0  0  0  0  0  0
   56.9800   22.0740   44.1650 C   0  0  0  0  0  0  0  0  0  0  0  0
   56.8070   23.1700   43.3210 C   0  0  0  0  0  0  0  0  0  0  0  0
   56.6510   24.4490   43.8570 C   0  0  0  0  0  0  0  0  0  0  0  0
   56.6510   24.6450   45.2500 C   0  0  0  0  0  0  0  0  0  0  0  0
   56.5260   25.9740   45.7920 N   0  0  0  0  0  0  0  0  0  0  0  0
   57.4160   27.0580   45.4660 C   0  0  0  0  0  0  0  0  0  0  0  0
   58.8040   26.8460   45.3800 C   0  0  0  0  0  0  0  0  0  0  0  0
   59.6570   27.8950   45.0350 C   0  0  0  0  0  0  0  0  0  0  0  0
   59.1390   29.1620   44.7670 C   0  0  0  0  0  0  0  0  0  0  0  0
   57.7580   29.3920   44.8370 C   0  0  0  0  0  0  0  0  0  0  0  0
   57.1090   30.9950   44.4870 S   0  0  0  0  0  0  0  0  0  0  0  0
   55.6360   30.8820   44.2140 O   0  0  0  0  0  0  0  0  0  0  0  0
   57.8170   31.5560   43.2860 O   0  0  0  0  0  0  0  0  0  0  0  0
   57.3540   32.0440   45.8470 N   0  0  0  0  0  0  0  0  0  0  0  0
   58.5220   32.8410   46.0790 C   0  0  0  0  0  0  0  0  0  0  0  0
   58.4690   34.2080   45.7840 C   0  0  0  0  0  0  0  0  0  0  0  0
   59.5850   35.0210   45.9970 C   0  0  0  0  0  0  0  0  0  0  0  0
   60.7640   34.4740   46.5080 C   0  0  0  0  0  0  0  0  0  0  0  0
   60.8330   33.1070   46.8070 C   0  0  0  0  0  0  0  0  0  0  0  0
   62.3100   32.4040   47.4620 S   0  0  0  0  0  0  0  0  0  0  0  0
   63.6810   33.1890   46.7610 N   0  0  0  0  0  0  0  0  0  0  0  0
   62.3320   32.5820   48.9540 O   0  0  0  0  0  0  0  0  0  0  0  0
   62.3740   30.9360   47.1470 O   0  0  0  0  0  0  0  0  0  0  0  0
   59.7130   32.2910   46.5920 C   0  0  0  0  0  0  0  0  0  0  0  0
   56.8950   28.3320   45.1750 C   0  0  0  0  0  0  0  0  0  0  0  0
   55.5200   28.5450   45.2270 O   0  0  0  0  0  0  0  0  0  0  0  0
   56.7296   22.7162   48.0806 H   0  0  0  0  0  0  0  0  0  0  0  0
   57.8062   24.1436   47.9078 H   0  0  0  0  0  0  0  0  0  0  0  0
   56.0228   24.3585   47.9078 H   0  0  0  0  0  0  0  0  0  0  0  0
   57.1438   21.3859   46.2098 H   0  0  0  0  0  0  0  0  0  0  0  0
   57.1032   21.0671   43.7397 H   0  0  0  0  0  0  0  0  0  0  0  0
   56.7934   23.0264   42.2305 H   0  0  0  0  0  0  0  0  0  0  0  0
   56.5270   25.3108   43.1848 H   0  0  0  0  0  0  0  0  0  0  0  0
   55.7530   26.1580   46.4700 H   0  0  0  0  0  0  0  0  0  0  0  0
   59.2190   25.8483   45.5858 H   0  0  0  0  0  0  0  0  0  0  0  0
   60.7416   27.7222   44.9742 H   0  0  0  0  0  0  0  0  0  0  0  0
   59.8178   29.9851   44.4993 H   0  0  0  0  0  0  0  0  0  0  0  0
   57.5430   34.6450   45.3820 H   0  0  0  0  0  0  0  0  0  0  0  0
   59.5349   36.0944   45.7617 H   0  0  0  0  0  0  0  0  0  0  0  0
   61.6401   35.1176   46.6760 H   0  0  0  0  0  0  0  0  0  0  0  0
   64.5040   32.5640   46.9150 H   0  0  0  0  0  0  0  0  0  0  0  0
   59.7647   31.2172   46.8249 H   0  0  0  0  0  0  0  0  0  0  0  0
  1  2  1  0
  2  3  2  0
  3  4  1  0
  4  5  2  0
  5  6  1  0
  6  7  2  0
  7  8  1  0
  8  9  1  0
  9 10  2  0
 10 11  1  0
 11 12  2  0
 12 13  1  0
 13 14  1  0
 14 15  2  0
 14 16  2  0
 14 17  1  0
 17 18  1  0
 18 19  2  0
 19 20  1  0
 20 21  2  0
 21 22  1  0
 22 23  1  0
 23 24  1  0
 23 25  2  0
 23 26  2  0
 22 27  2  0
 13 28  2  0
 28 29  1  0
  7  2  1  0
 28  9  1  0
 27 18  1  0
  1 30  1  0
  1 31  1  0
  1 32  1  0
  3 33  1  0
  4 34  1  0
  5 35  1  0
  6 36  1  0
  8 37  1  0
 10 38  1  0
 11 39  1  0
 12 40  1  0
 19 41  1  0
 20 42  1  0
 21 43  1  0
 24 44  1  0
 27 45  1  0
M  CHG  3  17  -1  24  -1  29  -1
M  END
>  <UniqueID>  (35) 
30

>  <SMILES>  (35) 
Cc1ccccc1Nc1cccc(S(=O)(=O)[N-]c2cccc(S([NH-])(=O)=O)c2)c1[O-]

>  <Energy>  (35) 
58.77398741216918

>  <Genealogy>  (35) 
Cc1ccccc1Nc1cccc(S(=O)(=O)[N-]c2cccc(S([NH-])(=O)=O)c2)c1[O-] (protonated)
Cc1ccccc1Nc1cccc(S(=O)(=O)[N-]c2cccc(S([NH-])(=O)=O)c2)c1[O-] (3D coordinates assigned)
Cc1ccccc1Nc1cccc(S(=O)(=O)[N-]c2cccc(S([NH-])(=O)=O)c2)c1[O-] (optimized conformer: 58.77398741216918 kcal/mol)

>  <smiles>  (35) 
Cc1ccccc1Nc1cccc(S(=O)(=O)Nc2cccc(S(N)(=O)=O)c2)c1O

>  <score_type>  (35) 
oracle

>  <origin>  (35) 
adg

>  <m_score__min__energy>  (35) 
-15.26

>  <m_primary>  (35) 
energy

$$$$
35:0
     RDKit          3D

 63 67  0  0  0  0  0  0  0  0999 V2000
   58.5880   29.1860   49.3860 O   0  0  0  0  0  0  0  0  0  0  0  0
   58.7550   30.2430   50.0560 C   0  0  0  0  0  0  0  0  0  0  0  0
   57.9800   30.4490   51.3010 C   0  0  0  0  0  0  0  0  0  0  0  0
   57.0830   31.5300   51.4060 C   0  0  0  0  0  0  0  0  0  0  0  0
   56.2570   31.6560   52.5270 C   0  0  0  0  0  0  0  0  0  0  0  0
   56.3250   30.7200   53.5700 C   0  0  0  0  0  0  0  0  0  0  0  0
   55.3280   30.7750   54.6960 C   0  0  0  0  0  0  0  0  0  0  0  0
   55.0710   29.3770   55.2020 C   0  0  0  0  0  0  0  0  0  0  0  0
   55.9550   28.8110   55.8300 O   0  0  0  0  0  0  0  0  0  0  0  0
   53.7830   28.7310   54.9920 N   0  0  2  0  0  0  0  0  0  0  0  0
   53.8280   27.7380   53.8930 C   0  0  0  0  0  0  0  0  0  0  0  0
   54.0860   28.3810   52.5230 C   0  0  0  0  0  0  0  0  0  0  0  0
   53.2120   29.5830   52.2960 C   0  0  0  0  0  0  0  0  0  0  0  0
   53.0510   30.0790   50.9900 C   0  0  0  0  0  0  0  0  0  0  0  0
   52.3150   31.2470   50.7620 C   0  0  0  0  0  0  0  0  0  0  0  0
   51.7520   31.9340   51.8400 C   0  0  0  0  0  0  0  0  0  0  0  0
   51.0290   33.0960   51.6180 O   0  0  0  0  0  0  0  0  0  0  0  0
   51.9120   31.4500   53.1430 C   0  0  0  0  0  0  0  0  0  0  0  0
   52.6440   30.2780   53.3840 C   0  0  0  0  0  0  0  0  0  0  0  0
   52.6940   29.7090   54.7910 C   0  0  0  0  0  0  0  0  0  0  0  0
   57.2460   29.6630   53.4860 C   0  0  0  0  0  0  0  0  0  0  0  0
   58.0620   29.5240   52.3570 C   0  0  0  0  0  0  0  0  0  0  0  0
   59.6450   31.2650   49.5750 N   0  0  0  0  0  0  0  0  0  0  0  0
   60.7440   31.7390   50.4190 C   0  0  0  0  0  0  0  0  0  0  0  0
   62.0840   31.2370   49.8430 C   0  0  0  0  0  0  0  0  0  0  0  0
   62.2380   31.5280   48.3910 N   0  0  0  0  0  0  0  0  0  0  0  0
   62.5240   32.9660   48.1590 C   0  0  0  0  0  0  0  0  0  0  0  0
   63.9530   33.1890   47.6440 C   0  0  0  0  0  0  0  0  0  0  0  0
   63.3980   33.8690   46.3990 C   0  0  0  0  0  0  0  0  0  0  0  0
   61.9820   33.5300   46.8360 C   0  0  0  0  0  0  0  0  0  0  0  0
   61.0770   31.0120   47.6190 C   0  0  0  0  0  0  0  0  0  0  0  0
   59.7420   31.5540   48.1440 C   0  0  0  0  0  0  0  0  0  0  0  0
   57.0321   32.2789   50.6019 H   0  0  0  0  0  0  0  0  0  0  0  0
   55.5487   32.4951   52.5917 H   0  0  0  0  0  0  0  0  0  0  0  0
   55.7292   31.3935   55.5124 H   0  0  0  0  0  0  0  0  0  0  0  0
   54.3870   31.2152   54.3343 H   0  0  0  0  0  0  0  0  0  0  0  0
   53.5440   28.1980   55.8620 H   0  0  0  0  0  0  0  0  0  0  0  0
   54.6338   27.0188   54.1014 H   0  0  0  0  0  0  0  0  0  0  0  0
   52.8449   27.2464   53.8492 H   0  0  0  0  0  0  0  0  0  0  0  0
   55.1398   28.6918   52.4685 H   0  0  0  0  0  0  0  0  0  0  0  0
   53.8521   27.6372   51.7471 H   0  0  0  0  0  0  0  0  0  0  0  0
   53.5064   29.5456   50.1426 H   0  0  0  0  0  0  0  0  0  0  0  0
   52.1802   31.6230   49.7371 H   0  0  0  0  0  0  0  0  0  0  0  0
   51.4598   31.9933   53.9858 H   0  0  0  0  0  0  0  0  0  0  0  0
   52.8370   30.5397   55.4978 H   0  0  0  0  0  0  0  0  0  0  0  0
   51.7459   29.1772   54.9592 H   0  0  0  0  0  0  0  0  0  0  0  0
   57.3266   28.9406   54.3116 H   0  0  0  0  0  0  0  0  0  0  0  0
   58.7718   28.6859   52.2955 H   0  0  0  0  0  0  0  0  0  0  0  0
   60.7425   32.8388   50.4404 H   0  0  0  0  0  0  0  0  0  0  0  0
   60.6155   31.3536   51.4412 H   0  0  0  0  0  0  0  0  0  0  0  0
   62.9050   31.7262   50.3876 H   0  0  0  0  0  0  0  0  0  0  0  0
   62.1054   30.1439   49.9638 H   0  0  0  0  0  0  0  0  0  0  0  0
   62.1705   33.3847   49.1128 H   0  0  0  0  0  0  0  0  0  0  0  0
   64.5624   33.8468   48.2811 H   0  0  0  0  0  0  0  0  0  0  0  0
   64.6502   32.3431   47.5524 H   0  0  0  0  0  0  0  0  0  0  0  0
   63.6049   34.9482   46.3481 H   0  0  0  0  0  0  0  0  0  0  0  0
   63.7554   33.5752   45.4010 H   0  0  0  0  0  0  0  0  0  0  0  0
   61.3274   34.4059   46.9561 H   0  0  0  0  0  0  0  0  0  0  0  0
   61.3335   32.9161   46.1937 H   0  0  0  0  0  0  0  0  0  0  0  0
   61.1909   31.3110   46.5666 H   0  0  0  0  0  0  0  0  0  0  0  0
   61.0613   29.9173   47.7261 H   0  0  0  0  0  0  0  0  0  0  0  0
   59.6953   32.6411   47.9825 H   0  0  0  0  0  0  0  0  0  0  0  0
   58.9084   31.0755   47.6090 H   0  0  0  0  0  0  0  0  0  0  0  0
  1  2  2  0
  2  3  1  0
  3  4  2  0
  4  5  1  0
  5  6  2  0
  6  7  1  0
  7  8  1  0
  8  9  2  0
  8 10  1  0
 10 11  1  0
 11 12  1  0
 12 13  1  0
 13 14  2  0
 14 15  1  0
 15 16  2  0
 16 17  1  0
 16 18  1  0
 18 19  2  0
 19 20  1  0
  6 21  1  0
 21 22  2  0
  2 23  1  0
 23 24  1  0
 24 25  1  0
 25 26  1  0
 26 27  1  0
 27 28  1  0
 28 29  1  0
 29 30  1  0
 26 31  1  0
 31 32  1  0
 22  3  1  0
 32 23  1  0
 20 10  1  0
 30 27  1  0
 19 13  1  0
  4 33  1  0
  5 34  1  0
  7 35  1  0
  7 36  1  0
 10 37  1  1
 11 38  1  0
 11 39  1  0
 12 40  1  0
 12 41  1  0
 14 42  1  0
 15 43  1  0
 18 44  1  0
 20 45  1  0
 20 46  1  0
 21 47  1  0
 22 48  1  0
 24 49  1  0
 24 50  1  0
 25 51  1  0
 25 52  1  0
 27 53  1  0
 28 54  1  0
 28 55  1  0
 29 56  1  0
 29 57  1  0
 30 58  1  0
 30 59  1  0
 31 60  1  0
 31 61  1  0
 32 62  1  0
 32 63  1  0
M  CHG  2  10   1  17  -1
M  END
>  <UniqueID>  (36) 
31

>  <SMILES>  (36) 
O=C(c1ccc(CC(=O)[N@@H+]2CCc3ccc([O-])cc3C2)cc1)N1CCN(C2CCC2)CC1

>  <Energy>  (36) 
143.0049366959273

>  <Genealogy>  (36) 
O=C(c1ccc(CC(=O)[NH+]2CCc3ccc([O-])cc3C2)cc1)N1CCN(C2CCC2)CC1 (protonated)
O=C(c1ccc(CC(=O)[N@@H+]2CCc3ccc([O-])cc3C2)cc1)N1CCN(C2CCC2)CC1 (chirality)
O=C(c1ccc(CC(=O)[N@@H+]2CCc3ccc([O-])cc3C2)cc1)N1CCN(C2CCC2)CC1 (3D coordinates assigned)
O=C(c1ccc(CC(=O)[N@@H+]2CCc3ccc([O-])cc3C2)cc1)N1CCN(C2CCC2)CC1 (nonaromatic ring conformer: 143.0049366959273 kcal/mol)

>  <smiles>  (36) 
O=C(Cc1ccc(C(=O)N2CCN(C3CCC3)CC2)cc1)N1CCc2ccc(O)cc2C1

>  <score_type>  (36) 
oracle

>  <origin>  (36) 
adg

>  <m_score__min__energy>  (36) 
-11.43

>  <m_primary>  (36) 
energy

$$$$
36:0
     RDKit          3D

 66 69  0  0  0  0  0  0  0  0999 V2000
   60.5160   28.5790   49.6740 C   0  0  0  0  0  0  0  0  0  0  0  0
   59.6430   27.9390   48.6760 N   0  0  0  0  0  0  0  0  0  0  0  0
   58.8120   28.9610   48.0050 C   0  0  0  0  0  0  0  0  0  0  0  0
   58.0990   28.3730   46.7780 C   0  0  0  0  0  0  0  0  0  0  0  0
   59.0360   27.7650   45.7900 N   0  0  0  0  0  0  0  0  0  0  0  0
   59.0090   28.4470   44.4750 C   0  0  0  0  0  0  0  0  0  0  0  0
   57.7260   28.0850   43.7090 C   0  0  0  0  0  0  0  0  0  0  0  0
   56.9820   29.3150   43.1670 C   0  0  0  0  0  0  0  0  0  0  0  0
   56.1850   30.0090   44.2310 C   0  0  0  0  0  0  0  0  0  0  0  0
   55.3840   29.3450   44.9410 O   0  0  0  0  0  0  0  0  0  0  0  0
   56.4290   31.3980   44.4870 N   0  0  0  0  0  0  0  0  0  0  0  0
   57.4060   31.9890   45.3600 C   0  0  0  0  0  0  0  0  0  0  0  0
   57.0960   33.2180   45.9570 C   0  0  0  0  0  0  0  0  0  0  0  0
   58.0030   33.8430   46.8150 C   0  0  0  0  0  0  0  0  0  0  0  0
   59.2340   33.2420   47.0930 C   0  0  0  0  0  0  0  0  0  0  0  0
   60.4000   34.0590   48.1800 S   0  0  0  0  0  0  0  0  0  0  0  0
   60.0110   32.9890   49.5650 C   0  0  0  0  0  0  0  0  0  0  0  0
   61.0360   32.3580   50.2760 C   0  0  0  0  0  0  0  0  0  0  0  0
   60.7290   31.5410   51.3670 C   0  0  0  0  0  0  0  0  0  0  0  0
   59.3950   31.3390   51.7400 C   0  0  0  0  0  0  0  0  0  0  0  0
   58.3570   31.9410   51.0140 C   0  0  0  0  0  0  0  0  0  0  0  0
   56.9990   31.7490   51.4270 N   0  0  0  0  0  0  0  0  0  0  0  0
   56.4860   30.4730   51.8430 C   0  0  0  0  0  0  0  0  0  0  0  0
   57.2820   29.5200   52.0690 O   0  0  0  0  0  0  0  0  0  0  0  0
   55.0360   30.2740   52.0750 C   0  0  0  0  0  0  0  0  0  0  0  0
   54.5670   29.1800   52.8290 C   0  0  0  0  0  0  0  0  0  0  0  0
   53.1960   28.9980   53.0320 C   0  0  0  0  0  0  0  0  0  0  0  0
   52.2780   29.9040   52.4960 C   0  0  0  0  0  0  0  0  0  0  0  0
   50.9460   29.7230   52.6930 F   0  0  0  0  0  0  0  0  0  0  0  0
   52.7320   30.9950   51.7530 C   0  0  0  0  0  0  0  0  0  0  0  0
   54.1020   31.1860   51.5510 C   0  0  0  0  0  0  0  0  0  0  0  0
   58.6730   32.7810   49.9310 C   0  0  0  0  0  0  0  0  0  0  0  0
   59.5450   32.0020   46.5190 C   0  0  0  0  0  0  0  0  0  0  0  0
   58.6330   31.3710   45.6660 C   0  0  0  0  0  0  0  0  0  0  0  0
   60.4210   27.6280   46.2980 C   0  0  0  0  0  0  0  0  0  0  0  0
   60.4220   27.0910   47.7360 C   0  0  0  0  0  0  0  0  0  0  0  0
   60.1665   28.3227   50.6850 H   0  0  0  0  0  0  0  0  0  0  0  0
   61.5479   28.2219   49.5413 H   0  0  0  0  0  0  0  0  0  0  0  0
   60.4859   29.6706   49.5413 H   0  0  0  0  0  0  0  0  0  0  0  0
   58.0585   29.3341   48.7142 H   0  0  0  0  0  0  0  0  0  0  0  0
   59.4660   29.7799   47.6709 H   0  0  0  0  0  0  0  0  0  0  0  0
   57.3985   27.5966   47.1193 H   0  0  0  0  0  0  0  0  0  0  0  0
   57.5823   29.2016   46.2717 H   0  0  0  0  0  0  0  0  0  0  0  0
   59.0432   29.5354   44.6306 H   0  0  0  0  0  0  0  0  0  0  0  0
   59.8795   28.1214   43.8865 H   0  0  0  0  0  0  0  0  0  0  0  0
   57.9948   27.4368   42.8619 H   0  0  0  0  0  0  0  0  0  0  0  0
   57.0526   27.5790   44.4165 H   0  0  0  0  0  0  0  0  0  0  0  0
   57.7182   30.0224   42.7577 H   0  0  0  0  0  0  0  0  0  0  0  0
   56.2823   28.9716   42.3908 H   0  0  0  0  0  0  0  0  0  0  0  0
   56.1275   33.6957   45.7475 H   0  0  0  0  0  0  0  0  0  0  0  0
   57.7484   34.8101   47.2730 H   0  0  0  0  0  0  0  0  0  0  0  0
   62.0842   32.5047   49.9765 H   0  0  0  0  0  0  0  0  0  0  0  0
   61.5371   31.0556   51.9339 H   0  0  0  0  0  0  0  0  0  0  0  0
   59.1596   30.7046   52.6073 H   0  0  0  0  0  0  0  0  0  0  0  0
   56.4050   32.5990   51.5790 H   0  0  0  0  0  0  0  0  0  0  0  0
   55.2835   28.4654   53.2602 H   0  0  0  0  0  0  0  0  0  0  0  0
   52.8385   28.1374   53.6165 H   0  0  0  0  0  0  0  0  0  0  0  0
   52.0100   31.7062   51.3254 H   0  0  0  0  0  0  0  0  0  0  0  0
   54.4526   32.0567   50.9775 H   0  0  0  0  0  0  0  0  0  0  0  0
   57.8678   33.2767   49.3689 H   0  0  0  0  0  0  0  0  0  0  0  0
   60.5101   31.5228   46.7400 H   0  0  0  0  0  0  0  0  0  0  0  0
   58.8756   30.3892   45.2333 H   0  0  0  0  0  0  0  0  0  0  0  0
   60.9750   26.9310   45.6521 H   0  0  0  0  0  0  0  0  0  0  0  0
   60.8995   28.6184   46.2905 H   0  0  0  0  0  0  0  0  0  0  0  0
   59.9864   26.0809   47.7327 H   0  0  0  0  0  0  0  0  0  0  0  0
   61.4654   27.0886   48.0844 H   0  0  0  0  0  0  0  0  0  0  0  0
  1  2  1  0
  2  3  1  0
  3  4  1  0
  4  5  1  0
  5  6  1  0
  6  7  1  0
  7  8  1  0
  8  9  1  0
  9 10  2  0
  9 11  1  0
 11 12  1  0
 12 13  2  0
 13 14  1  0
 14 15  2  0
 15 16  1  0
 16 17  1  0
 17 18  2  0
 18 19  1  0
 19 20  2  0
 20 21  1  0
 21 22  1  0
 22 23  1  0
 23 24  2  0
 23 25  1  0
 25 26  2  0
 26 27  1  0
 27 28  2  0
 28 29  1  0
 28 30  1  0
 30 31  2  0
 21 32  2  0
 15 33  1  0
 33 34  2  0
  5 35  1  0
 35 36  1  0
 36  2  1  0
 34 12  1  0
 32 17  1  0
 31 25  1  0
  1 37  1  0
  1 38  1  0
  1 39  1  0
  3 40  1  0
  3 41  1  0
  4 42  1  0
  4 43  1  0
  6 44  1  0
  6 45  1  0
  7 46  1  0
  7 47  1  0
  8 48  1  0
  8 49  1  0
 13 50  1  0
 14 51  1  0
 18 52  1  0
 19 53  1  0
 20 54  1  0
 22 55  1  0
 26 56  1  0
 27 57  1  0
 30 58  1  0
 31 59  1  0
 32 60  1  0
 33 61  1  0
 34 62  1  0
 35 63  1  0
 35 64  1  0
 36 65  1  0
 36 66  1  0
M  CHG  1  11  -1
M  END
>  <UniqueID>  (37) 
32

>  <SMILES>  (37) 
CN1CCN(CCCC(=O)[N-]c2ccc(Sc3cccc(NC(=O)c4ccc(F)cc4)c3)cc2)CC1

>  <Energy>  (37) 
84.19384224132415

>  <Genealogy>  (37) 
CN1CCN(CCCC(=O)[N-]c2ccc(Sc3cccc(NC(=O)c4ccc(F)cc4)c3)cc2)CC1 (protonated)
CN1CCN(CCCC(=O)[N-]c2ccc(Sc3cccc(NC(=O)c4ccc(F)cc4)c3)cc2)CC1 (3D coordinates assigned)
CN1CCN(CCCC(=O)[N-]c2ccc(Sc3cccc(NC(=O)c4ccc(F)cc4)c3)cc2)CC1 (nonaromatic ring conformer: 84.19384224132415 kcal/mol)

>  <smiles>  (37) 
CN1CCN(CCCC(=O)Nc2ccc(Sc3cccc(NC(=O)c4ccc(F)cc4)c3)cc2)CC1

>  <score_type>  (37) 
oracle

>  <origin>  (37) 
adg

>  <m_score__min__energy>  (37) 
-11.73

>  <m_primary>  (37) 
energy

$$$$
37:0
     RDKit          3D

 33 35  0  0  0  0  0  0  0  0999 V2000
   55.5070   26.3340   45.9930 N   0  0  0  0  0  0  0  0  0  0  0  0
   57.1950   26.1500   45.6630 S   0  0  0  0  0  0  0  0  0  0  0  0
   57.5450   24.6990   45.8390 O   0  0  0  0  0  0  0  0  0  0  0  0
   57.4810   26.5520   44.2450 O   0  0  0  0  0  0  0  0  0  0  0  0
   58.1700   27.1310   46.7710 C   0  0  0  0  0  0  0  0  0  0  0  0
   59.0170   26.4660   47.6710 C   0  0  0  0  0  0  0  0  0  0  0  0
   59.7620   27.1810   48.6110 C   0  0  0  0  0  0  0  0  0  0  0  0
   59.6650   28.5700   48.6680 C   0  0  0  0  0  0  0  0  0  0  0  0
   58.8370   29.2500   47.7740 C   0  0  0  0  0  0  0  0  0  0  0  0
   58.1030   28.5470   46.8060 C   0  0  0  0  0  0  0  0  0  0  0  0
   57.2850   29.3310   45.8620 C   0  0  0  0  0  0  0  0  0  0  0  0
   56.2100   28.8220   45.2330 N   0  0  0  0  0  0  0  0  0  0  0  0
   55.7840   29.8460   44.4670 C   0  0  0  0  0  0  0  0  0  0  0  0
   54.7820   29.7580   43.7110 O   0  0  0  0  0  0  0  0  0  0  0  0
   56.5140   30.9740   44.5780 N   0  0  0  0  0  0  0  0  0  0  0  0
   57.4670   30.6500   45.4720 C   0  0  0  0  0  0  0  0  0  0  0  0
   58.4860   31.6110   45.9570 C   0  0  0  0  0  0  0  0  0  0  0  0
   59.8270   31.2120   46.1030 C   0  0  0  0  0  0  0  0  0  0  0  0
   60.7900   32.1130   46.5600 C   0  0  0  0  0  0  0  0  0  0  0  0
   60.4260   33.4200   46.8870 C   0  0  0  0  0  0  0  0  0  0  0  0
   59.0970   33.8310   46.7620 C   0  0  0  0  0  0  0  0  0  0  0  0
   58.7530   35.1360   47.0960 O   0  0  0  0  0  0  0  0  0  0  0  0
   58.1200   32.9310   46.2980 C   0  0  0  0  0  0  0  0  0  0  0  0
   56.7940   33.3460   46.1560 O   0  0  0  0  0  0  0  0  0  0  0  0
   55.1450   27.0640   45.3390 H   0  0  0  0  0  0  0  0  0  0  0  0
   59.0949   25.3693   47.6355 H   0  0  0  0  0  0  0  0  0  0  0  0
   60.4260   26.6474   49.3070 H   0  0  0  0  0  0  0  0  0  0  0  0
   60.2416   29.1308   49.4183 H   0  0  0  0  0  0  0  0  0  0  0  0
   58.7589   30.3459   47.8283 H   0  0  0  0  0  0  0  0  0  0  0  0
   60.1192   30.1810   45.8548 H   0  0  0  0  0  0  0  0  0  0  0  0
   61.8373   31.7925   46.6626 H   0  0  0  0  0  0  0  0  0  0  0  0
   61.1879   34.1285   47.2442 H   0  0  0  0  0  0  0  0  0  0  0  0
   56.1440   32.8790   45.5350 H   0  0  0  0  0  0  0  0  0  0  0  0
  1  2  1  0
  2  3  2  0
  2  4  2  0
  2  5  1  0
  5  6  2  0
  6  7  1  0
  7  8  2  0
  8  9  1  0
  9 10  2  0
 10 11  1  0
 11 12  1  0
 12 13  1  0
 13 14  2  0
 13 15  1  0
 15 16  1  0
 16 17  1  0
 17 18  2  0
 18 19  1  0
 19 20  2  0
 20 21  1  0
 21 22  1  0
 21 23  2  0
 23 24  1  0
 10  5  1  0
 16 11  2  0
 23 17  1  0
  1 25  1  0
  6 26  1  0
  7 27  1  0
  8 28  1  0
  9 29  1  0
 18 30  1  0
 19 31  1  0
 20 32  1  0
 24 33  1  0
M  CHG  4   1  -1  12  -1  15  -1  22  -1
M  END
>  <UniqueID>  (38) 
33

>  <SMILES>  (38) 
[NH-]S(=O)(=O)c1ccccc1-c1[n-]c(=O)[n-]c1-c1cccc([O-])c1O

>  <Energy>  (38) 
76.52072865654719

>  <Genealogy>  (38) 
[NH-]S(=O)(=O)c1ccccc1-c1[n-]c(=O)[n-]c1-c1cccc([O-])c1O (protonated)
[NH-]S(=O)(=O)c1ccccc1-c1[n-]c(=O)[n-]c1-c1cccc([O-])c1O (3D coordinates assigned)
[NH-]S(=O)(=O)c1ccccc1-c1[n-]c(=O)[n-]c1-c1cccc([O-])c1O (optimized conformer: 76.52072865654719 kcal/mol)

>  <smiles>  (38) 
NS(=O)(=O)c1ccccc1-c1[nH]c(=O)[nH]c1-c1cccc(O)c1O

>  <score_type>  (38) 
oracle

>  <origin>  (38) 
adg

>  <m_score__min__energy>  (38) 
-14.83

>  <m_primary>  (38) 
energy

$$$$
38:0
     RDKit          3D

 36 38  0  0  0  0  0  0  0  0999 V2000
   58.3140   35.1460   51.8610 H   0  0  0  0  0  0  0  0  0  0  0  0
   58.8140   34.2770   51.9930 O   0  0  0  0  0  0  0  0  0  0  0  0
   58.3170   33.0610   51.5300 C   0  0  0  0  0  0  0  0  0  0  0  0
   57.5950   32.2260   52.3000 N   0  0  0  0  0  0  0  0  0  0  0  0
   57.3970   31.1730   51.4810 C   0  0  0  0  0  0  0  0  0  0  0  0
   56.7090   30.1310   51.8330 N   0  0  0  0  0  0  0  0  0  0  0  0
   55.4460   30.2410   52.4930 C   0  0  0  0  0  0  0  0  0  0  0  0
   55.1810   29.4760   53.4570 O   0  0  0  0  0  0  0  0  0  0  0  0
   54.4810   31.2150   52.0830 N   0  0  0  0  0  0  0  0  0  0  0  0
   53.1560   30.8920   51.5610 C   0  0  0  0  0  0  0  0  0  0  0  0
   53.0129   31.4070   50.5996 H   0  0  0  0  0  0  0  0  0  0  0  0
   53.0879   29.8021   51.4286 H   0  0  0  0  0  0  0  0  0  0  0  0
   52.0750   31.3280   52.5200 C   0  0  0  0  0  0  0  0  0  0  0  0
   52.0560   30.8240   53.8320 C   0  0  0  0  0  0  0  0  0  0  0  0
   52.8294   30.1116   54.1549 H   0  0  0  0  0  0  0  0  0  0  0  0
   51.0610   31.2220   54.7290 C   0  0  0  0  0  0  0  0  0  0  0  0
   51.0589   30.8293   55.7565 H   0  0  0  0  0  0  0  0  0  0  0  0
   50.0700   32.1170   54.3230 C   0  0  0  0  0  0  0  0  0  0  0  0
   49.2886   32.4303   55.0310 H   0  0  0  0  0  0  0  0  0  0  0  0
   50.0700   32.6150   53.0180 C   0  0  0  0  0  0  0  0  0  0  0  0
   49.2879   33.3204   52.7007 H   0  0  0  0  0  0  0  0  0  0  0  0
   51.0610   32.2200   52.1130 C   0  0  0  0  0  0  0  0  0  0  0  0
   51.0330   32.7160   50.8150 O   0  0  0  0  0  0  0  0  0  0  0  0
   57.9450   31.3190   50.2930 O   0  0  0  0  0  0  0  0  0  0  0  0
   58.5130   32.4980   50.2800 C   0  0  0  0  0  0  0  0  0  0  0  0
   59.1890   33.0650   49.0980 C   0  0  0  0  0  0  0  0  0  0  0  0
   60.4750   33.6280   49.1930 C   0  0  0  0  0  0  0  0  0  0  0  0
   61.0109   33.6117   50.1535 H   0  0  0  0  0  0  0  0  0  0  0  0
   61.0740   34.2080   48.0710 C   0  0  0  0  0  0  0  0  0  0  0  0
   62.0839   34.6370   48.1483 H   0  0  0  0  0  0  0  0  0  0  0  0
   60.3930   34.2440   46.8520 C   0  0  0  0  0  0  0  0  0  0  0  0
   60.8703   34.6929   45.9684 H   0  0  0  0  0  0  0  0  0  0  0  0
   59.1060   33.7100   46.7550 C   0  0  0  0  0  0  0  0  0  0  0  0
   58.5670   33.7454   45.7968 H   0  0  0  0  0  0  0  0  0  0  0  0
   58.5020   33.1300   47.8760 C   0  0  0  0  0  0  0  0  0  0  0  0
   57.4831   32.7227   47.7990 H   0  0  0  0  0  0  0  0  0  0  0  0
  1  2  1  0
  2  3  1  0
  3  4  1  0
  4  5  1  0
  5  6  2  0
  6  7  1  0
  7  8  2  0
  7  9  1  0
  9 10  1  0
 10 11  1  0
 10 12  1  0
 10 13  1  0
 13 14  2  0
 14 15  1  0
 14 16  1  0
 16 17  1  0
 16 18  2  0
 18 19  1  0
 18 20  1  0
 20 21  1  0
 20 22  2  0
 22 23  1  0
  5 24  1  0
 24 25  1  0
 25 26  1  0
 26 27  2  0
 27 28  1  0
 27 29  1  0
 29 30  1  0
 29 31  2  0
 31 32  1  0
 31 33  1  0
 33 34  1  0
 33 35  2  0
 35 36  1  0
 25  3  2  0
 35 26  1  0
 22 13  1  0
M  CHG  3   4  -1   9  -1  23  -1
M  END
>  <UniqueID>  (39) 
34

>  <SMILES>  (39) 
O=C(/N=c1/[n-]c(O)c(-c2ccccc2)o1)[N-]Cc1ccccc1[O-]

>  <Energy>  (39) 
75.84914448383185

>  <Genealogy>  (39) 
O=C(N=c1[n-]c(O)c(-c2ccccc2)o1)[N-]Cc1ccccc1[O-] (protonated)
O=C(/N=c1/[n-]c(O)c(-c2ccccc2)o1)[N-]Cc1ccccc1[O-] (cis-trans isomerization)
O=C(/N=c1/[n-]c(O)c(-c2ccccc2)o1)[N-]Cc1ccccc1[O-] (3D coordinates assigned)
O=C(/N=c1/[n-]c(O)c(-c2ccccc2)o1)[N-]Cc1ccccc1[O-] (optimized conformer: 75.84914448383185 kcal/mol)

>  <smiles>  (39) 
O=C(N=c1[nH]c(O)c(-c2ccccc2)o1)NCc1ccccc1O

>  <score_type>  (39) 
oracle

>  <origin>  (39) 
adg

>  <m_score__min__energy>  (39) 
-13.43

>  <m_primary>  (39) 
energy

$$$$
39:0
     RDKit          3D

 47 49  0  0  0  0  0  0  0  0999 V2000
   55.1450   26.6630   46.1290 N   0  0  0  0  0  0  0  0  0  0  0  0
   56.3260   26.0210   46.6130 C   0  0  0  0  0  0  0  0  0  0  0  0
   56.2200   25.0390   47.3950 O   0  0  0  0  0  0  0  0  0  0  0  0
   57.6670   26.5280   46.2520 C   0  0  0  0  0  0  0  0  0  0  0  0
   58.7820   25.9600   46.8940 C   0  0  0  0  0  0  0  0  0  0  0  0
   60.0570   26.5010   46.7200 C   0  0  0  0  0  0  0  0  0  0  0  0
   60.2370   27.6140   45.9010 C   0  0  0  0  0  0  0  0  0  0  0  0
   59.1480   28.1640   45.2220 C   0  0  0  0  0  0  0  0  0  0  0  0
   57.8650   27.6160   45.3600 C   0  0  0  0  0  0  0  0  0  0  0  0
   56.8010   28.2190   44.6080 N   0  0  0  0  0  0  0  0  0  0  0  0
   56.2730   29.5460   44.7450 C   0  0  0  0  0  0  0  0  0  0  0  0
   55.1120   29.6850   45.2140 O   0  0  0  0  0  0  0  0  0  0  0  0
   57.0570   30.7530   44.3920 C   0  0  0  0  0  0  0  0  0  0  0  0
   57.7030   31.4970   45.3940 C   0  0  0  0  0  0  0  0  0  0  0  0
   58.4290   32.6530   45.0660 C   0  0  0  0  0  0  0  0  0  0  0  0
   59.2040   33.6230   46.3180 S   0  0  0  0  0  0  0  0  0  0  0  0
   60.3110   34.4280   45.6960 O   0  0  0  0  0  0  0  0  0  0  0  0
   58.1770   34.5560   46.8970 O   0  0  0  0  0  0  0  0  0  0  0  0
   59.8540   32.5960   47.5770 N   0  0  0  0  0  0  0  0  0  0  0  0
   60.5620   31.4160   47.0230 C   0  0  0  0  0  0  0  0  0  0  0  0
   62.0580   31.3530   47.3730 C   0  0  0  0  0  0  0  0  0  0  0  0
   62.7060   32.7240   47.1960 C   0  0  0  0  0  0  0  0  0  0  0  0
   62.0100   33.8030   48.0470 C   0  0  0  0  0  0  0  0  0  0  0  0
   60.6290   33.3660   48.5710 C   0  0  0  0  0  0  0  0  0  0  0  0
   58.5050   33.0670   43.7320 C   0  0  0  0  0  0  0  0  0  0  0  0
   57.8610   32.3390   42.7320 C   0  0  0  0  0  0  0  0  0  0  0  0
   57.1340   31.1890   43.0540 C   0  0  0  0  0  0  0  0  0  0  0  0
   56.5080   30.4780   42.0360 O   0  0  0  0  0  0  0  0  0  0  0  0
   54.2050   26.2790   46.3710 H   0  0  0  0  0  0  0  0  0  0  0  0
   55.2020   27.5440   45.5730 H   0  0  0  0  0  0  0  0  0  0  0  0
   58.6479   25.0800   47.5402 H   0  0  0  0  0  0  0  0  0  0  0  0
   60.9203   26.0484   47.2298 H   0  0  0  0  0  0  0  0  0  0  0  0
   61.2367   28.0591   45.7895 H   0  0  0  0  0  0  0  0  0  0  0  0
   59.2985   29.0378   44.5710 H   0  0  0  0  0  0  0  0  0  0  0  0
   57.6394   31.1713   46.4428 H   0  0  0  0  0  0  0  0  0  0  0  0
   60.0782   30.5090   47.4145 H   0  0  0  0  0  0  0  0  0  0  0  0
   60.4981   31.4962   45.9278 H   0  0  0  0  0  0  0  0  0  0  0  0
   62.1720   31.0308   48.4186 H   0  0  0  0  0  0  0  0  0  0  0  0
   62.5513   30.6364   46.6998 H   0  0  0  0  0  0  0  0  0  0  0  0
   63.7619   32.6598   47.4975 H   0  0  0  0  0  0  0  0  0  0  0  0
   62.6121   33.0112   46.1383 H   0  0  0  0  0  0  0  0  0  0  0  0
   62.6527   34.0370   48.9085 H   0  0  0  0  0  0  0  0  0  0  0  0
   61.8517   34.6780   47.3994 H   0  0  0  0  0  0  0  0  0  0  0  0
   60.7744   32.7402   49.4639 H   0  0  0  0  0  0  0  0  0  0  0  0
   60.0587   34.2786   48.7990 H   0  0  0  0  0  0  0  0  0  0  0  0
   59.0752   33.9707   43.4707 H   0  0  0  0  0  0  0  0  0  0  0  0
   57.9253   32.6710   41.6853 H   0  0  0  0  0  0  0  0  0  0  0  0
  1  2  1  0
  2  3  2  0
  2  4  1  0
  4  5  2  0
  5  6  1  0
  6  7  2  0
  7  8  1  0
  8  9  2  0
  9 10  1  0
 10 11  1  0
 11 12  2  0
 11 13  1  0
 13 14  2  0
 14 15  1  0
 15 16  1  0
 16 17  2  0
 16 18  2  0
 16 19  1  0
 19 20  1  0
 20 21  1  0
 21 22  1  0
 22 23  1  0
 23 24  1  0
 15 25  2  0
 25 26  1  0
 26 27  2  0
 27 28  1  0
  9  4  1  0
 27 13  1  0
 24 19  1  0
  1 29  1  0
  1 30  1  0
  5 31  1  0
  6 32  1  0
  7 33  1  0
  8 34  1  0
 14 35  1  0
 20 36  1  0
 20 37  1  0
 21 38  1  0
 21 39  1  0
 22 40  1  0
 22 41  1  0
 23 42  1  0
 23 43  1  0
 24 44  1  0
 24 45  1  0
 25 46  1  0
 26 47  1  0
M  CHG  2  10  -1  28  -1
M  END
>  <UniqueID>  (40) 
35

>  <SMILES>  (40) 
NC(=O)c1ccccc1[N-]C(=O)c1cc(S(=O)(=O)N2CCCCC2)ccc1[O-]

>  <Energy>  (40) 
66.4864949204377

>  <Genealogy>  (40) 
NC(=O)c1ccccc1[N-]C(=O)c1cc(S(=O)(=O)N2CCCCC2)ccc1[O-] (protonated)
NC(=O)c1ccccc1[N-]C(=O)c1cc(S(=O)(=O)N2CCCCC2)ccc1[O-] (3D coordinates assigned)
NC(=O)c1ccccc1[N-]C(=O)c1cc(S(=O)(=O)N2CCCCC2)ccc1[O-] (nonaromatic ring conformer: 66.4864949204377 kcal/mol)

>  <smiles>  (40) 
NC(=O)c1ccccc1NC(=O)c1cc(S(=O)(=O)N2CCCCC2)ccc1O

>  <score_type>  (40) 
oracle

>  <origin>  (40) 
adg

>  <m_score__min__energy>  (40) 
-12.74

>  <m_primary>  (40) 
energy

$$$$
40:0
     RDKit          3D

 36 38  0  0  0  0  0  0  0  0999 V2000
   57.2800   29.9890   43.2150 H   0  0  0  0  0  0  0  0  0  0  0  0
   57.6410   30.9180   43.0410 O   0  0  0  0  0  0  0  0  0  0  0  0
   57.8230   31.8520   44.0610 C   0  0  0  0  0  0  0  0  0  0  0  0
   58.2110   33.1550   43.7230 C   0  0  0  0  0  0  0  0  0  0  0  0
   58.3693   33.4220   42.6677 H   0  0  0  0  0  0  0  0  0  0  0  0
   58.3980   34.1170   44.7180 C   0  0  0  0  0  0  0  0  0  0  0  0
   58.6926   35.1410   44.4446 H   0  0  0  0  0  0  0  0  0  0  0  0
   58.2110   33.7790   46.0600 C   0  0  0  0  0  0  0  0  0  0  0  0
   58.3649   34.5357   46.8434 H   0  0  0  0  0  0  0  0  0  0  0  0
   57.8290   32.4820   46.4090 C   0  0  0  0  0  0  0  0  0  0  0  0
   57.6970   32.2168   47.4684 H   0  0  0  0  0  0  0  0  0  0  0  0
   57.6120   31.5120   45.4120 C   0  0  0  0  0  0  0  0  0  0  0  0
   57.2120   30.1760   45.7550 N   0  0  0  0  0  0  0  0  0  0  0  0
   56.2100   29.4080   45.0770 C   0  0  0  0  0  0  0  0  0  0  0  0
   55.4080   29.9930   44.3050 O   0  0  0  0  0  0  0  0  0  0  0  0
   56.0980   27.9900   45.2540 N   0  0  0  0  0  0  0  0  0  0  0  0
   57.1820   27.0980   45.5570 C   0  0  0  0  0  0  0  0  0  0  0  0
   58.4590   27.6200   45.8360 C   0  0  0  0  0  0  0  0  0  0  0  0
   58.6124   28.7092   45.8428 H   0  0  0  0  0  0  0  0  0  0  0  0
   59.5320   26.7700   46.1040 C   0  0  0  0  0  0  0  0  0  0  0  0
   60.5276   27.1896   46.3106 H   0  0  0  0  0  0  0  0  0  0  0  0
   59.3430   25.3900   46.1100 C   0  0  0  0  0  0  0  0  0  0  0  0
   60.1912   24.7207   46.3162 H   0  0  0  0  0  0  0  0  0  0  0  0
   58.0800   24.8550   45.8550 C   0  0  0  0  0  0  0  0  0  0  0  0
   57.9415   23.7638   45.8654 H   0  0  0  0  0  0  0  0  0  0  0  0
   56.9780   25.6930   45.5840 C   0  0  0  0  0  0  0  0  0  0  0  0
   55.6540   25.0710   45.2990 C   0  0  0  0  0  0  0  0  0  0  0  0
   54.6490   25.4320   45.9690 O   0  0  0  0  0  0  0  0  0  0  0  0
   55.5180   24.0880   44.2590 N   0  0  0  0  0  0  0  0  0  0  0  0
   56.0110   22.8830   44.2270 C   0  0  0  0  0  0  0  0  0  0  0  0
   56.0900   22.1760   43.0810 N   0  0  0  0  0  0  0  0  0  0  0  0
   56.6450   20.9500   43.2810 C   0  0  0  0  0  0  0  0  0  0  0  0
   56.7919   20.2293   42.4631 H   0  0  0  0  0  0  0  0  0  0  0  0
   57.0130   20.6730   44.5920 C   0  0  0  0  0  0  0  0  0  0  0  0
   57.4739   19.7409   44.9509 H   0  0  0  0  0  0  0  0  0  0  0  0
   56.6300   22.0130   45.5340 S   0  0  0  0  0  0  0  0  0  0  0  0
  1  2  1  0
  2  3  1  0
  3  4  2  0
  4  5  1  0
  4  6  1  0
  6  7  1  0
  6  8  2  0
  8  9  1  0
  8 10  1  0
 10 11  1  0
 10 12  2  0
 12 13  1  0
 13 14  1  0
 14 15  2  0
 14 16  1  0
 16 17  1  0
 17 18  2  0
 18 19  1  0
 18 20  1  0
 20 21  1  0
 20 22  2  0
 22 23  1  0
 22 24  1  0
 24 25  1  0
 24 26  2  0
 26 27  1  0
 27 28  2  0
 27 29  1  0
 29 30  2  0
 30 31  1  0
 31 32  1  0
 32 33  1  0
 32 34  2  0
 34 35  1  0
 34 36  1  0
 12  3  1  0
 26 17  1  0
 36 30  1  0
M  CHG  3  13  -1  16  -1  31  -1
M  END
>  <UniqueID>  (41) 
36

>  <SMILES>  (41) 
O=C([N-]c1ccccc1O)[N-]c1ccccc1C(=O)/N=c1/[n-]ccs1

>  <Energy>  (41) 
83.01378579112476

>  <Genealogy>  (41) 
O=C([N-]c1ccccc1O)[N-]c1ccccc1C(=O)N=c1[n-]ccs1 (protonated)
O=C([N-]c1ccccc1O)[N-]c1ccccc1C(=O)/N=c1/[n-]ccs1 (cis-trans isomerization)
O=C([N-]c1ccccc1O)[N-]c1ccccc1C(=O)/N=c1/[n-]ccs1 (3D coordinates assigned)
O=C([N-]c1ccccc1O)[N-]c1ccccc1C(=O)/N=c1/[n-]ccs1 (optimized conformer: 83.01378579112476 kcal/mol)

>  <smiles>  (41) 
O=C(Nc1ccccc1O)Nc1ccccc1C(=O)N=c1[nH]ccs1

>  <score_type>  (41) 
oracle

>  <origin>  (41) 
adg

>  <m_score__min__energy>  (41) 
-13.449999999999999

>  <m_primary>  (41) 
energy

$$$$
41:0
     RDKit          3D

 57 60  0  0  0  0  0  0  0  0999 V2000
   55.1430   29.3250   44.8100 N   0  0  0  0  0  0  0  0  0  0  0  0
   56.6800   30.0070   44.4120 S   0  0  0  0  0  0  0  0  0  0  0  0
   56.9050   29.8960   42.9290 O   0  0  0  0  0  0  0  0  0  0  0  0
   56.6990   31.4610   44.7940 O   0  0  0  0  0  0  0  0  0  0  0  0
   57.9480   29.1480   45.2800 C   0  0  0  0  0  0  0  0  0  0  0  0
   58.6400   28.0960   44.6650 C   0  0  0  0  0  0  0  0  0  0  0  0
   59.6460   27.4210   45.3560 C   0  0  0  0  0  0  0  0  0  0  0  0
   59.9630   27.7840   46.6670 C   0  0  0  0  0  0  0  0  0  0  0  0
   59.2660   28.8240   47.3080 C   0  0  0  0  0  0  0  0  0  0  0  0
   59.6090   29.2030   48.7000 C   0  0  0  0  0  0  0  0  0  0  0  0
   58.9760   30.1380   49.2620 O   0  0  0  0  0  0  0  0  0  0  0  0
   60.6840   28.5510   49.3980 N   0  0  0  0  0  0  0  0  0  0  0  0
   60.8270   28.5640   50.8280 C   0  0  0  0  0  0  0  0  0  0  0  0
   62.1070   28.6810   51.3920 C   0  0  0  0  0  0  0  0  0  0  0  0
   62.2700   28.6910   52.7790 C   0  0  0  0  0  0  0  0  0  0  0  0
   61.1590   28.5730   53.6160 C   0  0  0  0  0  0  0  0  0  0  0  0
   59.8770   28.4310   53.0700 C   0  0  0  0  0  0  0  0  0  0  0  0
   58.4730   28.2820   54.1310 S   0  0  0  0  0  0  0  0  0  0  0  0
   58.2970   26.8410   54.5260 O   0  0  0  0  0  0  0  0  0  0  0  0
   58.7130   29.0800   55.3810 O   0  0  0  0  0  0  0  0  0  0  0  0
   57.0190   28.8560   53.3500 N   0  0  0  0  0  0  0  0  0  0  0  0
   57.2670   30.1540   52.6870 C   0  0  0  0  0  0  0  0  0  0  0  0
   55.9800   30.9730   52.4330 C   0  0  0  0  0  0  0  0  0  0  0  0
   54.7640   30.1460   52.4940 N   0  0  0  0  0  0  0  0  0  0  0  0
   53.6100   30.5090   51.7040 C   0  0  0  0  0  0  0  0  0  0  0  0
   53.2440   29.7440   50.5810 C   0  0  0  0  0  0  0  0  0  0  0  0
   52.1250   30.0960   49.8190 C   0  0  0  0  0  0  0  0  0  0  0  0
   51.3610   31.2120   50.1680 C   0  0  0  0  0  0  0  0  0  0  0  0
   51.7140   31.9800   51.2800 C   0  0  0  0  0  0  0  0  0  0  0  0
   50.9530   33.0910   51.6260 O   0  0  0  0  0  0  0  0  0  0  0  0
   52.8320   31.6320   52.0460 C   0  0  0  0  0  0  0  0  0  0  0  0
   54.6160   29.1300   53.5470 C   0  0  0  0  0  0  0  0  0  0  0  0
   55.9210   28.9430   54.3180 C   0  0  0  0  0  0  0  0  0  0  0  0
   59.7160   28.4150   51.6770 C   0  0  0  0  0  0  0  0  0  0  0  0
   58.2590   29.5060   46.5990 C   0  0  0  0  0  0  0  0  0  0  0  0
   55.1680   28.3240   44.5130 H   0  0  0  0  0  0  0  0  0  0  0  0
   58.3892   27.8020   43.6351 H   0  0  0  0  0  0  0  0  0  0  0  0
   60.1914   26.6003   44.8671 H   0  0  0  0  0  0  0  0  0  0  0  0
   60.7637   27.2525   47.2021 H   0  0  0  0  0  0  0  0  0  0  0  0
   61.4660   28.1510   48.8320 H   0  0  0  0  0  0  0  0  0  0  0  0
   62.9871   28.7653   50.7375 H   0  0  0  0  0  0  0  0  0  0  0  0
   63.2758   28.7921   53.2128 H   0  0  0  0  0  0  0  0  0  0  0  0
   61.2908   28.5916   54.7079 H   0  0  0  0  0  0  0  0  0  0  0  0
   57.9376   30.7483   53.3250 H   0  0  0  0  0  0  0  0  0  0  0  0
   57.7107   29.9358   51.7044 H   0  0  0  0  0  0  0  0  0  0  0  0
   55.9082   31.7626   53.1955 H   0  0  0  0  0  0  0  0  0  0  0  0
   56.0469   31.3945   51.4191 H   0  0  0  0  0  0  0  0  0  0  0  0
   53.8414   28.8639   50.3007 H   0  0  0  0  0  0  0  0  0  0  0  0
   51.8460   29.4924   48.9427 H   0  0  0  0  0  0  0  0  0  0  0  0
   50.4813   31.4861   49.5671 H   0  0  0  0  0  0  0  0  0  0  0  0
   53.1051   32.2397   52.9213 H   0  0  0  0  0  0  0  0  0  0  0  0
   53.8285   29.4488   54.2457 H   0  0  0  0  0  0  0  0  0  0  0  0
   54.3493   28.1732   53.0743 H   0  0  0  0  0  0  0  0  0  0  0  0
   56.0831   29.8000   54.9883 H   0  0  0  0  0  0  0  0  0  0  0  0
   55.8756   28.0256   54.9232 H   0  0  0  0  0  0  0  0  0  0  0  0
   58.7127   28.2849   51.2451 H   0  0  0  0  0  0  0  0  0  0  0  0
   57.7113   30.3272   47.0845 H   0  0  0  0  0  0  0  0  0  0  0  0
  1  2  1  0
  2  3  2  0
  2  4  2  0
  2  5  1  0
  5  6  2  0
  6  7  1  0
  7  8  2  0
  8  9  1  0
  9 10  1  0
 10 11  2  0
 10 12  1  0
 12 13  1  0
 13 14  2  0
 14 15  1  0
 15 16  2  0
 16 17  1  0
 17 18  1  0
 18 19  2  0
 18 20  2  0
 18 21  1  0
 21 22  1  0
 22 23  1  0
 23 24  1  0
 24 25  1  0
 25 26  2  0
 26 27  1  0
 27 28  2  0
 28 29  1  0
 29 30  1  0
 29 31  2  0
 24 32  1  0
 32 33  1  0
 17 34  2  0
  9 35  2  0
 35  5  1  0
 34 13  1  0
 33 21  1  0
 31 25  1  0
  1 36  1  0
  6 37  1  0
  7 38  1  0
  8 39  1  0
 12 40  1  0
 14 41  1  0
 15 42  1  0
 16 43  1  0
 22 44  1  0
 22 45  1  0
 23 46  1  0
 23 47  1  0
 26 48  1  0
 27 49  1  0
 28 50  1  0
 31 51  1  0
 32 52  1  0
 32 53  1  0
 33 54  1  0
 33 55  1  0
 34 56  1  0
 35 57  1  0
M  CHG  2   1  -1  30  -1
M  END
>  <UniqueID>  (42) 
37

>  <SMILES>  (42) 
[NH-]S(=O)(=O)c1cccc(C(=O)Nc2cccc(S(=O)(=O)N3CCN(c4cccc([O-])c4)CC3)c2)c1

>  <Energy>  (42) 
73.10180052554293

>  <Genealogy>  (42) 
[NH-]S(=O)(=O)c1cccc(C(=O)Nc2cccc(S(=O)(=O)N3CCN(c4cccc([O-])c4)CC3)c2)c1 (protonated)
[NH-]S(=O)(=O)c1cccc(C(=O)Nc2cccc(S(=O)(=O)N3CCN(c4cccc([O-])c4)CC3)c2)c1 (3D coordinates assigned)
[NH-]S(=O)(=O)c1cccc(C(=O)Nc2cccc(S(=O)(=O)N3CCN(c4cccc([O-])c4)CC3)c2)c1 (nonaromatic ring conformer: 73.10180052554293 kcal/mol)

>  <smiles>  (42) 
NS(=O)(=O)c1cccc(C(=O)Nc2cccc(S(=O)(=O)N3CCN(c4cccc(O)c4)CC3)c2)c1

>  <score_type>  (42) 
oracle

>  <origin>  (42) 
adg

>  <m_score__min__energy>  (42) 
-16.719999999999999

>  <m_primary>  (42) 
energy

$$$$
42:0
     RDKit          3D

 38 40  0  0  0  0  0  0  0  0999 V2000
   56.6320   34.8740   44.1890 H   0  0  0  0  0  0  0  0  0  0  0  0
   57.4840   34.5120   44.6010 O   0  0  0  0  0  0  0  0  0  0  0  0
   57.6220   33.1550   44.8830 C   0  0  0  0  0  0  0  0  0  0  0  0
   57.2570   32.2440   43.9470 N   0  0  0  0  0  0  0  0  0  0  0  0
   57.4140   30.9120   44.1490 C   0  0  0  0  0  0  0  0  0  0  0  0
   57.0640   30.1120   43.2400 O   0  0  0  0  0  0  0  0  0  0  0  0
   57.9620   30.4510   45.3170 N   0  0  0  0  0  0  0  0  0  0  0  0
   58.1390   29.0340   45.5200 C   0  0  0  0  0  0  0  0  0  0  0  0
   59.4090   28.4550   45.3870 C   0  0  0  0  0  0  0  0  0  0  0  0
   60.2737   29.0840   45.1289 H   0  0  0  0  0  0  0  0  0  0  0  0
   59.5800   27.0830   45.5810 C   0  0  0  0  0  0  0  0  0  0  0  0
   60.5787   26.6344   45.4746 H   0  0  0  0  0  0  0  0  0  0  0  0
   58.4860   26.2780   45.9100 C   0  0  0  0  0  0  0  0  0  0  0  0
   58.6281   25.1980   46.0627 H   0  0  0  0  0  0  0  0  0  0  0  0
   57.2040   26.8410   46.0470 C   0  0  0  0  0  0  0  0  0  0  0  0
   56.0420   25.9930   46.3960 C   0  0  0  0  0  0  0  0  0  0  0  0
   56.1950   24.9460   47.0790 O   0  0  0  0  0  0  0  0  0  0  0  0
   54.7640   26.3410   45.9730 O   0  0  0  0  0  0  0  0  0  0  0  0
   57.0410   28.2230   45.8510 C   0  0  0  0  0  0  0  0  0  0  0  0
   56.0435   28.6742   45.9579 H   0  0  0  0  0  0  0  0  0  0  0  0
   58.3400   31.3390   46.2930 C   0  0  0  0  0  0  0  0  0  0  0  0
   58.8310   30.9160   47.3780 O   0  0  0  0  0  0  0  0  0  0  0  0
   58.1600   32.7210   46.1060 C   0  0  0  0  0  0  0  0  0  0  0  0
   58.5800   33.6720   47.1640 C   0  0  0  0  0  0  0  0  0  0  0  0
   57.9784   33.7419   48.0822 H   0  0  0  0  0  0  0  0  0  0  0  0
   59.6660   34.4500   47.0430 C   0  0  0  0  0  0  0  0  0  0  0  0
   59.5623   35.4008   46.4996 H   0  0  0  0  0  0  0  0  0  0  0  0
   61.0000   34.1060   47.5980 C   0  0  0  0  0  0  0  0  0  0  0  0
   62.0200   33.7300   46.7090 C   0  0  0  0  0  0  0  0  0  0  0  0
   61.8144   33.6916   45.6291 H   0  0  0  0  0  0  0  0  0  0  0  0
   63.2940   33.4040   47.1830 C   0  0  0  0  0  0  0  0  0  0  0  0
   64.0819   33.1022   46.4773 H   0  0  0  0  0  0  0  0  0  0  0  0
   63.5680   33.4610   48.5520 C   0  0  0  0  0  0  0  0  0  0  0  0
   64.8350   33.1370   49.0210 O   0  0  0  0  0  0  0  0  0  0  0  0
   62.5680   33.8480   49.4460 C   0  0  0  0  0  0  0  0  0  0  0  0
   62.7850   33.8968   50.5233 H   0  0  0  0  0  0  0  0  0  0  0  0
   61.2910   34.1740   48.9770 C   0  0  0  0  0  0  0  0  0  0  0  0
   60.5101   34.4848   49.6866 H   0  0  0  0  0  0  0  0  0  0  0  0
  1  2  1  0
  2  3  1  0
  3  4  1  0
  4  5  1  0
  5  6  2  0
  5  7  1  0
  7  8  1  0
  8  9  2  0
  9 10  1  0
  9 11  1  0
 11 12  1  0
 11 13  2  0
 13 14  1  0
 13 15  1  0
 15 16  1  0
 16 17  2  0
 16 18  1  0
 15 19  2  0
 19 20  1  0
  7 21  1  0
 21 22  2  0
 21 23  1  0
 23 24  1  0
 24 25  1  0
 24 26  2  0
 26 27  1  0
 26 28  1  0
 28 29  2  0
 29 30  1  0
 29 31  1  0
 31 32  1  0
 31 33  2  0
 33 34  1  0
 33 35  1  0
 35 36  1  0
 35 37  2  0
 37 38  1  0
 23  3  2  0
 37 28  1  0
 19  8  1  0
M  CHG  3   4  -1  18  -1  34  -1
M  END
>  <UniqueID>  (43) 
38

>  <SMILES>  (43) 
O=C([O-])c1cccc(-n2c(=O)[n-]c(O)c(/C=C/c3ccc([O-])cc3)c2=O)c1

>  <Energy>  (43) 
60.28310971856088

>  <Genealogy>  (43) 
O=C([O-])c1cccc(-n2c(=O)[n-]c(O)c(C=Cc3ccc([O-])cc3)c2=O)c1 (protonated)
O=C([O-])c1cccc(-n2c(=O)[n-]c(O)c(/C=C/c3ccc([O-])cc3)c2=O)c1 (cis-trans isomerization)
O=C([O-])c1cccc(-n2c(=O)[n-]c(O)c(/C=C/c3ccc([O-])cc3)c2=O)c1 (3D coordinates assigned)
O=C([O-])c1cccc(-n2c(=O)[n-]c(O)c(/C=C/c3ccc([O-])cc3)c2=O)c1 (optimized conformer: 60.28310971856088 kcal/mol)

>  <smiles>  (43) 
O=C(O)c1cccc(-n2c(=O)[nH]c(O)c(C=Cc3ccc(O)cc3)c2=O)c1

>  <score_type>  (43) 
oracle

>  <origin>  (43) 
adg

>  <m_score__min__energy>  (43) 
-12.84

>  <m_primary>  (43) 
energy

$$$$
43:0
     RDKit          3D

 52 55  0  0  0  0  0  0  0  0999 V2000
   62.2470   32.8270   48.6850 O   0  0  0  0  0  0  0  0  0  0  0  0
   61.9880   33.9720   49.1510 C   0  0  0  0  0  0  0  0  0  0  0  0
   63.0370   34.5720   50.0430 C   0  0  0  0  0  0  0  0  0  0  0  0
   64.0440   33.7910   50.3370 O   0  0  0  0  0  0  0  0  0  0  0  0
   65.0280   33.0240   50.6050 C   0  0  0  0  0  0  0  0  0  0  0  0
   66.3620   33.4690   50.5460 C   0  0  0  0  0  0  0  0  0  0  0  0
   67.4180   32.6610   50.8300 C   0  0  0  0  0  0  0  0  0  0  0  0
   67.1550   31.3560   51.1890 C   0  0  0  0  0  0  0  0  0  0  0  0
   65.8810   30.8450   51.2710 C   0  0  0  0  0  0  0  0  0  0  0  0
   64.8410   31.6850   50.9800 C   0  0  0  0  0  0  0  0  0  0  0  0
   60.7790   34.5700   48.8090 N   0  0  0  0  0  0  0  0  0  0  0  0
   59.8980   33.8350   47.9350 C   0  0  0  0  0  0  0  0  0  0  0  0
   58.9570   33.0480   48.5570 C   0  0  0  0  0  0  0  0  0  0  0  0
   58.0760   32.3110   47.7880 C   0  0  0  0  0  0  0  0  0  0  0  0
   58.1910   32.4090   46.4130 C   0  0  0  0  0  0  0  0  0  0  0  0
   57.4620   31.8010   45.4650 N   0  0  0  0  0  0  0  0  0  0  0  0
   57.9180   32.1820   44.2400 C   0  0  0  0  0  0  0  0  0  0  0  0
   57.1740   31.5840   42.7380 S   0  0  0  0  0  0  0  0  0  0  0  0
   56.5020   29.9340   42.8660 C   0  0  0  0  0  0  0  0  0  0  0  0
   56.3570   29.3940   44.2160 C   0  0  0  0  0  0  0  0  0  0  0  0
   55.2940   29.3870   44.8900 O   0  0  0  0  0  0  0  0  0  0  0  0
   57.5280   28.8150   44.8380 N   0  0  0  0  0  0  0  0  0  0  0  0
   57.3880   28.2670   46.1720 C   0  0  0  0  0  0  0  0  0  0  0  0
   58.5650   28.6350   47.0150 C   0  0  0  0  0  0  0  0  0  0  0  0
   59.6220   29.2040   46.3470 O   0  0  0  0  0  0  0  0  0  0  0  0
   59.8960   28.5820   45.1300 C   0  0  0  0  0  0  0  0  0  0  0  0
   58.7970   28.7820   44.1320 C   0  0  0  0  0  0  0  0  0  0  0  0
   58.9350   33.0330   44.4410 N   0  0  0  0  0  0  0  0  0  0  0  0
   59.1280   33.1940   45.7860 C   0  0  0  0  0  0  0  0  0  0  0  0
   60.0060   33.9280   46.5530 C   0  0  0  0  0  0  0  0  0  0  0  0
   63.4371   35.4653   49.5411 H   0  0  0  0  0  0  0  0  0  0  0  0
   62.5336   34.7854   50.9975 H   0  0  0  0  0  0  0  0  0  0  0  0
   66.5581   34.5125   50.2586 H   0  0  0  0  0  0  0  0  0  0  0  0
   68.4503   33.0368   50.7751 H   0  0  0  0  0  0  0  0  0  0  0  0
   68.0024   30.6939   51.4202 H   0  0  0  0  0  0  0  0  0  0  0  0
   65.7044   29.7985   51.5602 H   0  0  0  0  0  0  0  0  0  0  0  0
   63.8148   31.2940   51.0427 H   0  0  0  0  0  0  0  0  0  0  0  0
   60.5470   35.5060   49.1830 H   0  0  0  0  0  0  0  0  0  0  0  0
   58.9060   33.0055   49.6550 H   0  0  0  0  0  0  0  0  0  0  0  0
   57.3118   31.6703   48.2522 H   0  0  0  0  0  0  0  0  0  0  0  0
   56.6630   31.1320   45.6560 H   0  0  0  0  0  0  0  0  0  0  0  0
   55.5057   29.9414   42.3998 H   0  0  0  0  0  0  0  0  0  0  0  0
   57.2337   29.2812   42.3674 H   0  0  0  0  0  0  0  0  0  0  0  0
   56.4731   28.6669   46.6334 H   0  0  0  0  0  0  0  0  0  0  0  0
   57.3294   27.1708   46.1019 H   0  0  0  0  0  0  0  0  0  0  0  0
   58.2236   29.3496   47.7784 H   0  0  0  0  0  0  0  0  0  0  0  0
   58.9456   27.6890   47.4276 H   0  0  0  0  0  0  0  0  0  0  0  0
   60.8271   29.0003   44.7201 H   0  0  0  0  0  0  0  0  0  0  0  0
   59.9902   27.5020   45.3165 H   0  0  0  0  0  0  0  0  0  0  0  0
   58.9491   29.7322   43.5992 H   0  0  0  0  0  0  0  0  0  0  0  0
   58.7988   27.9591   43.4021 H   0  0  0  0  0  0  0  0  0  0  0  0
   60.7690   34.5679   46.0857 H   0  0  0  0  0  0  0  0  0  0  0  0
  1  2  2  0
  2  3  1  0
  3  4  1  0
  4  5  1  0
  5  6  2  0
  6  7  1  0
  7  8  2  0
  8  9  1  0
  9 10  2  0
  2 11  1  0
 11 12  1  0
 12 13  2  0
 13 14  1  0
 14 15  2  0
 15 16  1  0
 16 17  1  0
 17 18  1  0
 18 19  1  0
 19 20  1  0
 20 21  2  0
 20 22  1  0
 22 23  1  0
 23 24  1  0
 24 25  1  0
 25 26  1  0
 26 27  1  0
 17 28  2  0
 28 29  1  0
 29 30  2  0
 10  5  1  0
 30 12  1  0
 29 15  1  0
 27 22  1  0
  3 31  1  0
  3 32  1  0
  6 33  1  0
  7 34  1  0
  8 35  1  0
  9 36  1  0
 10 37  1  0
 11 38  1  0
 13 39  1  0
 14 40  1  0
 16 41  1  0
 19 42  1  0
 19 43  1  0
 23 44  1  0
 23 45  1  0
 24 46  1  0
 24 47  1  0
 26 48  1  0
 26 49  1  0
 27 50  1  0
 27 51  1  0
 30 52  1  0
M  END
>  <smiles>  (44) 
O=C(COc1ccccc1)Nc1ccc2[nH]c(SCC(=O)N3CCOCC3)nc2c1

>  <score_type>  (44) 
oracle

>  <origin>  (44) 
adg

>  <m_score__min__energy>  (44) 
-8.3399999999999999

>  <m_primary>  (44) 
energy

$$$$
44:0
     RDKit          3D

 65 68  0  0  0  0  0  0  0  0999 V2000
   61.8990   31.4700   47.1040 C   0  0  0  0  0  0  0  0  0  0  0  0
   61.7970   30.9920   48.4770 N   0  0  0  0  0  0  0  0  0  0  0  0
   62.6720   31.3170   49.4190 N   0  0  0  0  0  0  0  0  0  0  0  0
   62.2680   30.7560   50.5740 C   0  0  0  0  0  0  0  0  0  0  0  0
   61.0980   30.0530   50.3570 C   0  0  0  0  0  0  0  0  0  0  0  0
   60.3130   29.2830   51.3870 C   0  0  0  0  0  0  0  0  0  0  0  0
   58.8810   29.6650   51.3930 N   0  0  0  0  0  0  0  0  0  0  0  0
   58.7100   31.1370   51.3420 C   0  0  0  0  0  0  0  0  0  0  0  0
   57.2550   31.5510   51.6480 C   0  0  0  0  0  0  0  0  0  0  0  0
   56.3890   30.4360   51.6210 O   0  0  0  0  0  0  0  0  0  0  0  0
   56.7350   29.5420   52.6600 C   0  0  0  0  0  0  0  0  0  0  0  0
   58.2220   29.1200   52.5980 C   0  0  0  0  0  0  0  0  0  0  0  0
   60.8270   30.2130   49.0080 C   0  0  0  0  0  0  0  0  0  0  0  0
   59.6860   29.6320   48.2680 C   0  0  0  0  0  0  0  0  0  0  0  0
   58.5370   29.6650   48.7870 O   0  0  0  0  0  0  0  0  0  0  0  0
   59.8830   28.9700   47.0000 N   0  0  0  0  0  0  0  0  0  0  0  0
   60.3820   27.5850   47.0070 C   0  0  0  0  0  0  0  0  0  0  0  0
   59.4310   26.6450   46.2520 C   0  0  0  0  0  0  0  0  0  0  0  0
   57.6870   27.1330   46.5070 S   0  0  0  0  0  0  0  0  0  0  0  0
   57.7900   28.7880   45.7090 C   0  0  0  0  0  0  0  0  0  0  0  0
   59.1950   29.4240   45.7770 C   0  0  1  0  0  0  0  0  0  0  0  0
   59.1740   30.9700   45.6500 C   0  0  0  0  0  0  0  0  0  0  0  0
   57.8320   31.5190   45.1330 C   0  0  0  0  0  0  0  0  0  0  0  0
   57.3430   32.6200   45.9940 N   0  0  0  0  0  0  0  0  0  0  0  0
   58.0750   32.7220   47.2860 C   0  0  0  0  0  0  0  0  0  0  0  0
   59.0440   33.9210   47.3690 C   0  0  0  0  0  0  0  0  0  0  0  0
   59.6990   34.1960   46.0160 C   0  0  0  0  0  0  0  0  0  0  0  0
   58.6520   34.4690   44.9220 C   0  0  0  0  0  0  0  0  0  0  0  0
   57.2610   33.9060   45.2720 C   0  0  0  0  0  0  0  0  0  0  0  0
   62.1286   32.5458   47.1064 H   0  0  0  0  0  0  0  0  0  0  0  0
   62.7011   30.9251   46.5847 H   0  0  0  0  0  0  0  0  0  0  0  0
   60.9443   31.2999   46.5847 H   0  0  0  0  0  0  0  0  0  0  0  0
   62.7877   30.8434   51.5395 H   0  0  0  0  0  0  0  0  0  0  0  0
   60.3931   28.2087   51.1645 H   0  0  0  0  0  0  0  0  0  0  0  0
   60.7312   29.5164   52.3773 H   0  0  0  0  0  0  0  0  0  0  0  0
   58.4180   29.2460   50.5510 H   0  0  0  0  0  0  0  0  0  0  0  0
   59.3765   31.5997   52.0847 H   0  0  0  0  0  0  0  0  0  0  0  0
   58.9579   31.4771   50.3257 H   0  0  0  0  0  0  0  0  0  0  0  0
   57.2156   32.0115   52.6462 H   0  0  0  0  0  0  0  0  0  0  0  0
   56.9272   32.2646   50.8777 H   0  0  0  0  0  0  0  0  0  0  0  0
   56.5460   30.0322   53.6265 H   0  0  0  0  0  0  0  0  0  0  0  0
   56.1221   28.6360   52.5435 H   0  0  0  0  0  0  0  0  0  0  0  0
   58.7399   29.4973   53.4921 H   0  0  0  0  0  0  0  0  0  0  0  0
   58.2716   28.0219   52.5563 H   0  0  0  0  0  0  0  0  0  0  0  0
   61.3702   27.5578   46.5247 H   0  0  0  0  0  0  0  0  0  0  0  0
   60.4489   27.2455   48.0512 H   0  0  0  0  0  0  0  0  0  0  0  0
   59.6626   26.6863   45.1774 H   0  0  0  0  0  0  0  0  0  0  0  0
   59.5689   25.6239   46.6372 H   0  0  0  0  0  0  0  0  0  0  0  0
   57.5080   28.6815   44.6511 H   0  0  0  0  0  0  0  0  0  0  0  0
   57.1092   29.4533   46.2602 H   0  0  0  0  0  0  0  0  0  0  0  0
   59.7643   29.0794   44.9012 H   0  0  0  0  0  0  0  0  0  0  0  0
   59.3708   31.4047   46.6411 H   0  0  0  0  0  0  0  0  0  0  0  0
   59.9448   31.2477   44.9159 H   0  0  0  0  0  0  0  0  0  0  0  0
   57.9682   31.8964   44.1088 H   0  0  0  0  0  0  0  0  0  0  0  0
   57.0911   30.7061   45.1484 H   0  0  0  0  0  0  0  0  0  0  0  0
   57.3359   32.8186   48.0950 H   0  0  0  0  0  0  0  0  0  0  0  0
   58.6874   31.8127   47.3760 H   0  0  0  0  0  0  0  0  0  0  0  0
   58.4842   34.8137   47.6848 H   0  0  0  0  0  0  0  0  0  0  0  0
   59.8337   33.6813   48.0963 H   0  0  0  0  0  0  0  0  0  0  0  0
   60.3545   35.0744   46.1092 H   0  0  0  0  0  0  0  0  0  0  0  0
   60.2739   33.3042   45.7257 H   0  0  0  0  0  0  0  0  0  0  0  0
   58.5657   35.5566   44.7818 H   0  0  0  0  0  0  0  0  0  0  0  0
   58.9920   33.9648   44.0054 H   0  0  0  0  0  0  0  0  0  0  0  0
   56.7335   34.6344   45.9054 H   0  0  0  0  0  0  0  0  0  0  0  0
   56.7222   33.7293   44.3294 H   0  0  0  0  0  0  0  0  0  0  0  0
  1  2  1  0
  2  3  1  0
  3  4  2  0
  4  5  1  0
  5  6  1  0
  6  7  1  0
  7  8  1  0
  8  9  1  0
  9 10  1  0
 10 11  1  0
 11 12  1  0
  5 13  2  0
 13 14  1  0
 14 15  2  0
 14 16  1  0
 16 17  1  0
 17 18  1  0
 18 19  1  0
 19 20  1  0
 20 21  1  0
 21 22  1  0
 22 23  1  0
 23 24  1  0
 24 25  1  0
 25 26  1  0
 26 27  1  0
 27 28  1  0
 28 29  1  0
 13  2  1  0
 21 16  1  0
 29 24  1  0
 12  7  1  0
  1 30  1  0
  1 31  1  0
  1 32  1  0
  4 33  1  0
  6 34  1  0
  6 35  1  0
  7 36  1  0
  8 37  1  0
  8 38  1  0
  9 39  1  0
  9 40  1  0
 11 41  1  0
 11 42  1  0
 12 43  1  0
 12 44  1  0
 17 45  1  0
 17 46  1  0
 18 47  1  0
 18 48  1  0
 20 49  1  0
 20 50  1  0
 21 51  1  6
 22 52  1  0
 22 53  1  0
 23 54  1  0
 23 55  1  0
 25 56  1  0
 25 57  1  0
 26 58  1  0
 26 59  1  0
 27 60  1  0
 27 61  1  0
 28 62  1  0
 28 63  1  0
 29 64  1  0
 29 65  1  0
M  CHG  1   7   1
M  END
>  <UniqueID>  (45) 
39

>  <SMILES>  (45) 
Cn1ncc(C[NH+]2CCOCC2)c1C(=O)N1CCSC[C@H]1CCN1CCCCC1

>  <Energy>  (45) 
121.27609225819259

>  <Genealogy>  (45) 
Cn1ncc(C[NH+]2CCOCC2)c1C(=O)N1CCSCC1CCN1CCCCC1 (protonated)
Cn1ncc(C[NH+]2CCOCC2)c1C(=O)N1CCSC[C@H]1CCN1CCCCC1 (chirality)
Cn1ncc(C[NH+]2CCOCC2)c1C(=O)N1CCSC[C@H]1CCN1CCCCC1 (3D coordinates assigned)
Cn1ncc(C[NH+]2CCOCC2)c1C(=O)N1CCSC[C@H]1CCN1CCCCC1 (nonaromatic ring conformer: 121.27609225819259 kcal/mol)

>  <smiles>  (45) 
Cn1ncc(CN2CCOCC2)c1C(=O)N1CCSCC1CCN1CCCCC1

>  <score_type>  (45) 
oracle

>  <origin>  (45) 
adg

>  <m_score__min__energy>  (45) 
-6.0300000000000002

>  <m_primary>  (45) 
energy

$$$$
45:0
     RDKit          3D

 30 31  0  0  0  0  0  0  0  0999 V2000
   55.1460   27.6370   45.6060 H   0  0  0  0  0  0  0  0  0  0  0  0
   55.0510   26.7030   45.9850 O   0  0  0  0  0  0  0  0  0  0  0  0
   56.1470   25.8910   46.2810 C   0  0  0  0  0  0  0  0  0  0  0  0
   55.9490   24.7910   47.0520 N   0  0  0  0  0  0  0  0  0  0  0  0
   56.9660   23.9410   47.3470 C   0  0  0  0  0  0  0  0  0  0  0  0
   56.7510   22.9300   48.0640 O   0  0  0  0  0  0  0  0  0  0  0  0
   58.2110   24.1780   46.8650 N   0  0  0  0  0  0  0  0  0  0  0  0
   58.4690   25.2660   46.0940 C   0  0  0  0  0  0  0  0  0  0  0  0
   59.6400   25.4580   45.6700 O   0  0  0  0  0  0  0  0  0  0  0  0
   57.4380   26.1700   45.7860 C   0  0  0  0  0  0  0  0  0  0  0  0
   57.7150   27.3680   44.9700 C   0  0  0  0  0  0  0  0  0  0  0  0
   57.2200   28.5090   45.3590 N   0  0  0  0  0  0  0  0  0  0  0  0
   57.4360   29.7870   44.7400 C   0  0  0  0  0  0  0  0  0  0  0  0
   56.9680   30.0390   43.4390 C   0  0  0  0  0  0  0  0  0  0  0  0
   56.4563   29.2430   42.8781 H   0  0  0  0  0  0  0  0  0  0  0  0
   57.1490   31.2950   42.8540 C   0  0  0  0  0  0  0  0  0  0  0  0
   56.7000   31.5270   41.5950 F   0  0  0  0  0  0  0  0  0  0  0  0
   57.7820   32.3140   43.5670 C   0  0  0  0  0  0  0  0  0  0  0  0
   57.9324   33.2989   43.1008 H   0  0  0  0  0  0  0  0  0  0  0  0
   58.2250   32.0850   44.8720 C   0  0  0  0  0  0  0  0  0  0  0  0
   58.7163   32.8937   45.4330 H   0  0  0  0  0  0  0  0  0  0  0  0
   58.0460   30.8260   45.4720 C   0  0  0  0  0  0  0  0  0  0  0  0
   58.5270   30.5870   46.8770 C   0  0  0  0  0  0  0  0  0  0  0  0
   57.7767   30.9598   47.5898 H   0  0  0  0  0  0  0  0  0  0  0  0
   58.6784   29.5089   47.0343 H   0  0  0  0  0  0  0  0  0  0  0  0
   59.4777   31.1175   47.0343 H   0  0  0  0  0  0  0  0  0  0  0  0
   58.5360   27.2280   43.7140 C   0  0  0  0  0  0  0  0  0  0  0  0
   59.5878   27.0486   43.9816 H   0  0  0  0  0  0  0  0  0  0  0  0
   58.1588   26.3812   43.1218 H   0  0  0  0  0  0  0  0  0  0  0  0
   58.4607   28.1519   43.1218 H   0  0  0  0  0  0  0  0  0  0  0  0
  1  2  1  0
  2  3  1  0
  3  4  1  0
  4  5  1  0
  5  6  2  0
  5  7  1  0
  7  8  1  0
  8  9  2  0
  8 10  1  0
 10 11  1  0
 11 12  2  0
 12 13  1  0
 13 14  2  0
 14 15  1  0
 14 16  1  0
 16 17  1  0
 16 18  2  0
 18 19  1  0
 18 20  1  0
 20 21  1  0
 20 22  2  0
 22 23  1  0
 23 24  1  0
 23 25  1  0
 23 26  1  0
 11 27  1  0
 27 28  1  0
 27 29  1  0
 27 30  1  0
 10  3  2  0
 22 13  1  0
M  CHG  2   4  -1   7  -1
M  END
>  <UniqueID>  (46) 
40

>  <SMILES>  (46) 
C/C(=N\c1cc(F)ccc1C)c1c(O)[n-]c(=O)[n-]c1=O

>  <Energy>  (46) 
46.499548847090885

>  <Genealogy>  (46) 
CC(=Nc1cc(F)ccc1C)c1c(O)[n-]c(=O)[n-]c1=O (protonated)
C/C(=N\c1cc(F)ccc1C)c1c(O)[n-]c(=O)[n-]c1=O (cis-trans isomerization)
C/C(=N\c1cc(F)ccc1C)c1c(O)[n-]c(=O)[n-]c1=O (3D coordinates assigned)
C/C(=N\c1cc(F)ccc1C)c1c(O)[n-]c(=O)[n-]c1=O (optimized conformer: 46.499548847090885 kcal/mol)

>  <smiles>  (46) 
CC(=Nc1cc(F)ccc1C)c1c(O)[nH]c(=O)[nH]c1=O

>  <score_type>  (46) 
oracle

>  <origin>  (46) 
adg

>  <m_score__min__energy>  (46) 
-11.619999999999999

>  <m_primary>  (46) 
energy

$$$$
46:0
     RDKit          3D

 43 45  0  0  0  0  0  0  0  0999 V2000
   61.2379   28.9550   46.7887 H   0  0  0  0  0  0  0  0  0  0  0  0
   60.4460   29.7150   46.7150 C   0  0  0  0  0  0  0  0  0  0  0  0
   60.0970   30.4650   47.8330 C   0  0  0  0  0  0  0  0  0  0  0  0
   60.6112   30.2959   48.7906 H   0  0  0  0  0  0  0  0  0  0  0  0
   59.0970   31.4300   47.7410 C   0  0  0  0  0  0  0  0  0  0  0  0
   58.8084   31.9965   48.6386 H   0  0  0  0  0  0  0  0  0  0  0  0
   58.4490   31.6930   46.5190 C   0  0  0  0  0  0  0  0  0  0  0  0
   57.3530   32.7500   46.5100 C   0  0  0  0  0  0  0  0  0  0  0  0
   56.6657   32.5259   45.6809 H   0  0  0  0  0  0  0  0  0  0  0  0
   56.8656   32.7052   47.4951 H   0  0  0  0  0  0  0  0  0  0  0  0
   57.8440   34.1410   46.3430 N   0  0  0  0  0  0  0  0  0  0  0  0
   58.0990   34.5780   44.9560 C   0  0  0  0  0  0  0  0  0  0  0  0
   57.3999   34.0555   44.2864 H   0  0  0  0  0  0  0  0  0  0  0  0
   57.9561   35.6679   44.9152 H   0  0  0  0  0  0  0  0  0  0  0  0
   59.5470   34.2730   44.5000 C   0  0  0  0  0  0  0  0  0  0  0  0
   59.5213   33.4098   43.8186 H   0  0  0  0  0  0  0  0  0  0  0  0
   59.9275   35.1831   44.0132 H   0  0  0  0  0  0  0  0  0  0  0  0
   60.4310   33.9750   45.5640 O   0  0  0  0  0  0  0  0  0  0  0  0
   60.2260   34.8670   46.6350 C   0  0  0  0  0  0  0  0  0  0  0  0
   61.0339   34.7431   47.3711 H   0  0  0  0  0  0  0  0  0  0  0  0
   60.2248   35.8973   46.2496 H   0  0  0  0  0  0  0  0  0  0  0  0
   58.8760   34.5820   47.3100 C   0  0  0  0  0  0  0  0  0  0  0  0
   59.0167   33.7914   48.0618 H   0  0  0  0  0  0  0  0  0  0  0  0
   58.5266   35.5179   47.7704 H   0  0  0  0  0  0  0  0  0  0  0  0
   58.8040   30.9240   45.3680 C   0  0  0  0  0  0  0  0  0  0  0  0
   58.0470   31.0340   44.0520 C   0  0  0  0  0  0  0  0  0  0  0  0
   58.7752   31.1166   43.2317 H   0  0  0  0  0  0  0  0  0  0  0  0
   57.4018   31.9230   44.1101 H   0  0  0  0  0  0  0  0  0  0  0  0
   57.1890   29.8770   43.8030 N   0  0  0  0  0  0  0  0  0  0  0  0
   56.3830   29.2600   44.8100 C   0  0  0  0  0  0  0  0  0  0  0  0
   55.1530   29.5290   44.8870 O   0  0  0  0  0  0  0  0  0  0  0  0
   56.9970   28.3400   45.7220 N   0  0  0  0  0  0  0  0  0  0  0  0
   56.6330   27.1090   45.9290 C   0  0  0  0  0  0  0  0  0  0  0  0
   55.3480   26.6930   46.0080 N   0  0  0  0  0  0  0  0  0  0  0  0
   55.2390   25.3840   46.2260 N   0  0  0  0  0  0  0  0  0  0  0  0
   56.4340   24.7560   46.3160 C   0  0  0  0  0  0  0  0  0  0  0  0
   56.5810   23.2950   46.5770 C   0  0  0  0  0  0  0  0  0  0  0  0
   57.0795   22.8221   45.7180 H   0  0  0  0  0  0  0  0  0  0  0  0
   55.3340   22.7290   46.7560 F   0  0  0  0  0  0  0  0  0  0  0  0
   57.3420   23.0990   47.7150 F   0  0  0  0  0  0  0  0  0  0  0  0
   57.7150   25.8380   46.1320 S   0  0  0  0  0  0  0  0  0  0  0  0
   59.7940   29.9250   45.5020 C   0  0  0  0  0  0  0  0  0  0  0  0
   60.0545   29.3022   44.6335 H   0  0  0  0  0  0  0  0  0  0  0  0
  1  2  1  0
  2  3  2  0
  3  4  1  0
  3  5  1  0
  5  6  1  0
  5  7  2  0
  7  8  1  0
  8  9  1  0
  8 10  1  0
  8 11  1  0
 11 12  1  0
 12 13  1  0
 12 14  1  0
 12 15  1  0
 15 16  1  0
 15 17  1  0
 15 18  1  0
 18 19  1  0
 19 20  1  0
 19 21  1  0
 19 22  1  0
 22 23  1  0
 22 24  1  0
  7 25  1  0
 25 26  1  0
 26 27  1  0
 26 28  1  0
 26 29  1  0
 29 30  1  0
 30 31  2  0
 30 32  1  0
 32 33  2  0
 33 34  1  0
 34 35  1  0
 35 36  2  0
 36 37  1  0
 37 38  1  0
 37 39  1  0
 37 40  1  0
 36 41  1  0
 25 42  2  0
 42 43  1  0
 42  2  1  0
 22 11  1  0
 41 33  1  0
M  CHG  2  29  -1  34  -1
M  END
>  <UniqueID>  (47) 
41

>  <SMILES>  (47) 
O=C(/N=c1\[n-]nc(C(F)F)s1)[N-]Cc1ccccc1CN1CCOCC1

>  <Energy>  (47) 
97.79808336135291

>  <Genealogy>  (47) 
O=C(N=c1[n-]nc(C(F)F)s1)[N-]Cc1ccccc1CN1CCOCC1 (protonated)
O=C(/N=c1\[n-]nc(C(F)F)s1)[N-]Cc1ccccc1CN1CCOCC1 (cis-trans isomerization)
O=C(/N=c1\[n-]nc(C(F)F)s1)[N-]Cc1ccccc1CN1CCOCC1 (3D coordinates assigned)
O=C(/N=c1\[n-]nc(C(F)F)s1)[N-]Cc1ccccc1CN1CCOCC1 (nonaromatic ring conformer: 97.79808336135291 kcal/mol)

>  <smiles>  (47) 
O=C(N=c1[nH]nc(C(F)F)s1)NCc1ccccc1CN1CCOCC1

>  <score_type>  (47) 
oracle

>  <origin>  (47) 
adg

>  <m_score__min__energy>  (47) 
-10.83

>  <m_primary>  (47) 
energy

$$$$
47:0
     RDKit          3D

 58 61  0  0  0  0  0  0  0  0999 V2000
   59.6620   33.3320   45.3130 O   0  0  0  0  0  0  0  0  0  0  0  0
   58.4320   33.2690   45.5840 C   0  0  0  0  0  0  0  0  0  0  0  0
   57.4210   33.2940   44.4830 C   0  0  0  0  0  0  0  0  0  0  0  0
   57.0140   31.9060   44.0930 C   0  0  0  0  0  0  0  0  0  0  0  0
   56.2330   31.1230   44.8690 N   0  0  0  0  0  0  0  0  0  0  0  0
   55.9450   29.9410   44.2620 C   0  0  0  0  0  0  0  0  0  0  0  0
   55.1630   28.9740   44.8790 O   0  0  0  0  0  0  0  0  0  0  0  0
   56.4790   29.7690   42.9910 C   0  0  0  0  0  0  0  0  0  0  0  0
   57.3370   31.1630   42.6100 S   0  0  0  0  0  0  0  0  0  0  0  0
   57.9930   33.2310   46.9410 N   0  0  0  0  0  0  0  0  0  0  0  0
   58.6380   32.1240   48.1040 S   0  0  0  0  0  0  0  0  0  0  0  0
   58.1660   32.5340   49.4710 O   0  0  0  0  0  0  0  0  0  0  0  0
   58.1520   30.7360   47.7970 O   0  0  0  0  0  0  0  0  0  0  0  0
   60.4100   32.1360   48.0710 C   0  0  0  0  0  0  0  0  0  0  0  0
   61.0760   33.1760   48.7390 C   0  0  0  0  0  0  0  0  0  0  0  0
   62.4690   33.2560   48.7210 C   0  0  0  0  0  0  0  0  0  0  0  0
   63.2170   32.3000   48.0370 C   0  0  0  0  0  0  0  0  0  0  0  0
   62.5740   31.2520   47.3760 C   0  0  0  0  0  0  0  0  0  0  0  0
   61.1720   31.1480   47.3940 C   0  0  0  0  0  0  0  0  0  0  0  0
   60.5510   30.0080   46.6910 C   0  0  0  0  0  0  0  0  0  0  0  0
   60.6950   28.7020   47.1820 C   0  0  0  0  0  0  0  0  0  0  0  0
   60.1120   27.6270   46.5010 C   0  0  0  0  0  0  0  0  0  0  0  0
   59.3870   27.8470   45.3190 C   0  0  0  0  0  0  0  0  0  0  0  0
   58.7470   26.6930   44.5990 C   0  0  0  0  0  0  0  0  0  0  0  0
   57.2900   26.8370   44.6330 N   0  0  0  0  0  0  0  0  0  0  0  0
   56.6560   26.2240   46.1320 S   0  0  0  0  0  0  0  0  0  0  0  0
   55.1540   26.2670   46.1030 O   0  0  0  0  0  0  0  0  0  0  0  0
   57.1400   27.0980   47.2540 O   0  0  0  0  0  0  0  0  0  0  0  0
   57.1880   24.5420   46.4280 C   0  0  0  0  0  0  0  0  0  0  0  0
   57.0250   23.6990   45.1930 C   0  0  0  0  0  0  0  0  0  0  0  0
   55.9970   23.9800   44.2770 C   0  0  0  0  0  0  0  0  0  0  0  0
   55.8460   23.1990   43.1270 C   0  0  0  0  0  0  0  0  0  0  0  0
   56.7140   22.1310   42.8860 C   0  0  0  0  0  0  0  0  0  0  0  0
   57.7280   21.8350   43.8000 C   0  0  0  0  0  0  0  0  0  0  0  0
   57.8840   22.6140   44.9500 C   0  0  0  0  0  0  0  0  0  0  0  0
   59.2350   29.1560   44.8380 C   0  0  0  0  0  0  0  0  0  0  0  0
   59.8240   30.2280   45.5120 C   0  0  0  0  0  0  0  0  0  0  0  0
   56.5328   33.8466   44.8233 H   0  0  0  0  0  0  0  0  0  0  0  0
   57.8701   33.7855   43.6073 H   0  0  0  0  0  0  0  0  0  0  0  0
   56.3616   28.8822   42.3508 H   0  0  0  0  0  0  0  0  0  0  0  0
   60.4939   33.9352   49.2819 H   0  0  0  0  0  0  0  0  0  0  0  0
   62.9781   34.0762   49.2484 H   0  0  0  0  0  0  0  0  0  0  0  0
   64.3145   32.3711   48.0178 H   0  0  0  0  0  0  0  0  0  0  0  0
   63.1695   30.5009   46.8363 H   0  0  0  0  0  0  0  0  0  0  0  0
   61.2672   28.5222   48.1041 H   0  0  0  0  0  0  0  0  0  0  0  0
   60.2224   26.6054   46.8936 H   0  0  0  0  0  0  0  0  0  0  0  0
   59.0888   26.6794   43.5535 H   0  0  0  0  0  0  0  0  0  0  0  0
   59.0318   25.7523   45.0930 H   0  0  0  0  0  0  0  0  0  0  0  0
   57.0640   27.8560   44.6070 H   0  0  0  0  0  0  0  0  0  0  0  0
   58.2477   24.5467   46.7229 H   0  0  0  0  0  0  0  0  0  0  0  0
   56.5667   24.1140   47.2285 H   0  0  0  0  0  0  0  0  0  0  0  0
   55.3088   24.8172   44.4653 H   0  0  0  0  0  0  0  0  0  0  0  0
   55.0425   23.4258   42.4108 H   0  0  0  0  0  0  0  0  0  0  0  0
   56.5989   21.5232   41.9764 H   0  0  0  0  0  0  0  0  0  0  0  0
   58.4046   20.9878   43.6145 H   0  0  0  0  0  0  0  0  0  0  0  0
   58.6828   22.3766   45.6680 H   0  0  0  0  0  0  0  0  0  0  0  0
   58.6489   29.3390   43.9253 H   0  0  0  0  0  0  0  0  0  0  0  0
   59.7173   31.2489   45.1166 H   0  0  0  0  0  0  0  0  0  0  0  0
  1  2  2  0
  2  3  1  0
  3  4  1  0
  4  5  2  0
  5  6  1  0
  6  7  1  0
  6  8  2  0
  8  9  1  0
  2 10  1  0
 10 11  1  0
 11 12  2  0
 11 13  2  0
 11 14  1  0
 14 15  2  0
 15 16  1  0
 16 17  2  0
 17 18  1  0
 18 19  2  0
 19 20  1  0
 20 21  2  0
 21 22  1  0
 22 23  2  0
 23 24  1  0
 24 25  1  0
 25 26  1  0
 26 27  2  0
 26 28  2  0
 26 29  1  0
 29 30  1  0
 30 31  2  0
 31 32  1  0
 32 33  2  0
 33 34  1  0
 34 35  2  0
 23 36  1  0
 36 37  2  0
  9  4  1  0
 19 14  1  0
 37 20  1  0
 35 30  1  0
  3 38  1  0
  3 39  1  0
  8 40  1  0
 15 41  1  0
 16 42  1  0
 17 43  1  0
 18 44  1  0
 21 45  1  0
 22 46  1  0
 24 47  1  0
 24 48  1  0
 25 49  1  0
 29 50  1  0
 29 51  1  0
 31 52  1  0
 32 53  1  0
 33 54  1  0
 34 55  1  0
 35 56  1  0
 36 57  1  0
 37 58  1  0
M  CHG  2   7  -1  10  -1
M  END
>  <UniqueID>  (48) 
42

>  <SMILES>  (48) 
O=C(Cc1nc([O-])cs1)[N-]S(=O)(=O)c1ccccc1-c1ccc(CNS(=O)(=O)Cc2ccccc2)cc1

>  <Energy>  (48) 
85.61257924105581

>  <Genealogy>  (48) 
O=C(Cc1nc([O-])cs1)[N-]S(=O)(=O)c1ccccc1-c1ccc(CNS(=O)(=O)Cc2ccccc2)cc1 (protonated)
O=C(Cc1nc([O-])cs1)[N-]S(=O)(=O)c1ccccc1-c1ccc(CNS(=O)(=O)Cc2ccccc2)cc1 (3D coordinates assigned)
O=C(Cc1nc([O-])cs1)[N-]S(=O)(=O)c1ccccc1-c1ccc(CNS(=O)(=O)Cc2ccccc2)cc1 (optimized conformer: 85.61257924105581 kcal/mol)

>  <smiles>  (48) 
O=C(Cc1nc(O)cs1)NS(=O)(=O)c1ccccc1-c1ccc(CNS(=O)(=O)Cc2ccccc2)cc1

>  <score_type>  (48) 
oracle

>  <origin>  (48) 
adg

>  <m_score__min__energy>  (48) 
-16.850000000000001

>  <m_primary>  (48) 
energy

$$$$
48:0
     RDKit          3D

 46 48  0  0  0  0  0  0  0  0999 V2000
   54.2940   28.8490   44.4960 H   0  0  0  0  0  0  0  0  0  0  0  0
   55.1490   29.3810   44.6110 O   0  0  0  0  0  0  0  0  0  0  0  0
   56.3330   28.7960   45.0610 C   0  0  0  0  0  0  0  0  0  0  0  0
   57.5230   29.5140   44.9560 C   0  0  0  0  0  0  0  0  0  0  0  0
   57.5152   30.5264   44.5259 H   0  0  0  0  0  0  0  0  0  0  0  0
   58.7220   28.9560   45.3930 C   0  0  0  0  0  0  0  0  0  0  0  0
   59.6517   29.5390   45.3173 H   0  0  0  0  0  0  0  0  0  0  0  0
   58.7590   27.6610   45.9280 C   0  0  0  0  0  0  0  0  0  0  0  0
   60.0760   27.1520   46.3710 C   0  0  0  0  0  0  0  0  0  0  0  0
   60.8570   26.9707   45.6179 H   0  0  0  0  0  0  0  0  0  0  0  0
   60.3480   26.9050   47.6580 C   0  0  0  0  0  0  0  0  0  0  0  0
   60.5499   25.8688   47.9671 H   0  0  0  0  0  0  0  0  0  0  0  0
   60.3870   27.9670   48.6740 C   0  0  0  0  0  0  0  0  0  0  0  0
   61.0760   27.8340   49.7220 O   0  0  0  0  0  0  0  0  0  0  0  0
   59.6330   29.1640   48.4540 N   0  0  0  0  0  0  0  0  0  0  0  0
   59.6350   30.2990   49.3700 C   0  0  0  0  0  0  0  0  0  0  0  0
   58.7950   30.1999   50.0733 H   0  0  0  0  0  0  0  0  0  0  0  0
   60.5867   30.3136   49.9214 H   0  0  0  0  0  0  0  0  0  0  0  0
   59.4920   31.5860   48.6030 C   0  0  0  0  0  0  0  0  0  0  0  0
   60.0740   32.7720   49.0800 C   0  0  0  0  0  0  0  0  0  0  0  0
   60.6256   32.7682   50.0317 H   0  0  0  0  0  0  0  0  0  0  0  0
   59.9540   33.9580   48.3480 C   0  0  0  0  0  0  0  0  0  0  0  0
   60.4069   34.8856   48.7280 H   0  0  0  0  0  0  0  0  0  0  0  0
   59.2600   33.9670   47.1350 C   0  0  0  0  0  0  0  0  0  0  0  0
   59.1430   35.1460   46.4090 O   0  0  0  0  0  0  0  0  0  0  0  0
   58.6830   32.7880   46.6520 C   0  0  0  0  0  0  0  0  0  0  0  0
   58.1371   32.7949   45.6970 H   0  0  0  0  0  0  0  0  0  0  0  0
   58.7990   31.6010   47.3810 C   0  0  0  0  0  0  0  0  0  0  0  0
   58.3460   30.6753   46.9965 H   0  0  0  0  0  0  0  0  0  0  0  0
   57.5470   26.9260   46.0650 C   0  0  0  0  0  0  0  0  0  0  0  0
   57.4960   25.5580   46.7230 C   0  0  0  0  0  0  0  0  0  0  0  0
   58.4872   25.3383   47.1465 H   0  0  0  0  0  0  0  0  0  0  0  0
   56.7123   25.5991   47.4938 H   0  0  0  0  0  0  0  0  0  0  0  0
   57.1240   24.4410   45.7690 C   0  0  0  0  0  0  0  0  0  0  0  0
   56.8080   23.1440   46.2200 C   0  0  0  0  0  0  0  0  0  0  0  0
   56.8637   22.9096   47.2933 H   0  0  0  0  0  0  0  0  0  0  0  0
   56.4240   22.1530   45.3110 C   0  0  0  0  0  0  0  0  0  0  0  0
   56.1898   21.1401   45.6703 H   0  0  0  0  0  0  0  0  0  0  0  0
   56.3370   22.4460   43.9480 C   0  0  0  0  0  0  0  0  0  0  0  0
   55.9560   21.4590   43.0480 O   0  0  0  0  0  0  0  0  0  0  0  0
   56.6320   23.7330   43.4910 C   0  0  0  0  0  0  0  0  0  0  0  0
   56.5620   23.9644   42.4179 H   0  0  0  0  0  0  0  0  0  0  0  0
   57.0160   24.7270   44.3960 C   0  0  0  0  0  0  0  0  0  0  0  0
   57.2355   25.7413   44.0313 H   0  0  0  0  0  0  0  0  0  0  0  0
   56.3400   27.5090   45.6210 C   0  0  0  0  0  0  0  0  0  0  0  0
   55.1420   26.8090   45.7430 O   0  0  0  0  0  0  0  0  0  0  0  0
  1  2  1  0
  2  3  1  0
  3  4  2  0
  4  5  1  0
  4  6  1  0
  6  7  1  0
  6  8  2  0
  8  9  1  0
  9 10  1  0
  9 11  2  0
 11 12  1  0
 11 13  1  0
 13 14  2  0
 13 15  1  0
 15 16  1  0
 16 17  1  0
 16 18  1  0
 16 19  1  0
 19 20  2  0
 20 21  1  0
 20 22  1  0
 22 23  1  0
 22 24  2  0
 24 25  1  0
 24 26  1  0
 26 27  1  0
 26 28  2  0
 28 29  1  0
  8 30  1  0
 30 31  1  0
 31 32  1  0
 31 33  1  0
 31 34  1  0
 34 35  2  0
 35 36  1  0
 35 37  1  0
 37 38  1  0
 37 39  2  0
 39 40  1  0
 39 41  1  0
 41 42  1  0
 41 43  2  0
 43 44  1  0
 30 45  2  0
 45 46  1  0
 45  3  1  0
 28 19  1  0
 43 34  1  0
M  CHG  4  15  -1  25  -1  40  -1  46  -1
M  END
>  <UniqueID>  (49) 
43

>  <SMILES>  (49) 
O=C(/C=C/c1ccc(O)c([O-])c1Cc1ccc([O-])cc1)[N-]Cc1ccc([O-])cc1

>  <Energy>  (49) 
54.750649338919395

>  <Genealogy>  (49) 
O=C(C=Cc1ccc(O)c([O-])c1Cc1ccc([O-])cc1)[N-]Cc1ccc([O-])cc1 (protonated)
O=C(/C=C/c1ccc(O)c([O-])c1Cc1ccc([O-])cc1)[N-]Cc1ccc([O-])cc1 (cis-trans isomerization)
O=C(/C=C/c1ccc(O)c([O-])c1Cc1ccc([O-])cc1)[N-]Cc1ccc([O-])cc1 (3D coordinates assigned)
O=C(/C=C/c1ccc(O)c([O-])c1Cc1ccc([O-])cc1)[N-]Cc1ccc([O-])cc1 (optimized conformer: 54.750649338919395 kcal/mol)

>  <smiles>  (49) 
O=C(C=Cc1ccc(O)c(O)c1Cc1ccc(O)cc1)NCc1ccc(O)cc1

>  <score_type>  (49) 
oracle

>  <origin>  (49) 
adg

>  <m_score__min__energy>  (49) 
-15.49

>  <m_primary>  (49) 
energy

$$$$
49:0
     RDKit          3D

 80 83  0  0  0  0  0  0  0  0999 V2000
   55.5040   29.9510   44.0480 C   0  0  0  0  0  0  0  0  0  0  0  0
   56.6630   29.4160   43.2120 C   0  0  0  0  0  0  0  0  0  0  0  0
   57.6580   28.6420   44.0810 C   0  0  0  0  0  0  0  0  0  0  0  0
   58.4690   29.5920   44.9130 C   0  0  0  0  0  0  0  0  0  0  0  0
   58.1490   30.8980   45.0290 N   0  0  0  0  0  0  0  0  0  0  0  0
   59.0470   31.3890   45.9060 C   0  0  0  0  0  0  0  0  0  0  0  0
   59.1600   32.8430   46.2720 C   0  0  0  0  0  0  0  0  0  0  0  0
   57.8090   33.4460   46.6440 C   0  0  0  0  0  0  0  0  0  0  0  0
   59.8930   30.3760   46.3120 C   0  0  0  0  0  0  0  0  0  0  0  0
   61.0440   30.5230   47.2200 C   0  0  0  0  0  0  0  0  0  0  0  0
   62.1620   30.8410   46.7360 O   0  0  0  0  0  0  0  0  0  0  0  0
   60.9360   30.3240   48.6350 N   0  0  0  0  0  0  0  0  0  0  0  0
   59.6390   29.5200   49.4650 S   0  0  0  0  0  0  0  0  0  0  0  0
   58.4100   29.4200   48.6070 O   0  0  0  0  0  0  0  0  0  0  0  0
   60.0850   28.1300   49.8190 O   0  0  0  0  0  0  0  0  0  0  0  0
   59.2380   30.3980   50.9690 C   0  0  0  0  0  0  0  0  0  0  0  0
   58.3130   31.5960   50.7250 C   0  0  0  0  0  0  0  0  0  0  0  0
   58.8160   32.4780   49.6680 N   0  0  0  0  0  0  0  0  0  0  0  0
   59.6550   33.8640   50.3020 S   0  0  0  0  0  0  0  0  0  0  0  0
   59.5010   34.9970   49.3280 O   0  0  0  0  0  0  0  0  0  0  0  0
   59.0580   34.2790   51.6160 O   0  0  0  0  0  0  0  0  0  0  0  0
   61.3970   33.5360   50.5300 C   0  0  0  0  0  0  0  0  0  0  0  0
   62.1180   33.5240   49.2100 C   0  0  0  0  0  0  0  0  0  0  0  0
   63.4740   33.1600   49.1490 C   0  0  0  0  0  0  0  0  0  0  0  0
   64.1430   33.1420   47.9210 C   0  0  0  0  0  0  0  0  0  0  0  0
   63.4670   33.4900   46.7500 C   0  0  0  0  0  0  0  0  0  0  0  0
   62.1220   33.8680   46.8040 C   0  0  0  0  0  0  0  0  0  0  0  0
   61.4500   33.8910   48.0300 C   0  0  0  0  0  0  0  0  0  0  0  0
   59.5330   29.2400   45.6760 N   0  0  0  0  0  0  0  0  0  0  0  0
   60.2340   27.9480   45.6860 C   0  0  0  0  0  0  0  0  0  0  0  0
   59.3290   26.8520   46.1860 C   0  0  0  0  0  0  0  0  0  0  0  0
   58.2680   27.1490   47.0570 C   0  0  0  0  0  0  0  0  0  0  0  0
   57.4080   26.1380   47.4920 C   0  0  0  0  0  0  0  0  0  0  0  0
   57.5980   24.8180   47.0620 C   0  0  0  0  0  0  0  0  0  0  0  0
   56.6640   23.7600   47.4930 C   0  0  0  0  0  0  0  0  0  0  0  0
   57.0000   22.9890   48.6170 C   0  0  0  0  0  0  0  0  0  0  0  0
   56.1570   21.9650   49.0500 C   0  0  0  0  0  0  0  0  0  0  0  0
   54.9680   21.7040   48.3700 C   0  0  0  0  0  0  0  0  0  0  0  0
   54.6140   22.4710   47.2580 C   0  0  0  0  0  0  0  0  0  0  0  0
   55.4470   23.5100   46.8110 C   0  0  0  0  0  0  0  0  0  0  0  0
   54.9250   24.4900   45.4270 S   0  0  0  0  0  0  0  0  0  0  0  0
   54.6470   26.1250   45.9210 N   0  0  0  0  0  0  0  0  0  0  0  0
   53.6400   23.9460   44.8710 O   0  0  0  0  0  0  0  0  0  0  0  0
   55.9740   24.4490   44.3510 O   0  0  0  0  0  0  0  0  0  0  0  0
   58.6840   24.5100   46.2320 C   0  0  0  0  0  0  0  0  0  0  0  0
   59.5450   25.5200   45.7960 C   0  0  0  0  0  0  0  0  0  0  0  0
   55.7414   29.8414   45.1165 H   0  0  0  0  0  0  0  0  0  0  0  0
   55.3440   31.0141   43.8151 H   0  0  0  0  0  0  0  0  0  0  0  0
   54.5911   29.3832   43.8151 H   0  0  0  0  0  0  0  0  0  0  0  0
   56.2664   28.7452   42.4356 H   0  0  0  0  0  0  0  0  0  0  0  0
   57.1872   30.2685   42.7554 H   0  0  0  0  0  0  0  0  0  0  0  0
   57.1067   27.9586   44.7436 H   0  0  0  0  0  0  0  0  0  0  0  0
   58.3340   28.0695   43.4289 H   0  0  0  0  0  0  0  0  0  0  0  0
   59.8410   32.9412   47.1302 H   0  0  0  0  0  0  0  0  0  0  0  0
   59.5438   33.3850   45.3951 H   0  0  0  0  0  0  0  0  0  0  0  0
   57.7152   33.4879   47.7392 H   0  0  0  0  0  0  0  0  0  0  0  0
   57.7349   34.4626   46.2305 H   0  0  0  0  0  0  0  0  0  0  0  0
   57.0027   32.8223   46.2305 H   0  0  0  0  0  0  0  0  0  0  0  0
   58.7389   29.7028   51.6601 H   0  0  0  0  0  0  0  0  0  0  0  0
   60.1783   30.7840   51.3896 H   0  0  0  0  0  0  0  0  0  0  0  0
   57.3203   31.2232   50.4326 H   0  0  0  0  0  0  0  0  0  0  0  0
   58.2634   32.1794   51.6562 H   0  0  0  0  0  0  0  0  0  0  0  0
   61.8302   34.3189   51.1699 H   0  0  0  0  0  0  0  0  0  0  0  0
   61.5100   32.5485   51.0013 H   0  0  0  0  0  0  0  0  0  0  0  0
   64.0108   32.8884   50.0699 H   0  0  0  0  0  0  0  0  0  0  0  0
   65.2035   32.8532   47.8776 H   0  0  0  0  0  0  0  0  0  0  0  0
   63.9930   33.4668   45.7842 H   0  0  0  0  0  0  0  0  0  0  0  0
   61.5921   34.1475   45.8814 H   0  0  0  0  0  0  0  0  0  0  0  0
   60.3944   34.1976   48.0706 H   0  0  0  0  0  0  0  0  0  0  0  0
   60.5611   27.7073   44.6637 H   0  0  0  0  0  0  0  0  0  0  0  0
   61.1016   28.0228   46.3581 H   0  0  0  0  0  0  0  0  0  0  0  0
   58.1135   28.1832   47.3984 H   0  0  0  0  0  0  0  0  0  0  0  0
   56.5792   26.3787   48.1741 H   0  0  0  0  0  0  0  0  0  0  0  0
   57.9344   23.1936   49.1602 H   0  0  0  0  0  0  0  0  0  0  0  0
   56.4307   21.3628   49.9289 H   0  0  0  0  0  0  0  0  0  0  0  0
   54.3077   20.8926   48.7100 H   0  0  0  0  0  0  0  0  0  0  0  0
   53.6741   22.2596   46.7271 H   0  0  0  0  0  0  0  0  0  0  0  0
   53.6410   26.3420   45.7410 H   0  0  0  0  0  0  0  0  0  0  0  0
   58.8593   23.4691   45.9226 H   0  0  0  0  0  0  0  0  0  0  0  0
   60.3957   25.2711   45.1445 H   0  0  0  0  0  0  0  0  0  0  0  0
  1  2  1  0
  2  3  1  0
  3  4  1  0
  4  5  2  0
  5  6  1  0
  6  7  1  0
  7  8  1  0
  6  9  2  0
  9 10  1  0
 10 11  2  0
 10 12  1  0
 12 13  1  0
 13 14  2  0
 13 15  2  0
 13 16  1  0
 16 17  1  0
 17 18  1  0
 18 19  1  0
 19 20  2  0
 19 21  2  0
 19 22  1  0
 22 23  1  0
 23 24  2  0
 24 25  1  0
 25 26  2  0
 26 27  1  0
 27 28  2  0
  9 29  1  0
 29 30  1  0
 30 31  1  0
 31 32  2  0
 32 33  1  0
 33 34  2  0
 34 35  1  0
 35 36  2  0
 36 37  1  0
 37 38  2  0
 38 39  1  0
 39 40  2  0
 40 41  1  0
 41 42  1  0
 41 43  2  0
 41 44  2  0
 34 45  1  0
 45 46  2  0
 29  4  1  0
 46 31  1  0
 28 23  1  0
 40 35  1  0
  1 47  1  0
  1 48  1  0
  1 49  1  0
  2 50  1  0
  2 51  1  0
  3 52  1  0
  3 53  1  0
  7 54  1  0
  7 55  1  0
  8 56  1  0
  8 57  1  0
  8 58  1  0
 16 59  1  0
 16 60  1  0
 17 61  1  0
 17 62  1  0
 22 63  1  0
 22 64  1  0
 24 65  1  0
 25 66  1  0
 26 67  1  0
 27 68  1  0
 28 69  1  0
 30 70  1  0
 30 71  1  0
 32 72  1  0
 33 73  1  0
 36 74  1  0
 37 75  1  0
 38 76  1  0
 39 77  1  0
 42 78  1  0
 45 79  1  0
 46 80  1  0
M  CHG  3  12  -1  18  -1  42  -1
M  END
>  <UniqueID>  (50) 
44

>  <SMILES>  (50) 
CCCc1nc(CC)c(C(=O)[N-]S(=O)(=O)CC[N-]S(=O)(=O)Cc2ccccc2)n1Cc1ccc(-c2ccccc2S([NH-])(=O)=O)cc1

>  <Energy>  (50) 
104.18759113777034

>  <Genealogy>  (50) 
CCCc1nc(CC)c(C(=O)[N-]S(=O)(=O)CC[N-]S(=O)(=O)Cc2ccccc2)n1Cc1ccc(-c2ccccc2S([NH-])(=O)=O)cc1 (protonated)
CCCc1nc(CC)c(C(=O)[N-]S(=O)(=O)CC[N-]S(=O)(=O)Cc2ccccc2)n1Cc1ccc(-c2ccccc2S([NH-])(=O)=O)cc1 (3D coordinates assigned)
CCCc1nc(CC)c(C(=O)[N-]S(=O)(=O)CC[N-]S(=O)(=O)Cc2ccccc2)n1Cc1ccc(-c2ccccc2S([NH-])(=O)=O)cc1 (optimized conformer: 104.18759113777034 kcal/mol)

>  <smiles>  (50) 
CCCc1nc(CC)c(C(=O)NS(=O)(=O)CCNS(=O)(=O)Cc2ccccc2)n1Cc1ccc(-c2ccccc2S(N)(=O)=O)cc1

>  <score_type>  (50) 
oracle

>  <origin>  (50) 
adg

>  <m_score__min__energy>  (50) 
-15.550000000000001

>  <m_primary>  (50) 
energy

$$$$
50:0
     RDKit          3D

 56 59  0  0  0  0  0  0  0  0999 V2000
   57.8360   31.9650   50.4700 C   0  0  0  0  0  0  0  0  0  0  0  0
   57.8820   32.3780   49.1090 O   0  0  0  0  0  0  0  0  0  0  0  0
   59.0170   32.9020   48.4690 C   0  0  0  0  0  0  0  0  0  0  0  0
   60.2320   33.0890   49.1560 C   0  0  0  0  0  0  0  0  0  0  0  0
   61.3640   33.5790   48.4880 C   0  0  0  0  0  0  0  0  0  0  0  0
   62.6320   33.7910   49.2160 C   0  0  0  0  0  0  0  0  0  0  0  0
   63.0140   34.9720   49.4390 O   0  0  0  0  0  0  0  0  0  0  0  0
   63.4230   32.6820   49.6960 N   0  0  0  0  0  0  0  0  0  0  0  0
   64.8890   32.8010   49.7560 C   0  0  0  0  0  0  0  0  0  0  0  0
   65.4920   32.0250   50.9530 C   0  0  0  0  0  0  0  0  0  0  0  0
   64.5290   31.3290   51.7220 O   0  0  0  0  0  0  0  0  0  0  0  0
   63.7270   30.5350   50.8750 C   0  0  0  0  0  0  0  0  0  0  0  0
   62.7590   31.4360   50.1130 C   0  0  0  0  0  0  0  0  0  0  0  0
   61.2970   33.8250   47.1100 C   0  0  0  0  0  0  0  0  0  0  0  0
   60.0950   33.6480   46.4210 C   0  0  0  0  0  0  0  0  0  0  0  0
   58.9440   33.2280   47.0970 C   0  0  0  0  0  0  0  0  0  0  0  0
   57.7220   33.0900   46.3530 N   0  0  0  0  0  0  0  0  0  0  0  0
   57.5790   32.3900   45.2640 C   0  0  0  0  0  0  0  0  0  0  0  0
   57.8720   32.9710   44.0270 C   0  0  0  0  0  0  0  0  0  0  0  0
   57.7100   32.2190   42.8620 C   0  0  0  0  0  0  0  0  0  0  0  0
   57.2560   30.9010   42.9380 C   0  0  0  0  0  0  0  0  0  0  0  0
   56.9620   30.3440   44.1950 C   0  0  0  0  0  0  0  0  0  0  0  0
   56.4960   28.9950   44.3420 N   0  0  0  0  0  0  0  0  0  0  0  0
   57.3500   27.7730   45.2300 S   0  0  0  0  0  0  0  0  0  0  0  0
   57.9600   26.7950   44.2620 O   0  0  0  0  0  0  0  0  0  0  0  0
   56.3870   27.0390   46.1220 O   0  0  0  0  0  0  0  0  0  0  0  0
   58.5890   28.5230   46.2320 C   0  0  0  0  0  0  0  0  0  0  0  0
   59.6610   29.1970   45.6260 C   0  0  0  0  0  0  0  0  0  0  0  0
   60.6560   29.7850   46.4130 C   0  0  0  0  0  0  0  0  0  0  0  0
   60.5830   29.7080   47.8080 C   0  0  0  0  0  0  0  0  0  0  0  0
   59.5150   29.0400   48.4160 C   0  0  0  0  0  0  0  0  0  0  0  0
   58.5180   28.4490   47.6310 C   0  0  0  0  0  0  0  0  0  0  0  0
   57.1200   31.1070   45.3100 N   0  0  0  0  0  0  0  0  0  0  0  0
   57.9339   32.8444   51.1235 H   0  0  0  0  0  0  0  0  0  0  0  0
   56.8766   31.4651   50.6693 H   0  0  0  0  0  0  0  0  0  0  0  0
   58.6619   31.2663   50.6693 H   0  0  0  0  0  0  0  0  0  0  0  0
   60.2940   32.8483   50.2276 H   0  0  0  0  0  0  0  0  0  0  0  0
   65.3150   32.4010   48.8241 H   0  0  0  0  0  0  0  0  0  0  0  0
   65.1357   33.8651   49.8855 H   0  0  0  0  0  0  0  0  0  0  0  0
   66.2187   31.2965   50.5642 H   0  0  0  0  0  0  0  0  0  0  0  0
   65.9577   32.7684   51.6167 H   0  0  0  0  0  0  0  0  0  0  0  0
   64.3671   29.9955   50.1614 H   0  0  0  0  0  0  0  0  0  0  0  0
   63.1609   29.8081   51.4759 H   0  0  0  0  0  0  0  0  0  0  0  0
   62.3975   30.9039   49.2207 H   0  0  0  0  0  0  0  0  0  0  0  0
   61.9176   31.6892   50.7748 H   0  0  0  0  0  0  0  0  0  0  0  0
   62.1946   34.1588   46.5688 H   0  0  0  0  0  0  0  0  0  0  0  0
   60.0528   33.8402   45.3387 H   0  0  0  0  0  0  0  0  0  0  0  0
   58.2268   34.0107   43.9720 H   0  0  0  0  0  0  0  0  0  0  0  0
   57.9403   32.6653   41.8833 H   0  0  0  0  0  0  0  0  0  0  0  0
   57.1295   30.3038   42.0229 H   0  0  0  0  0  0  0  0  0  0  0  0
   55.5330   28.7620   44.0100 H   0  0  0  0  0  0  0  0  0  0  0  0
   59.7184   29.2627   44.5295 H   0  0  0  0  0  0  0  0  0  0  0  0
   61.4969   30.3086   45.9348 H   0  0  0  0  0  0  0  0  0  0  0  0
   61.3651   30.1726   48.4264 H   0  0  0  0  0  0  0  0  0  0  0  0
   59.4585   28.9790   49.5129 H   0  0  0  0  0  0  0  0  0  0  0  0
   57.6781   27.9261   48.1117 H   0  0  0  0  0  0  0  0  0  0  0  0
  1  2  1  0
  2  3  1  0
  3  4  2  0
  4  5  1  0
  5  6  1  0
  6  7  2  0
  6  8  1  0
  8  9  1  0
  9 10  1  0
 10 11  1  0
 11 12  1  0
 12 13  1  0
  5 14  2  0
 14 15  1  0
 15 16  2  0
 16 17  1  0
 17 18  2  3
 18 19  1  0
 19 20  2  0
 20 21  1  0
 21 22  2  0
 22 23  1  0
 23 24  1  0
 24 25  2  0
 24 26  2  0
 24 27  1  0
 27 28  2  0
 28 29  1  0
 29 30  2  0
 30 31  1  0
 31 32  2  0
 22 33  1  0
 16  3  1  0
 33 18  1  0
 13  8  1  0
 32 27  1  0
  1 34  1  0
  1 35  1  0
  1 36  1  0
  4 37  1  0
  9 38  1  0
  9 39  1  0
 10 40  1  0
 10 41  1  0
 12 42  1  0
 12 43  1  0
 13 44  1  0
 13 45  1  0
 14 46  1  0
 15 47  1  0
 19 48  1  0
 20 49  1  0
 21 50  1  0
 23 51  1  0
 28 52  1  0
 29 53  1  0
 30 54  1  0
 31 55  1  0
 32 56  1  0
M  CHG  1  33  -1
M  END
>  <UniqueID>  (51) 
45

>  <SMILES>  (51) 
COc1cc(C(=O)N2CCOCC2)ccc1N=c1cccc(NS(=O)(=O)c2ccccc2)[n-]1

>  <Energy>  (51) 
80.63473186280106

>  <Genealogy>  (51) 
COc1cc(C(=O)N2CCOCC2)ccc1N=c1cccc(NS(=O)(=O)c2ccccc2)[n-]1 (protonated)
COc1cc(C(=O)N2CCOCC2)ccc1N=c1cccc(NS(=O)(=O)c2ccccc2)[n-]1 (3D coordinates assigned)
COc1cc(C(=O)N2CCOCC2)ccc1N=c1cccc(NS(=O)(=O)c2ccccc2)[n-]1 (nonaromatic ring conformer: 80.63473186280106 kcal/mol)

>  <smiles>  (51) 
COc1cc(C(=O)N2CCOCC2)ccc1N=c1cccc(NS(=O)(=O)c2ccccc2)[nH]1

>  <score_type>  (51) 
oracle

>  <origin>  (51) 
adg

>  <m_score__min__energy>  (51) 
-10.81

>  <m_primary>  (51) 
energy

$$$$
51:0
     RDKit          3D

 40 41  0  0  0  0  0  0  0  0999 V2000
   58.0930   23.6320   44.9440 C   0  0  0  0  0  0  0  0  0  0  0  0
   58.5200   24.5720   45.9240 O   0  0  0  0  0  0  0  0  0  0  0  0
   58.6220   25.9540   45.7030 C   0  0  0  0  0  0  0  0  0  0  0  0
   59.4520   26.7830   46.4810 C   0  0  0  0  0  0  0  0  0  0  0  0
   59.5210   28.1560   46.2180 C   0  0  0  0  0  0  0  0  0  0  0  0
   58.7520   28.7240   45.1920 C   0  0  0  0  0  0  0  0  0  0  0  0
   58.8620   30.1340   44.9260 N   0  0  0  0  0  0  0  0  0  0  0  0
   57.7420   30.9870   44.6480 C   0  0  0  0  0  0  0  0  0  0  0  0
   56.5620   30.5920   44.8570 O   0  0  0  0  0  0  0  0  0  0  0  0
   57.9640   32.3580   44.0860 C   0  0  0  0  0  0  0  0  0  0  0  0
   57.8020   33.3620   45.1460 N   0  0  0  0  0  0  0  0  0  0  0  0
   57.0040   34.5640   44.8800 C   0  0  0  0  0  0  0  0  0  0  0  0
   58.2000   33.0740   46.5020 C   0  0  0  0  0  0  0  0  0  0  0  0
   57.3370   33.1070   47.4220 O   0  0  0  0  0  0  0  0  0  0  0  0
   59.6050   32.7540   46.8450 C   0  0  0  0  0  0  0  0  0  0  0  0
   60.6430   33.6540   46.5300 C   0  0  0  0  0  0  0  0  0  0  0  0
   60.3710   34.8390   45.9240 F   0  0  0  0  0  0  0  0  0  0  0  0
   61.9680   33.3450   46.8570 C   0  0  0  0  0  0  0  0  0  0  0  0
   62.9640   34.2120   46.5470 F   0  0  0  0  0  0  0  0  0  0  0  0
   62.2690   32.1450   47.5100 C   0  0  0  0  0  0  0  0  0  0  0  0
   63.5560   31.8450   47.8190 F   0  0  0  0  0  0  0  0  0  0  0  0
   61.2440   31.2540   47.8430 C   0  0  0  0  0  0  0  0  0  0  0  0
   61.5390   30.0900   48.4740 F   0  0  0  0  0  0  0  0  0  0  0  0
   59.9160   31.5560   47.5170 C   0  0  0  0  0  0  0  0  0  0  0  0
   58.9400   30.6660   47.8330 F   0  0  0  0  0  0  0  0  0  0  0  0
   57.9390   27.8910   44.4040 C   0  0  0  0  0  0  0  0  0  0  0  0
   57.8720   26.5190   44.6650 C   0  0  0  0  0  0  0  0  0  0  0  0
   57.6877   22.7398   45.4438 H   0  0  0  0  0  0  0  0  0  0  0  0
   57.3129   24.0864   44.3155 H   0  0  0  0  0  0  0  0  0  0  0  0
   58.9484   23.3434   44.3155 H   0  0  0  0  0  0  0  0  0  0  0  0
   60.0481   26.3505   47.2981 H   0  0  0  0  0  0  0  0  0  0  0  0
   60.1836   28.7945   46.8208 H   0  0  0  0  0  0  0  0  0  0  0  0
   59.8060   30.5750   45.0120 H   0  0  0  0  0  0  0  0  0  0  0  0
   58.9816   32.4233   43.6735 H   0  0  0  0  0  0  0  0  0  0  0  0
   57.2288   32.5479   43.2901 H   0  0  0  0  0  0  0  0  0  0  0  0
   56.7006   35.0211   45.8334 H   0  0  0  0  0  0  0  0  0  0  0  0
   57.6048   35.2828   44.3036 H   0  0  0  0  0  0  0  0  0  0  0  0
   56.1083   34.2893   44.3036 H   0  0  0  0  0  0  0  0  0  0  0  0
   57.3528   28.3205   43.5782 H   0  0  0  0  0  0  0  0  0  0  0  0
   57.2241   25.8779   44.0491 H   0  0  0  0  0  0  0  0  0  0  0  0
  1  2  1  0
  2  3  1  0
  3  4  2  0
  4  5  1  0
  5  6  2  0
  6  7  1  0
  7  8  1  0
  8  9  2  0
  8 10  1  0
 10 11  1  0
 11 12  1  0
 11 13  1  0
 13 14  2  0
 13 15  1  0
 15 16  2  0
 16 17  1  0
 16 18  1  0
 18 19  1  0
 18 20  2  0
 20 21  1  0
 20 22  1  0
 22 23  1  0
 22 24  2  0
 24 25  1  0
  6 26  1  0
 26 27  2  0
 27  3  1  0
 24 15  1  0
  1 28  1  0
  1 29  1  0
  1 30  1  0
  4 31  1  0
  5 32  1  0
  7 33  1  0
 10 34  1  0
 10 35  1  0
 12 36  1  0
 12 37  1  0
 12 38  1  0
 26 39  1  0
 27 40  1  0
M  END
>  <UniqueID>  (52) 
46

>  <SMILES>  (52) 
COc1ccc(NC(=O)CN(C)C(=O)c2c(F)c(F)c(F)c(F)c2F)cc1

>  <Energy>  (52) 
47.15239039048648

>  <Genealogy>  (52) 
COc1ccc(NC(=O)CN(C)C(=O)c2c(F)c(F)c(F)c(F)c2F)cc1 (3D coordinates assigned)
COc1ccc(NC(=O)CN(C)C(=O)c2c(F)c(F)c(F)c(F)c2F)cc1 (optimized conformer: 47.15239039048648 kcal/mol)

>  <smiles>  (52) 
COc1ccc(NC(=O)CN(C)C(=O)c2c(F)c(F)c(F)c(F)c2F)cc1

>  <score_type>  (52) 
oracle

>  <origin>  (52) 
adg

>  <m_score__min__energy>  (52) 
-6.6600000000000001

>  <m_primary>  (52) 
energy

$$$$
52:0
     RDKit          3D

 53 52  0  0  0  0  0  0  0  0999 V2000
   57.0250   33.3150   45.6030 C   0  0  0  0  0  0  0  0  0  0  0  0
   58.2940   33.5810   44.7990 C   0  0  0  0  0  0  0  0  0  0  0  0
   58.8850   34.9580   45.1360 C   0  0  0  0  0  0  0  0  0  0  0  0
   59.9930   34.8680   46.2020 C   0  0  0  0  0  0  0  0  0  0  0  0
   59.4520   34.5420   47.6130 C   0  0  0  0  0  0  0  0  0  0  0  0
   60.5620   34.3190   48.6590 C   0  0  0  0  0  0  0  0  0  0  0  0
   61.1050   32.8820   48.7000 C   0  0  0  0  0  0  0  0  0  0  0  0
   60.4790   32.0450   47.6690 C   0  0  0  0  0  0  0  0  0  0  0  0
   59.9540   31.3690   46.8200 C   0  0  0  0  0  0  0  0  0  0  0  0
   59.3230   30.5680   45.7630 C   0  0  0  0  0  0  0  0  0  0  0  0
   58.9940   29.1420   46.2270 C   0  0  0  0  0  0  0  0  0  0  0  0
   57.4970   28.7840   46.1750 C   0  0  0  0  0  0  0  0  0  0  0  0
   56.8250   29.1340   44.8690 C   0  0  0  0  0  0  0  0  0  0  0  0
   55.7580   29.7300   44.8940 O   0  0  0  0  0  0  0  0  0  0  0  0
   57.3690   28.6200   43.5590 C   0  0  0  0  0  0  0  0  0  0  0  0
   58.3090   27.4070   43.7010 C   0  0  0  0  0  0  0  0  0  0  0  0
   57.7720   26.1210   43.0390 C   0  0  0  0  0  0  0  0  0  0  0  0
   57.0480   25.2030   44.0400 C   0  0  0  0  0  0  0  0  0  0  0  0
   57.2410   25.6620   45.4930 C   0  0  0  0  0  0  0  0  0  0  0  0
   55.9370   25.7480   46.2250 C   0  0  0  0  0  0  0  0  0  0  0  0
   55.1460   26.7030   46.0070 O   0  0  0  0  0  0  0  0  0  0  0  0
   55.5740   24.7440   47.1140 O   0  0  0  0  0  0  0  0  0  0  0  0
   57.2549   33.3632   46.6776 H   0  0  0  0  0  0  0  0  0  0  0  0
   56.2683   34.0740   45.3555 H   0  0  0  0  0  0  0  0  0  0  0  0
   56.6368   32.3160   45.3555 H   0  0  0  0  0  0  0  0  0  0  0  0
   59.0369   32.8043   45.0333 H   0  0  0  0  0  0  0  0  0  0  0  0
   58.0393   33.5630   43.7290 H   0  0  0  0  0  0  0  0  0  0  0  0
   59.3087   35.3959   44.2202 H   0  0  0  0  0  0  0  0  0  0  0  0
   58.0760   35.5840   45.5405 H   0  0  0  0  0  0  0  0  0  0  0  0
   60.6995   34.0782   45.9068 H   0  0  0  0  0  0  0  0  0  0  0  0
   60.4770   35.8543   46.2561 H   0  0  0  0  0  0  0  0  0  0  0  0
   58.8219   35.3796   47.9467 H   0  0  0  0  0  0  0  0  0  0  0  0
   58.8870   33.6015   47.5343 H   0  0  0  0  0  0  0  0  0  0  0  0
   61.3964   34.9973   48.4273 H   0  0  0  0  0  0  0  0  0  0  0  0
   60.1145   34.5175   49.6441 H   0  0  0  0  0  0  0  0  0  0  0  0
   62.1918   32.9048   48.5317 H   0  0  0  0  0  0  0  0  0  0  0  0
   60.8724   32.4512   49.6850 H   0  0  0  0  0  0  0  0  0  0  0  0
   58.3905   31.0629   45.4538 H   0  0  0  0  0  0  0  0  0  0  0  0
   60.0355   30.4932   44.9283 H   0  0  0  0  0  0  0  0  0  0  0  0
   59.5388   28.4365   45.5824 H   0  0  0  0  0  0  0  0  0  0  0  0
   59.2947   29.0790   47.2832 H   0  0  0  0  0  0  0  0  0  0  0  0
   57.3950   27.7007   46.3367 H   0  0  0  0  0  0  0  0  0  0  0  0
   57.0011   29.3785   46.9565 H   0  0  0  0  0  0  0  0  0  0  0  0
   56.5202   28.3269   42.9236 H   0  0  0  0  0  0  0  0  0  0  0  0
   57.9655   29.4342   43.1217 H   0  0  0  0  0  0  0  0  0  0  0  0
   59.2734   27.6595   43.2360 H   0  0  0  0  0  0  0  0  0  0  0  0
   58.4016   27.1983   44.7770 H   0  0  0  0  0  0  0  0  0  0  0  0
   57.0664   26.4017   42.2432 H   0  0  0  0  0  0  0  0  0  0  0  0
   58.6329   25.5662   42.6378 H   0  0  0  0  0  0  0  0  0  0  0  0
   55.9727   25.2042   43.8080 H   0  0  0  0  0  0  0  0  0  0  0  0
   57.4771   24.1946   43.9447 H   0  0  0  0  0  0  0  0  0  0  0  0
   57.8934   24.9430   46.0102 H   0  0  0  0  0  0  0  0  0  0  0  0
   57.6927   26.6649   45.4785 H   0  0  0  0  0  0  0  0  0  0  0  0
  1  2  1  0
  2  3  1  0
  3  4  1  0
  4  5  1  0
  5  6  1  0
  6  7  1  0
  7  8  1  0
  8  9  3  0
  9 10  1  0
 10 11  1  0
 11 12  1  0
 12 13  1  0
 13 14  2  0
 13 15  1  0
 15 16  1  0
 16 17  1  0
 17 18  1  0
 18 19  1  0
 19 20  1  0
 20 21  2  0
 20 22  1  0
  1 23  1  0
  1 24  1  0
  1 25  1  0
  2 26  1  0
  2 27  1  0
  3 28  1  0
  3 29  1  0
  4 30  1  0
  4 31  1  0
  5 32  1  0
  5 33  1  0
  6 34  1  0
  6 35  1  0
  7 36  1  0
  7 37  1  0
 10 38  1  0
 10 39  1  0
 11 40  1  0
 11 41  1  0
 12 42  1  0
 12 43  1  0
 15 44  1  0
 15 45  1  0
 16 46  1  0
 16 47  1  0
 17 48  1  0
 17 49  1  0
 18 50  1  0
 18 51  1  0
 19 52  1  0
 19 53  1  0
M  CHG  1  22  -1
M  END
>  <UniqueID>  (53) 
47

>  <SMILES>  (53) 
CCCCCCCC#CCCCC(=O)CCCCCC(=O)[O-]

>  <Energy>  (53) 
21.684054420598304

>  <Genealogy>  (53) 
CCCCCCCC#CCCCC(=O)CCCCCC(=O)[O-] (protonated)
CCCCCCCC#CCCCC(=O)CCCCCC(=O)[O-] (3D coordinates assigned)
CCCCCCCC#CCCCC(=O)CCCCCC(=O)[O-] (optimized conformer: 21.684054420598304 kcal/mol)

>  <smiles>  (53) 
CCCCCCCC#CCCCC(=O)CCCCCC(=O)O

>  <score_type>  (53) 
oracle

>  <origin>  (53) 
adg

>  <m_score__min__energy>  (53) 
-10.19

>  <m_primary>  (53) 
energy

$$$$
53:0
     RDKit          3D

 44 46  0  0  0  0  0  0  0  0999 V2000
   60.9050   28.8320   48.1170 O   0  0  0  0  0  0  0  0  0  0  0  0
   59.6920   28.5120   48.2490 C   0  0  0  0  0  0  0  0  0  0  0  0
   59.1950   27.2420   47.6290 C   0  0  0  0  0  0  0  0  0  0  0  0
   59.5370   27.2180   45.8340 S   0  0  0  0  0  0  0  0  0  0  0  0
   58.5130   28.6400   45.4520 C   0  0  0  0  0  0  0  0  0  0  0  0
   59.0780   29.9100   45.3390 C   0  0  0  0  0  0  0  0  0  0  0  0
   58.2380   30.9840   45.0370 C   0  0  0  0  0  0  0  0  0  0  0  0
   56.9070   30.7770   44.8620 N   0  0  0  0  0  0  0  0  0  0  0  0
   56.3730   29.5340   44.9830 C   0  0  0  0  0  0  0  0  0  0  0  0
   55.1370   29.3610   44.8240 O   0  0  0  0  0  0  0  0  0  0  0  0
   57.1740   28.4770   45.2810 N   0  0  0  0  0  0  0  0  0  0  0  0
   58.7890   29.3620   48.9730 N   0  0  0  0  0  0  0  0  0  0  0  0
   59.0540   30.7460   49.2610 C   0  0  0  0  0  0  0  0  0  0  0  0
   59.6860   31.5660   48.3090 C   0  0  0  0  0  0  0  0  0  0  0  0
   59.9080   32.9240   48.5710 C   0  0  0  0  0  0  0  0  0  0  0  0
   60.7040   33.9470   47.3770 S   0  0  0  0  0  0  0  0  0  0  0  0
   59.9900   35.2700   47.3310 O   0  0  0  0  0  0  0  0  0  0  0  0
   60.6080   33.3060   46.0180 O   0  0  0  0  0  0  0  0  0  0  0  0
   62.3780   34.1760   47.8410 N   0  0  0  0  0  0  0  0  0  0  0  0
   62.6190   33.8030   49.2530 C   0  0  0  0  0  0  0  0  0  0  0  0
   63.2080   32.3890   49.4050 C   0  0  0  0  0  0  0  0  0  0  0  0
   62.7440   31.5490   48.3710 O   0  0  0  0  0  0  0  0  0  0  0  0
   63.2930   31.9520   47.1270 C   0  0  0  0  0  0  0  0  0  0  0  0
   63.2970   33.4860   46.9190 C   0  0  0  0  0  0  0  0  0  0  0  0
   59.4990   33.4690   49.7920 C   0  0  0  0  0  0  0  0  0  0  0  0
   58.8570   32.6680   50.7380 C   0  0  0  0  0  0  0  0  0  0  0  0
   58.6260   31.3130   50.4770 C   0  0  0  0  0  0  0  0  0  0  0  0
   57.8280   30.3430   51.7080 Cl  0  0  0  0  0  0  0  0  0  0  0  0
   59.6997   26.3876   48.1036 H   0  0  0  0  0  0  0  0  0  0  0  0
   58.1075   27.1777   47.7813 H   0  0  0  0  0  0  0  0  0  0  0  0
   60.1578   30.0619   45.4841 H   0  0  0  0  0  0  0  0  0  0  0  0
   58.6543   31.9976   44.9408 H   0  0  0  0  0  0  0  0  0  0  0  0
   57.8830   28.9530   49.2930 H   0  0  0  0  0  0  0  0  0  0  0  0
   60.0092   31.1366   47.3492 H   0  0  0  0  0  0  0  0  0  0  0  0
   63.3225   34.5257   49.6921 H   0  0  0  0  0  0  0  0  0  0  0  0
   61.6474   33.8139   49.7686 H   0  0  0  0  0  0  0  0  0  0  0  0
   64.3056   32.4468   49.3599 H   0  0  0  0  0  0  0  0  0  0  0  0
   62.8907   31.9725   50.3724 H   0  0  0  0  0  0  0  0  0  0  0  0
   64.3305   31.5909   47.0715 H   0  0  0  0  0  0  0  0  0  0  0  0
   62.6573   31.5214   46.3393 H   0  0  0  0  0  0  0  0  0  0  0  0
   64.3165   33.8634   47.0869 H   0  0  0  0  0  0  0  0  0  0  0  0
   62.9589   33.6880   45.8919 H   0  0  0  0  0  0  0  0  0  0  0  0
   59.6836   34.5317   50.0077 H   0  0  0  0  0  0  0  0  0  0  0  0
   58.5310   33.1044   51.6936 H   0  0  0  0  0  0  0  0  0  0  0  0
  1  2  2  0
  2  3  1  0
  3  4  1  0
  4  5  1  0
  5  6  1  0
  6  7  2  0
  7  8  1  0
  8  9  1  0
  9 10  2  0
  9 11  1  0
  2 12  1  0
 12 13  1  0
 13 14  2  0
 14 15  1  0
 15 16  1  0
 16 17  2  0
 16 18  2  0
 16 19  1  0
 19 20  1  0
 20 21  1  0
 21 22  1  0
 22 23  1  0
 23 24  1  0
 15 25  2  0
 25 26  1  0
 26 27  2  0
 27 28  1  0
 11  5  2  0
 27 13  1  0
 24 19  1  0
  3 29  1  0
  3 30  1  0
  6 31  1  0
  7 32  1  0
 12 33  1  0
 14 34  1  0
 20 35  1  0
 20 36  1  0
 21 37  1  0
 21 38  1  0
 23 39  1  0
 23 40  1  0
 24 41  1  0
 24 42  1  0
 25 43  1  0
 26 44  1  0
M  CHG  1   8  -1
M  END
>  <UniqueID>  (54) 
48

>  <SMILES>  (54) 
O=C(CSc1cc[n-]c(=O)n1)Nc1cc(S(=O)(=O)N2CCOCC2)ccc1Cl

>  <Energy>  (54) 
54.6515073641296

>  <Genealogy>  (54) 
O=C(CSc1cc[n-]c(=O)n1)Nc1cc(S(=O)(=O)N2CCOCC2)ccc1Cl (protonated)
O=C(CSc1cc[n-]c(=O)n1)Nc1cc(S(=O)(=O)N2CCOCC2)ccc1Cl (3D coordinates assigned)
O=C(CSc1cc[n-]c(=O)n1)Nc1cc(S(=O)(=O)N2CCOCC2)ccc1Cl (nonaromatic ring conformer: 54.6515073641296 kcal/mol)

>  <smiles>  (54) 
O=C(CSc1cc[nH]c(=O)n1)Nc1cc(S(=O)(=O)N2CCOCC2)ccc1Cl

>  <score_type>  (54) 
oracle

>  <origin>  (54) 
adg

>  <m_score__min__energy>  (54) 
-11.1

>  <m_primary>  (54) 
energy

$$$$
54:0
     RDKit          3D

 54 56  0  0  0  0  0  0  0  0999 V2000
   57.8630   31.6830   43.1030 C   0  0  0  0  0  0  0  0  0  0  0  0
   57.0820   31.4060   44.6780 S   0  0  0  0  0  0  0  0  0  0  0  0
   56.6420   32.7330   45.2280 O   0  0  0  0  0  0  0  0  0  0  0  0
   55.8740   30.5250   44.5170 O   0  0  0  0  0  0  0  0  0  0  0  0
   58.2010   30.6830   45.7920 N   0  0  0  0  0  0  0  0  0  0  0  0
   58.5950   29.2950   45.7700 C   0  0  0  0  0  0  0  0  0  0  0  0
   58.0050   28.3850   44.8730 C   0  0  0  0  0  0  0  0  0  0  0  0
   58.3910   27.0330   44.8540 C   0  0  0  0  0  0  0  0  0  0  0  0
   57.7790   26.0800   43.8920 C   0  0  0  0  0  0  0  0  0  0  0  0
   57.8370   26.3160   42.6550 O   0  0  0  0  0  0  0  0  0  0  0  0
   57.1260   24.8330   44.3460 C   0  0  0  0  0  0  0  0  0  0  0  0
   57.5190   23.6290   43.7360 C   0  0  0  0  0  0  0  0  0  0  0  0
   57.0140   22.4080   44.1850 C   0  0  0  0  0  0  0  0  0  0  0  0
   56.1110   22.3740   45.2440 C   0  0  0  0  0  0  0  0  0  0  0  0
   55.6910   23.5600   45.8480 C   0  0  0  0  0  0  0  0  0  0  0  0
   56.1720   24.8050   45.4010 C   0  0  0  0  0  0  0  0  0  0  0  0
   55.6270   26.0370   46.0270 C   0  0  0  0  0  0  0  0  0  0  0  0
   54.4050   26.3270   45.9320 O   0  0  0  0  0  0  0  0  0  0  0  0
   56.4560   26.8690   46.7700 O   0  0  0  0  0  0  0  0  0  0  0  0
   59.3570   26.5890   45.7670 C   0  0  0  0  0  0  0  0  0  0  0  0
   59.9430   27.4780   46.6680 C   0  0  0  0  0  0  0  0  0  0  0  0
   59.5710   28.8350   46.6780 C   0  0  0  0  0  0  0  0  0  0  0  0
   60.1530   29.7500   47.5700 O   0  0  0  0  0  0  0  0  0  0  0  0
   61.3190   30.5230   47.2970 C   0  0  0  0  0  0  0  0  0  0  0  0
   60.9040   31.8860   46.7480 C   0  0  0  0  0  0  0  0  0  0  0  0
   60.7880   32.8660   47.8520 N   0  0  0  0  0  0  0  0  0  0  0  0
   60.1680   34.1300   47.4110 C   0  0  0  0  0  0  0  0  0  0  0  0
   58.6600   33.9540   47.1100 C   0  0  0  0  0  0  0  0  0  0  0  0
   58.1170   32.7650   47.6590 O   0  0  0  0  0  0  0  0  0  0  0  0
   58.5580   32.6010   48.9900 C   0  0  0  0  0  0  0  0  0  0  0  0
   60.0740   32.3110   49.0290 C   0  0  0  0  0  0  0  0  0  0  0  0
   58.8889   32.0469   43.2614 H   0  0  0  0  0  0  0  0  0  0  0  0
   57.8916   30.7402   42.5371 H   0  0  0  0  0  0  0  0  0  0  0  0
   57.2912   32.4332   42.5371 H   0  0  0  0  0  0  0  0  0  0  0  0
   58.6560   31.3350   46.4700 H   0  0  0  0  0  0  0  0  0  0  0  0
   57.2300   28.7368   44.1761 H   0  0  0  0  0  0  0  0  0  0  0  0
   58.2307   23.6495   42.8975 H   0  0  0  0  0  0  0  0  0  0  0  0
   57.3297   21.4716   43.7017 H   0  0  0  0  0  0  0  0  0  0  0  0
   55.7271   21.4088   45.6060 H   0  0  0  0  0  0  0  0  0  0  0  0
   54.9759   23.5214   46.6829 H   0  0  0  0  0  0  0  0  0  0  0  0
   59.6557   25.5303   45.7731 H   0  0  0  0  0  0  0  0  0  0  0  0
   60.7022   27.1153   47.3766 H   0  0  0  0  0  0  0  0  0  0  0  0
   61.8943   30.6602   48.2245 H   0  0  0  0  0  0  0  0  0  0  0  0
   61.9416   30.0012   46.5554 H   0  0  0  0  0  0  0  0  0  0  0  0
   61.6609   32.2348   46.0301 H   0  0  0  0  0  0  0  0  0  0  0  0
   59.9291   31.7907   46.2476 H   0  0  0  0  0  0  0  0  0  0  0  0
   60.2876   34.8817   48.2051 H   0  0  0  0  0  0  0  0  0  0  0  0
   60.6670   34.4517   46.4850 H   0  0  0  0  0  0  0  0  0  0  0  0
   58.1168   34.8132   47.5303 H   0  0  0  0  0  0  0  0  0  0  0  0
   58.5495   33.8903   46.0174 H   0  0  0  0  0  0  0  0  0  0  0  0
   58.3515   33.5218   49.5552 H   0  0  0  0  0  0  0  0  0  0  0  0
   58.0229   31.7509   49.4384 H   0  0  0  0  0  0  0  0  0  0  0  0
   60.4957   32.7586   49.9410 H   0  0  0  0  0  0  0  0  0  0  0  0
   60.2064   31.2191   49.0167 H   0  0  0  0  0  0  0  0  0  0  0  0
  1  2  1  0
  2  3  2  0
  2  4  2  0
  2  5  1  0
  5  6  1  0
  6  7  2  0
  7  8  1  0
  8  9  1  0
  9 10  2  0
  9 11  1  0
 11 12  2  0
 12 13  1  0
 13 14  2  0
 14 15  1  0
 15 16  2  0
 16 17  1  0
 17 18  2  0
 17 19  1  0
  8 20  2  0
 20 21  1  0
 21 22  2  0
 22 23  1  0
 23 24  1  0
 24 25  1  0
 25 26  1  0
 26 27  1  0
 27 28  1  0
 28 29  1  0
 29 30  1  0
 30 31  1  0
 22  6  1  0
 31 26  1  0
 16 11  1  0
  1 32  1  0
  1 33  1  0
  1 34  1  0
  5 35  1  0
  7 36  1  0
 12 37  1  0
 13 38  1  0
 14 39  1  0
 15 40  1  0
 20 41  1  0
 21 42  1  0
 24 43  1  0
 24 44  1  0
 25 45  1  0
 25 46  1  0
 27 47  1  0
 27 48  1  0
 28 49  1  0
 28 50  1  0
 30 51  1  0
 30 52  1  0
 31 53  1  0
 31 54  1  0
M  CHG  1  19  -1
M  END
>  <UniqueID>  (55) 
49

>  <SMILES>  (55) 
CS(=O)(=O)Nc1cc(C(=O)c2ccccc2C(=O)[O-])ccc1OCCN1CCOCC1

>  <Energy>  (55) 
75.21502165173048

>  <Genealogy>  (55) 
CS(=O)(=O)Nc1cc(C(=O)c2ccccc2C(=O)[O-])ccc1OCCN1CCOCC1 (protonated)
CS(=O)(=O)Nc1cc(C(=O)c2ccccc2C(=O)[O-])ccc1OCCN1CCOCC1 (3D coordinates assigned)
CS(=O)(=O)Nc1cc(C(=O)c2ccccc2C(=O)[O-])ccc1OCCN1CCOCC1 (nonaromatic ring conformer: 75.21502165173048 kcal/mol)

>  <smiles>  (55) 
CS(=O)(=O)Nc1cc(C(=O)c2ccccc2C(=O)O)ccc1OCCN1CCOCC1

>  <score_type>  (55) 
oracle

>  <origin>  (55) 
adg

>  <m_score__min__energy>  (55) 
-12.17

>  <m_primary>  (55) 
energy

$$$$
55:0
     RDKit          3D

 45 47  0  0  0  0  0  0  0  0999 V2000
   57.6770   31.9150   42.1960 C   0  0  0  0  0  0  0  0  0  0  0  0
   57.9900   32.4820   43.5070 N   0  0  0  0  0  0  0  0  0  0  0  0
   57.3390   31.4650   44.7550 S   0  0  0  0  0  0  0  0  0  0  0  0
   55.8880   31.1990   44.4700 O   0  0  0  0  0  0  0  0  0  0  0  0
   57.4420   32.1640   46.0830 O   0  0  0  0  0  0  0  0  0  0  0  0
   58.2010   29.9270   44.8110 C   0  0  0  0  0  0  0  0  0  0  0  0
   59.6020   29.8950   44.8230 C   0  0  0  0  0  0  0  0  0  0  0  0
   60.2750   28.6710   44.8680 C   0  0  0  0  0  0  0  0  0  0  0  0
   59.5540   27.4730   44.8920 C   0  0  0  0  0  0  0  0  0  0  0  0
   58.1510   27.4920   44.8570 C   0  0  0  0  0  0  0  0  0  0  0  0
   57.3720   26.2090   44.9140 C   0  0  0  0  0  0  0  0  0  0  0  0
   56.8970   25.9950   46.2750 N   0  0  0  0  0  0  0  0  0  0  0  0
   57.7360   25.9210   47.4360 C   0  0  0  0  0  0  0  0  0  0  0  0
   57.7390   24.8590   48.1110 O   0  0  0  0  0  0  0  0  0  0  0  0
   58.6270   27.0210   47.8420 C   0  0  0  0  0  0  0  0  0  0  0  0
   59.9700   26.7970   48.1720 C   0  0  0  0  0  0  0  0  0  0  0  0
   60.7610   27.8480   48.5090 N   0  0  0  0  0  0  0  0  0  0  0  0
   60.2940   29.1250   48.5190 C   0  0  0  0  0  0  0  0  0  0  0  0
   61.1080   30.0820   48.8710 N   0  0  0  0  0  0  0  0  0  0  0  0
   61.4880   31.2370   48.1050 C   0  0  0  0  0  0  0  0  0  0  0  0
   62.8390   31.5780   47.9170 C   0  0  0  0  0  0  0  0  0  0  0  0
   63.1820   32.7430   47.2220 C   0  0  0  0  0  0  0  0  0  0  0  0
   62.1810   33.5880   46.7360 C   0  0  0  0  0  0  0  0  0  0  0  0
   60.8340   33.2750   46.9530 C   0  0  0  0  0  0  0  0  0  0  0  0
   59.5780   34.3510   46.3680 Cl  0  0  0  0  0  0  0  0  0  0  0  0
   60.4910   32.1080   47.6470 C   0  0  0  0  0  0  0  0  0  0  0  0
   58.9450   29.3500   48.1810 C   0  0  0  0  0  0  0  0  0  0  0  0
   58.1560   28.2960   47.8440 N   0  0  0  0  0  0  0  0  0  0  0  0
   57.4800   28.7250   44.8270 C   0  0  0  0  0  0  0  0  0  0  0  0
   57.1491   30.9588   42.3266 H   0  0  0  0  0  0  0  0  0  0  0  0
   57.0369   32.6139   41.6376 H   0  0  0  0  0  0  0  0  0  0  0  0
   58.6095   31.7458   41.6376 H   0  0  0  0  0  0  0  0  0  0  0  0
   57.5050   33.4070   43.5790 H   0  0  0  0  0  0  0  0  0  0  0  0
   60.1729   30.8349   44.7970 H   0  0  0  0  0  0  0  0  0  0  0  0
   61.3747   28.6499   44.8846 H   0  0  0  0  0  0  0  0  0  0  0  0
   60.0882   26.5126   44.9385 H   0  0  0  0  0  0  0  0  0  0  0  0
   56.5126   26.2700   44.2301 H   0  0  0  0  0  0  0  0  0  0  0  0
   58.0183   25.3714   44.6129 H   0  0  0  0  0  0  0  0  0  0  0  0
   60.3809   25.7767   48.1582 H   0  0  0  0  0  0  0  0  0  0  0  0
   63.6294   30.9264   48.3178 H   0  0  0  0  0  0  0  0  0  0  0  0
   64.2404   32.9938   47.0581 H   0  0  0  0  0  0  0  0  0  0  0  0
   62.4515   34.4994   46.1827 H   0  0  0  0  0  0  0  0  0  0  0  0
   59.4325   31.8739   47.8336 H   0  0  0  0  0  0  0  0  0  0  0  0
   58.5338   30.3702   48.1898 H   0  0  0  0  0  0  0  0  0  0  0  0
   56.3803   28.7479   44.8160 H   0  0  0  0  0  0  0  0  0  0  0  0
  1  2  1  0
  2  3  1  0
  3  4  2  0
  3  5  2  0
  3  6  1  0
  6  7  2  0
  7  8  1  0
  8  9  2  0
  9 10  1  0
 10 11  1  0
 11 12  1  0
 12 13  1  0
 13 14  2  0
 13 15  1  0
 15 16  2  0
 16 17  1  0
 17 18  1  0
 18 19  2  3
 19 20  1  0
 20 21  2  0
 21 22  1  0
 22 23  2  0
 23 24  1  0
 24 25  1  0
 24 26  2  0
 18 27  1  0
 27 28  2  0
 10 29  2  0
 29  6  1  0
 28 15  1  0
 26 20  1  0
  1 30  1  0
  1 31  1  0
  1 32  1  0
  2 33  1  0
  7 34  1  0
  8 35  1  0
  9 36  1  0
 11 37  1  0
 11 38  1  0
 16 39  1  0
 21 40  1  0
 22 41  1  0
 23 42  1  0
 26 43  1  0
 27 44  1  0
 29 45  1  0
M  CHG  2  12  -1  17  -1
M  END
>  <UniqueID>  (56) 
50

>  <SMILES>  (56) 
CNS(=O)(=O)c1cccc(C[N-]C(=O)c2c[n-]c(=Nc3cccc(Cl)c3)cn2)c1

>  <Energy>  (56) 
59.02160439047189

>  <Genealogy>  (56) 
CNS(=O)(=O)c1cccc(C[N-]C(=O)c2c[n-]c(=Nc3cccc(Cl)c3)cn2)c1 (protonated)
CNS(=O)(=O)c1cccc(C[N-]C(=O)c2c[n-]c(=Nc3cccc(Cl)c3)cn2)c1 (3D coordinates assigned)
CNS(=O)(=O)c1cccc(C[N-]C(=O)c2c[n-]c(=Nc3cccc(Cl)c3)cn2)c1 (optimized conformer: 59.02160439047189 kcal/mol)

>  <smiles>  (56) 
CNS(=O)(=O)c1cccc(CNC(=O)c2c[nH]c(=Nc3cccc(Cl)c3)cn2)c1

>  <score_type>  (56) 
oracle

>  <origin>  (56) 
adg

>  <m_score__min__energy>  (56) 
-11.470000000000001

>  <m_primary>  (56) 
energy

$$$$
56:0
     RDKit          3D

 33 34  0  0  0  0  0  0  0  0999 V2000
   55.1470   28.1320   44.8870 H   0  0  0  0  0  0  0  0  0  0  0  0
   55.2220   29.1400   44.8690 O   0  0  0  0  0  0  0  0  0  0  0  0
   55.4700   29.7910   43.6820 N   0  0  0  0  0  0  0  0  0  0  0  0
   56.4800   30.5890   43.5270 C   0  0  0  0  0  0  0  0  0  0  0  0
   56.4851   31.2741   42.6664 H   0  0  0  0  0  0  0  0  0  0  0  0
   57.6230   30.6140   44.4600 C   0  0  0  0  0  0  0  0  0  0  0  0
   58.4670   29.5770   44.8240 C   0  0  0  0  0  0  0  0  0  0  0  0
   58.4590   28.1520   44.3500 C   0  0  0  0  0  0  0  0  0  0  0  0
   59.2490   27.5936   44.8735 H   0  0  0  0  0  0  0  0  0  0  0  0
   58.6367   28.1410   43.2645 H   0  0  0  0  0  0  0  0  0  0  0  0
   57.2220   27.5480   44.6080 O   0  0  0  0  0  0  0  0  0  0  0  0
   56.5740   27.9430   43.9670 H   0  0  0  0  0  0  0  0  0  0  0  0
   59.3200   30.0460   45.7570 N   0  0  0  0  0  0  0  0  0  0  0  0
   59.0070   31.3170   45.9680 N   0  0  0  0  0  0  0  0  0  0  0  0
   57.9880   31.6780   45.2030 N   0  0  0  0  0  0  0  0  0  0  0  0
   57.4050   33.0210   45.2050 C   0  0  0  0  0  0  0  0  0  0  0  0
   56.6054   33.0642   44.4508 H   0  0  0  0  0  0  0  0  0  0  0  0
   57.0076   33.2221   46.2108 H   0  0  0  0  0  0  0  0  0  0  0  0
   58.4360   34.0740   44.8860 C   0  0  0  0  0  0  0  0  0  0  0  0
   58.7086   34.2169   43.8299 H   0  0  0  0  0  0  0  0  0  0  0  0
   59.0450   34.8490   45.7950 C   0  0  0  0  0  0  0  0  0  0  0  0
   58.7737   35.9145   45.8280 H   0  0  0  0  0  0  0  0  0  0  0  0
   60.0550   34.3640   46.7530 C   0  0  0  0  0  0  0  0  0  0  0  0
   59.7900   34.4370   48.1280 C   0  0  0  0  0  0  0  0  0  0  0  0
   58.8312   34.8451   48.4803 H   0  0  0  0  0  0  0  0  0  0  0  0
   60.7400   33.9930   49.0530 C   0  0  0  0  0  0  0  0  0  0  0  0
   60.5341   34.0664   50.1311 H   0  0  0  0  0  0  0  0  0  0  0  0
   61.9510   33.4560   48.6080 C   0  0  0  0  0  0  0  0  0  0  0  0
   62.6998   33.1116   49.3365 H   0  0  0  0  0  0  0  0  0  0  0  0
   62.2120   33.3560   47.2390 C   0  0  0  0  0  0  0  0  0  0  0  0
   63.1625   32.9256   46.8906 H   0  0  0  0  0  0  0  0  0  0  0  0
   61.2650   33.8030   46.3110 C   0  0  0  0  0  0  0  0  0  0  0  0
   61.4682   33.7151   45.2335 H   0  0  0  0  0  0  0  0  0  0  0  0
  1  2  1  0
  2  3  1  0
  3  4  2  0
  4  5  1  0
  4  6  1  0
  6  7  2  0
  7  8  1  0
  8  9  1  0
  8 10  1  0
  8 11  1  0
 11 12  1  0
  7 13  1  0
 13 14  2  0
 14 15  1  0
 15 16  1  0
 16 17  1  0
 16 18  1  0
 16 19  1  0
 19 20  1  0
 19 21  2  0
 21 22  1  0
 21 23  1  0
 23 24  2  0
 24 25  1  0
 24 26  1  0
 26 27  1  0
 26 28  2  0
 28 29  1  0
 28 30  1  0
 30 31  1  0
 30 32  2  0
 32 33  1  0
 15  6  1  0
 32 23  1  0
M  END
>  <UniqueID>  (57) 
51

>  <SMILES>  (57) 
OCc1nnn(C/C=C\c2ccccc2)c1/C=N\O

>  <Energy>  (57) 
75.79867198203448

>  <Genealogy>  (57) 
OCc1nnn(C/C=C\c2ccccc2)c1/C=N\O (cis-trans isomerization)
OCc1nnn(C/C=C\c2ccccc2)c1/C=N\O (3D coordinates assigned)
OCc1nnn(C/C=C\c2ccccc2)c1/C=N\O (optimized conformer: 75.79867198203448 kcal/mol)

>  <smiles>  (57) 
OCc1nnn(CC=Cc2ccccc2)c1C=NO

>  <score_type>  (57) 
oracle

>  <origin>  (57) 
adg

>  <m_score__min__energy>  (57) 
-8.2799999999999994

>  <m_primary>  (57) 
energy

$$$$
57:0
     RDKit          3D

 57 60  0  0  0  0  0  0  0  0999 V2000
   58.3246   31.1757   49.9368 H   0  0  0  0  0  0  0  0  0  0  0  0
   58.9030   30.6080   49.1930 C   0  0  0  0  0  0  0  0  0  0  0  0
   58.5180   29.3470   48.8510 N   0  0  0  0  0  0  0  0  0  0  0  0
   59.1950   28.6070   47.9280 C   0  0  0  0  0  0  0  0  0  0  0  0
   58.7740   27.3980   47.6780 N   0  0  0  0  0  0  0  0  0  0  0  0
   59.4370   26.3820   46.9090 C   0  0  0  0  0  0  0  0  0  0  0  0
   60.6780   26.1920   47.0440 O   0  0  0  0  0  0  0  0  0  0  0  0
   58.6910   25.6360   45.8700 C   0  0  0  0  0  0  0  0  0  0  0  0
   58.6580   24.2300   45.9330 C   0  0  0  0  0  0  0  0  0  0  0  0
   59.1489   23.7106   46.7692 H   0  0  0  0  0  0  0  0  0  0  0  0
   58.0080   23.4880   44.9440 C   0  0  0  0  0  0  0  0  0  0  0  0
   57.9894   22.3899   45.0050 H   0  0  0  0  0  0  0  0  0  0  0  0
   57.3830   24.1360   43.8800 C   0  0  0  0  0  0  0  0  0  0  0  0
   56.8817   23.5479   43.0971 H   0  0  0  0  0  0  0  0  0  0  0  0
   57.3920   25.5300   43.8060 C   0  0  0  0  0  0  0  0  0  0  0  0
   56.8999   26.0350   42.9617 H   0  0  0  0  0  0  0  0  0  0  0  0
   58.0250   26.2930   44.8020 C   0  0  0  0  0  0  0  0  0  0  0  0
   57.9220   27.7660   44.7300 C   0  0  0  0  0  0  0  0  0  0  0  0
   56.6950   28.4020   44.9590 C   0  0  0  0  0  0  0  0  0  0  0  0
   55.8085   27.8050   45.2193 H   0  0  0  0  0  0  0  0  0  0  0  0
   56.5930   29.7920   44.8580 C   0  0  0  0  0  0  0  0  0  0  0  0
   55.6221   30.2825   45.0215 H   0  0  0  0  0  0  0  0  0  0  0  0
   57.7230   30.5660   44.5490 C   0  0  0  0  0  0  0  0  0  0  0  0
   57.6100   32.0640   44.4270 C   0  0  0  0  0  0  0  0  0  0  0  0
   56.5810   32.3256   44.1394 H   0  0  0  0  0  0  0  0  0  0  0  0
   58.3215   32.4096   43.6626 H   0  0  0  0  0  0  0  0  0  0  0  0
   57.9330   32.7150   45.6950 N   0  0  0  0  0  0  0  0  0  0  0  0
   57.7090   32.2080   46.5810 H   0  0  0  0  0  0  0  0  0  0  0  0
   58.5340   34.0180   45.7610 C   0  0  0  0  0  0  0  0  0  0  0  0
   58.8010   34.6490   44.7010 O   0  0  0  0  0  0  0  0  0  0  0  0
   58.8900   34.6180   47.0910 C   0  0  0  0  0  0  0  0  0  0  0  0
   58.1907   34.2441   47.8533 H   0  0  0  0  0  0  0  0  0  0  0  0
   58.8228   35.7131   47.0114 H   0  0  0  0  0  0  0  0  0  0  0  0
   60.2930   34.2510   47.4880 C   0  0  0  0  0  0  0  0  0  0  0  0
   61.2090   33.8080   46.5220 C   0  0  0  0  0  0  0  0  0  0  0  0
   60.8999   33.7333   45.4690 H   0  0  0  0  0  0  0  0  0  0  0  0
   62.5120   33.4610   46.8900 C   0  0  0  0  0  0  0  0  0  0  0  0
   63.2218   33.1097   46.1266 H   0  0  0  0  0  0  0  0  0  0  0  0
   62.9180   33.5590   48.2290 C   0  0  0  0  0  0  0  0  0  0  0  0
   64.3060   33.1540   48.6290 C   0  0  0  0  0  0  0  0  0  0  0  0
   64.3798   33.1325   49.7263 H   0  0  0  0  0  0  0  0  0  0  0  0
   64.5264   32.1541   48.2270 H   0  0  0  0  0  0  0  0  0  0  0  0
   65.0295   33.8785   48.2270 H   0  0  0  0  0  0  0  0  0  0  0  0
   61.9940   33.9710   49.1990 C   0  0  0  0  0  0  0  0  0  0  0  0
   62.2976   34.0256   50.2549 H   0  0  0  0  0  0  0  0  0  0  0  0
   60.6890   34.3130   48.8330 C   0  0  0  0  0  0  0  0  0  0  0  0
   59.9699   34.6319   49.6019 H   0  0  0  0  0  0  0  0  0  0  0  0
   58.9530   29.9280   44.3260 C   0  0  0  0  0  0  0  0  0  0  0  0
   59.8424   30.5260   44.0782 H   0  0  0  0  0  0  0  0  0  0  0  0
   59.0540   28.5380   44.4170 C   0  0  0  0  0  0  0  0  0  0  0  0
   60.0224   28.0460   44.2432 H   0  0  0  0  0  0  0  0  0  0  0  0
   60.3480   29.1550   47.3220 C   0  0  0  0  0  0  0  0  0  0  0  0
   60.9196   28.5691   46.5872 H   0  0  0  0  0  0  0  0  0  0  0  0
   60.7570   30.4490   47.6640 C   0  0  0  0  0  0  0  0  0  0  0  0
   61.6501   30.8861   47.1936 H   0  0  0  0  0  0  0  0  0  0  0  0
   60.0330   31.1830   48.6000 C   0  0  0  0  0  0  0  0  0  0  0  0
   60.3454   32.2025   48.8701 H   0  0  0  0  0  0  0  0  0  0  0  0
  1  2  1  0
  2  3  1  0
  3  4  1  0
  4  5  2  0
  5  6  1  0
  6  7  2  0
  6  8  1  0
  8  9  2  0
  9 10  1  0
  9 11  1  0
 11 12  1  0
 11 13  2  0
 13 14  1  0
 13 15  1  0
 15 16  1  0
 15 17  2  0
 17 18  1  0
 18 19  2  0
 19 20  1  0
 19 21  1  0
 21 22  1  0
 21 23  2  0
 23 24  1  0
 24 25  1  0
 24 26  1  0
 24 27  1  0
 27 28  1  0
 27 29  1  0
 29 30  2  0
 29 31  1  0
 31 32  1  0
 31 33  1  0
 31 34  1  0
 34 35  2  0
 35 36  1  0
 35 37  1  0
 37 38  1  0
 37 39  2  0
 39 40  1  0
 40 41  1  0
 40 42  1  0
 40 43  1  0
 39 44  1  0
 44 45  1  0
 44 46  2  0
 46 47  1  0
 23 48  1  0
 48 49  1  0
 48 50  2  0
 50 51  1  0
  4 52  1  0
 52 53  1  0
 52 54  2  0
 54 55  1  0
 54 56  1  0
 56 57  1  0
 56  2  2  0
 17  8  1  0
 50 18  1  0
 46 34  1  0
M  CHG  1   3  -1
M  END
>  <UniqueID>  (58) 
52

>  <SMILES>  (58) 
Cc1ccc(CC(=O)NCc2ccc(-c3ccccc3C(=O)/N=c3\cccc[n-]3)cc2)cc1

>  <Energy>  (58) 
74.38628825877471

>  <Genealogy>  (58) 
Cc1ccc(CC(=O)NCc2ccc(-c3ccccc3C(=O)N=c3cccc[n-]3)cc2)cc1 (protonated)
Cc1ccc(CC(=O)NCc2ccc(-c3ccccc3C(=O)/N=c3\cccc[n-]3)cc2)cc1 (cis-trans isomerization)
Cc1ccc(CC(=O)NCc2ccc(-c3ccccc3C(=O)/N=c3\cccc[n-]3)cc2)cc1 (3D coordinates assigned)
Cc1ccc(CC(=O)NCc2ccc(-c3ccccc3C(=O)/N=c3\cccc[n-]3)cc2)cc1 (optimized conformer: 74.38628825877471 kcal/mol)

>  <smiles>  (58) 
Cc1ccc(CC(=O)NCc2ccc(-c3ccccc3C(=O)N=c3cccc[nH]3)cc2)cc1

>  <score_type>  (58) 
oracle

>  <origin>  (58) 
adg

>  <m_score__min__energy>  (58) 
-11.23

>  <m_primary>  (58) 
energy

$$$$
58:0
     RDKit          3D

 47 49  0  0  0  0  0  0  0  0999 V2000
   54.8870   31.1750   51.9200 N   0  0  0  0  0  0  0  0  0  0  0  0
   56.1670   31.2150   52.5580 C   0  0  0  0  0  0  0  0  0  0  0  0
   56.3070   30.6520   53.6780 O   0  0  0  0  0  0  0  0  0  0  0  0
   57.3190   31.9190   51.9410 C   0  0  0  0  0  0  0  0  0  0  0  0
   57.8110   33.1210   52.4820 C   0  0  0  0  0  0  0  0  0  0  0  0
   58.8900   33.7760   51.8790 C   0  0  0  0  0  0  0  0  0  0  0  0
   59.4970   33.2390   50.7420 C   0  0  0  0  0  0  0  0  0  0  0  0
   59.0290   32.0300   50.1980 C   0  0  0  0  0  0  0  0  0  0  0  0
   59.6160   31.4470   49.0260 N   0  0  0  0  0  0  0  0  0  0  0  0
   59.0130   31.3560   47.7270 C   0  0  0  0  0  0  0  0  0  0  0  0
   58.5640   30.2510   47.3180 O   0  0  0  0  0  0  0  0  0  0  0  0
   58.9110   32.5690   46.8750 C   0  0  0  0  0  0  0  0  0  0  0  0
   59.6220   33.7230   47.2580 C   0  0  0  0  0  0  0  0  0  0  0  0
   59.6300   34.8600   46.4480 C   0  0  0  0  0  0  0  0  0  0  0  0
   58.9290   34.8660   45.2440 C   0  0  0  0  0  0  0  0  0  0  0  0
   58.2040   33.7390   44.8520 C   0  0  0  0  0  0  0  0  0  0  0  0
   58.1770   32.5870   45.6590 C   0  0  0  0  0  0  0  0  0  0  0  0
   57.3760   31.4610   45.2560 N   0  0  0  0  0  0  0  0  0  0  0  0
   57.2040   31.0790   43.8550 C   0  0  0  0  0  0  0  0  0  0  0  0
   56.3040   29.8870   43.7570 C   0  0  0  0  0  0  0  0  0  0  0  0
   55.8050   29.5640   42.6450 O   0  0  0  0  0  0  0  0  0  0  0  0
   56.0150   29.1250   44.9340 N   0  0  0  0  0  0  0  0  0  0  0  0
   56.8070   28.0420   45.4420 C   0  0  0  0  0  0  0  0  0  0  0  0
   58.2010   28.1250   45.3330 C   0  0  0  0  0  0  0  0  0  0  0  0
   59.0110   27.0810   45.7880 C   0  0  0  0  0  0  0  0  0  0  0  0
   58.4330   25.9340   46.3380 C   0  0  0  0  0  0  0  0  0  0  0  0
   57.0430   25.8260   46.4240 C   0  0  0  0  0  0  0  0  0  0  0  0
   56.2240   26.8650   45.9650 C   0  0  0  0  0  0  0  0  0  0  0  0
   54.8440   26.7040   46.0010 O   0  0  0  0  0  0  0  0  0  0  0  0
   57.9260   31.3950   50.7840 C   0  0  0  0  0  0  0  0  0  0  0  0
   54.6810   31.7370   51.0660 H   0  0  0  0  0  0  0  0  0  0  0  0
   54.1060   30.6320   52.3530 H   0  0  0  0  0  0  0  0  0  0  0  0
   57.3453   33.5474   53.3827 H   0  0  0  0  0  0  0  0  0  0  0  0
   59.2626   34.7200   52.3032 H   0  0  0  0  0  0  0  0  0  0  0  0
   60.3423   33.7624   50.2714 H   0  0  0  0  0  0  0  0  0  0  0  0
   60.1779   33.7284   48.2072 H   0  0  0  0  0  0  0  0  0  0  0  0
   60.1909   35.7530   46.7610 H   0  0  0  0  0  0  0  0  0  0  0  0
   58.9467   35.7590   44.6020 H   0  0  0  0  0  0  0  0  0  0  0  0
   57.6484   33.7520   43.9027 H   0  0  0  0  0  0  0  0  0  0  0  0
   56.9680   30.8390   45.9890 H   0  0  0  0  0  0  0  0  0  0  0  0
   56.7589   31.9183   43.3004 H   0  0  0  0  0  0  0  0  0  0  0  0
   58.1851   30.8273   43.4259 H   0  0  0  0  0  0  0  0  0  0  0  0
   58.6615   29.0184   44.8860 H   0  0  0  0  0  0  0  0  0  0  0  0
   60.1054   27.1624   45.7130 H   0  0  0  0  0  0  0  0  0  0  0  0
   59.0722   25.1166   46.7031 H   0  0  0  0  0  0  0  0  0  0  0  0
   56.5897   24.9208   46.8542 H   0  0  0  0  0  0  0  0  0  0  0  0
   57.5286   30.4736   50.3334 H   0  0  0  0  0  0  0  0  0  0  0  0
  1  2  1  0
  2  3  2  0
  2  4  1  0
  4  5  2  0
  5  6  1  0
  6  7  2  0
  7  8  1  0
  8  9  1  0
  9 10  1  0
 10 11  2  0
 10 12  1  0
 12 13  2  0
 13 14  1  0
 14 15  2  0
 15 16  1  0
 16 17  2  0
 17 18  1  0
 18 19  1  0
 19 20  1  0
 20 21  2  0
 20 22  1  0
 22 23  1  0
 23 24  2  0
 24 25  1  0
 25 26  2  0
 26 27  1  0
 27 28  2  0
 28 29  1  0
  8 30  2  0
 30  4  1  0
 17 12  1  0
 28 23  1  0
  1 31  1  0
  1 32  1  0
  5 33  1  0
  6 34  1  0
  7 35  1  0
 13 36  1  0
 14 37  1  0
 15 38  1  0
 16 39  1  0
 18 40  1  0
 19 41  1  0
 19 42  1  0
 24 43  1  0
 25 44  1  0
 26 45  1  0
 27 46  1  0
 30 47  1  0
M  CHG  3   9  -1  22  -1  29  -1
M  END
>  <UniqueID>  (59) 
53

>  <SMILES>  (59) 
NC(=O)c1cccc([N-]C(=O)c2ccccc2NCC(=O)[N-]c2ccccc2[O-])c1

>  <Energy>  (59) 
63.381482855522464

>  <Genealogy>  (59) 
NC(=O)c1cccc([N-]C(=O)c2ccccc2NCC(=O)[N-]c2ccccc2[O-])c1 (protonated)
NC(=O)c1cccc([N-]C(=O)c2ccccc2NCC(=O)[N-]c2ccccc2[O-])c1 (3D coordinates assigned)
NC(=O)c1cccc([N-]C(=O)c2ccccc2NCC(=O)[N-]c2ccccc2[O-])c1 (optimized conformer: 63.381482855522464 kcal/mol)

>  <smiles>  (59) 
NC(=O)c1cccc(NC(=O)c2ccccc2NCC(=O)Nc2ccccc2O)c1

>  <score_type>  (59) 
oracle

>  <origin>  (59) 
adg

>  <m_score__min__energy>  (59) 
-15.83

>  <m_primary>  (59) 
energy

$$$$
59:0
     RDKit          3D

 67 69  0  0  0  0  0  0  0  0999 V2000
   61.2690   28.9370   44.8570 C   0  0  0  0  0  0  0  0  0  0  0  0
   59.8600   28.4640   45.1070 C   0  0  0  0  0  0  0  0  0  0  0  0
   59.1250   27.9200   44.0400 C   0  0  0  0  0  0  0  0  0  0  0  0
   57.8260   27.4550   44.2360 C   0  0  0  0  0  0  0  0  0  0  0  0
   57.2340   27.5120   45.5000 C   0  0  0  0  0  0  0  0  0  0  0  0
   55.8860   27.0330   45.6490 N   0  0  0  0  0  0  0  0  0  0  0  0
   55.5080   25.8630   46.0750 C   0  0  0  0  0  0  0  0  0  0  0  0
   56.2700   25.1410   46.9330 N   0  0  0  0  0  0  0  0  0  0  0  0
   55.8790   23.9080   47.3400 C   0  0  0  0  0  0  0  0  0  0  0  0
   56.5950   23.2890   48.1700 O   0  0  0  0  0  0  0  0  0  0  0  0
   54.7160   23.3570   46.8640 N   0  0  0  0  0  0  0  0  0  0  0  0
   54.3140   21.9850   47.2360 C   0  0  0  0  0  0  0  0  0  0  0  0
   54.0560   21.1570   46.0020 C   0  0  0  0  0  0  0  0  0  0  0  0
   52.8670   20.9000   45.6810 O   0  0  0  0  0  0  0  0  0  0  0  0
   55.1090   20.6710   45.1600 N   0  0  0  0  0  0  0  0  0  0  0  0
   56.4230   20.2350   45.6100 C   0  0  0  0  0  0  0  0  0  0  0  0
   57.3900   21.4320   45.7290 C   0  0  0  0  0  0  0  0  0  0  0  0
   57.7940   22.0870   44.4470 N   0  0  0  0  0  0  0  0  0  0  0  0
   59.2690   22.2480   44.4660 C   0  0  0  0  0  0  0  0  0  0  0  0
   57.1830   23.4300   44.3010 C   0  0  0  0  0  0  0  0  0  0  0  0
   57.4360   21.2500   43.2760 C   0  0  0  0  0  0  0  0  0  0  0  0
   53.9450   24.1010   46.0050 C   0  0  0  0  0  0  0  0  0  0  0  0
   52.8520   23.6500   45.5640 O   0  0  0  0  0  0  0  0  0  0  0  0
   54.3490   25.3370   45.6170 N   0  0  0  0  0  0  0  0  0  0  0  0
   57.9390   28.1100   46.5600 C   0  0  0  0  0  0  0  0  0  0  0  0
   59.2440   28.5990   46.3740 C   0  0  0  0  0  0  0  0  0  0  0  0
   59.9730   29.1810   47.5590 C   0  0  0  0  0  0  0  0  0  0  0  0
   60.1080   30.5850   47.3720 O   0  0  0  0  0  0  0  0  0  0  0  0
   59.0150   31.4470   47.2620 C   0  0  0  0  0  0  0  0  0  0  0  0
   58.3700   31.7840   48.2930 O   0  0  0  0  0  0  0  0  0  0  0  0
   58.5830   31.9360   45.9330 C   0  0  0  0  0  0  0  0  0  0  0  0
   57.8550   31.0610   45.1060 C   0  0  0  0  0  0  0  0  0  0  0  0
   57.4500   31.4570   43.8300 C   0  0  0  0  0  0  0  0  0  0  0  0
   57.7590   32.7330   43.3650 C   0  0  0  0  0  0  0  0  0  0  0  0
   58.4660   33.6210   44.1740 C   0  0  0  0  0  0  0  0  0  0  0  0
   58.8760   33.2450   45.4640 C   0  0  0  0  0  0  0  0  0  0  0  0
   59.6850   34.4610   46.4670 S   0  0  0  0  0  0  0  0  0  0  0  0
   59.6790   35.7920   45.7720 O   0  0  0  0  0  0  0  0  0  0  0  0
   58.9600   34.6050   47.7760 O   0  0  0  0  0  0  0  0  0  0  0  0
   61.2760   34.0000   46.7450 O   0  0  0  0  0  0  0  0  0  0  0  0
   61.7749   29.1068   45.8189 H   0  0  0  0  0  0  0  0  0  0  0  0
   61.8161   28.1733   44.2848 H   0  0  0  0  0  0  0  0  0  0  0  0
   61.2444   29.8761   44.2848 H   0  0  0  0  0  0  0  0  0  0  0  0
   59.5795   27.8606   43.0401 H   0  0  0  0  0  0  0  0  0  0  0  0
   57.2619   27.0395   43.3880 H   0  0  0  0  0  0  0  0  0  0  0  0
   55.1189   21.5186   47.8231 H   0  0  0  0  0  0  0  0  0  0  0  0
   53.3901   22.0341   47.8310 H   0  0  0  0  0  0  0  0  0  0  0  0
   56.3249   19.7522   46.5935 H   0  0  0  0  0  0  0  0  0  0  0  0
   56.8296   19.5268   44.8730 H   0  0  0  0  0  0  0  0  0  0  0  0
   56.9044   22.1941   46.3563 H   0  0  0  0  0  0  0  0  0  0  0  0
   58.3174   21.0190   46.1524 H   0  0  0  0  0  0  0  0  0  0  0  0
   59.6203   22.2863   45.5077 H   0  0  0  0  0  0  0  0  0  0  0  0
   59.7375   21.3957   43.9522 H   0  0  0  0  0  0  0  0  0  0  0  0
   59.5426   23.1813   43.9522 H   0  0  0  0  0  0  0  0  0  0  0  0
   56.9896   23.8551   45.2969 H   0  0  0  0  0  0  0  0  0  0  0  0
   57.8706   24.0876   43.7489 H   0  0  0  0  0  0  0  0  0  0  0  0
   56.2355   23.3437   43.7489 H   0  0  0  0  0  0  0  0  0  0  0  0
   57.0255   20.2903   43.6230 H   0  0  0  0  0  0  0  0  0  0  0  0
   56.6827   21.7727   42.6683 H   0  0  0  0  0  0  0  0  0  0  0  0
   58.3343   21.0663   42.6683 H   0  0  0  0  0  0  0  0  0  0  0  0
   57.4629   28.1963   47.5479 H   0  0  0  0  0  0  0  0  0  0  0  0
   59.4010   28.9840   48.4777 H   0  0  0  0  0  0  0  0  0  0  0  0
   60.9674   28.7193   47.6487 H   0  0  0  0  0  0  0  0  0  0  0  0
   57.6022   30.0538   45.4688 H   0  0  0  0  0  0  0  0  0  0  0  0
   56.8865   30.7608   43.1914 H   0  0  0  0  0  0  0  0  0  0  0  0
   57.4443   33.0407   42.3569 H   0  0  0  0  0  0  0  0  0  0  0  0
   58.7054   34.6268   43.7984 H   0  0  0  0  0  0  0  0  0  0  0  0
  1  2  1  0
  2  3  2  0
  3  4  1  0
  4  5  2  0
  5  6  1  0
  6  7  2  3
  7  8  1  0
  8  9  1  0
  9 10  2  0
  9 11  1  0
 11 12  1  0
 12 13  1  0
 13 14  2  0
 13 15  1  0
 15 16  1  0
 16 17  1  0
 17 18  1  0
 18 19  1  0
 18 20  1  0
 18 21  1  0
 11 22  1  0
 22 23  2  0
 22 24  1  0
  5 25  1  0
 25 26  2  0
 26 27  1  0
 27 28  1  0
 28 29  1  0
 29 30  2  0
 29 31  1  0
 31 32  2  0
 32 33  1  0
 33 34  2  0
 34 35  1  0
 35 36  2  0
 36 37  1  0
 37 38  2  0
 37 39  2  0
 37 40  1  0
 26  2  1  0
 36 31  1  0
 24  7  1  0
  1 41  1  0
  1 42  1  0
  1 43  1  0
  3 44  1  0
  4 45  1  0
 12 46  1  0
 12 47  1  0
 16 48  1  0
 16 49  1  0
 17 50  1  0
 17 51  1  0
 19 52  1  0
 19 53  1  0
 19 54  1  0
 20 55  1  0
 20 56  1  0
 20 57  1  0
 21 58  1  0
 21 59  1  0
 21 60  1  0
 25 61  1  0
 27 62  1  0
 27 63  1  0
 32 64  1  0
 33 65  1  0
 34 66  1  0
 35 67  1  0
M  CHG  5   8  -1  15  -1  18   1  24  -1  40  -1
M  END
>  <UniqueID>  (60) 
54

>  <SMILES>  (60) 
Cc1ccc(N=c2[n-]c(=O)n(CC(=O)[N-]CC[N+](C)(C)C)c(=O)[n-]2)cc1COC(=O)c1ccccc1S(=O)(=O)[O-]

>  <Energy>  (60) 
87.17415228023049

>  <Genealogy>  (60) 
Cc1ccc(N=c2[n-]c(=O)n(CC(=O)[N-]CC[N+](C)(C)C)c(=O)[n-]2)cc1COC(=O)c1ccccc1S(=O)(=O)[O-] (protonated)
Cc1ccc(N=c2[n-]c(=O)n(CC(=O)[N-]CC[N+](C)(C)C)c(=O)[n-]2)cc1COC(=O)c1ccccc1S(=O)(=O)[O-] (3D coordinates assigned)
Cc1ccc(N=c2[n-]c(=O)n(CC(=O)[N-]CC[N+](C)(C)C)c(=O)[n-]2)cc1COC(=O)c1ccccc1S(=O)(=O)[O-] (optimized conformer: 87.17415228023049 kcal/mol)

>  <smiles>  (60) 
Cc1ccc(N=c2[nH]c(=O)n(CC(=O)NCC[N+](C)(C)C)c(=O)[nH]2)cc1COC(=O)c1ccccc1S(=O)(=O)O

>  <score_type>  (60) 
oracle

>  <origin>  (60) 
adg

>  <m_score__min__energy>  (60) 
-13.56

>  <m_primary>  (60) 
energy

$$$$
60:0
     RDKit          3D

 36 38  0  0  0  0  0  0  0  0999 V2000
   60.7070   29.4030   45.9020 O   0  0  0  0  0  0  0  0  0  0  0  0
   60.5100   30.5070   46.4800 C   0  0  0  0  0  0  0  0  0  0  0  0
   61.4370   30.9280   47.5530 C   0  0  0  0  0  0  0  0  0  0  0  0
   62.5990   31.6400   47.2080 C   0  0  0  0  0  0  0  0  0  0  0  0
   63.4810   32.0820   48.1970 C   0  0  0  0  0  0  0  0  0  0  0  0
   63.2180   31.8080   49.5410 C   0  0  0  0  0  0  0  0  0  0  0  0
   62.0790   31.0820   49.8960 C   0  0  0  0  0  0  0  0  0  0  0  0
   61.1880   30.6340   48.9130 C   0  0  0  0  0  0  0  0  0  0  0  0
   59.8240   29.6420   49.4190 Cl  0  0  0  0  0  0  0  0  0  0  0  0
   59.4130   31.3460   46.0590 N   0  0  0  0  0  0  0  0  0  0  0  0
   59.5530   32.7850   46.0640 C   0  0  0  0  0  0  0  0  0  0  0  0
   59.9080   33.4680   47.2410 C   0  0  0  0  0  0  0  0  0  0  0  0
   60.0330   34.8600   47.2420 C   0  0  0  0  0  0  0  0  0  0  0  0
   59.8110   35.5840   46.0660 C   0  0  0  0  0  0  0  0  0  0  0  0
   59.9360   36.9680   46.0680 O   0  0  0  0  0  0  0  0  0  0  0  0
   59.4660   34.9150   44.8890 C   0  0  0  0  0  0  0  0  0  0  0  0
   59.3390   33.5230   44.8850 C   0  0  0  0  0  0  0  0  0  0  0  0
   58.2000   30.7370   45.5680 C   0  0  0  0  0  0  0  0  0  0  0  0
   57.8780   29.4100   45.9050 C   0  0  0  0  0  0  0  0  0  0  0  0
   56.7050   28.8210   45.4220 C   0  0  0  0  0  0  0  0  0  0  0  0
   55.8420   29.5500   44.5980 C   0  0  0  0  0  0  0  0  0  0  0  0
   54.6780   28.9630   44.1180 O   0  0  0  0  0  0  0  0  0  0  0  0
   56.1530   30.8700   44.2570 C   0  0  0  0  0  0  0  0  0  0  0  0
   57.3250   31.4620   44.7390 C   0  0  0  0  0  0  0  0  0  0  0  0
   62.8155   31.8509   46.1503 H   0  0  0  0  0  0  0  0  0  0  0  0
   64.3830   32.6460   47.9171 H   0  0  0  0  0  0  0  0  0  0  0  0
   63.9081   32.1641   50.3201 H   0  0  0  0  0  0  0  0  0  0  0  0
   61.8804   30.8606   50.9550 H   0  0  0  0  0  0  0  0  0  0  0  0
   60.0885   32.9027   48.1672 H   0  0  0  0  0  0  0  0  0  0  0  0
   60.3062   35.3866   48.1683 H   0  0  0  0  0  0  0  0  0  0  0  0
   59.2940   35.4847   43.9639 H   0  0  0  0  0  0  0  0  0  0  0  0
   59.0702   33.0013   43.9547 H   0  0  0  0  0  0  0  0  0  0  0  0
   58.5532   28.8316   46.5527 H   0  0  0  0  0  0  0  0  0  0  0  0
   56.4610   27.7826   45.6908 H   0  0  0  0  0  0  0  0  0  0  0  0
   55.4747   31.4439   43.6085 H   0  0  0  0  0  0  0  0  0  0  0  0
   57.5639   32.5010   44.4681 H   0  0  0  0  0  0  0  0  0  0  0  0
  1  2  2  0
  2  3  1  0
  3  4  2  0
  4  5  1  0
  5  6  2  0
  6  7  1  0
  7  8  2  0
  8  9  1  0
  2 10  1  0
 10 11  1  0
 11 12  2  0
 12 13  1  0
 13 14  2  0
 14 15  1  0
 14 16  1  0
 16 17  2  0
 10 18  1  0
 18 19  2  0
 19 20  1  0
 20 21  2  0
 21 22  1  0
 21 23  1  0
 23 24  2  0
  8  3  1  0
 17 11  1  0
 24 18  1  0
  4 25  1  0
  5 26  1  0
  6 27  1  0
  7 28  1  0
 12 29  1  0
 13 30  1  0
 16 31  1  0
 17 32  1  0
 19 33  1  0
 20 34  1  0
 23 35  1  0
 24 36  1  0
M  CHG  2  15  -1  22  -1
M  END
>  <UniqueID>  (61) 
55

>  <SMILES>  (61) 
O=C(c1ccccc1Cl)N(c1ccc([O-])cc1)c1ccc([O-])cc1

>  <Energy>  (61) 
54.74937612209408

>  <Genealogy>  (61) 
O=C(c1ccccc1Cl)N(c1ccc([O-])cc1)c1ccc([O-])cc1 (protonated)
O=C(c1ccccc1Cl)N(c1ccc([O-])cc1)c1ccc([O-])cc1 (3D coordinates assigned)
O=C(c1ccccc1Cl)N(c1ccc([O-])cc1)c1ccc([O-])cc1 (optimized conformer: 54.74937612209408 kcal/mol)

>  <smiles>  (61) 
O=C(c1ccccc1Cl)N(c1ccc(O)cc1)c1ccc(O)cc1

>  <score_type>  (61) 
oracle

>  <origin>  (61) 
adg

>  <m_score__min__energy>  (61) 
-10.33

>  <m_primary>  (61) 
energy

$$$$
61:0
     RDKit          3D

 43 46  0  0  0  0  0  0  0  0999 V2000
   54.9170   26.3330   46.0180 N   0  0  0  0  0  0  0  0  0  0  0  0
   56.2240   26.0180   46.4930 C   0  0  0  0  0  0  0  0  0  0  0  0
   56.3970   24.9610   47.1600 O   0  0  0  0  0  0  0  0  0  0  0  0
   57.3660   26.9170   46.2080 C   0  0  0  0  0  0  0  0  0  0  0  0
   57.9560   26.9450   44.9150 C   0  0  0  0  0  0  0  0  0  0  0  0
   59.0510   27.7850   44.6410 C   0  0  0  0  0  0  0  0  0  0  0  0
   59.5280   28.5840   45.6730 C   0  0  0  0  0  0  0  0  0  0  0  0
   60.5860   29.4070   45.6510 N   0  0  0  0  0  0  0  0  0  0  0  0
   60.6120   29.8870   46.9210 C   0  0  0  0  0  0  0  0  0  0  0  0
   61.7400   30.7200   47.4360 C   0  0  0  0  0  0  0  0  0  0  0  0
   61.2040   31.7030   48.3670 N   0  0  0  0  0  0  0  0  0  0  0  0
   61.1310   33.0940   48.0460 C   0  0  0  0  0  0  0  0  0  0  0  0
   61.8850   33.9110   48.6410 O   0  0  0  0  0  0  0  0  0  0  0  0
   60.2080   33.5630   46.9930 C   0  0  0  0  0  0  0  0  0  0  0  0
   60.1290   34.9260   46.6640 C   0  0  0  0  0  0  0  0  0  0  0  0
   59.2890   35.3530   45.6330 C   0  0  0  0  0  0  0  0  0  0  0  0
   58.5400   34.4260   44.9050 C   0  0  0  0  0  0  0  0  0  0  0  0
   58.6200   33.0550   45.2040 C   0  0  0  0  0  0  0  0  0  0  0  0
   57.8770   32.0590   44.3940 C   0  0  0  0  0  0  0  0  0  0  0  0
   57.2580   30.9540   45.0070 C   0  0  0  0  0  0  0  0  0  0  0  0
   56.5560   30.0200   44.2390 C   0  0  0  0  0  0  0  0  0  0  0  0
   56.4620   30.1790   42.8540 C   0  0  0  0  0  0  0  0  0  0  0  0
   57.0690   31.2740   42.2350 C   0  0  0  0  0  0  0  0  0  0  0  0
   57.7720   32.2110   42.9990 C   0  0  0  0  0  0  0  0  0  0  0  0
   59.4430   32.6350   46.2650 C   0  0  0  0  0  0  0  0  0  0  0  0
   59.6470   29.3840   47.7350 N   0  0  0  0  0  0  0  0  0  0  0  0
   58.9700   28.5690   46.9130 C   0  0  0  0  0  0  0  0  0  0  0  0
   57.8900   27.7500   47.2270 C   0  0  0  0  0  0  0  0  0  0  0  0
   54.7730   26.7190   45.0580 H   0  0  0  0  0  0  0  0  0  0  0  0
   57.5516   26.3023   44.1191 H   0  0  0  0  0  0  0  0  0  0  0  0
   59.5139   27.8084   43.6434 H   0  0  0  0  0  0  0  0  0  0  0  0
   62.4685   30.0783   47.9533 H   0  0  0  0  0  0  0  0  0  0  0  0
   62.2434   31.2288   46.6007 H   0  0  0  0  0  0  0  0  0  0  0  0
   60.7307   35.6599   47.2202 H   0  0  0  0  0  0  0  0  0  0  0  0
   59.2171   36.4242   45.3934 H   0  0  0  0  0  0  0  0  0  0  0  0
   57.8834   34.7709   44.0926 H   0  0  0  0  0  0  0  0  0  0  0  0
   57.3268   30.8242   46.0971 H   0  0  0  0  0  0  0  0  0  0  0  0
   56.0767   29.1581   44.7262 H   0  0  0  0  0  0  0  0  0  0  0  0
   55.9103   29.4423   42.2516 H   0  0  0  0  0  0  0  0  0  0  0  0
   56.9940   31.3996   41.1448 H   0  0  0  0  0  0  0  0  0  0  0  0
   58.2460   33.0726   42.5061 H   0  0  0  0  0  0  0  0  0  0  0  0
   59.4884   31.5679   46.5280 H   0  0  0  0  0  0  0  0  0  0  0  0
   57.4555   27.7493   48.2375 H   0  0  0  0  0  0  0  0  0  0  0  0
  1  2  1  0
  2  3  2  0
  2  4  1  0
  4  5  2  0
  5  6  1  0
  6  7  2  0
  7  8  1  0
  8  9  1  0
  9 10  1  0
 10 11  1  0
 11 12  1  0
 12 13  2  0
 12 14  1  0
 14 15  2  0
 15 16  1  0
 16 17  2  0
 17 18  1  0
 18 19  1  0
 19 20  2  0
 20 21  1  0
 21 22  2  0
 22 23  1  0
 23 24  2  0
 18 25  2  0
  9 26  2  0
 26 27  1  0
 27 28  2  0
 28  4  1  0
 27  7  1  0
 25 14  1  0
 24 19  1  0
  1 29  1  0
  5 30  1  0
  6 31  1  0
 10 32  1  0
 10 33  1  0
 15 34  1  0
 16 35  1  0
 17 36  1  0
 20 37  1  0
 21 38  1  0
 22 39  1  0
 23 40  1  0
 24 41  1  0
 25 42  1  0
 28 43  1  0
M  CHG  3   1  -1   8  -1  11  -1
M  END
>  <UniqueID>  (62) 
56

>  <SMILES>  (62) 
[NH-]C(=O)c1ccc2[n-]c(C[N-]C(=O)c3cccc(-c4ccccc4)c3)nc2c1

>  <Energy>  (62) 
88.49281186998515

>  <Genealogy>  (62) 
[NH-]C(=O)c1ccc2[n-]c(C[N-]C(=O)c3cccc(-c4ccccc4)c3)nc2c1 (protonated)
[NH-]C(=O)c1ccc2[n-]c(C[N-]C(=O)c3cccc(-c4ccccc4)c3)nc2c1 (3D coordinates assigned)
[NH-]C(=O)c1ccc2[n-]c(C[N-]C(=O)c3cccc(-c4ccccc4)c3)nc2c1 (optimized conformer: 88.49281186998515 kcal/mol)

>  <smiles>  (62) 
NC(=O)c1ccc2[nH]c(CNC(=O)c3cccc(-c4ccccc4)c3)nc2c1

>  <score_type>  (62) 
oracle

>  <origin>  (62) 
adg

>  <m_score__min__energy>  (62) 
-14.109999999999999

>  <m_primary>  (62) 
energy

$$$$
62:0
     RDKit          3D

 44 46  0  0  0  0  0  0  0  0999 V2000
   56.1310   22.0750   48.1670 C   0  0  0  0  0  0  0  0  0  0  0  0
   57.2200   22.5190   47.3650 O   0  0  0  0  0  0  0  0  0  0  0  0
   57.2960   23.7830   46.7620 C   0  0  0  0  0  0  0  0  0  0  0  0
   58.5260   24.2000   46.2490 C   0  0  0  0  0  0  0  0  0  0  0  0
   58.6550   25.4490   45.6380 C   0  0  0  0  0  0  0  0  0  0  0  0
   57.5510   26.3080   45.5310 C   0  0  0  0  0  0  0  0  0  0  0  0
   57.7530   27.8810   44.7510 S   0  0  0  0  0  0  0  0  0  0  0  0
   57.8820   27.6990   43.2650 O   0  0  0  0  0  0  0  0  0  0  0  0
   56.5490   28.7290   45.0560 O   0  0  0  0  0  0  0  0  0  0  0  0
   59.1780   28.6690   45.3500 N   0  0  0  0  0  0  0  0  0  0  0  0
   59.2990   29.1330   46.6970 C   0  0  0  0  0  0  0  0  0  0  0  0
   59.5630   28.1990   47.7060 C   0  0  0  0  0  0  0  0  0  0  0  0
   59.6360   28.6020   49.0420 C   0  0  0  0  0  0  0  0  0  0  0  0
   59.4540   29.9450   49.3770 C   0  0  0  0  0  0  0  0  0  0  0  0
   59.2180   30.8910   48.3760 C   0  0  0  0  0  0  0  0  0  0  0  0
   59.1490   30.4980   47.0280 C   0  0  0  0  0  0  0  0  0  0  0  0
   59.0250   31.4970   46.0030 N   0  0  0  0  0  0  0  0  0  0  0  0
   59.5600   32.8410   46.2200 C   0  0  0  0  0  0  0  0  0  0  0  0
   58.4020   33.8440   46.1850 C   0  0  0  0  0  0  0  0  0  0  0  0
   57.6580   33.7090   44.9860 O   0  0  0  0  0  0  0  0  0  0  0  0
   57.0420   32.4330   44.9330 C   0  0  0  0  0  0  0  0  0  0  0  0
   58.0970   31.3210   44.8840 C   0  0  0  0  0  0  0  0  0  0  0  0
   56.3020   25.8950   46.0510 C   0  0  0  0  0  0  0  0  0  0  0  0
   55.1630   26.7000   45.9850 O   0  0  0  0  0  0  0  0  0  0  0  0
   56.1850   24.6400   46.6590 C   0  0  0  0  0  0  0  0  0  0  0  0
   56.3916   22.1812   49.2304 H   0  0  0  0  0  0  0  0  0  0  0  0
   55.2409   22.6820   47.9452 H   0  0  0  0  0  0  0  0  0  0  0  0
   55.9190   21.0187   47.9452 H   0  0  0  0  0  0  0  0  0  0  0  0
   59.4014   23.5385   46.3269 H   0  0  0  0  0  0  0  0  0  0  0  0
   59.6304   25.7620   45.2372 H   0  0  0  0  0  0  0  0  0  0  0  0
   59.7139   27.1410   47.4454 H   0  0  0  0  0  0  0  0  0  0  0  0
   59.8369   27.8610   49.8298 H   0  0  0  0  0  0  0  0  0  0  0  0
   59.4964   30.2589   50.4304 H   0  0  0  0  0  0  0  0  0  0  0  0
   59.0854   31.9495   48.6444 H   0  0  0  0  0  0  0  0  0  0  0  0
   60.0594   32.8867   47.1990 H   0  0  0  0  0  0  0  0  0  0  0  0
   60.2899   33.0846   45.4339 H   0  0  0  0  0  0  0  0  0  0  0  0
   57.7394   33.6606   47.0437 H   0  0  0  0  0  0  0  0  0  0  0  0
   58.8149   34.8625   46.2321 H   0  0  0  0  0  0  0  0  0  0  0  0
   56.4161   32.2972   45.8273 H   0  0  0  0  0  0  0  0  0  0  0  0
   56.4267   32.3759   44.0230 H   0  0  0  0  0  0  0  0  0  0  0  0
   57.6042   30.3408   44.9638 H   0  0  0  0  0  0  0  0  0  0  0  0
   58.6470   31.3711   43.9327 H   0  0  0  0  0  0  0  0  0  0  0  0
   55.1230   27.5690   45.4710 H   0  0  0  0  0  0  0  0  0  0  0  0
   55.2126   24.3197   47.0613 H   0  0  0  0  0  0  0  0  0  0  0  0
  1  2  1  0
  2  3  1  0
  3  4  2  0
  4  5  1  0
  5  6  2  0
  6  7  1  0
  7  8  2  0
  7  9  2  0
  7 10  1  0
 10 11  1  0
 11 12  2  0
 12 13  1  0
 13 14  2  0
 14 15  1  0
 15 16  2  0
 16 17  1  0
 17 18  1  0
 18 19  1  0
 19 20  1  0
 20 21  1  0
 21 22  1  0
  6 23  1  0
 23 24  1  0
 23 25  2  0
 25  3  1  0
 16 11  1  0
 22 17  1  0
  1 26  1  0
  1 27  1  0
  1 28  1  0
  4 29  1  0
  5 30  1  0
 12 31  1  0
 13 32  1  0
 14 33  1  0
 15 34  1  0
 18 35  1  0
 18 36  1  0
 19 37  1  0
 19 38  1  0
 21 39  1  0
 21 40  1  0
 22 41  1  0
 22 42  1  0
 24 43  1  0
 25 44  1  0
M  CHG  1  10  -1
M  END
>  <UniqueID>  (63) 
57

>  <SMILES>  (63) 
COc1ccc(S(=O)(=O)[N-]c2ccccc2N2CCOCC2)c(O)c1

>  <Energy>  (63) 
62.178689175714375

>  <Genealogy>  (63) 
COc1ccc(S(=O)(=O)[N-]c2ccccc2N2CCOCC2)c(O)c1 (protonated)
COc1ccc(S(=O)(=O)[N-]c2ccccc2N2CCOCC2)c(O)c1 (3D coordinates assigned)
COc1ccc(S(=O)(=O)[N-]c2ccccc2N2CCOCC2)c(O)c1 (nonaromatic ring conformer: 62.178689175714375 kcal/mol)

>  <smiles>  (63) 
COc1ccc(S(=O)(=O)Nc2ccccc2N2CCOCC2)c(O)c1

>  <score_type>  (63) 
oracle

>  <origin>  (63) 
adg

>  <m_score__min__energy>  (63) 
-9.8000000000000007

>  <m_primary>  (63) 
energy

$$$$
63:0
     RDKit          3D

 59 63  0  0  0  0  0  0  0  0999 V2000
   64.6730   29.8570   52.0430 C   0  0  0  0  0  0  0  0  0  0  0  0
   65.2250   30.9590   51.1960 C   0  0  0  0  0  0  0  0  0  0  0  0
   66.5580   31.3620   51.2540 C   0  0  0  0  0  0  0  0  0  0  0  0
   66.7470   32.6510   50.1870 S   0  0  0  0  0  0  0  0  0  0  0  0
   65.1260   32.6510   49.7220 C   0  0  0  0  0  0  0  0  0  0  0  0
   64.5680   33.4310   48.8370 N   0  0  0  0  0  0  0  0  0  0  0  0
   63.5270   33.0920   47.9050 C   0  0  0  0  0  0  0  0  0  0  0  0
   63.4200   33.6960   46.8020 O   0  0  0  0  0  0  0  0  0  0  0  0
   62.6140   32.0400   48.2400 N   0  0  0  0  0  0  0  0  0  0  0  0
   61.4950   31.6800   47.4090 C   0  0  0  0  0  0  0  0  0  0  0  0
   61.5010   30.4520   46.7370 C   0  0  0  0  0  0  0  0  0  0  0  0
   60.4810   30.0910   45.9030 N   0  0  0  0  0  0  0  0  0  0  0  0
   60.5780   28.8010   45.1990 C   0  0  0  0  0  0  0  0  0  0  0  0
   59.4490   27.8950   45.6170 C   0  0  0  0  0  0  0  0  0  0  0  0
   59.5870   27.0570   46.7360 C   0  0  0  0  0  0  0  0  0  0  0  0
   58.5510   26.1900   47.0990 C   0  0  0  0  0  0  0  0  0  0  0  0
   57.3810   26.1240   46.3330 C   0  0  0  0  0  0  0  0  0  0  0  0
   56.3290   25.2420   46.7430 N   0  0  0  0  0  0  0  0  0  0  0  0
   55.1300   24.9860   46.0030 C   0  0  0  0  0  0  0  0  0  0  0  0
   54.3520   25.9450   45.7510 O   0  0  0  0  0  0  0  0  0  0  0  0
   54.7820   23.6460   45.6310 N   0  0  0  0  0  0  0  0  0  0  0  0
   55.5280   22.7760   44.7680 C   0  0  0  0  0  0  0  0  0  0  0  0
   55.8950   23.1590   43.4630 C   0  0  0  0  0  0  0  0  0  0  0  0
   56.6370   22.2890   42.6570 C   0  0  0  0  0  0  0  0  0  0  0  0
   57.0280   21.0410   43.1480 C   0  0  0  0  0  0  0  0  0  0  0  0
   56.6870   20.6620   44.4500 C   0  0  0  0  0  0  0  0  0  0  0  0
   55.9420   21.5280   45.2580 C   0  0  0  0  0  0  0  0  0  0  0  0
   55.6120   21.1490   46.5190 F   0  0  0  0  0  0  0  0  0  0  0  0
   57.2390   26.9690   45.2180 C   0  0  0  0  0  0  0  0  0  0  0  0
   58.2680   27.8430   44.8600 C   0  0  0  0  0  0  0  0  0  0  0  0
   59.4260   30.9410   45.6800 C   0  0  0  0  0  0  0  0  0  0  0  0
   58.4960   30.6040   44.8940 O   0  0  0  0  0  0  0  0  0  0  0  0
   59.3720   32.1930   46.3260 C   0  0  0  0  0  0  0  0  0  0  0  0
   58.2950   33.0780   46.1130 C   0  0  0  0  0  0  0  0  0  0  0  0
   58.2500   34.3070   46.7720 C   0  0  0  0  0  0  0  0  0  0  0  0
   59.2700   34.6670   47.6520 C   0  0  0  0  0  0  0  0  0  0  0  0
   60.3440   33.8050   47.8750 C   0  0  0  0  0  0  0  0  0  0  0  0
   60.4180   32.5650   47.2060 C   0  0  0  0  0  0  0  0  0  0  0  0
   64.4330   31.6800   50.3550 N   0  0  0  0  0  0  0  0  0  0  0  0
   64.8007   30.1120   53.1054 H   0  0  0  0  0  0  0  0  0  0  0  0
   63.6031   29.7265   51.8233 H   0  0  0  0  0  0  0  0  0  0  0  0
   65.2092   28.9220   51.8233 H   0  0  0  0  0  0  0  0  0  0  0  0
   67.3441   30.9185   51.8828 H   0  0  0  0  0  0  0  0  0  0  0  0
   62.8040   31.4810   49.1000 H   0  0  0  0  0  0  0  0  0  0  0  0
   62.3455   29.7626   46.8837 H   0  0  0  0  0  0  0  0  0  0  0  0
   60.5227   28.9739   44.1141 H   0  0  0  0  0  0  0  0  0  0  0  0
   61.5354   28.3234   45.4544 H   0  0  0  0  0  0  0  0  0  0  0  0
   60.5132   27.0827   47.3289 H   0  0  0  0  0  0  0  0  0  0  0  0
   58.6563   25.5562   47.9918 H   0  0  0  0  0  0  0  0  0  0  0  0
   55.5973   24.1449   43.0766 H   0  0  0  0  0  0  0  0  0  0  0  0
   56.9130   22.5881   41.6351 H   0  0  0  0  0  0  0  0  0  0  0  0
   57.6048   20.3556   42.5096 H   0  0  0  0  0  0  0  0  0  0  0  0
   57.0044   19.6832   44.8390 H   0  0  0  0  0  0  0  0  0  0  0  0
   56.3130   26.9415   44.6248 H   0  0  0  0  0  0  0  0  0  0  0  0
   58.1524   28.4937   43.9807 H   0  0  0  0  0  0  0  0  0  0  0  0
   57.4854   32.7977   45.4231 H   0  0  0  0  0  0  0  0  0  0  0  0
   57.4083   34.9932   46.5970 H   0  0  0  0  0  0  0  0  0  0  0  0
   59.2276   35.6350   48.1727 H   0  0  0  0  0  0  0  0  0  0  0  0
   61.1392   34.0943   48.5778 H   0  0  0  0  0  0  0  0  0  0  0  0
  1  2  1  0
  2  3  2  0
  3  4  1  0
  4  5  1  0
  5  6  2  3
  6  7  1  0
  7  8  2  0
  7  9  1  0
  9 10  1  0
 10 11  2  0
 11 12  1  0
 12 13  1  0
 13 14  1  0
 14 15  2  0
 15 16  1  0
 16 17  2  0
 17 18  1  0
 18 19  1  0
 19 20  2  0
 19 21  1  0
 21 22  1  0
 22 23  2  0
 23 24  1  0
 24 25  2  0
 25 26  1  0
 26 27  2  0
 27 28  1  0
 17 29  1  0
 29 30  2  0
 12 31  1  0
 31 32  2  0
 31 33  1  0
 33 34  2  0
 34 35  1  0
 35 36  2  0
 36 37  1  0
 37 38  2  0
  5 39  1  0
 39  2  1  0
 38 10  1  0
 30 14  1  0
 38 33  1  0
 27 22  1  0
  1 40  1  0
  1 41  1  0
  1 42  1  0
  3 43  1  0
  9 44  1  0
 11 45  1  0
 13 46  1  0
 13 47  1  0
 15 48  1  0
 16 49  1  0
 23 50  1  0
 24 51  1  0
 25 52  1  0
 26 53  1  0
 29 54  1  0
 30 55  1  0
 34 56  1  0
 35 57  1  0
 36 58  1  0
 37 59  1  0
M  CHG  3  18  -1  21  -1  39  -1
M  END
>  <UniqueID>  (64) 
58

>  <SMILES>  (64) 
Cc1csc(=NC(=O)Nc2cn(Cc3ccc([N-]C(=O)[N-]c4ccccc4F)cc3)c(=O)c3ccccc23)[n-]1

>  <Energy>  (64) 
116.23867229368274

>  <Genealogy>  (64) 
Cc1csc(=NC(=O)Nc2cn(Cc3ccc([N-]C(=O)[N-]c4ccccc4F)cc3)c(=O)c3ccccc23)[n-]1 (protonated)
Cc1csc(=NC(=O)Nc2cn(Cc3ccc([N-]C(=O)[N-]c4ccccc4F)cc3)c(=O)c3ccccc23)[n-]1 (3D coordinates assigned)
Cc1csc(=NC(=O)Nc2cn(Cc3ccc([N-]C(=O)[N-]c4ccccc4F)cc3)c(=O)c3ccccc23)[n-]1 (optimized conformer: 116.23867229368274 kcal/mol)

>  <smiles>  (64) 
Cc1csc(=NC(=O)Nc2cn(Cc3ccc(NC(=O)Nc4ccccc4F)cc3)c(=O)c3ccccc23)[nH]1

>  <score_type>  (64) 
oracle

>  <origin>  (64) 
adg

>  <m_score__min__energy>  (64) 
-14.109999999999999

>  <m_primary>  (64) 
energy

$$$$
64:0
     RDKit          3D

 48 50  0  0  0  0  0  0  0  0999 V2000
   62.8110   32.1440   50.4550 H   0  0  0  0  0  0  0  0  0  0  0  0
   63.3840   31.4760   49.9960 O   0  0  0  0  0  0  0  0  0  0  0  0
   64.6490   32.0630   49.8480 C   0  0  0  0  0  0  0  0  0  0  0  0
   65.2617   31.4367   49.1829 H   0  0  0  0  0  0  0  0  0  0  0  0
   65.1191   32.1424   50.8393 H   0  0  0  0  0  0  0  0  0  0  0  0
   64.5300   33.4670   49.2470 C   0  0  0  0  0  0  0  0  0  0  0  0
   65.3451   33.6189   48.5241 H   0  0  0  0  0  0  0  0  0  0  0  0
   64.5946   34.2031   50.0618 H   0  0  0  0  0  0  0  0  0  0  0  0
   63.2350   33.6410   48.5580 N   0  0  0  0  0  0  0  0  0  0  0  0
   63.1350   33.4030   47.2150 C   0  0  0  0  0  0  0  0  0  0  0  0
   64.1410   33.0430   46.5460 O   0  0  0  0  0  0  0  0  0  0  0  0
   61.9500   33.5520   46.5870 N   0  0  0  0  0  0  0  0  0  0  0  0
   60.8370   33.9340   47.2590 C   0  0  0  0  0  0  0  0  0  0  0  0
   59.7010   34.0570   46.6310 N   0  0  0  0  0  0  0  0  0  0  0  0
   58.9060   33.0080   46.0530 C   0  0  0  0  0  0  0  0  0  0  0  0
   58.1820   33.2790   44.8870 C   0  0  0  0  0  0  0  0  0  0  0  0
   58.2073   34.2886   44.4511 H   0  0  0  0  0  0  0  0  0  0  0  0
   57.4270   32.2770   44.2720 C   0  0  0  0  0  0  0  0  0  0  0  0
   56.8502   32.5059   43.3637 H   0  0  0  0  0  0  0  0  0  0  0  0
   57.4010   30.9810   44.8070 C   0  0  0  0  0  0  0  0  0  0  0  0
   56.4600   29.7160   44.0190 S   0  0  0  0  0  0  0  0  0  0  0  0
   55.9760   30.1910   42.6770 O   0  0  0  0  0  0  0  0  0  0  0  0
   55.2680   29.3710   44.8660 O   0  0  0  0  0  0  0  0  0  0  0  0
   57.4770   28.2740   43.7960 C   0  0  0  0  0  0  0  0  0  0  0  0
   57.7616   27.8705   44.7789 H   0  0  0  0  0  0  0  0  0  0  0  0
   56.9152   27.5122   43.2356 H   0  0  0  0  0  0  0  0  0  0  0  0
   58.3832   28.5475   43.2356 H   0  0  0  0  0  0  0  0  0  0  0  0
   58.1580   30.6940   45.9530 C   0  0  0  0  0  0  0  0  0  0  0  0
   58.1850   29.4370   46.4650 F   0  0  0  0  0  0  0  0  0  0  0  0
   58.9130   31.6980   46.5680 C   0  0  0  0  0  0  0  0  0  0  0  0
   59.5150   31.4628   47.4581 H   0  0  0  0  0  0  0  0  0  0  0  0
   60.9040   34.1460   48.6130 N   0  0  0  0  0  0  0  0  0  0  0  0
   59.7000   34.5700   49.3610 C   0  0  0  0  0  0  0  0  0  0  0  0
   59.9502   35.4390   49.9873 H   0  0  0  0  0  0  0  0  0  0  0  0
   58.9099   34.8353   48.6431 H   0  0  0  0  0  0  0  0  0  0  0  0
   59.2040   33.4500   50.2410 C   0  0  0  0  0  0  0  0  0  0  0  0
   58.9860   32.1680   49.7100 C   0  0  0  0  0  0  0  0  0  0  0  0
   59.2011   31.9711   48.6494 H   0  0  0  0  0  0  0  0  0  0  0  0
   58.4970   31.1410   50.5230 C   0  0  0  0  0  0  0  0  0  0  0  0
   58.3300   30.1389   50.1013 H   0  0  0  0  0  0  0  0  0  0  0  0
   58.2200   31.3860   51.8710 C   0  0  0  0  0  0  0  0  0  0  0  0
   57.6050   30.0980   52.8900 Cl  0  0  0  0  0  0  0  0  0  0  0  0
   58.4330   32.6610   52.4070 C   0  0  0  0  0  0  0  0  0  0  0  0
   58.2161   32.8539   53.4680 H   0  0  0  0  0  0  0  0  0  0  0  0
   58.9210   33.6900   51.5960 C   0  0  0  0  0  0  0  0  0  0  0  0
   59.0840   34.6916   52.0206 H   0  0  0  0  0  0  0  0  0  0  0  0
   62.1100   34.0040   49.2550 C   0  0  0  0  0  0  0  0  0  0  0  0
   62.1860   34.2040   50.5010 O   0  0  0  0  0  0  0  0  0  0  0  0
  1  2  1  0
  2  3  1  0
  3  4  1  0
  3  5  1  0
  3  6  1  0
  6  7  1  0
  6  8  1  0
  6  9  1  0
  9 10  1  0
 10 11  2  0
 10 12  1  0
 12 13  1  0
 13 14  2  0
 14 15  1  0
 15 16  2  0
 16 17  1  0
 16 18  1  0
 18 19  1  0
 18 20  2  0
 20 21  1  0
 21 22  2  0
 21 23  2  0
 21 24  1  0
 24 25  1  0
 24 26  1  0
 24 27  1  0
 20 28  1  0
 28 29  1  0
 28 30  2  0
 30 31  1  0
 13 32  1  0
 32 33  1  0
 33 34  1  0
 33 35  1  0
 33 36  1  0
 36 37  2  0
 37 38  1  0
 37 39  1  0
 39 40  1  0
 39 41  2  0
 41 42  1  0
 41 43  1  0
 43 44  1  0
 43 45  2  0
 45 46  1  0
 32 47  1  0
 47 48  2  0
 47  9  1  0
 30 15  1  0
 45 36  1  0
M  CHG  1  12  -1
M  END
>  <UniqueID>  (65) 
59

>  <SMILES>  (65) 
CS(=O)(=O)c1ccc(/N=c2\[n-]c(=O)n(CCO)c(=O)n2Cc2ccc(Cl)cc2)cc1F

>  <Energy>  (65) 
58.87944374467876

>  <Genealogy>  (65) 
CS(=O)(=O)c1ccc(N=c2[n-]c(=O)n(CCO)c(=O)n2Cc2ccc(Cl)cc2)cc1F (protonated)
CS(=O)(=O)c1ccc(/N=c2\[n-]c(=O)n(CCO)c(=O)n2Cc2ccc(Cl)cc2)cc1F (cis-trans isomerization)
CS(=O)(=O)c1ccc(/N=c2\[n-]c(=O)n(CCO)c(=O)n2Cc2ccc(Cl)cc2)cc1F (3D coordinates assigned)
CS(=O)(=O)c1ccc(/N=c2\[n-]c(=O)n(CCO)c(=O)n2Cc2ccc(Cl)cc2)cc1F (optimized conformer: 58.87944374467876 kcal/mol)

>  <smiles>  (65) 
CS(=O)(=O)c1ccc(N=c2[nH]c(=O)n(CCO)c(=O)n2Cc2ccc(Cl)cc2)cc1F

>  <score_type>  (65) 
oracle

>  <origin>  (65) 
adg

>  <m_score__min__energy>  (65) 
-9.0199999999999996

>  <m_primary>  (65) 
energy

$$$$
65:0
     RDKit          3D

 57 61  0  0  0  0  0  0  0  0999 V2000
   64.3585   32.9007   48.0670 H   0  0  0  0  0  0  0  0  0  0  0  0
   63.3140   33.2410   48.0110 C   0  0  0  0  0  0  0  0  0  0  0  0
   62.7050   33.4180   46.7670 C   0  0  0  0  0  0  0  0  0  0  0  0
   63.2713   33.2211   45.8448 H   0  0  0  0  0  0  0  0  0  0  0  0
   61.3770   33.8450   46.6930 C   0  0  0  0  0  0  0  0  0  0  0  0
   60.9037   33.9904   45.7107 H   0  0  0  0  0  0  0  0  0  0  0  0
   60.6420   34.0900   47.8650 C   0  0  0  0  0  0  0  0  0  0  0  0
   59.2240   34.5840   47.7630 C   0  0  0  0  0  0  0  0  0  0  0  0
   58.8988   34.9707   48.7401 H   0  0  0  0  0  0  0  0  0  0  0  0
   59.1678   35.3881   47.0145 H   0  0  0  0  0  0  0  0  0  0  0  0
   58.3540   33.4810   47.3610 N   0  0  0  0  0  0  0  0  0  0  0  0
   58.2000   33.0880   46.1320 C   0  0  0  0  0  0  0  0  0  0  0  0
   57.6510   31.8650   45.8510 N   0  0  0  0  0  0  0  0  0  0  0  0
   57.4920   31.5150   44.5540 C   0  0  0  0  0  0  0  0  0  0  0  0
   56.8900   30.4090   44.0020 C   0  0  0  0  0  0  0  0  0  0  0  0
   56.3080   29.2660   44.7270 C   0  0  0  0  0  0  0  0  0  0  0  0
   55.1440   29.3680   45.1960 O   0  0  0  0  0  0  0  0  0  0  0  0
   56.9990   28.0200   44.8650 N   0  0  0  0  0  0  0  0  0  0  0  0
   58.1860   27.8070   45.6880 C   0  0  0  0  0  0  0  0  0  0  0  0
   57.9165   27.9067   46.7498 H   0  0  0  0  0  0  0  0  0  0  0  0
   58.5823   26.7985   45.4985 H   0  0  0  0  0  0  0  0  0  0  0  0
   59.2560   28.8440   45.3360 C   0  0  0  0  0  0  0  0  0  0  0  0
   60.2255   28.3367   45.2236 H   0  0  0  0  0  0  0  0  0  0  0  0
   58.9690   29.3389   44.3965 H   0  0  0  0  0  0  0  0  0  0  0  0
   59.3670   29.8690   46.3930 N   0  0  0  0  0  0  0  0  0  0  0  0
   58.5200   29.5780   47.5780 C   0  0  0  0  0  0  0  0  0  0  0  0
   57.6212   30.2122   47.5746 H   0  0  0  0  0  0  0  0  0  0  0  0
   58.1723   28.5344   47.5880 H   0  0  0  0  0  0  0  0  0  0  0  0
   59.3680   29.8880   48.7470 C   0  0  0  0  0  0  0  0  0  0  0  0
   59.0060   29.9120   50.0960 C   0  0  0  0  0  0  0  0  0  0  0  0
   57.9698   29.7095   50.4047 H   0  0  0  0  0  0  0  0  0  0  0  0
   59.9970   30.2010   51.0490 C   0  0  0  0  0  0  0  0  0  0  0  0
   59.7386   30.2304   52.1178 H   0  0  0  0  0  0  0  0  0  0  0  0
   61.3200   30.4530   50.6390 C   0  0  0  0  0  0  0  0  0  0  0  0
   62.0928   30.6802   51.3882 H   0  0  0  0  0  0  0  0  0  0  0  0
   61.6560   30.4150   49.2740 C   0  0  0  0  0  0  0  0  0  0  0  0
   62.6874   30.6061   48.9427 H   0  0  0  0  0  0  0  0  0  0  0  0
   60.6500   30.1290   48.3490 C   0  0  0  0  0  0  0  0  0  0  0  0
   60.7600   30.0160   46.8790 C   0  0  0  0  0  0  0  0  0  0  0  0
   61.2221   30.9204   46.4565 H   0  0  0  0  0  0  0  0  0  0  0  0
   61.3910   29.1664   46.5789 H   0  0  0  0  0  0  0  0  0  0  0  0
   56.9230   30.6330   42.6230 C   0  0  0  0  0  0  0  0  0  0  0  0
   56.5288   29.9382   41.8668 H   0  0  0  0  0  0  0  0  0  0  0  0
   57.5080   31.8250   42.3450 N   0  0  0  0  0  0  0  0  0  0  0  0
   57.6450   32.2580   41.4050 H   0  0  0  0  0  0  0  0  0  0  0  0
   57.8400   32.3460   43.5370 C   0  0  0  0  0  0  0  0  0  0  0  0
   58.3800   33.5660   43.7710 N   0  0  0  0  0  0  0  0  0  0  0  0
   58.5760   33.9510   45.0680 C   0  0  0  0  0  0  0  0  0  0  0  0
   59.0255   34.9305   45.2881 H   0  0  0  0  0  0  0  0  0  0  0  0
   61.2590   33.9300   49.1260 C   0  0  0  0  0  0  0  0  0  0  0  0
   60.5190   34.2090   50.2880 O   0  0  0  0  0  0  0  0  0  0  0  0
   59.4240   33.4290   50.7590 C   0  0  0  0  0  0  0  0  0  0  0  0
   59.4214   33.4272   51.8590 H   0  0  0  0  0  0  0  0  0  0  0  0
   58.4814   33.8603   50.3909 H   0  0  0  0  0  0  0  0  0  0  0  0
   59.5236   32.3972   50.3909 H   0  0  0  0  0  0  0  0  0  0  0  0
   62.6000   33.4950   49.1850 C   0  0  0  0  0  0  0  0  0  0  0  0
   63.0865   33.3549   50.1616 H   0  0  0  0  0  0  0  0  0  0  0  0
  1  2  1  0
  2  3  2  0
  3  4  1  0
  3  5  1  0
  5  6  1  0
  5  7  2  0
  7  8  1  0
  8  9  1  0
  8 10  1  0
  8 11  1  0
 11 12  2  0
 12 13  1  0
 13 14  1  0
 14 15  1  0
 15 16  1  0
 16 17  2  0
 16 18  1  0
 18 19  1  0
 19 20  1  0
 19 21  1  0
 19 22  1  0
 22 23  1  0
 22 24  1  0
 22 25  1  0
 25 26  1  0
 26 27  1  0
 26 28  1  0
 26 29  1  0
 29 30  2  0
 30 31  1  0
 30 32  1  0
 32 33  1  0
 32 34  2  0
 34 35  1  0
 34 36  1  0
 36 37  1  0
 36 38  2  0
 38 39  1  0
 39 40  1  0
 39 41  1  0
 15 42  2  0
 42 43  1  0
 42 44  1  0
 44 45  1  0
 44 46  1  0
 46 47  1  0
 47 48  2  0
 48 49  1  0
  7 50  1  0
 50 51  1  0
 51 52  1  0
 52 53  1  0
 52 54  1  0
 52 55  1  0
 50 56  2  0
 56 57  1  0
 56  2  1  0
 48 12  1  0
 46 14  2  0
 39 25  1  0
 38 29  1  0
M  CHG  2  13  -1  18  -1
M  END
>  <UniqueID>  (66) 
60

>  <SMILES>  (66) 
COc1ccccc1C/N=c1/cnc2[nH]cc(C(=O)[N-]CCN3Cc4ccccc4C3)c2[n-]1

>  <Energy>  (66) 
113.49704360585059

>  <Genealogy>  (66) 
COc1ccccc1CN=c1cnc2[nH]cc(C(=O)[N-]CCN3Cc4ccccc4C3)c2[n-]1 (protonated)
COc1ccccc1C/N=c1/cnc2[nH]cc(C(=O)[N-]CCN3Cc4ccccc4C3)c2[n-]1 (cis-trans isomerization)
COc1ccccc1C/N=c1/cnc2[nH]cc(C(=O)[N-]CCN3Cc4ccccc4C3)c2[n-]1 (3D coordinates assigned)
COc1ccccc1C/N=c1/cnc2[nH]cc(C(=O)[N-]CCN3Cc4ccccc4C3)c2[n-]1 (nonaromatic ring conformer: 113.49704360585059 kcal/mol)

>  <smiles>  (66) 
COc1ccccc1CN=c1cnc2[nH]cc(C(=O)NCCN3Cc4ccccc4C3)c2[nH]1

>  <score_type>  (66) 
oracle

>  <origin>  (66) 
adg

>  <m_score__min__energy>  (66) 
-13.470000000000001

>  <m_primary>  (66) 
energy

$$$$
66:0
     RDKit          3D

 42 44  0  0  0  0  0  0  0  0999 V2000
   59.9975   27.3555   45.1258 H   0  0  0  0  0  0  0  0  0  0  0  0
   58.9270   27.1980   45.3240 C   0  0  0  0  0  0  0  0  0  0  0  0
   58.0480   28.2230   45.1630 N   0  0  0  0  0  0  0  0  0  0  0  0
   56.7130   28.0760   45.3970 C   0  0  0  0  0  0  0  0  0  0  0  0
   55.8840   29.0680   45.2350 N   0  0  0  0  0  0  0  0  0  0  0  0
   55.7120   29.8740   44.0560 C   0  0  0  0  0  0  0  0  0  0  0  0
   54.7530   29.6580   43.2640 O   0  0  0  0  0  0  0  0  0  0  0  0
   56.6700   30.9690   43.7670 C   0  0  0  0  0  0  0  0  0  0  0  0
   57.0140   31.2840   42.4390 C   0  0  0  0  0  0  0  0  0  0  0  0
   56.5670   30.7167   41.6093 H   0  0  0  0  0  0  0  0  0  0  0  0
   57.9200   32.3130   42.1680 C   0  0  0  0  0  0  0  0  0  0  0  0
   58.1823   32.5530   41.1270 H   0  0  0  0  0  0  0  0  0  0  0  0
   58.4930   33.0370   43.2150 C   0  0  0  0  0  0  0  0  0  0  0  0
   59.2060   33.8457   42.9968 H   0  0  0  0  0  0  0  0  0  0  0  0
   58.1630   32.7370   44.5410 C   0  0  0  0  0  0  0  0  0  0  0  0
   58.9180   33.6390   45.8520 S   0  0  0  0  0  0  0  0  0  0  0  0
   57.8860   34.1540   46.8150 O   0  0  0  0  0  0  0  0  0  0  0  0
   59.6650   34.8060   45.2680 O   0  0  0  0  0  0  0  0  0  0  0  0
   60.0300   32.6140   46.7030 N   0  0  0  0  0  0  0  0  0  0  0  0
   60.0130   31.5970   46.4640 H   0  0  0  0  0  0  0  0  0  0  0  0
   60.8610   33.0620   47.7900 C   0  0  0  0  0  0  0  0  0  0  0  0
   60.2670   33.7220   48.8770 C   0  0  0  0  0  0  0  0  0  0  0  0
   59.1777   33.8742   48.8943 H   0  0  0  0  0  0  0  0  0  0  0  0
   61.0490   34.1870   49.9370 C   0  0  0  0  0  0  0  0  0  0  0  0
   60.5744   34.7089   50.7810 H   0  0  0  0  0  0  0  0  0  0  0  0
   62.4320   33.9910   49.9280 C   0  0  0  0  0  0  0  0  0  0  0  0
   63.0456   34.3729   50.7573 H   0  0  0  0  0  0  0  0  0  0  0  0
   63.0400   33.3090   48.8650 C   0  0  0  0  0  0  0  0  0  0  0  0
   64.5290   33.1250   48.8360 C   0  0  0  0  0  0  0  0  0  0  0  0
   64.9127   33.0776   49.8658 H   0  0  0  0  0  0  0  0  0  0  0  0
   64.7727   32.1899   48.3105 H   0  0  0  0  0  0  0  0  0  0  0  0
   64.9930   33.9726   48.3105 H   0  0  0  0  0  0  0  0  0  0  0  0
   62.2550   32.8550   47.7950 C   0  0  0  0  0  0  0  0  0  0  0  0
   62.7316   32.3328   46.9523 H   0  0  0  0  0  0  0  0  0  0  0  0
   57.2510   31.7080   44.8140 C   0  0  0  0  0  0  0  0  0  0  0  0
   56.9871   31.4761   45.8564 H   0  0  0  0  0  0  0  0  0  0  0  0
   56.2220   26.8300   45.8180 C   0  0  0  0  0  0  0  0  0  0  0  0
   54.8650   26.6470   46.0670 O   0  0  0  0  0  0  0  0  0  0  0  0
   57.1100   25.7640   45.9890 C   0  0  0  0  0  0  0  0  0  0  0  0
   56.7361   24.7835   46.3187 H   0  0  0  0  0  0  0  0  0  0  0  0
   58.4710   25.9450   45.7410 C   0  0  0  0  0  0  0  0  0  0  0  0
   59.1764   25.1113   45.8722 H   0  0  0  0  0  0  0  0  0  0  0  0
  1  2  1  0
  2  3  1  0
  3  4  1  0
  4  5  2  0
  5  6  1  0
  6  7  2  0
  6  8  1  0
  8  9  2  0
  9 10  1  0
  9 11  1  0
 11 12  1  0
 11 13  2  0
 13 14  1  0
 13 15  1  0
 15 16  1  0
 16 17  2  0
 16 18  2  0
 16 19  1  0
 19 20  1  0
 19 21  1  0
 21 22  2  0
 22 23  1  0
 22 24  1  0
 24 25  1  0
 24 26  2  0
 26 27  1  0
 26 28  1  0
 28 29  1  0
 29 30  1  0
 29 31  1  0
 29 32  1  0
 28 33  2  0
 33 34  1  0
 15 35  2  0
 35 36  1  0
  4 37  1  0
 37 38  1  0
 37 39  2  0
 39 40  1  0
 39 41  1  0
 41 42  1  0
 41  2  2  0
 35  8  1  0
 33 21  1  0
M  CHG  2   3  -1  38  -1
M  END
>  <UniqueID>  (67) 
61

>  <SMILES>  (67) 
Cc1cccc(NS(=O)(=O)c2cccc(C(=O)/N=c3\[n-]cccc3[O-])c2)c1

>  <Energy>  (67) 
50.89887262515226

>  <Genealogy>  (67) 
Cc1cccc(NS(=O)(=O)c2cccc(C(=O)N=c3[n-]cccc3[O-])c2)c1 (protonated)
Cc1cccc(NS(=O)(=O)c2cccc(C(=O)/N=c3\[n-]cccc3[O-])c2)c1 (cis-trans isomerization)
Cc1cccc(NS(=O)(=O)c2cccc(C(=O)/N=c3\[n-]cccc3[O-])c2)c1 (3D coordinates assigned)
Cc1cccc(NS(=O)(=O)c2cccc(C(=O)/N=c3\[n-]cccc3[O-])c2)c1 (optimized conformer: 50.89887262515226 kcal/mol)

>  <smiles>  (67) 
Cc1cccc(NS(=O)(=O)c2cccc(C(=O)N=c3[nH]cccc3O)c2)c1

>  <score_type>  (67) 
oracle

>  <origin>  (67) 
adg

>  <m_score__min__energy>  (67) 
-14.800000000000001

>  <m_primary>  (67) 
energy

$$$$
67:0
     RDKit          3D

 41 44  0  0  0  0  0  0  0  0999 V2000
   55.6550   26.7950   45.7180 H   0  0  0  0  0  0  0  0  0  0  0  0
   54.7600   26.3290   45.9820 N   0  0  0  0  0  0  0  0  0  0  0  0
   54.4960   24.9780   45.6050 C   0  0  0  0  0  0  0  0  0  0  0  0
   53.3040   24.5710   45.6090 O   0  0  0  0  0  0  0  0  0  0  0  0
   55.6130   24.0750   45.2050 C   0  0  0  0  0  0  0  0  0  0  0  0
   55.3290   22.9410   44.4200 C   0  0  0  0  0  0  0  0  0  0  0  0
   54.2932   22.7440   44.1065 H   0  0  0  0  0  0  0  0  0  0  0  0
   56.3440   22.0630   44.0340 C   0  0  0  0  0  0  0  0  0  0  0  0
   56.1006   21.1815   43.4227 H   0  0  0  0  0  0  0  0  0  0  0  0
   57.6630   22.2960   44.4180 C   0  0  0  0  0  0  0  0  0  0  0  0
   58.4561   21.5974   44.1130 H   0  0  0  0  0  0  0  0  0  0  0  0
   57.9800   23.4220   45.1940 C   0  0  0  0  0  0  0  0  0  0  0  0
   59.2980   23.6970   45.6020 C   0  0  0  0  0  0  0  0  0  0  0  0
   60.2470   22.9300   45.2870 O   0  0  0  0  0  0  0  0  0  0  0  0
   59.5570   24.8010   46.3470 N   0  0  0  0  0  0  0  0  0  0  0  0
   58.5700   25.6620   46.7060 C   0  0  0  0  0  0  0  0  0  0  0  0
   58.8670   26.6980   47.4320 N   0  0  0  0  0  0  0  0  0  0  0  0
   58.2860   28.0070   47.3160 C   0  0  0  0  0  0  0  0  0  0  0  0
   58.1720   28.7100   48.3550 O   0  0  0  0  0  0  0  0  0  0  0  0
   57.8920   28.5750   46.0080 C   0  0  0  0  0  0  0  0  0  0  0  0
   56.6940   28.4950   45.6250 O   0  0  0  0  0  0  0  0  0  0  0  0
   58.9110   29.1800   45.0880 C   0  0  0  0  0  0  0  0  0  0  0  0
   59.8579   29.3130   45.6318 H   0  0  0  0  0  0  0  0  0  0  0  0
   59.0619   28.5095   44.2292 H   0  0  0  0  0  0  0  0  0  0  0  0
   58.4460   30.4790   44.6030 N   0  0  0  0  0  0  0  0  0  0  0  0
   57.7680   30.7030   43.4510 C   0  0  0  0  0  0  0  0  0  0  0  0
   57.5168   29.9282   42.7116 H   0  0  0  0  0  0  0  0  0  0  0  0
   57.4340   32.0470   43.3330 C   0  0  0  0  0  0  0  0  0  0  0  0
   56.8899   32.5293   42.5076 H   0  0  0  0  0  0  0  0  0  0  0  0
   57.9300   32.6470   44.4710 C   0  0  0  0  0  0  0  0  0  0  0  0
   57.8760   33.9750   44.8880 C   0  0  0  0  0  0  0  0  0  0  0  0
   57.3882   34.7447   44.2719 H   0  0  0  0  0  0  0  0  0  0  0  0
   58.4660   34.2990   46.1230 C   0  0  0  0  0  0  0  0  0  0  0  0
   58.4422   35.3378   46.4839 H   0  0  0  0  0  0  0  0  0  0  0  0
   59.0880   33.3010   46.9020 C   0  0  0  0  0  0  0  0  0  0  0  0
   59.5455   33.5676   47.8662 H   0  0  0  0  0  0  0  0  0  0  0  0
   59.1280   31.9680   46.4560 C   0  0  0  0  0  0  0  0  0  0  0  0
   59.6101   31.1826   47.0566 H   0  0  0  0  0  0  0  0  0  0  0  0
   58.5350   31.6730   45.2240 C   0  0  0  0  0  0  0  0  0  0  0  0
   57.2870   25.4050   46.3330 N   0  0  0  0  0  0  0  0  0  0  0  0
   56.9570   24.3160   45.5890 C   0  0  0  0  0  0  0  0  0  0  0  0
  1  2  1  0
  2  3  1  0
  3  4  2  0
  3  5  1  0
  5  6  2  0
  6  7  1  0
  6  8  1  0
  8  9  1  0
  8 10  2  0
 10 11  1  0
 10 12  1  0
 12 13  1  0
 13 14  2  0
 13 15  1  0
 15 16  1  0
 16 17  2  0
 17 18  1  0
 18 19  2  0
 18 20  1  0
 20 21  2  0
 20 22  1  0
 22 23  1  0
 22 24  1  0
 22 25  1  0
 25 26  1  0
 26 27  1  0
 26 28  2  0
 28 29  1  0
 28 30  1  0
 30 31  2  0
 31 32  1  0
 31 33  1  0
 33 34  1  0
 33 35  2  0
 35 36  1  0
 35 37  1  0
 37 38  1  0
 37 39  2  0
 16 40  1  0
 40 41  1  0
 41  5  1  0
 41 12  2  0
 39 25  1  0
 39 30  1  0
M  CHG  3   2  -1  15  -1  40  -1
M  END
>  <UniqueID>  (68) 
62

>  <SMILES>  (68) 
[NH-]C(=O)c1cccc2c(=O)[n-]/c(=N/C(=O)C(=O)Cn3ccc4ccccc43)[n-]c12

>  <Energy>  (68) 
90.07521665815287

>  <Genealogy>  (68) 
[NH-]C(=O)c1cccc2c(=O)[n-]c(=NC(=O)C(=O)Cn3ccc4ccccc43)[n-]c12 (protonated)
[NH-]C(=O)c1cccc2c(=O)[n-]/c(=N/C(=O)C(=O)Cn3ccc4ccccc43)[n-]c12 (cis-trans isomerization)
[NH-]C(=O)c1cccc2c(=O)[n-]/c(=N/C(=O)C(=O)Cn3ccc4ccccc43)[n-]c12 (3D coordinates assigned)
[NH-]C(=O)c1cccc2c(=O)[n-]/c(=N/C(=O)C(=O)Cn3ccc4ccccc43)[n-]c12 (optimized conformer: 90.07521665815287 kcal/mol)

>  <smiles>  (68) 
NC(=O)c1cccc2c(=O)[nH]c(=NC(=O)C(=O)Cn3ccc4ccccc43)[nH]c12

>  <score_type>  (68) 
oracle

>  <origin>  (68) 
adg

>  <m_score__min__energy>  (68) 
-14.35

>  <m_primary>  (68) 
energy

$$$$
68:0
     RDKit          3D

 47 49  0  0  1  0  0  0  0  0999 V2000
   64.6440   35.5110   53.0830 C   0  0  0  0  0  0  0  0  0  0  0  0
   63.8580   34.4490   52.4620 N   0  0  0  0  0  0  0  0  0  0  0  0
   64.0800   34.0370   51.2630 C   0  0  0  0  0  0  0  0  0  0  0  0
   63.2120   34.2640   50.2100 C   0  0  0  0  0  0  0  0  0  0  0  0
   63.4870   33.8010   48.9210 C   0  0  0  0  0  0  0  0  0  0  0  0
   62.6270   34.0210   47.8630 O   0  0  0  0  0  0  0  0  0  0  0  0
   61.5210   33.2480   47.5730 C   0  0  0  0  0  0  0  0  0  0  0  0
   60.2600   33.7580   47.3470 C   0  0  0  0  0  0  0  0  0  0  0  0
   59.1920   32.9150   47.0600 C   0  0  0  0  0  0  0  0  0  0  0  0
   59.4140   31.5530   47.0040 C   0  0  0  0  0  0  0  0  0  0  0  0
   58.3880   30.6080   46.7180 N   0  0  0  0  0  0  0  0  0  0  0  0
   57.8550   30.4130   45.4120 C   0  0  0  0  0  0  0  0  0  0  0  0
   58.2450   31.0580   44.4040 O   0  0  0  0  0  0  0  0  0  0  0  0
   56.8190   29.4110   45.3120 N   0  0  0  0  0  0  0  0  0  0  0  0
   57.0780   28.1870   45.6000 C   0  0  0  0  0  0  0  0  0  0  0  0
   58.4170   27.8990   45.8810 C   0  0  0  0  0  0  0  0  0  0  0  0
   58.8170   26.6150   46.2050 C   0  0  0  0  0  0  0  0  0  0  0  0
   60.2400   26.3350   46.4980 C   0  0  0  0  0  0  0  0  0  0  0  0
   57.8290   25.6510   46.2330 C   0  0  0  0  0  0  0  0  0  0  0  0
   56.5170   25.9830   45.9490 C   0  0  0  0  0  0  0  0  0  0  0  0
   55.5240   24.8780   46.0040 C   0  0  0  0  0  0  0  0  0  0  0  0
   56.1290   27.2340   45.6330 N   0  0  0  0  0  0  0  0  0  0  0  0
   60.6840   31.0080   47.2290 C   0  0  0  0  0  0  0  0  0  0  0  0
   61.7080   31.8790   47.5100 C   0  0  0  0  0  0  0  0  0  0  0  0
   62.9380   31.3480   47.7270 F   0  0  0  0  0  0  0  0  0  0  0  0
   64.6510   33.1210   48.7710 N   0  0  0  0  0  0  0  0  0  0  0  0
   65.4910   32.9050   49.8000 C   0  0  0  0  0  0  0  0  0  0  0  0
   65.2240   33.3550   51.0550 N   0  0  0  0  0  0  0  0  0  0  0  0
   64.5790   35.4231   54.1776 H   0  0  0  0  0  0  0  0  0  0  0  0
   65.6946   35.4207   52.7697 H   0  0  0  0  0  0  0  0  0  0  0  0
   64.2507   36.4893   52.7697 H   0  0  0  0  0  0  0  0  0  0  0  0
   62.2823   34.8229   50.3922 H   0  0  0  0  0  0  0  0  0  0  0  0
   60.0969   34.8448   47.3943 H   0  0  0  0  0  0  0  0  0  0  0  0
   58.1875   33.3259   46.8806 H   0  0  0  0  0  0  0  0  0  0  0  0
   58.0390   30.0510   47.5470 H   0  0  0  0  0  0  0  0  0  0  0  0
   59.1638   28.7058   45.8439 H   0  0  0  0  0  0  0  0  0  0  0  0
   60.3911   26.3053   47.5872 H   0  0  0  0  0  0  0  0  0  0  0  0
   60.5200   25.3645   46.0623 H   0  0  0  0  0  0  0  0  0  0  0  0
   60.8668   27.1270   46.0623 H   0  0  0  0  0  0  0  0  0  0  0  0
   58.0873   24.6114   46.4830 H   0  0  0  0  0  0  0  0  0  0  0  0
   55.3047   24.6340   47.0539 H   0  0  0  0  0  0  0  0  0  0  0  0
   54.5982   25.1915   45.4994 H   0  0  0  0  0  0  0  0  0  0  0  0
   55.9343   23.9909   45.4994 H   0  0  0  0  0  0  0  0  0  0  0  0
   55.1470   27.4840   45.4190 H   0  0  0  0  0  0  0  0  0  0  0  0
   60.8552   29.9224   47.1824 H   0  0  0  0  0  0  0  0  0  0  0  0
   64.9260   32.7410   47.8240 H   0  0  0  0  0  0  0  0  0  0  0  0
   66.4220   32.3474   49.6203 H   0  0  0  0  0  0  0  0  0  0  0  0
  1  2  1  0
  2  3  2  0
  3  4  1  0
  4  5  2  0
  5  6  1  0
  6  7  1  0
  7  8  2  0
  8  9  1  0
  9 10  2  0
 10 11  1  0
 11 12  1  0
 12 13  2  0
 12 14  1  0
 14 15  2  0
 15 16  1  0
 16 17  2  0
 17 18  1  0
 17 19  1  0
 19 20  2  0
 20 21  1  0
 20 22  1  0
 10 23  1  0
 23 24  2  0
 24 25  1  0
  5 26  1  0
 26 27  1  0
 27 28  2  0
 28  3  1  0
 24  7  1  0
 22 15  1  0
  1 29  1  0
  1 30  1  0
  1 31  1  0
  4 32  1  0
  8 33  1  0
  9 34  1  0
 11 35  1  0
 16 36  1  0
 18 37  1  0
 18 38  1  0
 18 39  1  0
 19 40  1  0
 21 41  1  0
 21 42  1  0
 21 43  1  0
 22 44  1  0
 23 45  1  0
 26 46  1  0
 27 47  1  0
M  END
>  <smiles>  (69) 
CN=c1cc(Oc2ccc(NC(=O)N=c3cc(C)cc(C)[nH]3)cc2F)[nH]cn1

>  <score_type>  (69) 
oracle

>  <origin>  (69) 
adg

>  <m_score__min__energy>  (69) 
-7.7400000000000002

>  <m_primary>  (69) 
energy

$$$$
69:0
     RDKit          3D

 32 34  0  0  0  0  0  0  0  0999 V2000
   60.7190   34.1300   48.3550 C   0  0  0  0  0  0  0  0  0  0  0  0
   59.9570   33.3480   49.1280 C   0  0  0  0  0  0  0  0  0  0  0  0
   59.6270   33.7430   50.4340 C   0  0  0  0  0  0  0  0  0  0  0  0
   58.8320   32.9260   51.2420 C   0  0  0  0  0  0  0  0  0  0  0  0
   58.3460   31.6920   50.7630 C   0  0  0  0  0  0  0  0  0  0  0  0
   57.5760   30.9010   51.5440 C   0  0  0  0  0  0  0  0  0  0  0  0
   58.0760   30.0860   52.5060 N   0  0  0  0  0  0  0  0  0  0  0  0
   56.9820   29.5010   53.0190 C   0  0  0  0  0  0  0  0  0  0  0  0
   57.0180   28.6550   53.9520 O   0  0  0  0  0  0  0  0  0  0  0  0
   55.8530   29.9580   52.3850 C   0  0  0  0  0  0  0  0  0  0  0  0
   54.5920   29.5680   52.6250 C   0  0  0  0  0  0  0  0  0  0  0  0
   53.4010   30.4270   52.4260 C   0  0  0  0  0  0  0  0  0  0  0  0
   52.4940   30.5810   53.4870 C   0  0  0  0  0  0  0  0  0  0  0  0
   51.3680   31.3990   53.3450 C   0  0  0  0  0  0  0  0  0  0  0  0
   51.1470   32.0850   52.1480 C   0  0  0  0  0  0  0  0  0  0  0  0
   50.0290   32.8960   52.0080 O   0  0  0  0  0  0  0  0  0  0  0  0
   52.0560   31.9590   51.0940 C   0  0  0  0  0  0  0  0  0  0  0  0
   53.1830   31.1410   51.2320 C   0  0  0  0  0  0  0  0  0  0  0  0
   56.2240   30.8440   51.4410 N   0  0  0  0  0  0  0  0  0  0  0  0
   58.6820   31.3020   49.4490 C   0  0  0  0  0  0  0  0  0  0  0  0
   59.4790   32.1210   48.6430 C   0  0  0  0  0  0  0  0  0  0  0  0
   60.9729   33.8130   47.3327 H   0  0  0  0  0  0  0  0  0  0  0  0
   61.0916   35.0900   48.7417 H   0  0  0  0  0  0  0  0  0  0  0  0
   59.9969   34.7027   50.8241 H   0  0  0  0  0  0  0  0  0  0  0  0
   58.5824   33.2491   52.2634 H   0  0  0  0  0  0  0  0  0  0  0  0
   54.4317   28.5440   52.9935 H   0  0  0  0  0  0  0  0  0  0  0  0
   52.6702   30.0546   54.4367 H   0  0  0  0  0  0  0  0  0  0  0  0
   50.6557   31.5023   54.1768 H   0  0  0  0  0  0  0  0  0  0  0  0
   51.8852   32.5040   50.1539 H   0  0  0  0  0  0  0  0  0  0  0  0
   53.9020   31.0553   50.4039 H   0  0  0  0  0  0  0  0  0  0  0  0
   58.3131   30.3437   49.0546 H   0  0  0  0  0  0  0  0  0  0  0  0
   59.7330   31.8012   47.6216 H   0  0  0  0  0  0  0  0  0  0  0  0
  1  2  2  0
  2  3  1  0
  3  4  2  0
  4  5  1  0
  5  6  2  3
  6  7  1  0
  7  8  1  0
  8  9  2  0
  8 10  1  0
 10 11  2  3
 11 12  1  0
 12 13  2  0
 13 14  1  0
 14 15  2  0
 15 16  1  0
 15 17  1  0
 17 18  2  0
 10 19  1  0
  5 20  1  0
 20 21  2  0
 21  2  1  0
 19  6  1  0
 18 12  1  0
  1 22  1  0
  1 23  1  0
  3 24  1  0
  4 25  1  0
 11 26  1  0
 13 27  1  0
 14 28  1  0
 17 29  1  0
 18 30  1  0
 20 31  1  0
 21 32  1  0
M  CHG  3   7  -1  16  -1  19  -1
M  END
>  <UniqueID>  (70) 
63

>  <SMILES>  (70) 
C=c1ccc(=c2[n-]c(=O)c(=Cc3ccc([O-])cc3)[n-]2)cc1

>  <Energy>  (70) 
73.65381552423169

>  <Genealogy>  (70) 
C=c1ccc(=c2[n-]c(=O)c(=Cc3ccc([O-])cc3)[n-]2)cc1 (protonated)
C=c1ccc(=c2[n-]c(=O)c(=Cc3ccc([O-])cc3)[n-]2)cc1 (3D coordinates assigned)
C=c1ccc(=c2[n-]c(=O)c(=Cc3ccc([O-])cc3)[n-]2)cc1 (optimized conformer: 73.65381552423169 kcal/mol)

>  <smiles>  (70) 
C=c1ccc(=c2[nH]c(=O)c(=Cc3ccc(O)cc3)[nH]2)cc1

>  <score_type>  (70) 
oracle

>  <origin>  (70) 
adg

>  <m_score__min__energy>  (70) 
-12.84

>  <m_primary>  (70) 
energy

$$$$
70:0
     RDKit          3D

 39 42  0  0  0  0  0  0  0  0999 V2000
   55.1990   29.4260   44.8290 N   0  0  0  0  0  0  0  0  0  0  0  0
   56.0400   30.1210   43.9110 C   0  0  0  0  0  0  0  0  0  0  0  0
   55.9050   29.9070   42.6760 O   0  0  0  0  0  0  0  0  0  0  0  0
   57.0590   31.0840   44.3930 C   0  0  0  0  0  0  0  0  0  0  0  0
   57.3760   32.2410   43.6410 C   0  0  0  0  0  0  0  0  0  0  0  0
   58.3470   33.1590   44.0980 C   0  0  0  0  0  0  0  0  0  0  0  0
   59.0180   32.9400   45.3120 C   0  0  0  0  0  0  0  0  0  0  0  0
   58.6920   31.7980   46.0340 C   0  0  0  0  0  0  0  0  0  0  0  0
   59.2080   31.4020   47.2070 N   0  0  0  0  0  0  0  0  0  0  0  0
   58.5400   30.2440   47.4470 C   0  0  0  0  0  0  0  0  0  0  0  0
   58.7680   29.4300   48.6440 C   0  0  0  0  0  0  0  0  0  0  0  0
   58.2240   29.7510   49.7340 O   0  0  0  0  0  0  0  0  0  0  0  0
   59.6070   28.2730   48.5660 N   0  0  0  0  0  0  0  0  0  0  0  0
   60.3850   27.9180   47.3850 C   0  0  0  0  0  0  0  0  0  0  0  0
   59.4760   27.4410   46.2840 C   0  0  0  0  0  0  0  0  0  0  0  0
   59.5710   27.9840   44.9940 C   0  0  0  0  0  0  0  0  0  0  0  0
   58.7120   27.5480   43.9850 C   0  0  0  0  0  0  0  0  0  0  0  0
   57.7460   26.5770   44.2530 C   0  0  0  0  0  0  0  0  0  0  0  0
   57.6210   26.0330   45.5440 C   0  0  0  0  0  0  0  0  0  0  0  0
   56.6050   24.9990   45.8560 C   0  0  0  0  0  0  0  0  0  0  0  0
   56.9090   23.7100   46.0980 N   0  0  0  0  0  0  0  0  0  0  0  0
   55.7110   23.1390   46.3450 C   0  0  0  0  0  0  0  0  0  0  0  0
   55.5850   21.9150   46.6130 O   0  0  0  0  0  0  0  0  0  0  0  0
   54.6600   23.9810   46.2850 N   0  0  0  0  0  0  0  0  0  0  0  0
   55.2380   25.1550   45.9790 C   0  0  0  0  0  0  0  0  0  0  0  0
   54.5270   26.3410   45.8520 O   0  0  0  0  0  0  0  0  0  0  0  0
   58.5020   26.4670   46.5530 C   0  0  0  0  0  0  0  0  0  0  0  0
   57.6420   29.9040   46.4860 N   0  0  0  0  0  0  0  0  0  0  0  0
   57.7560   30.9060   45.5990 C   0  0  0  0  0  0  0  0  0  0  0  0
   55.5130   29.2330   45.8060 H   0  0  0  0  0  0  0  0  0  0  0  0
   56.8591   32.4273   42.6881 H   0  0  0  0  0  0  0  0  0  0  0  0
   58.5793   34.0518   43.4989 H   0  0  0  0  0  0  0  0  0  0  0  0
   59.7757   33.6480   45.6790 H   0  0  0  0  0  0  0  0  0  0  0  0
   60.9420   28.8010   47.0386 H   0  0  0  0  0  0  0  0  0  0  0  0
   61.0841   27.1101   47.6468 H   0  0  0  0  0  0  0  0  0  0  0  0
   60.3247   28.7555   44.7776 H   0  0  0  0  0  0  0  0  0  0  0  0
   58.7964   27.9715   42.9733 H   0  0  0  0  0  0  0  0  0  0  0  0
   57.0778   26.2348   43.4490 H   0  0  0  0  0  0  0  0  0  0  0  0
   58.4260   26.0380   47.5630 H   0  0  0  0  0  0  0  0  0  0  0  0
  1  2  1  0
  2  3  2  0
  2  4  1  0
  4  5  2  0
  5  6  1  0
  6  7  2  0
  7  8  1  0
  8  9  1  0
  9 10  1  0
 10 11  1  0
 11 12  2  0
 11 13  1  0
 13 14  1  0
 14 15  1  0
 15 16  2  0
 16 17  1  0
 17 18  2  0
 18 19  1  0
 19 20  1  0
 20 21  1  0
 21 22  1  0
 22 23  2  0
 22 24  1  0
 24 25  1  0
 25 26  1  0
 19 27  2  0
 10 28  2  0
 28 29  1  0
 29  4  1  0
 29  8  2  0
 27 15  1  0
 25 20  2  0
  1 30  1  0
  5 31  1  0
  6 32  1  0
  7 33  1  0
 14 34  1  0
 14 35  1  0
 16 36  1  0
 17 37  1  0
 18 38  1  0
 27 39  1  0
M  CHG  6   1  -1   9  -1  13  -1  21  -1  24  -1  26  -1
M  END
>  <UniqueID>  (71) 
64

>  <SMILES>  (71) 
[NH-]C(=O)c1cccc2[n-]c(C(=O)[N-]Cc3cccc(-c4[n-]c(=O)[n-]c4[O-])c3)nc12

>  <Energy>  (71) 
108.19658726017077

>  <Genealogy>  (71) 
[NH-]C(=O)c1cccc2[n-]c(C(=O)[N-]Cc3cccc(-c4[n-]c(=O)[n-]c4[O-])c3)nc12 (protonated)
[NH-]C(=O)c1cccc2[n-]c(C(=O)[N-]Cc3cccc(-c4[n-]c(=O)[n-]c4[O-])c3)nc12 (3D coordinates assigned)
[NH-]C(=O)c1cccc2[n-]c(C(=O)[N-]Cc3cccc(-c4[n-]c(=O)[n-]c4[O-])c3)nc12 (optimized conformer: 108.19658726017077 kcal/mol)

>  <smiles>  (71) 
NC(=O)c1cccc2[nH]c(C(=O)NCc3cccc(-c4[nH]c(=O)[nH]c4O)c3)nc12

>  <score_type>  (71) 
oracle

>  <origin>  (71) 
adg

>  <m_score__min__energy>  (71) 
-21.859999999999999

>  <m_primary>  (71) 
energy

$$$$
71:0
     RDKit          3D

 46 49  0  0  0  0  0  0  0  0999 V2000
   63.6540   33.4130   48.8940 C   0  0  0  0  0  0  0  0  0  0  0  0
   62.8250   32.7770   47.4510 S   0  0  0  0  0  0  0  0  0  0  0  0
   63.4850   31.5110   46.9830 O   0  0  0  0  0  0  0  0  0  0  0  0
   62.9050   33.7990   46.3520 O   0  0  0  0  0  0  0  0  0  0  0  0
   61.1540   32.4740   47.8040 N   0  0  0  0  0  0  0  0  0  0  0  0
   60.1410   32.1210   46.8510 C   0  0  0  0  0  0  0  0  0  0  0  0
   59.8110   30.7800   46.5810 C   0  0  0  0  0  0  0  0  0  0  0  0
   58.8030   30.4600   45.6540 C   0  0  0  0  0  0  0  0  0  0  0  0
   58.4430   29.0430   45.3950 C   0  0  0  0  0  0  0  0  0  0  0  0
   58.1430   28.6120   44.0930 C   0  0  0  0  0  0  0  0  0  0  0  0
   57.8020   27.2800   43.8460 C   0  0  0  0  0  0  0  0  0  0  0  0
   57.7530   26.3440   44.8950 C   0  0  0  0  0  0  0  0  0  0  0  0
   57.4060   24.9600   44.6380 N   0  0  0  0  0  0  0  0  0  0  0  0
   56.6960   24.6120   43.3900 C   0  0  0  0  0  0  0  0  0  0  0  0
   56.8920   23.1440   43.0100 C   0  0  0  0  0  0  0  0  0  0  0  0
   56.5550   22.2700   44.1720 C   0  0  0  0  0  0  0  0  0  0  0  0
   55.8980   21.0950   43.9790 N   0  0  0  0  0  0  0  0  0  0  0  0
   55.6120   20.2760   45.0240 C   0  0  0  0  0  0  0  0  0  0  0  0
   54.9930   19.1990   44.8260 O   0  0  0  0  0  0  0  0  0  0  0  0
   55.9990   20.6160   46.2800 N   0  0  0  0  0  0  0  0  0  0  0  0
   56.6630   21.7770   46.5210 C   0  0  0  0  0  0  0  0  0  0  0  0
   57.0190   22.0530   47.6980 O   0  0  0  0  0  0  0  0  0  0  0  0
   56.9460   22.6540   45.4600 C   0  0  0  0  0  0  0  0  0  0  0  0
   57.7120   23.9390   45.6620 C   0  0  0  0  0  0  0  0  0  0  0  0
   58.0570   26.7780   46.1990 C   0  0  0  0  0  0  0  0  0  0  0  0
   58.3970   28.1120   46.4450 C   0  0  0  0  0  0  0  0  0  0  0  0
   58.1360   31.4990   44.9850 C   0  0  0  0  0  0  0  0  0  0  0  0
   58.4650   32.8320   45.2430 C   0  0  0  0  0  0  0  0  0  0  0  0
   59.4600   33.1460   46.1720 C   0  0  0  0  0  0  0  0  0  0  0  0
   59.8370   34.8370   46.4770 Cl  0  0  0  0  0  0  0  0  0  0  0  0
   63.1582   33.0326   49.7992 H   0  0  0  0  0  0  0  0  0  0  0  0
   64.7045   33.0870   48.8869 H   0  0  0  0  0  0  0  0  0  0  0  0
   63.6112   34.5121   48.8869 H   0  0  0  0  0  0  0  0  0  0  0  0
   60.3476   29.9727   47.1010 H   0  0  0  0  0  0  0  0  0  0  0  0
   58.1768   29.3295   43.2599 H   0  0  0  0  0  0  0  0  0  0  0  0
   57.5692   26.9595   42.8198 H   0  0  0  0  0  0  0  0  0  0  0  0
   55.6215   24.8028   43.5276 H   0  0  0  0  0  0  0  0  0  0  0  0
   57.1094   25.2308   42.5800 H   0  0  0  0  0  0  0  0  0  0  0  0
   56.2348   22.8953   42.1637 H   0  0  0  0  0  0  0  0  0  0  0  0
   57.9419   22.9802   42.7256 H   0  0  0  0  0  0  0  0  0  0  0  0
   57.4574   24.3472   46.6512 H   0  0  0  0  0  0  0  0  0  0  0  0
   58.7827   23.7006   45.5797 H   0  0  0  0  0  0  0  0  0  0  0  0
   58.0268   26.0609   47.0326 H   0  0  0  0  0  0  0  0  0  0  0  0
   58.6305   28.4348   47.4703 H   0  0  0  0  0  0  0  0  0  0  0  0
   57.3496   31.2618   44.2533 H   0  0  0  0  0  0  0  0  0  0  0  0
   57.9380   33.6384   44.7120 H   0  0  0  0  0  0  0  0  0  0  0  0
  1  2  1  0
  2  3  2  0
  2  4  2  0
  2  5  1  0
  5  6  1  0
  6  7  2  0
  7  8  1  0
  8  9  1  0
  9 10  2  0
 10 11  1  0
 11 12  2  0
 12 13  1  0
 13 14  1  0
 14 15  1  0
 15 16  1  0
 16 17  1  0
 17 18  1  0
 18 19  2  0
 18 20  1  0
 20 21  1  0
 21 22  2  0
 21 23  1  0
 23 24  1  0
 12 25  1  0
 25 26  2  0
  8 27  2  0
 27 28  1  0
 28 29  2  0
 29 30  1  0
 29  6  1  0
 26  9  1  0
 24 13  1  0
 23 16  2  0
  1 31  1  0
  1 32  1  0
  1 33  1  0
  7 34  1  0
 10 35  1  0
 11 36  1  0
 14 37  1  0
 14 38  1  0
 15 39  1  0
 15 40  1  0
 24 41  1  0
 24 42  1  0
 25 43  1  0
 26 44  1  0
 27 45  1  0
 28 46  1  0
M  CHG  3   5  -1  17  -1  20  -1
M  END
>  <UniqueID>  (72) 
65

>  <SMILES>  (72) 
CS(=O)(=O)[N-]c1cc(-c2ccc(N3CCc4[n-]c(=O)[n-]c(=O)c4C3)cc2)ccc1Cl

>  <Energy>  (72) 
62.461966586875995

>  <Genealogy>  (72) 
CS(=O)(=O)[N-]c1cc(-c2ccc(N3CCc4[n-]c(=O)[n-]c(=O)c4C3)cc2)ccc1Cl (protonated)
CS(=O)(=O)[N-]c1cc(-c2ccc(N3CCc4[n-]c(=O)[n-]c(=O)c4C3)cc2)ccc1Cl (3D coordinates assigned)
CS(=O)(=O)[N-]c1cc(-c2ccc(N3CCc4[n-]c(=O)[n-]c(=O)c4C3)cc2)ccc1Cl (nonaromatic ring conformer: 62.461966586875995 kcal/mol)

>  <smiles>  (72) 
CS(=O)(=O)Nc1cc(-c2ccc(N3CCc4[nH]c(=O)[nH]c(=O)c4C3)cc2)ccc1Cl

>  <score_type>  (72) 
oracle

>  <origin>  (72) 
adg

>  <m_score__min__energy>  (72) 
-12.25

>  <m_primary>  (72) 
energy

$$$$
72:0
     RDKit          3D

 56 59  0  0  0  0  0  0  0  0999 V2000
   56.7960   28.2350   55.9490 C   0  0  0  0  0  0  0  0  0  0  0  0
   55.8590   28.1680   54.8760 O   0  0  0  0  0  0  0  0  0  0  0  0
   55.5030   29.2460   54.0550 C   0  0  0  0  0  0  0  0  0  0  0  0
   54.1620   29.6700   53.9450 C   0  0  0  0  0  0  0  0  0  0  0  0
   53.8100   30.7160   53.0790 C   0  0  0  0  0  0  0  0  0  0  0  0
   52.3910   31.2160   53.0310 C   0  0  0  0  0  0  0  0  0  0  0  0
   51.8690   31.1720   51.6120 C   0  0  0  0  0  0  0  0  0  0  0  0
   51.2370   32.2900   51.0370 C   0  0  0  0  0  0  0  0  0  0  0  0
   51.0300   33.4500   51.7730 O   0  0  0  0  0  0  0  0  0  0  0  0
   50.8200   32.2450   49.7440 N   0  0  0  0  0  0  0  0  0  0  0  0
   51.0070   31.1350   48.9850 C   0  0  0  0  0  0  0  0  0  0  0  0
   50.6100   31.1180   47.7910 O   0  0  0  0  0  0  0  0  0  0  0  0
   51.6200   30.0460   49.5130 N   0  0  0  0  0  0  0  0  0  0  0  0
   52.0550   30.0370   50.8000 C   0  0  0  0  0  0  0  0  0  0  0  0
   52.6190   29.0050   51.2510 O   0  0  0  0  0  0  0  0  0  0  0  0
   54.8030   31.3300   52.3020 C   0  0  0  0  0  0  0  0  0  0  0  0
   56.1330   30.9250   52.4140 C   0  0  0  0  0  0  0  0  0  0  0  0
   56.5010   29.9160   53.3100 C   0  0  0  0  0  0  0  0  0  0  0  0
   57.8710   29.6240   53.4240 O   0  0  0  0  0  0  0  0  0  0  0  0
   58.9060   30.1520   52.5900 C   0  0  0  0  0  0  0  0  0  0  0  0
   59.0560   29.3470   51.2900 C   0  0  0  0  0  0  0  0  0  0  0  0
   60.4830   28.8080   51.1220 C   0  0  0  0  0  0  0  0  0  0  0  0
   61.0550   29.1580   49.7460 C   0  0  0  0  0  0  0  0  0  0  0  0
   60.0720   28.8560   48.7050 N   0  0  0  0  0  0  0  0  0  0  0  0
   59.3970   29.7470   47.9470 C   0  0  0  0  0  0  0  0  0  0  0  0
   59.4700   31.1270   48.1080 O   0  0  0  0  0  0  0  0  0  0  0  0
   58.6530   29.0950   46.9830 C   0  0  0  0  0  0  0  0  0  0  0  0
   58.8890   27.7530   47.1510 C   0  0  0  0  0  0  0  0  0  0  0  0
   59.7700   27.6360   48.2070 C   0  0  0  0  0  0  0  0  0  0  0  0
   60.2980   26.4420   48.6860 O   0  0  0  0  0  0  0  0  0  0  0  0
   58.2980   26.6840   46.2910 C   0  0  0  0  0  0  0  0  0  0  0  0
   57.4640   27.2650   45.1640 C   0  0  0  0  0  0  0  0  0  0  0  0
   57.2400   28.5880   44.9950 C   0  0  0  0  0  0  0  0  0  0  0  0
   57.7930   29.6680   45.9040 C   0  0  0  0  0  0  0  0  0  0  0  0
   56.2586   28.1966   56.9080 H   0  0  0  0  0  0  0  0  0  0  0  0
   57.4901   27.3842   55.8833 H   0  0  0  0  0  0  0  0  0  0  0  0
   57.3620   29.1759   55.8833 H   0  0  0  0  0  0  0  0  0  0  0  0
   53.3840   29.1751   54.5448 H   0  0  0  0  0  0  0  0  0  0  0  0
   51.7601   30.5807   53.6700 H   0  0  0  0  0  0  0  0  0  0  0  0
   52.3644   32.2551   53.3910 H   0  0  0  0  0  0  0  0  0  0  0  0
   54.5320   32.1339   51.6017 H   0  0  0  0  0  0  0  0  0  0  0  0
   56.9016   31.4048   51.7903 H   0  0  0  0  0  0  0  0  0  0  0  0
   58.6629   31.1946   52.3374 H   0  0  0  0  0  0  0  0  0  0  0  0
   59.8554   30.0907   53.1422 H   0  0  0  0  0  0  0  0  0  0  0  0
   58.3545   28.5000   51.3114 H   0  0  0  0  0  0  0  0  0  0  0  0
   58.8384   30.0154   50.4439 H   0  0  0  0  0  0  0  0  0  0  0  0
   61.1254   29.2482   51.8989 H   0  0  0  0  0  0  0  0  0  0  0  0
   60.4519   27.7124   51.2150 H   0  0  0  0  0  0  0  0  0  0  0  0
   61.3008   30.2298   49.7153 H   0  0  0  0  0  0  0  0  0  0  0  0
   61.9629   28.5624   49.5697 H   0  0  0  0  0  0  0  0  0  0  0  0
   59.1122   26.0839   45.8587 H   0  0  0  0  0  0  0  0  0  0  0  0
   57.6408   26.0642   46.9186 H   0  0  0  0  0  0  0  0  0  0  0  0
   57.0147   26.5682   44.4411 H   0  0  0  0  0  0  0  0  0  0  0  0
   56.6170   28.9003   44.1439 H   0  0  0  0  0  0  0  0  0  0  0  0
   58.3933   30.3669   45.3030 H   0  0  0  0  0  0  0  0  0  0  0  0
   56.9454   30.1839   46.3787 H   0  0  0  0  0  0  0  0  0  0  0  0
  1  2  1  0
  2  3  1  0
  3  4  2  0
  4  5  1  0
  5  6  1  0
  6  7  1  0
  7  8  2  0
  8  9  1  0
  8 10  1  0
 10 11  1  0
 11 12  2  0
 11 13  1  0
 13 14  1  0
 14 15  2  0
  5 16  2  0
 16 17  1  0
 17 18  2  0
 18 19  1  0
 19 20  1  0
 20 21  1  0
 21 22  1  0
 22 23  1  0
 23 24  1  0
 24 25  1  0
 25 26  1  0
 25 27  2  0
 27 28  1  0
 28 29  2  0
 29 30  1  0
 28 31  1  0
 31 32  1  0
 32 33  2  0
 33 34  1  0
 18  3  1  0
 29 24  1  0
 14  7  1  0
 34 27  1  0
  1 35  1  0
  1 36  1  0
  1 37  1  0
  4 38  1  0
  6 39  1  0
  6 40  1  0
 16 41  1  0
 17 42  1  0
 20 43  1  0
 20 44  1  0
 21 45  1  0
 21 46  1  0
 22 47  1  0
 22 48  1  0
 23 49  1  0
 23 50  1  0
 31 51  1  0
 31 52  1  0
 32 53  1  0
 33 54  1  0
 34 55  1  0
 34 56  1  0
M  CHG  5   9  -1  10  -1  13  -1  26  -1  30  -1
M  END
>  <UniqueID>  (73) 
66

>  <SMILES>  (73) 
COc1cc(Cc2c([O-])[n-]c(=O)[n-]c2=O)ccc1OCCCCn1c([O-])c2c(c1[O-])CC=CC2

>  <Energy>  (73) 
90.21842681533495

>  <Genealogy>  (73) 
COc1cc(Cc2c([O-])[n-]c(=O)[n-]c2=O)ccc1OCCCCn1c([O-])c2c(c1[O-])CC=CC2 (protonated)
COc1cc(Cc2c([O-])[n-]c(=O)[n-]c2=O)ccc1OCCCCn1c([O-])c2c(c1[O-])CC=CC2 (3D coordinates assigned)
COc1cc(Cc2c([O-])[n-]c(=O)[n-]c2=O)ccc1OCCCCn1c([O-])c2c(c1[O-])CC=CC2 (nonaromatic ring conformer: 90.21842681533495 kcal/mol)

>  <smiles>  (73) 
COc1cc(Cc2c(O)[nH]c(=O)[nH]c2=O)ccc1OCCCCn1c(O)c2c(c1O)CC=CC2

>  <score_type>  (73) 
oracle

>  <origin>  (73) 
adg

>  <m_score__min__energy>  (73) 
-17.809999999999999

>  <m_primary>  (73) 
energy

$$$$
73:0
     RDKit          3D

 43 44  0  0  0  0  0  0  0  0999 V2000
   55.8000   31.2990   53.3080 O   0  0  0  0  0  0  0  0  0  0  0  0
   55.8270   30.5870   52.2690 C   0  0  0  0  0  0  0  0  0  0  0  0
   54.6830   29.6500   51.9750 C   0  0  0  0  0  0  0  0  0  0  0  0
   53.5290   30.3630   51.3190 C   0  0  0  0  0  0  0  0  0  0  0  0
   53.1240   31.6240   51.7850 C   0  0  0  0  0  0  0  0  0  0  0  0
   52.0400   32.2790   51.1930 C   0  0  0  0  0  0  0  0  0  0  0  0
   51.3490   31.6790   50.1370 C   0  0  0  0  0  0  0  0  0  0  0  0
   50.2740   32.3370   49.5500 O   0  0  0  0  0  0  0  0  0  0  0  0
   51.7400   30.4160   49.6730 C   0  0  0  0  0  0  0  0  0  0  0  0
   51.0530   29.8130   48.6260 O   0  0  0  0  0  0  0  0  0  0  0  0
   52.8240   29.7580   50.2640 C   0  0  0  0  0  0  0  0  0  0  0  0
   56.9890   30.6480   51.4310 N   0  0  0  0  0  0  0  0  0  0  0  0
   58.3720   30.5080   51.8780 C   0  0  0  0  0  0  0  0  0  0  0  0
   59.0970   29.4900   51.0500 C   0  0  0  0  0  0  0  0  0  0  0  0
   59.5480   28.4840   51.5740 O   0  0  0  0  0  0  0  0  0  0  0  0
   59.3090   29.7400   49.2820 S   0  0  0  0  0  0  0  0  0  0  0  0
   60.5340   28.4000   49.0760 C   0  0  0  0  0  0  0  0  0  0  0  0
   60.1520   27.4920   47.9120 C   0  0  0  0  0  0  0  0  0  0  0  0
   59.5760   28.2910   46.8380 N   0  0  0  0  0  0  0  0  0  0  0  0
   58.1740   28.3110   46.5480 C   0  0  0  0  0  0  0  0  0  0  0  0
   57.3970   27.5610   47.2000 O   0  0  0  0  0  0  0  0  0  0  0  0
   57.6300   29.1940   45.4830 C   0  0  0  0  0  0  0  0  0  0  0  0
   58.4170   30.2560   44.9960 C   0  0  0  0  0  0  0  0  0  0  0  0
   57.9290   31.1090   44.0030 C   0  0  0  0  0  0  0  0  0  0  0  0
   56.6530   30.9140   43.4770 C   0  0  0  0  0  0  0  0  0  0  0  0
   55.8600   29.8630   43.9420 C   0  0  0  0  0  0  0  0  0  0  0  0
   56.3380   29.0020   44.9350 C   0  0  0  0  0  0  0  0  0  0  0  0
   55.5230   27.9560   45.3560 O   0  0  0  0  0  0  0  0  0  0  0  0
   55.0381   28.8546   51.3033 H   0  0  0  0  0  0  0  0  0  0  0  0
   54.3289   29.2333   52.9294 H   0  0  0  0  0  0  0  0  0  0  0  0
   53.6617   32.0984   52.6191 H   0  0  0  0  0  0  0  0  0  0  0  0
   51.7304   33.2689   51.5593 H   0  0  0  0  0  0  0  0  0  0  0  0
   53.1256   28.7640   49.9020 H   0  0  0  0  0  0  0  0  0  0  0  0
   58.8815   31.4784   51.7845 H   0  0  0  0  0  0  0  0  0  0  0  0
   58.3724   30.1756   52.9266 H   0  0  0  0  0  0  0  0  0  0  0  0
   61.5221   28.8416   48.8798 H   0  0  0  0  0  0  0  0  0  0  0  0
   60.5592   27.8002   49.9978 H   0  0  0  0  0  0  0  0  0  0  0  0
   61.0490   26.9737   47.5422 H   0  0  0  0  0  0  0  0  0  0  0  0
   59.4136   26.7515   48.2531 H   0  0  0  0  0  0  0  0  0  0  0  0
   59.4268   30.4154   45.4020 H   0  0  0  0  0  0  0  0  0  0  0  0
   58.5534   31.9366   43.6353 H   0  0  0  0  0  0  0  0  0  0  0  0
   56.2709   31.5878   42.6959 H   0  0  0  0  0  0  0  0  0  0  0  0
   54.8535   29.7114   43.5249 H   0  0  0  0  0  0  0  0  0  0  0  0
  1  2  2  0
  2  3  1  0
  3  4  1  0
  4  5  2  0
  5  6  1  0
  6  7  2  0
  7  8  1  0
  7  9  1  0
  9 10  1  0
  9 11  2  0
  2 12  1  0
 12 13  1  0
 13 14  1  0
 14 15  2  0
 14 16  1  0
 16 17  1  0
 17 18  1  0
 18 19  1  0
 19 20  1  0
 20 21  2  0
 20 22  1  0
 22 23  2  0
 23 24  1  0
 24 25  2  0
 25 26  1  0
 26 27  2  0
 27 28  1  0
 11  4  1  0
 27 22  1  0
  3 29  1  0
  3 30  1  0
  5 31  1  0
  6 32  1  0
 11 33  1  0
 13 34  1  0
 13 35  1  0
 17 36  1  0
 17 37  1  0
 18 38  1  0
 18 39  1  0
 23 40  1  0
 24 41  1  0
 25 42  1  0
 26 43  1  0
M  CHG  5   8  -1  10  -1  12  -1  19  -1  28  -1
M  END
>  <UniqueID>  (74) 
67

>  <SMILES>  (74) 
O=C(Cc1ccc([O-])c([O-])c1)[N-]CC(=O)SCC[N-]C(=O)c1ccccc1[O-]

>  <Energy>  (74) 
35.28883702567528

>  <Genealogy>  (74) 
O=C(Cc1ccc([O-])c([O-])c1)[N-]CC(=O)SCC[N-]C(=O)c1ccccc1[O-] (protonated)
O=C(Cc1ccc([O-])c([O-])c1)[N-]CC(=O)SCC[N-]C(=O)c1ccccc1[O-] (3D coordinates assigned)
O=C(Cc1ccc([O-])c([O-])c1)[N-]CC(=O)SCC[N-]C(=O)c1ccccc1[O-] (optimized conformer: 35.28883702567528 kcal/mol)

>  <smiles>  (74) 
O=C(Cc1ccc(O)c(O)c1)NCC(=O)SCCNC(=O)c1ccccc1O

>  <score_type>  (74) 
oracle

>  <origin>  (74) 
adg

>  <m_score__min__energy>  (74) 
-21.629999999999999

>  <m_primary>  (74) 
energy

$$$$
74:0
     RDKit          3D

 64 68  0  0  0  0  0  0  0  0999 V2000
   54.8814   30.5816   43.5009 H   0  0  0  0  0  0  0  0  0  0  0  0
   55.5930   29.9700   44.0750 C   0  0  0  0  0  0  0  0  0  0  0  0
   55.2070   29.3450   45.0500 O   0  0  0  0  0  0  0  0  0  0  0  0
   57.0320   29.9090   43.6550 C   0  0  2  0  0  0  0  0  0  0  0  0
   57.1458   29.2659   42.7699 H   0  0  0  0  0  0  0  0  0  0  0  0
   57.8450   29.3250   44.7710 C   0  0  0  0  0  0  0  0  0  0  0  0
   57.8110   28.0420   45.1790 N   0  0  0  0  0  0  0  0  0  0  0  0
   58.6430   28.0270   46.2470 C   0  0  0  0  0  0  0  0  0  0  0  0
   58.8900   26.7880   47.0500 C   0  0  0  0  0  0  0  0  0  0  0  0
   58.8417   27.0301   48.1219 H   0  0  0  0  0  0  0  0  0  0  0  0
   58.1241   26.0361   46.8091 H   0  0  0  0  0  0  0  0  0  0  0  0
   59.8857   26.3873   46.8091 H   0  0  0  0  0  0  0  0  0  0  0  0
   59.1820   29.2420   46.5250 N   0  0  0  0  0  0  0  0  0  0  0  0
   60.0870   29.5580   47.6370 C   0  0  0  0  0  0  0  0  0  0  0  0
   60.6028   28.6397   47.9543 H   0  0  0  0  0  0  0  0  0  0  0  0
   60.8159   30.3082   47.2964 H   0  0  0  0  0  0  0  0  0  0  0  0
   59.3210   30.1240   48.8060 C   0  0  0  0  0  0  0  0  0  0  0  0
   59.0380   29.3270   49.9280 C   0  0  0  0  0  0  0  0  0  0  0  0
   59.3783   28.2814   49.9562 H   0  0  0  0  0  0  0  0  0  0  0  0
   58.3260   29.8560   51.0090 C   0  0  0  0  0  0  0  0  0  0  0  0
   58.1122   29.2278   51.8863 H   0  0  0  0  0  0  0  0  0  0  0  0
   57.8860   31.1810   50.9760 C   0  0  0  0  0  0  0  0  0  0  0  0
   57.3257   31.5956   51.8270 H   0  0  0  0  0  0  0  0  0  0  0  0
   58.1570   31.9800   49.8630 C   0  0  0  0  0  0  0  0  0  0  0  0
   57.8090   33.0232   49.8382 H   0  0  0  0  0  0  0  0  0  0  0  0
   58.8700   31.4560   48.7800 C   0  0  0  0  0  0  0  0  0  0  0  0
   59.0789   32.0881   47.9043 H   0  0  0  0  0  0  0  0  0  0  0  0
   58.6560   30.0610   45.5860 C   0  0  0  0  0  0  0  0  0  0  0  0
   58.8440   31.5040   45.3760 C   0  0  0  0  0  0  0  0  0  0  0  0
   59.5470   32.2710   46.2470 N   0  0  0  0  0  0  0  0  0  0  0  0
   59.7160   33.6010   46.0430 C   0  0  0  0  0  0  0  0  0  0  0  0
   60.3810   34.2970   46.9160 N   0  0  0  0  0  0  0  0  0  0  0  0
   61.6070   33.8920   47.5470 C   0  0  0  0  0  0  0  0  0  0  0  0
   62.7120   33.6070   46.7390 C   0  0  0  0  0  0  0  0  0  0  0  0
   62.6223   33.6872   45.6456 H   0  0  0  0  0  0  0  0  0  0  0  0
   63.9270   33.2220   47.3060 C   0  0  0  0  0  0  0  0  0  0  0  0
   64.7834   32.9881   46.6565 H   0  0  0  0  0  0  0  0  0  0  0  0
   64.0640   33.1310   48.7020 C   0  0  0  0  0  0  0  0  0  0  0  0
   65.3000   32.7310   49.3260 N   0  0  0  0  0  0  0  0  0  0  0  0
   66.2030   33.0300   48.8900 H   0  0  0  0  0  0  0  0  0  0  0  0
   65.4170   31.8040   50.7880 S   0  0  0  0  0  0  0  0  0  0  0  0
   66.6890   31.0040   50.7540 O   0  0  0  0  0  0  0  0  0  0  0  0
   64.2570   30.8560   50.8930 O   0  0  0  0  0  0  0  0  0  0  0  0
   65.4660   32.8870   52.2010 C   0  0  0  0  0  0  0  0  0  0  0  0
   65.4389   32.2880   53.1232 H   0  0  0  0  0  0  0  0  0  0  0  0
   66.3919   33.4804   52.1763 H   0  0  0  0  0  0  0  0  0  0  0  0
   64.5975   33.5616   52.1763 H   0  0  0  0  0  0  0  0  0  0  0  0
   62.9650   33.4520   49.5140 C   0  0  0  0  0  0  0  0  0  0  0  0
   63.0632   33.3903   50.6079 H   0  0  0  0  0  0  0  0  0  0  0  0
   61.7380   33.8520   48.9490 C   0  0  0  0  0  0  0  0  0  0  0  0
   60.6470   34.2370   49.7460 O   0  0  0  0  0  0  0  0  0  0  0  0
   60.4210   33.7930   51.0800 C   0  0  0  0  0  0  0  0  0  0  0  0
   60.8035   34.5445   51.7863 H   0  0  0  0  0  0  0  0  0  0  0  0
   59.3420   33.6532   51.2421 H   0  0  0  0  0  0  0  0  0  0  0  0
   60.9429   32.8383   51.2421 H   0  0  0  0  0  0  0  0  0  0  0  0
   59.1570   34.1880   44.9500 N   0  0  0  0  0  0  0  0  0  0  0  0
   58.4440   33.4660   44.0480 C   0  0  0  0  0  0  0  0  0  0  0  0
   58.0114   33.9628   43.1671 H   0  0  0  0  0  0  0  0  0  0  0  0
   58.2570   32.0870   44.2360 C   0  0  0  0  0  0  0  0  0  0  0  0
   57.5010   31.2690   43.2960 N   0  0  0  0  0  0  0  0  0  0  0  0
   57.1130   31.8080   41.9870 C   0  0  0  0  0  0  0  0  0  0  0  0
   56.4757   32.6933   42.1292 H   0  0  0  0  0  0  0  0  0  0  0  0
   58.0152   32.0921   41.4254 H   0  0  0  0  0  0  0  0  0  0  0  0
   56.5573   31.0426   41.4254 H   0  0  0  0  0  0  0  0  0  0  0  0
  1  2  1  0
  2  3  2  0
  2  4  1  0
  4  5  1  6
  4  6  1  0
  6  7  1  0
  7  8  2  0
  8  9  1  0
  9 10  1  0
  9 11  1  0
  9 12  1  0
  8 13  1  0
 13 14  1  0
 14 15  1  0
 14 16  1  0
 14 17  1  0
 17 18  2  0
 18 19  1  0
 18 20  1  0
 20 21  1  0
 20 22  2  0
 22 23  1  0
 22 24  1  0
 24 25  1  0
 24 26  2  0
 26 27  1  0
 13 28  1  0
 28 29  1  0
 29 30  2  0
 30 31  1  0
 31 32  2  0
 32 33  1  0
 33 34  2  0
 34 35  1  0
 34 36  1  0
 36 37  1  0
 36 38  2  0
 38 39  1  0
 39 40  1  0
 39 41  1  0
 41 42  2  0
 41 43  2  0
 41 44  1  0
 44 45  1  0
 44 46  1  0
 44 47  1  0
 38 48  1  0
 48 49  1  0
 48 50  2  0
 50 51  1  0
 51 52  1  0
 52 53  1  0
 52 54  1  0
 52 55  1  0
 31 56  1  0
 56 57  1  0
 57 58  1  0
 57 59  2  0
 59 60  1  0
 60 61  1  0
 61 62  1  0
 61 63  1  0
 61 64  1  0
 60  4  1  0
 28  6  2  0
 59 29  1  0
 26 17  1  0
 50 33  1  0
M  CHG  1  56  -1
M  END
>  <UniqueID>  (75) 
68

>  <SMILES>  (75) 
COc1cc(NS(C)(=O)=O)ccc1/N=c1/nc2c(c[n-]1)N(C)[C@H](C=O)c1nc(C)n(Cc3ccccc3)c1-2

>  <Energy>  (75) 
110.41552256571168

>  <Genealogy>  (75) 
COc1cc(NS(C)(=O)=O)ccc1N=c1nc2c(c[n-]1)N(C)C(C=O)c1nc(C)n(Cc3ccccc3)c1-2 (protonated)
COc1cc(NS(C)(=O)=O)ccc1N=c1nc2c(c[n-]1)N(C)[C@H](C=O)c1nc(C)n(Cc3ccccc3)c1-2 (chirality)
COc1cc(NS(C)(=O)=O)ccc1/N=c1/nc2c(c[n-]1)N(C)[C@H](C=O)c1nc(C)n(Cc3ccccc3)c1-2 (cis-trans isomerization)
COc1cc(NS(C)(=O)=O)ccc1/N=c1/nc2c(c[n-]1)N(C)[C@H](C=O)c1nc(C)n(Cc3ccccc3)c1-2 (3D coordinates assigned)
COc1cc(NS(C)(=O)=O)ccc1/N=c1/nc2c(c[n-]1)N(C)[C@H](C=O)c1nc(C)n(Cc3ccccc3)c1-2 (nonaromatic ring conformer: 110.41552256571168 kcal/mol)

>  <smiles>  (75) 
COc1cc(NS(C)(=O)=O)ccc1N=c1nc2c(c[nH]1)N(C)C(C=O)c1nc(C)n(Cc3ccccc3)c1-2

>  <score_type>  (75) 
oracle

>  <origin>  (75) 
adg

>  <m_score__min__energy>  (75) 
-10.869999999999999

>  <m_primary>  (75) 
energy

$$$$
75:0
     RDKit          3D

 26 27  0  0  0  0  0  0  0  0999 V2000
   54.6780   28.9640   45.3060 H   0  0  0  0  0  0  0  0  0  0  0  0
   55.6690   29.1300   45.1810 O   0  0  0  0  0  0  0  0  0  0  0  0
   56.6250   28.1390   45.4110 C   0  0  0  0  0  0  0  0  0  0  0  0
   56.2020   26.8700   45.8300 C   0  0  0  0  0  0  0  0  0  0  0  0
   54.8500   26.6120   46.0170 O   0  0  0  0  0  0  0  0  0  0  0  0
   57.1390   25.8580   46.0610 C   0  0  0  0  0  0  0  0  0  0  0  0
   56.8035   24.8630   46.3889 H   0  0  0  0  0  0  0  0  0  0  0  0
   58.4990   26.1090   45.8760 C   0  0  0  0  0  0  0  0  0  0  0  0
   59.2338   25.3110   46.0582 H   0  0  0  0  0  0  0  0  0  0  0  0
   58.9300   27.3710   45.4600 C   0  0  0  0  0  0  0  0  0  0  0  0
   60.0037   27.5625   45.3166 H   0  0  0  0  0  0  0  0  0  0  0  0
   57.9970   28.4000   45.2230 C   0  0  0  0  0  0  0  0  0  0  0  0
   58.3880   29.6820   44.8040 O   0  0  0  0  0  0  0  0  0  0  0  0
   57.8170   30.4110   43.7170 C   0  0  0  0  0  0  0  0  0  0  0  0
   56.8011   30.0343   43.5270 H   0  0  0  0  0  0  0  0  0  0  0  0
   58.4549   30.2718   42.8317 H   0  0  0  0  0  0  0  0  0  0  0  0
   57.7450   31.8830   44.0250 C   0  0  0  0  0  0  0  0  0  0  0  0
   57.9990   32.7030   43.1050 O   0  0  0  0  0  0  0  0  0  0  0  0
   57.3320   32.3940   45.3040 N   0  0  0  0  0  0  0  0  0  0  0  0
   58.0370   33.0560   46.1760 C   0  0  0  0  0  0  0  0  0  0  0  0
   58.1690   32.6340   47.4510 N   0  0  0  0  0  0  0  0  0  0  0  0
   58.9120   33.4960   48.1960 C   0  0  0  0  0  0  0  0  0  0  0  0
   59.1352   33.3152   49.2578 H   0  0  0  0  0  0  0  0  0  0  0  0
   59.3690   34.6210   47.5210 C   0  0  0  0  0  0  0  0  0  0  0  0
   59.9820   35.4280   47.9489 H   0  0  0  0  0  0  0  0  0  0  0  0
   58.8190   34.5310   45.9330 S   0  0  0  0  0  0  0  0  0  0  0  0
  1  2  1  0
  2  3  1  0
  3  4  2  0
  4  5  1  0
  4  6  1  0
  6  7  1  0
  6  8  2  0
  8  9  1  0
  8 10  1  0
 10 11  1  0
 10 12  2  0
 12 13  1  0
 13 14  1  0
 14 15  1  0
 14 16  1  0
 14 17  1  0
 17 18  2  0
 17 19  1  0
 19 20  2  0
 20 21  1  0
 21 22  1  0
 22 23  1  0
 22 24  2  0
 24 25  1  0
 24 26  1  0
 12  3  1  0
 26 20  1  0
M  CHG  2   5  -1  21  -1
M  END
>  <UniqueID>  (76) 
69

>  <SMILES>  (76) 
O=C(COc1cccc([O-])c1O)/N=c1/[n-]ccs1

>  <Energy>  (76) 
62.4668935198655

>  <Genealogy>  (76) 
O=C(COc1cccc([O-])c1O)N=c1[n-]ccs1 (protonated)
O=C(COc1cccc([O-])c1O)/N=c1/[n-]ccs1 (cis-trans isomerization)
O=C(COc1cccc([O-])c1O)/N=c1/[n-]ccs1 (3D coordinates assigned)
O=C(COc1cccc([O-])c1O)/N=c1/[n-]ccs1 (optimized conformer: 62.4668935198655 kcal/mol)

>  <smiles>  (76) 
O=C(COc1cccc(O)c1O)N=c1[nH]ccs1

>  <score_type>  (76) 
oracle

>  <origin>  (76) 
adg

>  <m_score__min__energy>  (76) 
-11.699999999999999

>  <m_primary>  (76) 
energy

$$$$
76:0
     RDKit          3D

 37 39  0  0  0  0  0  0  0  0999 V2000
   60.5570   34.1800   48.4230 O   0  0  0  0  0  0  0  0  0  0  0  0
   60.5270   33.2620   47.5590 C   0  0  0  0  0  0  0  0  0  0  0  0
   61.6110   32.3170   47.4770 N   0  0  0  0  0  0  0  0  0  0  0  0
   62.7130   32.2790   48.4000 C   0  0  0  0  0  0  0  0  0  0  0  0
   63.8240   33.1310   48.2540 C   0  0  0  0  0  0  0  0  0  0  0  0
   64.8690   33.0910   49.1820 C   0  0  0  0  0  0  0  0  0  0  0  0
   64.8090   32.2150   50.2690 C   0  0  0  0  0  0  0  0  0  0  0  0
   63.6980   31.3830   50.4350 C   0  0  0  0  0  0  0  0  0  0  0  0
   62.6510   31.4210   49.5090 C   0  0  0  0  0  0  0  0  0  0  0  0
   59.3700   33.1860   46.6350 C   0  0  0  0  0  0  0  0  0  0  0  0
   58.8890   34.3590   46.0260 C   0  0  0  0  0  0  0  0  0  0  0  0
   57.7950   34.3090   45.1590 C   0  0  0  0  0  0  0  0  0  0  0  0
   57.1800   33.0900   44.8740 C   0  0  0  0  0  0  0  0  0  0  0  0
   57.6730   31.9020   45.4400 C   0  0  0  0  0  0  0  0  0  0  0  0
   57.0570   30.6330   45.1740 N   0  0  0  0  0  0  0  0  0  0  0  0
   57.7390   29.3920   44.9510 C   0  0  0  0  0  0  0  0  0  0  0  0
   58.7430   29.3830   44.1900 O   0  0  0  0  0  0  0  0  0  0  0  0
   57.2490   28.1210   45.5290 C   0  0  0  0  0  0  0  0  0  0  0  0
   58.1350   27.1910   46.0910 C   0  0  0  0  0  0  0  0  0  0  0  0
   57.6340   26.0000   46.6130 C   0  0  0  0  0  0  0  0  0  0  0  0
   56.2620   25.7590   46.5580 C   0  0  0  0  0  0  0  0  0  0  0  0
   55.7830   24.6910   47.0230 O   0  0  0  0  0  0  0  0  0  0  0  0
   55.4420   26.6840   45.9960 N   0  0  0  0  0  0  0  0  0  0  0  0
   55.9200   27.8240   45.4960 N   0  0  0  0  0  0  0  0  0  0  0  0
   58.7530   31.9590   46.3300 C   0  0  0  0  0  0  0  0  0  0  0  0
   61.6410   31.6430   46.6800 H   0  0  0  0  0  0  0  0  0  0  0  0
   63.8702   33.8309   47.4066 H   0  0  0  0  0  0  0  0  0  0  0  0
   65.7403   33.7506   49.0561 H   0  0  0  0  0  0  0  0  0  0  0  0
   65.6357   32.1801   50.9938 H   0  0  0  0  0  0  0  0  0  0  0  0
   63.6474   30.6982   51.2944 H   0  0  0  0  0  0  0  0  0  0  0  0
   61.7727   30.7740   49.6507 H   0  0  0  0  0  0  0  0  0  0  0  0
   59.3777   35.3223   46.2339 H   0  0  0  0  0  0  0  0  0  0  0  0
   57.4172   35.2342   44.6994 H   0  0  0  0  0  0  0  0  0  0  0  0
   56.3074   33.0585   44.2049 H   0  0  0  0  0  0  0  0  0  0  0  0
   59.2147   27.3994   46.1196 H   0  0  0  0  0  0  0  0  0  0  0  0
   58.3122   25.2598   47.0625 H   0  0  0  0  0  0  0  0  0  0  0  0
   59.1230   31.0338   46.7959 H   0  0  0  0  0  0  0  0  0  0  0  0
  1  2  2  0
  2  3  1  0
  3  4  1  0
  4  5  2  0
  5  6  1  0
  6  7  2  0
  7  8  1  0
  8  9  2  0
  2 10  1  0
 10 11  2  0
 11 12  1  0
 12 13  2  0
 13 14  1  0
 14 15  1  0
 15 16  1  0
 16 17  2  0
 16 18  1  0
 18 19  1  0
 19 20  2  0
 20 21  1  0
 21 22  2  0
 21 23  1  0
 23 24  1  0
 14 25  2  0
  9  4  1  0
 25 10  1  0
 24 18  2  0
  3 26  1  0
  5 27  1  0
  6 28  1  0
  7 29  1  0
  8 30  1  0
  9 31  1  0
 11 32  1  0
 12 33  1  0
 13 34  1  0
 19 35  1  0
 20 36  1  0
 25 37  1  0
M  CHG  2  15  -1  23  -1
M  END
>  <UniqueID>  (77) 
70

>  <SMILES>  (77) 
O=C(Nc1ccccc1)c1cccc([N-]C(=O)c2ccc(=O)[n-]n2)c1

>  <Energy>  (77) 
54.29971008951673

>  <Genealogy>  (77) 
O=C(Nc1ccccc1)c1cccc([N-]C(=O)c2ccc(=O)[n-]n2)c1 (protonated)
O=C(Nc1ccccc1)c1cccc([N-]C(=O)c2ccc(=O)[n-]n2)c1 (3D coordinates assigned)
O=C(Nc1ccccc1)c1cccc([N-]C(=O)c2ccc(=O)[n-]n2)c1 (optimized conformer: 54.29971008951673 kcal/mol)

>  <smiles>  (77) 
O=C(Nc1ccccc1)c1cccc(NC(=O)c2ccc(=O)[nH]n2)c1

>  <score_type>  (77) 
oracle

>  <origin>  (77) 
adg

>  <m_score__min__energy>  (77) 
-12.18

>  <m_primary>  (77) 
energy

$$$$
77:0
     RDKit          3D

 53 56  0  0  0  0  0  0  0  0999 V2000
   59.5748   27.1859   48.1949 H   0  0  0  0  0  0  0  0  0  0  0  0
   59.0550   26.5840   47.4350 C   0  0  0  0  0  0  0  0  0  0  0  0
   58.9273   25.5016   47.5836 H   0  0  0  0  0  0  0  0  0  0  0  0
   58.5760   27.1710   46.3250 C   0  0  0  0  0  0  0  0  0  0  0  0
   57.8960   26.5390   45.2750 C   0  0  0  0  0  0  0  0  0  0  0  0
   57.5830   25.2270   45.1860 C   0  0  0  0  0  0  0  0  0  0  0  0
   58.3918   24.5363   44.9053 H   0  0  0  0  0  0  0  0  0  0  0  0
   56.2480   24.6380   45.4330 C   0  0  0  0  0  0  0  0  0  0  0  0
   55.9150   23.3420   45.2890 N   0  0  0  0  0  0  0  0  0  0  0  0
   54.6000   23.3170   45.5890 C   0  0  0  0  0  0  0  0  0  0  0  0
   53.9190   22.2580   45.5700 O   0  0  0  0  0  0  0  0  0  0  0  0
   54.0690   24.5160   45.9100 N   0  0  0  0  0  0  0  0  0  0  0  0
   55.1240   25.3400   45.8020 C   0  0  0  0  0  0  0  0  0  0  0  0
   55.0600   26.7080   46.0360 O   0  0  0  0  0  0  0  0  0  0  0  0
   57.6340   27.5310   44.3350 C   0  0  0  0  0  0  0  0  0  0  0  0
   57.1216   27.4022   43.3702 H   0  0  0  0  0  0  0  0  0  0  0  0
   58.1420   28.7090   44.8480 C   0  0  0  0  0  0  0  0  0  0  0  0
   58.0920   30.0330   44.1460 C   0  0  0  0  0  0  0  0  0  0  0  0
   58.0614   30.8420   44.8907 H   0  0  0  0  0  0  0  0  0  0  0  0
   58.9864   30.1481   43.5161 H   0  0  0  0  0  0  0  0  0  0  0  0
   57.1914   30.0803   43.5161 H   0  0  0  0  0  0  0  0  0  0  0  0
   58.7180   28.4910   46.0500 N   0  0  0  0  0  0  0  0  0  0  0  0
   59.3460   29.4920   46.8720 C   0  0  0  0  0  0  0  0  0  0  0  0
   58.8910   29.7210   48.1770 C   0  0  0  0  0  0  0  0  0  0  0  0
   58.0441   29.1406   48.5718 H   0  0  0  0  0  0  0  0  0  0  0  0
   59.5090   30.6840   48.9790 C   0  0  0  0  0  0  0  0  0  0  0  0
   59.1418   30.8591   50.0010 H   0  0  0  0  0  0  0  0  0  0  0  0
   60.5910   31.4280   48.4940 C   0  0  0  0  0  0  0  0  0  0  0  0
   61.1730   32.3830   49.3450 O   0  0  0  0  0  0  0  0  0  0  0  0
   61.1340   33.7970   49.1550 C   0  0  0  0  0  0  0  0  0  0  0  0
   61.6496   34.2904   49.9921 H   0  0  0  0  0  0  0  0  0  0  0  0
   61.6336   34.0454   48.2070 H   0  0  0  0  0  0  0  0  0  0  0  0
   59.6730   34.2870   49.0970 C   0  0  0  0  0  0  0  0  0  0  0  0
   59.0598   33.6087   49.7085 H   0  0  0  0  0  0  0  0  0  0  0  0
   59.6777   35.3218   49.4701 H   0  0  0  0  0  0  0  0  0  0  0  0
   59.0900   34.3360   47.7380 N   0  0  0  0  0  0  0  0  0  0  0  0
   60.0840   34.3990   46.6550 C   0  0  0  0  0  0  0  0  0  0  0  0
   60.8110   35.1960   46.8701 H   0  0  0  0  0  0  0  0  0  0  0  0
   60.6087   33.4350   46.5816 H   0  0  0  0  0  0  0  0  0  0  0  0
   59.3700   34.7000   45.3200 C   0  0  0  0  0  0  0  0  0  0  0  0
   59.6036   35.7324   45.0206 H   0  0  0  0  0  0  0  0  0  0  0  0
   59.7293   33.9712   44.5786 H   0  0  0  0  0  0  0  0  0  0  0  0
   57.9600   34.5610   45.4110 O   0  0  0  0  0  0  0  0  0  0  0  0
   57.6310   33.3220   46.0090 C   0  0  0  0  0  0  0  0  0  0  0  0
   56.5417   33.1764   45.9611 H   0  0  0  0  0  0  0  0  0  0  0  0
   58.1489   32.5189   45.4642 H   0  0  0  0  0  0  0  0  0  0  0  0
   58.0810   33.2890   47.4830 C   0  0  0  0  0  0  0  0  0  0  0  0
   57.2093   33.4603   48.1317 H   0  0  0  0  0  0  0  0  0  0  0  0
   58.5255   32.3060   47.6978 H   0  0  0  0  0  0  0  0  0  0  0  0
   61.0460   31.1970   47.1800 C   0  0  0  0  0  0  0  0  0  0  0  0
   61.8920   31.7779   46.7839 H   0  0  0  0  0  0  0  0  0  0  0  0
   60.4280   30.2340   46.3780 C   0  0  0  0  0  0  0  0  0  0  0  0
   60.7919   30.0574   45.3551 H   0  0  0  0  0  0  0  0  0  0  0  0
  1  2  1  0
  2  3  1  0
  2  4  2  0
  4  5  1  0
  5  6  2  0
  6  7  1  0
  6  8  1  0
  8  9  1  0
  9 10  1  0
 10 11  2  0
 10 12  1  0
 12 13  1  0
 13 14  1  0
  5 15  1  0
 15 16  1  0
 15 17  2  0
 17 18  1  0
 18 19  1  0
 18 20  1  0
 18 21  1  0
 17 22  1  0
 22 23  1  0
 23 24  2  0
 24 25  1  0
 24 26  1  0
 26 27  1  0
 26 28  2  0
 28 29  1  0
 29 30  1  0
 30 31  1  0
 30 32  1  0
 30 33  1  0
 33 34  1  0
 33 35  1  0
 33 36  1  0
 36 37  1  0
 37 38  1  0
 37 39  1  0
 37 40  1  0
 40 41  1  0
 40 42  1  0
 40 43  1  0
 43 44  1  0
 44 45  1  0
 44 46  1  0
 44 47  1  0
 47 48  1  0
 47 49  1  0
 28 50  1  0
 50 51  1  0
 50 52  2  0
 52 53  1  0
 22  4  1  0
 52 23  1  0
 13  8  2  0
 47 36  1  0
M  CHG  3   9  -1  12  -1  14  -1
M  END
>  <UniqueID>  (78) 
71

>  <SMILES>  (78) 
C=c1/c(=C/c2[n-]c(=O)[n-]c2[O-])cc(C)n1-c1ccc(OCCN2CCOCC2)cc1

>  <Energy>  (78) 
136.21812142736087

>  <Genealogy>  (78) 
C=c1c(=Cc2[n-]c(=O)[n-]c2[O-])cc(C)n1-c1ccc(OCCN2CCOCC2)cc1 (protonated)
C=c1/c(=C/c2[n-]c(=O)[n-]c2[O-])cc(C)n1-c1ccc(OCCN2CCOCC2)cc1 (cis-trans isomerization)
C=c1/c(=C/c2[n-]c(=O)[n-]c2[O-])cc(C)n1-c1ccc(OCCN2CCOCC2)cc1 (3D coordinates assigned)
C=c1/c(=C/c2[n-]c(=O)[n-]c2[O-])cc(C)n1-c1ccc(OCCN2CCOCC2)cc1 (nonaromatic ring conformer: 136.21812142736087 kcal/mol)

>  <smiles>  (78) 
C=c1c(=Cc2[nH]c(=O)[nH]c2O)cc(C)n1-c1ccc(OCCN2CCOCC2)cc1

>  <score_type>  (78) 
oracle

>  <origin>  (78) 
adg

>  <m_score__min__energy>  (78) 
-15.539999999999999

>  <m_primary>  (78) 
energy

$$$$
78:0
     RDKit          3D

 58 60  0  0  0  0  0  0  0  0999 V2000
   56.5700   22.3430   49.0630 C   0  0  0  0  0  0  0  0  0  0  0  0
   55.4150   22.0190   48.1230 C   0  0  0  0  0  0  0  0  0  0  0  0
   55.6780   22.5230   46.8160 O   0  0  0  0  0  0  0  0  0  0  0  0
   55.2970   23.7980   46.3890 C   0  0  0  0  0  0  0  0  0  0  0  0
   54.0750   24.0990   46.3120 O   0  0  0  0  0  0  0  0  0  0  0  0
   56.3210   24.7840   45.9830 C   0  0  0  0  0  0  0  0  0  0  0  0
   57.6550   24.4860   45.6810 C   0  0  0  0  0  0  0  0  0  0  0  0
   58.3140   23.2290   45.8520 N   0  0  0  0  0  0  0  0  0  0  0  0
   58.4360   25.8740   45.1390 S   0  0  0  0  0  0  0  0  0  0  0  0
   57.1010   26.8860   45.2740 C   0  0  0  0  0  0  0  0  0  0  0  0
   57.0700   28.3310   44.8790 C   0  0  0  0  0  0  0  0  0  0  0  0
   58.3560   29.0210   45.2460 C   0  0  0  0  0  0  0  0  0  0  0  0
   59.3530   28.8890   44.4850 O   0  0  0  0  0  0  0  0  0  0  0  0
   58.4720   29.8090   46.4480 N   0  0  0  0  0  0  0  0  0  0  0  0
   58.6310   29.1590   47.7530 C   0  0  0  0  0  0  0  0  0  0  0  0
   59.6110   27.9940   47.6590 C   0  0  0  0  0  0  0  0  0  0  0  0
   58.5230   31.2400   46.3810 C   0  0  0  0  0  0  0  0  0  0  0  0
   57.8860   32.0490   45.4570 C   0  0  0  0  0  0  0  0  0  0  0  0
   57.0350   31.6260   44.3030 C   0  0  0  0  0  0  0  0  0  0  0  0
   58.2580   33.3440   45.7740 C   0  0  0  0  0  0  0  0  0  0  0  0
   57.8360   34.4730   45.0730 O   0  0  0  0  0  0  0  0  0  0  0  0
   59.0810   33.3590   46.8510 N   0  0  0  0  0  0  0  0  0  0  0  0
   59.7420   34.5140   47.4610 C   0  0  0  0  0  0  0  0  0  0  0  0
   61.1850   34.1950   47.7510 C   0  0  0  0  0  0  0  0  0  0  0  0
   61.6610   34.2170   49.0730 C   0  0  0  0  0  0  0  0  0  0  0  0
   62.9920   33.8880   49.3500 C   0  0  0  0  0  0  0  0  0  0  0  0
   63.8550   33.5300   48.3100 C   0  0  0  0  0  0  0  0  0  0  0  0
   63.3890   33.5010   46.9940 C   0  0  0  0  0  0  0  0  0  0  0  0
   62.0590   33.8300   46.7130 C   0  0  0  0  0  0  0  0  0  0  0  0
   59.2470   32.0670   47.2100 C   0  0  0  0  0  0  0  0  0  0  0  0
   60.0360   31.6430   48.2730 O   0  0  0  0  0  0  0  0  0  0  0  0
   56.0300   26.1450   45.7660 C   0  0  0  0  0  0  0  0  0  0  0  0
   54.7770   26.7020   45.9960 O   0  0  0  0  0  0  0  0  0  0  0  0
   56.2320   22.2482   50.1055 H   0  0  0  0  0  0  0  0  0  0  0  0
   57.3984   21.6426   48.8810 H   0  0  0  0  0  0  0  0  0  0  0  0
   56.9133   23.3721   48.8810 H   0  0  0  0  0  0  0  0  0  0  0  0
   55.2860   20.9278   48.0709 H   0  0  0  0  0  0  0  0  0  0  0  0
   54.4995   22.4914   48.5086 H   0  0  0  0  0  0  0  0  0  0  0  0
   59.3410   23.1580   45.6830 H   0  0  0  0  0  0  0  0  0  0  0  0
   57.8240   22.3960   46.2390 H   0  0  0  0  0  0  0  0  0  0  0  0
   56.9214   28.4030   43.7915 H   0  0  0  0  0  0  0  0  0  0  0  0
   56.2447   28.8221   45.4155 H   0  0  0  0  0  0  0  0  0  0  0  0
   59.0115   29.8933   48.4782 H   0  0  0  0  0  0  0  0  0  0  0  0
   57.6533   28.7734   48.0776 H   0  0  0  0  0  0  0  0  0  0  0  0
   59.8877   27.6650   48.6715 H   0  0  0  0  0  0  0  0  0  0  0  0
   59.1387   27.1602   47.1188 H   0  0  0  0  0  0  0  0  0  0  0  0
   60.5133   28.3166   47.1188 H   0  0  0  0  0  0  0  0  0  0  0  0
   56.1094   31.1659   44.6792 H   0  0  0  0  0  0  0  0  0  0  0  0
   56.7849   32.5047   43.6903 H   0  0  0  0  0  0  0  0  0  0  0  0
   57.5845   30.8962   43.6903 H   0  0  0  0  0  0  0  0  0  0  0  0
   56.9580   34.5000   44.5740 H   0  0  0  0  0  0  0  0  0  0  0  0
   59.6906   35.3686   46.7703 H   0  0  0  0  0  0  0  0  0  0  0  0
   59.2329   34.7618   48.4041 H   0  0  0  0  0  0  0  0  0  0  0  0
   60.9835   34.4943   49.8941 H   0  0  0  0  0  0  0  0  0  0  0  0
   63.3598   33.9110   50.3864 H   0  0  0  0  0  0  0  0  0  0  0  0
   64.9015   33.2711   48.5285 H   0  0  0  0  0  0  0  0  0  0  0  0
   64.0692   33.2189   46.1768 H   0  0  0  0  0  0  0  0  0  0  0  0
   61.6956   33.8029   45.6751 H   0  0  0  0  0  0  0  0  0  0  0  0
  1  2  1  0
  2  3  1  0
  3  4  1  0
  4  5  2  0
  4  6  1  0
  6  7  2  0
  7  8  1  0
  7  9  1  0
  9 10  1  0
 10 11  1  0
 11 12  1  0
 12 13  2  0
 12 14  1  0
 14 15  1  0
 15 16  1  0
 14 17  1  0
 17 18  1  0
 18 19  1  0
 18 20  2  0
 20 21  1  0
 20 22  1  0
 22 23  1  0
 23 24  1  0
 24 25  2  0
 25 26  1  0
 26 27  2  0
 27 28  1  0
 28 29  2  0
 22 30  1  0
 30 31  1  0
 10 32  2  0
 32 33  1  0
 32  6  1  0
 30 17  2  0
 29 24  1  0
  1 34  1  0
  1 35  1  0
  1 36  1  0
  2 37  1  0
  2 38  1  0
  8 39  1  0
  8 40  1  0
 11 41  1  0
 11 42  1  0
 15 43  1  0
 15 44  1  0
 16 45  1  0
 16 46  1  0
 16 47  1  0
 19 48  1  0
 19 49  1  0
 19 50  1  0
 21 51  1  0
 23 52  1  0
 23 53  1  0
 25 54  1  0
 26 55  1  0
 27 56  1  0
 28 57  1  0
 29 58  1  0
M  CHG  2  31  -1  33  -1
M  END
>  <UniqueID>  (79) 
72

>  <SMILES>  (79) 
CCOC(=O)c1c(N)sc(CC(=O)N(CC)c2c(C)c(O)n(Cc3ccccc3)c2[O-])c1[O-]

>  <Energy>  (79) 
109.3682373611191

>  <Genealogy>  (79) 
CCOC(=O)c1c(N)sc(CC(=O)N(CC)c2c(C)c(O)n(Cc3ccccc3)c2[O-])c1[O-] (protonated)
CCOC(=O)c1c(N)sc(CC(=O)N(CC)c2c(C)c(O)n(Cc3ccccc3)c2[O-])c1[O-] (3D coordinates assigned)
CCOC(=O)c1c(N)sc(CC(=O)N(CC)c2c(C)c(O)n(Cc3ccccc3)c2[O-])c1[O-] (optimized conformer: 109.3682373611191 kcal/mol)

>  <smiles>  (79) 
CCOC(=O)c1c(N)sc(CC(=O)N(CC)c2c(C)c(O)n(Cc3ccccc3)c2O)c1O

>  <score_type>  (79) 
oracle

>  <origin>  (79) 
adg

>  <m_score__min__energy>  (79) 
-12.83

>  <m_primary>  (79) 
energy

$$$$
79:0
     RDKit          3D

 38 40  0  0  0  0  0  0  0  0999 V2000
   55.1780   29.3680   45.0660 N   0  0  0  0  0  0  0  0  0  0  0  0
   56.0990   30.0760   44.4770 C   0  0  0  0  0  0  0  0  0  0  0  0
   56.5260   31.3160   44.8020 N   0  0  0  0  0  0  0  0  0  0  0  0
   57.4870   31.6130   43.8990 C   0  0  0  0  0  0  0  0  0  0  0  0
   58.3590   33.1850   43.9380 S   0  0  0  0  0  0  0  0  0  0  0  0
   57.7840   34.1680   45.3770 C   0  0  0  0  0  0  0  0  0  0  0  0
   58.4960   33.5740   46.5540 C   0  0  0  0  0  0  0  0  0  0  0  0
   59.3490   34.2810   47.1530 O   0  0  0  0  0  0  0  0  0  0  0  0
   58.1830   32.2490   46.9440 N   0  0  0  0  0  0  0  0  0  0  0  0
   58.7740   31.5650   48.0310 C   0  0  0  0  0  0  0  0  0  0  0  0
   58.9120   32.3010   49.2140 C   0  0  0  0  0  0  0  0  0  0  0  0
   59.4510   31.7440   50.3570 C   0  0  0  0  0  0  0  0  0  0  0  0
   59.8620   30.4240   50.3250 C   0  0  0  0  0  0  0  0  0  0  0  0
   59.7230   29.7170   49.1680 C   0  0  0  0  0  0  0  0  0  0  0  0
   59.1810   30.2550   47.9990 C   0  0  0  0  0  0  0  0  0  0  0  0
   59.1010   29.3820   46.8560 C   0  0  0  0  0  0  0  0  0  0  0  0
   59.9770   29.6510   45.7980 C   0  0  0  0  0  0  0  0  0  0  0  0
   59.9880   28.8970   44.6460 C   0  0  0  0  0  0  0  0  0  0  0  0
   59.1230   27.8350   44.4890 C   0  0  0  0  0  0  0  0  0  0  0  0
   58.2430   27.5510   45.5290 C   0  0  0  0  0  0  0  0  0  0  0  0
   58.2510   28.3300   46.6880 C   0  0  0  0  0  0  0  0  0  0  0  0
   57.6530   30.5890   43.0380 N   0  0  0  0  0  0  0  0  0  0  0  0
   56.7890   29.6340   43.3980 N   0  0  0  0  0  0  0  0  0  0  0  0
   54.7720   28.5650   44.5010 H   0  0  0  0  0  0  0  0  0  0  0  0
   58.0534   35.2275   45.2552 H   0  0  0  0  0  0  0  0  0  0  0  0
   56.6906   34.1351   45.4927 H   0  0  0  0  0  0  0  0  0  0  0  0
   57.4660   31.7370   46.3920 H   0  0  0  0  0  0  0  0  0  0  0  0
   58.5825   33.3503   49.2335 H   0  0  0  0  0  0  0  0  0  0  0  0
   59.5516   32.3396   51.2763 H   0  0  0  0  0  0  0  0  0  0  0  0
   60.2944   29.9519   51.2195 H   0  0  0  0  0  0  0  0  0  0  0  0
   60.0550   28.6684   49.1545 H   0  0  0  0  0  0  0  0  0  0  0  0
   60.6797   30.4923   45.8899 H   0  0  0  0  0  0  0  0  0  0  0  0
   60.6956   29.1450   43.8411 H   0  0  0  0  0  0  0  0  0  0  0  0
   59.1283   27.2307   43.5699 H   0  0  0  0  0  0  0  0  0  0  0  0
   57.5392   26.7106   45.4379 H   0  0  0  0  0  0  0  0  0  0  0  0
   57.5450   28.0854   47.4953 H   0  0  0  0  0  0  0  0  0  0  0  0
   58.3190   30.5510   42.2530 H   0  0  0  0  0  0  0  0  0  0  0  0
   56.6570   28.6920   42.9320 H   0  0  0  0  0  0  0  0  0  0  0  0
  1  2  2  3
  2  3  1  0
  3  4  2  0
  4  5  1  0
  5  6  1  0
  6  7  1  0
  7  8  2  0
  7  9  1  0
  9 10  1  0
 10 11  2  0
 11 12  1  0
 12 13  2  0
 13 14  1  0
 14 15  2  0
 15 16  1  0
 16 17  2  0
 17 18  1  0
 18 19  2  0
 19 20  1  0
 20 21  2  0
  4 22  1  0
 22 23  1  0
 23  2  1  0
 15 10  1  0
 21 16  1  0
  1 24  1  0
  6 25  1  0
  6 26  1  0
  9 27  1  0
 11 28  1  0
 12 29  1  0
 13 30  1  0
 14 31  1  0
 17 32  1  0
 18 33  1  0
 19 34  1  0
 20 35  1  0
 21 36  1  0
 22 37  1  0
 23 38  1  0
M  END
>  <smiles>  (80) 
N=c1nc(SCC(=O)Nc2ccccc2-c2ccccc2)[nH][nH]1

>  <score_type>  (80) 
oracle

>  <origin>  (80) 
adg

>  <m_score__min__energy>  (80) 
-7.8799999999999999

>  <m_primary>  (80) 
energy

$$$$
80:0
     RDKit          3D

 21 22  0  0  0  0  0  0  0  0999 V2000
   54.7690   29.3350   44.1210 O   0  0  0  0  0  0  0  0  0  0  0  0
   55.9800   29.6760   44.1880 C   0  0  0  0  0  0  0  0  0  0  0  0
   56.3410   31.0070   43.9710 C   0  0  0  0  0  0  0  0  0  0  0  0
   57.6920   31.3570   44.0560 C   0  0  0  0  0  0  0  0  0  0  0  0
   58.1400   32.7630   43.7910 C   0  0  0  0  0  0  0  0  0  0  0  0
   58.4730   33.4450   45.0790 C   0  0  0  0  0  0  0  0  0  0  0  0
   59.2580   34.5830   45.2180 C   0  0  0  0  0  0  0  0  0  0  0  0
   59.4630   34.9500   46.5530 C   0  0  0  0  0  0  0  0  0  0  0  0
   58.8530   34.0970   47.4650 C   0  0  0  0  0  0  0  0  0  0  0  0
   58.0620   32.8840   46.6100 S   0  0  0  0  0  0  0  0  0  0  0  0
   58.6160   30.3960   44.3270 N   0  0  0  0  0  0  0  0  0  0  0  0
   58.2500   29.1060   44.5370 C   0  0  0  0  0  0  0  0  0  0  0  0
   59.3970   27.9870   44.8650 S   0  0  0  0  0  0  0  0  0  0  0  0
   56.9360   28.7500   44.4690 N   0  0  0  0  0  0  0  0  0  0  0  0
   55.5784   31.7647   43.7380 H   0  0  0  0  0  0  0  0  0  0  0  0
   59.0314   32.7459   43.1468 H   0  0  0  0  0  0  0  0  0  0  0  0
   57.3287   33.3122   43.2909 H   0  0  0  0  0  0  0  0  0  0  0  0
   59.6758   35.1389   44.3657 H   0  0  0  0  0  0  0  0  0  0  0  0
   60.0512   35.8301   46.8520 H   0  0  0  0  0  0  0  0  0  0  0  0
   58.8826   34.1981   48.5599 H   0  0  0  0  0  0  0  0  0  0  0  0
   56.6550   27.7560   44.6300 H   0  0  0  0  0  0  0  0  0  0  0  0
  1  2  2  0
  2  3  1  0
  3  4  2  0
  4  5  1  0
  5  6  1  0
  6  7  2  0
  7  8  1  0
  8  9  2  0
  9 10  1  0
  4 11  1  0
 11 12  1  0
 12 13  2  0
 12 14  1  0
 14  2  1  0
 10  6  1  0
  3 15  1  0
  5 16  1  0
  5 17  1  0
  7 18  1  0
  8 19  1  0
  9 20  1  0
 14 21  1  0
M  CHG  1  11  -1
M  END
>  <UniqueID>  (81) 
73

>  <SMILES>  (81) 
O=c1cc(Cc2cccs2)[n-]c(=S)[nH]1

>  <Energy>  (81) 
45.796122126373234

>  <Genealogy>  (81) 
O=c1cc(Cc2cccs2)[n-]c(=S)[nH]1 (protonated)
O=c1cc(Cc2cccs2)[n-]c(=S)[nH]1 (3D coordinates assigned)
O=c1cc(Cc2cccs2)[n-]c(=S)[nH]1 (optimized conformer: 45.796122126373234 kcal/mol)

>  <smiles>  (81) 
O=c1cc(Cc2cccs2)[nH]c(=S)[nH]1

>  <score_type>  (81) 
oracle

>  <origin>  (81) 
adg

>  <m_score__min__energy>  (81) 
-7.6200000000000001

>  <m_primary>  (81) 
energy

$$$$
81:0
     RDKit          3D

 38 40  0  0  0  0  0  0  0  0999 V2000
   62.3792   34.2075   50.4345 H   0  0  0  0  0  0  0  0  0  0  0  0
   63.3470   33.7670   50.1530 C   0  0  0  0  0  0  0  0  0  0  0  0
   63.6460   33.0860   48.9830 C   0  0  0  0  0  0  0  0  0  0  0  0
   62.7240   32.8040   47.8710 C   0  0  0  0  0  0  0  0  0  0  0  0
   63.1970   32.3780   46.7830 O   0  0  0  0  0  0  0  0  0  0  0  0
   61.3130   33.0470   48.0010 N   0  0  0  0  0  0  0  0  0  0  0  0
   60.9940   33.7300   48.7230 H   0  0  0  0  0  0  0  0  0  0  0  0
   60.3240   32.5140   47.1030 C   0  0  0  0  0  0  0  0  0  0  0  0
   59.5160   33.3560   46.3160 C   0  0  0  0  0  0  0  0  0  0  0  0
   59.6233   34.4479   46.3955 H   0  0  0  0  0  0  0  0  0  0  0  0
   58.5780   32.8120   45.4340 C   0  0  0  0  0  0  0  0  0  0  0  0
   57.9462   33.4777   44.8276 H   0  0  0  0  0  0  0  0  0  0  0  0
   58.4390   31.4240   45.3190 C   0  0  0  0  0  0  0  0  0  0  0  0
   57.2500   30.7480   44.2110 S   0  0  0  0  0  0  0  0  0  0  0  0
   57.3310   31.4280   42.8720 O   0  0  0  0  0  0  0  0  0  0  0  0
   55.8760   30.9520   44.7840 O   0  0  0  0  0  0  0  0  0  0  0  0
   57.5340   29.0520   43.9980 N   0  0  0  0  0  0  0  0  0  0  0  0
   57.0830   28.1640   44.8250 C   0  0  0  0  0  0  0  0  0  0  0  0
   55.8390   28.0880   45.2380 O   0  0  0  0  0  0  0  0  0  0  0  0
   55.6940   27.0920   46.0630 N   0  0  0  0  0  0  0  0  0  0  0  0
   56.9010   26.4970   46.1730 C   0  0  0  0  0  0  0  0  0  0  0  0
   57.1840   25.3460   47.0770 C   0  0  0  0  0  0  0  0  0  0  0  0
   57.1034   25.6736   48.1240 H   0  0  0  0  0  0  0  0  0  0  0  0
   56.4565   24.5431   46.8870 H   0  0  0  0  0  0  0  0  0  0  0  0
   58.2009   24.9720   46.8870 H   0  0  0  0  0  0  0  0  0  0  0  0
   57.8310   27.1650   45.3990 C   0  0  0  0  0  0  0  0  0  0  0  0
   58.9026   26.9503   45.2739 H   0  0  0  0  0  0  0  0  0  0  0  0
   59.2600   30.5800   46.0800 C   0  0  0  0  0  0  0  0  0  0  0  0
   59.1643   29.4883   45.9845 H   0  0  0  0  0  0  0  0  0  0  0  0
   60.2000   31.1240   46.9600 C   0  0  0  0  0  0  0  0  0  0  0  0
   60.8485   30.4560   47.5458 H   0  0  0  0  0  0  0  0  0  0  0  0
   64.9020   32.7020   48.9970 O   0  0  0  0  0  0  0  0  0  0  0  0
   65.4390   33.1040   50.1240 C   0  0  0  0  0  0  0  0  0  0  0  0
   66.8010   32.8600   50.4830 N   0  0  0  0  0  0  0  0  0  0  0  0
   67.6360   33.7890   50.4770 O   0  0  0  0  0  0  0  0  0  0  0  0
   67.2000   31.5930   50.8400 O   0  0  0  0  0  0  0  0  0  0  0  0
   64.5120   33.7790   50.8920 C   0  0  0  0  0  0  0  0  0  0  0  0
   64.6687   34.2306   51.8827 H   0  0  0  0  0  0  0  0  0  0  0  0
  1  2  1  0
  2  3  2  0
  3  4  1  0
  4  5  2  0
  4  6  1  0
  6  7  1  0
  6  8  1  0
  8  9  2  0
  9 10  1  0
  9 11  1  0
 11 12  1  0
 11 13  2  0
 13 14  1  0
 14 15  2  0
 14 16  2  0
 14 17  1  0
 17 18  2  0
 18 19  1  0
 19 20  1  0
 20 21  1  0
 21 22  1  0
 22 23  1  0
 22 24  1  0
 22 25  1  0
 21 26  2  0
 26 27  1  0
 13 28  1  0
 28 29  1  0
 28 30  2  0
 30 31  1  0
  3 32  1  0
 32 33  1  0
 33 34  1  0
 34 35  2  0
 34 36  1  0
 33 37  2  0
 37 38  1  0
 37  2  1  0
 30  8  1  0
 26 18  1  0
M  CHG  3  20  -1  34   1  36  -1
M  END
>  <UniqueID>  (82) 
74

>  <SMILES>  (82) 
Cc1c/c(=N/S(=O)(=O)c2ccc(NC(=O)c3ccc([N+](=O)[O-])o3)cc2)o[n-]1

>  <Energy>  (82) 
101.44982500946314

>  <Genealogy>  (82) 
Cc1cc(=NS(=O)(=O)c2ccc(NC(=O)c3ccc([N+](=O)[O-])o3)cc2)o[n-]1 (protonated)
Cc1c/c(=N/S(=O)(=O)c2ccc(NC(=O)c3ccc([N+](=O)[O-])o3)cc2)o[n-]1 (cis-trans isomerization)
Cc1c/c(=N/S(=O)(=O)c2ccc(NC(=O)c3ccc([N+](=O)[O-])o3)cc2)o[n-]1 (3D coordinates assigned)
Cc1c/c(=N/S(=O)(=O)c2ccc(NC(=O)c3ccc([N+](=O)[O-])o3)cc2)o[n-]1 (optimized conformer: 101.44982500946314 kcal/mol)

>  <smiles>  (82) 
Cc1cc(=NS(=O)(=O)c2ccc(NC(=O)c3ccc([N+](=O)[O-])o3)cc2)o[nH]1

>  <score_type>  (82) 
oracle

>  <origin>  (82) 
adg

>  <m_score__min__energy>  (82) 
-10.73

>  <m_primary>  (82) 
energy

$$$$
82:0
     RDKit          3D

 39 41  0  0  0  0  0  0  0  0999 V2000
   50.5600   33.0680   52.0890 O   0  0  0  0  0  0  0  0  0  0  0  0
   51.2710   32.3490   51.3370 C   0  0  0  0  0  0  0  0  0  0  0  0
   51.0160   32.3460   49.9700 O   0  0  0  0  0  0  0  0  0  0  0  0
   52.3610   31.5200   51.8980 C   0  0  0  0  0  0  0  0  0  0  0  0
   53.3890   31.0440   51.0690 C   0  0  0  0  0  0  0  0  0  0  0  0
   54.4200   30.2590   51.5960 C   0  0  0  0  0  0  0  0  0  0  0  0
   54.4460   29.9360   52.9640 C   0  0  0  0  0  0  0  0  0  0  0  0
   55.5390   29.1070   53.5240 C   0  0  0  0  0  0  0  0  0  0  0  0
   55.2690   28.0240   54.1100 O   0  0  0  0  0  0  0  0  0  0  0  0
   56.9050   29.5100   53.3510 N   0  0  0  0  0  0  0  0  0  0  0  0
   57.4390   30.2800   52.2650 C   0  0  0  0  0  0  0  0  0  0  0  0
   58.1900   29.6910   51.2290 C   0  0  0  0  0  0  0  0  0  0  0  0
   58.7110   30.4820   50.2000 C   0  0  0  0  0  0  0  0  0  0  0  0
   58.4990   31.8670   50.1970 C   0  0  0  0  0  0  0  0  0  0  0  0
   59.1430   32.8670   48.8990 S   0  0  0  0  0  0  0  0  0  0  0  0
   59.7110   34.1460   49.4490 O   0  0  0  0  0  0  0  0  0  0  0  0
   58.0350   33.1950   47.9400 O   0  0  0  0  0  0  0  0  0  0  0  0
   60.3940   32.0100   48.0550 N   0  0  0  0  0  0  0  0  0  0  0  0
   61.5970   32.4680   47.8900 C   0  0  0  0  0  0  0  0  0  0  0  0
   62.6090   32.0920   48.7220 N   0  0  0  0  0  0  0  0  0  0  0  0
   63.8710   32.5660   48.5480 C   0  0  0  0  0  0  0  0  0  0  0  0
   64.1430   33.4500   47.5050 C   0  0  0  0  0  0  0  0  0  0  0  0
   63.0970   33.8260   46.6640 C   0  0  0  0  0  0  0  0  0  0  0  0
   61.8490   33.3300   46.8700 N   0  0  0  0  0  0  0  0  0  0  0  0
   57.7790   32.4570   51.2430 C   0  0  0  0  0  0  0  0  0  0  0  0
   57.2590   31.6680   52.2730 C   0  0  0  0  0  0  0  0  0  0  0  0
   53.4160   30.4140   53.7920 C   0  0  0  0  0  0  0  0  0  0  0  0
   52.3850   31.1980   53.2660 C   0  0  0  0  0  0  0  0  0  0  0  0
   53.3838   31.2901   49.9969 H   0  0  0  0  0  0  0  0  0  0  0  0
   55.2177   29.8911   50.9339 H   0  0  0  0  0  0  0  0  0  0  0  0
   58.3673   28.6054   51.2293 H   0  0  0  0  0  0  0  0  0  0  0  0
   59.2897   30.0148   49.3895 H   0  0  0  0  0  0  0  0  0  0  0  0
   64.6761   32.2526   49.2289 H   0  0  0  0  0  0  0  0  0  0  0  0
   65.1591   33.8416   47.3494 H   0  0  0  0  0  0  0  0  0  0  0  0
   63.2818   34.5239   45.8340 H   0  0  0  0  0  0  0  0  0  0  0  0
   57.6220   33.5457   51.2542 H   0  0  0  0  0  0  0  0  0  0  0  0
   56.7040   32.1416   53.0962 H   0  0  0  0  0  0  0  0  0  0  0  0
   53.4211   30.1689   54.8643 H   0  0  0  0  0  0  0  0  0  0  0  0
   51.5867   31.5656   53.9275 H   0  0  0  0  0  0  0  0  0  0  0  0
  1  2  2  0
  2  3  1  0
  2  4  1  0
  4  5  2  0
  5  6  1  0
  6  7  2  0
  7  8  1  0
  8  9  2  0
  8 10  1  0
 10 11  1  0
 11 12  2  0
 12 13  1  0
 13 14  2  0
 14 15  1  0
 15 16  2  0
 15 17  2  0
 15 18  1  0
 18 19  2  3
 19 20  1  0
 20 21  2  0
 21 22  1  0
 22 23  2  0
 23 24  1  0
 14 25  1  0
 25 26  2  0
  7 27  1  0
 27 28  2  0
 28  4  1  0
 26 11  1  0
 24 19  1  0
  5 29  1  0
  6 30  1  0
 12 31  1  0
 13 32  1  0
 21 33  1  0
 22 34  1  0
 23 35  1  0
 25 36  1  0
 26 37  1  0
 27 38  1  0
 28 39  1  0
M  CHG  3   3  -1  10  -1  24  -1
M  END
>  <UniqueID>  (83) 
75

>  <SMILES>  (83) 
O=C([O-])c1ccc(C(=O)[N-]c2ccc(S(=O)(=O)N=c3nccc[n-]3)cc2)cc1

>  <Energy>  (83) 
51.13191104573923

>  <Genealogy>  (83) 
O=C([O-])c1ccc(C(=O)[N-]c2ccc(S(=O)(=O)N=c3nccc[n-]3)cc2)cc1 (protonated)
O=C([O-])c1ccc(C(=O)[N-]c2ccc(S(=O)(=O)N=c3nccc[n-]3)cc2)cc1 (3D coordinates assigned)
O=C([O-])c1ccc(C(=O)[N-]c2ccc(S(=O)(=O)N=c3nccc[n-]3)cc2)cc1 (optimized conformer: 51.13191104573923 kcal/mol)

>  <smiles>  (83) 
O=C(O)c1ccc(C(=O)Nc2ccc(S(=O)(=O)N=c3nccc[nH]3)cc2)cc1

>  <score_type>  (83) 
oracle

>  <origin>  (83) 
adg

>  <m_score__min__energy>  (83) 
-13.24

>  <m_primary>  (83) 
energy

$$$$
83:0
     RDKit          3D

 43 45  0  0  0  0  0  0  0  0999 V2000
   55.7657   30.0753   52.5772 H   0  0  0  0  0  0  0  0  0  0  0  0
   55.1990   29.4960   53.3210 C   0  0  0  0  0  0  0  0  0  0  0  0
   55.8860   28.3640   53.9680 C   0  0  0  0  0  0  0  0  0  0  0  0
   55.6250   27.1750   53.6340 O   0  0  0  0  0  0  0  0  0  0  0  0
   56.8660   28.6290   54.9300 O   0  0  0  0  0  0  0  0  0  0  0  0
   57.9830   29.4800   54.6870 C   0  0  0  0  0  0  0  0  0  0  0  0
   57.6847   30.5268   54.8462 H   0  0  0  0  0  0  0  0  0  0  0  0
   58.7962   29.2141   55.3784 H   0  0  0  0  0  0  0  0  0  0  0  0
   58.4510   29.3130   53.3070 C   0  0  0  0  0  0  0  0  0  0  0  0
   58.8260   29.1850   52.1680 C   0  0  0  0  0  0  0  0  0  0  0  0
   59.2830   29.0260   50.7850 C   0  0  0  0  0  0  0  0  0  0  0  0
   60.3154   28.6464   50.7854 H   0  0  0  0  0  0  0  0  0  0  0  0
   58.6205   28.3157   50.2687 H   0  0  0  0  0  0  0  0  0  0  0  0
   59.2310   30.6270   49.9130 S   0  0  0  0  0  0  0  0  0  0  0  0
   58.6430   29.9280   48.3720 C   0  0  0  0  0  0  0  0  0  0  0  0
   58.5130   28.6090   48.1450 N   0  0  0  0  0  0  0  0  0  0  0  0
   58.0520   28.4940   46.9100 N   0  0  0  0  0  0  0  0  0  0  0  0
   57.9200   29.7480   46.4300 C   0  0  0  0  0  0  0  0  0  0  0  0
   57.4330   30.0900   45.0740 C   0  0  0  0  0  0  0  0  0  0  0  0
   58.1470   31.0280   44.3070 C   0  0  0  0  0  0  0  0  0  0  0  0
   59.0543   31.4927   44.7204 H   0  0  0  0  0  0  0  0  0  0  0  0
   57.7140   31.3750   43.0240 C   0  0  0  0  0  0  0  0  0  0  0  0
   58.2805   32.1096   42.4329 H   0  0  0  0  0  0  0  0  0  0  0  0
   56.5630   30.7900   42.4920 C   0  0  0  0  0  0  0  0  0  0  0  0
   56.2236   31.0639   41.4821 H   0  0  0  0  0  0  0  0  0  0  0  0
   55.8430   29.8580   43.2410 C   0  0  0  0  0  0  0  0  0  0  0  0
   54.9366   29.3994   42.8190 H   0  0  0  0  0  0  0  0  0  0  0  0
   56.2690   29.5040   44.5270 C   0  0  0  0  0  0  0  0  0  0  0  0
   55.5250   28.5770   45.2470 O   0  0  0  0  0  0  0  0  0  0  0  0
   58.2850   30.6330   47.3280 O   0  0  0  0  0  0  0  0  0  0  0  0
   53.9350   29.8750   53.5690 C   0  0  0  0  0  0  0  0  0  0  0  0
   53.5452   29.7051   54.5835 H   0  0  0  0  0  0  0  0  0  0  0  0
   53.0250   30.5030   52.5860 C   0  0  0  0  0  0  0  0  0  0  0  0
   53.0680   30.0870   51.2470 C   0  0  0  0  0  0  0  0  0  0  0  0
   53.7525   29.2802   50.9462 H   0  0  0  0  0  0  0  0  0  0  0  0
   52.2450   30.6930   50.2930 C   0  0  0  0  0  0  0  0  0  0  0  0
   52.2708   30.3495   49.2483 H   0  0  0  0  0  0  0  0  0  0  0  0
   51.3890   31.7350   50.6640 C   0  0  0  0  0  0  0  0  0  0  0  0
   50.5720   32.3340   49.7120 O   0  0  0  0  0  0  0  0  0  0  0  0
   51.3620   32.1770   51.9910 C   0  0  0  0  0  0  0  0  0  0  0  0
   50.5490   33.2000   52.3540 F   0  0  0  0  0  0  0  0  0  0  0  0
   52.1840   31.5730   52.9470 C   0  0  0  0  0  0  0  0  0  0  0  0
   52.1737   31.9352   53.9856 H   0  0  0  0  0  0  0  0  0  0  0  0
  1  2  1  0
  2  3  1  0
  3  4  2  0
  3  5  1  0
  5  6  1  0
  6  7  1  0
  6  8  1  0
  6  9  1  0
  9 10  3  0
 10 11  1  0
 11 12  1  0
 11 13  1  0
 11 14  1  0
 14 15  1  0
 15 16  2  0
 16 17  1  0
 17 18  2  0
 18 19  1  0
 19 20  2  0
 20 21  1  0
 20 22  1  0
 22 23  1  0
 22 24  2  0
 24 25  1  0
 24 26  1  0
 26 27  1  0
 26 28  2  0
 28 29  1  0
 18 30  1  0
  2 31  2  0
 31 32  1  0
 31 33  1  0
 33 34  2  0
 34 35  1  0
 34 36  1  0
 36 37  1  0
 36 38  2  0
 38 39  1  0
 38 40  1  0
 40 41  1  0
 40 42  2  0
 42 43  1  0
 30 15  1  0
 42 33  1  0
 28 19  1  0
M  CHG  2  29  -1  39  -1
M  END
>  <UniqueID>  (84) 
76

>  <SMILES>  (84) 
O=C(/C=C\c1ccc([O-])c(F)c1)OCC#CCSc1nnc(-c2ccccc2[O-])o1

>  <Energy>  (84) 
79.12764324131012

>  <Genealogy>  (84) 
O=C(C=Cc1ccc([O-])c(F)c1)OCC#CCSc1nnc(-c2ccccc2[O-])o1 (protonated)
O=C(/C=C\c1ccc([O-])c(F)c1)OCC#CCSc1nnc(-c2ccccc2[O-])o1 (cis-trans isomerization)
O=C(/C=C\c1ccc([O-])c(F)c1)OCC#CCSc1nnc(-c2ccccc2[O-])o1 (3D coordinates assigned)
O=C(/C=C\c1ccc([O-])c(F)c1)OCC#CCSc1nnc(-c2ccccc2[O-])o1 (optimized conformer: 79.12764324131012 kcal/mol)

>  <smiles>  (84) 
O=C(C=Cc1ccc(O)c(F)c1)OCC#CCSc1nnc(-c2ccccc2O)o1

>  <score_type>  (84) 
oracle

>  <origin>  (84) 
adg

>  <m_score__min__energy>  (84) 
-17.32

>  <m_primary>  (84) 
energy

$$$$
84:0
     RDKit          3D

 45 46  0  0  0  0  0  0  0  0999 V2000
   58.8880   34.7990   45.5300 C   0  0  0  0  0  0  0  0  0  0  0  0
   58.4780   33.4110   45.1360 C   0  0  0  0  0  0  0  0  0  0  0  0
   58.2050   32.4470   46.1200 C   0  0  0  0  0  0  0  0  0  0  0  0
   57.7840   31.1660   45.7530 C   0  0  0  0  0  0  0  0  0  0  0  0
   57.6220   30.8360   44.4010 C   0  0  0  0  0  0  0  0  0  0  0  0
   57.0670   29.2230   43.9570 S   0  0  0  0  0  0  0  0  0  0  0  0
   56.3130   29.3120   42.6600 O   0  0  0  0  0  0  0  0  0  0  0  0
   56.1380   28.6840   45.0100 O   0  0  0  0  0  0  0  0  0  0  0  0
   58.4190   28.1450   43.7560 N   0  0  0  0  0  0  0  0  0  0  0  0
   58.1100   27.0790   42.8020 C   0  0  0  0  0  0  0  0  0  0  0  0
   57.5460   25.8810   43.5040 C   0  0  0  0  0  0  0  0  0  0  0  0
   57.4200   24.7950   42.8770 O   0  0  0  0  0  0  0  0  0  0  0  0
   57.1570   25.9730   44.8820 N   0  0  0  0  0  0  0  0  0  0  0  0
   56.6350   24.8270   45.6230 C   0  0  0  0  0  0  0  0  0  0  0  0
   56.7850   25.0340   47.1070 C   0  0  0  0  0  0  0  0  0  0  0  0
   56.0630   24.3760   47.9020 O   0  0  0  0  0  0  0  0  0  0  0  0
   57.6770   26.0180   47.6440 N   0  0  0  0  0  0  0  0  0  0  0  0
   59.1210   26.0090   47.4620 C   0  0  0  0  0  0  0  0  0  0  0  0
   59.6220   27.4210   47.3860 C   0  0  0  0  0  0  0  0  0  0  0  0
   59.6260   28.2350   48.5310 C   0  0  0  0  0  0  0  0  0  0  0  0
   60.1260   29.5400   48.4670 C   0  0  0  0  0  0  0  0  0  0  0  0
   60.6360   30.0370   47.2630 C   0  0  0  0  0  0  0  0  0  0  0  0
   61.2650   31.6730   47.1850 Cl  0  0  0  0  0  0  0  0  0  0  0  0
   60.6500   29.2260   46.1230 C   0  0  0  0  0  0  0  0  0  0  0  0
   60.1510   27.9220   46.1840 C   0  0  0  0  0  0  0  0  0  0  0  0
   57.8720   31.8030   43.4170 C   0  0  0  0  0  0  0  0  0  0  0  0
   58.2930   33.0860   43.7840 C   0  0  0  0  0  0  0  0  0  0  0  0
   58.9111   34.8770   46.6270 H   0  0  0  0  0  0  0  0  0  0  0  0
   59.8882   35.0145   45.1260 H   0  0  0  0  0  0  0  0  0  0  0  0
   58.1655   35.5234   45.1260 H   0  0  0  0  0  0  0  0  0  0  0  0
   58.3230   32.7012   47.1837 H   0  0  0  0  0  0  0  0  0  0  0  0
   57.5789   30.4136   46.5288 H   0  0  0  0  0  0  0  0  0  0  0  0
   57.3736   27.4496   42.0737 H   0  0  0  0  0  0  0  0  0  0  0  0
   59.0387   26.7831   42.2922 H   0  0  0  0  0  0  0  0  0  0  0  0
   57.2780   26.8810   45.3840 H   0  0  0  0  0  0  0  0  0  0  0  0
   55.5692   24.6980   45.3831 H   0  0  0  0  0  0  0  0  0  0  0  0
   57.2047   23.9317   45.3334 H   0  0  0  0  0  0  0  0  0  0  0  0
   59.5949   25.4966   48.3122 H   0  0  0  0  0  0  0  0  0  0  0  0
   59.3708   25.4796   46.5307 H   0  0  0  0  0  0  0  0  0  0  0  0
   59.2343   27.8446   49.4819 H   0  0  0  0  0  0  0  0  0  0  0  0
   60.1181   30.1760   49.3645 H   0  0  0  0  0  0  0  0  0  0  0  0
   61.0545   29.6154   45.1771 H   0  0  0  0  0  0  0  0  0  0  0  0
   60.1723   27.2850   45.2875 H   0  0  0  0  0  0  0  0  0  0  0  0
   57.7369   31.5526   42.3544 H   0  0  0  0  0  0  0  0  0  0  0  0
   58.4798   33.8434   43.0085 H   0  0  0  0  0  0  0  0  0  0  0  0
  1  2  1  0
  2  3  2  0
  3  4  1  0
  4  5  2  0
  5  6  1  0
  6  7  2  0
  6  8  2  0
  6  9  1  0
  9 10  1  0
 10 11  1  0
 11 12  2  0
 11 13  1  0
 13 14  1  0
 14 15  1  0
 15 16  2  0
 15 17  1  0
 17 18  1  0
 18 19  1  0
 19 20  2  0
 20 21  1  0
 21 22  2  0
 22 23  1  0
 22 24  1  0
 24 25  2  0
  5 26  1  0
 26 27  2  0
 27  2  1  0
 25 19  1  0
  1 28  1  0
  1 29  1  0
  1 30  1  0
  3 31  1  0
  4 32  1  0
 10 33  1  0
 10 34  1  0
 13 35  1  0
 14 36  1  0
 14 37  1  0
 18 38  1  0
 18 39  1  0
 20 40  1  0
 21 41  1  0
 24 42  1  0
 25 43  1  0
 26 44  1  0
 27 45  1  0
M  CHG  2   9  -1  17  -1
M  END
>  <UniqueID>  (85) 
77

>  <SMILES>  (85) 
Cc1ccc(S(=O)(=O)[N-]CC(=O)NCC(=O)[N-]Cc2ccc(Cl)cc2)cc1

>  <Energy>  (85) 
37.506770879906526

>  <Genealogy>  (85) 
Cc1ccc(S(=O)(=O)[N-]CC(=O)NCC(=O)[N-]Cc2ccc(Cl)cc2)cc1 (protonated)
Cc1ccc(S(=O)(=O)[N-]CC(=O)NCC(=O)[N-]Cc2ccc(Cl)cc2)cc1 (3D coordinates assigned)
Cc1ccc(S(=O)(=O)[N-]CC(=O)NCC(=O)[N-]Cc2ccc(Cl)cc2)cc1 (optimized conformer: 37.506770879906526 kcal/mol)

>  <smiles>  (85) 
Cc1ccc(S(=O)(=O)NCC(=O)NCC(=O)NCc2ccc(Cl)cc2)cc1

>  <score_type>  (85) 
oracle

>  <origin>  (85) 
adg

>  <m_score__min__energy>  (85) 
-10.76

>  <m_primary>  (85) 
energy

$$$$
85:0
     RDKit          3D

 36 37  0  0  0  0  0  0  0  0999 V2000
   58.1640   27.1030   43.3770 C   0  0  0  0  0  0  0  0  0  0  0  0
   58.1790   28.1780   44.3850 N   0  0  0  0  0  0  0  0  0  0  0  0
   58.8240   27.9930   45.5760 C   0  0  0  0  0  0  0  0  0  0  0  0
   59.4310   26.9060   45.7980 O   0  0  0  0  0  0  0  0  0  0  0  0
   58.8120   28.9740   46.5310 N   0  0  0  0  0  0  0  0  0  0  0  0
   59.5530   28.7980   47.7980 C   0  0  0  0  0  0  0  0  0  0  0  0
   60.5110   29.9420   48.0110 C   0  0  0  0  0  0  0  0  0  0  0  0
   61.2460   30.4620   46.9320 C   0  0  0  0  0  0  0  0  0  0  0  0
   62.1060   31.5470   47.1220 C   0  0  0  0  0  0  0  0  0  0  0  0
   62.2370   32.1260   48.3880 C   0  0  0  0  0  0  0  0  0  0  0  0
   63.3160   33.4890   48.6240 Cl  0  0  0  0  0  0  0  0  0  0  0  0
   61.5070   31.6160   49.4660 C   0  0  0  0  0  0  0  0  0  0  0  0
   60.6460   30.5300   49.2800 C   0  0  0  0  0  0  0  0  0  0  0  0
   58.1440   30.1420   46.2820 C   0  0  0  0  0  0  0  0  0  0  0  0
   58.1290   31.0610   47.1480 O   0  0  0  0  0  0  0  0  0  0  0  0
   57.4910   30.3330   45.1050 N   0  0  0  0  0  0  0  0  0  0  0  0
   56.8430   31.5520   44.9340 O   0  0  0  0  0  0  0  0  0  0  0  0
   57.4550   32.7390   44.4300 C   0  0  0  0  0  0  0  0  0  0  0  0
   57.6650   33.7080   45.5580 C   0  0  0  0  0  0  0  0  0  0  0  0
   58.8300   34.3360   45.7720 C   0  0  0  0  0  0  0  0  0  0  0  0
   59.6030   34.5520   47.5160 Br  0  0  0  0  0  0  0  0  0  0  0  0
   57.4800   29.3330   44.1680 C   0  0  0  0  0  0  0  0  0  0  0  0
   56.8060   29.4640   43.1100 O   0  0  0  0  0  0  0  0  0  0  0  0
   58.1504   26.1263   43.8828 H   0  0  0  0  0  0  0  0  0  0  0  0
   57.2672   27.2027   42.7479 H   0  0  0  0  0  0  0  0  0  0  0  0
   59.0633   27.1776   42.7479 H   0  0  0  0  0  0  0  0  0  0  0  0
   58.8386   28.7634   48.6337 H   0  0  0  0  0  0  0  0  0  0  0  0
   60.1242   27.8592   47.7493 H   0  0  0  0  0  0  0  0  0  0  0  0
   61.1439   30.0128   45.9331 H   0  0  0  0  0  0  0  0  0  0  0  0
   62.6812   31.9465   46.2737 H   0  0  0  0  0  0  0  0  0  0  0  0
   61.6102   32.0701   50.4626 H   0  0  0  0  0  0  0  0  0  0  0  0
   60.0719   30.1343   50.1308 H   0  0  0  0  0  0  0  0  0  0  0  0
   58.4251   32.4878   43.9763 H   0  0  0  0  0  0  0  0  0  0  0  0
   56.8034   33.1947   43.6699 H   0  0  0  0  0  0  0  0  0  0  0  0
   56.8255   33.9116   46.2390 H   0  0  0  0  0  0  0  0  0  0  0  0
   59.3693   34.7476   44.9061 H   0  0  0  0  0  0  0  0  0  0  0  0
  1  2  1  0
  2  3  1  0
  3  4  2  0
  3  5  1  0
  5  6  1  0
  6  7  1  0
  7  8  2  0
  8  9  1  0
  9 10  2  0
 10 11  1  0
 10 12  1  0
 12 13  2  0
  5 14  1  0
 14 15  2  0
 14 16  1  0
 16 17  1  0
 17 18  1  0
 18 19  1  0
 19 20  2  3
 20 21  1  0
 16 22  1  0
 22 23  2  0
 22  2  1  0
 13  7  1  0
  1 24  1  0
  1 25  1  0
  1 26  1  0
  6 27  1  0
  6 28  1  0
  8 29  1  0
  9 30  1  0
 12 31  1  0
 13 32  1  0
 18 33  1  0
 18 34  1  0
 19 35  1  0
 20 36  1  0
M  END
>  <UniqueID>  (86) 
78

>  <SMILES>  (86) 
Cn1c(=O)n(Cc2ccc(Cl)cc2)c(=O)n(OCC=CBr)c1=O

>  <Energy>  (86) 
45.301561852699315

>  <Genealogy>  (86) 
Cn1c(=O)n(Cc2ccc(Cl)cc2)c(=O)n(OCC=CBr)c1=O (3D coordinates assigned)
Cn1c(=O)n(Cc2ccc(Cl)cc2)c(=O)n(OCC=CBr)c1=O (optimized conformer: 45.301561852699315 kcal/mol)

>  <smiles>  (86) 
Cn1c(=O)n(Cc2ccc(Cl)cc2)c(=O)n(OCC=CBr)c1=O

>  <score_type>  (86) 
oracle

>  <origin>  (86) 
adg

>  <m_score__min__energy>  (86) 
-7.5099999999999998

>  <m_primary>  (86) 
energy

$$$$
86:0
     RDKit          3D

 27 28  0  0  0  0  0  0  0  0999 V2000
   58.8666   30.2133   44.2506 H   0  0  0  0  0  0  0  0  0  0  0  0
   57.8890   30.0340   44.7220 C   0  0  0  0  0  0  0  0  0  0  0  0
   57.0500   31.0190   44.8360 N   0  0  0  0  0  0  0  0  0  0  0  0
   57.3400   32.3680   44.3570 C   0  0  0  0  0  0  0  0  0  0  0  0
   57.9187   32.3044   43.4237 H   0  0  0  0  0  0  0  0  0  0  0  0
   56.3908   32.8946   44.1787 H   0  0  0  0  0  0  0  0  0  0  0  0
   58.1350   33.1300   45.3820 C   0  0  0  0  0  0  0  0  0  0  0  0
   58.0780   32.7700   46.7390 C   0  0  0  0  0  0  0  0  0  0  0  0
   57.4689   31.9094   47.0527 H   0  0  0  0  0  0  0  0  0  0  0  0
   58.7930   33.5020   47.6920 C   0  0  0  0  0  0  0  0  0  0  0  0
   58.7507   33.2126   48.7524 H   0  0  0  0  0  0  0  0  0  0  0  0
   59.5620   34.6020   47.2980 C   0  0  0  0  0  0  0  0  0  0  0  0
   60.1259   35.1757   48.0483 H   0  0  0  0  0  0  0  0  0  0  0  0
   59.6140   34.9720   45.9530 C   0  0  0  0  0  0  0  0  0  0  0  0
   60.2172   35.8387   45.6448 H   0  0  0  0  0  0  0  0  0  0  0  0
   58.9000   34.2420   44.9960 C   0  0  0  0  0  0  0  0  0  0  0  0
   58.9383   34.5405   43.9380 H   0  0  0  0  0  0  0  0  0  0  0  0
   57.5600   28.6710   45.2130 C   0  0  0  0  0  0  0  0  0  0  0  0
   56.2370   28.1870   45.2800 C   0  0  0  0  0  0  0  0  0  0  0  0
   55.1580   28.9690   44.8840 O   0  0  0  0  0  0  0  0  0  0  0  0
   55.9960   26.9310   45.7390 N   0  0  0  0  0  0  0  0  0  0  0  0
   57.0050   26.1200   46.1400 C   0  0  0  0  0  0  0  0  0  0  0  0
   56.6610   24.6170   46.6850 S   0  0  0  0  0  0  0  0  0  0  0  0
   58.2920   26.5580   46.0890 N   0  0  0  0  0  0  0  0  0  0  0  0
   59.0670   25.9290   46.4010 H   0  0  0  0  0  0  0  0  0  0  0  0
   58.5890   27.8070   45.6380 C   0  0  0  0  0  0  0  0  0  0  0  0
   59.7930   28.1810   45.6050 O   0  0  0  0  0  0  0  0  0  0  0  0
  1  2  1  0
  2  3  2  0
  3  4  1  0
  4  5  1  0
  4  6  1  0
  4  7  1  0
  7  8  2  0
  8  9  1  0
  8 10  1  0
 10 11  1  0
 10 12  2  0
 12 13  1  0
 12 14  1  0
 14 15  1  0
 14 16  2  0
 16 17  1  0
  2 18  1  0
 18 19  2  0
 19 20  1  0
 19 21  1  0
 21 22  1  0
 22 23  2  0
 22 24  1  0
 24 25  1  0
 24 26  1  0
 26 27  2  0
 16  7  1  0
 26 18  1  0
M  CHG  2  20  -1  21  -1
M  END
>  <UniqueID>  (87) 
79

>  <SMILES>  (87) 
O=c1[nH]c(=S)[n-]c([O-])c1/C=N/Cc1ccccc1

>  <Energy>  (87) 
29.14666170611643

>  <Genealogy>  (87) 
O=c1[nH]c(=S)[n-]c([O-])c1C=NCc1ccccc1 (protonated)
O=c1[nH]c(=S)[n-]c([O-])c1/C=N/Cc1ccccc1 (cis-trans isomerization)
O=c1[nH]c(=S)[n-]c([O-])c1/C=N/Cc1ccccc1 (3D coordinates assigned)
O=c1[nH]c(=S)[n-]c([O-])c1/C=N/Cc1ccccc1 (optimized conformer: 29.14666170611643 kcal/mol)

>  <smiles>  (87) 
O=c1[nH]c(=S)[nH]c(O)c1C=NCc1ccccc1

>  <score_type>  (87) 
oracle

>  <origin>  (87) 
adg

>  <m_score__min__energy>  (87) 
-12.130000000000001

>  <m_primary>  (87) 
energy

$$$$
87:0
     RDKit          3D

 49 52  0  0  0  0  0  0  0  0999 V2000
   53.9220   30.4890   51.7990 C   0  0  0  0  0  0  0  0  0  0  0  0
   54.7050   29.9580   52.9950 C   0  0  0  0  0  0  0  0  0  0  0  0
   56.0290   30.6630   53.1200 C   0  0  0  0  0  0  0  0  0  0  0  0
   56.6240   30.8310   54.3790 C   0  0  0  0  0  0  0  0  0  0  0  0
   57.8310   31.5220   54.4990 C   0  0  0  0  0  0  0  0  0  0  0  0
   58.4530   32.0530   53.3670 C   0  0  0  0  0  0  0  0  0  0  0  0
   57.8720   31.8990   52.0940 C   0  0  0  0  0  0  0  0  0  0  0  0
   58.5310   32.4790   50.8990 C   0  0  0  0  0  0  0  0  0  0  0  0
   57.9860   32.3550   49.7680 O   0  0  0  0  0  0  0  0  0  0  0  0
   59.7570   33.2190   51.0210 N   0  0  0  0  0  0  0  0  0  0  0  0
   60.6610   33.4530   49.9270 C   0  0  0  0  0  0  0  0  0  0  0  0
   62.0330   33.5830   50.1840 C   0  0  0  0  0  0  0  0  0  0  0  0
   62.9320   33.8000   49.1360 C   0  0  0  0  0  0  0  0  0  0  0  0
   62.4700   33.8660   47.8190 C   0  0  0  0  0  0  0  0  0  0  0  0
   61.1030   33.6930   47.5400 C   0  0  0  0  0  0  0  0  0  0  0  0
   60.6010   33.7540   46.2310 O   0  0  0  0  0  0  0  0  0  0  0  0
   59.4620   33.0800   45.7650 C   0  0  0  0  0  0  0  0  0  0  0  0
   58.5380   33.6980   44.8770 C   0  0  0  0  0  0  0  0  0  0  0  0
   57.4150   32.9940   44.4070 C   0  0  0  0  0  0  0  0  0  0  0  0
   57.2470   31.6800   44.8340 C   0  0  0  0  0  0  0  0  0  0  0  0
   56.2640   30.8260   44.4880 N   0  0  0  0  0  0  0  0  0  0  0  0
   56.6070   29.6980   45.1610 C   0  0  0  0  0  0  0  0  0  0  0  0
   55.9350   28.6350   45.0900 O   0  0  0  0  0  0  0  0  0  0  0  0
   57.7340   29.8180   45.9050 N   0  0  0  0  0  0  0  0  0  0  0  0
   58.4150   28.7860   46.6830 C   0  0  0  0  0  0  0  0  0  0  0  0
   58.1370   31.0790   45.6770 C   0  0  0  0  0  0  0  0  0  0  0  0
   59.2660   31.7420   46.1570 C   0  0  0  0  0  0  0  0  0  0  0  0
   60.2050   33.4990   48.5970 C   0  0  0  0  0  0  0  0  0  0  0  0
   56.6500   31.2090   51.9840 C   0  0  0  0  0  0  0  0  0  0  0  0
   53.0606   31.0732   52.1548 H   0  0  0  0  0  0  0  0  0  0  0  0
   54.5744   31.1318   51.1897 H   0  0  0  0  0  0  0  0  0  0  0  0
   53.5662   29.6451   51.1897 H   0  0  0  0  0  0  0  0  0  0  0  0
   54.1200   30.1233   53.9117 H   0  0  0  0  0  0  0  0  0  0  0  0
   54.8891   28.8835   52.8481 H   0  0  0  0  0  0  0  0  0  0  0  0
   56.1380   30.4169   55.2747 H   0  0  0  0  0  0  0  0  0  0  0  0
   58.2939   31.6487   55.4888 H   0  0  0  0  0  0  0  0  0  0  0  0
   59.4041   32.5957   53.4708 H   0  0  0  0  0  0  0  0  0  0  0  0
   59.9460   33.7100   51.9240 H   0  0  0  0  0  0  0  0  0  0  0  0
   62.4044   33.5138   51.2171 H   0  0  0  0  0  0  0  0  0  0  0  0
   64.0047   33.9190   49.3483 H   0  0  0  0  0  0  0  0  0  0  0  0
   63.1778   34.0538   46.9982 H   0  0  0  0  0  0  0  0  0  0  0  0
   58.7036   34.7367   44.5549 H   0  0  0  0  0  0  0  0  0  0  0  0
   56.6932   33.4663   43.7244 H   0  0  0  0  0  0  0  0  0  0  0  0
   58.2817   28.9880   47.7561 H   0  0  0  0  0  0  0  0  0  0  0  0
   57.9884   27.8018   46.4394 H   0  0  0  0  0  0  0  0  0  0  0  0
   59.4877   28.7911   46.4394 H   0  0  0  0  0  0  0  0  0  0  0  0
   59.9814   31.2353   46.8214 H   0  0  0  0  0  0  0  0  0  0  0  0
   59.1320   33.3814   48.3851 H   0  0  0  0  0  0  0  0  0  0  0  0
   56.1760   31.0960   50.9978 H   0  0  0  0  0  0  0  0  0  0  0  0
  1  2  1  0
  2  3  1  0
  3  4  2  0
  4  5  1  0
  5  6  2  0
  6  7  1  0
  7  8  1  0
  8  9  2  0
  8 10  1  0
 10 11  1  0
 11 12  2  0
 12 13  1  0
 13 14  2  0
 14 15  1  0
 15 16  1  0
 16 17  1  0
 17 18  2  0
 18 19  1  0
 19 20  2  0
 20 21  1  0
 21 22  1  0
 22 23  2  0
 22 24  1  0
 24 25  1  0
 24 26  1  0
 26 27  2  0
 15 28  2  0
  7 29  2  0
 29  3  1  0
 28 11  1  0
 27 17  1  0
 26 20  1  0
  1 30  1  0
  1 31  1  0
  1 32  1  0
  2 33  1  0
  2 34  1  0
  4 35  1  0
  5 36  1  0
  6 37  1  0
 10 38  1  0
 12 39  1  0
 13 40  1  0
 14 41  1  0
 18 42  1  0
 19 43  1  0
 25 44  1  0
 25 45  1  0
 25 46  1  0
 27 47  1  0
 28 48  1  0
 29 49  1  0
M  CHG  1  21  -1
M  END
>  <UniqueID>  (88) 
80

>  <SMILES>  (88) 
CCc1cccc(C(=O)Nc2cccc(Oc3ccc4[n-]c(=O)n(C)c4c3)c2)c1

>  <Energy>  (88) 
100.0524252882975

>  <Genealogy>  (88) 
CCc1cccc(C(=O)Nc2cccc(Oc3ccc4[n-]c(=O)n(C)c4c3)c2)c1 (protonated)
CCc1cccc(C(=O)Nc2cccc(Oc3ccc4[n-]c(=O)n(C)c4c3)c2)c1 (3D coordinates assigned)
CCc1cccc(C(=O)Nc2cccc(Oc3ccc4[n-]c(=O)n(C)c4c3)c2)c1 (optimized conformer: 100.0524252882975 kcal/mol)

>  <smiles>  (88) 
CCc1cccc(C(=O)Nc2cccc(Oc3ccc4[nH]c(=O)n(C)c4c3)c2)c1

>  <score_type>  (88) 
oracle

>  <origin>  (88) 
adg

>  <m_score__min__energy>  (88) 
-10.44

>  <m_primary>  (88) 
energy

$$$$
88:0
     RDKit          3D

 49 51  0  0  1  0  0  0  0  0999 V2000
   60.0920   33.9020   49.4860 C   0  0  0  0  0  0  0  0  0  0  0  0
   61.1890   33.6540   48.5140 C   0  0  0  0  0  0  0  0  0  0  0  0
   62.3700   33.0210   48.8980 C   0  0  0  0  0  0  0  0  0  0  0  0
   63.3980   32.7810   48.0150 C   0  0  0  0  0  0  0  0  0  0  0  0
   63.2650   33.1770   46.7030 C   0  0  0  0  0  0  0  0  0  0  0  0
   62.1190   33.8010   46.2930 C   0  0  0  0  0  0  0  0  0  0  0  0
   61.1040   34.0300   47.1970 C   0  0  0  0  0  0  0  0  0  0  0  0
   59.6310   34.8350   46.6600 S   0  0  0  0  0  0  0  0  0  0  0  0
   58.8480   35.3470   47.8350 O   0  0  0  0  0  0  0  0  0  0  0  0
   59.9850   35.9490   45.7140 O   0  0  0  0  0  0  0  0  0  0  0  0
   58.6960   33.6850   45.7800 N   0  0  0  0  0  0  0  0  0  0  0  0
   57.9680   32.7840   46.6350 C   0  0  0  0  0  0  0  0  0  0  0  0
   58.8180   31.6380   47.0720 C   0  0  0  0  0  0  0  0  0  0  0  0
   58.8850   31.2350   48.3740 C   0  0  0  0  0  0  0  0  0  0  0  0
   59.6820   30.1810   48.7040 C   0  0  0  0  0  0  0  0  0  0  0  0
   60.4130   29.5320   47.7240 C   0  0  0  0  0  0  0  0  0  0  0  0
   60.3770   29.9030   46.3970 C   0  0  0  0  0  0  0  0  0  0  0  0
   61.1570   29.2110   45.3350 C   0  0  0  0  0  0  0  0  0  0  0  0
   60.4100   28.1730   44.6660 N   0  0  0  0  0  0  0  0  0  0  0  0
   59.2800   27.7450   45.0640 C   0  0  0  0  0  0  0  0  0  0  0  0
   59.1440   26.5670   45.7580 C   0  0  0  0  0  0  0  0  0  0  0  0
   57.8720   26.2020   46.1380 C   0  0  0  0  0  0  0  0  0  0  0  0
   57.6990   25.0360   46.8300 O   0  0  0  0  0  0  0  0  0  0  0  0
   56.7780   26.9500   45.8570 N   0  0  0  0  0  0  0  0  0  0  0  0
   55.5140   26.5490   46.2580 O   0  0  0  0  0  0  0  0  0  0  0  0
   56.9680   28.0950   45.1750 C   0  0  0  0  0  0  0  0  0  0  0  0
   55.9900   28.8410   44.8790 O   0  0  0  0  0  0  0  0  0  0  0  0
   58.1930   28.4910   44.7830 N   0  0  0  0  0  0  0  0  0  0  0  0
   59.5440   30.9910   46.1040 C   0  0  0  0  0  0  0  0  0  0  0  0
   60.4829   33.8136   50.5104 H   0  0  0  0  0  0  0  0  0  0  0  0
   59.6887   34.9140   49.3334 H   0  0  0  0  0  0  0  0  0  0  0  0
   59.2926   33.1619   49.3334 H   0  0  0  0  0  0  0  0  0  0  0  0
   62.4845   32.7018   49.9444 H   0  0  0  0  0  0  0  0  0  0  0  0
   64.3159   32.2783   48.3537 H   0  0  0  0  0  0  0  0  0  0  0  0
   64.0786   32.9919   45.9862 H   0  0  0  0  0  0  0  0  0  0  0  0
   62.0078   34.1189   45.2458 H   0  0  0  0  0  0  0  0  0  0  0  0
   58.1360   34.1150   45.0190 H   0  0  0  0  0  0  0  0  0  0  0  0
   57.6247   33.3337   47.5238 H   0  0  0  0  0  0  0  0  0  0  0  0
   57.1145   32.3841   46.0680 H   0  0  0  0  0  0  0  0  0  0  0  0
   58.3020   31.7554   49.1481 H   0  0  0  0  0  0  0  0  0  0  0  0
   59.7448   29.8454   49.7497 H   0  0  0  0  0  0  0  0  0  0  0  0
   61.0497   28.6841   48.0167 H   0  0  0  0  0  0  0  0  0  0  0  0
   61.4670   29.9559   44.5873 H   0  0  0  0  0  0  0  0  0  0  0  0
   62.0187   28.7314   45.8223 H   0  0  0  0  0  0  0  0  0  0  0  0
   60.0156   25.9412   46.0001 H   0  0  0  0  0  0  0  0  0  0  0  0
   56.7890   24.7320   47.1410 H   0  0  0  0  0  0  0  0  0  0  0  0
   54.7070   27.1130   46.0030 H   0  0  0  0  0  0  0  0  0  0  0  0
   58.2940   29.3790   44.2600 H   0  0  0  0  0  0  0  0  0  0  0  0
   59.4696   31.3381   45.0629 H   0  0  0  0  0  0  0  0  0  0  0  0
  1  2  1  0
  2  3  2  0
  3  4  1  0
  4  5  2  0
  5  6  1  0
  6  7  2  0
  7  8  1  0
  8  9  2  0
  8 10  2  0
  8 11  1  0
 11 12  1  0
 12 13  1  0
 13 14  2  0
 14 15  1  0
 15 16  2  0
 16 17  1  0
 17 18  1  0
 18 19  1  0
 19 20  2  0
 20 21  1  0
 21 22  2  0
 22 23  1  0
 22 24  1  0
 24 25  1  0
 24 26  1  0
 26 27  2  0
 26 28  1  0
 17 29  2  0
  7  2  1  0
 29 13  1  0
 28 20  1  0
  1 30  1  0
  1 31  1  0
  1 32  1  0
  3 33  1  0
  4 34  1  0
  5 35  1  0
  6 36  1  0
 11 37  1  0
 12 38  1  0
 12 39  1  0
 14 40  1  0
 15 41  1  0
 16 42  1  0
 18 43  1  0
 18 44  1  0
 21 45  1  0
 23 46  1  0
 25 47  1  0
 28 48  1  0
 29 49  1  0
M  END
>  <smiles>  (89) 
Cc1ccccc1S(=O)(=O)NCc1cccc(CN=c2cc(O)n(O)c(=O)[nH]2)c1

>  <score_type>  (89) 
oracle

>  <origin>  (89) 
adg

>  <m_score__min__energy>  (89) 
-10.210000000000001

>  <m_primary>  (89) 
energy

$$$$
89:0
     RDKit          3D

 45 47  0  0  0  0  0  0  0  0999 V2000
   57.3930   33.8050   44.5580 C   0  0  0  0  0  0  0  0  0  0  0  0
   58.2290   33.8380   45.8020 C   0  0  0  0  0  0  0  0  0  0  0  0
   59.4050   34.6020   45.8400 C   0  0  0  0  0  0  0  0  0  0  0  0
   60.2080   34.6040   46.9840 C   0  0  0  0  0  0  0  0  0  0  0  0
   59.8520   33.8310   48.1000 C   0  0  0  0  0  0  0  0  0  0  0  0
   60.7290   33.8240   49.3240 C   0  0  0  0  0  0  0  0  0  0  0  0
   62.1160   34.1580   48.9910 N   0  0  0  0  0  0  0  0  0  0  0  0
   62.8980   32.8670   48.1210 S   0  0  0  0  0  0  0  0  0  0  0  0
   64.1410   32.4610   48.8620 O   0  0  0  0  0  0  0  0  0  0  0  0
   63.2960   33.3610   46.7570 O   0  0  0  0  0  0  0  0  0  0  0  0
   61.8450   31.4600   47.9770 C   0  0  0  0  0  0  0  0  0  0  0  0
   61.2140   31.1590   46.7620 C   0  0  0  0  0  0  0  0  0  0  0  0
   60.3520   30.0610   46.6710 C   0  0  0  0  0  0  0  0  0  0  0  0
   60.1030   29.2630   47.7970 C   0  0  0  0  0  0  0  0  0  0  0  0
   59.1780   28.1150   47.7230 C   0  0  0  0  0  0  0  0  0  0  0  0
   59.5360   27.0110   48.2110 O   0  0  0  0  0  0  0  0  0  0  0  0
   57.8620   28.2260   47.1580 N   0  0  0  0  0  0  0  0  0  0  0  0
   57.4290   27.6930   45.8680 C   0  0  0  0  0  0  0  0  0  0  0  0
   56.9010   28.7800   44.9840 C   0  0  0  0  0  0  0  0  0  0  0  0
   57.6550   29.6070   44.1760 C   0  0  0  0  0  0  0  0  0  0  0  0
   56.7510   30.4410   43.5560 C   0  0  0  0  0  0  0  0  0  0  0  0
   55.5060   30.0760   44.0270 C   0  0  0  0  0  0  0  0  0  0  0  0
   55.6290   29.0830   44.8760 O   0  0  0  0  0  0  0  0  0  0  0  0
   60.7600   29.5500   49.0030 C   0  0  0  0  0  0  0  0  0  0  0  0
   61.6220   30.6450   49.0930 C   0  0  0  0  0  0  0  0  0  0  0  0
   58.6830   33.0550   48.0560 C   0  0  0  0  0  0  0  0  0  0  0  0
   57.8820   33.0530   46.9110 C   0  0  0  0  0  0  0  0  0  0  0  0
   56.3286   33.7630   44.8325 H   0  0  0  0  0  0  0  0  0  0  0  0
   57.5831   34.7113   43.9644 H   0  0  0  0  0  0  0  0  0  0  0  0
   57.6539   32.9165   43.9644 H   0  0  0  0  0  0  0  0  0  0  0  0
   59.6965   35.2022   44.9655 H   0  0  0  0  0  0  0  0  0  0  0  0
   61.1230   35.2141   47.0098 H   0  0  0  0  0  0  0  0  0  0  0  0
   60.3458   34.5632   50.0428 H   0  0  0  0  0  0  0  0  0  0  0  0
   60.7112   32.8127   49.7563 H   0  0  0  0  0  0  0  0  0  0  0  0
   61.3971   31.7876   45.8781 H   0  0  0  0  0  0  0  0  0  0  0  0
   59.8676   29.8226   45.7126 H   0  0  0  0  0  0  0  0  0  0  0  0
   58.2852   27.2116   45.3728 H   0  0  0  0  0  0  0  0  0  0  0  0
   56.6238   26.9646   46.0441 H   0  0  0  0  0  0  0  0  0  0  0  0
   58.7481   29.6012   44.0531 H   0  0  0  0  0  0  0  0  0  0  0  0
   56.9759   31.2375   42.8314 H   0  0  0  0  0  0  0  0  0  0  0  0
   54.5553   30.5460   43.7351 H   0  0  0  0  0  0  0  0  0  0  0  0
   60.5953   28.9094   49.8819 H   0  0  0  0  0  0  0  0  0  0  0  0
   62.1275   30.8678   50.0442 H   0  0  0  0  0  0  0  0  0  0  0  0
   58.3964   32.4462   48.9262 H   0  0  0  0  0  0  0  0  0  0  0  0
   56.9744   32.4323   46.8794 H   0  0  0  0  0  0  0  0  0  0  0  0
  1  2  1  0
  2  3  2  0
  3  4  1  0
  4  5  2  0
  5  6  1  0
  6  7  1  0
  7  8  1  0
  8  9  2  0
  8 10  2  0
  8 11  1  0
 11 12  2  0
 12 13  1  0
 13 14  2  0
 14 15  1  0
 15 16  2  0
 15 17  1  0
 17 18  1  0
 18 19  1  0
 19 20  2  0
 20 21  1  0
 21 22  2  0
 22 23  1  0
 14 24  1  0
 24 25  2  0
  5 26  1  0
 26 27  2  0
 27  2  1  0
 25 11  1  0
 23 19  1  0
  1 28  1  0
  1 29  1  0
  1 30  1  0
  3 31  1  0
  4 32  1  0
  6 33  1  0
  6 34  1  0
 12 35  1  0
 13 36  1  0
 18 37  1  0
 18 38  1  0
 20 39  1  0
 21 40  1  0
 22 41  1  0
 24 42  1  0
 25 43  1  0
 26 44  1  0
 27 45  1  0
M  CHG  2   7  -1  17  -1
M  END
>  <UniqueID>  (90) 
81

>  <SMILES>  (90) 
Cc1ccc(C[N-]S(=O)(=O)c2ccc(C(=O)[N-]Cc3ccco3)cc2)cc1

>  <Energy>  (90) 
70.93223049764133

>  <Genealogy>  (90) 
Cc1ccc(C[N-]S(=O)(=O)c2ccc(C(=O)[N-]Cc3ccco3)cc2)cc1 (protonated)
Cc1ccc(C[N-]S(=O)(=O)c2ccc(C(=O)[N-]Cc3ccco3)cc2)cc1 (3D coordinates assigned)
Cc1ccc(C[N-]S(=O)(=O)c2ccc(C(=O)[N-]Cc3ccco3)cc2)cc1 (optimized conformer: 70.93223049764133 kcal/mol)

>  <smiles>  (90) 
Cc1ccc(CNS(=O)(=O)c2ccc(C(=O)NCc3ccco3)cc2)cc1

>  <score_type>  (90) 
oracle

>  <origin>  (90) 
adg

>  <m_score__min__energy>  (90) 
-11.16

>  <m_primary>  (90) 
energy

$$$$
90:0
     RDKit          3D

 55 58  0  0  0  0  0  0  0  0999 V2000
   54.7080   24.7350   45.9440 N   0  0  0  0  0  0  0  0  0  0  0  0
   56.3670   22.4060   43.9270 C   0  0  0  0  0  0  0  0  0  0  0  0
   55.4290   23.1630   44.5010 N   0  0  0  0  0  0  0  0  0  0  0  0
   55.7000   24.0590   45.4900 C   0  0  0  0  0  0  0  0  0  0  0  0
   56.0930   21.5860   43.0170 O   0  0  0  0  0  0  0  0  0  0  0  0
   57.6280   22.5500   44.3570 N   0  0  0  0  0  0  0  0  0  0  0  0
   57.9560   23.4330   45.3440 C   0  0  0  0  0  0  0  0  0  0  0  0
   56.9790   24.2260   45.9490 C   0  0  0  0  0  0  0  0  0  0  0  0
   57.4040   25.1380   47.0130 C   0  0  0  0  0  0  0  0  0  0  0  0
   57.9240   26.4370   46.5330 C   0  0  0  0  0  0  0  0  0  0  0  0
   59.2470   26.8240   46.6350 C   0  0  0  0  0  0  0  0  0  0  0  0
   59.7110   28.0510   46.1980 C   0  0  0  0  0  0  0  0  0  0  0  0
   58.8620   28.9570   45.6300 C   0  0  0  0  0  0  0  0  0  0  0  0
   57.5390   28.6100   45.5090 C   0  0  0  0  0  0  0  0  0  0  0  0
   56.6800   29.5280   44.9370 O   0  0  0  0  0  0  0  0  0  0  0  0
   57.1180   30.5820   44.1650 C   0  0  0  0  0  0  0  0  0  0  0  0
   57.0090   30.5640   42.7800 C   0  0  0  0  0  0  0  0  0  0  0  0
   57.4510   31.6320   42.0190 C   0  0  0  0  0  0  0  0  0  0  0  0
   58.0070   32.7330   42.6310 C   0  0  0  0  0  0  0  0  0  0  0  0
   58.1070   32.7350   43.9910 C   0  0  0  0  0  0  0  0  0  0  0  0
   57.6730   31.6770   44.7960 C   0  0  0  0  0  0  0  0  0  0  0  0
   57.8350   31.7820   46.2690 C   0  0  0  0  0  0  0  0  0  0  0  0
   58.9690   32.6470   46.6770 C   0  0  0  0  0  0  0  0  0  0  0  0
   58.9300   34.0120   46.7240 C   0  0  0  0  0  0  0  0  0  0  0  0
   60.0110   34.7940   47.1170 C   0  0  0  0  0  0  0  0  0  0  0  0
   61.1760   34.1370   47.4730 C   0  0  0  0  0  0  0  0  0  0  0  0
   61.2320   32.7710   47.4320 C   0  0  0  0  0  0  0  0  0  0  0  0
   62.4570   32.0640   47.8050 C   0  0  0  0  0  0  0  0  0  0  0  0
   63.6730   32.3220   47.0870 N   0  0  0  0  0  0  0  0  0  0  0  0
   62.4760   31.2150   48.7620 O   0  0  0  0  0  0  0  0  0  0  0  0
   60.1480   32.0140   47.0400 C   0  0  0  0  0  0  0  0  0  0  0  0
   57.0750   27.3850   45.9470 C   0  0  0  0  0  0  0  0  0  0  0  0
   55.7190   27.1410   45.7800 O   0  0  0  0  0  0  0  0  0  0  0  0
   54.8100   25.6310   46.4410 H   0  0  0  0  0  0  0  0  0  0  0  0
   54.4500   23.0510   44.1680 H   0  0  0  0  0  0  0  0  0  0  0  0
   58.3580   21.9500   43.8990 H   0  0  0  0  0  0  0  0  0  0  0  0
   59.0037   23.5213   45.6673 H   0  0  0  0  0  0  0  0  0  0  0  0
   56.5395   25.3331   47.6646 H   0  0  0  0  0  0  0  0  0  0  0  0
   58.2338   24.6425   47.5383 H   0  0  0  0  0  0  0  0  0  0  0  0
   59.9648   26.1225   47.0852 H   0  0  0  0  0  0  0  0  0  0  0  0
   60.7766   28.3002   46.3093 H   0  0  0  0  0  0  0  0  0  0  0  0
   59.2264   29.9342   45.2803 H   0  0  0  0  0  0  0  0  0  0  0  0
   56.5655   29.6893   42.2818 H   0  0  0  0  0  0  0  0  0  0  0  0
   57.3580   31.6013   40.9234 H   0  0  0  0  0  0  0  0  0  0  0  0
   58.3614   33.5890   42.0381 H   0  0  0  0  0  0  0  0  0  0  0  0
   58.5520   33.6141   44.4801 H   0  0  0  0  0  0  0  0  0  0  0  0
   56.9091   32.1980   46.6928 H   0  0  0  0  0  0  0  0  0  0  0  0
   58.0467   30.7703   46.6453 H   0  0  0  0  0  0  0  0  0  0  0  0
   57.9965   34.5180   46.4365 H   0  0  0  0  0  0  0  0  0  0  0  0
   59.9427   35.8915   47.1438 H   0  0  0  0  0  0  0  0  0  0  0  0
   62.0576   34.7139   47.7892 H   0  0  0  0  0  0  0  0  0  0  0  0
   63.7100   32.3680   46.0440 H   0  0  0  0  0  0  0  0  0  0  0  0
   64.5200   32.4590   47.6840 H   0  0  0  0  0  0  0  0  0  0  0  0
   60.2181   30.9165   47.0155 H   0  0  0  0  0  0  0  0  0  0  0  0
   55.1500   27.8480   45.2910 H   0  0  0  0  0  0  0  0  0  0  0  0
  1  2  2  3
  2  3  1  0
  3  4  1  0
  4  5  2  0
  4  6  1  0
  6  7  1  0
  7  8  2  0
  8  9  1  0
  9 10  1  0
 10 11  2  0
 11 12  1  0
 12 13  2  0
 13 14  1  0
 14 15  1  0
 15 16  1  0
 16 17  2  0
 17 18  1  0
 18 19  2  0
 19 20  1  0
 20 21  2  0
 21 22  1  0
 22 23  1  0
 23 24  2  0
 24 25  1  0
 25 26  2  0
 26 27  1  0
 27 28  1  0
 28 29  1  0
 28 30  2  0
 27 31  2  0
 14 32  2  0
 32 33  1  0
  8  2  1  0
 32 10  1  0
 21 16  1  0
 31 23  1  0
  1 34  1  0
  3 35  1  0
  6 36  1  0
  7 37  1  0
  9 38  1  0
  9 39  1  0
 11 40  1  0
 12 41  1  0
 13 42  1  0
 17 43  1  0
 18 44  1  0
 19 45  1  0
 20 46  1  0
 22 47  1  0
 22 48  1  0
 24 49  1  0
 25 50  1  0
 26 51  1  0
 29 52  1  0
 29 53  1  0
 31 54  1  0
 33 55  1  0
M  END
>  <smiles>  (91) 
N=c1[nH]c(=O)[nH]cc1Cc1cccc(Oc2ccccc2Cc2cccc(C(N)=O)c2)c1O

>  <score_type>  (91) 
oracle

>  <origin>  (91) 
adg

>  <m_score__min__energy>  (91) 
-12.140000000000001

>  <m_primary>  (91) 
energy

$$$$
91:0
     RDKit          3D

 32 34  0  0  0  0  0  0  0  0999 V2000
   57.6890   23.6250   47.5010 O   0  0  0  0  0  0  0  0  0  0  0  0
   56.9840   24.4860   46.9120 C   0  0  0  0  0  0  0  0  0  0  0  0
   57.5150   25.7390   46.6100 C   0  0  0  0  0  0  0  0  0  0  0  0
   56.7030   26.6780   45.9570 C   0  0  0  0  0  0  0  0  0  0  0  0
   57.2180   28.0270   45.6220 C   0  0  0  0  0  0  0  0  0  0  0  0
   58.5330   28.4530   45.7440 C   0  0  0  0  0  0  0  0  0  0  0  0
   58.5690   29.7670   45.3140 C   0  0  0  0  0  0  0  0  0  0  0  0
   57.3340   30.1680   44.9560 N   0  0  0  0  0  0  0  0  0  0  0  0
   56.9800   31.4700   44.3960 C   0  0  0  0  0  0  0  0  0  0  0  0
   57.7700   32.5540   45.0770 C   0  0  0  0  0  0  0  0  0  0  0  0
   57.7180   32.6990   46.4730 C   0  0  0  0  0  0  0  0  0  0  0  0
   58.4200   33.7340   47.1000 C   0  0  0  0  0  0  0  0  0  0  0  0
   59.1690   34.6340   46.3370 C   0  0  0  0  0  0  0  0  0  0  0  0
   59.2150   34.5040   44.9460 C   0  0  0  0  0  0  0  0  0  0  0  0
   58.5140   33.4700   44.3160 C   0  0  0  0  0  0  0  0  0  0  0  0
   56.5130   29.1160   45.1350 C   0  0  0  0  0  0  0  0  0  0  0  0
   55.1450   29.1540   44.8820 O   0  0  0  0  0  0  0  0  0  0  0  0
   55.4150   26.3420   45.6470 N   0  0  0  0  0  0  0  0  0  0  0  0
   54.9200   25.1100   45.9500 C   0  0  0  0  0  0  0  0  0  0  0  0
   53.7320   24.8150   45.6490 O   0  0  0  0  0  0  0  0  0  0  0  0
   55.7020   24.1950   46.5770 N   0  0  0  0  0  0  0  0  0  0  0  0
   58.5524   25.9870   46.8790 H   0  0  0  0  0  0  0  0  0  0  0  0
   59.3831   27.8598   46.1119 H   0  0  0  0  0  0  0  0  0  0  0  0
   59.4729   30.3924   45.2707 H   0  0  0  0  0  0  0  0  0  0  0  0
   57.2048   31.4769   43.3192 H   0  0  0  0  0  0  0  0  0  0  0  0
   55.9066   31.6516   44.5538 H   0  0  0  0  0  0  0  0  0  0  0  0
   57.1233   31.9965   47.0753 H   0  0  0  0  0  0  0  0  0  0  0  0
   58.3824   33.8395   48.1943 H   0  0  0  0  0  0  0  0  0  0  0  0
   59.7229   35.4455   46.8316 H   0  0  0  0  0  0  0  0  0  0  0  0
   59.8025   35.2149   44.3465 H   0  0  0  0  0  0  0  0  0  0  0  0
   58.5458   33.3743   43.2206 H   0  0  0  0  0  0  0  0  0  0  0  0
   54.7970   27.0250   45.1540 H   0  0  0  0  0  0  0  0  0  0  0  0
  1  2  2  0
  2  3  1  0
  3  4  2  0
  4  5  1  0
  5  6  1  0
  6  7  2  0
  7  8  1  0
  8  9  1  0
  9 10  1  0
 10 11  2  0
 11 12  1  0
 12 13  2  0
 13 14  1  0
 14 15  2  0
  8 16  1  0
 16 17  1  0
  4 18  1  0
 18 19  1  0
 19 20  2  0
 19 21  1  0
 21  2  1  0
 16  5  2  0
 15 10  1  0
  3 22  1  0
  6 23  1  0
  7 24  1  0
  9 25  1  0
  9 26  1  0
 11 27  1  0
 12 28  1  0
 13 29  1  0
 14 30  1  0
 15 31  1  0
 18 32  1  0
M  CHG  2  17  -1  21  -1
M  END
>  <UniqueID>  (92) 
82

>  <SMILES>  (92) 
O=c1cc(-c2ccn(Cc3ccccc3)c2[O-])[nH]c(=O)[n-]1

>  <Energy>  (92) 
64.64631974596504

>  <Genealogy>  (92) 
O=c1cc(-c2ccn(Cc3ccccc3)c2[O-])[nH]c(=O)[n-]1 (protonated)
O=c1cc(-c2ccn(Cc3ccccc3)c2[O-])[nH]c(=O)[n-]1 (3D coordinates assigned)
O=c1cc(-c2ccn(Cc3ccccc3)c2[O-])[nH]c(=O)[n-]1 (optimized conformer: 64.64631974596504 kcal/mol)

>  <smiles>  (92) 
O=c1cc(-c2ccn(Cc3ccccc3)c2O)[nH]c(=O)[nH]1

>  <score_type>  (92) 
oracle

>  <origin>  (92) 
adg

>  <m_score__min__energy>  (92) 
-13.69

>  <m_primary>  (92) 
energy

$$$$
92:0
     RDKit          3D

 27 28  0  0  0  0  0  0  0  0999 V2000
   58.2930   29.2000   52.5020 C   0  0  0  0  0  0  0  0  0  0  0  0
   56.8570   29.2910   52.2230 N   0  0  0  0  0  0  0  0  0  0  0  0
   56.6730   30.3510   51.3940 O   0  0  0  0  0  0  0  0  0  0  0  0
   56.1110   29.5440   53.4670 C   0  0  0  0  0  0  0  0  0  0  0  0
   54.6600   29.1220   53.3040 C   0  0  0  0  0  0  0  0  0  0  0  0
   54.2910   27.8300   53.7400 C   0  0  0  0  0  0  0  0  0  0  0  0
   55.2360   26.9710   54.2930 O   0  0  0  0  0  0  0  0  0  0  0  0
   52.9750   27.3870   53.6250 C   0  0  0  0  0  0  0  0  0  0  0  0
   52.0010   28.2060   53.0630 C   0  0  0  0  0  0  0  0  0  0  0  0
   52.3350   29.4800   52.5900 C   0  0  0  0  0  0  0  0  0  0  0  0
   51.3430   30.2840   52.0070 C   0  0  0  0  0  0  0  0  0  0  0  0
   51.6610   31.5490   51.5130 C   0  0  0  0  0  0  0  0  0  0  0  0
   50.6730   32.3380   50.9370 O   0  0  0  0  0  0  0  0  0  0  0  0
   52.9700   32.0200   51.5930 C   0  0  0  0  0  0  0  0  0  0  0  0
   53.9690   31.2350   52.1730 C   0  0  0  0  0  0  0  0  0  0  0  0
   53.6730   29.9530   52.6930 C   0  0  0  0  0  0  0  0  0  0  0  0
   58.4552   29.1897   53.5899 H   0  0  0  0  0  0  0  0  0  0  0  0
   58.6940   28.2746   52.0627 H   0  0  0  0  0  0  0  0  0  0  0  0
   58.8076   30.0673   52.0627 H   0  0  0  0  0  0  0  0  0  0  0  0
   55.8790   30.1100   50.8510 H   0  0  0  0  0  0  0  0  0  0  0  0
   56.5665   28.9696   54.2871 H   0  0  0  0  0  0  0  0  0  0  0  0
   56.1485   30.6193   53.6956 H   0  0  0  0  0  0  0  0  0  0  0  0
   52.7042   26.3821   53.9813 H   0  0  0  0  0  0  0  0  0  0  0  0
   50.9627   27.8502   52.9900 H   0  0  0  0  0  0  0  0  0  0  0  0
   50.3092   29.9144   51.9394 H   0  0  0  0  0  0  0  0  0  0  0  0
   53.2180   33.0159   51.1970 H   0  0  0  0  0  0  0  0  0  0  0  0
   54.9987   31.6183   52.2262 H   0  0  0  0  0  0  0  0  0  0  0  0
  1  2  1  0
  2  3  1  0
  2  4  1  0
  4  5  1  0
  5  6  2  0
  6  7  1  0
  6  8  1  0
  8  9  2  0
  9 10  1  0
 10 11  2  0
 11 12  1  0
 12 13  1  0
 12 14  2  0
 14 15  1  0
 15 16  2  0
 16  5  1  0
 16 10  1  0
  1 17  1  0
  1 18  1  0
  1 19  1  0
  3 20  1  0
  4 21  1  0
  4 22  1  0
  8 23  1  0
  9 24  1  0
 11 25  1  0
 14 26  1  0
 15 27  1  0
M  CHG  2   7  -1  13  -1
M  END
>  <UniqueID>  (93) 
83

>  <SMILES>  (93) 
CN(O)Cc1c([O-])ccc2cc([O-])ccc12

>  <Energy>  (93) 
33.186099290596644

>  <Genealogy>  (93) 
CN(O)Cc1c([O-])ccc2cc([O-])ccc12 (protonated)
CN(O)Cc1c([O-])ccc2cc([O-])ccc12 (3D coordinates assigned)
CN(O)Cc1c([O-])ccc2cc([O-])ccc12 (optimized conformer: 33.186099290596644 kcal/mol)

>  <smiles>  (93) 
CN(O)Cc1c(O)ccc2cc(O)ccc12

>  <score_type>  (93) 
oracle

>  <origin>  (93) 
adg

>  <m_score__min__energy>  (93) 
-10.789999999999999

>  <m_primary>  (93) 
energy

$$$$
93:0
     RDKit          3D

 60 64  0  0  0  0  0  0  0  0999 V2000
   60.9977   28.7338   45.1053 H   0  0  0  0  0  0  0  0  0  0  0  0
   60.0770   28.6970   45.7060 C   0  0  0  0  0  0  0  0  0  0  0  0
   58.9960   28.0160   45.2460 N   0  0  0  0  0  0  0  0  0  0  0  0
   57.8330   27.9790   45.9520 C   0  0  0  0  0  0  0  0  0  0  0  0
   56.8010   27.3300   45.5060 N   0  0  0  0  0  0  0  0  0  0  0  0
   56.0660   26.3280   46.2740 C   0  0  0  0  0  0  0  0  0  0  0  0
   56.1700   26.5413   47.3481 H   0  0  0  0  0  0  0  0  0  0  0  0
   55.0029   26.3602   45.9933 H   0  0  0  0  0  0  0  0  0  0  0  0
   56.6180   24.9630   45.9800 C   0  0  0  0  0  0  0  0  0  0  0  0
   57.2270   24.7100   44.7330 C   0  0  0  0  0  0  0  0  0  0  0  0
   57.2951   25.5167   43.9883 H   0  0  0  0  0  0  0  0  0  0  0  0
   57.7460   23.4450   44.4310 C   0  0  0  0  0  0  0  0  0  0  0  0
   58.2312   23.2590   43.4615 H   0  0  0  0  0  0  0  0  0  0  0  0
   57.6400   22.4250   45.3740 C   0  0  0  0  0  0  0  0  0  0  0  0
   57.0080   22.6610   46.6250 C   0  0  0  0  0  0  0  0  0  0  0  0
   56.9420   21.6080   47.4860 N   0  0  0  0  0  0  0  0  0  0  0  0
   57.7010   20.4340   46.5970 S   0  0  0  0  0  0  0  0  0  0  0  0
   58.1110   21.1720   45.1800 N   0  0  0  0  0  0  0  0  0  0  0  0
   58.6040   20.7770   44.3510 H   0  0  0  0  0  0  0  0  0  0  0  0
   56.4940   23.9250   46.9250 C   0  0  0  0  0  0  0  0  0  0  0  0
   55.9974   24.1081   47.8893 H   0  0  0  0  0  0  0  0  0  0  0  0
   57.7440   28.6400   47.1350 N   0  0  0  0  0  0  0  0  0  0  0  0
   58.8040   29.3230   47.6430 C   0  0  0  0  0  0  0  0  0  0  0  0
   58.6750   29.9240   48.7420 O   0  0  0  0  0  0  0  0  0  0  0  0
   60.0240   29.3530   46.9430 C   0  0  0  0  0  0  0  0  0  0  0  0
   61.2410   30.0880   47.4730 C   0  0  0  0  0  0  0  0  0  0  0  0
   62.0530   29.9876   46.7377 H   0  0  0  0  0  0  0  0  0  0  0  0
   61.4893   29.6335   48.4435 H   0  0  0  0  0  0  0  0  0  0  0  0
   61.0140   31.5280   47.7210 N   0  0  0  0  0  0  0  0  0  0  0  0
   62.0170   32.3990   47.0910 C   0  0  0  0  0  0  0  0  0  0  0  0
   62.1925   32.0691   46.0564 H   0  0  0  0  0  0  0  0  0  0  0  0
   62.9596   32.3445   47.6554 H   0  0  0  0  0  0  0  0  0  0  0  0
   61.5020   33.8440   47.0880 C   0  0  0  0  0  0  0  0  0  0  0  0
   60.7754   33.9528   46.2694 H   0  0  0  0  0  0  0  0  0  0  0  0
   62.3767   34.4985   46.9598 H   0  0  0  0  0  0  0  0  0  0  0  0
   60.8410   34.2420   48.3600 N   0  0  0  0  0  0  0  0  0  0  0  0
   59.3930   34.4920   48.2010 C   0  0  0  0  0  0  0  0  0  0  0  0
   59.2193   35.5756   48.1259 H   0  0  0  0  0  0  0  0  0  0  0  0
   58.8642   34.0816   49.0739 H   0  0  0  0  0  0  0  0  0  0  0  0
   58.8720   33.8190   46.9560 C   0  0  0  0  0  0  0  0  0  0  0  0
   58.3020   32.5380   47.0340 C   0  0  0  0  0  0  0  0  0  0  0  0
   58.2491   32.0191   48.0025 H   0  0  0  0  0  0  0  0  0  0  0  0
   57.8020   31.9210   45.8850 C   0  0  0  0  0  0  0  0  0  0  0  0
   57.3460   30.9226   45.9571 H   0  0  0  0  0  0  0  0  0  0  0  0
   57.8760   32.5620   44.6420 C   0  0  0  0  0  0  0  0  0  0  0  0
   57.3400   31.9080   43.5200 O   0  0  0  0  0  0  0  0  0  0  0  0
   57.0900   30.5070   43.4460 C   0  0  0  0  0  0  0  0  0  0  0  0
   57.0162   30.0935   44.4627 H   0  0  0  0  0  0  0  0  0  0  0  0
   56.1462   30.3308   42.9091 H   0  0  0  0  0  0  0  0  0  0  0  0
   57.9146   30.0153   42.9091 H   0  0  0  0  0  0  0  0  0  0  0  0
   58.4750   33.8310   44.5620 C   0  0  0  0  0  0  0  0  0  0  0  0
   58.5563   34.3373   43.5889 H   0  0  0  0  0  0  0  0  0  0  0  0
   58.9680   34.4530   45.7130 C   0  0  0  0  0  0  0  0  0  0  0  0
   59.4341   35.4467   45.6406 H   0  0  0  0  0  0  0  0  0  0  0  0
   61.1250   33.3230   49.4820 C   0  0  0  0  0  0  0  0  0  0  0  0
   60.5330   33.6366   50.3544 H   0  0  0  0  0  0  0  0  0  0  0  0
   62.2041   33.3701   49.6902 H   0  0  0  0  0  0  0  0  0  0  0  0
   60.7730   31.8570   49.1440 C   0  0  0  0  0  0  0  0  0  0  0  0
   59.7095   31.6889   49.3694 H   0  0  0  0  0  0  0  0  0  0  0  0
   61.4232   31.2095   49.7507 H   0  0  0  0  0  0  0  0  0  0  0  0
  1  2  1  0
  2  3  1  0
  3  4  1  0
  4  5  2  0
  5  6  1  0
  6  7  1  0
  6  8  1  0
  6  9  1  0
  9 10  1  0
 10 11  1  0
 10 12  2  0
 12 13  1  0
 12 14  1  0
 14 15  1  0
 15 16  2  0
 16 17  1  0
 17 18  1  0
 18 19  1  0
 15 20  1  0
 20 21  1  0
  4 22  1  0
 22 23  1  0
 23 24  2  0
 23 25  1  0
 25 26  1  0
 26 27  1  0
 26 28  1  0
 26 29  1  0
 29 30  1  0
 30 31  1  0
 30 32  1  0
 30 33  1  0
 33 34  1  0
 33 35  1  0
 33 36  1  0
 36 37  1  0
 37 38  1  0
 37 39  1  0
 37 40  1  0
 40 41  2  0
 41 42  1  0
 41 43  1  0
 43 44  1  0
 43 45  2  0
 45 46  1  0
 46 47  1  0
 47 48  1  0
 47 49  1  0
 47 50  1  0
 45 51  1  0
 51 52  1  0
 51 53  2  0
 53 54  1  0
 36 55  1  0
 55 56  1  0
 55 57  1  0
 55 58  1  0
 58 59  1  0
 58 60  1  0
 25  2  2  0
 58 29  1  0
 20  9  2  0
 53 40  1  0
 18 14  2  0
M  CHG  3   3  -1  18   1  22  -1
M  END
>  <UniqueID>  (94) 
84

>  <SMILES>  (94) 
COc1ccc(CN2CCN(Cc3c[n-]/c(=N\Cc4ccc5[nH+]snc5c4)[n-]c3=O)CC2)cc1

>  <Energy>  (94) 
121.99011569148192

>  <Genealogy>  (94) 
COc1ccc(CN2CCN(Cc3c[n-]c(=NCc4ccc5[nH+]snc5c4)[n-]c3=O)CC2)cc1 (protonated)
COc1ccc(CN2CCN(Cc3c[n-]/c(=N\Cc4ccc5[nH+]snc5c4)[n-]c3=O)CC2)cc1 (cis-trans isomerization)
COc1ccc(CN2CCN(Cc3c[n-]/c(=N\Cc4ccc5[nH+]snc5c4)[n-]c3=O)CC2)cc1 (3D coordinates assigned)
COc1ccc(CN2CCN(Cc3c[n-]/c(=N\Cc4ccc5[nH+]snc5c4)[n-]c3=O)CC2)cc1 (nonaromatic ring conformer: 121.99011569148192 kcal/mol)

>  <smiles>  (94) 
COc1ccc(CN2CCN(Cc3c[nH]c(=NCc4ccc5nsnc5c4)[nH]c3=O)CC2)cc1

>  <score_type>  (94) 
oracle

>  <origin>  (94) 
adg

>  <m_score__min__energy>  (94) 
-13.09

>  <m_primary>  (94) 
energy

$$$$
94:0
     RDKit          3D

 36 38  0  0  0  0  0  0  0  0999 V2000
   55.4460   29.3160   44.8700 O   0  0  0  0  0  0  0  0  0  0  0  0
   56.5180   29.3370   44.1740 C   0  0  0  0  0  0  0  0  0  0  0  0
   56.7930   30.4540   43.2320 C   0  0  0  0  0  0  0  0  0  0  0  0
   57.3720   31.6410   43.9510 C   0  0  0  0  0  0  0  0  0  0  0  0
   57.9520   32.6820   43.2640 C   0  0  0  0  0  0  0  0  0  0  0  0
   58.4900   33.8480   44.5050 S   0  0  0  0  0  0  0  0  0  0  0  0
   57.8070   32.6870   45.8990 C   0  0  0  0  0  0  0  0  0  0  0  0
   57.9920   33.1980   47.3130 C   0  0  0  0  0  0  0  0  0  0  0  0
   59.4670   33.2790   47.6160 C   0  0  0  0  0  0  0  0  0  0  0  0
   59.9370   34.2020   48.5290 C   0  0  0  0  0  0  0  0  0  0  0  0
   61.3000   34.2130   48.7540 C   0  0  0  0  0  0  0  0  0  0  0  0
   62.1630   33.3360   48.0920 C   0  0  0  0  0  0  0  0  0  0  0  0
   61.6780   32.4250   47.1890 C   0  0  0  0  0  0  0  0  0  0  0  0
   60.3140   32.4090   46.9590 C   0  0  0  0  0  0  0  0  0  0  0  0
   57.4020   31.8410   45.2520 N   0  0  0  0  0  0  0  0  0  0  0  0
   57.4130   28.2440   44.3580 N   0  0  0  0  0  0  0  0  0  0  0  0
   58.2200   28.2800   45.3880 C   0  0  0  0  0  0  0  0  0  0  0  0
   59.2310   27.3710   45.4700 N   0  0  0  0  0  0  0  0  0  0  0  0
   60.0990   27.3480   46.4970 C   0  0  0  0  0  0  0  0  0  0  0  0
   59.9260   28.3000   47.4950 C   0  0  0  0  0  0  0  0  0  0  0  0
   58.8950   29.1970   47.3740 C   0  0  0  0  0  0  0  0  0  0  0  0
   58.0310   29.2160   46.3440 N   0  0  0  0  0  0  0  0  0  0  0  0
   57.5083   30.1124   42.4693 H   0  0  0  0  0  0  0  0  0  0  0  0
   55.8444   30.7579   42.7653 H   0  0  0  0  0  0  0  0  0  0  0  0
   58.0619   32.7768   42.1736 H   0  0  0  0  0  0  0  0  0  0  0  0
   57.5408   34.1969   47.4063 H   0  0  0  0  0  0  0  0  0  0  0  0
   57.5036   32.5139   48.0226 H   0  0  0  0  0  0  0  0  0  0  0  0
   59.2599   34.8941   49.0512 H   0  0  0  0  0  0  0  0  0  0  0  0
   61.7174   34.9321   49.4742 H   0  0  0  0  0  0  0  0  0  0  0  0
   63.2429   33.3767   48.2973 H   0  0  0  0  0  0  0  0  0  0  0  0
   62.3510   31.7303   46.6651 H   0  0  0  0  0  0  0  0  0  0  0  0
   59.8964   31.6896   46.2392 H   0  0  0  0  0  0  0  0  0  0  0  0
   60.9111   26.6076   46.5452 H   0  0  0  0  0  0  0  0  0  0  0  0
   60.6010   28.3334   48.3629 H   0  0  0  0  0  0  0  0  0  0  0  0
   58.7674   29.9469   48.1686 H   0  0  0  0  0  0  0  0  0  0  0  0
   57.2490   29.9080   46.2670 H   0  0  0  0  0  0  0  0  0  0  0  0
  1  2  2  0
  2  3  1  0
  3  4  1  0
  4  5  2  0
  5  6  1  0
  6  7  1  0
  7  8  1  0
  8  9  1  0
  9 10  2  0
 10 11  1  0
 11 12  2  0
 12 13  1  0
 13 14  2  0
  7 15  2  0
  2 16  1  0
 16 17  2  3
 17 18  1  0
 18 19  2  0
 19 20  1  0
 20 21  2  0
 21 22  1  0
 15  4  1  0
 22 17  1  0
 14  9  1  0
  3 23  1  0
  3 24  1  0
  5 25  1  0
  8 26  1  0
  8 27  1  0
 10 28  1  0
 11 29  1  0
 12 30  1  0
 13 31  1  0
 14 32  1  0
 19 33  1  0
 20 34  1  0
 21 35  1  0
 22 36  1  0
M  END
>  <smiles>  (95) 
O=C(Cc1csc(Cc2ccccc2)n1)N=c1nccc[nH]1

>  <score_type>  (95) 
oracle

>  <origin>  (95) 
adg

>  <m_score__min__energy>  (95) 
-8.0800000000000001

>  <m_primary>  (95) 
energy

$$$$
