0:0
     RDKit          3D

 59 61  0  0  1  0  0  0  0  0999 V2000
   59.4090   33.2490   53.4440 C   0  0  0  0  0  0  0  0  0  0  0  0
   58.4370   33.6910   52.3740 C   0  0  0  0  0  0  0  0  0  0  0  0
   57.7210   32.4560   51.8500 C   0  0  0  0  0  0  0  0  0  0  0  0
   59.0650   34.3780   51.2720 N   0  0  0  0  0  0  0  0  0  0  0  0
   60.1040   33.6240   50.5980 C   0  0  0  0  0  0  0  0  0  0  0  0
   60.4080   32.4560   50.9460 O   0  0  0  0  0  0  0  0  0  0  0  0
   60.8660   34.2060   49.4640 C   0  0  1  0  0  0  0  0  0  0  0  0
   62.3710   34.1160   49.7680 C   0  0  0  0  0  0  0  0  0  0  0  0
   60.5880   33.3890   48.3290 O   0  0  0  0  0  0  0  0  0  0  0  0
   59.7200   33.6960   47.3160 C   0  0  0  0  0  0  0  0  0  0  0  0
   60.0110   34.7240   46.4070 C   0  0  0  0  0  0  0  0  0  0  0  0
   59.0630   34.9460   45.4190 C   0  0  0  0  0  0  0  0  0  0  0  0
   59.2770   35.9370   44.4950 F   0  0  0  0  0  0  0  0  0  0  0  0
   57.8980   34.2200   45.3140 C   0  0  0  0  0  0  0  0  0  0  0  0
   57.6480   33.2270   46.2160 C   0  0  0  0  0  0  0  0  0  0  0  0
   58.5590   32.9690   47.2140 C   0  0  0  0  0  0  0  0  0  0  0  0
   60.0460   28.3640   46.1800 N   0  0  0  0  0  0  0  0  0  0  0  0
   59.8500   28.9680   47.2810 C   0  0  0  0  0  0  0  0  0  0  0  0
   59.3120   30.4690   49.5570 N   0  0  0  0  0  0  0  0  0  0  0  0
   59.9830   29.3150   49.6100 C   0  0  0  0  0  0  0  0  0  0  0  0
   60.5260   28.7540   51.1850 Cl  0  0  0  0  0  0  0  0  0  0  0  0
   60.2770   28.5330   48.5200 C   0  0  0  0  0  0  0  0  0  0  0  0
   58.9080   30.8640   48.3150 C   0  0  0  0  0  0  0  0  0  0  0  0
   58.2590   31.9560   48.1610 N   0  0  0  0  0  0  0  0  0  0  0  0
   59.2910   27.2240   45.8460 C   0  0  0  0  0  0  0  0  0  0  0  0
   59.6450   25.9370   46.2510 C   0  0  0  0  0  0  0  0  0  0  0  0
   58.8660   24.8290   45.9200 C   0  0  0  0  0  0  0  0  0  0  0  0
   57.7130   25.0540   45.1620 C   0  0  0  0  0  0  0  0  0  0  0  0
   57.3790   26.3320   44.7690 C   0  0  0  0  0  0  0  0  0  0  0  0
   58.1420   27.4190   45.0940 C   0  0  0  0  0  0  0  0  0  0  0  0
   57.6830   29.0030   44.5800 S   0  0  0  0  0  0  0  0  0  0  0  0
   59.0190   30.0190   44.1900 N   0  0  0  0  0  0  0  0  0  0  0  0
   56.9300   29.6780   45.7080 O   0  0  0  0  0  0  0  0  0  0  0  0
   56.7480   28.9690   43.3950 O   0  0  0  0  0  0  0  0  0  0  0  0
   59.1750   30.1330   47.2410 N   0  0  0  0  0  0  0  0  0  0  0  0
   58.9765   33.4457   54.4361 H   0  0  0  0  0  0  0  0  0  0  0  0
   59.6071   32.1723   53.3373 H   0  0  0  0  0  0  0  0  0  0  0  0
   60.3507   33.8074   53.3373 H   0  0  0  0  0  0  0  0  0  0  0  0
   57.7419   34.4098   52.8324 H   0  0  0  0  0  0  0  0  0  0  0  0
   57.3691   31.8491   52.6972 H   0  0  0  0  0  0  0  0  0  0  0  0
   56.8610   32.7633   51.2369 H   0  0  0  0  0  0  0  0  0  0  0  0
   58.4150   31.8623   51.2369 H   0  0  0  0  0  0  0  0  0  0  0  0
   58.8050   35.3390   50.9620 H   0  0  0  0  0  0  0  0  0  0  0  0
   60.5883   35.2568   49.2943 H   0  0  0  0  0  0  0  0  0  0  0  0
   62.5252   34.1068   50.8571 H   0  0  0  0  0  0  0  0  0  0  0  0
   62.7785   33.1919   49.3322 H   0  0  0  0  0  0  0  0  0  0  0  0
   62.8857   34.9850   49.3322 H   0  0  0  0  0  0  0  0  0  0  0  0
   60.9346   35.3178   46.4736 H   0  0  0  0  0  0  0  0  0  0  0  0
   57.1770   34.4379   44.5123 H   0  0  0  0  0  0  0  0  0  0  0  0
   56.7229   32.6360   46.1455 H   0  0  0  0  0  0  0  0  0  0  0  0
   59.0750   31.0830   50.3490 H   0  0  0  0  0  0  0  0  0  0  0  0
   60.8343   27.5911   48.6303 H   0  0  0  0  0  0  0  0  0  0  0  0
   60.5595   25.7929   46.8450 H   0  0  0  0  0  0  0  0  0  0  0  0
   59.1480   23.8160   46.2431 H   0  0  0  0  0  0  0  0  0  0  0  0
   57.0700   24.2078   44.8782 H   0  0  0  0  0  0  0  0  0  0  0  0
   56.4668   26.4828   44.1731 H   0  0  0  0  0  0  0  0  0  0  0  0
   59.0340   30.2640   43.1700 H   0  0  0  0  0  0  0  0  0  0  0  0
   59.9290   29.6750   44.5560 H   0  0  0  0  0  0  0  0  0  0  0  0
   58.8440   30.4870   46.3120 H   0  0  0  0  0  0  0  0  0  0  0  0
  1  2  1  0
  2  3  1  0
  2  4  1  0
  4  5  1  0
  5  6  2  0
  5  7  1  0
  7  8  1  0
  7  9  1  0
  9 10  1  0
 10 11  2  0
 11 12  1  0
 12 13  1  0
 12 14  2  0
 14 15  1  0
 15 16  2  0
 16 17  1  0
 17 18  2  0
 18 19  1  0
 19 20  1  0
 20 21  1  0
 20 22  2  0
 22 23  1  0
 23 24  2  0
 24 25  1  0
 25 26  2  0
 26 27  1  0
 27 28  2  0
 28 29  1  0
 29 30  2  0
 30 31  1  0
 31 32  1  0
 31 33  2  0
 31 34  2  0
 23 35  1  0
 16 10  1  0
 35 18  1  0
 30 25  1  0
  1 36  1  0
  1 37  1  0
  1 38  1  0
  2 39  1  0
  3 40  1  0
  3 41  1  0
  3 42  1  0
  4 43  1  0
  7 44  1  6
  8 45  1  0
  8 46  1  0
  8 47  1  0
 11 48  1  0
 14 49  1  0
 15 50  1  0
 19 51  1  0
 22 52  1  0
 26 53  1  0
 27 54  1  0
 28 55  1  0
 29 56  1  0
 32 57  1  0
 32 58  1  0
 35 59  1  0
M  END
>  <smiles>  (1) 
CC(C)NC(=O)C(C)Oc1cc(F)ccc1N=c1[nH]c(Cl)cc(=Nc2ccccc2S(N)(=O)=O)[nH]1

>  <score_type>  (1) 
oracle

>  <origin>  (1) 
adg

>  <m_score__min__energy>  (1) 
-9.6899999999999995

>  <m_primary>  (1) 
energy

$$$$
1:0
     RDKit          3D

 47 50  0  0  1  0  0  0  0  0999 V2000
   56.5870   20.7450   42.9740 N   0  0  0  0  0  0  0  0  0  0  0  0
   57.0440   21.7310   43.6710 C   0  0  0  0  0  0  0  0  0  0  0  0
   56.4720   22.9990   43.5740 C   0  0  0  0  0  0  0  0  0  0  0  0
   57.0020   24.0300   44.3470 C   0  0  0  0  0  0  0  0  0  0  0  0
   58.0540   23.8440   45.1920 C   0  0  0  0  0  0  0  0  0  0  0  0
   58.7030   24.8800   46.0260 C   0  0  0  0  0  0  0  0  0  0  0  0
   58.0330   26.0120   46.2820 O   0  0  0  0  0  0  0  0  0  0  0  0
   58.1480   27.3470   46.2720 C   0  0  0  0  0  0  0  0  0  0  0  0
   59.1280   27.8640   47.1240 C   0  0  0  0  0  0  0  0  0  0  0  0
   59.3370   29.2460   47.1940 C   0  0  0  0  0  0  0  0  0  0  0  0
   58.5550   30.0250   46.4080 C   0  0  0  0  0  0  0  0  0  0  0  0
   58.7170   31.3850   46.4370 C   0  0  0  0  0  0  0  0  0  0  0  0
   59.5540   31.9200   47.1600 N   0  0  0  0  0  0  0  0  0  0  0  0
   60.8200   32.4110   47.0010 C   0  0  0  0  0  0  0  0  0  0  0  0
   61.9570   31.6680   47.4220 C   0  0  0  0  0  0  0  0  0  0  0  0
   63.2120   32.2020   47.3660 C   0  0  0  0  0  0  0  0  0  0  0  0
   63.4120   33.4800   46.8970 C   0  0  0  0  0  0  0  0  0  0  0  0
   62.3270   34.2170   46.4840 C   0  0  0  0  0  0  0  0  0  0  0  0
   61.0270   33.7280   46.5190 C   0  0  0  0  0  0  0  0  0  0  0  0
   59.7050   34.7150   45.9820 S   0  0  0  0  0  0  0  0  0  0  0  0
   58.3820   34.5720   47.1190 N   0  0  0  0  0  0  0  0  0  0  0  0
   59.1600   34.2620   44.6560 O   0  0  0  0  0  0  0  0  0  0  0  0
   60.0470   36.1770   45.9700 O   0  0  0  0  0  0  0  0  0  0  0  0
   57.9270   32.1410   45.6450 N   0  0  0  0  0  0  0  0  0  0  0  0
   56.9930   31.6530   44.8300 C   0  0  0  0  0  0  0  0  0  0  0  0
   56.8250   30.3220   44.7930 N   0  0  0  0  0  0  0  0  0  0  0  0
   57.6040   29.5280   45.5790 C   0  0  0  0  0  0  0  0  0  0  0  0
   57.4040   28.1800   45.5140 C   0  0  0  0  0  0  0  0  0  0  0  0
   58.5710   22.5790   45.2410 N   0  0  0  0  0  0  0  0  0  0  0  0
   58.0890   21.5920   44.5220 N   0  0  0  0  0  0  0  0  0  0  0  0
   56.9980   19.8000   43.1620 H   0  0  0  0  0  0  0  0  0  0  0  0
   55.6207   23.1814   42.9017 H   0  0  0  0  0  0  0  0  0  0  0  0
   56.5540   25.0318   44.2720 H   0  0  0  0  0  0  0  0  0  0  0  0
   58.9369   24.4158   46.9954 H   0  0  0  0  0  0  0  0  0  0  0  0
   59.5627   25.2085   45.4235 H   0  0  0  0  0  0  0  0  0  0  0  0
   59.7353   27.1843   47.7398 H   0  0  0  0  0  0  0  0  0  0  0  0
   60.1006   29.6798   47.8563 H   0  0  0  0  0  0  0  0  0  0  0  0
   61.8227   30.6437   47.7999 H   0  0  0  0  0  0  0  0  0  0  0  0
   64.0729   31.6040   47.6995 H   0  0  0  0  0  0  0  0  0  0  0  0
   64.4252   33.9060   46.8531 H   0  0  0  0  0  0  0  0  0  0  0  0
   62.4956   35.2376   46.1098 H   0  0  0  0  0  0  0  0  0  0  0  0
   58.2430   33.6040   47.4450 H   0  0  0  0  0  0  0  0  0  0  0  0
   58.5060   35.2920   47.8370 H   0  0  0  0  0  0  0  0  0  0  0  0
   58.0300   33.1990   45.6460 H   0  0  0  0  0  0  0  0  0  0  0  0
   56.3789   32.3199   44.2070 H   0  0  0  0  0  0  0  0  0  0  0  0
   56.6347   27.7711   44.8424 H   0  0  0  0  0  0  0  0  0  0  0  0
   58.5040   20.6190   44.5750 H   0  0  0  0  0  0  0  0  0  0  0  0
  1  2  2  3
  2  3  1  0
  3  4  2  0
  4  5  1  0
  5  6  1  0
  6  7  1  0
  7  8  1  0
  8  9  2  0
  9 10  1  0
 10 11  2  0
 11 12  1  0
 12 13  2  0
 13 14  1  0
 14 15  2  0
 15 16  1  0
 16 17  2  0
 17 18  1  0
 18 19  2  0
 19 20  1  0
 20 21  1  0
 20 22  2  0
 20 23  2  0
 12 24  1  0
 24 25  1  0
 25 26  2  0
 26 27  1  0
 27 28  2  0
  5 29  2  0
 29 30  1  0
 30  2  1  0
 28  8  1  0
 27 11  1  0
 19 14  1  0
  1 31  1  0
  3 32  1  0
  4 33  1  0
  6 34  1  0
  6 35  1  0
  9 36  1  0
 10 37  1  0
 15 38  1  0
 16 39  1  0
 17 40  1  0
 18 41  1  0
 21 42  1  0
 21 43  1  0
 24 44  1  0
 25 45  1  0
 28 46  1  0
 30 47  1  0
M  END
>  <smiles>  (2) 
N=c1ccc(COc2ccc3c(=Nc4ccccc4S(N)(=O)=O)[nH]cnc3c2)n[nH]1

>  <score_type>  (2) 
oracle

>  <origin>  (2) 
adg

>  <m_score__min__energy>  (2) 
-9.0899999999999999

>  <m_primary>  (2) 
energy

$$$$
2:0
     RDKit          3D

 63 67  0  0  1  0  0  0  0  0999 V2000
   60.4960   29.8290   47.5870 C   0  0  0  0  0  0  0  0  0  0  0  0
   59.6700   30.3610   48.7000 C   0  0  0  0  0  0  0  0  0  0  0  0
   59.5810   29.5860   49.8370 C   0  0  0  0  0  0  0  0  0  0  0  0
   58.7750   30.0420   50.8810 C   0  0  0  0  0  0  0  0  0  0  0  0
   58.0770   31.2270   50.8090 C   0  0  0  0  0  0  0  0  0  0  0  0
   58.1850   31.9810   49.6600 C   0  0  0  0  0  0  0  0  0  0  0  0
   58.9860   31.5490   48.5960 C   0  0  0  0  0  0  0  0  0  0  0  0
   59.0510   32.4390   47.4510 C   0  0  0  0  0  0  0  0  0  0  0  0
   58.5630   32.3190   46.1790 C   0  0  0  0  0  0  0  0  0  0  0  0
   58.8330   33.5000   45.5350 C   0  0  0  0  0  0  0  0  0  0  0  0
   59.4780   34.3110   46.4170 N   0  0  0  0  0  0  0  0  0  0  0  0
   59.6120   33.6820   47.5660 N   0  0  0  0  0  0  0  0  0  0  0  0
   60.2590   34.2640   48.7250 C   0  0  0  0  0  0  0  0  0  0  0  0
   58.4750   33.8040   44.1350 C   0  0  0  0  0  0  0  0  0  0  0  0
   57.7750   32.7250   43.4140 C   0  0  0  0  0  0  0  0  0  0  0  0
   57.5590   31.4710   44.1550 C   0  0  0  0  0  0  0  0  0  0  0  0
   56.9530   30.4340   43.4350 C   0  0  0  0  0  0  0  0  0  0  0  0
   56.7450   29.2810   44.0860 N   0  0  0  0  0  0  0  0  0  0  0  0
   57.0960   29.0960   45.3900 C   0  0  0  0  0  0  0  0  0  0  0  0
   56.8440   27.9550   45.8800 N   0  0  0  0  0  0  0  0  0  0  0  0
   57.7840   26.9000   45.9320 C   0  0  0  0  0  0  0  0  0  0  0  0
   59.1080   27.2340   46.0940 C   0  0  0  0  0  0  0  0  0  0  0  0
   60.0270   26.2340   46.1250 C   0  0  0  0  0  0  0  0  0  0  0  0
   59.6300   24.9230   45.9970 C   0  0  0  0  0  0  0  0  0  0  0  0
   58.2940   24.5520   45.8320 C   0  0  0  0  0  0  0  0  0  0  0  0
   57.9650   23.1750   45.7290 N   0  0  0  0  0  0  0  0  0  0  0  0
   57.3400   22.4660   46.6920 O   0  0  0  0  0  0  0  0  0  0  0  0
   58.3280   22.4710   44.5210 C   0  0  0  0  0  0  0  0  0  0  0  0
   57.1370   21.7250   43.9930 C   0  0  0  0  0  0  0  0  0  0  0  0
   55.9100   22.1870   44.3940 O   0  0  0  0  0  0  0  0  0  0  0  0
   57.3560   25.5690   45.7990 C   0  0  0  0  0  0  0  0  0  0  0  0
   55.9190   25.3630   45.6190 C   0  0  0  0  0  0  0  0  0  0  0  0
   55.4680   24.3860   46.5110 O   0  0  0  0  0  0  0  0  0  0  0  0
   57.6770   30.0740   46.1020 N   0  0  0  0  0  0  0  0  0  0  0  0
   57.8990   31.2480   45.4690 C   0  0  0  0  0  0  0  0  0  0  0  0
   61.3537   29.2766   47.9985 H   0  0  0  0  0  0  0  0  0  0  0  0
   59.8869   29.1530   46.9689 H   0  0  0  0  0  0  0  0  0  0  0  0
   60.8595   30.6632   46.9689 H   0  0  0  0  0  0  0  0  0  0  0  0
   60.1294   28.6359   49.9188 H   0  0  0  0  0  0  0  0  0  0  0  0
   58.6944   29.4334   51.7937 H   0  0  0  0  0  0  0  0  0  0  0  0
   57.4491   31.5634   51.6472 H   0  0  0  0  0  0  0  0  0  0  0  0
   57.6367   32.9311   49.5783 H   0  0  0  0  0  0  0  0  0  0  0  0
   59.8061   33.8566   49.6409 H   0  0  0  0  0  0  0  0  0  0  0  0
   61.3316   34.0208   48.7069 H   0  0  0  0  0  0  0  0  0  0  0  0
   60.1303   35.3563   48.7069 H   0  0  0  0  0  0  0  0  0  0  0  0
   57.8234   34.6903   44.1358 H   0  0  0  0  0  0  0  0  0  0  0  0
   59.4265   33.9563   43.6044 H   0  0  0  0  0  0  0  0  0  0  0  0
   56.7892   33.1092   43.1131 H   0  0  0  0  0  0  0  0  0  0  0  0
   58.4368   32.4577   42.5770 H   0  0  0  0  0  0  0  0  0  0  0  0
   56.6607   30.5601   42.3821 H   0  0  0  0  0  0  0  0  0  0  0  0
   56.2980   28.5130   43.5600 H   0  0  0  0  0  0  0  0  0  0  0  0
   59.4155   28.2852   46.1960 H   0  0  0  0  0  0  0  0  0  0  0  0
   61.0930   26.4735   46.2530 H   0  0  0  0  0  0  0  0  0  0  0  0
   60.3966   24.1346   46.0258 H   0  0  0  0  0  0  0  0  0  0  0  0
   56.3550   22.3930   46.5060 H   0  0  0  0  0  0  0  0  0  0  0  0
   58.6712   23.1934   43.7658 H   0  0  0  0  0  0  0  0  0  0  0  0
   59.1353   21.7578   44.7436 H   0  0  0  0  0  0  0  0  0  0  0  0
   57.1711   21.7715   42.8945 H   0  0  0  0  0  0  0  0  0  0  0  0
   57.2189   20.7081   44.4044 H   0  0  0  0  0  0  0  0  0  0  0  0
   56.0390   22.9280   45.0160 H   0  0  0  0  0  0  0  0  0  0  0  0
   55.3874   26.3067   45.8109 H   0  0  0  0  0  0  0  0  0  0  0  0
   55.7246   25.0327   44.5879 H   0  0  0  0  0  0  0  0  0  0  0  0
   55.5130   23.4780   46.1140 H   0  0  0  0  0  0  0  0  0  0  0  0
  1  2  1  0
  2  3  2  0
  3  4  1  0
  4  5  2  0
  5  6  1  0
  6  7  2  0
  7  8  1  0
  8  9  2  0
  9 10  1  0
 10 11  2  0
 11 12  1  0
 12 13  1  0
 10 14  1  0
 14 15  1  0
 15 16  1  0
 16 17  2  0
 17 18  1  0
 18 19  1  0
 19 20  2  0
 20 21  1  0
 21 22  2  0
 22 23  1  0
 23 24  2  0
 24 25  1  0
 25 26  1  0
 26 27  1  0
 26 28  1  0
 28 29  1  0
 29 30  1  0
 25 31  2  0
 31 32  1  0
 32 33  1  0
 19 34  1  0
 34 35  2  0
  7  2  1  0
 12  8  1  0
 35 16  1  0
 35  9  1  0
 31 21  1  0
  1 36  1  0
  1 37  1  0
  1 38  1  0
  3 39  1  0
  4 40  1  0
  5 41  1  0
  6 42  1  0
 13 43  1  0
 13 44  1  0
 13 45  1  0
 14 46  1  0
 14 47  1  0
 15 48  1  0
 15 49  1  0
 17 50  1  0
 18 51  1  0
 22 52  1  0
 23 53  1  0
 24 54  1  0
 27 55  1  0
 28 56  1  0
 28 57  1  0
 29 58  1  0
 29 59  1  0
 30 60  1  0
 32 61  1  0
 32 62  1  0
 33 63  1  0
M  END
>  <smiles>  (3) 
Cc1ccccc1-c1c2c(nn1C)CCc1c[nH]c(=Nc3cccc(N(O)CCO)c3CO)nc1-2

>  <score_type>  (3) 
oracle

>  <origin>  (3) 
adg

>  <m_score__min__energy>  (3) 
-8.8599999999999994

>  <m_primary>  (3) 
energy

$$$$
3:0
     RDKit          3D

 51 54  0  0  0  0  0  0  0  0999 V2000
   65.1401   33.8136   47.7379 H   0  0  0  0  0  0  0  0  0  0  0  0
   64.1220   33.4410   47.5520 C   0  0  0  0  0  0  0  0  0  0  0  0
   63.2740   34.1290   46.6820 C   0  0  0  0  0  0  0  0  0  0  0  0
   63.6224   35.0479   46.1878 H   0  0  0  0  0  0  0  0  0  0  0  0
   61.9830   33.6520   46.4380 C   0  0  0  0  0  0  0  0  0  0  0  0
   61.3178   34.2014   45.7556 H   0  0  0  0  0  0  0  0  0  0  0  0
   61.5280   32.4740   47.0590 C   0  0  0  0  0  0  0  0  0  0  0  0
   60.1330   31.9660   46.7880 C   0  0  0  0  0  0  0  0  0  0  0  0
   60.1738   31.2269   45.9743 H   0  0  0  0  0  0  0  0  0  0  0  0
   59.5025   32.8229   46.5083 H   0  0  0  0  0  0  0  0  0  0  0  0
   59.5480   31.3330   47.9790 N   0  0  0  0  0  0  0  0  0  0  0  0
   59.1090   30.0470   48.0880 C   0  0  0  0  0  0  0  0  0  0  0  0
   59.3440   28.7910   46.8200 S   0  0  0  0  0  0  0  0  0  0  0  0
   57.7920   27.8410   47.0900 C   0  0  0  0  0  0  0  0  0  0  0  0
   57.1460   28.4189   47.7673 H   0  0  0  0  0  0  0  0  0  0  0  0
   58.0838   26.8676   47.5111 H   0  0  0  0  0  0  0  0  0  0  0  0
   57.0250   27.5580   45.8350 C   0  0  0  0  0  0  0  0  0  0  0  0
   57.0620   26.4080   45.3200 O   0  0  0  0  0  0  0  0  0  0  0  0
   56.2620   28.6150   45.2340 N   0  0  0  0  0  0  0  0  0  0  0  0
   56.7280   29.6740   44.6390 C   0  0  0  0  0  0  0  0  0  0  0  0
   57.0590   30.7900   45.3140 N   0  0  0  0  0  0  0  0  0  0  0  0
   57.3760   31.7100   44.4160 N   0  0  0  0  0  0  0  0  0  0  0  0
   57.7060   33.0880   44.7570 C   0  0  0  0  0  0  0  0  0  0  0  0
   57.7325   33.1987   45.8511 H   0  0  0  0  0  0  0  0  0  0  0  0
   58.6907   33.3435   44.3386 H   0  0  0  0  0  0  0  0  0  0  0  0
   56.9438   33.7619   44.3386 H   0  0  0  0  0  0  0  0  0  0  0  0
   57.2390   31.1990   43.1740 C   0  0  0  0  0  0  0  0  0  0  0  0
   57.3880   31.9730   41.9020 C   0  0  0  0  0  0  0  0  0  0  0  0
   57.5912   33.0283   42.1366 H   0  0  0  0  0  0  0  0  0  0  0  0
   58.2231   31.5600   41.3172 H   0  0  0  0  0  0  0  0  0  0  0  0
   56.4592   31.8996   41.3172 H   0  0  0  0  0  0  0  0  0  0  0  0
   56.8260   29.8860   43.2730 C   0  0  0  0  0  0  0  0  0  0  0  0
   56.6224   29.1748   42.4589 H   0  0  0  0  0  0  0  0  0  0  0  0
   58.4900   29.7780   49.2640 N   0  0  0  0  0  0  0  0  0  0  0  0
   58.5740   30.9490   49.9210 C   0  0  0  0  0  0  0  0  0  0  0  0
   59.1920   31.8900   49.1580 C   0  0  0  0  0  0  0  0  0  0  0  0
   59.3420   33.1870   49.6530 C   0  0  0  0  0  0  0  0  0  0  0  0
   59.8720   34.1030   48.9730 O   0  0  0  0  0  0  0  0  0  0  0  0
   58.8860   33.4480   50.9130 N   0  0  0  0  0  0  0  0  0  0  0  0
   58.9910   34.4120   51.3030 H   0  0  0  0  0  0  0  0  0  0  0  0
   58.2910   32.4770   51.6770 C   0  0  0  0  0  0  0  0  0  0  0  0
   57.8820   32.7690   52.8340 O   0  0  0  0  0  0  0  0  0  0  0  0
   58.1390   31.1990   51.1890 N   0  0  0  0  0  0  0  0  0  0  0  0
   57.4890   30.1540   51.9880 C   0  0  0  0  0  0  0  0  0  0  0  0
   57.6248   30.3724   53.0575 H   0  0  0  0  0  0  0  0  0  0  0  0
   56.4148   30.1275   51.7527 H   0  0  0  0  0  0  0  0  0  0  0  0
   57.9401   29.1787   51.7527 H   0  0  0  0  0  0  0  0  0  0  0  0
   62.3850   31.7980   47.9490 C   0  0  0  0  0  0  0  0  0  0  0  0
   61.9760   30.6760   48.5900 F   0  0  0  0  0  0  0  0  0  0  0  0
   63.6760   32.2790   48.1860 C   0  0  0  0  0  0  0  0  0  0  0  0
   64.3434   31.7402   48.8746 H   0  0  0  0  0  0  0  0  0  0  0  0
  1  2  1  0
  2  3  2  0
  3  4  1  0
  3  5  1  0
  5  6  1  0
  5  7  2  0
  7  8  1  0
  8  9  1  0
  8 10  1  0
  8 11  1  0
 11 12  1  0
 12 13  1  0
 13 14  1  0
 14 15  1  0
 14 16  1  0
 14 17  1  0
 17 18  2  0
 17 19  1  0
 19 20  2  0
 20 21  1  0
 21 22  1  0
 22 23  1  0
 23 24  1  0
 23 25  1  0
 23 26  1  0
 22 27  1  0
 27 28  1  0
 28 29  1  0
 28 30  1  0
 28 31  1  0
 27 32  2  0
 32 33  1  0
 12 34  2  0
 34 35  1  0
 35 36  2  0
 36 37  1  0
 37 38  2  0
 37 39  1  0
 39 40  1  0
 39 41  1  0
 41 42  2  0
 41 43  1  0
 43 44  1  0
 44 45  1  0
 44 46  1  0
 44 47  1  0
  7 48  1  0
 48 49  1  0
 48 50  2  0
 50 51  1  0
 50  2  1  0
 36 11  1  0
 32 20  1  0
 43 35  1  0
M  CHG  1  21  -1
M  END
>  <UniqueID>  (4) 
1

>  <SMILES>  (4) 
Cc1c/c(=N\C(=O)CSc2nc3c(c(=O)[nH]c(=O)n3C)n2Cc2ccccc2F)[n-]n1C

>  <Energy>  (4) 
124.02519390652242

>  <Genealogy>  (4) 
Cc1cc(=NC(=O)CSc2nc3c(c(=O)[nH]c(=O)n3C)n2Cc2ccccc2F)[n-]n1C (protonated)
Cc1c/c(=N\C(=O)CSc2nc3c(c(=O)[nH]c(=O)n3C)n2Cc2ccccc2F)[n-]n1C (cis-trans isomerization)
Cc1c/c(=N\C(=O)CSc2nc3c(c(=O)[nH]c(=O)n3C)n2Cc2ccccc2F)[n-]n1C (3D coordinates assigned)
Cc1c/c(=N\C(=O)CSc2nc3c(c(=O)[nH]c(=O)n3C)n2Cc2ccccc2F)[n-]n1C (optimized conformer: 124.02519390652242 kcal/mol)

>  <smiles>  (4) 
Cc1cc(=NC(=O)CSc2nc3c(c(=O)[nH]c(=O)n3C)n2Cc2ccccc2F)[nH]n1C

>  <score_type>  (4) 
oracle

>  <origin>  (4) 
adg

>  <m_score__min__energy>  (4) 
-10.41

>  <m_primary>  (4) 
energy

$$$$
4:0
     RDKit          3D

 45 47  0  0  0  0  0  0  0  0999 V2000
   61.0560   34.1580   45.8270 O   0  0  0  0  0  0  0  0  0  0  0  0
   60.8110   33.8220   47.1580 C   0  0  0  0  0  0  0  0  0  0  0  0
   61.8820   33.6820   48.0500 C   0  0  0  0  0  0  0  0  0  0  0  0
   61.6510   33.3510   49.3870 C   0  0  0  0  0  0  0  0  0  0  0  0
   60.3400   33.1460   49.8490 C   0  0  0  0  0  0  0  0  0  0  0  0
   60.0650   32.8340   51.1880 O   0  0  0  0  0  0  0  0  0  0  0  0
   58.9960   32.0450   51.6370 C   0  0  0  0  0  0  0  0  0  0  0  0
   57.7850   32.6720   51.9550 C   0  0  0  0  0  0  0  0  0  0  0  0
   56.6910   31.9180   52.3920 C   0  0  0  0  0  0  0  0  0  0  0  0
   56.7980   30.5270   52.5020 C   0  0  0  0  0  0  0  0  0  0  0  0
   55.4240   29.5810   53.0480 Cl  0  0  0  0  0  0  0  0  0  0  0  0
   57.9970   29.8910   52.1670 C   0  0  0  0  0  0  0  0  0  0  0  0
   59.0930   30.6440   51.7300 C   0  0  0  0  0  0  0  0  0  0  0  0
   59.2680   33.3050   48.9630 C   0  0  0  0  0  0  0  0  0  0  0  0
   59.4910   33.6290   47.6140 C   0  0  0  0  0  0  0  0  0  0  0  0
   58.3070   33.7980   46.6960 C   0  0  0  0  0  0  0  0  0  0  0  0
   58.4600   32.9280   45.5100 N   0  0  0  0  0  0  0  0  0  0  0  0
   57.5450   33.2440   44.3910 C   0  0  0  0  0  0  0  0  0  0  0  0
   58.0220   32.6930   43.0320 C   0  0  0  0  0  0  0  0  0  0  0  0
   57.5040   31.2810   42.7110 C   0  0  0  0  0  0  0  0  0  0  0  0
   57.8340   30.1960   43.7500 C   0  0  0  0  0  0  0  0  0  0  0  0
   57.5070   30.5930   45.1990 C   0  0  0  0  0  0  0  0  0  0  0  0
   58.5950   31.4900   45.8210 C   0  0  0  0  0  0  0  0  0  0  0  0
   60.3970   33.9310   45.0910 H   0  0  0  0  0  0  0  0  0  0  0  0
   62.9120   33.8338   47.6950 H   0  0  0  0  0  0  0  0  0  0  0  0
   62.4986   33.2504   50.0809 H   0  0  0  0  0  0  0  0  0  0  0  0
   57.6935   33.7641   51.8606 H   0  0  0  0  0  0  0  0  0  0  0  0
   55.7460   32.4187   52.6494 H   0  0  0  0  0  0  0  0  0  0  0  0
   58.0793   28.7970   52.2470 H   0  0  0  0  0  0  0  0  0  0  0  0
   60.0322   30.1397   51.4587 H   0  0  0  0  0  0  0  0  0  0  0  0
   58.2383   33.1747   49.3273 H   0  0  0  0  0  0  0  0  0  0  0  0
   57.3872   33.5235   47.2332 H   0  0  0  0  0  0  0  0  0  0  0  0
   58.2490   34.8470   46.3700 H   0  0  0  0  0  0  0  0  0  0  0  0
   56.5586   32.8118   44.6151 H   0  0  0  0  0  0  0  0  0  0  0  0
   57.5097   34.3398   44.3015 H   0  0  0  0  0  0  0  0  0  0  0  0
   57.6765   33.3758   42.2418 H   0  0  0  0  0  0  0  0  0  0  0  0
   59.1186   32.6246   43.0844 H   0  0  0  0  0  0  0  0  0  0  0  0
   56.4095   31.3362   42.6163 H   0  0  0  0  0  0  0  0  0  0  0  0
   58.0175   30.9767   41.7871 H   0  0  0  0  0  0  0  0  0  0  0  0
   57.2576   29.2928   43.5010 H   0  0  0  0  0  0  0  0  0  0  0  0
   58.9209   30.0331   43.7037 H   0  0  0  0  0  0  0  0  0  0  0  0
   56.5514   31.1377   45.2092 H   0  0  0  0  0  0  0  0  0  0  0  0
   57.4508   29.6705   45.7955 H   0  0  0  0  0  0  0  0  0  0  0  0
   58.5547   31.3703   46.9137 H   0  0  0  0  0  0  0  0  0  0  0  0
   59.5519   31.1659   45.3858 H   0  0  0  0  0  0  0  0  0  0  0  0
  1  2  1  0
  2  3  2  0
  3  4  1  0
  4  5  2  0
  5  6  1  0
  6  7  1  0
  7  8  2  0
  8  9  1  0
  9 10  2  0
 10 11  1  0
 10 12  1  0
 12 13  2  0
  5 14  1  0
 14 15  2  0
 15 16  1  0
 16 17  1  0
 17 18  1  0
 18 19  1  0
 19 20  1  0
 20 21  1  0
 21 22  1  0
 22 23  1  0
 15  2  1  0
 23 17  1  0
 13  7  1  0
  1 24  1  0
  3 25  1  0
  4 26  1  0
  8 27  1  0
  9 28  1  0
 12 29  1  0
 13 30  1  0
 14 31  1  0
 16 32  1  0
 16 33  1  0
 18 34  1  0
 18 35  1  0
 19 36  1  0
 19 37  1  0
 20 38  1  0
 20 39  1  0
 21 40  1  0
 21 41  1  0
 22 42  1  0
 22 43  1  0
 23 44  1  0
 23 45  1  0
M  END
>  <UniqueID>  (5) 
2

>  <SMILES>  (5) 
Oc1ccc(Oc2ccc(Cl)cc2)cc1CN1CCCCCC1

>  <Energy>  (5) 
62.44841294875458

>  <Genealogy>  (5) 
Oc1ccc(Oc2ccc(Cl)cc2)cc1CN1CCCCCC1 (3D coordinates assigned)
Oc1ccc(Oc2ccc(Cl)cc2)cc1CN1CCCCCC1 (nonaromatic ring conformer: 62.44841294875458 kcal/mol)

>  <smiles>  (5) 
Oc1ccc(Oc2ccc(Cl)cc2)cc1CN1CCCCCC1

>  <score_type>  (5) 
oracle

>  <origin>  (5) 
adg

>  <m_score__min__energy>  (5) 
-5.5999999999999996

>  <m_primary>  (5) 
energy

$$$$
5:0
     RDKit          3D

 44 47  0  0  0  0  0  0  0  0999 V2000
   57.7590   32.2760   41.4960 C   0  0  0  0  0  0  0  0  0  0  0  0
   57.5460   31.6610   42.8490 C   0  0  0  0  0  0  0  0  0  0  0  0
   56.6500   30.5980   43.0080 C   0  0  0  0  0  0  0  0  0  0  0  0
   56.4360   30.0650   44.2800 C   0  0  0  0  0  0  0  0  0  0  0  0
   57.0840   30.5850   45.3540 N   0  0  0  0  0  0  0  0  0  0  0  0
   57.9510   31.6300   45.2460 C   0  0  0  0  0  0  0  0  0  0  0  0
   58.5210   32.0740   46.3280 N   0  0  0  0  0  0  0  0  0  0  0  0
   59.2870   33.6210   46.5440 S   0  0  0  0  0  0  0  0  0  0  0  0
   59.2840   34.3610   45.2340 O   0  0  0  0  0  0  0  0  0  0  0  0
   58.5540   34.4280   47.5790 O   0  0  0  0  0  0  0  0  0  0  0  0
   60.9490   33.3580   47.0920 C   0  0  0  0  0  0  0  0  0  0  0  0
   62.0160   33.8570   46.3290 C   0  0  0  0  0  0  0  0  0  0  0  0
   63.3360   33.6540   46.7380 C   0  0  0  0  0  0  0  0  0  0  0  0
   63.6070   32.9480   47.9090 C   0  0  0  0  0  0  0  0  0  0  0  0
   62.5570   32.4450   48.6790 C   0  0  0  0  0  0  0  0  0  0  0  0
   61.2260   32.6470   48.2830 C   0  0  0  0  0  0  0  0  0  0  0  0
   60.1470   32.1260   49.1430 C   0  0  0  0  0  0  0  0  0  0  0  0
   59.7010   30.8050   48.9970 C   0  0  0  0  0  0  0  0  0  0  0  0
   58.6640   30.3220   49.8010 C   0  0  0  0  0  0  0  0  0  0  0  0
   58.0720   31.1510   50.7720 C   0  0  0  0  0  0  0  0  0  0  0  0
   56.9800   30.6480   51.6320 C   0  0  0  0  0  0  0  0  0  0  0  0
   55.9650   31.4170   52.0820 N   0  0  0  0  0  0  0  0  0  0  0  0
   55.2240   30.5560   52.8100 C   0  0  0  0  0  0  0  0  0  0  0  0
   55.8090   29.3100   52.7750 C   0  0  0  0  0  0  0  0  0  0  0  0
   56.8890   29.4010   52.0420 O   0  0  0  0  0  0  0  0  0  0  0  0
   58.5340   32.4700   50.9230 C   0  0  0  0  0  0  0  0  0  0  0  0
   59.5660   32.9540   50.1150 C   0  0  0  0  0  0  0  0  0  0  0  0
   58.1930   32.1910   43.9750 C   0  0  0  0  0  0  0  0  0  0  0  0
   58.1169   33.3093   41.6151 H   0  0  0  0  0  0  0  0  0  0  0  0
   58.5068   31.6907   40.9408 H   0  0  0  0  0  0  0  0  0  0  0  0
   56.8094   32.2786   40.9408 H   0  0  0  0  0  0  0  0  0  0  0  0
   56.1186   30.1858   42.1375 H   0  0  0  0  0  0  0  0  0  0  0  0
   55.7414   29.2224   44.4127 H   0  0  0  0  0  0  0  0  0  0  0  0
   61.8112   34.4122   45.4018 H   0  0  0  0  0  0  0  0  0  0  0  0
   64.1645   34.0526   46.1340 H   0  0  0  0  0  0  0  0  0  0  0  0
   64.6480   32.7873   48.2262 H   0  0  0  0  0  0  0  0  0  0  0  0
   62.7742   31.8869   49.6017 H   0  0  0  0  0  0  0  0  0  0  0  0
   60.1676   30.1474   48.2488 H   0  0  0  0  0  0  0  0  0  0  0  0
   58.3091   29.2886   49.6739 H   0  0  0  0  0  0  0  0  0  0  0  0
   54.2981   30.8096   53.3471 H   0  0  0  0  0  0  0  0  0  0  0  0
   55.4361   28.4028   53.2729 H   0  0  0  0  0  0  0  0  0  0  0  0
   58.0805   33.1248   51.6816 H   0  0  0  0  0  0  0  0  0  0  0  0
   59.9237   33.9865   50.2413 H   0  0  0  0  0  0  0  0  0  0  0  0
   58.8851   33.0392   43.8673 H   0  0  0  0  0  0  0  0  0  0  0  0
  1  2  1  0
  2  3  1  0
  3  4  2  0
  4  5  1  0
  5  6  1  0
  6  7  2  3
  7  8  1  0
  8  9  2  0
  8 10  2  0
  8 11  1  0
 11 12  2  0
 12 13  1  0
 13 14  2  0
 14 15  1  0
 15 16  2  0
 16 17  1  0
 17 18  2  0
 18 19  1  0
 19 20  2  0
 20 21  1  0
 21 22  2  0
 22 23  1  0
 23 24  2  0
 24 25  1  0
 20 26  1  0
 26 27  2  0
  6 28  1  0
 28  2  2  0
 16 11  1  0
 27 17  1  0
 25 21  1  0
  1 29  1  0
  1 30  1  0
  1 31  1  0
  3 32  1  0
  4 33  1  0
 12 34  1  0
 13 35  1  0
 14 36  1  0
 15 37  1  0
 18 38  1  0
 19 39  1  0
 23 40  1  0
 24 41  1  0
 26 42  1  0
 27 43  1  0
 28 44  1  0
M  CHG  1   5  -1
M  END
>  <UniqueID>  (6) 
3

>  <SMILES>  (6) 
Cc1cc[n-]c(=NS(=O)(=O)c2ccccc2-c2ccc(-c3ncco3)cc2)c1

>  <Energy>  (6) 
91.91260187060051

>  <Genealogy>  (6) 
Cc1cc[n-]c(=NS(=O)(=O)c2ccccc2-c2ccc(-c3ncco3)cc2)c1 (protonated)
Cc1cc[n-]c(=NS(=O)(=O)c2ccccc2-c2ccc(-c3ncco3)cc2)c1 (3D coordinates assigned)
Cc1cc[n-]c(=NS(=O)(=O)c2ccccc2-c2ccc(-c3ncco3)cc2)c1 (optimized conformer: 91.91260187060051 kcal/mol)

>  <smiles>  (6) 
Cc1cc[nH]c(=NS(=O)(=O)c2ccccc2-c2ccc(-c3ncco3)cc2)c1

>  <score_type>  (6) 
oracle

>  <origin>  (6) 
adg

>  <m_score__min__energy>  (6) 
-10.73

>  <m_primary>  (6) 
energy

$$$$
6:0
     RDKit          3D

 52 54  0  0  1  0  0  0  0  0999 V2000
   58.2340   34.0800   46.5560 C   0  0  0  0  0  0  0  0  0  0  0  0
   59.1400   32.9950   46.6130 O   0  0  0  0  0  0  0  0  0  0  0  0
   60.1550   33.0660   47.5660 C   0  0  0  0  0  0  0  0  0  0  0  0
   60.5740   34.2530   48.1210 C   0  0  0  0  0  0  0  0  0  0  0  0
   61.5770   34.2770   49.0560 C   0  0  0  0  0  0  0  0  0  0  0  0
   62.1570   33.0770   49.4280 C   0  0  0  0  0  0  0  0  0  0  0  0
   61.7580   31.8620   48.8860 C   0  0  0  0  0  0  0  0  0  0  0  0
   62.3380   30.6540   49.2550 O   0  0  0  0  0  0  0  0  0  0  0  0
   62.0810   30.1750   50.5600 C   0  0  0  0  0  0  0  0  0  0  0  0
   60.7340   31.8630   47.9350 C   0  0  0  0  0  0  0  0  0  0  0  0
   60.3320   30.5920   47.3830 C   0  0  0  0  0  0  0  0  0  0  0  0
   60.7460   30.1650   46.1380 C   0  0  0  0  0  0  0  0  0  0  0  0
   60.3550   28.9440   45.6170 C   0  0  0  0  0  0  0  0  0  0  0  0
   59.5170   28.0780   46.3300 C   0  0  0  0  0  0  0  0  0  0  0  0
   59.1200   26.7950   45.7490 C   0  0  0  0  0  0  0  0  0  0  0  0
   57.7300   26.8220   45.0980 C   0  0  2  0  0  0  0  0  0  0  0  0
   57.4970   28.0300   44.4010 N   0  0  0  0  0  0  0  0  0  0  0  0
   56.8600   29.1000   45.0700 C   0  0  2  0  0  0  0  0  0  0  0  0
   55.5070   29.0300   45.1920 O   0  0  0  0  0  0  0  0  0  0  0  0
   57.1970   30.4360   44.4910 C   0  0  0  0  0  0  0  0  0  0  0  0
   57.0150   31.6540   44.9860 N   0  0  0  0  0  0  0  0  0  0  0  0
   57.4700   32.5440   44.1190 N   0  0  0  0  0  0  0  0  0  0  0  0
   57.9600   31.8800   43.0340 C   0  0  0  0  0  0  0  0  0  0  0  0
   58.4780   32.3810   42.0000 O   0  0  0  0  0  0  0  0  0  0  0  0
   57.7780   30.5760   43.2910 N   0  0  0  0  0  0  0  0  0  0  0  0
   56.7020   26.6210   46.1460 C   0  0  0  0  0  0  0  0  0  0  0  0
   57.1260   26.3230   47.3020 O   0  0  0  0  0  0  0  0  0  0  0  0
   55.3450   26.7310   45.9840 O   0  0  0  0  0  0  0  0  0  0  0  0
   59.1220   28.5360   47.5740 C   0  0  0  0  0  0  0  0  0  0  0  0
   59.5060   29.7470   48.0950 C   0  0  0  0  0  0  0  0  0  0  0  0
   57.9724   34.3933   47.5775 H   0  0  0  0  0  0  0  0  0  0  0  0
   58.7020   34.9208   46.0231 H   0  0  0  0  0  0  0  0  0  0  0  0
   57.3232   33.7695   46.0231 H   0  0  0  0  0  0  0  0  0  0  0  0
   60.0984   35.1951   47.8108 H   0  0  0  0  0  0  0  0  0  0  0  0
   61.9120   35.2264   49.4991 H   0  0  0  0  0  0  0  0  0  0  0  0
   62.9613   33.0856   50.1784 H   0  0  0  0  0  0  0  0  0  0  0  0
   62.4670   30.8944   51.2973 H   0  0  0  0  0  0  0  0  0  0  0  0
   60.9966   30.0536   50.6991 H   0  0  0  0  0  0  0  0  0  0  0  0
   62.5795   29.2043   50.6991 H   0  0  0  0  0  0  0  0  0  0  0  0
   61.4056   30.8135   45.5427 H   0  0  0  0  0  0  0  0  0  0  0  0
   60.7109   28.6469   44.6195 H   0  0  0  0  0  0  0  0  0  0  0  0
   59.8582   26.5165   44.9825 H   0  0  0  0  0  0  0  0  0  0  0  0
   59.0780   26.0661   46.5718 H   0  0  0  0  0  0  0  0  0  0  0  0
   57.6757   26.0097   44.3583 H   0  0  0  0  0  0  0  0  0  0  0  0
   57.2270   27.9180   43.4000 H   0  0  0  0  0  0  0  0  0  0  0  0
   57.2778   28.9878   46.0813 H   0  0  0  0  0  0  0  0  0  0  0  0
   55.1120   28.1610   44.9480 H   0  0  0  0  0  0  0  0  0  0  0  0
   57.4940   33.5850   44.1680 H   0  0  0  0  0  0  0  0  0  0  0  0
   58.0550   29.8100   42.6380 H   0  0  0  0  0  0  0  0  0  0  0  0
   54.7740   27.4640   46.3960 H   0  0  0  0  0  0  0  0  0  0  0  0
   58.4641   27.8949   48.1791 H   0  0  0  0  0  0  0  0  0  0  0  0
   59.1508   30.0469   49.0919 H   0  0  0  0  0  0  0  0  0  0  0  0
  1  2  1  0
  2  3  1  0
  3  4  2  0
  4  5  1  0
  5  6  2  0
  6  7  1  0
  7  8  1  0
  8  9  1  0
  7 10  2  0
 10 11  1  0
 11 12  2  0
 12 13  1  0
 13 14  2  0
 14 15  1  0
 15 16  1  0
 16 17  1  0
 17 18  1  0
 18 19  1  0
 18 20  1  0
 20 21  2  0
 21 22  1  0
 22 23  1  0
 23 24  2  0
 23 25  1  0
 16 26  1  0
 26 27  2  0
 26 28  1  0
 14 29  1  0
 29 30  2  0
 10  3  1  0
 30 11  1  0
 25 20  1  0
  1 31  1  0
  1 32  1  0
  1 33  1  0
  4 34  1  0
  5 35  1  0
  6 36  1  0
  9 37  1  0
  9 38  1  0
  9 39  1  0
 12 40  1  0
 13 41  1  0
 15 42  1  0
 15 43  1  0
 16 44  1  6
 17 45  1  0
 18 46  1  1
 19 47  1  0
 22 48  1  0
 25 49  1  0
 28 50  1  0
 29 51  1  0
 30 52  1  0
M  END
>  <smiles>  (7) 
COc1cccc(OC)c1-c1ccc(CC(NC(O)c2n[nH]c(=O)[nH]2)C(=O)O)cc1

>  <score_type>  (7) 
oracle

>  <origin>  (7) 
adg

>  <m_score__min__energy>  (7) 
-9.9800000000000004

>  <m_primary>  (7) 
energy

$$$$
7:0
     RDKit          3D

 48 51  0  0  0  0  0  0  0  0999 V2000
   54.8340   26.3130   45.9420 N   0  0  0  0  0  0  0  0  0  0  0  0
   56.2490   25.3230   46.0390 S   0  0  0  0  0  0  0  0  0  0  0  0
   56.4930   24.6540   44.7160 O   0  0  0  0  0  0  0  0  0  0  0  0
   56.0320   24.2680   47.0880 O   0  0  0  0  0  0  0  0  0  0  0  0
   57.6390   26.3200   46.4560 C   0  0  0  0  0  0  0  0  0  0  0  0
   58.9340   25.9360   46.0840 C   0  0  0  0  0  0  0  0  0  0  0  0
   60.0300   26.7340   46.4280 C   0  0  0  0  0  0  0  0  0  0  0  0
   59.8430   27.9140   47.1700 C   0  0  0  0  0  0  0  0  0  0  0  0
   60.9480   28.7550   47.5420 N   0  0  0  0  0  0  0  0  0  0  0  0
   60.9410   30.0500   47.6790 C   0  0  0  0  0  0  0  0  0  0  0  0
   60.1010   30.7700   48.6580 C   0  0  0  0  0  0  0  0  0  0  0  0
   59.5340   32.0300   48.4990 C   0  0  0  0  0  0  0  0  0  0  0  0
   59.6720   32.8440   47.3240 N   0  0  0  0  0  0  0  0  0  0  0  0
   58.8890   32.6650   46.1330 C   0  0  0  0  0  0  0  0  0  0  0  0
   58.5990   33.7430   45.2770 C   0  0  0  0  0  0  0  0  0  0  0  0
   57.8480   33.5380   44.1150 C   0  0  0  0  0  0  0  0  0  0  0  0
   57.3960   32.2580   43.7890 C   0  0  0  0  0  0  0  0  0  0  0  0
   57.7020   31.1710   44.6180 C   0  0  0  0  0  0  0  0  0  0  0  0
   57.1270   29.5580   44.2090 S   0  0  0  0  0  0  0  0  0  0  0  0
   55.7430   29.1770   45.1710 N   0  0  0  0  0  0  0  0  0  0  0  0
   56.7590   29.5020   42.7520 O   0  0  0  0  0  0  0  0  0  0  0  0
   58.2110   28.5490   44.4700 O   0  0  0  0  0  0  0  0  0  0  0  0
   58.4500   31.3780   45.7850 C   0  0  0  0  0  0  0  0  0  0  0  0
   58.8020   32.3940   49.5810 N   0  0  0  0  0  0  0  0  0  0  0  0
   58.9110   31.3530   50.4280 C   0  0  0  0  0  0  0  0  0  0  0  0
   58.3210   31.2410   51.6890 C   0  0  0  0  0  0  0  0  0  0  0  0
   57.3510   32.5590   52.3340 Cl  0  0  0  0  0  0  0  0  0  0  0  0
   58.5300   30.0460   52.4130 C   0  0  0  0  0  0  0  0  0  0  0  0
   57.8290   29.8220   54.0110 Cl  0  0  0  0  0  0  0  0  0  0  0  0
   59.3010   29.0020   51.8550 C   0  0  0  0  0  0  0  0  0  0  0  0
   59.8760   29.1410   50.5810 C   0  0  0  0  0  0  0  0  0  0  0  0
   59.6790   30.3440   49.9020 C   0  0  0  0  0  0  0  0  0  0  0  0
   58.5440   28.3150   47.5000 C   0  0  0  0  0  0  0  0  0  0  0  0
   57.4470   27.5200   47.1540 C   0  0  0  0  0  0  0  0  0  0  0  0
   55.1430   27.3030   46.0730 H   0  0  0  0  0  0  0  0  0  0  0  0
   59.0892   25.0045   45.5199 H   0  0  0  0  0  0  0  0  0  0  0  0
   61.0425   26.4374   46.1169 H   0  0  0  0  0  0  0  0  0  0  0  0
   61.5995   30.6429   47.0272 H   0  0  0  0  0  0  0  0  0  0  0  0
   60.4400   33.5510   47.3040 H   0  0  0  0  0  0  0  0  0  0  0  0
   58.9643   34.7511   45.5225 H   0  0  0  0  0  0  0  0  0  0  0  0
   57.6130   34.3872   43.4565 H   0  0  0  0  0  0  0  0  0  0  0  0
   56.7981   32.1026   42.8789 H   0  0  0  0  0  0  0  0  0  0  0  0
   55.5380   28.1640   45.0230 H   0  0  0  0  0  0  0  0  0  0  0  0
   58.6952   30.5243   46.4339 H   0  0  0  0  0  0  0  0  0  0  0  0
   59.4523   28.0723   52.4231 H   0  0  0  0  0  0  0  0  0  0  0  0
   60.4636   28.3265   50.1323 H   0  0  0  0  0  0  0  0  0  0  0  0
   58.3845   29.2625   48.0355 H   0  0  0  0  0  0  0  0  0  0  0  0
   56.4307   27.8373   47.4304 H   0  0  0  0  0  0  0  0  0  0  0  0
  1  2  1  0
  2  3  2  0
  2  4  2  0
  2  5  1  0
  5  6  2  0
  6  7  1  0
  7  8  2  0
  8  9  1  0
  9 10  2  3
 10 11  1  0
 11 12  2  0
 12 13  1  0
 13 14  1  0
 14 15  2  0
 15 16  1  0
 16 17  2  0
 17 18  1  0
 18 19  1  0
 19 20  1  0
 19 21  2  0
 19 22  2  0
 18 23  2  0
 12 24  1  0
 24 25  1  0
 25 26  2  0
 26 27  1  0
 26 28  1  0
 28 29  1  0
 28 30  2  0
 30 31  1  0
 31 32  2  0
  8 33  1  0
 33 34  2  0
 34  5  1  0
 32 11  1  0
 23 14  1  0
 32 25  1  0
  1 35  1  0
  6 36  1  0
  7 37  1  0
 10 38  1  0
 13 39  1  0
 15 40  1  0
 16 41  1  0
 17 42  1  0
 20 43  1  0
 23 44  1  0
 30 45  1  0
 31 46  1  0
 33 47  1  0
 34 48  1  0
M  CHG  3   1  -1  20  -1  24  -1
M  END
>  <UniqueID>  (8) 
4

>  <SMILES>  (8) 
[NH-]S(=O)(=O)c1ccc(N=Cc2c(Nc3cccc(S([NH-])(=O)=O)c3)[n-]c3c(Cl)c(Cl)ccc23)cc1

>  <Energy>  (8) 
99.17846321258698

>  <Genealogy>  (8) 
[NH-]S(=O)(=O)c1ccc(N=Cc2c(Nc3cccc(S([NH-])(=O)=O)c3)[n-]c3c(Cl)c(Cl)ccc23)cc1 (protonated)
[NH-]S(=O)(=O)c1ccc(N=Cc2c(Nc3cccc(S([NH-])(=O)=O)c3)[n-]c3c(Cl)c(Cl)ccc23)cc1 (3D coordinates assigned)
[NH-]S(=O)(=O)c1ccc(N=Cc2c(Nc3cccc(S([NH-])(=O)=O)c3)[n-]c3c(Cl)c(Cl)ccc23)cc1 (optimized conformer: 99.17846321258698 kcal/mol)

>  <smiles>  (8) 
NS(=O)(=O)c1ccc(N=Cc2c(Nc3cccc(S(N)(=O)=O)c3)[nH]c3c(Cl)c(Cl)ccc23)cc1

>  <score_type>  (8) 
oracle

>  <origin>  (8) 
adg

>  <m_score__min__energy>  (8) 
-16.640000000000001

>  <m_primary>  (8) 
energy

$$$$
8:0
     RDKit          3D

 53 56  0  0  0  0  0  0  0  0999 V2000
   55.6280   20.8620   50.6440 C   0  0  0  0  0  0  0  0  0  0  0  0
   56.4530   21.4430   49.5420 C   0  0  0  0  0  0  0  0  0  0  0  0
   57.6800   21.1610   49.4730 O   0  0  0  0  0  0  0  0  0  0  0  0
   55.8530   22.3570   48.6110 N   0  0  0  0  0  0  0  0  0  0  0  0
   56.5090   22.8660   47.4370 C   0  0  0  0  0  0  0  0  0  0  0  0
   57.1410   22.0110   46.5170 C   0  0  0  0  0  0  0  0  0  0  0  0
   57.7410   22.5320   45.3680 C   0  0  0  0  0  0  0  0  0  0  0  0
   57.7140   23.9070   45.1220 C   0  0  0  0  0  0  0  0  0  0  0  0
   57.0840   24.7800   46.0260 C   0  0  0  0  0  0  0  0  0  0  0  0
   57.0510   26.2340   45.7380 C   0  0  0  0  0  0  0  0  0  0  0  0
   58.2260   26.9070   45.6010 N   0  0  0  0  0  0  0  0  0  0  0  0
   58.2840   28.2400   45.3420 C   0  0  0  0  0  0  0  0  0  0  0  0
   59.4630   28.7890   45.2310 N   0  0  0  0  0  0  0  0  0  0  0  0
   60.2930   29.3160   46.2750 C   0  0  0  0  0  0  0  0  0  0  0  0
   61.1900   30.1500   45.9880 O   0  0  0  0  0  0  0  0  0  0  0  0
   60.0350   28.9690   47.7100 C   0  0  0  0  0  0  0  0  0  0  0  0
   59.6000   30.1540   48.4400 N   0  0  0  0  0  0  0  0  0  0  0  0
   60.1130   31.3920   48.3190 C   0  0  0  0  0  0  0  0  0  0  0  0
   59.4560   32.2140   49.2110 C   0  0  0  0  0  0  0  0  0  0  0  0
   59.6450   33.6690   49.3770 C   0  0  0  0  0  0  0  0  0  0  0  0
   60.1930   34.1020   50.4240 O   0  0  0  0  0  0  0  0  0  0  0  0
   59.2890   34.6040   48.3500 N   0  0  0  0  0  0  0  0  0  0  0  0
   58.9000   34.2750   47.0100 C   0  0  0  0  0  0  0  0  0  0  0  0
   59.6810   34.6560   45.9040 C   0  0  0  0  0  0  0  0  0  0  0  0
   59.2880   34.3020   44.6100 C   0  0  0  0  0  0  0  0  0  0  0  0
   58.1210   33.5580   44.4120 C   0  0  0  0  0  0  0  0  0  0  0  0
   57.3540   33.1550   45.5080 C   0  0  0  0  0  0  0  0  0  0  0  0
   57.7450   33.5030   46.8040 C   0  0  0  0  0  0  0  0  0  0  0  0
   56.9970   33.0980   47.8630 F   0  0  0  0  0  0  0  0  0  0  0  0
   58.5400   31.3950   49.8490 C   0  0  0  0  0  0  0  0  0  0  0  0
   58.6540   30.1420   49.3680 N   0  0  0  0  0  0  0  0  0  0  0  0
   57.0650   28.9550   45.2450 C   0  0  0  0  0  0  0  0  0  0  0  0
   57.0330   30.1990   45.0570 O   0  0  0  0  0  0  0  0  0  0  0  0
   55.8920   28.2880   45.3950 N   0  0  0  0  0  0  0  0  0  0  0  0
   55.8480   26.9550   45.6410 C   0  0  0  0  0  0  0  0  0  0  0  0
   54.6160   26.3410   45.8290 O   0  0  0  0  0  0  0  0  0  0  0  0
   56.4610   24.2440   47.1690 C   0  0  0  0  0  0  0  0  0  0  0  0
   56.0509   21.1598   51.6148 H   0  0  0  0  0  0  0  0  0  0  0  0
   54.5957   21.2335   50.5642 H   0  0  0  0  0  0  0  0  0  0  0  0
   55.6300   19.7649   50.5642 H   0  0  0  0  0  0  0  0  0  0  0  0
   54.9200   22.7520   48.8620 H   0  0  0  0  0  0  0  0  0  0  0  0
   57.1631   20.9270   46.7028 H   0  0  0  0  0  0  0  0  0  0  0  0
   58.2365   21.8572   44.6544 H   0  0  0  0  0  0  0  0  0  0  0  0
   58.1889   24.3092   44.2149 H   0  0  0  0  0  0  0  0  0  0  0  0
   59.2502   28.2000   47.7633 H   0  0  0  0  0  0  0  0  0  0  0  0
   60.9628   28.5876   48.1614 H   0  0  0  0  0  0  0  0  0  0  0  0
   60.9151   31.6953   47.6301 H   0  0  0  0  0  0  0  0  0  0  0  0
   60.6040   35.2344   46.0577 H   0  0  0  0  0  0  0  0  0  0  0  0
   59.8973   34.6090   43.7471 H   0  0  0  0  0  0  0  0  0  0  0  0
   57.8065   33.2897   43.3926 H   0  0  0  0  0  0  0  0  0  0  0  0
   56.4406   32.5626   45.3507 H   0  0  0  0  0  0  0  0  0  0  0  0
   57.8310   31.7168   50.6261 H   0  0  0  0  0  0  0  0  0  0  0  0
   55.9295   24.9133   47.8615 H   0  0  0  0  0  0  0  0  0  0  0  0
  1  2  1  0
  2  3  2  0
  2  4  1  0
  4  5  1  0
  5  6  2  0
  6  7  1  0
  7  8  2  0
  8  9  1  0
  9 10  1  0
 10 11  1  0
 11 12  1  0
 12 13  2  3
 13 14  1  0
 14 15  2  0
 14 16  1  0
 16 17  1  0
 17 18  1  0
 18 19  2  0
 19 20  1  0
 20 21  2  0
 20 22  1  0
 22 23  1  0
 23 24  2  0
 24 25  1  0
 25 26  2  0
 26 27  1  0
 27 28  2  0
 28 29  1  0
 19 30  1  0
 30 31  2  0
 12 32  1  0
 32 33  2  0
 32 34  1  0
 34 35  1  0
 35 36  1  0
  9 37  2  0
 37  5  1  0
 35 10  2  0
 31 17  1  0
 28 23  1  0
  1 38  1  0
  1 39  1  0
  1 40  1  0
  4 41  1  0
  6 42  1  0
  7 43  1  0
  8 44  1  0
 16 45  1  0
 16 46  1  0
 18 47  1  0
 24 48  1  0
 25 49  1  0
 26 50  1  0
 27 51  1  0
 30 52  1  0
 37 53  1  0
M  CHG  4  11  -1  22  -1  34  -1  36  -1
M  END
>  <UniqueID>  (9) 
5

>  <SMILES>  (9) 
CC(=O)Nc1cccc(-c2[n-]c(=NC(=O)Cn3cc(C(=O)[N-]c4ccccc4F)cn3)c(=O)[n-]c2[O-])c1

>  <Energy>  (9) 
113.71597338173567

>  <Genealogy>  (9) 
CC(=O)Nc1cccc(-c2[n-]c(=NC(=O)Cn3cc(C(=O)[N-]c4ccccc4F)cn3)c(=O)[n-]c2[O-])c1 (protonated)
CC(=O)Nc1cccc(-c2[n-]c(=NC(=O)Cn3cc(C(=O)[N-]c4ccccc4F)cn3)c(=O)[n-]c2[O-])c1 (3D coordinates assigned)
CC(=O)Nc1cccc(-c2[n-]c(=NC(=O)Cn3cc(C(=O)[N-]c4ccccc4F)cn3)c(=O)[n-]c2[O-])c1 (optimized conformer: 113.71597338173567 kcal/mol)

>  <smiles>  (9) 
CC(=O)Nc1cccc(-c2[nH]c(=NC(=O)Cn3cc(C(=O)Nc4ccccc4F)cn3)c(=O)[nH]c2O)c1

>  <score_type>  (9) 
oracle

>  <origin>  (9) 
adg

>  <m_score__min__energy>  (9) 
-16.25

>  <m_primary>  (9) 
energy

$$$$
9:0
     RDKit          3D

 29 31  0  0  0  0  0  0  0  0999 V2000
   56.2880   27.8860   44.9910 H   0  0  0  0  0  0  0  0  0  0  0  0
   56.0870   28.7960   44.5930 O   0  0  0  0  0  0  0  0  0  0  0  0
   56.8660   29.9150   44.8880 C   0  0  0  0  0  0  0  0  0  0  0  0
   56.5100   31.1620   44.3580 C   0  0  0  0  0  0  0  0  0  0  0  0
   55.6004   31.2553   43.7465 H   0  0  0  0  0  0  0  0  0  0  0  0
   57.2980   32.2840   44.5990 C   0  0  0  0  0  0  0  0  0  0  0  0
   57.0074   33.2575   44.1773 H   0  0  0  0  0  0  0  0  0  0  0  0
   58.4580   32.1800   45.3750 C   0  0  0  0  0  0  0  0  0  0  0  0
   59.2500   33.3160   45.6080 C   0  0  0  0  0  0  0  0  0  0  0  0
   58.9597   34.2843   45.1742 H   0  0  0  0  0  0  0  0  0  0  0  0
   60.4030   33.2220   46.3870 C   0  0  0  0  0  0  0  0  0  0  0  0
   61.0204   34.1151   46.5634 H   0  0  0  0  0  0  0  0  0  0  0  0
   60.7750   31.9980   46.9430 C   0  0  0  0  0  0  0  0  0  0  0  0
   61.6843   31.9297   47.5582 H   0  0  0  0  0  0  0  0  0  0  0  0
   59.9980   30.8590   46.7220 C   0  0  0  0  0  0  0  0  0  0  0  0
   60.2979   29.8997   47.1691 H   0  0  0  0  0  0  0  0  0  0  0  0
   58.8310   30.9270   45.9300 C   0  0  0  0  0  0  0  0  0  0  0  0
   58.0150   29.7900   45.6960 C   0  0  0  0  0  0  0  0  0  0  0  0
   58.3820   28.4610   46.2420 C   0  0  0  0  0  0  0  0  0  0  0  0
   59.4328   28.1429   46.1747 H   0  0  0  0  0  0  0  0  0  0  0  0
   57.5270   27.6500   46.7970 N   0  0  0  0  0  0  0  0  0  0  0  0
   57.1740   26.3890   46.2810 N   0  0  0  0  0  0  0  0  0  0  0  0
   55.9510   25.9310   45.9670 C   0  0  0  0  0  0  0  0  0  0  0  0
   54.7820   26.6830   45.9970 O   0  0  0  0  0  0  0  0  0  0  0  0
   56.0380   24.5880   45.6800 C   0  0  0  0  0  0  0  0  0  0  0  0
   55.2025   23.9482   45.3597 H   0  0  0  0  0  0  0  0  0  0  0  0
   57.3160   24.1810   45.8550 N   0  0  0  0  0  0  0  0  0  0  0  0
   57.9650   25.3030   46.2370 C   0  0  0  0  0  0  0  0  0  0  0  0
   59.1900   25.3240   46.5280 O   0  0  0  0  0  0  0  0  0  0  0  0
  1  2  1  0
  2  3  1  0
  3  4  2  0
  4  5  1  0
  4  6  1  0
  6  7  1  0
  6  8  2  0
  8  9  1  0
  9 10  1  0
  9 11  2  0
 11 12  1  0
 11 13  1  0
 13 14  1  0
 13 15  2  0
 15 16  1  0
 15 17  1  0
 17 18  2  0
 18 19  1  0
 19 20  1  0
 19 21  2  0
 21 22  1  0
 22 23  1  0
 23 24  1  0
 23 25  2  0
 25 26  1  0
 25 27  1  0
 27 28  1  0
 28 29  2  0
 18  3  1  0
 28 22  1  0
 17  8  1  0
M  CHG  2  24  -1  27  -1
M  END
>  <UniqueID>  (10) 
6

>  <SMILES>  (10) 
O=c1[n-]cc([O-])n1/N=C\c1c(O)ccc2ccccc12

>  <Energy>  (10) 
82.26305592069636

>  <Genealogy>  (10) 
O=c1[n-]cc([O-])n1N=Cc1c(O)ccc2ccccc12 (protonated)
O=c1[n-]cc([O-])n1/N=C\c1c(O)ccc2ccccc12 (cis-trans isomerization)
O=c1[n-]cc([O-])n1/N=C\c1c(O)ccc2ccccc12 (3D coordinates assigned)
O=c1[n-]cc([O-])n1/N=C\c1c(O)ccc2ccccc12 (optimized conformer: 82.26305592069636 kcal/mol)

>  <smiles>  (10) 
O=c1[nH]cc(O)n1N=Cc1c(O)ccc2ccccc12

>  <score_type>  (10) 
oracle

>  <origin>  (10) 
adg

>  <m_score__min__energy>  (10) 
-12.81

>  <m_primary>  (10) 
energy

$$$$
10:0
     RDKit          3D

 54 57  0  0  0  0  0  0  0  0999 V2000
   63.7760   33.8540   47.3480 C   0  0  0  0  0  0  0  0  0  0  0  0
   62.5630   32.9870   47.1910 C   0  0  0  0  0  0  0  0  0  0  0  0
   62.6120   31.6310   47.5510 C   0  0  0  0  0  0  0  0  0  0  0  0
   61.4700   30.8330   47.4470 C   0  0  0  0  0  0  0  0  0  0  0  0
   60.2690   31.3840   46.9920 C   0  0  0  0  0  0  0  0  0  0  0  0
   60.2040   32.7390   46.6330 C   0  0  0  0  0  0  0  0  0  0  0  0
   58.9010   33.3460   46.1870 C   0  0  0  0  0  0  0  0  0  0  0  0
   58.3250   32.5630   45.0390 C   0  0  0  0  0  0  0  0  0  0  0  0
   58.4020   33.0650   43.7310 C   0  0  0  0  0  0  0  0  0  0  0  0
   57.8490   32.3460   42.6690 C   0  0  0  0  0  0  0  0  0  0  0  0
   57.2180   31.1230   42.9040 C   0  0  0  0  0  0  0  0  0  0  0  0
   57.1370   30.6020   44.2040 C   0  0  0  0  0  0  0  0  0  0  0  0
   56.4380   29.3130   44.4190 C   0  0  0  0  0  0  0  0  0  0  0  0
   55.1820   29.3410   44.5400 O   0  0  0  0  0  0  0  0  0  0  0  0
   57.1230   28.0320   44.4740 N   0  0  0  0  0  0  0  0  0  0  0  0
   58.5850   28.1400   44.2040 C   0  0  0  0  0  0  0  0  0  0  0  0
   59.4410   28.4190   45.4560 C   0  0  0  0  0  0  0  0  0  0  0  0
   58.9270   27.7160   46.6340 N   0  0  0  0  0  0  0  0  0  0  0  0
   59.4090   28.0840   47.9430 C   0  0  0  0  0  0  0  0  0  0  0  0
   60.3840   27.3190   48.6080 C   0  0  0  0  0  0  0  0  0  0  0  0
   60.7920   27.6870   49.8910 C   0  0  0  0  0  0  0  0  0  0  0  0
   60.2250   28.8030   50.5070 C   0  0  0  0  0  0  0  0  0  0  0  0
   59.2480   29.5330   49.8300 C   0  0  0  0  0  0  0  0  0  0  0  0
   58.8630   29.1590   48.5800 N   0  0  0  0  0  0  0  0  0  0  0  0
   57.9350   26.6600   46.4310 C   0  0  0  0  0  0  0  0  0  0  0  0
   56.7370   27.2450   45.6810 C   0  0  0  0  0  0  0  0  0  0  0  0
   57.6670   31.3440   45.2730 C   0  0  0  0  0  0  0  0  0  0  0  0
   61.3510   33.5410   46.7500 C   0  0  0  0  0  0  0  0  0  0  0  0
   63.9843   34.0029   48.4178 H   0  0  0  0  0  0  0  0  0  0  0  0
   64.6391   33.3669   46.8707 H   0  0  0  0  0  0  0  0  0  0  0  0
   63.5946   34.8283   46.8707 H   0  0  0  0  0  0  0  0  0  0  0  0
   63.5534   31.1950   47.9165 H   0  0  0  0  0  0  0  0  0  0  0  0
   61.5162   29.7694   47.7237 H   0  0  0  0  0  0  0  0  0  0  0  0
   59.3712   30.7531   46.9150 H   0  0  0  0  0  0  0  0  0  0  0  0
   58.1899   33.3355   47.0262 H   0  0  0  0  0  0  0  0  0  0  0  0
   59.0823   34.3802   45.8590 H   0  0  0  0  0  0  0  0  0  0  0  0
   58.8994   34.0277   43.5415 H   0  0  0  0  0  0  0  0  0  0  0  0
   57.9107   32.7441   41.6454 H   0  0  0  0  0  0  0  0  0  0  0  0
   56.7811   30.5638   42.0636 H   0  0  0  0  0  0  0  0  0  0  0  0
   56.7560   27.4900   43.6550 H   0  0  0  0  0  0  0  0  0  0  0  0
   58.9242   27.1932   43.7584 H   0  0  0  0  0  0  0  0  0  0  0  0
   58.7192   29.0002   43.5317 H   0  0  0  0  0  0  0  0  0  0  0  0
   60.4717   28.0860   45.2641 H   0  0  0  0  0  0  0  0  0  0  0  0
   59.4062   29.4993   45.6603 H   0  0  0  0  0  0  0  0  0  0  0  0
   60.8223   26.4360   48.1199 H   0  0  0  0  0  0  0  0  0  0  0  0
   61.5591   27.0983   50.4154 H   0  0  0  0  0  0  0  0  0  0  0  0
   60.5449   29.1039   51.5155 H   0  0  0  0  0  0  0  0  0  0  0  0
   58.7887   30.4114   50.3070 H   0  0  0  0  0  0  0  0  0  0  0  0
   58.3786   25.8449   45.8403 H   0  0  0  0  0  0  0  0  0  0  0  0
   57.6087   26.2625   47.4034 H   0  0  0  0  0  0  0  0  0  0  0  0
   56.0854   26.4173   45.3643 H   0  0  0  0  0  0  0  0  0  0  0  0
   56.2267   27.9344   46.3697 H   0  0  0  0  0  0  0  0  0  0  0  0
   57.5659   30.9673   46.3015 H   0  0  0  0  0  0  0  0  0  0  0  0
   61.2993   34.6097   46.4945 H   0  0  0  0  0  0  0  0  0  0  0  0
  1  2  1  0
  2  3  2  0
  3  4  1  0
  4  5  2  0
  5  6  1  0
  6  7  1  0
  7  8  1  0
  8  9  2  0
  9 10  1  0
 10 11  2  0
 11 12  1  0
 12 13  1  0
 13 14  2  0
 13 15  1  0
 15 16  1  0
 16 17  1  0
 17 18  1  0
 18 19  1  0
 19 20  2  0
 20 21  1  0
 21 22  2  0
 22 23  1  0
 23 24  2  0
 18 25  1  0
 25 26  1  0
 12 27  2  0
  6 28  2  0
 28  2  1  0
 27  8  1  0
 26 15  1  0
 24 19  1  0
  1 29  1  0
  1 30  1  0
  1 31  1  0
  3 32  1  0
  4 33  1  0
  5 34  1  0
  7 35  1  0
  7 36  1  0
  9 37  1  0
 10 38  1  0
 11 39  1  0
 15 40  1  0
 16 41  1  0
 16 42  1  0
 17 43  1  0
 17 44  1  0
 20 45  1  0
 21 46  1  0
 22 47  1  0
 23 48  1  0
 25 49  1  0
 25 50  1  0
 26 51  1  0
 26 52  1  0
 27 53  1  0
 28 54  1  0
M  CHG  1  15   1
M  END
>  <UniqueID>  (11) 
7

>  <SMILES>  (11) 
Cc1cccc(Cc2cccc(C(=O)[NH+]3CCN(c4ccccn4)CC3)c2)c1

>  <Energy>  (11) 
73.91189537801945

>  <Genealogy>  (11) 
Cc1cccc(Cc2cccc(C(=O)[NH+]3CCN(c4ccccn4)CC3)c2)c1 (protonated)
Cc1cccc(Cc2cccc(C(=O)[NH+]3CCN(c4ccccn4)CC3)c2)c1 (3D coordinates assigned)
Cc1cccc(Cc2cccc(C(=O)[NH+]3CCN(c4ccccn4)CC3)c2)c1 (nonaromatic ring conformer: 73.91189537801945 kcal/mol)

>  <smiles>  (11) 
Cc1cccc(Cc2cccc(C(=O)N3CCN(c4ccccn4)CC3)c2)c1

>  <score_type>  (11) 
oracle

>  <origin>  (11) 
adg

>  <m_score__min__energy>  (11) 
-8.5299999999999994

>  <m_primary>  (11) 
energy

$$$$
11:0
     RDKit          3D

 65 68  0  0  0  0  0  0  0  0999 V2000
   59.3090   34.2580   44.5020 C   0  0  0  0  0  0  0  0  0  0  0  0
   58.8860   34.7710   45.8770 C   0  0  0  0  0  0  0  0  0  0  0  0
   57.5880   34.1200   46.3790 C   0  0  0  0  0  0  0  0  0  0  0  0
   57.8430   33.0280   47.4280 C   0  0  0  0  0  0  0  0  0  0  0  0
   58.8010   32.0300   46.9100 N   0  0  0  0  0  0  0  0  0  0  0  0
   60.0620   31.9360   47.4410 C   0  0  0  0  0  0  0  0  0  0  0  0
   60.5120   32.8320   48.4670 N   0  0  0  0  0  0  0  0  0  0  0  0
   61.3800   33.9580   48.0930 C   0  0  0  0  0  0  0  0  0  0  0  0
   62.0650   34.5570   49.3240 C   0  0  0  0  0  0  0  0  0  0  0  0
   62.5930   33.4710   50.1630 N   0  0  0  0  0  0  0  0  0  0  0  0
   63.9990   33.3880   50.4660 C   0  0  0  0  0  0  0  0  0  0  0  0
   64.5590   34.1990   51.4690 C   0  0  0  0  0  0  0  0  0  0  0  0
   65.9170   34.0940   51.7840 C   0  0  0  0  0  0  0  0  0  0  0  0
   66.7240   33.1700   51.1170 C   0  0  0  0  0  0  0  0  0  0  0  0
   66.1780   32.3610   50.1170 C   0  0  0  0  0  0  0  0  0  0  0  0
   64.8210   32.4640   49.7940 C   0  0  0  0  0  0  0  0  0  0  0  0
   61.7060   32.3640   50.5630 C   0  0  0  0  0  0  0  0  0  0  0  0
   60.3390   32.4630   49.8780 C   0  0  0  0  0  0  0  0  0  0  0  0
   60.9350   30.9490   46.9930 C   0  0  0  0  0  0  0  0  0  0  0  0
   60.5190   30.0710   46.0030 C   0  0  0  0  0  0  0  0  0  0  0  0
   61.3100   29.1630   45.6260 O   0  0  0  0  0  0  0  0  0  0  0  0
   59.2660   30.1860   45.4610 N   0  0  0  0  0  0  0  0  0  0  0  0
   58.8130   29.2340   44.4260 C   0  0  0  0  0  0  0  0  0  0  0  0
   58.5550   27.8800   45.0250 C   0  0  0  0  0  0  0  0  0  0  0  0
   59.4760   27.2960   45.6630 O   0  0  0  0  0  0  0  0  0  0  0  0
   57.2730   27.2540   44.8600 N   0  0  0  0  0  0  0  0  0  0  0  0
   56.9830   25.9030   45.2570 C   0  0  0  0  0  0  0  0  0  0  0  0
   57.9150   24.8690   45.0460 C   0  0  0  0  0  0  0  0  0  0  0  0
   57.6130   23.5560   45.4220 C   0  0  0  0  0  0  0  0  0  0  0  0
   58.7880   22.2760   45.1620 Cl  0  0  0  0  0  0  0  0  0  0  0  0
   56.3740   23.2610   45.9980 C   0  0  0  0  0  0  0  0  0  0  0  0
   55.4340   24.2770   46.1910 C   0  0  0  0  0  0  0  0  0  0  0  0
   55.7310   25.5910   45.8180 C   0  0  0  0  0  0  0  0  0  0  0  0
   54.7820   26.5880   46.0190 O   0  0  0  0  0  0  0  0  0  0  0  0
   58.4050   31.1490   45.9300 C   0  0  0  0  0  0  0  0  0  0  0  0
   57.2340   31.2210   45.4580 O   0  0  0  0  0  0  0  0  0  0  0  0
   60.0045   33.4145   44.6234 H   0  0  0  0  0  0  0  0  0  0  0  0
   58.4206   33.9236   43.9462 H   0  0  0  0  0  0  0  0  0  0  0  0
   59.8065   35.0664   43.9462 H   0  0  0  0  0  0  0  0  0  0  0  0
   59.6896   34.5539   46.5961 H   0  0  0  0  0  0  0  0  0  0  0  0
   58.7023   35.8518   45.7864 H   0  0  0  0  0  0  0  0  0  0  0  0
   56.9539   34.8987   46.8279 H   0  0  0  0  0  0  0  0  0  0  0  0
   57.0977   33.6455   45.5162 H   0  0  0  0  0  0  0  0  0  0  0  0
   58.2558   33.4886   48.3377 H   0  0  0  0  0  0  0  0  0  0  0  0
   56.8923   32.5245   47.6573 H   0  0  0  0  0  0  0  0  0  0  0  0
   62.1488   33.6017   47.3916 H   0  0  0  0  0  0  0  0  0  0  0  0
   60.7604   34.7365   47.6239 H   0  0  0  0  0  0  0  0  0  0  0  0
   62.8912   35.2089   49.0040 H   0  0  0  0  0  0  0  0  0  0  0  0
   61.3371   35.1471   49.9001 H   0  0  0  0  0  0  0  0  0  0  0  0
   63.9258   34.9191   52.0081 H   0  0  0  0  0  0  0  0  0  0  0  0
   66.3513   34.7415   52.5600 H   0  0  0  0  0  0  0  0  0  0  0  0
   67.7886   33.0790   51.3785 H   0  0  0  0  0  0  0  0  0  0  0  0
   66.8165   31.6419   49.5829 H   0  0  0  0  0  0  0  0  0  0  0  0
   64.3942   31.8198   49.0111 H   0  0  0  0  0  0  0  0  0  0  0  0
   62.1772   31.4100   50.2840 H   0  0  0  0  0  0  0  0  0  0  0  0
   61.5516   32.4217   51.6506 H   0  0  0  0  0  0  0  0  0  0  0  0
   59.8284   31.4907   49.9407 H   0  0  0  0  0  0  0  0  0  0  0  0
   59.7364   33.2328   50.3822 H   0  0  0  0  0  0  0  0  0  0  0  0
   61.9453   30.8660   47.4200 H   0  0  0  0  0  0  0  0  0  0  0  0
   57.8849   29.6102   43.9710 H   0  0  0  0  0  0  0  0  0  0  0  0
   59.6008   29.1390   43.6642 H   0  0  0  0  0  0  0  0  0  0  0  0
   56.4860   27.8400   44.4980 H   0  0  0  0  0  0  0  0  0  0  0  0
   58.8867   25.0951   44.5826 H   0  0  0  0  0  0  0  0  0  0  0  0
   56.1389   22.2295   46.2993 H   0  0  0  0  0  0  0  0  0  0  0  0
   54.4568   24.0418   46.6381 H   0  0  0  0  0  0  0  0  0  0  0  0
  1  2  1  0
  2  3  1  0
  3  4  1  0
  4  5  1  0
  5  6  1  0
  6  7  1  0
  7  8  1  0
  8  9  1  0
  9 10  1  0
 10 11  1  0
 11 12  2  0
 12 13  1  0
 13 14  2  0
 14 15  1  0
 15 16  2  0
 10 17  1  0
 17 18  1  0
  6 19  2  0
 19 20  1  0
 20 21  2  0
 20 22  1  0
 22 23  1  0
 23 24  1  0
 24 25  2  0
 24 26  1  0
 26 27  1  0
 27 28  2  0
 28 29  1  0
 29 30  1  0
 29 31  2  0
 31 32  1  0
 32 33  2  0
 33 34  1  0
 22 35  1  0
 35 36  2  0
 35  5  1  0
 18  7  1  0
 33 27  1  0
 16 11  1  0
  1 37  1  0
  1 38  1  0
  1 39  1  0
  2 40  1  0
  2 41  1  0
  3 42  1  0
  3 43  1  0
  4 44  1  0
  4 45  1  0
  8 46  1  0
  8 47  1  0
  9 48  1  0
  9 49  1  0
 12 50  1  0
 13 51  1  0
 14 52  1  0
 15 53  1  0
 16 54  1  0
 17 55  1  0
 17 56  1  0
 18 57  1  0
 18 58  1  0
 19 59  1  0
 23 60  1  0
 23 61  1  0
 26 62  1  0
 28 63  1  0
 31 64  1  0
 32 65  1  0
M  CHG  1  34  -1
M  END
>  <UniqueID>  (12) 
8

>  <SMILES>  (12) 
CCCCn1c(N2CCN(c3ccccc3)CC2)cc(=O)n(CC(=O)Nc2cc(Cl)ccc2[O-])c1=O

>  <Energy>  (12) 
82.46418232008823

>  <Genealogy>  (12) 
CCCCn1c(N2CCN(c3ccccc3)CC2)cc(=O)n(CC(=O)Nc2cc(Cl)ccc2[O-])c1=O (protonated)
CCCCn1c(N2CCN(c3ccccc3)CC2)cc(=O)n(CC(=O)Nc2cc(Cl)ccc2[O-])c1=O (3D coordinates assigned)
CCCCn1c(N2CCN(c3ccccc3)CC2)cc(=O)n(CC(=O)Nc2cc(Cl)ccc2[O-])c1=O (nonaromatic ring conformer: 82.46418232008823 kcal/mol)

>  <smiles>  (12) 
CCCCn1c(N2CCN(c3ccccc3)CC2)cc(=O)n(CC(=O)Nc2cc(Cl)ccc2O)c1=O

>  <score_type>  (12) 
oracle

>  <origin>  (12) 
adg

>  <m_score__min__energy>  (12) 
-13.44

>  <m_primary>  (12) 
energy

$$$$
12:0
     RDKit          3D

 48 50  0  0  0  0  0  0  0  0999 V2000
   61.6400   26.5640   51.7220 C   0  0  0  0  0  0  0  0  0  0  0  0
   61.3060   26.2960   50.3650 O   0  0  0  0  0  0  0  0  0  0  0  0
   60.7170   27.2260   49.4940 C   0  0  0  0  0  0  0  0  0  0  0  0
   60.0870   28.3950   49.9550 C   0  0  0  0  0  0  0  0  0  0  0  0
   59.5120   29.2870   49.0490 C   0  0  0  0  0  0  0  0  0  0  0  0
   59.5410   29.0250   47.6730 C   0  0  0  0  0  0  0  0  0  0  0  0
   58.9390   29.9670   46.7710 N   0  0  0  0  0  0  0  0  0  0  0  0
   59.4190   31.3120   46.6110 C   0  0  0  0  0  0  0  0  0  0  0  0
   60.5170   31.6530   47.1270 O   0  0  0  0  0  0  0  0  0  0  0  0
   58.6260   32.2950   45.8430 C   0  0  0  0  0  0  0  0  0  0  0  0
   58.5180   33.6350   46.1730 C   0  0  0  0  0  0  0  0  0  0  0  0
   57.7520   34.2230   45.1880 C   0  0  0  0  0  0  0  0  0  0  0  0
   57.4170   33.2240   44.2980 C   0  0  0  0  0  0  0  0  0  0  0  0
   57.9380   32.0480   44.7000 N   0  0  0  0  0  0  0  0  0  0  0  0
   57.7490   30.7700   44.0060 C   0  0  0  0  0  0  0  0  0  0  0  0
   56.5190   30.0540   44.5020 C   0  0  0  0  0  0  0  0  0  0  0  0
   55.4100   30.6490   44.4700 O   0  0  0  0  0  0  0  0  0  0  0  0
   56.5670   28.7240   45.0310 N   0  0  0  0  0  0  0  0  0  0  0  0
   57.5640   27.7210   44.6810 C   0  0  0  0  0  0  0  0  0  0  0  0
   57.3490   26.5020   45.5140 C   0  0  0  0  0  0  0  0  0  0  0  0
   58.2540   25.4620   45.6810 C   0  0  0  0  0  0  0  0  0  0  0  0
   57.7450   24.4130   46.4560 C   0  0  0  0  0  0  0  0  0  0  0  0
   56.4400   24.6170   46.8860 C   0  0  0  0  0  0  0  0  0  0  0  0
   55.9160   26.1040   46.2980 S   0  0  0  0  0  0  0  0  0  0  0  0
   60.1990   27.8720   47.1960 C   0  0  0  0  0  0  0  0  0  0  0  0
   60.2890   27.6650   45.8090 O   0  0  0  0  0  0  0  0  0  0  0  0
   60.8790   28.5790   44.8910 C   0  0  0  0  0  0  0  0  0  0  0  0
   60.7700   26.9740   48.1190 C   0  0  0  0  0  0  0  0  0  0  0  0
   60.9547   26.0141   52.3838 H   0  0  0  0  0  0  0  0  0  0  0  0
   62.6738   26.2420   51.9156 H   0  0  0  0  0  0  0  0  0  0  0  0
   61.5497   27.6431   51.9156 H   0  0  0  0  0  0  0  0  0  0  0  0
   60.0472   28.6073   51.0336 H   0  0  0  0  0  0  0  0  0  0  0  0
   59.0313   30.2047   49.4187 H   0  0  0  0  0  0  0  0  0  0  0  0
   58.2390   29.6080   46.0840 H   0  0  0  0  0  0  0  0  0  0  0  0
   58.9573   34.1336   47.0496 H   0  0  0  0  0  0  0  0  0  0  0  0
   57.4642   35.2828   45.1246 H   0  0  0  0  0  0  0  0  0  0  0  0
   56.8117   33.3667   43.3907 H   0  0  0  0  0  0  0  0  0  0  0  0
   57.6426   30.9601   42.9278 H   0  0  0  0  0  0  0  0  0  0  0  0
   58.6245   30.1343   44.2046 H   0  0  0  0  0  0  0  0  0  0  0  0
   57.4660   27.4610   43.6167 H   0  0  0  0  0  0  0  0  0  0  0  0
   58.5715   28.1217   44.8666 H   0  0  0  0  0  0  0  0  0  0  0  0
   59.2657   25.4624   45.2492 H   0  0  0  0  0  0  0  0  0  0  0  0
   58.3247   23.5110   46.7016 H   0  0  0  0  0  0  0  0  0  0  0  0
   55.8501   23.9249   47.5049 H   0  0  0  0  0  0  0  0  0  0  0  0
   61.3937   29.3764   45.4471 H   0  0  0  0  0  0  0  0  0  0  0  0
   61.6042   28.0464   44.2582 H   0  0  0  0  0  0  0  0  0  0  0  0
   60.0950   29.0206   44.2582 H   0  0  0  0  0  0  0  0  0  0  0  0
   61.2644   26.0619   47.7535 H   0  0  0  0  0  0  0  0  0  0  0  0
  1  2  1  0
  2  3  1  0
  3  4  2  0
  4  5  1  0
  5  6  2  0
  6  7  1  0
  7  8  1  0
  8  9  2  0
  8 10  1  0
 10 11  2  0
 11 12  1  0
 12 13  2  0
 13 14  1  0
 14 15  1  0
 15 16  1  0
 16 17  2  0
 16 18  1  0
 18 19  1  0
 19 20  1  0
 20 21  2  0
 21 22  1  0
 22 23  2  0
 23 24  1  0
  6 25  1  0
 25 26  1  0
 26 27  1  0
 25 28  2  0
 28  3  1  0
 14 10  1  0
 24 20  1  0
  1 29  1  0
  1 30  1  0
  1 31  1  0
  4 32  1  0
  5 33  1  0
  7 34  1  0
 11 35  1  0
 12 36  1  0
 13 37  1  0
 15 38  1  0
 15 39  1  0
 19 40  1  0
 19 41  1  0
 21 42  1  0
 22 43  1  0
 23 44  1  0
 27 45  1  0
 27 46  1  0
 27 47  1  0
 28 48  1  0
M  CHG  1  18  -1
M  END
>  <UniqueID>  (13) 
9

>  <SMILES>  (13) 
COc1ccc(NC(=O)c2cccn2CC(=O)[N-]Cc2cccs2)c(OC)c1

>  <Energy>  (13) 
102.69589781331067

>  <Genealogy>  (13) 
COc1ccc(NC(=O)c2cccn2CC(=O)[N-]Cc2cccs2)c(OC)c1 (protonated)
COc1ccc(NC(=O)c2cccn2CC(=O)[N-]Cc2cccs2)c(OC)c1 (3D coordinates assigned)
COc1ccc(NC(=O)c2cccn2CC(=O)[N-]Cc2cccs2)c(OC)c1 (optimized conformer: 102.69589781331067 kcal/mol)

>  <smiles>  (13) 
COc1ccc(NC(=O)c2cccn2CC(=O)NCc2cccs2)c(OC)c1

>  <score_type>  (13) 
oracle

>  <origin>  (13) 
adg

>  <m_score__min__energy>  (13) 
-10.1

>  <m_primary>  (13) 
energy

$$$$
13:0
     RDKit          3D

 37 38  0  0  0  0  0  0  0  0999 V2000
   55.5360   29.0280   44.8920 O   0  0  0  0  0  0  0  0  0  0  0  0
   56.5340   29.7680   44.6840 C   0  0  0  0  0  0  0  0  0  0  0  0
   57.8040   29.1530   44.1690 C   0  0  0  0  0  0  0  0  0  0  0  0
   58.9530   28.9200   45.5090 Cl  0  0  0  0  0  0  0  0  0  0  0  0
   56.3880   31.1860   44.8460 N   0  0  0  0  0  0  0  0  0  0  0  0
   57.4360   32.1060   45.1760 C   0  0  0  0  0  0  0  0  0  0  0  0
   57.9110   32.9780   44.1910 C   0  0  0  0  0  0  0  0  0  0  0  0
   58.9050   33.9110   44.4970 C   0  0  0  0  0  0  0  0  0  0  0  0
   59.4210   33.9850   45.7930 C   0  0  0  0  0  0  0  0  0  0  0  0
   58.9480   33.1220   46.7920 C   0  0  0  0  0  0  0  0  0  0  0  0
   59.5770   33.2390   48.4390 S   0  0  0  0  0  0  0  0  0  0  0  0
   58.5290   32.7130   49.3830 O   0  0  0  0  0  0  0  0  0  0  0  0
   59.8050   34.6860   48.7740 O   0  0  0  0  0  0  0  0  0  0  0  0
   61.0660   32.3440   48.6900 N   0  0  0  0  0  0  0  0  0  0  0  0
   61.6390   31.8320   47.4120 C   0  0  0  0  0  0  0  0  0  0  0  0
   63.0690   32.3130   47.1260 C   0  0  0  0  0  0  0  0  0  0  0  0
   63.1840   33.8090   47.3830 C   0  0  0  0  0  0  0  0  0  0  0  0
   62.8430   34.1570   48.8370 C   0  0  0  0  0  0  0  0  0  0  0  0
   62.0180   33.0730   49.5610 C   0  0  0  0  0  0  0  0  0  0  0  0
   57.9300   32.2070   46.4860 C   0  0  0  0  0  0  0  0  0  0  0  0
   57.5774   28.1795   43.7097 H   0  0  0  0  0  0  0  0  0  0  0  0
   58.2525   29.8227   43.4204 H   0  0  0  0  0  0  0  0  0  0  0  0
   57.5005   32.9291   43.1716 H   0  0  0  0  0  0  0  0  0  0  0  0
   59.2817   34.5882   43.7163 H   0  0  0  0  0  0  0  0  0  0  0  0
   60.2013   34.7230   46.0308 H   0  0  0  0  0  0  0  0  0  0  0  0
   60.7680   31.5050   49.2410 H   0  0  0  0  0  0  0  0  0  0  0  0
   61.6465   30.7328   47.4532 H   0  0  0  0  0  0  0  0  0  0  0  0
   61.0058   32.2238   46.6023 H   0  0  0  0  0  0  0  0  0  0  0  0
   63.7703   31.7770   47.7824 H   0  0  0  0  0  0  0  0  0  0  0  0
   63.3105   32.1112   46.0720 H   0  0  0  0  0  0  0  0  0  0  0  0
   64.2145   34.1300   47.1708 H   0  0  0  0  0  0  0  0  0  0  0  0
   62.4695   34.3279   46.7271 H   0  0  0  0  0  0  0  0  0  0  0  0
   63.7837   34.3025   49.3883 H   0  0  0  0  0  0  0  0  0  0  0  0
   62.2242   35.0661   48.8116 H   0  0  0  0  0  0  0  0  0  0  0  0
   62.7161   32.3421   49.9950 H   0  0  0  0  0  0  0  0  0  0  0  0
   61.4144   33.5926   50.3197 H   0  0  0  0  0  0  0  0  0  0  0  0
   57.5162   31.5647   47.2773 H   0  0  0  0  0  0  0  0  0  0  0  0
  1  2  2  0
  2  3  1  0
  3  4  1  0
  2  5  1  0
  5  6  1  0
  6  7  2  0
  7  8  1  0
  8  9  2  0
  9 10  1  0
 10 11  1  0
 11 12  2  0
 11 13  2  0
 11 14  1  0
 14 15  1  0
 15 16  1  0
 16 17  1  0
 17 18  1  0
 18 19  1  0
 10 20  2  0
 20  6  1  0
 19 14  1  0
  3 21  1  0
  3 22  1  0
  7 23  1  0
  8 24  1  0
  9 25  1  0
 14 26  1  0
 15 27  1  0
 15 28  1  0
 16 29  1  0
 16 30  1  0
 17 31  1  0
 17 32  1  0
 18 33  1  0
 18 34  1  0
 19 35  1  0
 19 36  1  0
 20 37  1  0
M  CHG  2   5  -1  14   1
M  END
>  <UniqueID>  (14) 
10

>  <SMILES>  (14) 
O=C(CCl)[N-]c1cccc(S(=O)(=O)[NH+]2CCCCC2)c1

>  <Energy>  (14) 
46.25624037075667

>  <Genealogy>  (14) 
O=C(CCl)[N-]c1cccc(S(=O)(=O)[NH+]2CCCCC2)c1 (protonated)
O=C(CCl)[N-]c1cccc(S(=O)(=O)[NH+]2CCCCC2)c1 (3D coordinates assigned)
O=C(CCl)[N-]c1cccc(S(=O)(=O)[NH+]2CCCCC2)c1 (nonaromatic ring conformer: 46.25624037075667 kcal/mol)

>  <smiles>  (14) 
O=C(CCl)Nc1cccc(S(=O)(=O)N2CCCCC2)c1

>  <score_type>  (14) 
oracle

>  <origin>  (14) 
adg

>  <m_score__min__energy>  (14) 
-8.3699999999999992

>  <m_primary>  (14) 
energy

$$$$
14:0
     RDKit          3D

 46 48  0  0  0  0  0  0  0  0999 V2000
   55.5320   24.4650   47.3000 O   0  0  0  0  0  0  0  0  0  0  0  0
   56.1760   25.3570   46.6910 C   0  0  0  0  0  0  0  0  0  0  0  0
   55.5470   26.4870   46.2830 N   0  0  0  0  0  0  0  0  0  0  0  0
   56.2190   27.4660   45.6230 C   0  0  0  0  0  0  0  0  0  0  0  0
   55.5330   28.6070   45.2230 O   0  0  0  0  0  0  0  0  0  0  0  0
   57.5930   27.3200   45.3560 C   0  0  0  0  0  0  0  0  0  0  0  0
   58.3550   28.3770   44.5890 C   0  0  0  0  0  0  0  0  0  0  0  0
   58.3900   29.6690   45.3630 C   0  0  0  0  0  0  0  0  0  0  0  0
   58.7700   29.6760   46.7150 C   0  0  0  0  0  0  0  0  0  0  0  0
   58.7650   30.8680   47.4460 C   0  0  0  0  0  0  0  0  0  0  0  0
   58.3690   32.0730   46.8340 C   0  0  0  0  0  0  0  0  0  0  0  0
   58.3330   33.2970   47.5220 O   0  0  0  0  0  0  0  0  0  0  0  0
   58.7760   34.5530   47.0100 C   0  0  0  0  0  0  0  0  0  0  0  0
   60.3150   34.6270   46.9190 C   0  0  0  0  0  0  0  0  0  0  0  0
   60.9970   33.5250   47.6460 N   0  0  0  0  0  0  0  0  0  0  0  0
   62.2460   33.1050   46.9460 C   0  0  0  0  0  0  0  0  0  0  0  0
   63.2560   32.4490   47.8960 C   0  0  0  0  0  0  0  0  0  0  0  0
   63.7080   33.4390   48.9820 C   0  0  0  0  0  0  0  0  0  0  0  0
   62.6210   34.4730   49.3240 C   0  0  0  0  0  0  0  0  0  0  0  0
   61.2200   33.9000   49.0750 C   0  0  0  0  0  0  0  0  0  0  0  0
   57.9950   32.0630   45.4870 C   0  0  0  0  0  0  0  0  0  0  0  0
   58.0000   30.8710   44.7560 C   0  0  0  0  0  0  0  0  0  0  0  0
   58.2180   26.1330   45.7860 C   0  0  0  0  0  0  0  0  0  0  0  0
   59.4430   25.9350   45.5720 O   0  0  0  0  0  0  0  0  0  0  0  0
   57.4980   25.1870   46.4420 N   0  0  0  0  0  0  0  0  0  0  0  0
   59.3846   28.0290   44.4189 H   0  0  0  0  0  0  0  0  0  0  0  0
   57.8499   28.5521   43.6276 H   0  0  0  0  0  0  0  0  0  0  0  0
   59.0736   28.7376   47.2021 H   0  0  0  0  0  0  0  0  0  0  0  0
   59.0714   30.8645   48.5025 H   0  0  0  0  0  0  0  0  0  0  0  0
   58.3530   34.6964   46.0047 H   0  0  0  0  0  0  0  0  0  0  0  0
   58.4370   35.3407   47.6990 H   0  0  0  0  0  0  0  0  0  0  0  0
   60.6054   34.5792   45.8591 H   0  0  0  0  0  0  0  0  0  0  0  0
   60.6257   35.5713   47.3898 H   0  0  0  0  0  0  0  0  0  0  0  0
   60.3470   32.7030   47.6520 H   0  0  0  0  0  0  0  0  0  0  0  0
   61.9837   32.3848   46.1570 H   0  0  0  0  0  0  0  0  0  0  0  0
   62.7159   34.0074   46.5278 H   0  0  0  0  0  0  0  0  0  0  0  0
   62.7864   31.5775   48.3756 H   0  0  0  0  0  0  0  0  0  0  0  0
   64.1363   32.1383   47.3142 H   0  0  0  0  0  0  0  0  0  0  0  0
   63.9573   32.8745   49.8926 H   0  0  0  0  0  0  0  0  0  0  0  0
   64.5803   33.9858   48.5945 H   0  0  0  0  0  0  0  0  0  0  0  0
   62.7119   34.7535   50.3838 H   0  0  0  0  0  0  0  0  0  0  0  0
   62.7594   35.3535   48.6793 H   0  0  0  0  0  0  0  0  0  0  0  0
   61.0904   33.0032   49.6987 H   0  0  0  0  0  0  0  0  0  0  0  0
   60.4903   34.6822   49.3314 H   0  0  0  0  0  0  0  0  0  0  0  0
   57.6941   33.0012   44.9978 H   0  0  0  0  0  0  0  0  0  0  0  0
   57.6962   30.8765   43.6988 H   0  0  0  0  0  0  0  0  0  0  0  0
  1  2  2  0
  2  3  1  0
  3  4  1  0
  4  5  1  0
  4  6  2  0
  6  7  1  0
  7  8  1  0
  8  9  2  0
  9 10  1  0
 10 11  2  0
 11 12  1  0
 12 13  1  0
 13 14  1  0
 14 15  1  0
 15 16  1  0
 16 17  1  0
 17 18  1  0
 18 19  1  0
 19 20  1  0
 11 21  1  0
 21 22  2  0
  6 23  1  0
 23 24  2  0
 23 25  1  0
 25  2  1  0
 22  8  1  0
 20 15  1  0
  7 26  1  0
  7 27  1  0
  9 28  1  0
 10 29  1  0
 13 30  1  0
 13 31  1  0
 14 32  1  0
 14 33  1  0
 15 34  1  0
 16 35  1  0
 16 36  1  0
 17 37  1  0
 17 38  1  0
 18 39  1  0
 18 40  1  0
 19 41  1  0
 19 42  1  0
 20 43  1  0
 20 44  1  0
 21 45  1  0
 22 46  1  0
M  CHG  4   3  -1   5  -1  15   1  25  -1
M  END
>  <UniqueID>  (15) 
11

>  <SMILES>  (15) 
O=c1[n-]c([O-])c(Cc2ccc(OCC[NH+]3CCCCC3)cc2)c(=O)[n-]1

>  <Energy>  (15) 
56.74309155632955

>  <Genealogy>  (15) 
O=c1[n-]c([O-])c(Cc2ccc(OCC[NH+]3CCCCC3)cc2)c(=O)[n-]1 (protonated)
O=c1[n-]c([O-])c(Cc2ccc(OCC[NH+]3CCCCC3)cc2)c(=O)[n-]1 (3D coordinates assigned)
O=c1[n-]c([O-])c(Cc2ccc(OCC[NH+]3CCCCC3)cc2)c(=O)[n-]1 (nonaromatic ring conformer: 56.74309155632955 kcal/mol)

>  <smiles>  (15) 
O=c1[nH]c(O)c(Cc2ccc(OCCN3CCCCC3)cc2)c(=O)[nH]1

>  <score_type>  (15) 
oracle

>  <origin>  (15) 
adg

>  <m_score__min__energy>  (15) 
-13.619999999999999

>  <m_primary>  (15) 
energy

$$$$
15:0
     RDKit          3D

 62 64  0  0  0  0  0  0  0  0999 V2000
   57.0750   32.3470   40.9010 C   0  0  0  0  0  0  0  0  0  0  0  0
   58.1500   32.1080   41.9570 C   0  0  0  0  0  0  0  0  0  0  0  0
   57.5430   31.9920   43.2900 N   0  0  0  0  0  0  0  0  0  0  0  0
   57.7700   33.0370   44.2950 C   0  0  0  0  0  0  0  0  0  0  0  0
   58.5380   32.4900   45.4630 C   0  0  0  0  0  0  0  0  0  0  0  0
   59.5860   33.0790   45.8530 O   0  0  0  0  0  0  0  0  0  0  0  0
   58.0470   31.3380   46.1650 N   0  0  0  0  0  0  0  0  0  0  0  0
   58.7790   30.6640   47.2010 C   0  0  0  0  0  0  0  0  0  0  0  0
   58.8990   31.2000   48.4880 C   0  0  0  0  0  0  0  0  0  0  0  0
   59.6140   30.5180   49.4730 C   0  0  0  0  0  0  0  0  0  0  0  0
   60.2420   29.3070   49.1880 C   0  0  0  0  0  0  0  0  0  0  0  0
   60.9510   28.6670   50.2160 O   0  0  0  0  0  0  0  0  0  0  0  0
   61.8470   29.3230   51.1150 C   0  0  0  0  0  0  0  0  0  0  0  0
   60.1500   28.7830   47.8910 C   0  0  0  0  0  0  0  0  0  0  0  0
   59.4380   29.4660   46.9040 C   0  0  0  0  0  0  0  0  0  0  0  0
   56.7470   30.8450   43.6370 C   0  0  0  0  0  0  0  0  0  0  0  0
   55.8240   30.9600   44.4940 O   0  0  0  0  0  0  0  0  0  0  0  0
   57.0110   29.5060   43.0030 C   0  0  0  0  0  0  0  0  0  0  0  0
   57.3960   28.4800   44.0400 C   0  0  0  0  0  0  0  0  0  0  0  0
   56.5960   28.2700   45.1760 C   0  0  0  0  0  0  0  0  0  0  0  0
   56.9370   27.2770   46.1040 C   0  0  0  0  0  0  0  0  0  0  0  0
   58.0800   26.4860   45.9040 C   0  0  0  0  0  0  0  0  0  0  0  0
   58.5020   25.2010   47.0820 S   0  0  0  0  0  0  0  0  0  0  0  0
   58.7480   23.9460   45.8120 C   0  0  0  0  0  0  0  0  0  0  0  0
   59.9160   23.5060   45.6430 O   0  0  0  0  0  0  0  0  0  0  0  0
   57.6640   23.4520   44.9960 N   0  0  0  0  0  0  0  0  0  0  0  0
   57.9470   22.3770   44.0280 C   0  0  0  0  0  0  0  0  0  0  0  0
   56.8270   22.2430   42.9790 C   0  0  0  0  0  0  0  0  0  0  0  0
   55.5480   22.2800   43.5750 O   0  0  0  0  0  0  0  0  0  0  0  0
   55.3470   23.5570   44.1470 C   0  0  0  0  0  0  0  0  0  0  0  0
   56.2730   23.7650   45.3430 C   0  0  0  0  0  0  0  0  0  0  0  0
   58.8970   26.7150   44.7910 C   0  0  0  0  0  0  0  0  0  0  0  0
   58.5570   27.7030   43.8600 C   0  0  0  0  0  0  0  0  0  0  0  0
   56.1160   32.5602   41.3958 H   0  0  0  0  0  0  0  0  0  0  0  0
   57.3619   33.2033   40.2729 H   0  0  0  0  0  0  0  0  0  0  0  0
   56.9721   31.4498   40.2729 H   0  0  0  0  0  0  0  0  0  0  0  0
   58.6884   31.1780   41.7219 H   0  0  0  0  0  0  0  0  0  0  0  0
   58.8466   32.9593   41.9555 H   0  0  0  0  0  0  0  0  0  0  0  0
   58.3421   33.8585   43.8392 H   0  0  0  0  0  0  0  0  0  0  0  0
   56.7959   33.4031   44.6516 H   0  0  0  0  0  0  0  0  0  0  0  0
   57.0460   31.0690   46.0230 H   0  0  0  0  0  0  0  0  0  0  0  0
   58.4268   32.1649   48.7246 H   0  0  0  0  0  0  0  0  0  0  0  0
   59.6828   30.9410   50.4861 H   0  0  0  0  0  0  0  0  0  0  0  0
   61.5504   29.1059   52.1518 H   0  0  0  0  0  0  0  0  0  0  0  0
   62.8708   28.9594   50.9427 H   0  0  0  0  0  0  0  0  0  0  0  0
   61.8096   30.4088   50.9427 H   0  0  0  0  0  0  0  0  0  0  0  0
   60.6414   27.8288   47.6501 H   0  0  0  0  0  0  0  0  0  0  0  0
   59.3945   29.0587   45.8831 H   0  0  0  0  0  0  0  0  0  0  0  0
   56.1015   29.1686   42.4843 H   0  0  0  0  0  0  0  0  0  0  0  0
   57.8439   29.6141   42.2927 H   0  0  0  0  0  0  0  0  0  0  0  0
   55.6996   28.8868   45.3372 H   0  0  0  0  0  0  0  0  0  0  0  0
   56.3076   27.1166   46.9917 H   0  0  0  0  0  0  0  0  0  0  0  0
   58.8925   22.6016   43.5127 H   0  0  0  0  0  0  0  0  0  0  0  0
   58.0137   21.4281   44.5804 H   0  0  0  0  0  0  0  0  0  0  0  0
   56.9100   23.0720   42.2607 H   0  0  0  0  0  0  0  0  0  0  0  0
   56.9430   21.2723   42.4748 H   0  0  0  0  0  0  0  0  0  0  0  0
   55.5553   24.3282   43.3907 H   0  0  0  0  0  0  0  0  0  0  0  0
   54.3045   23.6304   44.4902 H   0  0  0  0  0  0  0  0  0  0  0  0
   56.2111   24.8144   45.6668 H   0  0  0  0  0  0  0  0  0  0  0  0
   55.9550   23.0909   46.1520 H   0  0  0  0  0  0  0  0  0  0  0  0
   59.8089   26.1168   44.6476 H   0  0  0  0  0  0  0  0  0  0  0  0
   59.1994   27.8736   42.9835 H   0  0  0  0  0  0  0  0  0  0  0  0
  1  2  1  0
  2  3  1  0
  3  4  1  0
  4  5  1  0
  5  6  2  0
  5  7  1  0
  7  8  1  0
  8  9  2  0
  9 10  1  0
 10 11  2  0
 11 12  1  0
 12 13  1  0
 11 14  1  0
 14 15  2  0
  3 16  1  0
 16 17  2  0
 16 18  1  0
 18 19  1  0
 19 20  2  0
 20 21  1  0
 21 22  2  0
 22 23  1  0
 23 24  1  0
 24 25  2  0
 24 26  1  0
 26 27  1  0
 27 28  1  0
 28 29  1  0
 29 30  1  0
 30 31  1  0
 22 32  1  0
 32 33  2  0
 15  8  1  0
 33 19  1  0
 31 26  1  0
  1 34  1  0
  1 35  1  0
  1 36  1  0
  2 37  1  0
  2 38  1  0
  4 39  1  0
  4 40  1  0
  7 41  1  0
  9 42  1  0
 10 43  1  0
 13 44  1  0
 13 45  1  0
 13 46  1  0
 14 47  1  0
 15 48  1  0
 18 49  1  0
 18 50  1  0
 20 51  1  0
 21 52  1  0
 27 53  1  0
 27 54  1  0
 28 55  1  0
 28 56  1  0
 30 57  1  0
 30 58  1  0
 31 59  1  0
 31 60  1  0
 32 61  1  0
 33 62  1  0
M  END
>  <UniqueID>  (16) 
12

>  <SMILES>  (16) 
CCN(CC(=O)Nc1ccc(OC)cc1)C(=O)Cc1ccc(SC(=O)N2CCOCC2)cc1

>  <Energy>  (16) 
60.730995536197106

>  <Genealogy>  (16) 
CCN(CC(=O)Nc1ccc(OC)cc1)C(=O)Cc1ccc(SC(=O)N2CCOCC2)cc1 (3D coordinates assigned)
CCN(CC(=O)Nc1ccc(OC)cc1)C(=O)Cc1ccc(SC(=O)N2CCOCC2)cc1 (nonaromatic ring conformer: 60.730995536197106 kcal/mol)

>  <smiles>  (16) 
CCN(CC(=O)Nc1ccc(OC)cc1)C(=O)Cc1ccc(SC(=O)N2CCOCC2)cc1

>  <score_type>  (16) 
oracle

>  <origin>  (16) 
adg

>  <m_score__min__energy>  (16) 
-9.1899999999999995

>  <m_primary>  (16) 
energy

$$$$
16:0
     RDKit          3D

 49 51  0  0  0  0  0  0  0  0999 V2000
   58.5697   29.7199   45.3590 H   0  0  0  0  0  0  0  0  0  0  0  0
   57.7430   29.1570   44.9010 C   0  0  0  0  0  0  0  0  0  0  0  0
   56.4260   29.8110   44.7610 C   0  0  0  0  0  0  0  0  0  0  0  0
   55.4120   29.0940   44.5580 O   0  0  0  0  0  0  0  0  0  0  0  0
   56.2630   31.2320   44.8630 N   0  0  0  0  0  0  0  0  0  0  0  0
   57.3260   32.1790   45.0470 C   0  0  0  0  0  0  0  0  0  0  0  0
   57.8000   32.4050   46.3450 C   0  0  0  0  0  0  0  0  0  0  0  0
   57.3358   31.8814   47.1938 H   0  0  0  0  0  0  0  0  0  0  0  0
   58.8590   33.2910   46.5720 C   0  0  0  0  0  0  0  0  0  0  0  0
   59.5260   33.4610   48.1940 S   0  0  0  0  0  0  0  0  0  0  0  0
   58.5770   32.8510   49.1870 O   0  0  0  0  0  0  0  0  0  0  0  0
   59.7010   34.9150   48.5340 O   0  0  0  0  0  0  0  0  0  0  0  0
   61.0540   32.6380   48.2840 N   0  0  0  0  0  0  0  0  0  0  0  0
   61.0190   32.0450   49.1470 H   0  0  0  0  0  0  0  0  0  0  0  0
   61.2080   31.7560   47.1240 C   0  0  0  0  0  0  0  0  0  0  0  0
   60.6463   32.1705   46.2739 H   0  0  0  0  0  0  0  0  0  0  0  0
   62.2746   31.6820   46.8654 H   0  0  0  0  0  0  0  0  0  0  0  0
   60.6830   30.3880   47.4470 C   0  0  0  0  0  0  0  0  0  0  0  0
   60.0840   30.1610   48.6490 N   0  0  0  0  0  0  0  0  0  0  0  0
   59.5650   28.9470   48.9720 C   0  0  0  0  0  0  0  0  0  0  0  0
   59.0929   28.7955   49.9539 H   0  0  0  0  0  0  0  0  0  0  0  0
   59.6300   27.8910   48.0590 C   0  0  0  0  0  0  0  0  0  0  0  0
   59.2139   26.9061   48.3174 H   0  0  0  0  0  0  0  0  0  0  0  0
   60.2290   28.1000   46.8150 C   0  0  0  0  0  0  0  0  0  0  0  0
   60.2853   27.2795   46.0845 H   0  0  0  0  0  0  0  0  0  0  0  0
   60.7560   29.3540   46.5020 C   0  0  0  0  0  0  0  0  0  0  0  0
   61.2246   29.5299   45.5225 H   0  0  0  0  0  0  0  0  0  0  0  0
   59.4310   33.9760   45.4950 C   0  0  0  0  0  0  0  0  0  0  0  0
   60.2648   34.6720   45.6691 H   0  0  0  0  0  0  0  0  0  0  0  0
   58.9480   33.7800   44.2000 C   0  0  0  0  0  0  0  0  0  0  0  0
   59.3991   34.3283   43.3598 H   0  0  0  0  0  0  0  0  0  0  0  0
   57.8870   32.8850   43.9620 C   0  0  0  0  0  0  0  0  0  0  0  0
   57.3640   32.6880   42.6740 O   0  0  0  0  0  0  0  0  0  0  0  0
   58.1380   32.3400   41.5300 C   0  0  0  0  0  0  0  0  0  0  0  0
   59.0969   31.9089   41.8534 H   0  0  0  0  0  0  0  0  0  0  0  0
   57.5891   31.6020   40.9266 H   0  0  0  0  0  0  0  0  0  0  0  0
   58.3257   33.2404   40.9266 H   0  0  0  0  0  0  0  0  0  0  0  0
   57.9650   27.9010   44.4890 C   0  0  0  0  0  0  0  0  0  0  0  0
   58.4595   27.7495   43.5182 H   0  0  0  0  0  0  0  0  0  0  0  0
   57.5780   26.7070   45.2750 C   0  0  0  0  0  0  0  0  0  0  0  0
   56.3650   26.7180   45.9810 C   0  0  0  0  0  0  0  0  0  0  0  0
   55.7087   27.5991   45.9277 H   0  0  0  0  0  0  0  0  0  0  0  0
   55.9970   25.6440   46.7310 N   0  0  0  0  0  0  0  0  0  0  0  0
   56.7800   24.5400   46.8320 C   0  0  0  0  0  0  0  0  0  0  0  0
   56.4516   23.6873   47.4445 H   0  0  0  0  0  0  0  0  0  0  0  0
   58.0020   24.4860   46.1590 C   0  0  0  0  0  0  0  0  0  0  0  0
   58.6418   23.5949   46.2402 H   0  0  0  0  0  0  0  0  0  0  0  0
   58.4040   25.5740   45.3820 C   0  0  0  0  0  0  0  0  0  0  0  0
   59.3680   25.5449   44.8529 H   0  0  0  0  0  0  0  0  0  0  0  0
  1  2  1  0
  2  3  1  0
  3  4  2  0
  3  5  1  0
  5  6  1  0
  6  7  2  0
  7  8  1  0
  7  9  1  0
  9 10  1  0
 10 11  2  0
 10 12  2  0
 10 13  1  0
 13 14  1  0
 13 15  1  0
 15 16  1  0
 15 17  1  0
 15 18  1  0
 18 19  2  0
 19 20  1  0
 20 21  1  0
 20 22  2  0
 22 23  1  0
 22 24  1  0
 24 25  1  0
 24 26  2  0
 26 27  1  0
  9 28  2  0
 28 29  1  0
 28 30  1  0
 30 31  1  0
 30 32  2  0
 32 33  1  0
 33 34  1  0
 34 35  1  0
 34 36  1  0
 34 37  1  0
  2 38  2  0
 38 39  1  0
 38 40  1  0
 40 41  2  0
 41 42  1  0
 41 43  1  0
 43 44  2  0
 44 45  1  0
 44 46  1  0
 46 47  1  0
 46 48  2  0
 48 49  1  0
 32  6  1  0
 48 40  1  0
 26 18  1  0
M  CHG  1   5  -1
M  END
>  <UniqueID>  (17) 
13

>  <SMILES>  (17) 
COc1ccc(S(=O)(=O)NCc2ccccn2)cc1[N-]C(=O)/C=C/c1cccnc1

>  <Energy>  (17) 
56.51631628517421

>  <Genealogy>  (17) 
COc1ccc(S(=O)(=O)NCc2ccccn2)cc1[N-]C(=O)C=Cc1cccnc1 (protonated)
COc1ccc(S(=O)(=O)NCc2ccccn2)cc1[N-]C(=O)/C=C/c1cccnc1 (cis-trans isomerization)
COc1ccc(S(=O)(=O)NCc2ccccn2)cc1[N-]C(=O)/C=C/c1cccnc1 (3D coordinates assigned)
COc1ccc(S(=O)(=O)NCc2ccccn2)cc1[N-]C(=O)/C=C/c1cccnc1 (optimized conformer: 56.51631628517421 kcal/mol)

>  <smiles>  (17) 
COc1ccc(S(=O)(=O)NCc2ccccn2)cc1NC(=O)C=Cc1cccnc1

>  <score_type>  (17) 
oracle

>  <origin>  (17) 
adg

>  <m_score__min__energy>  (17) 
-11.48

>  <m_primary>  (17) 
energy

$$$$
17:0
     RDKit          3D

 56 60  0  0  0  0  0  0  0  0999 V2000
   61.9780   30.8690   47.1520 C   0  0  0  0  0  0  0  0  0  0  0  0
   62.7680   32.0230   47.6920 C   0  0  0  0  0  0  0  0  0  0  0  0
   63.1400   33.0680   46.9230 N   0  0  0  0  0  0  0  0  0  0  0  0
   63.7680   33.9030   47.7770 C   0  0  0  0  0  0  0  0  0  0  0  0
   63.7560   33.3650   49.0430 C   0  0  0  0  0  0  0  0  0  0  0  0
   63.1250   32.1790   48.9900 N   0  0  0  0  0  0  0  0  0  0  0  0
   62.8550   31.2830   50.1180 C   0  0  0  0  0  0  0  0  0  0  0  0
   62.4110   32.0690   51.3590 C   0  0  0  0  0  0  0  0  0  0  0  0
   60.8780   32.1330   51.5340 C   0  0  0  0  0  0  0  0  0  0  0  0
   60.1650   31.9250   50.2510 N   0  0  0  0  0  0  0  0  0  0  0  0
   59.5350   30.7220   49.9390 C   0  0  0  0  0  0  0  0  0  0  0  0
   59.4660   29.5670   50.8960 C   0  0  0  0  0  0  0  0  0  0  0  0
   58.9230   30.5540   48.7290 N   0  0  0  0  0  0  0  0  0  0  0  0
   58.9120   31.5690   47.8390 C   0  0  0  0  0  0  0  0  0  0  0  0
   59.4880   32.7710   48.1250 C   0  0  0  0  0  0  0  0  0  0  0  0
   60.1160   32.9700   49.3470 C   0  0  0  0  0  0  0  0  0  0  0  0
   60.6280   34.0920   49.6160 O   0  0  0  0  0  0  0  0  0  0  0  0
   59.3070   33.5570   47.0040 C   0  0  0  0  0  0  0  0  0  0  0  0
   59.7020   34.8620   46.7090 C   0  0  0  0  0  0  0  0  0  0  0  0
   59.3830   35.3720   45.4380 C   0  0  0  0  0  0  0  0  0  0  0  0
   58.6880   34.5780   44.5000 C   0  0  0  0  0  0  0  0  0  0  0  0
   58.3020   33.2630   44.8200 C   0  0  0  0  0  0  0  0  0  0  0  0
   58.6250   32.7720   46.0890 C   0  0  0  0  0  0  0  0  0  0  0  0
   58.3670   31.5420   46.6030 N   0  0  0  0  0  0  0  0  0  0  0  0
   57.7630   30.3840   45.9390 C   0  0  0  0  0  0  0  0  0  0  0  0
   58.7090   29.2160   45.9830 C   0  0  0  0  0  0  0  0  0  0  0  0
   58.4920   28.1600   46.8840 C   0  0  0  0  0  0  0  0  0  0  0  0
   59.4040   27.1040   46.9650 C   0  0  0  0  0  0  0  0  0  0  0  0
   60.5430   27.0970   46.1540 C   0  0  0  0  0  0  0  0  0  0  0  0
   61.4280   26.0740   46.2370 F   0  0  0  0  0  0  0  0  0  0  0  0
   60.7700   28.1480   45.2610 C   0  0  0  0  0  0  0  0  0  0  0  0
   59.8600   29.2070   45.1780 C   0  0  0  0  0  0  0  0  0  0  0  0
   61.5738   30.2785   47.9874 H   0  0  0  0  0  0  0  0  0  0  0  0
   61.1492   31.2482   46.5362 H   0  0  0  0  0  0  0  0  0  0  0  0
   62.6314   30.2335   46.5362 H   0  0  0  0  0  0  0  0  0  0  0  0
   64.2207   34.8672   47.5025 H   0  0  0  0  0  0  0  0  0  0  0  0
   64.1882   33.8257   49.9435 H   0  0  0  0  0  0  0  0  0  0  0  0
   62.0578   30.5800   49.8346 H   0  0  0  0  0  0  0  0  0  0  0  0
   63.7813   30.7422   50.3620 H   0  0  0  0  0  0  0  0  0  0  0  0
   62.8428   31.5874   52.2487 H   0  0  0  0  0  0  0  0  0  0  0  0
   62.7645   33.1026   51.2300 H   0  0  0  0  0  0  0  0  0  0  0  0
   60.5683   31.3515   52.2435 H   0  0  0  0  0  0  0  0  0  0  0  0
   60.6196   33.1344   51.9086 H   0  0  0  0  0  0  0  0  0  0  0  0
   59.4886   29.9448   51.9289 H   0  0  0  0  0  0  0  0  0  0  0  0
   58.5329   29.0086   50.7301 H   0  0  0  0  0  0  0  0  0  0  0  0
   60.3260   28.9015   50.7301 H   0  0  0  0  0  0  0  0  0  0  0  0
   60.2450   35.4718   47.4461 H   0  0  0  0  0  0  0  0  0  0  0  0
   59.6774   36.3981   45.1724 H   0  0  0  0  0  0  0  0  0  0  0  0
   58.4459   34.9911   43.5097 H   0  0  0  0  0  0  0  0  0  0  0  0
   57.7617   32.6392   44.0927 H   0  0  0  0  0  0  0  0  0  0  0  0
   56.8283   30.1156   46.4531 H   0  0  0  0  0  0  0  0  0  0  0  0
   57.5513   30.6385   44.8900 H   0  0  0  0  0  0  0  0  0  0  0  0
   57.6005   28.1644   47.5284 H   0  0  0  0  0  0  0  0  0  0  0  0
   59.2254   26.2770   47.6680 H   0  0  0  0  0  0  0  0  0  0  0  0
   61.6657   28.1423   44.6225 H   0  0  0  0  0  0  0  0  0  0  0  0
   60.0465   30.0361   44.4795 H   0  0  0  0  0  0  0  0  0  0  0  0
  1  2  1  0
  2  3  2  0
  3  4  1  0
  4  5  2  0
  5  6  1  0
  6  7  1  0
  7  8  1  0
  8  9  1  0
  9 10  1  0
 10 11  1  0
 11 12  1  0
 11 13  2  0
 13 14  1  0
 14 15  2  0
 15 16  1  0
 16 17  2  0
 15 18  1  0
 18 19  2  0
 19 20  1  0
 20 21  2  0
 21 22  1  0
 22 23  2  0
 23 24  1  0
 24 25  1  0
 25 26  1  0
 26 27  2  0
 27 28  1  0
 28 29  2  0
 29 30  1  0
 29 31  1  0
 31 32  2  0
  6  2  1  0
 16 10  1  0
 23 18  1  0
 32 26  1  0
 24 14  1  0
  1 33  1  0
  1 34  1  0
  1 35  1  0
  4 36  1  0
  5 37  1  0
  7 38  1  0
  7 39  1  0
  8 40  1  0
  8 41  1  0
  9 42  1  0
  9 43  1  0
 12 44  1  0
 12 45  1  0
 12 46  1  0
 19 47  1  0
 20 48  1  0
 21 49  1  0
 22 50  1  0
 25 51  1  0
 25 52  1  0
 27 53  1  0
 28 54  1  0
 31 55  1  0
 32 56  1  0
M  END
>  <UniqueID>  (18) 
14

>  <SMILES>  (18) 
Cc1nccn1CCCn1c(C)nc2c(c1=O)c1ccccc1n2Cc1ccc(F)cc1

>  <Energy>  (18) 
135.62032358993534

>  <Genealogy>  (18) 
Cc1nccn1CCCn1c(C)nc2c(c1=O)c1ccccc1n2Cc1ccc(F)cc1 (3D coordinates assigned)
Cc1nccn1CCCn1c(C)nc2c(c1=O)c1ccccc1n2Cc1ccc(F)cc1 (optimized conformer: 135.62032358993534 kcal/mol)

>  <smiles>  (18) 
Cc1nccn1CCCn1c(C)nc2c(c1=O)c1ccccc1n2Cc1ccc(F)cc1

>  <score_type>  (18) 
oracle

>  <origin>  (18) 
adg

>  <m_score__min__energy>  (18) 
-8.5199999999999996

>  <m_primary>  (18) 
energy

$$$$
18:0
     RDKit          3D

 47 50  0  0  0  0  0  0  0  0999 V2000
   59.2990   35.1400   47.4760 C   0  0  0  0  0  0  0  0  0  0  0  0
   59.2380   33.8270   46.7700 C   0  0  0  0  0  0  0  0  0  0  0  0
   58.3460   33.5120   45.8650 O   0  0  0  0  0  0  0  0  0  0  0  0
   58.6050   32.2800   45.4820 C   0  0  0  0  0  0  0  0  0  0  0  0
   57.8000   31.5480   44.4870 C   0  0  0  0  0  0  0  0  0  0  0  0
   57.7780   31.9560   43.1420 C   0  0  0  0  0  0  0  0  0  0  0  0
   57.0210   31.2490   42.2010 C   0  0  0  0  0  0  0  0  0  0  0  0
   56.2810   30.1320   42.5950 C   0  0  0  0  0  0  0  0  0  0  0  0
   56.2960   29.7180   43.9300 C   0  0  0  0  0  0  0  0  0  0  0  0
   57.0520   30.4210   44.8730 C   0  0  0  0  0  0  0  0  0  0  0  0
   59.6750   31.7500   46.1170 N   0  0  0  0  0  0  0  0  0  0  0  0
   60.0750   32.7420   46.9360 C   0  0  0  0  0  0  0  0  0  0  0  0
   61.1930   32.6020   47.9260 C   0  0  0  0  0  0  0  0  0  0  0  0
   61.0370   31.3480   48.7980 C   0  0  0  0  0  0  0  0  0  0  0  0
   61.3610   30.1610   48.0680 O   0  0  0  0  0  0  0  0  0  0  0  0
   60.4540   29.3560   47.3580 C   0  0  0  0  0  0  0  0  0  0  0  0
   60.6920   29.1420   45.9960 C   0  0  0  0  0  0  0  0  0  0  0  0
   59.8530   28.3110   45.2490 C   0  0  0  0  0  0  0  0  0  0  0  0
   58.7460   27.6970   45.8520 C   0  0  0  0  0  0  0  0  0  0  0  0
   57.8720   26.7600   45.0640 C   0  0  0  0  0  0  0  0  0  0  0  0
   57.2050   25.7820   45.9810 C   0  0  0  0  0  0  0  0  0  0  0  0
   57.8180   24.7120   46.5190 N   0  0  0  0  0  0  0  0  0  0  0  0
   56.8340   24.1150   47.2270 C   0  0  0  0  0  0  0  0  0  0  0  0
   57.0220   23.0690   47.8990 O   0  0  0  0  0  0  0  0  0  0  0  0
   55.6330   24.7300   47.1610 N   0  0  0  0  0  0  0  0  0  0  0  0
   55.8860   25.7810   46.3640 C   0  0  0  0  0  0  0  0  0  0  0  0
   54.9290   26.7180   45.9940 O   0  0  0  0  0  0  0  0  0  0  0  0
   58.4910   27.9250   47.2120 C   0  0  0  0  0  0  0  0  0  0  0  0
   59.3280   28.7590   47.9580 C   0  0  0  0  0  0  0  0  0  0  0  0
   59.2912   34.9725   48.5631 H   0  0  0  0  0  0  0  0  0  0  0  0
   60.2226   35.6661   47.1927 H   0  0  0  0  0  0  0  0  0  0  0  0
   58.4282   35.7495   47.1927 H   0  0  0  0  0  0  0  0  0  0  0  0
   58.3589   32.8356   42.8275 H   0  0  0  0  0  0  0  0  0  0  0  0
   57.0088   31.5734   41.1500 H   0  0  0  0  0  0  0  0  0  0  0  0
   55.6860   29.5777   41.8543 H   0  0  0  0  0  0  0  0  0  0  0  0
   55.7125   28.8382   44.2390 H   0  0  0  0  0  0  0  0  0  0  0  0
   57.0619   30.0910   45.9223 H   0  0  0  0  0  0  0  0  0  0  0  0
   62.1453   32.5378   47.3792 H   0  0  0  0  0  0  0  0  0  0  0  0
   61.1720   33.4803   48.5879 H   0  0  0  0  0  0  0  0  0  0  0  0
   61.7087   31.4293   49.6653 H   0  0  0  0  0  0  0  0  0  0  0  0
   59.9880   31.2798   49.1218 H   0  0  0  0  0  0  0  0  0  0  0  0
   61.5475   29.6325   45.5087 H   0  0  0  0  0  0  0  0  0  0  0  0
   60.0619   28.1377   44.1830 H   0  0  0  0  0  0  0  0  0  0  0  0
   57.1044   27.3405   44.5312 H   0  0  0  0  0  0  0  0  0  0  0  0
   58.4940   26.2096   44.3428 H   0  0  0  0  0  0  0  0  0  0  0  0
   57.6270   27.4445   47.6944 H   0  0  0  0  0  0  0  0  0  0  0  0
   59.1066   28.9502   49.0184 H   0  0  0  0  0  0  0  0  0  0  0  0
  1  2  1  0
  2  3  1  0
  3  4  1  0
  4  5  1  0
  5  6  2  0
  6  7  1  0
  7  8  2  0
  8  9  1  0
  9 10  2  0
  4 11  2  0
 11 12  1  0
 12 13  1  0
 13 14  1  0
 14 15  1  0
 15 16  1  0
 16 17  2  0
 17 18  1  0
 18 19  2  0
 19 20  1  0
 20 21  1  0
 21 22  1  0
 22 23  1  0
 23 24  2  0
 23 25  1  0
 25 26  1  0
 26 27  1  0
 19 28  1  0
 28 29  2  0
 12  2  2  0
 29 16  1  0
 10  5  1  0
 26 21  2  0
  1 30  1  0
  1 31  1  0
  1 32  1  0
  6 33  1  0
  7 34  1  0
  8 35  1  0
  9 36  1  0
 10 37  1  0
 13 38  1  0
 13 39  1  0
 14 40  1  0
 14 41  1  0
 17 42  1  0
 18 43  1  0
 20 44  1  0
 20 45  1  0
 28 46  1  0
 29 47  1  0
M  CHG  3  22  -1  25  -1  27  -1
M  END
>  <UniqueID>  (19) 
15

>  <SMILES>  (19) 
Cc1oc(-c2ccccc2)nc1CCOc1ccc(Cc2[n-]c(=O)[n-]c2[O-])cc1

>  <Energy>  (19) 
101.8678052417265

>  <Genealogy>  (19) 
Cc1oc(-c2ccccc2)nc1CCOc1ccc(Cc2[n-]c(=O)[n-]c2[O-])cc1 (protonated)
Cc1oc(-c2ccccc2)nc1CCOc1ccc(Cc2[n-]c(=O)[n-]c2[O-])cc1 (3D coordinates assigned)
Cc1oc(-c2ccccc2)nc1CCOc1ccc(Cc2[n-]c(=O)[n-]c2[O-])cc1 (optimized conformer: 101.8678052417265 kcal/mol)

>  <smiles>  (19) 
Cc1oc(-c2ccccc2)nc1CCOc1ccc(Cc2[nH]c(=O)[nH]c2O)cc1

>  <score_type>  (19) 
oracle

>  <origin>  (19) 
adg

>  <m_score__min__energy>  (19) 
-17.73

>  <m_primary>  (19) 
energy

$$$$
19:0
     RDKit          3D

 52 54  0  0  0  0  0  0  0  0999 V2000
   55.2190   26.4120   45.9780 N   0  0  0  0  0  0  0  0  0  0  0  0
   56.8880   26.0220   46.1970 S   0  0  0  0  0  0  0  0  0  0  0  0
   57.2830   24.9380   45.2330 O   0  0  0  0  0  0  0  0  0  0  0  0
   57.1030   25.5220   47.5980 O   0  0  0  0  0  0  0  0  0  0  0  0
   57.8700   27.4560   45.9120 C   0  0  0  0  0  0  0  0  0  0  0  0
   59.2440   27.4370   46.1810 C   0  0  0  0  0  0  0  0  0  0  0  0
   60.0170   28.5770   45.9530 C   0  0  0  0  0  0  0  0  0  0  0  0
   59.4220   29.7440   45.4690 C   0  0  0  0  0  0  0  0  0  0  0  0
   58.0390   29.7880   45.2140 C   0  0  0  0  0  0  0  0  0  0  0  0
   57.4220   31.0390   44.7140 C   0  0  0  0  0  0  0  0  0  0  0  0
   56.7770   31.0170   43.6290 O   0  0  0  0  0  0  0  0  0  0  0  0
   57.5730   32.2800   45.4240 N   0  0  0  0  0  0  0  0  0  0  0  0
   57.0410   33.5450   44.9170 C   0  0  0  0  0  0  0  0  0  0  0  0
   58.0960   34.6560   44.9820 C   0  0  0  0  0  0  0  0  0  0  0  0
   59.1560   34.3480   46.0070 C   0  0  0  0  0  0  0  0  0  0  0  0
   60.4050   33.8510   45.6060 C   0  0  0  0  0  0  0  0  0  0  0  0
   61.4020   33.6040   46.5540 C   0  0  0  0  0  0  0  0  0  0  0  0
   61.1640   33.8540   47.9130 C   0  0  0  0  0  0  0  0  0  0  0  0
   62.4160   33.5280   49.1120 S   0  0  0  0  0  0  0  0  0  0  0  0
   63.7120   33.2370   48.4050 O   0  0  0  0  0  0  0  0  0  0  0  0
   62.6180   34.7620   49.9460 O   0  0  0  0  0  0  0  0  0  0  0  0
   62.0140   32.1840   50.1610 N   0  0  0  0  0  0  0  0  0  0  0  0
   60.6920   32.3350   50.8050 C   0  0  0  0  0  0  0  0  0  0  0  0
   59.6010   31.4800   50.1390 C   0  0  0  0  0  0  0  0  0  0  0  0
   59.8770   31.3070   48.7700 O   0  0  0  0  0  0  0  0  0  0  0  0
   61.0050   30.4680   48.6130 C   0  0  0  0  0  0  0  0  0  0  0  0
   62.2030   30.8770   49.5020 C   0  0  0  0  0  0  0  0  0  0  0  0
   59.9230   34.3680   48.3130 C   0  0  0  0  0  0  0  0  0  0  0  0
   58.9250   34.6140   47.3670 C   0  0  0  0  0  0  0  0  0  0  0  0
   57.2700   28.6290   45.4320 C   0  0  0  0  0  0  0  0  0  0  0  0
   55.1440   27.4530   46.0040 H   0  0  0  0  0  0  0  0  0  0  0  0
   59.7148   26.5231   46.5723 H   0  0  0  0  0  0  0  0  0  0  0  0
   61.0980   28.5559   46.1552 H   0  0  0  0  0  0  0  0  0  0  0  0
   60.0394   30.6358   45.2857 H   0  0  0  0  0  0  0  0  0  0  0  0
   58.1340   32.3150   46.3040 H   0  0  0  0  0  0  0  0  0  0  0  0
   56.7271   33.4090   43.8715 H   0  0  0  0  0  0  0  0  0  0  0  0
   56.1861   33.8394   45.5434 H   0  0  0  0  0  0  0  0  0  0  0  0
   58.5711   34.7566   43.9950 H   0  0  0  0  0  0  0  0  0  0  0  0
   57.5958   35.5919   45.2717 H   0  0  0  0  0  0  0  0  0  0  0  0
   60.6005   33.6549   44.5414 H   0  0  0  0  0  0  0  0  0  0  0  0
   62.3780   33.2116   46.2324 H   0  0  0  0  0  0  0  0  0  0  0  0
   60.7788   32.0342   51.8595 H   0  0  0  0  0  0  0  0  0  0  0  0
   60.3936   33.3889   50.7033 H   0  0  0  0  0  0  0  0  0  0  0  0
   59.5640   30.4954   50.6280 H   0  0  0  0  0  0  0  0  0  0  0  0
   58.6335   31.9927   50.2447 H   0  0  0  0  0  0  0  0  0  0  0  0
   60.7134   29.4395   48.8723 H   0  0  0  0  0  0  0  0  0  0  0  0
   61.3321   30.5560   47.5665 H   0  0  0  0  0  0  0  0  0  0  0  0
   62.3411   30.1100   50.2783 H   0  0  0  0  0  0  0  0  0  0  0  0
   63.0831   30.9632   48.8478 H   0  0  0  0  0  0  0  0  0  0  0  0
   59.7341   34.5785   49.3760 H   0  0  0  0  0  0  0  0  0  0  0  0
   57.9536   35.0179   47.6885 H   0  0  0  0  0  0  0  0  0  0  0  0
   56.1899   28.6437   45.2241 H   0  0  0  0  0  0  0  0  0  0  0  0
  1  2  1  0
  2  3  2  0
  2  4  2  0
  2  5  1  0
  5  6  2  0
  6  7  1  0
  7  8  2  0
  8  9  1  0
  9 10  1  0
 10 11  2  0
 10 12  1  0
 12 13  1  0
 13 14  1  0
 14 15  1  0
 15 16  2  0
 16 17  1  0
 17 18  2  0
 18 19  1  0
 19 20  2  0
 19 21  2  0
 19 22  1  0
 22 23  1  0
 23 24  1  0
 24 25  1  0
 25 26  1  0
 26 27  1  0
 18 28  1  0
 28 29  2  0
  9 30  2  0
 30  5  1  0
 29 15  1  0
 27 22  1  0
  1 31  1  0
  6 32  1  0
  7 33  1  0
  8 34  1  0
 12 35  1  0
 13 36  1  0
 13 37  1  0
 14 38  1  0
 14 39  1  0
 16 40  1  0
 17 41  1  0
 23 42  1  0
 23 43  1  0
 24 44  1  0
 24 45  1  0
 26 46  1  0
 26 47  1  0
 27 48  1  0
 27 49  1  0
 28 50  1  0
 29 51  1  0
 30 52  1  0
M  CHG  1   1  -1
M  END
>  <UniqueID>  (20) 
16

>  <SMILES>  (20) 
[NH-]S(=O)(=O)c1cccc(C(=O)NCCc2ccc(S(=O)(=O)N3CCOCC3)cc2)c1

>  <Energy>  (20) 
60.7966237000546

>  <Genealogy>  (20) 
[NH-]S(=O)(=O)c1cccc(C(=O)NCCc2ccc(S(=O)(=O)N3CCOCC3)cc2)c1 (protonated)
[NH-]S(=O)(=O)c1cccc(C(=O)NCCc2ccc(S(=O)(=O)N3CCOCC3)cc2)c1 (3D coordinates assigned)
[NH-]S(=O)(=O)c1cccc(C(=O)NCCc2ccc(S(=O)(=O)N3CCOCC3)cc2)c1 (nonaromatic ring conformer: 60.7966237000546 kcal/mol)

>  <smiles>  (20) 
NS(=O)(=O)c1cccc(C(=O)NCCc2ccc(S(=O)(=O)N3CCOCC3)cc2)c1

>  <score_type>  (20) 
oracle

>  <origin>  (20) 
adg

>  <m_score__min__energy>  (20) 
-13.48

>  <m_primary>  (20) 
energy

$$$$
20:0
     RDKit          3D

 42 43  0  0  0  0  0  0  0  0999 V2000
   54.7690   27.1380   45.9830 H   0  0  0  0  0  0  0  0  0  0  0  0
   55.4890   26.3850   46.0740 N   0  0  0  0  0  0  0  0  0  0  0  0
   56.7550   26.6510   46.1160 C   0  0  0  0  0  0  0  0  0  0  0  0
   57.2330   28.0210   45.8470 C   0  0  0  0  0  0  0  0  0  0  0  0
   58.5240   28.5110   45.9530 C   0  0  0  0  0  0  0  0  0  0  0  0
   59.6210   27.8750   46.5260 O   0  0  0  0  0  0  0  0  0  0  0  0
   60.1850   28.3300   47.2330 H   0  0  0  0  0  0  0  0  0  0  0  0
   58.5400   29.7730   45.3950 C   0  0  0  0  0  0  0  0  0  0  0  0
   59.4215   30.4273   45.3256 H   0  0  0  0  0  0  0  0  0  0  0  0
   57.3040   30.0780   44.9480 N   0  0  0  0  0  0  0  0  0  0  0  0
   56.9290   31.2800   44.2030 C   0  0  0  0  0  0  0  0  0  0  0  0
   56.6765   30.9966   43.1706 H   0  0  0  0  0  0  0  0  0  0  0  0
   56.0655   31.7418   44.7041 H   0  0  0  0  0  0  0  0  0  0  0  0
   58.0770   32.3060   44.1740 C   0  0  0  0  0  0  0  0  0  0  0  0
   58.9724   31.8329   44.6034 H   0  0  0  0  0  0  0  0  0  0  0  0
   58.2103   32.5991   43.1222 H   0  0  0  0  0  0  0  0  0  0  0  0
   57.7910   33.6050   44.9620 C   0  0  0  0  0  0  0  0  0  0  0  0
   56.9616   34.1237   44.4589 H   0  0  0  0  0  0  0  0  0  0  0  0
   59.0010   34.5500   44.9660 C   0  0  0  0  0  0  0  0  0  0  0  0
   59.2878   34.7740   46.0040 H   0  0  0  0  0  0  0  0  0  0  0  0
   59.8439   34.0687   44.4484 H   0  0  0  0  0  0  0  0  0  0  0  0
   58.7382   35.4844   44.4484 H   0  0  0  0  0  0  0  0  0  0  0  0
   57.3930   33.2650   46.4040 C   0  0  0  0  0  0  0  0  0  0  0  0
   58.0391   33.8169   47.1025 H   0  0  0  0  0  0  0  0  0  0  0  0
   56.3439   33.5500   46.5717 H   0  0  0  0  0  0  0  0  0  0  0  0
   57.5106   32.1842   46.5717 H   0  0  0  0  0  0  0  0  0  0  0  0
   56.5140   29.0200   45.2210 C   0  0  0  0  0  0  0  0  0  0  0  0
   55.1720   28.9400   44.8670 O   0  0  0  0  0  0  0  0  0  0  0  0
   57.7370   25.5200   46.2150 C   0  0  0  0  0  0  0  0  0  0  0  0
   58.7476   25.8927   45.9918 H   0  0  0  0  0  0  0  0  0  0  0  0
   57.7127   25.1048   47.2333 H   0  0  0  0  0  0  0  0  0  0  0  0
   57.3720   24.4430   45.2290 C   0  0  0  0  0  0  0  0  0  0  0  0
   56.9810   24.7800   43.9210 C   0  0  0  0  0  0  0  0  0  0  0  0
   56.9979   25.8316   43.5988 H   0  0  0  0  0  0  0  0  0  0  0  0
   56.5710   23.7860   43.0280 C   0  0  0  0  0  0  0  0  0  0  0  0
   56.2758   24.0553   42.0031 H   0  0  0  0  0  0  0  0  0  0  0  0
   56.5360   22.4500   43.4370 C   0  0  0  0  0  0  0  0  0  0  0  0
   56.2120   21.6681   42.7344 H   0  0  0  0  0  0  0  0  0  0  0  0
   56.9130   22.1070   44.7400 C   0  0  0  0  0  0  0  0  0  0  0  0
   56.8852   21.0552   45.0608 H   0  0  0  0  0  0  0  0  0  0  0  0
   57.3250   23.0990   45.6350 C   0  0  0  0  0  0  0  0  0  0  0  0
   57.6134   22.8260   46.6608 H   0  0  0  0  0  0  0  0  0  0  0  0
  1  2  1  0
  2  3  2  0
  3  4  1  0
  4  5  1  0
  5  6  1  0
  6  7  1  0
  5  8  2  0
  8  9  1  0
  8 10  1  0
 10 11  1  0
 11 12  1  0
 11 13  1  0
 11 14  1  0
 14 15  1  0
 14 16  1  0
 14 17  1  0
 17 18  1  0
 17 19  1  0
 19 20  1  0
 19 21  1  0
 19 22  1  0
 17 23  1  0
 23 24  1  0
 23 25  1  0
 23 26  1  0
 10 27  1  0
 27 28  1  0
  3 29  1  0
 29 30  1  0
 29 31  1  0
 29 32  1  0
 32 33  2  0
 33 34  1  0
 33 35  1  0
 35 36  1  0
 35 37  2  0
 37 38  1  0
 37 39  1  0
 39 40  1  0
 39 41  2  0
 41 42  1  0
 27  4  2  0
 41 32  1  0
M  CHG  1  28  -1
M  END
>  <UniqueID>  (21) 
17

>  <SMILES>  (21) 
[H]/N=C(/Cc1ccccc1)c1c(O)cn(CCC(C)C)c1[O-]

>  <Energy>  (21) 
63.56169435150279

>  <Genealogy>  (21) 
CC(C)CCn1cc(O)c(C(=N)Cc2ccccc2)c1[O-] (protonated)
[H]/N=C(/Cc1ccccc1)c1c(O)cn(CCC(C)C)c1[O-] (cis-trans isomerization)
[H]/N=C(/Cc1ccccc1)c1c(O)cn(CCC(C)C)c1[O-] (3D coordinates assigned)
[H]/N=C(/Cc1ccccc1)c1c(O)cn(CCC(C)C)c1[O-] (optimized conformer: 63.56169435150279 kcal/mol)

>  <smiles>  (21) 
CC(C)CCn1cc(O)c(C(=N)Cc2ccccc2)c1O

>  <score_type>  (21) 
oracle

>  <origin>  (21) 
adg

>  <m_score__min__energy>  (21) 
-11.07

>  <m_primary>  (21) 
energy

$$$$
21:0
     RDKit          3D

 42 44  0  0  0  0  0  0  0  0999 V2000
   58.9900   33.1640   48.1990 C   0  0  0  0  0  0  0  0  0  0  0  0
   58.4710   33.1600   46.8350 N   0  0  0  0  0  0  0  0  0  0  0  0
   57.9170   34.2090   46.1960 C   0  0  0  0  0  0  0  0  0  0  0  0
   57.4620   33.8110   44.9540 C   0  0  0  0  0  0  0  0  0  0  0  0
   57.7480   32.4610   44.8540 C   0  0  0  0  0  0  0  0  0  0  0  0
   57.4260   31.5700   43.6940 C   0  0  0  0  0  0  0  0  0  0  0  0
   58.0970   30.2810   43.8440 N   0  0  0  0  0  0  0  0  0  0  0  0
   57.5720   29.2220   44.6560 C   0  0  0  0  0  0  0  0  0  0  0  0
   56.2610   28.7760   44.7020 C   0  0  0  0  0  0  0  0  0  0  0  0
   56.2630   27.7390   45.6180 C   0  0  0  0  0  0  0  0  0  0  0  0
   55.1480   26.9860   45.9640 O   0  0  0  0  0  0  0  0  0  0  0  0
   57.4960   27.5430   46.1330 N   0  0  0  0  0  0  0  0  0  0  0  0
   57.8910   26.5020   47.0810 C   0  0  0  0  0  0  0  0  0  0  0  0
   58.8610   25.5500   46.4360 C   0  0  0  0  0  0  0  0  0  0  0  0
   60.0820   25.8550   46.3860 O   0  0  0  0  0  0  0  0  0  0  0  0
   58.4300   24.3220   45.8350 N   0  0  0  0  0  0  0  0  0  0  0  0
   57.0830   23.9630   45.4990 C   0  0  0  0  0  0  0  0  0  0  0  0
   56.1410   23.8310   46.5270 C   0  0  0  0  0  0  0  0  0  0  0  0
   54.8130   23.5110   46.2320 C   0  0  0  0  0  0  0  0  0  0  0  0
   54.4120   23.3380   44.9030 C   0  0  0  0  0  0  0  0  0  0  0  0
   53.0930   23.0190   44.6090 O   0  0  0  0  0  0  0  0  0  0  0  0
   55.3420   23.4940   43.8690 C   0  0  0  0  0  0  0  0  0  0  0  0
   56.6700   23.8140   44.1630 C   0  0  0  0  0  0  0  0  0  0  0  0
   58.2980   28.4440   45.5340 C   0  0  0  0  0  0  0  0  0  0  0  0
   59.6640   28.5550   45.7710 O   0  0  0  0  0  0  0  0  0  0  0  0
   58.3580   32.0850   46.0340 C   0  0  0  0  0  0  0  0  0  0  0  0
   58.1511   33.1575   48.9105 H   0  0  0  0  0  0  0  0  0  0  0  0
   59.6120   32.2706   48.3573 H   0  0  0  0  0  0  0  0  0  0  0  0
   59.5981   34.0669   48.3573 H   0  0  0  0  0  0  0  0  0  0  0  0
   57.8389   35.2283   46.6021 H   0  0  0  0  0  0  0  0  0  0  0  0
   56.9712   34.4404   44.1971 H   0  0  0  0  0  0  0  0  0  0  0  0
   56.3386   31.4102   43.6499 H   0  0  0  0  0  0  0  0  0  0  0  0
   57.7740   32.0491   42.7670 H   0  0  0  0  0  0  0  0  0  0  0  0
   58.9990   30.1270   43.3380 H   0  0  0  0  0  0  0  0  0  0  0  0
   55.4031   29.1631   44.1327 H   0  0  0  0  0  0  0  0  0  0  0  0
   58.3679   26.9692   47.9552 H   0  0  0  0  0  0  0  0  0  0  0  0
   56.9960   25.9441   47.3936 H   0  0  0  0  0  0  0  0  0  0  0  0
   56.4482   23.9801   47.5727 H   0  0  0  0  0  0  0  0  0  0  0  0
   54.0821   23.3950   47.0458 H   0  0  0  0  0  0  0  0  0  0  0  0
   55.0270   23.3645   42.8230 H   0  0  0  0  0  0  0  0  0  0  0  0
   57.3948   23.9498   43.3468 H   0  0  0  0  0  0  0  0  0  0  0  0
   58.6977   31.0681   46.2802 H   0  0  0  0  0  0  0  0  0  0  0  0
  1  2  1  0
  2  3  1  0
  3  4  2  0
  4  5  1  0
  5  6  1  0
  6  7  1  0
  7  8  1  0
  8  9  1  0
  9 10  2  0
 10 11  1  0
 10 12  1  0
 12 13  1  0
 13 14  1  0
 14 15  2  0
 14 16  1  0
 16 17  1  0
 17 18  2  0
 18 19  1  0
 19 20  2  0
 20 21  1  0
 20 22  1  0
 22 23  2  0
 12 24  1  0
 24 25  1  0
  5 26  2  0
 26  2  1  0
 24  8  2  0
 23 17  1  0
  1 27  1  0
  1 28  1  0
  1 29  1  0
  3 30  1  0
  4 31  1  0
  6 32  1  0
  6 33  1  0
  7 34  1  0
  9 35  1  0
 13 36  1  0
 13 37  1  0
 18 38  1  0
 19 39  1  0
 22 40  1  0
 23 41  1  0
 26 42  1  0
M  CHG  4  11  -1  16  -1  21  -1  25  -1
M  END
>  <UniqueID>  (22) 
18

>  <SMILES>  (22) 
Cn1ccc(CNc2cc([O-])n(CC(=O)[N-]c3ccc([O-])cc3)c2[O-])c1

>  <Energy>  (22) 
98.8021134992036

>  <Genealogy>  (22) 
Cn1ccc(CNc2cc([O-])n(CC(=O)[N-]c3ccc([O-])cc3)c2[O-])c1 (protonated)
Cn1ccc(CNc2cc([O-])n(CC(=O)[N-]c3ccc([O-])cc3)c2[O-])c1 (3D coordinates assigned)
Cn1ccc(CNc2cc([O-])n(CC(=O)[N-]c3ccc([O-])cc3)c2[O-])c1 (optimized conformer: 98.8021134992036 kcal/mol)

>  <smiles>  (22) 
Cn1ccc(CNc2cc(O)n(CC(=O)Nc3ccc(O)cc3)c2O)c1

>  <score_type>  (22) 
oracle

>  <origin>  (22) 
adg

>  <m_score__min__energy>  (22) 
-14.4

>  <m_primary>  (22) 
energy

$$$$
22:0
     RDKit          3D

 41 44  0  0  0  0  0  0  0  0999 V2000
   58.9550   34.3400   46.3540 O   0  0  0  0  0  0  0  0  0  0  0  0
   58.3000   33.2670   46.4390 C   0  0  0  0  0  0  0  0  0  0  0  0
   57.1140   33.0530   45.5480 C   0  0  0  0  0  0  0  0  0  0  0  0
   57.5090   32.3560   44.2410 C   0  0  0  0  0  0  0  0  0  0  0  0
   56.8230   31.0330   44.0920 C   0  0  0  0  0  0  0  0  0  0  0  0
   55.5810   30.7690   44.5330 N   0  0  0  0  0  0  0  0  0  0  0  0
   55.3480   29.5250   44.1480 N   0  0  0  0  0  0  0  0  0  0  0  0
   56.3980   29.0550   43.4930 N   0  0  0  0  0  0  0  0  0  0  0  0
   57.3410   29.9800   43.4360 N   0  0  0  0  0  0  0  0  0  0  0  0
   58.6080   32.2940   47.4460 N   0  0  0  0  0  0  0  0  0  0  0  0
   58.9540   30.9190   47.2260 C   0  0  0  0  0  0  0  0  0  0  0  0
   60.1130   30.4170   47.8290 C   0  0  0  0  0  0  0  0  0  0  0  0
   60.4840   29.0830   47.6450 C   0  0  0  0  0  0  0  0  0  0  0  0
   59.6860   28.2300   46.8780 C   0  0  0  0  0  0  0  0  0  0  0  0
   60.0950   26.9530   46.6700 F   0  0  0  0  0  0  0  0  0  0  0  0
   58.4900   28.7050   46.3100 C   0  0  0  0  0  0  0  0  0  0  0  0
   57.6480   27.8520   45.5190 N   0  0  0  0  0  0  0  0  0  0  0  0
   57.6190   26.4180   45.6270 C   0  0  0  0  0  0  0  0  0  0  0  0
   57.8260   25.6310   44.4670 C   0  0  0  0  0  0  0  0  0  0  0  0
   57.7830   24.2270   44.5290 C   0  0  0  0  0  0  0  0  0  0  0  0
   57.5180   23.6410   45.7650 C   0  0  0  0  0  0  0  0  0  0  0  0
   57.4030   22.3240   46.1540 C   0  0  0  0  0  0  0  0  0  0  0  0
   57.5480   21.2110   45.3330 O   0  0  0  0  0  0  0  0  0  0  0  0
   57.1230   22.2390   47.4750 N   0  0  0  0  0  0  0  0  0  0  0  0
   57.0580   23.5160   47.9240 C   0  0  0  0  0  0  0  0  0  0  0  0
   57.3000   24.3900   46.8860 C   0  0  0  0  0  0  0  0  0  0  0  0
   57.3350   25.7820   46.8610 C   0  0  0  0  0  0  0  0  0  0  0  0
   58.1390   30.0540   46.4740 C   0  0  0  0  0  0  0  0  0  0  0  0
   56.3780   32.4296   46.0768 H   0  0  0  0  0  0  0  0  0  0  0  0
   56.6888   34.0364   45.2988 H   0  0  0  0  0  0  0  0  0  0  0  0
   57.2295   33.0003   43.3944 H   0  0  0  0  0  0  0  0  0  0  0  0
   58.5947   32.1802   44.2596 H   0  0  0  0  0  0  0  0  0  0  0  0
   60.7353   31.0768   48.4514 H   0  0  0  0  0  0  0  0  0  0  0  0
   61.4077   28.7025   48.1055 H   0  0  0  0  0  0  0  0  0  0  0  0
   56.9720   28.3070   44.8650 H   0  0  0  0  0  0  0  0  0  0  0  0
   58.0231   26.1255   43.5044 H   0  0  0  0  0  0  0  0  0  0  0  0
   57.9527   23.6124   43.6326 H   0  0  0  0  0  0  0  0  0  0  0  0
   58.4360   20.7290   45.2490 H   0  0  0  0  0  0  0  0  0  0  0  0
   56.8440   23.8110   48.9619 H   0  0  0  0  0  0  0  0  0  0  0  0
   57.1478   26.3700   47.7716 H   0  0  0  0  0  0  0  0  0  0  0  0
   57.2184   30.4381   46.0103 H   0  0  0  0  0  0  0  0  0  0  0  0
  1  2  2  0
  2  3  1  0
  3  4  1  0
  4  5  1  0
  5  6  1  0
  6  7  2  0
  7  8  1  0
  8  9  1  0
  2 10  1  0
 10 11  1  0
 11 12  2  0
 12 13  1  0
 13 14  2  0
 14 15  1  0
 14 16  1  0
 16 17  1  0
 17 18  1  0
 18 19  1  0
 19 20  2  0
 20 21  1  0
 21 22  2  0
 22 23  1  0
 22 24  1  0
 24 25  1  0
 25 26  2  0
 26 27  1  0
 16 28  2  0
  9  5  2  0
 28 11  1  0
 27 18  2  0
 26 21  1  0
  3 29  1  0
  3 30  1  0
  4 31  1  0
  4 32  1  0
 12 33  1  0
 13 34  1  0
 17 35  1  0
 19 36  1  0
 20 37  1  0
 23 38  1  0
 25 39  1  0
 27 40  1  0
 28 41  1  0
M  CHG  3   8  -1  10  -1  24  -1
M  END
>  <UniqueID>  (23) 
19

>  <SMILES>  (23) 
O=C(CCc1nn[n-]n1)[N-]c1ccc(F)c(Nc2ccc3c(O)[n-]cc3c2)c1

>  <Energy>  (23) 
122.1491819470435

>  <Genealogy>  (23) 
O=C(CCc1nn[n-]n1)[N-]c1ccc(F)c(Nc2ccc3c(O)[n-]cc3c2)c1 (protonated)
O=C(CCc1nn[n-]n1)[N-]c1ccc(F)c(Nc2ccc3c(O)[n-]cc3c2)c1 (3D coordinates assigned)
O=C(CCc1nn[n-]n1)[N-]c1ccc(F)c(Nc2ccc3c(O)[n-]cc3c2)c1 (optimized conformer: 122.1491819470435 kcal/mol)

>  <smiles>  (23) 
O=C(CCc1nn[nH]n1)Nc1ccc(F)c(Nc2ccc3c(O)[nH]cc3c2)c1

>  <score_type>  (23) 
oracle

>  <origin>  (23) 
adg

>  <m_score__min__energy>  (23) 
-13.550000000000001

>  <m_primary>  (23) 
energy

$$$$
23:0
     RDKit          3D

 52 55  0  0  0  0  0  0  0  0999 V2000
   56.5240   29.7680   43.0850 C   0  0  0  0  0  0  0  0  0  0  0  0
   56.3380   30.4810   44.3080 O   0  0  0  0  0  0  0  0  0  0  0  0
   57.3850   30.9770   45.1060 C   0  0  0  0  0  0  0  0  0  0  0  0
   57.9360   32.2240   44.7810 C   0  0  0  0  0  0  0  0  0  0  0  0
   58.9630   32.7680   45.5550 C   0  0  0  0  0  0  0  0  0  0  0  0
   59.4510   32.0730   46.6640 C   0  0  0  0  0  0  0  0  0  0  0  0
   58.9130   30.8220   47.0150 C   0  0  0  0  0  0  0  0  0  0  0  0
   59.3910   30.0890   48.2110 C   0  0  0  0  0  0  0  0  0  0  0  0
   60.3710   29.1110   48.2560 C   0  0  0  0  0  0  0  0  0  0  0  0
   60.5810   28.7590   49.5380 N   0  0  0  0  0  0  0  0  0  0  0  0
   59.7070   29.5260   50.2330 C   0  0  0  0  0  0  0  0  0  0  0  0
   59.6370   29.5380   51.7270 C   0  0  0  0  0  0  0  0  0  0  0  0
   58.2580   29.9490   52.1670 C   0  0  0  0  0  0  0  0  0  0  0  0
   57.7980   31.2610   51.9510 C   0  0  0  0  0  0  0  0  0  0  0  0
   56.5010   31.6250   52.3320 C   0  0  0  0  0  0  0  0  0  0  0  0
   55.6470   30.6770   52.9030 C   0  0  0  0  0  0  0  0  0  0  0  0
   56.0780   29.3490   53.0740 C   0  0  0  0  0  0  0  0  0  0  0  0
   55.2210   28.3550   53.6520 N   0  0  0  0  0  0  0  0  0  0  0  0
   53.7910   28.3150   53.5500 C   0  0  0  0  0  0  0  0  0  0  0  0
   53.2510   27.3370   52.9650 O   0  0  0  0  0  0  0  0  0  0  0  0
   52.9290   29.4720   53.9830 C   0  0  0  0  0  0  0  0  0  0  0  0
   52.3980   30.2010   52.7780 C   0  0  0  0  0  0  0  0  0  0  0  0
   52.7630   29.7950   51.4810 C   0  0  0  0  0  0  0  0  0  0  0  0
   52.2880   30.4890   50.3630 C   0  0  0  0  0  0  0  0  0  0  0  0
   51.4450   31.6020   50.5290 C   0  0  0  0  0  0  0  0  0  0  0  0
   50.9600   32.2950   49.4180 O   0  0  0  0  0  0  0  0  0  0  0  0
   51.0860   32.0200   51.8220 C   0  0  0  0  0  0  0  0  0  0  0  0
   50.2420   33.1180   51.9960 O   0  0  0  0  0  0  0  0  0  0  0  0
   51.5710   31.3310   52.9410 C   0  0  0  0  0  0  0  0  0  0  0  0
   57.3910   28.9990   52.7350 C   0  0  0  0  0  0  0  0  0  0  0  0
   58.9730   30.3590   49.4640 N   0  0  0  0  0  0  0  0  0  0  0  0
   57.8860   30.2720   46.2200 C   0  0  0  0  0  0  0  0  0  0  0  0
   56.7960   28.7254   43.3061 H   0  0  0  0  0  0  0  0  0  0  0  0
   55.5906   29.7880   42.5033 H   0  0  0  0  0  0  0  0  0  0  0  0
   57.3287   30.2414   42.5033 H   0  0  0  0  0  0  0  0  0  0  0  0
   57.5567   32.7782   43.9098 H   0  0  0  0  0  0  0  0  0  0  0  0
   59.3891   33.7470   45.2905 H   0  0  0  0  0  0  0  0  0  0  0  0
   60.2619   32.5073   47.2671 H   0  0  0  0  0  0  0  0  0  0  0  0
   60.8934   28.6899   47.3844 H   0  0  0  0  0  0  0  0  0  0  0  0
   59.8586   28.5315   52.1115 H   0  0  0  0  0  0  0  0  0  0  0  0
   60.3734   30.2542   52.1204 H   0  0  0  0  0  0  0  0  0  0  0  0
   58.4598   32.0034   51.4811 H   0  0  0  0  0  0  0  0  0  0  0  0
   56.1536   32.6579   52.1819 H   0  0  0  0  0  0  0  0  0  0  0  0
   54.6352   30.9703   53.2195 H   0  0  0  0  0  0  0  0  0  0  0  0
   52.0861   29.0941   54.5802 H   0  0  0  0  0  0  0  0  0  0  0  0
   53.5337   30.1656   54.5857 H   0  0  0  0  0  0  0  0  0  0  0  0
   53.4254   28.9273   51.3455 H   0  0  0  0  0  0  0  0  0  0  0  0
   52.5746   30.1633   49.3522 H   0  0  0  0  0  0  0  0  0  0  0  0
   51.5090   32.3860   48.5700 H   0  0  0  0  0  0  0  0  0  0  0  0
   51.3052   31.6734   53.9520 H   0  0  0  0  0  0  0  0  0  0  0  0
   57.7465   27.9736   52.9144 H   0  0  0  0  0  0  0  0  0  0  0  0
   57.4721   29.2843   46.4711 H   0  0  0  0  0  0  0  0  0  0  0  0
  1  2  1  0
  2  3  1  0
  3  4  2  0
  4  5  1  0
  5  6  2  0
  6  7  1  0
  7  8  1  0
  8  9  2  0
  9 10  1  0
 10 11  1  0
 11 12  1  0
 12 13  1  0
 13 14  2  0
 14 15  1  0
 15 16  2  0
 16 17  1  0
 17 18  1  0
 18 19  1  0
 19 20  2  0
 19 21  1  0
 21 22  1  0
 22 23  2  0
 23 24  1  0
 24 25  2  0
 25 26  1  0
 25 27  1  0
 27 28  1  0
 27 29  2  0
 17 30  2  0
 11 31  2  0
  7 32  2  0
 32  3  1  0
 31  8  1  0
 30 13  1  0
 29 22  1  0
  1 33  1  0
  1 34  1  0
  1 35  1  0
  4 36  1  0
  5 37  1  0
  6 38  1  0
  9 39  1  0
 12 40  1  0
 12 41  1  0
 14 42  1  0
 15 43  1  0
 16 44  1  0
 21 45  1  0
 21 46  1  0
 23 47  1  0
 24 48  1  0
 26 49  1  0
 29 50  1  0
 30 51  1  0
 32 52  1  0
M  CHG  3  10  -1  18  -1  28  -1
M  END
>  <UniqueID>  (24) 
20

>  <SMILES>  (24) 
COc1cccc(-c2c[n-]c(Cc3cccc([N-]C(=O)Cc4ccc(O)c([O-])c4)c3)n2)c1

>  <Energy>  (24) 
84.09625905795203

>  <Genealogy>  (24) 
COc1cccc(-c2c[n-]c(Cc3cccc([N-]C(=O)Cc4ccc(O)c([O-])c4)c3)n2)c1 (protonated)
COc1cccc(-c2c[n-]c(Cc3cccc([N-]C(=O)Cc4ccc(O)c([O-])c4)c3)n2)c1 (3D coordinates assigned)
COc1cccc(-c2c[n-]c(Cc3cccc([N-]C(=O)Cc4ccc(O)c([O-])c4)c3)n2)c1 (optimized conformer: 84.09625905795203 kcal/mol)

>  <smiles>  (24) 
COc1cccc(-c2c[nH]c(Cc3cccc(NC(=O)Cc4ccc(O)c(O)c4)c3)n2)c1

>  <score_type>  (24) 
oracle

>  <origin>  (24) 
adg

>  <m_score__min__energy>  (24) 
-15.27

>  <m_primary>  (24) 
energy

$$$$
24:0
     RDKit          3D

 59 61  0  0  0  0  0  0  0  0999 V2000
   60.4010   34.2910   48.5890 C   0  0  0  0  0  0  0  0  0  0  0  0
   59.2480   34.9360   47.9460 N   0  0  0  0  0  0  0  0  0  0  0  0
   59.5720   35.3100   46.5560 C   0  0  0  0  0  0  0  0  0  0  0  0
   59.2770   34.1810   45.6110 C   0  0  0  0  0  0  0  0  0  0  0  0
   59.6280   34.2660   44.4020 O   0  0  0  0  0  0  0  0  0  0  0  0
   58.6900   32.9720   46.1250 N   0  0  0  0  0  0  0  0  0  0  0  0
   58.2940   31.8590   45.3040 C   0  0  0  0  0  0  0  0  0  0  0  0
   57.6810   32.0890   44.0600 C   0  0  0  0  0  0  0  0  0  0  0  0
   57.2290   31.0240   43.2840 C   0  0  0  0  0  0  0  0  0  0  0  0
   57.3550   29.7160   43.7490 C   0  0  0  0  0  0  0  0  0  0  0  0
   57.9400   29.4560   44.9960 C   0  0  0  0  0  0  0  0  0  0  0  0
   58.0120   28.0550   45.4650 C   0  0  0  0  0  0  0  0  0  0  0  0
   59.2420   27.3900   45.5260 C   0  0  0  0  0  0  0  0  0  0  0  0
   59.2810   26.0610   45.9430 C   0  0  0  0  0  0  0  0  0  0  0  0
   58.1310   25.4150   46.2680 N   0  0  0  0  0  0  0  0  0  0  0  0
   56.9140   26.0220   46.2120 C   0  0  0  0  0  0  0  0  0  0  0  0
   55.8600   25.3280   46.5380 N   0  0  0  0  0  0  0  0  0  0  0  0
   54.8520   24.7920   45.6660 C   0  0  0  0  0  0  0  0  0  0  0  0
   53.7280   25.3590   45.6200 O   0  0  0  0  0  0  0  0  0  0  0  0
   55.0390   23.4580   44.9710 C   0  0  2  0  0  0  0  0  0  0  0  0
   54.6900   22.2730   45.9050 C   0  0  0  0  0  0  0  0  0  0  0  0
   55.6020   21.0640   45.6600 C   0  0  0  0  0  0  0  0  0  0  0  0
   55.8660   20.9050   44.2800 O   0  0  0  0  0  0  0  0  0  0  0  0
   56.6960   21.9430   43.7550 C   0  0  0  0  0  0  0  0  0  0  0  0
   56.3510   22.0710   42.2590 C   0  0  0  0  0  0  0  0  0  0  0  0
   58.1740   21.5180   43.8730 C   0  0  0  0  0  0  0  0  0  0  0  0
   56.4790   23.3280   44.4520 C   0  0  0  0  0  0  0  0  0  0  0  0
   56.8430   27.3780   45.8350 C   0  0  0  0  0  0  0  0  0  0  0  0
   58.4480   30.5300   45.7720 C   0  0  0  0  0  0  0  0  0  0  0  0
   59.1430   30.2670   47.0900 C   0  0  0  0  0  0  0  0  0  0  0  0
   60.2926   34.3516   49.6820 H   0  0  0  0  0  0  0  0  0  0  0  0
   60.4483   33.2354   48.2832 H   0  0  0  0  0  0  0  0  0  0  0  0
   61.3253   34.8031   48.2832 H   0  0  0  0  0  0  0  0  0  0  0  0
   59.0350   35.7930   48.5110 H   0  0  0  0  0  0  0  0  0  0  0  0
   58.9702   36.1851   46.2696 H   0  0  0  0  0  0  0  0  0  0  0  0
   60.6453   35.5438   46.4976 H   0  0  0  0  0  0  0  0  0  0  0  0
   58.6030   32.8790   47.1640 H   0  0  0  0  0  0  0  0  0  0  0  0
   57.5571   33.1196   43.6959 H   0  0  0  0  0  0  0  0  0  0  0  0
   56.7716   31.2157   42.3021 H   0  0  0  0  0  0  0  0  0  0  0  0
   56.9922   28.8806   43.1321 H   0  0  0  0  0  0  0  0  0  0  0  0
   60.1694   27.9117   45.2473 H   0  0  0  0  0  0  0  0  0  0  0  0
   60.2444   25.5342   46.0091 H   0  0  0  0  0  0  0  0  0  0  0  0
   54.3453   23.4223   44.1181 H   0  0  0  0  0  0  0  0  0  0  0  0
   54.8034   22.5982   46.9497 H   0  0  0  0  0  0  0  0  0  0  0  0
   53.6544   21.9670   45.6953 H   0  0  0  0  0  0  0  0  0  0  0  0
   56.5519   21.2149   46.1937 H   0  0  0  0  0  0  0  0  0  0  0  0
   55.0950   20.1599   46.0282 H   0  0  0  0  0  0  0  0  0  0  0  0
   55.3247   22.4518   42.1507 H   0  0  0  0  0  0  0  0  0  0  0  0
   57.0534   22.7684   41.7791 H   0  0  0  0  0  0  0  0  0  0  0  0
   56.4286   21.0843   41.7791 H   0  0  0  0  0  0  0  0  0  0  0  0
   58.4491   21.4389   44.9351 H   0  0  0  0  0  0  0  0  0  0  0  0
   58.3153   20.5428   43.3840 H   0  0  0  0  0  0  0  0  0  0  0  0
   58.8117   22.2692   43.3840 H   0  0  0  0  0  0  0  0  0  0  0  0
   57.1767   23.4194   45.2975 H   0  0  0  0  0  0  0  0  0  0  0  0
   56.6620   24.1253   43.7166 H   0  0  0  0  0  0  0  0  0  0  0  0
   55.8756   27.9015   45.8313 H   0  0  0  0  0  0  0  0  0  0  0  0
   58.4665   30.5230   47.9187 H   0  0  0  0  0  0  0  0  0  0  0  0
   59.4160   29.2034   47.1547 H   0  0  0  0  0  0  0  0  0  0  0  0
   60.0518   30.8834   47.1547 H   0  0  0  0  0  0  0  0  0  0  0  0
  1  2  1  0
  2  3  1  0
  3  4  1  0
  4  5  2  0
  4  6  1  0
  6  7  1  0
  7  8  2  0
  8  9  1  0
  9 10  2  0
 10 11  1  0
 11 12  1  0
 12 13  1  0
 13 14  2  0
 14 15  1  0
 15 16  1  0
 16 17  2  3
 17 18  1  0
 18 19  2  0
 18 20  1  0
 20 21  1  0
 21 22  1  0
 22 23  1  0
 23 24  1  0
 24 25  1  0
 24 26  1  0
 24 27  1  0
 16 28  1  0
 11 29  2  0
 29 30  1  0
 29  7  1  0
 28 12  2  0
 27 20  1  0
  1 31  1  0
  1 32  1  0
  1 33  1  0
  2 34  1  0
  3 35  1  0
  3 36  1  0
  6 37  1  0
  8 38  1  0
  9 39  1  0
 10 40  1  0
 13 41  1  0
 14 42  1  0
 20 43  1  6
 21 44  1  0
 21 45  1  0
 22 46  1  0
 22 47  1  0
 25 48  1  0
 25 49  1  0
 25 50  1  0
 26 51  1  0
 26 52  1  0
 26 53  1  0
 27 54  1  0
 27 55  1  0
 28 56  1  0
 30 57  1  0
 30 58  1  0
 30 59  1  0
M  CHG  1  15  -1
M  END
>  <UniqueID>  (25) 
21

>  <SMILES>  (25) 
CNCC(=O)Nc1cccc(-c2cc[n-]c(=NC(=O)[C@@H]3CCOC(C)(C)C3)c2)c1C

>  <Energy>  (25) 
87.2875047064518

>  <Genealogy>  (25) 
CNCC(=O)Nc1cccc(-c2cc[n-]c(=NC(=O)C3CCOC(C)(C)C3)c2)c1C (protonated)
CNCC(=O)Nc1cccc(-c2cc[n-]c(=NC(=O)[C@@H]3CCOC(C)(C)C3)c2)c1C (chirality)
CNCC(=O)Nc1cccc(-c2cc[n-]c(=NC(=O)[C@@H]3CCOC(C)(C)C3)c2)c1C (3D coordinates assigned)
CNCC(=O)Nc1cccc(-c2cc[n-]c(=NC(=O)[C@@H]3CCOC(C)(C)C3)c2)c1C (nonaromatic ring conformer: 87.2875047064518 kcal/mol)

>  <smiles>  (25) 
CNCC(=O)Nc1cccc(-c2cc[nH]c(=NC(=O)C3CCOC(C)(C)C3)c2)c1C

>  <score_type>  (25) 
oracle

>  <origin>  (25) 
adg

>  <m_score__min__energy>  (25) 
-11.08

>  <m_primary>  (25) 
energy

$$$$
25:0
     RDKit          3D

 38 40  0  0  0  0  0  0  0  0999 V2000
   57.3900   23.9300   47.8940 N   0  0  0  0  0  0  0  0  0  0  0  0
   57.6240   24.7310   47.0780 C   0  0  0  0  0  0  0  0  0  0  0  0
   57.8980   25.7120   46.0660 C   0  0  0  0  0  0  0  0  0  0  0  0
   58.2620   26.9870   46.4330 C   0  0  0  0  0  0  0  0  0  0  0  0
   58.5410   27.9830   45.4940 C   0  0  0  0  0  0  0  0  0  0  0  0
   58.8810   29.3070   45.9820 C   0  0  0  0  0  0  0  0  0  0  0  0
   59.8980   29.3500   46.9470 C   0  0  0  0  0  0  0  0  0  0  0  0
   60.3090   30.5290   47.5240 C   0  0  0  0  0  0  0  0  0  0  0  0
   59.6810   31.6840   47.1190 C   0  0  0  0  0  0  0  0  0  0  0  0
   58.6850   31.6370   46.1720 C   0  0  0  0  0  0  0  0  0  0  0  0
   58.2560   30.4560   45.5770 C   0  0  0  0  0  0  0  0  0  0  0  0
   57.0260   30.5010   44.3750 S   0  0  0  0  0  0  0  0  0  0  0  0
   55.6220   29.6600   44.9800 N   0  0  0  0  0  0  0  0  0  0  0  0
   56.6070   31.9300   44.1550 O   0  0  0  0  0  0  0  0  0  0  0  0
   57.3650   29.9270   43.0600 O   0  0  0  0  0  0  0  0  0  0  0  0
   58.4320   27.6250   44.1790 C   0  0  0  0  0  0  0  0  0  0  0  0
   58.0650   26.3360   43.7970 C   0  0  0  0  0  0  0  0  0  0  0  0
   57.7930   25.3630   44.7350 C   0  0  0  0  0  0  0  0  0  0  0  0
   57.4120   24.0260   44.2870 C   0  0  0  0  0  0  0  0  0  0  0  0
   56.2250   23.8810   43.5600 C   0  0  0  0  0  0  0  0  0  0  0  0
   55.8730   22.6440   43.1450 N   0  0  0  0  0  0  0  0  0  0  0  0
   56.6330   21.5580   43.4150 C   0  0  0  0  0  0  0  0  0  0  0  0
   56.2750   20.3680   43.0050 N   0  0  0  0  0  0  0  0  0  0  0  0
   57.7920   21.6690   44.1210 N   0  0  0  0  0  0  0  0  0  0  0  0
   58.1680   22.9010   44.5490 C   0  0  0  0  0  0  0  0  0  0  0  0
   58.3359   27.2306   47.5031 H   0  0  0  0  0  0  0  0  0  0  0  0
   60.3824   28.4107   47.2521 H   0  0  0  0  0  0  0  0  0  0  0  0
   61.1083   30.5476   48.2795 H   0  0  0  0  0  0  0  0  0  0  0  0
   59.9769   32.6497   47.5547 H   0  0  0  0  0  0  0  0  0  0  0  0
   58.2044   32.5795   45.8707 H   0  0  0  0  0  0  0  0  0  0  0  0
   55.5680   29.7160   46.0210 H   0  0  0  0  0  0  0  0  0  0  0  0
   54.7750   30.0350   44.5460 H   0  0  0  0  0  0  0  0  0  0  0  0
   58.6396   28.3748   43.4014 H   0  0  0  0  0  0  0  0  0  0  0  0
   57.9910   26.0904   42.7273 H   0  0  0  0  0  0  0  0  0  0  0  0
   55.5939   24.7526   43.3319 H   0  0  0  0  0  0  0  0  0  0  0  0
   56.8070   19.5550   43.4020 H   0  0  0  0  0  0  0  0  0  0  0  0
   58.3810   20.8320   44.3310 H   0  0  0  0  0  0  0  0  0  0  0  0
   59.1017   23.0060   45.1209 H   0  0  0  0  0  0  0  0  0  0  0  0
  1  2  3  0
  2  3  1  0
  3  4  2  0
  4  5  1  0
  5  6  1  0
  6  7  2  0
  7  8  1  0
  8  9  2  0
  9 10  1  0
 10 11  2  0
 11 12  1  0
 12 13  1  0
 12 14  2  0
 12 15  2  0
  5 16  2  0
 16 17  1  0
 17 18  2  0
 18 19  1  0
 19 20  1  0
 20 21  2  0
 21 22  1  0
 22 23  2  3
 22 24  1  0
 24 25  1  0
 18  3  1  0
 25 19  2  0
 11  6  1  0
  4 26  1  0
  7 27  1  0
  8 28  1  0
  9 29  1  0
 10 30  1  0
 13 31  1  0
 13 32  1  0
 16 33  1  0
 17 34  1  0
 20 35  1  0
 23 36  1  0
 24 37  1  0
 25 38  1  0
M  END
>  <smiles>  (26) 
N#Cc1cc(-c2ccccc2S(N)(=O)=O)ccc1-c1cnc(=N)[nH]c1

>  <score_type>  (26) 
oracle

>  <origin>  (26) 
adg

>  <m_score__min__energy>  (26) 
-10

>  <m_primary>  (26) 
energy

$$$$
26:0
     RDKit          3D

 34 35  0  0  0  0  0  0  0  0999 V2000
   60.3380   29.2310   47.9230 C   0  0  0  0  0  0  0  0  0  0  0  0
   61.0270   30.4510   48.1780 O   0  0  0  0  0  0  0  0  0  0  0  0
   60.7530   31.6640   47.5300 C   0  0  0  0  0  0  0  0  0  0  0  0
   61.7830   32.6050   47.4140 C   0  0  0  0  0  0  0  0  0  0  0  0
   61.5630   33.8180   46.7560 C   0  0  0  0  0  0  0  0  0  0  0  0
   60.3140   34.0980   46.1980 C   0  0  0  0  0  0  0  0  0  0  0  0
   59.2720   33.1670   46.3040 C   0  0  0  0  0  0  0  0  0  0  0  0
   57.7090   33.5060   45.5610 S   0  0  0  0  0  0  0  0  0  0  0  0
   56.6490   33.4700   46.6250 O   0  0  0  0  0  0  0  0  0  0  0  0
   57.7240   34.8670   44.9230 O   0  0  0  0  0  0  0  0  0  0  0  0
   57.3310   32.3240   44.3450 N   0  0  0  0  0  0  0  0  0  0  0  0
   57.0260   31.0940   44.6160 C   0  0  0  0  0  0  0  0  0  0  0  0
   55.7870   30.5990   44.4160 N   0  0  0  0  0  0  0  0  0  0  0  0
   55.8710   29.3380   44.8760 C   0  0  0  0  0  0  0  0  0  0  0  0
   57.1500   29.1100   45.3280 C   0  0  0  0  0  0  0  0  0  0  0  0
   57.6320   27.8820   46.0340 C   0  0  0  0  0  0  0  0  0  0  0  0
   57.0410   26.6300   45.3820 C   0  0  0  0  0  0  0  0  0  0  0  0
   55.9530   26.0590   46.2330 C   0  0  0  0  0  0  0  0  0  0  0  0
   56.2330   25.2870   47.1870 O   0  0  0  0  0  0  0  0  0  0  0  0
   54.6230   26.3410   45.9440 O   0  0  0  0  0  0  0  0  0  0  0  0
   57.8920   30.2190   45.1730 N   0  0  0  0  0  0  0  0  0  0  0  0
   59.4860   31.9610   46.9880 C   0  0  0  0  0  0  0  0  0  0  0  0
   60.0693   28.7552   48.8777 H   0  0  0  0  0  0  0  0  0  0  0  0
   59.4242   29.4394   47.3472 H   0  0  0  0  0  0  0  0  0  0  0  0
   60.9883   28.5561   47.3472 H   0  0  0  0  0  0  0  0  0  0  0  0
   62.7721   32.3881   47.8437 H   0  0  0  0  0  0  0  0  0  0  0  0
   62.3762   34.5545   46.6774 H   0  0  0  0  0  0  0  0  0  0  0  0
   60.1477   35.0510   45.6743 H   0  0  0  0  0  0  0  0  0  0  0  0
   55.0493   28.6068   44.8887 H   0  0  0  0  0  0  0  0  0  0  0  0
   58.7296   27.8375   45.9769 H   0  0  0  0  0  0  0  0  0  0  0  0
   57.3115   27.9239   47.0854 H   0  0  0  0  0  0  0  0  0  0  0  0
   56.6286   26.8953   44.3974 H   0  0  0  0  0  0  0  0  0  0  0  0
   57.8364   25.8783   45.2707 H   0  0  0  0  0  0  0  0  0  0  0  0
   58.6605   31.2430   47.1020 H   0  0  0  0  0  0  0  0  0  0  0  0
  1  2  1  0
  2  3  1  0
  3  4  2  0
  4  5  1  0
  5  6  2  0
  6  7  1  0
  7  8  1  0
  8  9  2  0
  8 10  2  0
  8 11  1  0
 11 12  2  3
 12 13  1  0
 13 14  1  0
 14 15  2  0
 15 16  1  0
 16 17  1  0
 17 18  1  0
 18 19  2  0
 18 20  1  0
 15 21  1  0
  7 22  2  0
 22  3  1  0
 21 12  1  0
  1 23  1  0
  1 24  1  0
  1 25  1  0
  4 26  1  0
  5 27  1  0
  6 28  1  0
 14 29  1  0
 16 30  1  0
 16 31  1  0
 17 32  1  0
 17 33  1  0
 22 34  1  0
M  CHG  3  13  -1  20  -1  21  -1
M  END
>  <UniqueID>  (27) 
22

>  <SMILES>  (27) 
COc1cccc(S(=O)(=O)N=c2[n-]cc(CCC(=O)[O-])[n-]2)c1

>  <Energy>  (27) 
58.27294385077195

>  <Genealogy>  (27) 
COc1cccc(S(=O)(=O)N=c2[n-]cc(CCC(=O)[O-])[n-]2)c1 (protonated)
COc1cccc(S(=O)(=O)N=c2[n-]cc(CCC(=O)[O-])[n-]2)c1 (3D coordinates assigned)
COc1cccc(S(=O)(=O)N=c2[n-]cc(CCC(=O)[O-])[n-]2)c1 (optimized conformer: 58.27294385077195 kcal/mol)

>  <smiles>  (27) 
COc1cccc(S(=O)(=O)N=c2[nH]cc(CCC(=O)O)[nH]2)c1

>  <score_type>  (27) 
oracle

>  <origin>  (27) 
adg

>  <m_score__min__energy>  (27) 
-12.67

>  <m_primary>  (27) 
energy

$$$$
27:0
     RDKit          3D

 45 47  0  0  0  0  0  0  0  0999 V2000
   50.1110   32.3390   49.7390 H   0  0  0  0  0  0  0  0  0  0  0  0
   50.9840   32.1600   50.2840 N   0  0  0  0  0  0  0  0  0  0  0  0
   51.6840   30.9230   50.1650 C   0  0  0  0  0  0  0  0  0  0  0  0
   51.4250   30.1640   49.1920 O   0  0  0  0  0  0  0  0  0  0  0  0
   52.7020   30.5340   51.1670 C   0  0  0  0  0  0  0  0  0  0  0  0
   52.4540   29.4860   52.0720 C   0  0  0  0  0  0  0  0  0  0  0  0
   51.4942   28.9499   52.0358 H   0  0  0  0  0  0  0  0  0  0  0  0
   53.4170   29.1200   53.0170 C   0  0  0  0  0  0  0  0  0  0  0  0
   53.2051   28.3084   53.7286 H   0  0  0  0  0  0  0  0  0  0  0  0
   54.6540   29.7840   53.0620 C   0  0  0  0  0  0  0  0  0  0  0  0
   55.6520   29.4520   54.0380 N   0  0  0  0  0  0  0  0  0  0  0  0
   56.8400   28.6840   53.8070 C   0  0  0  0  0  0  0  0  0  0  0  0
   56.9470   27.5560   54.3590 O   0  0  0  0  0  0  0  0  0  0  0  0
   57.9580   29.2250   53.0070 C   0  0  0  0  0  0  0  0  0  0  0  0
   58.9610   29.2679   53.4566 H   0  0  0  0  0  0  0  0  0  0  0  0
   57.7920   29.6650   51.7530 C   0  0  0  0  0  0  0  0  0  0  0  0
   57.2708   29.0194   51.0308 H   0  0  0  0  0  0  0  0  0  0  0  0
   58.2840   30.9900   51.3000 C   0  0  0  0  0  0  0  0  0  0  0  0
   58.0240   32.1660   52.0190 C   0  0  0  0  0  0  0  0  0  0  0  0
   57.3120   32.1330   53.2160 O   0  0  0  0  0  0  0  0  0  0  0  0
   56.8030   31.3030   53.4960 H   0  0  0  0  0  0  0  0  0  0  0  0
   58.4930   33.3510   51.5610 N   0  0  0  0  0  0  0  0  0  0  0  0
   59.2290   33.4380   50.4250 C   0  0  0  0  0  0  0  0  0  0  0  0
   59.6310   34.5720   50.0490 O   0  0  0  0  0  0  0  0  0  0  0  0
   59.5330   32.3080   49.7090 N   0  0  0  0  0  0  0  0  0  0  0  0
   60.3120   32.4090   48.4560 C   0  0  0  0  0  0  0  0  0  0  0  0
   61.2088   33.0201   48.6356 H   0  0  0  0  0  0  0  0  0  0  0  0
   60.6004   31.3975   48.1340 H   0  0  0  0  0  0  0  0  0  0  0  0
   59.4850   33.0490   47.3700 C   0  0  0  0  0  0  0  0  0  0  0  0
   60.0080   34.1090   46.6110 C   0  0  0  0  0  0  0  0  0  0  0  0
   61.0358   34.4568   46.7916 H   0  0  0  0  0  0  0  0  0  0  0  0
   59.2280   34.7240   45.6270 C   0  0  0  0  0  0  0  0  0  0  0  0
   59.6448   35.5511   45.0335 H   0  0  0  0  0  0  0  0  0  0  0  0
   57.9200   34.2900   45.3960 C   0  0  0  0  0  0  0  0  0  0  0  0
   57.3078   34.7755   44.6217 H   0  0  0  0  0  0  0  0  0  0  0  0
   57.3900   33.2390   46.1490 C   0  0  0  0  0  0  0  0  0  0  0  0
   56.3602   32.8976   45.9672 H   0  0  0  0  0  0  0  0  0  0  0  0
   58.1670   32.6210   47.1330 C   0  0  0  0  0  0  0  0  0  0  0  0
   57.7450   31.7955   47.7250 H   0  0  0  0  0  0  0  0  0  0  0  0
   59.0700   31.0880   50.1380 C   0  0  0  0  0  0  0  0  0  0  0  0
   59.3390   30.0410   49.4840 O   0  0  0  0  0  0  0  0  0  0  0  0
   54.8930   30.8450   52.1830 C   0  0  0  0  0  0  0  0  0  0  0  0
   55.8446   31.3942   52.2364 H   0  0  0  0  0  0  0  0  0  0  0  0
   53.9320   31.2130   51.2370 C   0  0  0  0  0  0  0  0  0  0  0  0
   54.1392   32.0400   50.5419 H   0  0  0  0  0  0  0  0  0  0  0  0
  1  2  1  0
  2  3  1  0
  3  4  2  0
  3  5  1  0
  5  6  2  0
  6  7  1  0
  6  8  1  0
  8  9  1  0
  8 10  2  0
 10 11  1  0
 11 12  1  0
 12 13  2  0
 12 14  1  0
 14 15  1  0
 14 16  2  0
 16 17  1  0
 16 18  1  0
 18 19  2  0
 19 20  1  0
 20 21  1  0
 19 22  1  0
 22 23  1  0
 23 24  2  0
 23 25  1  0
 25 26  1  0
 26 27  1  0
 26 28  1  0
 26 29  1  0
 29 30  2  0
 30 31  1  0
 30 32  1  0
 32 33  1  0
 32 34  2  0
 34 35  1  0
 34 36  1  0
 36 37  1  0
 36 38  2  0
 38 39  1  0
 25 40  1  0
 40 41  2  0
 10 42  1  0
 42 43  1  0
 42 44  2  0
 44 45  1  0
 44  5  1  0
 40 18  1  0
 38 29  1  0
M  CHG  3   2  -1  11  -1  22  -1
M  END
>  <UniqueID>  (28) 
23

>  <SMILES>  (28) 
[NH-]C(=O)c1ccc([N-]C(=O)/C=C/c2c(O)[n-]c(=O)n(Cc3ccccc3)c2=O)cc1

>  <Energy>  (28) 
60.71655389730202

>  <Genealogy>  (28) 
[NH-]C(=O)c1ccc([N-]C(=O)C=Cc2c(O)[n-]c(=O)n(Cc3ccccc3)c2=O)cc1 (protonated)
[NH-]C(=O)c1ccc([N-]C(=O)/C=C/c2c(O)[n-]c(=O)n(Cc3ccccc3)c2=O)cc1 (cis-trans isomerization)
[NH-]C(=O)c1ccc([N-]C(=O)/C=C/c2c(O)[n-]c(=O)n(Cc3ccccc3)c2=O)cc1 (3D coordinates assigned)
[NH-]C(=O)c1ccc([N-]C(=O)/C=C/c2c(O)[n-]c(=O)n(Cc3ccccc3)c2=O)cc1 (optimized conformer: 60.71655389730202 kcal/mol)

>  <smiles>  (28) 
NC(=O)c1ccc(NC(=O)C=Cc2c(O)[nH]c(=O)n(Cc3ccccc3)c2=O)cc1

>  <score_type>  (28) 
oracle

>  <origin>  (28) 
adg

>  <m_score__min__energy>  (28) 
-13.01

>  <m_primary>  (28) 
energy

$$$$
28:0
     RDKit          3D

 49 51  0  0  0  0  0  0  0  0999 V2000
   55.6530   29.5740   44.8520 N   0  0  0  0  0  0  0  0  0  0  0  0
   56.9680   30.0770   45.0670 C   0  0  0  0  0  0  0  0  0  0  0  0
   57.6990   29.5650   45.9570 O   0  0  0  0  0  0  0  0  0  0  0  0
   57.4700   31.2260   44.2490 C   0  0  0  0  0  0  0  0  0  0  0  0
   58.1850   32.1880   45.1090 N   0  0  0  0  0  0  0  0  0  0  0  0
   58.5140   33.4230   44.3780 C   0  0  0  0  0  0  0  0  0  0  0  0
   59.4720   34.2860   45.2190 C   0  0  0  0  0  0  0  0  0  0  0  0
   59.2540   34.1570   46.6770 N   0  0  0  0  0  0  0  0  0  0  0  0
   60.4320   33.0990   47.4310 S   0  0  0  0  0  0  0  0  0  0  0  0
   61.0840   32.2250   46.3970 O   0  0  0  0  0  0  0  0  0  0  0  0
   61.4910   33.9290   48.0990 O   0  0  0  0  0  0  0  0  0  0  0  0
   59.6650   32.0990   48.6640 C   0  0  0  0  0  0  0  0  0  0  0  0
   59.1700   32.6730   49.8420 C   0  0  0  0  0  0  0  0  0  0  0  0
   58.5420   31.8740   50.8020 C   0  0  0  0  0  0  0  0  0  0  0  0
   58.4170   30.4930   50.6040 C   0  0  0  0  0  0  0  0  0  0  0  0
   57.7380   29.7160   51.6010 N   0  0  0  0  0  0  0  0  0  0  0  0
   56.5020   30.0470   52.2470 C   0  0  0  0  0  0  0  0  0  0  0  0
   56.2770   29.6730   53.4280 O   0  0  0  0  0  0  0  0  0  0  0  0
   55.5010   30.8050   51.5590 N   0  0  0  0  0  0  0  0  0  0  0  0
   54.0880   30.7520   51.8010 C   0  0  0  0  0  0  0  0  0  0  0  0
   53.5650   29.6620   52.5090 C   0  0  0  0  0  0  0  0  0  0  0  0
   52.1940   29.5810   52.7710 C   0  0  0  0  0  0  0  0  0  0  0  0
   51.3380   30.5990   52.3440 C   0  0  0  0  0  0  0  0  0  0  0  0
   51.8530   31.7030   51.6600 C   0  0  0  0  0  0  0  0  0  0  0  0
   51.0040   32.7230   51.2490 O   0  0  0  0  0  0  0  0  0  0  0  0
   53.2250   31.7880   51.3950 C   0  0  0  0  0  0  0  0  0  0  0  0
   58.8970   29.9220   49.4120 C   0  0  0  0  0  0  0  0  0  0  0  0
   59.5190   30.7230   48.4500 C   0  0  0  0  0  0  0  0  0  0  0  0
   57.8680   33.7900   47.0220 C   0  0  0  0  0  0  0  0  0  0  0  0
   57.3950   32.4980   46.3200 C   0  0  0  0  0  0  0  0  0  0  0  0
   54.8140   30.1200   45.1480 H   0  0  0  0  0  0  0  0  0  0  0  0
   58.1561   30.8496   43.4759 H   0  0  0  0  0  0  0  0  0  0  0  0
   56.6149   31.7321   43.7772 H   0  0  0  0  0  0  0  0  0  0  0  0
   58.9968   33.1652   43.4238 H   0  0  0  0  0  0  0  0  0  0  0  0
   57.5903   33.9881   44.1846 H   0  0  0  0  0  0  0  0  0  0  0  0
   60.5046   33.9819   44.9928 H   0  0  0  0  0  0  0  0  0  0  0  0
   59.2798   35.3362   44.9540 H   0  0  0  0  0  0  0  0  0  0  0  0
   59.2756   33.7546   50.0120 H   0  0  0  0  0  0  0  0  0  0  0  0
   58.1434   32.3328   51.7188 H   0  0  0  0  0  0  0  0  0  0  0  0
   54.2369   28.8653   52.8608 H   0  0  0  0  0  0  0  0  0  0  0  0
   51.7889   28.7145   53.3141 H   0  0  0  0  0  0  0  0  0  0  0  0
   50.2589   30.5314   52.5462 H   0  0  0  0  0  0  0  0  0  0  0  0
   53.6295   32.6653   50.8689 H   0  0  0  0  0  0  0  0  0  0  0  0
   58.7827   28.8422   49.2361 H   0  0  0  0  0  0  0  0  0  0  0  0
   59.8954   30.2704   47.5208 H   0  0  0  0  0  0  0  0  0  0  0  0
   57.8049   33.6413   48.1101 H   0  0  0  0  0  0  0  0  0  0  0  0
   57.2159   34.6079   46.6817 H   0  0  0  0  0  0  0  0  0  0  0  0
   57.4878   31.6593   47.0256 H   0  0  0  0  0  0  0  0  0  0  0  0
   56.3515   32.6511   46.0074 H   0  0  0  0  0  0  0  0  0  0  0  0
  1  2  1  0
  2  3  2  0
  2  4  1  0
  4  5  1  0
  5  6  1  0
  6  7  1  0
  7  8  1  0
  8  9  1  0
  9 10  2  0
  9 11  2  0
  9 12  1  0
 12 13  2  0
 13 14  1  0
 14 15  2  0
 15 16  1  0
 16 17  1  0
 17 18  2  0
 17 19  1  0
 19 20  1  0
 20 21  2  0
 21 22  1  0
 22 23  2  0
 23 24  1  0
 24 25  1  0
 24 26  2  0
 15 27  1  0
 27 28  2  0
  8 29  1  0
 29 30  1  0
 30  5  1  0
 28 12  1  0
 26 20  1  0
  1 31  1  0
  4 32  1  0
  4 33  1  0
  6 34  1  0
  6 35  1  0
  7 36  1  0
  7 37  1  0
 13 38  1  0
 14 39  1  0
 21 40  1  0
 22 41  1  0
 23 42  1  0
 26 43  1  0
 27 44  1  0
 28 45  1  0
 29 46  1  0
 29 47  1  0
 30 48  1  0
 30 49  1  0
M  CHG  4   1  -1  16  -1  19  -1  25  -1
M  END
>  <UniqueID>  (29) 
24

>  <SMILES>  (29) 
[NH-]C(=O)CN1CCN(S(=O)(=O)c2ccc([N-]C(=O)[N-]c3cccc([O-])c3)cc2)CC1

>  <Energy>  (29) 
66.5722113640819

>  <Genealogy>  (29) 
[NH-]C(=O)CN1CCN(S(=O)(=O)c2ccc([N-]C(=O)[N-]c3cccc([O-])c3)cc2)CC1 (protonated)
[NH-]C(=O)CN1CCN(S(=O)(=O)c2ccc([N-]C(=O)[N-]c3cccc([O-])c3)cc2)CC1 (3D coordinates assigned)
[NH-]C(=O)CN1CCN(S(=O)(=O)c2ccc([N-]C(=O)[N-]c3cccc([O-])c3)cc2)CC1 (nonaromatic ring conformer: 66.5722113640819 kcal/mol)

>  <smiles>  (29) 
NC(=O)CN1CCN(S(=O)(=O)c2ccc(NC(=O)Nc3cccc(O)c3)cc2)CC1

>  <score_type>  (29) 
oracle

>  <origin>  (29) 
adg

>  <m_score__min__energy>  (29) 
-17.760000000000002

>  <m_primary>  (29) 
energy

$$$$
29:0
     RDKit          3D

 42 44  0  0  0  0  0  0  0  0999 V2000
   58.0090   32.2570   42.0390 C   0  0  0  0  0  0  0  0  0  0  0  0
   57.6290   33.1000   43.1220 O   0  0  0  0  0  0  0  0  0  0  0  0
   58.1380   32.9980   44.4270 C   0  0  0  0  0  0  0  0  0  0  0  0
   59.2460   33.7560   44.8550 C   0  0  0  0  0  0  0  0  0  0  0  0
   59.7250   33.6270   46.1600 C   0  0  0  0  0  0  0  0  0  0  0  0
   59.1080   32.7470   47.0480 C   0  0  0  0  0  0  0  0  0  0  0  0
   58.0080   31.9920   46.6360 C   0  0  0  0  0  0  0  0  0  0  0  0
   57.5160   32.1110   45.3220 C   0  0  0  0  0  0  0  0  0  0  0  0
   56.3890   31.3490   44.8660 N   0  0  0  0  0  0  0  0  0  0  0  0
   56.4520   29.7270   44.2570 S   0  0  0  0  0  0  0  0  0  0  0  0
   55.1470   29.0370   44.5390 O   0  0  0  0  0  0  0  0  0  0  0  0
   56.6620   29.7670   42.7700 O   0  0  0  0  0  0  0  0  0  0  0  0
   57.7970   28.8660   44.9970 C   0  0  0  0  0  0  0  0  0  0  0  0
   59.1060   29.1360   44.5750 C   0  0  0  0  0  0  0  0  0  0  0  0
   60.1840   28.4710   45.1660 C   0  0  0  0  0  0  0  0  0  0  0  0
   59.9610   27.5290   46.1730 C   0  0  0  0  0  0  0  0  0  0  0  0
   58.6570   27.2350   46.5900 C   0  0  0  0  0  0  0  0  0  0  0  0
   58.4650   26.2750   47.6390 N   0  0  0  0  0  0  0  0  0  0  0  0
   57.6270   25.1120   47.5810 C   0  0  0  0  0  0  0  0  0  0  0  0
   57.5630   24.3630   48.5920 O   0  0  0  0  0  0  0  0  0  0  0  0
   56.8740   24.7370   46.3650 C   0  0  0  0  0  0  0  0  0  0  0  0
   57.5250   24.2430   45.2210 C   0  0  0  0  0  0  0  0  0  0  0  0
   56.7700   23.8900   44.1020 C   0  0  0  0  0  0  0  0  0  0  0  0
   55.3800   24.0170   44.1310 C   0  0  0  0  0  0  0  0  0  0  0  0
   54.7640   24.4940   45.2880 C   0  0  0  0  0  0  0  0  0  0  0  0
   55.5150   24.8360   46.3690 N   0  0  0  0  0  0  0  0  0  0  0  0
   57.5750   27.9230   46.0100 C   0  0  0  0  0  0  0  0  0  0  0  0
   58.4310   31.3209   42.4336 H   0  0  0  0  0  0  0  0  0  0  0  0
   57.1260   32.0304   41.4234 H   0  0  0  0  0  0  0  0  0  0  0  0
   58.7636   32.7686   41.4234 H   0  0  0  0  0  0  0  0  0  0  0  0
   59.7355   34.4522   44.1581 H   0  0  0  0  0  0  0  0  0  0  0  0
   60.5908   34.2208   46.4882 H   0  0  0  0  0  0  0  0  0  0  0  0
   59.4885   32.6472   48.0753 H   0  0  0  0  0  0  0  0  0  0  0  0
   57.5234   31.3009   47.3414 H   0  0  0  0  0  0  0  0  0  0  0  0
   59.2852   29.8723   43.7776 H   0  0  0  0  0  0  0  0  0  0  0  0
   61.2106   28.6900   44.8373 H   0  0  0  0  0  0  0  0  0  0  0  0
   60.8140   27.0156   46.6407 H   0  0  0  0  0  0  0  0  0  0  0  0
   58.6197   24.1358   45.2082 H   0  0  0  0  0  0  0  0  0  0  0  0
   57.2695   23.5120   43.1978 H   0  0  0  0  0  0  0  0  0  0  0  0
   54.7777   23.7441   43.2519 H   0  0  0  0  0  0  0  0  0  0  0  0
   53.6692   24.5937   45.3261 H   0  0  0  0  0  0  0  0  0  0  0  0
   56.5499   27.7197   46.3533 H   0  0  0  0  0  0  0  0  0  0  0  0
  1  2  1  0
  2  3  1  0
  3  4  2  0
  4  5  1  0
  5  6  2  0
  6  7  1  0
  7  8  2  0
  8  9  1  0
  9 10  1  0
 10 11  2  0
 10 12  2  0
 10 13  1  0
 13 14  2  0
 14 15  1  0
 15 16  2  0
 16 17  1  0
 17 18  1  0
 18 19  1  0
 19 20  2  0
 19 21  1  0
 21 22  2  0
 22 23  1  0
 23 24  2  0
 24 25  1  0
 25 26  2  0
 17 27  2  0
  8  3  1  0
 27 13  1  0
 26 21  1  0
  1 28  1  0
  1 29  1  0
  1 30  1  0
  4 31  1  0
  5 32  1  0
  6 33  1  0
  7 34  1  0
 14 35  1  0
 15 36  1  0
 16 37  1  0
 22 38  1  0
 23 39  1  0
 24 40  1  0
 25 41  1  0
 27 42  1  0
M  CHG  2   9  -1  18  -1
M  END
>  <UniqueID>  (30) 
25

>  <SMILES>  (30) 
COc1ccccc1[N-]S(=O)(=O)c1cccc([N-]C(=O)c2ccccn2)c1

>  <Energy>  (30) 
54.1389514124058

>  <Genealogy>  (30) 
COc1ccccc1[N-]S(=O)(=O)c1cccc([N-]C(=O)c2ccccn2)c1 (protonated)
COc1ccccc1[N-]S(=O)(=O)c1cccc([N-]C(=O)c2ccccn2)c1 (3D coordinates assigned)
COc1ccccc1[N-]S(=O)(=O)c1cccc([N-]C(=O)c2ccccn2)c1 (optimized conformer: 54.1389514124058 kcal/mol)

>  <smiles>  (30) 
COc1ccccc1NS(=O)(=O)c1cccc(NC(=O)c2ccccn2)c1

>  <score_type>  (30) 
oracle

>  <origin>  (30) 
adg

>  <m_score__min__energy>  (30) 
-11.73

>  <m_primary>  (30) 
energy

$$$$
30:0
     RDKit          3D

 39 40  0  0  0  0  0  0  0  0999 V2000
   60.7110   26.8760   49.2190 C   0  0  0  0  0  0  0  0  0  0  0  0
   60.0000   26.3510   48.1030 O   0  0  0  0  0  0  0  0  0  0  0  0
   59.1770   27.1410   47.2950 C   0  0  0  0  0  0  0  0  0  0  0  0
   57.9170   26.6720   46.9320 C   0  0  0  0  0  0  0  0  0  0  0  0
   57.0910   27.4560   46.1170 C   0  0  0  0  0  0  0  0  0  0  0  0
   55.8260   26.9830   45.7710 O   0  0  0  0  0  0  0  0  0  0  0  0
   57.5400   28.7130   45.6640 C   0  0  0  0  0  0  0  0  0  0  0  0
   56.5240   29.7120   44.6040 S   0  0  0  0  0  0  0  0  0  0  0  0
   56.7120   31.1740   44.8930 O   0  0  0  0  0  0  0  0  0  0  0  0
   56.8840   29.4480   43.1700 O   0  0  0  0  0  0  0  0  0  0  0  0
   54.9030   29.3430   44.8530 O   0  0  0  0  0  0  0  0  0  0  0  0
   58.8120   29.1620   46.0870 C   0  0  0  0  0  0  0  0  0  0  0  0
   59.4620   30.7780   45.6440 S   0  0  0  0  0  0  0  0  0  0  0  0
   60.6880   30.8600   47.0030 C   0  0  0  0  0  0  0  0  0  0  0  0
   60.3230   31.9140   48.0400 C   0  0  0  0  0  0  0  0  0  0  0  0
   59.5130   31.5810   49.1670 C   0  0  0  0  0  0  0  0  0  0  0  0
   58.9190   30.2080   49.3560 C   0  0  0  0  0  0  0  0  0  0  0  0
   59.2280   32.5620   50.1300 C   0  0  0  0  0  0  0  0  0  0  0  0
   59.7230   33.8540   49.9990 C   0  0  0  0  0  0  0  0  0  0  0  0
   60.5000   34.1970   48.8990 C   0  0  0  0  0  0  0  0  0  0  0  0
   60.7950   33.2520   47.9040 C   0  0  0  0  0  0  0  0  0  0  0  0
   61.6450   33.6920   46.7370 C   0  0  0  0  0  0  0  0  0  0  0  0
   59.5880   28.3630   46.8670 N   0  0  0  0  0  0  0  0  0  0  0  0
   60.2401   26.5283   50.1503 H   0  0  0  0  0  0  0  0  0  0  0  0
   61.7547   26.5302   49.1845 H   0  0  0  0  0  0  0  0  0  0  0  0
   60.6876   27.9752   49.1845 H   0  0  0  0  0  0  0  0  0  0  0  0
   57.5716   25.6888   47.2843 H   0  0  0  0  0  0  0  0  0  0  0  0
   55.1480   27.5720   45.3000 H   0  0  0  0  0  0  0  0  0  0  0  0
   60.7366   29.8783   47.4968 H   0  0  0  0  0  0  0  0  0  0  0  0
   61.6596   31.1355   46.5670 H   0  0  0  0  0  0  0  0  0  0  0  0
   58.8262   29.9934   50.4309 H   0  0  0  0  0  0  0  0  0  0  0  0
   57.9244   30.1711   48.8875 H   0  0  0  0  0  0  0  0  0  0  0  0
   59.5731   29.4579   48.8875 H   0  0  0  0  0  0  0  0  0  0  0  0
   58.6050   32.3047   50.9993 H   0  0  0  0  0  0  0  0  0  0  0  0
   59.4991   34.6075   50.7684 H   0  0  0  0  0  0  0  0  0  0  0  0
   60.8887   35.2219   48.8070 H   0  0  0  0  0  0  0  0  0  0  0  0
   62.5636   34.1675   47.1112 H   0  0  0  0  0  0  0  0  0  0  0  0
   61.9083   32.8170   46.1247 H   0  0  0  0  0  0  0  0  0  0  0  0
   61.0826   34.4122   46.1247 H   0  0  0  0  0  0  0  0  0  0  0  0
  1  2  1  0
  2  3  1  0
  3  4  2  0
  4  5  1  0
  5  6  1  0
  5  7  2  0
  7  8  1  0
  8  9  2  0
  8 10  2  0
  8 11  1  0
  7 12  1  0
 12 13  1  0
 13 14  1  0
 14 15  1  0
 15 16  2  0
 16 17  1  0
 16 18  1  0
 18 19  2  0
 19 20  1  0
 20 21  2  0
 21 22  1  0
 12 23  2  0
 23  3  1  0
 21 15  1  0
  1 24  1  0
  1 25  1  0
  1 26  1  0
  4 27  1  0
  6 28  1  0
 14 29  1  0
 14 30  1  0
 17 31  1  0
 17 32  1  0
 17 33  1  0
 18 34  1  0
 19 35  1  0
 20 36  1  0
 22 37  1  0
 22 38  1  0
 22 39  1  0
M  CHG  1  11  -1
M  END
>  <UniqueID>  (31) 
26

>  <SMILES>  (31) 
COc1cc(O)c(S(=O)(=O)[O-])c(SCc2c(C)cccc2C)n1

>  <Energy>  (31) 
38.52414351038665

>  <Genealogy>  (31) 
COc1cc(O)c(S(=O)(=O)[O-])c(SCc2c(C)cccc2C)n1 (protonated)
COc1cc(O)c(S(=O)(=O)[O-])c(SCc2c(C)cccc2C)n1 (3D coordinates assigned)
COc1cc(O)c(S(=O)(=O)[O-])c(SCc2c(C)cccc2C)n1 (optimized conformer: 38.52414351038665 kcal/mol)

>  <smiles>  (31) 
COc1cc(O)c(S(=O)(=O)O)c(SCc2c(C)cccc2C)n1

>  <score_type>  (31) 
oracle

>  <origin>  (31) 
adg

>  <m_score__min__energy>  (31) 
-11.359999999999999

>  <m_primary>  (31) 
energy

$$$$
31:0
     RDKit          3D

 34 35  0  0  0  0  0  0  0  0999 V2000
   57.2816   33.6095   43.2639 H   0  0  0  0  0  0  0  0  0  0  0  0
   57.9230   33.3500   44.1190 C   0  0  0  0  0  0  0  0  0  0  0  0
   58.4020   32.1400   44.1800 N   0  0  0  0  0  0  0  0  0  0  0  0
   57.6770   30.9660   44.5680 C   0  0  0  0  0  0  0  0  0  0  0  0
   56.3930   30.7500   44.0490 C   0  0  0  0  0  0  0  0  0  0  0  0
   55.9503   31.4834   43.3590 H   0  0  0  0  0  0  0  0  0  0  0  0
   55.6730   29.6060   44.4050 C   0  0  0  0  0  0  0  0  0  0  0  0
   54.6591   29.4496   44.0082 H   0  0  0  0  0  0  0  0  0  0  0  0
   56.2400   28.6600   45.2650 C   0  0  0  0  0  0  0  0  0  0  0  0
   55.5230   27.5240   45.6190 O   0  0  0  0  0  0  0  0  0  0  0  0
   57.5320   28.8560   45.7630 C   0  0  0  0  0  0  0  0  0  0  0  0
   57.9813   28.1086   46.4334 H   0  0  0  0  0  0  0  0  0  0  0  0
   58.2540   30.0010   45.4100 C   0  0  0  0  0  0  0  0  0  0  0  0
   59.2752   30.1459   45.7924 H   0  0  0  0  0  0  0  0  0  0  0  0
   58.1950   34.4160   45.1500 C   0  0  0  0  0  0  0  0  0  0  0  0
   57.3095   35.0631   45.2346 H   0  0  0  0  0  0  0  0  0  0  0  0
   59.0754   34.9891   44.8236 H   0  0  0  0  0  0  0  0  0  0  0  0
   58.4980   33.8250   46.5040 C   0  0  0  0  0  0  0  0  0  0  0  0
   57.5420   33.3310   47.1640 O   0  0  0  0  0  0  0  0  0  0  0  0
   59.8660   33.8210   47.0880 C   0  0  0  0  0  0  0  0  0  0  0  0
   61.0140   33.7830   46.2740 C   0  0  0  0  0  0  0  0  0  0  0  0
   60.9059   33.7491   45.1799 H   0  0  0  0  0  0  0  0  0  0  0  0
   62.2890   33.7880   46.8440 C   0  0  0  0  0  0  0  0  0  0  0  0
   63.1759   33.7610   46.1939 H   0  0  0  0  0  0  0  0  0  0  0  0
   62.4500   33.8270   48.2330 C   0  0  0  0  0  0  0  0  0  0  0  0
   63.7510   33.8320   48.7550 O   0  0  0  0  0  0  0  0  0  0  0  0
   64.3890   32.6970   49.3330 C   0  0  0  0  0  0  0  0  0  0  0  0
   64.3470   32.7717   50.4297 H   0  0  0  0  0  0  0  0  0  0  0  0
   63.8734   31.7814   49.0078 H   0  0  0  0  0  0  0  0  0  0  0  0
   65.4392   32.6615   49.0078 H   0  0  0  0  0  0  0  0  0  0  0  0
   61.3080   33.8610   49.0530 C   0  0  0  0  0  0  0  0  0  0  0  0
   61.4205   33.8917   50.1468 H   0  0  0  0  0  0  0  0  0  0  0  0
   60.0300   33.8560   48.4850 C   0  0  0  0  0  0  0  0  0  0  0  0
   59.1443   33.8797   49.1369 H   0  0  0  0  0  0  0  0  0  0  0  0
  1  2  1  0
  2  3  2  0
  3  4  1  0
  4  5  2  0
  5  6  1  0
  5  7  1  0
  7  8  1  0
  7  9  2  0
  9 10  1  0
  9 11  1  0
 11 12  1  0
 11 13  2  0
 13 14  1  0
  2 15  1  0
 15 16  1  0
 15 17  1  0
 15 18  1  0
 18 19  2  0
 18 20  1  0
 20 21  2  0
 21 22  1  0
 21 23  1  0
 23 24  1  0
 23 25  2  0
 25 26  1  0
 26 27  1  0
 27 28  1  0
 27 29  1  0
 27 30  1  0
 25 31  1  0
 31 32  1  0
 31 33  2  0
 33 34  1  0
 13  4  1  0
 33 20  1  0
M  CHG  1  10  -1
M  END
>  <UniqueID>  (32) 
27

>  <SMILES>  (32) 
COc1ccc(C(=O)C/C=N\c2ccc([O-])cc2)cc1

>  <Energy>  (32) 
41.226165815211196

>  <Genealogy>  (32) 
COc1ccc(C(=O)CC=Nc2ccc([O-])cc2)cc1 (protonated)
COc1ccc(C(=O)C/C=N\c2ccc([O-])cc2)cc1 (cis-trans isomerization)
COc1ccc(C(=O)C/C=N\c2ccc([O-])cc2)cc1 (3D coordinates assigned)
COc1ccc(C(=O)C/C=N\c2ccc([O-])cc2)cc1 (optimized conformer: 41.226165815211196 kcal/mol)

>  <smiles>  (32) 
COc1ccc(C(=O)CC=Nc2ccc(O)cc2)cc1

>  <score_type>  (32) 
oracle

>  <origin>  (32) 
adg

>  <m_score__min__energy>  (32) 
-10.02

>  <m_primary>  (32) 
energy

$$$$
32:0
     RDKit          3D

 48 51  0  0  0  0  0  0  0  0999 V2000
   50.6540   31.7310   48.7930 C   0  0  0  0  0  0  0  0  0  0  0  0
   51.3870   32.5020   49.7380 O   0  0  0  0  0  0  0  0  0  0  0  0
   51.8380   32.0210   50.9770 C   0  0  0  0  0  0  0  0  0  0  0  0
   53.0070   31.2430   51.1010 C   0  0  0  0  0  0  0  0  0  0  0  0
   53.4200   30.7730   52.3590 C   0  0  0  0  0  0  0  0  0  0  0  0
   54.6920   29.9800   52.4910 C   0  0  0  0  0  0  0  0  0  0  0  0
   55.8220   30.8610   52.7820 N   0  0  0  0  0  0  0  0  0  0  0  0
   56.9910   30.8740   51.9470 C   0  0  0  0  0  0  0  0  0  0  0  0
   56.9870   30.2260   50.8650 O   0  0  0  0  0  0  0  0  0  0  0  0
   58.1970   31.6480   52.3290 C   0  0  0  0  0  0  0  0  0  0  0  0
   58.3600   32.1320   53.6370 C   0  0  0  0  0  0  0  0  0  0  0  0
   59.5020   32.8510   53.9880 C   0  0  0  0  0  0  0  0  0  0  0  0
   60.5030   33.0930   53.0450 C   0  0  0  0  0  0  0  0  0  0  0  0
   61.6120   33.7870   53.4110 N   0  0  0  0  0  0  0  0  0  0  0  0
   62.6210   34.0420   52.5390 C   0  0  0  0  0  0  0  0  0  0  0  0
   63.6310   34.6870   52.9250 O   0  0  0  0  0  0  0  0  0  0  0  0
   62.5400   33.5880   51.2230 C   0  0  0  0  0  0  0  0  0  0  0  0
   61.4100   32.8730   50.7910 C   0  0  0  0  0  0  0  0  0  0  0  0
   61.3770   32.3720   49.3630 C   0  0  0  0  0  0  0  0  0  0  0  0
   60.4040   33.1280   48.5770 N   0  0  0  0  0  0  0  0  0  0  0  0
   59.2940   32.6550   47.9890 C   0  0  0  0  0  0  0  0  0  0  0  0
   58.6460   33.7120   47.3930 C   0  0  0  0  0  0  0  0  0  0  0  0
   59.3390   34.8500   47.6140 N   0  0  0  0  0  0  0  0  0  0  0  0
   60.4030   34.4560   48.3440 C   0  0  0  0  0  0  0  0  0  0  0  0
   60.3690   32.6100   51.7200 C   0  0  0  0  0  0  0  0  0  0  0  0
   59.2080   31.8850   51.3780 C   0  0  0  0  0  0  0  0  0  0  0  0
   52.6750   31.1080   53.4990 C   0  0  0  0  0  0  0  0  0  0  0  0
   51.5160   31.8770   53.3810 C   0  0  0  0  0  0  0  0  0  0  0  0
   51.0970   32.3300   52.1270 C   0  0  0  0  0  0  0  0  0  0  0  0
   49.9400   33.0950   52.0240 O   0  0  0  0  0  0  0  0  0  0  0  0
   49.9906   31.0332   49.3248 H   0  0  0  0  0  0  0  0  0  0  0  0
   50.0515   32.4008   48.1618 H   0  0  0  0  0  0  0  0  0  0  0  0
   51.3533   31.1631   48.1618 H   0  0  0  0  0  0  0  0  0  0  0  0
   53.6001   31.0022   50.2064 H   0  0  0  0  0  0  0  0  0  0  0  0
   54.5810   29.2528   53.3089 H   0  0  0  0  0  0  0  0  0  0  0  0
   54.8846   29.4595   51.5413 H   0  0  0  0  0  0  0  0  0  0  0  0
   55.7540   31.5330   53.5790 H   0  0  0  0  0  0  0  0  0  0  0  0
   57.5811   31.9426   54.3903 H   0  0  0  0  0  0  0  0  0  0  0  0
   59.6151   33.2300   55.0144 H   0  0  0  0  0  0  0  0  0  0  0  0
   63.3627   33.7901   50.5213 H   0  0  0  0  0  0  0  0  0  0  0  0
   62.3746   32.4904   48.9148 H   0  0  0  0  0  0  0  0  0  0  0  0
   61.0852   31.3114   49.3650 H   0  0  0  0  0  0  0  0  0  0  0  0
   58.9611   31.6066   47.9845 H   0  0  0  0  0  0  0  0  0  0  0  0
   57.7074   33.6412   46.8238 H   0  0  0  0  0  0  0  0  0  0  0  0
   61.1824   35.1414   48.7083 H   0  0  0  0  0  0  0  0  0  0  0  0
   59.0910   31.4996   50.3544 H   0  0  0  0  0  0  0  0  0  0  0  0
   53.0053   30.7634   54.4900 H   0  0  0  0  0  0  0  0  0  0  0  0
   50.9305   32.1273   54.2780 H   0  0  0  0  0  0  0  0  0  0  0  0
  1  2  1  0
  2  3  1  0
  3  4  2  0
  4  5  1  0
  5  6  1  0
  6  7  1  0
  7  8  1  0
  8  9  2  0
  8 10  1  0
 10 11  2  0
 11 12  1  0
 12 13  2  0
 13 14  1  0
 14 15  1  0
 15 16  2  0
 15 17  1  0
 17 18  2  0
 18 19  1  0
 19 20  1  0
 20 21  1  0
 21 22  2  0
 22 23  1  0
 23 24  2  0
 18 25  1  0
 25 26  2  0
  5 27  2  0
 27 28  1  0
 28 29  2  0
 29 30  1  0
 29  3  1  0
 26 10  1  0
 25 13  1  0
 24 20  1  0
  1 31  1  0
  1 32  1  0
  1 33  1  0
  4 34  1  0
  6 35  1  0
  6 36  1  0
  7 37  1  0
 11 38  1  0
 12 39  1  0
 17 40  1  0
 19 41  1  0
 19 42  1  0
 21 43  1  0
 22 44  1  0
 24 45  1  0
 26 46  1  0
 27 47  1  0
 28 48  1  0
M  CHG  2  14  -1  30  -1
M  END
>  <UniqueID>  (33) 
28

>  <SMILES>  (33) 
COc1cc(CNC(=O)c2ccc3[n-]c(=O)cc(Cn4ccnc4)c3c2)ccc1[O-]

>  <Energy>  (33) 
85.97946621112614

>  <Genealogy>  (33) 
COc1cc(CNC(=O)c2ccc3[n-]c(=O)cc(Cn4ccnc4)c3c2)ccc1[O-] (protonated)
COc1cc(CNC(=O)c2ccc3[n-]c(=O)cc(Cn4ccnc4)c3c2)ccc1[O-] (3D coordinates assigned)
COc1cc(CNC(=O)c2ccc3[n-]c(=O)cc(Cn4ccnc4)c3c2)ccc1[O-] (optimized conformer: 85.97946621112614 kcal/mol)

>  <smiles>  (33) 
COc1cc(CNC(=O)c2ccc3[nH]c(=O)cc(Cn4ccnc4)c3c2)ccc1O

>  <score_type>  (33) 
oracle

>  <origin>  (33) 
adg

>  <m_score__min__energy>  (33) 
-13.699999999999999

>  <m_primary>  (33) 
energy

$$$$
33:0
     RDKit          3D

 43 45  0  0  0  0  0  0  0  0999 V2000
   57.4860   30.0190   52.6400 C   0  0  0  0  0  0  0  0  0  0  0  0
   57.5710   30.1010   51.2210 O   0  0  0  0  0  0  0  0  0  0  0  0
   58.6430   30.6760   50.5220 C   0  0  0  0  0  0  0  0  0  0  0  0
   59.4790   29.9160   49.6820 C   0  0  0  0  0  0  0  0  0  0  0  0
   60.5140   30.5290   48.9740 C   0  0  0  0  0  0  0  0  0  0  0  0
   60.7190   31.9100   49.0780 C   0  0  0  0  0  0  0  0  0  0  0  0
   61.7420   32.5640   48.2420 C   0  0  0  0  0  0  0  0  0  0  0  0
   63.0350   32.1850   48.2300 N   0  0  0  0  0  0  0  0  0  0  0  0
   63.6340   32.9730   47.3170 C   0  0  0  0  0  0  0  0  0  0  0  0
   62.6880   33.8160   46.7720 C   0  0  0  0  0  0  0  0  0  0  0  0
   61.5020   33.5560   47.3530 N   0  0  0  0  0  0  0  0  0  0  0  0
   59.9800   34.2570   46.8900 S   0  0  0  0  0  0  0  0  0  0  0  0
   59.2570   34.7150   48.1250 O   0  0  0  0  0  0  0  0  0  0  0  0
   60.2190   35.4430   45.9970 O   0  0  0  0  0  0  0  0  0  0  0  0
   59.0110   33.0810   46.0040 C   0  0  0  0  0  0  0  0  0  0  0  0
   58.9280   31.7630   46.4660 C   0  0  0  0  0  0  0  0  0  0  0  0
   58.0740   30.8490   45.8410 C   0  0  0  0  0  0  0  0  0  0  0  0
   57.2950   31.2420   44.7370 C   0  0  0  0  0  0  0  0  0  0  0  0
   56.3870   30.3160   44.1130 N   0  0  0  0  0  0  0  0  0  0  0  0
   56.4580   30.0820   42.8880 O   0  0  0  0  0  0  0  0  0  0  0  0
   55.4370   29.6570   44.8590 O   0  0  0  0  0  0  0  0  0  0  0  0
   57.4090   32.5590   44.2590 C   0  0  0  0  0  0  0  0  0  0  0  0
   58.2640   33.4690   44.8850 C   0  0  0  0  0  0  0  0  0  0  0  0
   59.9200   32.6640   49.9470 C   0  0  0  0  0  0  0  0  0  0  0  0
   58.8720   32.0540   50.6660 C   0  0  0  0  0  0  0  0  0  0  0  0
   58.0300   32.7840   51.5180 O   0  0  0  0  0  0  0  0  0  0  0  0
   58.4710   33.8120   52.4000 C   0  0  0  0  0  0  0  0  0  0  0  0
   58.2079   30.7155   53.0914 H   0  0  0  0  0  0  0  0  0  0  0  0
   56.4686   30.2855   52.9624 H   0  0  0  0  0  0  0  0  0  0  0  0
   57.7158   28.9927   52.9624 H   0  0  0  0  0  0  0  0  0  0  0  0
   59.3156   28.8327   49.5831 H   0  0  0  0  0  0  0  0  0  0  0  0
   61.1713   29.9245   48.3317 H   0  0  0  0  0  0  0  0  0  0  0  0
   63.4830   31.4350   48.8020 H   0  0  0  0  0  0  0  0  0  0  0  0
   64.7008   32.9485   47.0501 H   0  0  0  0  0  0  0  0  0  0  0  0
   62.8716   34.5723   45.9946 H   0  0  0  0  0  0  0  0  0  0  0  0
   59.5372   31.4444   47.3247 H   0  0  0  0  0  0  0  0  0  0  0  0
   58.0108   29.8164   46.2147 H   0  0  0  0  0  0  0  0  0  0  0  0
   56.8204   32.8754   43.3853 H   0  0  0  0  0  0  0  0  0  0  0  0
   58.3509   34.4947   44.4973 H   0  0  0  0  0  0  0  0  0  0  0  0
   60.1117   33.7402   50.0693 H   0  0  0  0  0  0  0  0  0  0  0  0
   58.3314   33.4865   53.4414 H   0  0  0  0  0  0  0  0  0  0  0  0
   59.5365   34.0176   52.2198 H   0  0  0  0  0  0  0  0  0  0  0  0
   57.8857   34.7258   52.2198 H   0  0  0  0  0  0  0  0  0  0  0  0
  1  2  1  0
  2  3  1  0
  3  4  2  0
  4  5  1  0
  5  6  2  0
  6  7  1  0
  7  8  2  0
  8  9  1  0
  9 10  2  0
 10 11  1  0
 11 12  1  0
 12 13  2  0
 12 14  2  0
 12 15  1  0
 15 16  2  0
 16 17  1  0
 17 18  2  0
 18 19  1  0
 19 20  2  0
 19 21  1  0
 18 22  1  0
 22 23  2  0
  6 24  1  0
 24 25  2  0
 25 26  1  0
 26 27  1  0
 25  3  1  0
 11  7  1  0
 23 15  1  0
  1 28  1  0
  1 29  1  0
  1 30  1  0
  4 31  1  0
  5 32  1  0
  8 33  1  0
  9 34  1  0
 10 35  1  0
 16 36  1  0
 17 37  1  0
 22 38  1  0
 23 39  1  0
 24 40  1  0
 27 41  1  0
 27 42  1  0
 27 43  1  0
M  CHG  3   8   1  19   1  21  -1
M  END
>  <UniqueID>  (34) 
29

>  <SMILES>  (34) 
COc1ccc(-c2[nH+]ccn2S(=O)(=O)c2ccc([N+](=O)[O-])cc2)cc1OC

>  <Energy>  (34) 
79.02910144263097

>  <Genealogy>  (34) 
COc1ccc(-c2[nH+]ccn2S(=O)(=O)c2ccc([N+](=O)[O-])cc2)cc1OC (protonated)
COc1ccc(-c2[nH+]ccn2S(=O)(=O)c2ccc([N+](=O)[O-])cc2)cc1OC (3D coordinates assigned)
COc1ccc(-c2[nH+]ccn2S(=O)(=O)c2ccc([N+](=O)[O-])cc2)cc1OC (optimized conformer: 79.02910144263097 kcal/mol)

>  <smiles>  (34) 
COc1ccc(-c2nccn2S(=O)(=O)c2ccc([N+](=O)[O-])cc2)cc1OC

>  <score_type>  (34) 
oracle

>  <origin>  (34) 
adg

>  <m_score__min__energy>  (34) 
-7.2000000000000002

>  <m_primary>  (34) 
energy

$$$$
34:0
     RDKit          3D

 49 52  0  0  0  0  0  0  0  0999 V2000
   66.0254   30.7769   50.9492 H   0  0  0  0  0  0  0  0  0  0  0  0
   65.2130   31.3570   50.4870 C   0  0  0  0  0  0  0  0  0  0  0  0
   63.9230   30.9600   50.6390 N   0  0  0  0  0  0  0  0  0  0  0  0
   62.8850   31.6350   50.0700 C   0  0  0  0  0  0  0  0  0  0  0  0
   61.5620   31.2330   50.3090 O   0  0  0  0  0  0  0  0  0  0  0  0
   60.7160   30.6270   49.3690 C   0  0  0  0  0  0  0  0  0  0  0  0
   61.1050   30.4270   48.0340 C   0  0  0  0  0  0  0  0  0  0  0  0
   62.1073   30.7363   47.7027 H   0  0  0  0  0  0  0  0  0  0  0  0
   60.2220   29.8360   47.1250 C   0  0  0  0  0  0  0  0  0  0  0  0
   60.5273   29.6945   46.0777 H   0  0  0  0  0  0  0  0  0  0  0  0
   58.9460   29.4220   47.5440 C   0  0  0  0  0  0  0  0  0  0  0  0
   58.0000   28.8690   46.6160 N   0  0  0  0  0  0  0  0  0  0  0  0
   57.5240   29.4250   45.5360 C   0  0  0  0  0  0  0  0  0  0  0  0
   56.2020   29.2650   45.2550 N   0  0  0  0  0  0  0  0  0  0  0  0
   55.6240   29.7980   44.1460 C   0  0  0  0  0  0  0  0  0  0  0  0
   54.5496   29.6509   43.9615 H   0  0  0  0  0  0  0  0  0  0  0  0
   56.3930   30.5320   43.2410 C   0  0  0  0  0  0  0  0  0  0  0  0
   55.9299   30.9729   42.3459 H   0  0  0  0  0  0  0  0  0  0  0  0
   57.7550   30.6990   43.4860 C   0  0  0  0  0  0  0  0  0  0  0  0
   58.3749   31.2686   42.7780 H   0  0  0  0  0  0  0  0  0  0  0  0
   58.3330   30.1440   44.6290 C   0  0  0  0  0  0  0  0  0  0  0  0
   59.4092   30.2657   44.8215 H   0  0  0  0  0  0  0  0  0  0  0  0
   58.5440   29.6700   48.8610 C   0  0  0  0  0  0  0  0  0  0  0  0
   57.5278   29.3986   49.1831 H   0  0  0  0  0  0  0  0  0  0  0  0
   59.4270   30.2610   49.7700 C   0  0  0  0  0  0  0  0  0  0  0  0
   59.1059   30.4392   50.8069 H   0  0  0  0  0  0  0  0  0  0  0  0
   63.1410   32.7850   49.2960 C   0  0  0  0  0  0  0  0  0  0  0  0
   62.0450   33.5400   48.6510 C   0  0  0  0  0  0  0  0  0  0  0  0
   62.2600   34.1340   47.5600 O   0  0  0  0  0  0  0  0  0  0  0  0
   60.7380   33.5770   49.2410 N   0  0  0  0  0  0  0  0  0  0  0  0
   60.4870   32.8770   49.9750 H   0  0  0  0  0  0  0  0  0  0  0  0
   59.7460   34.5870   48.8790 C   0  0  0  0  0  0  0  0  0  0  0  0
   58.9446   34.5985   49.6324 H   0  0  0  0  0  0  0  0  0  0  0  0
   60.2301   35.5739   48.8384 H   0  0  0  0  0  0  0  0  0  0  0  0
   59.1610   34.2650   47.5330 C   0  0  0  0  0  0  0  0  0  0  0  0
   59.6150   34.9260   46.3800 C   0  0  0  0  0  0  0  0  0  0  0  0
   60.4271   35.6641   46.4553 H   0  0  0  0  0  0  0  0  0  0  0  0
   59.0380   34.6490   45.1360 C   0  0  0  0  0  0  0  0  0  0  0  0
   59.4007   35.1652   44.2349 H   0  0  0  0  0  0  0  0  0  0  0  0
   58.0000   33.7160   45.0370 C   0  0  0  0  0  0  0  0  0  0  0  0
   57.4410   33.4500   43.8310 F   0  0  0  0  0  0  0  0  0  0  0  0
   57.5380   33.0620   46.1820 C   0  0  0  0  0  0  0  0  0  0  0  0
   56.7215   32.3291   46.1035 H   0  0  0  0  0  0  0  0  0  0  0  0
   58.1110   33.3370   47.4270 C   0  0  0  0  0  0  0  0  0  0  0  0
   57.7388   32.8253   48.3268 H   0  0  0  0  0  0  0  0  0  0  0  0
   64.4680   33.2190   49.1550 C   0  0  0  0  0  0  0  0  0  0  0  0
   64.6892   34.1287   48.5776 H   0  0  0  0  0  0  0  0  0  0  0  0
   65.5070   32.5000   49.7450 C   0  0  0  0  0  0  0  0  0  0  0  0
   66.5490   32.8317   49.6260 H   0  0  0  0  0  0  0  0  0  0  0  0
  1  2  1  0
  2  3  2  0
  3  4  1  0
  4  5  1  0
  5  6  1  0
  6  7  2  0
  7  8  1  0
  7  9  1  0
  9 10  1  0
  9 11  2  0
 11 12  1  0
 12 13  2  0
 13 14  1  0
 14 15  1  0
 15 16  1  0
 15 17  2  0
 17 18  1  0
 17 19  1  0
 19 20  1  0
 19 21  2  0
 21 22  1  0
 11 23  1  0
 23 24  1  0
 23 25  2  0
 25 26  1  0
  4 27  2  0
 27 28  1  0
 28 29  2  0
 28 30  1  0
 30 31  1  0
 30 32  1  0
 32 33  1  0
 32 34  1  0
 32 35  1  0
 35 36  2  0
 36 37  1  0
 36 38  1  0
 38 39  1  0
 38 40  2  0
 40 41  1  0
 40 42  1  0
 42 43  1  0
 42 44  2  0
 44 45  1  0
 27 46  1  0
 46 47  1  0
 46 48  2  0
 48 49  1  0
 48  2  1  0
 25  6  1  0
 44 35  1  0
 21 13  1  0
M  CHG  1  14  -1
M  END
>  <UniqueID>  (35) 
30

>  <SMILES>  (35) 
O=C(NCc1ccc(F)cc1)c1cccnc1Oc1ccc(/N=c2\cccc[n-]2)cc1

>  <Energy>  (35) 
69.49913126787183

>  <Genealogy>  (35) 
O=C(NCc1ccc(F)cc1)c1cccnc1Oc1ccc(N=c2cccc[n-]2)cc1 (protonated)
O=C(NCc1ccc(F)cc1)c1cccnc1Oc1ccc(/N=c2\cccc[n-]2)cc1 (cis-trans isomerization)
O=C(NCc1ccc(F)cc1)c1cccnc1Oc1ccc(/N=c2\cccc[n-]2)cc1 (3D coordinates assigned)
O=C(NCc1ccc(F)cc1)c1cccnc1Oc1ccc(/N=c2\cccc[n-]2)cc1 (optimized conformer: 69.49913126787183 kcal/mol)

>  <smiles>  (35) 
O=C(NCc1ccc(F)cc1)c1cccnc1Oc1ccc(N=c2cccc[nH]2)cc1

>  <score_type>  (35) 
oracle

>  <origin>  (35) 
adg

>  <m_score__min__energy>  (35) 
-9.7699999999999996

>  <m_primary>  (35) 
energy

$$$$
35:0
     RDKit          3D

 48 50  0  0  0  0  0  0  0  0999 V2000
   59.6710   35.6920   45.7660 C   0  0  0  0  0  0  0  0  0  0  0  0
   59.9760   34.4400   45.1600 O   0  0  0  0  0  0  0  0  0  0  0  0
   59.1200   33.3280   45.1590 C   0  0  0  0  0  0  0  0  0  0  0  0
   58.1480   33.1330   44.1570 C   0  0  0  0  0  0  0  0  0  0  0  0
   57.3050   32.0190   44.1980 C   0  0  0  0  0  0  0  0  0  0  0  0
   57.4220   31.0900   45.2330 C   0  0  0  0  0  0  0  0  0  0  0  0
   58.3800   31.2730   46.2320 C   0  0  0  0  0  0  0  0  0  0  0  0
   59.2330   32.3850   46.1970 C   0  0  0  0  0  0  0  0  0  0  0  0
   60.2270   32.5460   47.2190 N   0  0  0  0  0  0  0  0  0  0  0  0
   61.4870   31.8020   47.1440 C   0  0  0  0  0  0  0  0  0  0  0  0
   61.2380   30.3550   47.4270 C   0  0  0  0  0  0  0  0  0  0  0  0
   61.2930   29.9280   48.6130 O   0  0  0  0  0  0  0  0  0  0  0  0
   60.9640   29.4650   46.3390 N   0  0  0  0  0  0  0  0  0  0  0  0
   59.9170   28.4880   46.2950 C   0  0  0  0  0  0  0  0  0  0  0  0
   59.2350   28.1820   45.1020 C   0  0  0  0  0  0  0  0  0  0  0  0
   58.1770   27.2680   45.1100 C   0  0  0  0  0  0  0  0  0  0  0  0
   57.7790   26.6600   46.3080 C   0  0  0  0  0  0  0  0  0  0  0  0
   56.4340   25.5260   46.3030 S   0  0  0  0  0  0  0  0  0  0  0  0
   54.9670   26.3820   45.9840 N   0  0  0  0  0  0  0  0  0  0  0  0
   56.6580   24.4900   45.2360 O   0  0  0  0  0  0  0  0  0  0  0  0
   56.3270   24.8370   47.6350 O   0  0  0  0  0  0  0  0  0  0  0  0
   58.4440   26.9780   47.4990 C   0  0  0  0  0  0  0  0  0  0  0  0
   59.5060   27.8870   47.4910 C   0  0  0  0  0  0  0  0  0  0  0  0
   59.8600   33.4930   48.6270 S   0  0  0  0  0  0  0  0  0  0  0  0
   58.9480   34.6300   48.2580 O   0  0  0  0  0  0  0  0  0  0  0  0
   61.1280   34.0650   49.1950 O   0  0  0  0  0  0  0  0  0  0  0  0
   59.0700   32.4890   49.8280 C   0  0  0  0  0  0  0  0  0  0  0  0
   58.7610   31.1440   49.6850 C   0  0  0  0  0  0  0  0  0  0  0  0
   58.1820   30.5940   50.8340 C   0  0  0  0  0  0  0  0  0  0  0  0
   58.0460   31.4990   51.8800 C   0  0  0  0  0  0  0  0  0  0  0  0
   58.6460   32.9890   51.3760 S   0  0  0  0  0  0  0  0  0  0  0  0
   59.6969   35.5856   46.8605 H   0  0  0  0  0  0  0  0  0  0  0  0
   60.4129   36.4414   45.4528 H   0  0  0  0  0  0  0  0  0  0  0  0
   58.6676   36.0162   45.4528 H   0  0  0  0  0  0  0  0  0  0  0  0
   58.0524   33.8615   43.3384 H   0  0  0  0  0  0  0  0  0  0  0  0
   56.5480   31.8742   43.4132 H   0  0  0  0  0  0  0  0  0  0  0  0
   56.7588   30.2129   45.2617 H   0  0  0  0  0  0  0  0  0  0  0  0
   58.4658   30.5420   47.0495 H   0  0  0  0  0  0  0  0  0  0  0  0
   61.9148   31.9087   46.1362 H   0  0  0  0  0  0  0  0  0  0  0  0
   62.1902   32.2022   47.8892 H   0  0  0  0  0  0  0  0  0  0  0  0
   59.5357   28.6638   44.1600 H   0  0  0  0  0  0  0  0  0  0  0  0
   57.6552   27.0254   44.1725 H   0  0  0  0  0  0  0  0  0  0  0  0
   55.1500   27.3910   46.1830 H   0  0  0  0  0  0  0  0  0  0  0  0
   58.1295   26.5109   48.4439 H   0  0  0  0  0  0  0  0  0  0  0  0
   60.0224   28.1318   48.4309 H   0  0  0  0  0  0  0  0  0  0  0  0
   58.9511   30.5707   48.7657 H   0  0  0  0  0  0  0  0  0  0  0  0
   57.8641   29.5432   50.9030 H   0  0  0  0  0  0  0  0  0  0  0  0
   57.6187   31.2790   52.8695 H   0  0  0  0  0  0  0  0  0  0  0  0
  1  2  1  0
  2  3  1  0
  3  4  2  0
  4  5  1  0
  5  6  2  0
  6  7  1  0
  7  8  2  0
  8  9  1  0
  9 10  1  0
 10 11  1  0
 11 12  2  0
 11 13  1  0
 13 14  1  0
 14 15  2  0
 15 16  1  0
 16 17  2  0
 17 18  1  0
 18 19  1  0
 18 20  2  0
 18 21  2  0
 17 22  1  0
 22 23  2  0
  9 24  1  0
 24 25  2  0
 24 26  2  0
 24 27  1  0
 27 28  2  0
 28 29  1  0
 29 30  2  0
 30 31  1  0
  8  3  1  0
 23 14  1  0
 31 27  1  0
  1 32  1  0
  1 33  1  0
  1 34  1  0
  4 35  1  0
  5 36  1  0
  6 37  1  0
  7 38  1  0
 10 39  1  0
 10 40  1  0
 15 41  1  0
 16 42  1  0
 19 43  1  0
 22 44  1  0
 23 45  1  0
 28 46  1  0
 29 47  1  0
 30 48  1  0
M  CHG  2  13  -1  19  -1
M  END
>  <UniqueID>  (36) 
31

>  <SMILES>  (36) 
COc1ccccc1N(CC(=O)[N-]c1ccc(S([NH-])(=O)=O)cc1)S(=O)(=O)c1cccs1

>  <Energy>  (36) 
79.91989575074632

>  <Genealogy>  (36) 
COc1ccccc1N(CC(=O)[N-]c1ccc(S([NH-])(=O)=O)cc1)S(=O)(=O)c1cccs1 (protonated)
COc1ccccc1N(CC(=O)[N-]c1ccc(S([NH-])(=O)=O)cc1)S(=O)(=O)c1cccs1 (3D coordinates assigned)
COc1ccccc1N(CC(=O)[N-]c1ccc(S([NH-])(=O)=O)cc1)S(=O)(=O)c1cccs1 (optimized conformer: 79.91989575074632 kcal/mol)

>  <smiles>  (36) 
COc1ccccc1N(CC(=O)Nc1ccc(S(N)(=O)=O)cc1)S(=O)(=O)c1cccs1

>  <score_type>  (36) 
oracle

>  <origin>  (36) 
adg

>  <m_score__min__energy>  (36) 
-12.199999999999999

>  <m_primary>  (36) 
energy

$$$$
36:0
     RDKit          3D

 32 33  0  0  0  0  0  0  0  0999 V2000
   59.8060   33.8790   50.6140 C   0  0  0  0  0  0  0  0  0  0  0  0
   60.6550   33.7930   49.3570 C   0  0  0  0  0  0  0  0  0  0  0  0
   59.9900   34.0990   48.1640 C   0  0  0  0  0  0  0  0  0  0  0  0
   60.4570   34.1210   46.8570 C   0  0  0  0  0  0  0  0  0  0  0  0
   59.2620   34.5840   45.5910 S   0  0  0  0  0  0  0  0  0  0  0  0
   57.9230   33.5740   46.3050 C   0  0  0  0  0  0  0  0  0  0  0  0
   57.9180   32.2140   45.6590 C   0  0  0  0  0  0  0  0  0  0  0  0
   57.4420   32.0790   44.3430 C   0  0  0  0  0  0  0  0  0  0  0  0
   57.4010   30.8240   43.7300 C   0  0  0  0  0  0  0  0  0  0  0  0
   57.8250   29.6900   44.4250 C   0  0  0  0  0  0  0  0  0  0  0  0
   57.7720   28.1150   43.6530 Cl  0  0  0  0  0  0  0  0  0  0  0  0
   58.2860   29.8080   45.7400 C   0  0  0  0  0  0  0  0  0  0  0  0
   58.3310   31.0620   46.3630 C   0  0  0  0  0  0  0  0  0  0  0  0
   58.8980   31.1460   48.0280 Cl  0  0  0  0  0  0  0  0  0  0  0  0
   61.7310   33.8120   46.4070 C   0  0  0  0  0  0  0  0  0  0  0  0
   62.8660   33.4340   47.1200 C   0  0  0  0  0  0  0  0  0  0  0  0
   64.0210   33.1910   46.3650 O   0  0  0  0  0  0  0  0  0  0  0  0
   62.9960   33.2670   48.5050 C   0  0  0  0  0  0  0  0  0  0  0  0
   64.1470   32.9270   48.8980 O   0  0  0  0  0  0  0  0  0  0  0  0
   62.0150   33.4280   49.5050 C   0  0  0  0  0  0  0  0  0  0  0  0
   62.5940   33.1210   51.1630 Cl  0  0  0  0  0  0  0  0  0  0  0  0
   60.4548   33.8133   51.4999 H   0  0  0  0  0  0  0  0  0  0  0  0
   59.2648   34.8366   50.6261 H   0  0  0  0  0  0  0  0  0  0  0  0
   59.0837   33.0494   50.6261 H   0  0  0  0  0  0  0  0  0  0  0  0
   58.9288   34.3641   48.2807 H   0  0  0  0  0  0  0  0  0  0  0  0
   58.0842   33.4646   47.3876 H   0  0  0  0  0  0  0  0  0  0  0  0
   56.9567   34.0679   46.1251 H   0  0  0  0  0  0  0  0  0  0  0  0
   57.0995   32.9674   43.7922 H   0  0  0  0  0  0  0  0  0  0  0  0
   57.0338   30.7294   42.6974 H   0  0  0  0  0  0  0  0  0  0  0  0
   58.6147   28.9124   46.2875 H   0  0  0  0  0  0  0  0  0  0  0  0
   61.8667   33.8752   45.3172 H   0  0  0  0  0  0  0  0  0  0  0  0
   64.8780   32.8320   46.7710 H   0  0  0  0  0  0  0  0  0  0  0  0
  1  2  1  0
  2  3  1  0
  3  4  2  0
  4  5  1  0
  5  6  1  0
  6  7  1  0
  7  8  2  0
  8  9  1  0
  9 10  2  0
 10 11  1  0
 10 12  1  0
 12 13  2  0
 13 14  1  0
  4 15  1  0
 15 16  2  0
 16 17  1  0
 16 18  1  0
 18 19  2  0
 18 20  1  0
 20 21  1  0
 20  2  2  0
 13  7  1  0
  1 22  1  0
  1 23  1  0
  1 24  1  0
  3 25  1  0
  6 26  1  0
  6 27  1  0
  8 28  1  0
  9 29  1  0
 12 30  1  0
 15 31  1  0
 17 32  1  0
M  END
>  <UniqueID>  (37) 
32

>  <SMILES>  (37) 
Cc1cc(SCc2ccc(Cl)cc2Cl)cc(O)c(=O)c1Cl

>  <Energy>  (37) 
56.46893578938616

>  <Genealogy>  (37) 
Cc1cc(SCc2ccc(Cl)cc2Cl)cc(O)c(=O)c1Cl (3D coordinates assigned)
Cc1cc(SCc2ccc(Cl)cc2Cl)cc(O)c(=O)c1Cl (optimized conformer: 56.46893578938616 kcal/mol)

>  <smiles>  (37) 
Cc1cc(SCc2ccc(Cl)cc2Cl)cc(O)c(=O)c1Cl

>  <score_type>  (37) 
oracle

>  <origin>  (37) 
adg

>  <m_score__min__energy>  (37) 
-8.9100000000000001

>  <m_primary>  (37) 
energy

$$$$
37:0
     RDKit          3D

 32 33  0  0  0  0  0  0  0  0999 V2000
   61.4912   28.8650   47.0901 H   0  0  0  0  0  0  0  0  0  0  0  0
   60.7650   29.6890   47.0290 C   0  0  0  0  0  0  0  0  0  0  0  0
   61.1710   30.9040   47.4240 C   0  0  0  0  0  0  0  0  0  0  0  0
   62.8650   31.4500   47.1460 S   0  0  0  0  0  0  0  0  0  0  0  0
   62.4000   33.0350   47.8490 C   0  0  0  0  0  0  0  0  0  0  0  0
   63.1940   34.0110   47.8910 O   0  0  0  0  0  0  0  0  0  0  0  0
   61.0750   33.1290   48.3510 N   0  0  0  0  0  0  0  0  0  0  0  0
   60.6760   33.9700   48.8240 H   0  0  0  0  0  0  0  0  0  0  0  0
   60.3800   31.9160   48.1370 C   0  0  0  0  0  0  0  0  0  0  0  0
   59.2160   31.7330   48.5830 O   0  0  0  0  0  0  0  0  0  0  0  0
   59.4160   29.3740   46.5180 C   0  0  0  0  0  0  0  0  0  0  0  0
   58.8130   28.1380   46.7910 C   0  0  0  0  0  0  0  0  0  0  0  0
   59.3619   27.3775   47.3657 H   0  0  0  0  0  0  0  0  0  0  0  0
   57.5110   27.8640   46.3350 C   0  0  0  0  0  0  0  0  0  0  0  0
   56.8800   26.6310   46.5660 O   0  0  0  0  0  0  0  0  0  0  0  0
   56.7350   25.6050   45.5880 C   0  0  0  0  0  0  0  0  0  0  0  0
   56.5981   24.6361   46.0905 H   0  0  0  0  0  0  0  0  0  0  0  0
   55.8582   25.8191   44.9592 H   0  0  0  0  0  0  0  0  0  0  0  0
   57.6368   25.5677   44.9592 H   0  0  0  0  0  0  0  0  0  0  0  0
   56.8090   28.8500   45.6290 C   0  0  0  0  0  0  0  0  0  0  0  0
   55.5220   28.5860   45.1750 O   0  0  0  0  0  0  0  0  0  0  0  0
   57.3860   30.1040   45.3820 C   0  0  0  0  0  0  0  0  0  0  0  0
   56.6280   31.0560   44.6780 O   0  0  0  0  0  0  0  0  0  0  0  0
   57.0480   32.3830   44.3580 C   0  0  0  0  0  0  0  0  0  0  0  0
   58.0302   32.3417   43.8645 H   0  0  0  0  0  0  0  0  0  0  0  0
   56.3032   32.8378   43.6883 H   0  0  0  0  0  0  0  0  0  0  0  0
   57.1570   33.2340   45.6210 C   0  0  0  0  0  0  0  0  0  0  0  0
   56.3254   33.9535   45.6478 H   0  0  0  0  0  0  0  0  0  0  0  0
   57.1125   32.5774   46.5024 H   0  0  0  0  0  0  0  0  0  0  0  0
   58.8380   34.1970   45.6320 Br  0  0  0  0  0  0  0  0  0  0  0  0
   58.6940   30.3610   45.8370 C   0  0  0  0  0  0  0  0  0  0  0  0
   59.1515   31.3448   45.6558 H   0  0  0  0  0  0  0  0  0  0  0  0
  1  2  1  0
  2  3  2  0
  3  4  1  0
  4  5  1  0
  5  6  2  0
  5  7  1  0
  7  8  1  0
  7  9  1  0
  9 10  2  0
  2 11  1  0
 11 12  2  0
 12 13  1  0
 12 14  1  0
 14 15  1  0
 15 16  1  0
 16 17  1  0
 16 18  1  0
 16 19  1  0
 14 20  2  0
 20 21  1  0
 20 22  1  0
 22 23  1  0
 23 24  1  0
 24 25  1  0
 24 26  1  0
 24 27  1  0
 27 28  1  0
 27 29  1  0
 27 30  1  0
 22 31  2  0
 31 32  1  0
  9  3  1  0
 31 11  1  0
M  CHG  1  21  -1
M  END
>  <UniqueID>  (38) 
33

>  <SMILES>  (38) 
COc1cc(/C=C2/SC(=O)NC2=O)cc(OCCBr)c1[O-]

>  <Energy>  (38) 
55.93169331538182

>  <Genealogy>  (38) 
COc1cc(C=C2SC(=O)NC2=O)cc(OCCBr)c1[O-] (protonated)
COc1cc(/C=C2/SC(=O)NC2=O)cc(OCCBr)c1[O-] (cis-trans isomerization)
COc1cc(/C=C2/SC(=O)NC2=O)cc(OCCBr)c1[O-] (3D coordinates assigned)
COc1cc(/C=C2/SC(=O)NC2=O)cc(OCCBr)c1[O-] (nonaromatic ring conformer: 55.93169331538182 kcal/mol)

>  <smiles>  (38) 
COc1cc(C=C2SC(=O)NC2=O)cc(OCCBr)c1O

>  <score_type>  (38) 
oracle

>  <origin>  (38) 
adg

>  <m_score__min__energy>  (38) 
-10.23

>  <m_primary>  (38) 
energy

$$$$
38:0
     RDKit          3D

 49 50  0  0  0  0  0  0  0  0999 V2000
   57.5580   34.1830   46.7670 N   0  0  0  0  0  0  0  0  0  0  0  0
   58.6840   33.8940   45.4890 S   0  0  0  0  0  0  0  0  0  0  0  0
   58.9340   35.1710   44.7360 O   0  0  0  0  0  0  0  0  0  0  0  0
   59.9790   33.4090   46.0790 O   0  0  0  0  0  0  0  0  0  0  0  0
   58.0200   32.6900   44.3910 C   0  0  0  0  0  0  0  0  0  0  0  0
   58.1400   32.8770   43.0090 C   0  0  0  0  0  0  0  0  0  0  0  0
   57.6210   31.9300   42.1240 C   0  0  0  0  0  0  0  0  0  0  0  0
   56.9830   30.7880   42.6130 C   0  0  0  0  0  0  0  0  0  0  0  0
   56.8680   30.5780   43.9990 C   0  0  0  0  0  0  0  0  0  0  0  0
   56.1910   29.3690   44.5270 C   0  0  0  0  0  0  0  0  0  0  0  0
   54.9320   29.3240   44.5490 O   0  0  0  0  0  0  0  0  0  0  0  0
   56.9260   28.2200   44.9700 N   0  0  0  0  0  0  0  0  0  0  0  0
   57.9020   28.1990   46.0220 C   0  0  0  0  0  0  0  0  0  0  0  0
   58.0470   27.0370   46.7880 C   0  0  0  0  0  0  0  0  0  0  0  0
   58.9750   26.9900   47.8330 C   0  0  0  0  0  0  0  0  0  0  0  0
   59.7660   28.1110   48.1280 C   0  0  0  0  0  0  0  0  0  0  0  0
   60.7300   28.0740   49.2810 C   0  0  0  0  0  0  0  0  0  0  0  0
   60.1010   28.6920   50.4920 C   0  0  0  0  0  0  0  0  0  0  0  0
   60.0650   28.0430   51.5720 O   0  0  0  0  0  0  0  0  0  0  0  0
   59.5060   29.9950   50.4050 N   0  0  0  0  0  0  0  0  0  0  0  0
   58.7680   30.5950   51.5140 C   0  0  0  0  0  0  0  0  0  0  0  0
   58.7220   32.1190   51.3620 C   0  0  0  0  0  0  0  0  0  0  0  0
   59.6510   32.5630   50.3240 N   0  0  0  0  0  0  0  0  0  0  0  0
   59.3370   32.9910   49.1330 C   0  0  0  0  0  0  0  0  0  0  0  0
   58.6940   32.0950   48.2250 N   0  0  0  0  0  0  0  0  0  0  0  0
   59.6090   34.3350   48.7120 N   0  0  0  0  0  0  0  0  0  0  0  0
   59.5950   29.2870   47.3830 C   0  0  0  0  0  0  0  0  0  0  0  0
   58.6680   29.3340   46.3400 C   0  0  0  0  0  0  0  0  0  0  0  0
   57.3790   31.5420   44.8830 C   0  0  0  0  0  0  0  0  0  0  0  0
   56.6020   34.1320   46.3490 H   0  0  0  0  0  0  0  0  0  0  0  0
   58.6449   33.7730   42.6189 H   0  0  0  0  0  0  0  0  0  0  0  0
   57.7149   32.0838   41.0389 H   0  0  0  0  0  0  0  0  0  0  0  0
   56.5686   30.0494   41.9111 H   0  0  0  0  0  0  0  0  0  0  0  0
   57.4274   26.1554   46.5668 H   0  0  0  0  0  0  0  0  0  0  0  0
   59.0854   26.0704   48.4264 H   0  0  0  0  0  0  0  0  0  0  0  0
   60.9956   27.0294   49.5009 H   0  0  0  0  0  0  0  0  0  0  0  0
   61.6349   28.6397   49.0145 H   0  0  0  0  0  0  0  0  0  0  0  0
   59.6280   30.5520   49.5290 H   0  0  0  0  0  0  0  0  0  0  0  0
   57.7413   30.2003   51.5219 H   0  0  0  0  0  0  0  0  0  0  0  0
   59.2759   30.3455   52.4573 H   0  0  0  0  0  0  0  0  0  0  0  0
   57.7013   32.4239   51.0876 H   0  0  0  0  0  0  0  0  0  0  0  0
   59.0136   32.5787   52.3178 H   0  0  0  0  0  0  0  0  0  0  0  0
   58.4270   32.4110   47.2660 H   0  0  0  0  0  0  0  0  0  0  0  0
   58.4820   31.1130   48.5100 H   0  0  0  0  0  0  0  0  0  0  0  0
   59.3520   34.6380   47.7460 H   0  0  0  0  0  0  0  0  0  0  0  0
   60.0420   35.0460   49.3400 H   0  0  0  0  0  0  0  0  0  0  0  0
   60.1948   30.1776   47.6219 H   0  0  0  0  0  0  0  0  0  0  0  0
   58.5366   30.2625   45.7650 H   0  0  0  0  0  0  0  0  0  0  0  0
   57.2763   31.3966   45.9685 H   0  0  0  0  0  0  0  0  0  0  0  0
  1  2  1  0
  2  3  2  0
  2  4  2  0
  2  5  1  0
  5  6  2  0
  6  7  1  0
  7  8  2  0
  8  9  1  0
  9 10  1  0
 10 11  2  0
 10 12  1  0
 12 13  1  0
 13 14  2  0
 14 15  1  0
 15 16  2  0
 16 17  1  0
 17 18  1  0
 18 19  2  0
 18 20  1  0
 20 21  1  0
 21 22  1  0
 22 23  1  0
 23 24  2  3
 24 25  1  0
 24 26  1  0
 16 27  1  0
 27 28  2  0
  9 29  2  0
 29  5  1  0
 28 13  1  0
  1 30  1  0
  6 31  1  0
  7 32  1  0
  8 33  1  0
 14 34  1  0
 15 35  1  0
 17 36  1  0
 17 37  1  0
 20 38  1  0
 21 39  1  0
 21 40  1  0
 22 41  1  0
 22 42  1  0
 25 43  1  0
 25 44  1  0
 26 45  1  0
 26 46  1  0
 27 47  1  0
 28 48  1  0
 29 49  1  0
M  CHG  2   1  -1  12  -1
M  END
>  <UniqueID>  (39) 
34

>  <SMILES>  (39) 
[NH-]S(=O)(=O)c1cccc(C(=O)[N-]c2ccc(CC(=O)NCCN=C(N)N)cc2)c1

>  <Energy>  (39) 
46.819682951627655

>  <Genealogy>  (39) 
[NH-]S(=O)(=O)c1cccc(C(=O)[N-]c2ccc(CC(=O)NCCN=C(N)N)cc2)c1 (protonated)
[NH-]S(=O)(=O)c1cccc(C(=O)[N-]c2ccc(CC(=O)NCCN=C(N)N)cc2)c1 (3D coordinates assigned)
[NH-]S(=O)(=O)c1cccc(C(=O)[N-]c2ccc(CC(=O)NCCN=C(N)N)cc2)c1 (optimized conformer: 46.819682951627655 kcal/mol)

>  <smiles>  (39) 
NC(N)=NCCNC(=O)Cc1ccc(NC(=O)c2cccc(S(N)(=O)=O)c2)cc1

>  <score_type>  (39) 
oracle

>  <origin>  (39) 
adg

>  <m_score__min__energy>  (39) 
-13.56

>  <m_primary>  (39) 
energy

$$$$
39:0
     RDKit          3D

 45 47  0  0  0  0  0  0  0  0999 V2000
   56.9790   29.3780   43.2660 C   0  0  0  0  0  0  0  0  0  0  0  0
   56.1320   30.1530   44.2290 C   0  0  0  0  0  0  0  0  0  0  0  0
   55.2220   29.5540   44.8590 O   0  0  0  0  0  0  0  0  0  0  0  0
   56.3490   31.5470   44.4850 N   0  0  0  0  0  0  0  0  0  0  0  0
   57.4300   32.1230   45.2330 C   0  0  0  0  0  0  0  0  0  0  0  0
   57.7920   31.5420   46.4530 C   0  0  0  0  0  0  0  0  0  0  0  0
   58.8200   32.0940   47.2230 C   0  0  0  0  0  0  0  0  0  0  0  0
   59.5000   33.2380   46.7830 C   0  0  0  0  0  0  0  0  0  0  0  0
   60.5410   33.7970   47.6010 N   0  0  0  0  0  0  0  0  0  0  0  0
   61.9400   33.5240   47.4200 C   0  0  0  0  0  0  0  0  0  0  0  0
   62.3250   32.6710   46.5760 O   0  0  0  0  0  0  0  0  0  0  0  0
   62.9540   34.1910   48.2970 C   0  0  0  0  0  0  0  0  0  0  0  0
   63.1140   33.3110   49.8880 S   0  0  0  0  0  0  0  0  0  0  0  0
   61.3460   33.1170   50.1370 C   0  0  0  0  0  0  0  0  0  0  0  0
   60.4970   34.1580   50.2650 N   0  0  0  0  0  0  0  0  0  0  0  0
   59.2820   33.6520   50.4270 N   0  0  0  0  0  0  0  0  0  0  0  0
   59.4200   32.3150   50.3900 C   0  0  0  0  0  0  0  0  0  0  0  0
   58.4550   31.5130   50.5030 O   0  0  0  0  0  0  0  0  0  0  0  0
   60.7000   31.9380   50.2170 N   0  0  0  0  0  0  0  0  0  0  0  0
   61.2330   30.5850   50.0560 C   0  0  0  0  0  0  0  0  0  0  0  0
   60.6180   29.9230   48.8530 C   0  0  0  0  0  0  0  0  0  0  0  0
   59.5190   29.0600   48.9970 C   0  0  0  0  0  0  0  0  0  0  0  0
   58.9720   28.4230   47.8790 C   0  0  0  0  0  0  0  0  0  0  0  0
   59.5210   28.6390   46.6120 C   0  0  0  0  0  0  0  0  0  0  0  0
   60.6170   29.4920   46.4610 C   0  0  0  0  0  0  0  0  0  0  0  0
   61.1670   30.1300   47.5760 C   0  0  0  0  0  0  0  0  0  0  0  0
   59.1020   33.8530   45.5830 C   0  0  0  0  0  0  0  0  0  0  0  0
   58.0710   33.3010   44.8160 C   0  0  0  0  0  0  0  0  0  0  0  0
   57.6780   28.7384   43.8249 H   0  0  0  0  0  0  0  0  0  0  0  0
   56.3341   28.7507   42.6331 H   0  0  0  0  0  0  0  0  0  0  0  0
   57.5467   30.0759   42.6331 H   0  0  0  0  0  0  0  0  0  0  0  0
   57.2643   30.6448   46.8088 H   0  0  0  0  0  0  0  0  0  0  0  0
   59.0969   31.6277   48.1800 H   0  0  0  0  0  0  0  0  0  0  0  0
   60.2550   34.3360   48.4510 H   0  0  0  0  0  0  0  0  0  0  0  0
   63.9280   34.1919   47.7859 H   0  0  0  0  0  0  0  0  0  0  0  0
   62.6249   35.2216   48.4957 H   0  0  0  0  0  0  0  0  0  0  0  0
   62.3237   30.6377   49.9236 H   0  0  0  0  0  0  0  0  0  0  0  0
   60.9911   29.9953   50.9525 H   0  0  0  0  0  0  0  0  0  0  0  0
   59.0870   28.8847   49.9933 H   0  0  0  0  0  0  0  0  0  0  0  0
   58.1089   27.7513   47.9967 H   0  0  0  0  0  0  0  0  0  0  0  0
   59.0899   28.1371   45.7332 H   0  0  0  0  0  0  0  0  0  0  0  0
   61.0476   29.6617   45.4631 H   0  0  0  0  0  0  0  0  0  0  0  0
   62.0332   30.7969   47.4537 H   0  0  0  0  0  0  0  0  0  0  0  0
   59.6036   34.7721   45.2460 H   0  0  0  0  0  0  0  0  0  0  0  0
   57.7607   33.7918   43.8817 H   0  0  0  0  0  0  0  0  0  0  0  0
  1  2  1  0
  2  3  2  0
  2  4  1  0
  4  5  1  0
  5  6  2  0
  6  7  1  0
  7  8  2  0
  8  9  1  0
  9 10  1  0
 10 11  2  0
 10 12  1  0
 12 13  1  0
 13 14  1  0
 14 15  2  0
 15 16  1  0
 16 17  1  0
 17 18  2  0
 17 19  1  0
 19 20  1  0
 20 21  1  0
 21 22  2  0
 22 23  1  0
 23 24  2  0
 24 25  1  0
 25 26  2  0
  8 27  1  0
 27 28  2  0
 28  5  1  0
 19 14  1  0
 26 21  1  0
  1 29  1  0
  1 30  1  0
  1 31  1  0
  6 32  1  0
  7 33  1  0
  9 34  1  0
 12 35  1  0
 12 36  1  0
 20 37  1  0
 20 38  1  0
 22 39  1  0
 23 40  1  0
 24 41  1  0
 25 42  1  0
 26 43  1  0
 27 44  1  0
 28 45  1  0
M  CHG  2   4  -1  16  -1
M  END
>  <UniqueID>  (40) 
35

>  <SMILES>  (40) 
CC(=O)[N-]c1ccc(NC(=O)CSc2n[n-]c(=O)n2Cc2ccccc2)cc1

>  <Energy>  (40) 
82.72972893125103

>  <Genealogy>  (40) 
CC(=O)[N-]c1ccc(NC(=O)CSc2n[n-]c(=O)n2Cc2ccccc2)cc1 (protonated)
CC(=O)[N-]c1ccc(NC(=O)CSc2n[n-]c(=O)n2Cc2ccccc2)cc1 (3D coordinates assigned)
CC(=O)[N-]c1ccc(NC(=O)CSc2n[n-]c(=O)n2Cc2ccccc2)cc1 (optimized conformer: 82.72972893125103 kcal/mol)

>  <smiles>  (40) 
CC(=O)Nc1ccc(NC(=O)CSc2n[nH]c(=O)n2Cc2ccccc2)cc1

>  <score_type>  (40) 
oracle

>  <origin>  (40) 
adg

>  <m_score__min__energy>  (40) 
-10.529999999999999

>  <m_primary>  (40) 
energy

$$$$
40:0
     RDKit          3D

 52 55  0  0  0  0  0  0  0  0999 V2000
   55.2130   29.3430   44.8720 N   0  0  0  0  0  0  0  0  0  0  0  0
   56.8160   29.2930   44.2250 S   0  0  0  0  0  0  0  0  0  0  0  0
   57.6040   28.2380   44.9480 O   0  0  0  0  0  0  0  0  0  0  0  0
   56.7340   28.9460   42.7650 O   0  0  0  0  0  0  0  0  0  0  0  0
   57.6190   30.8550   44.4170 C   0  0  0  0  0  0  0  0  0  0  0  0
   58.4090   31.1050   45.5500 C   0  0  0  0  0  0  0  0  0  0  0  0
   59.0590   32.3410   45.7140 C   0  0  0  0  0  0  0  0  0  0  0  0
   59.8870   32.6030   46.9190 C   0  0  0  0  0  0  0  0  0  0  0  0
   59.7680   33.8160   47.6200 C   0  0  0  0  0  0  0  0  0  0  0  0
   60.5540   34.0620   48.7480 C   0  0  0  0  0  0  0  0  0  0  0  0
   61.4790   33.1060   49.1940 C   0  0  0  0  0  0  0  0  0  0  0  0
   62.3360   33.3720   50.4040 C   0  0  0  0  0  0  0  0  0  0  0  0
   63.0390   32.1560   50.8130 N   0  0  0  0  0  0  0  0  0  0  0  0
   62.3900   30.9690   51.3690 C   0  0  0  0  0  0  0  0  0  0  0  0
   63.5220   29.9430   51.6200 C   0  0  0  0  0  0  0  0  0  0  0  0
   64.7530   30.6730   51.2050 C   0  0  0  0  0  0  0  0  0  0  0  0
   66.0740   30.2140   51.2250 C   0  0  0  0  0  0  0  0  0  0  0  0
   66.3370   28.9120   51.6830 O   0  0  0  0  0  0  0  0  0  0  0  0
   67.5680   28.2120   51.5050 C   0  0  0  0  0  0  0  0  0  0  0  0
   67.6520   27.6470   50.1220 C   0  0  0  0  0  0  0  0  0  0  0  0
   66.8540   26.7460   49.7550 O   0  0  0  0  0  0  0  0  0  0  0  0
   68.6130   28.1190   49.2380 O   0  0  0  0  0  0  0  0  0  0  0  0
   67.0880   31.0960   50.7810 C   0  0  0  0  0  0  0  0  0  0  0  0
   66.7590   32.3910   50.3380 C   0  0  0  0  0  0  0  0  0  0  0  0
   65.4220   32.8180   50.3250 C   0  0  0  0  0  0  0  0  0  0  0  0
   64.4370   31.9280   50.7590 C   0  0  0  0  0  0  0  0  0  0  0  0
   61.5890   31.8880   48.5060 C   0  0  0  0  0  0  0  0  0  0  0  0
   60.8040   31.6400   47.3770 C   0  0  0  0  0  0  0  0  0  0  0  0
   58.9130   33.3250   44.7210 C   0  0  0  0  0  0  0  0  0  0  0  0
   58.1350   33.0770   43.5890 C   0  0  0  0  0  0  0  0  0  0  0  0
   57.4870   31.8460   43.4290 C   0  0  0  0  0  0  0  0  0  0  0  0
   56.7180   31.6040   42.2920 O   0  0  0  0  0  0  0  0  0  0  0  0
   55.1680   28.6300   45.6330 H   0  0  0  0  0  0  0  0  0  0  0  0
   58.5208   30.3255   46.3180 H   0  0  0  0  0  0  0  0  0  0  0  0
   59.0508   34.5766   47.2776 H   0  0  0  0  0  0  0  0  0  0  0  0
   60.4470   35.0127   49.2909 H   0  0  0  0  0  0  0  0  0  0  0  0
   63.0730   34.1515   50.1609 H   0  0  0  0  0  0  0  0  0  0  0  0
   61.6904   33.7040   51.2304 H   0  0  0  0  0  0  0  0  0  0  0  0
   61.8828   31.2173   52.3130 H   0  0  0  0  0  0  0  0  0  0  0  0
   61.6272   30.5687   50.6849 H   0  0  0  0  0  0  0  0  0  0  0  0
   63.5704   29.6634   52.6828 H   0  0  0  0  0  0  0  0  0  0  0  0
   63.3764   29.0019   51.0695 H   0  0  0  0  0  0  0  0  0  0  0  0
   68.4061   28.9065   51.6642 H   0  0  0  0  0  0  0  0  0  0  0  0
   67.6173   27.3870   52.2309 H   0  0  0  0  0  0  0  0  0  0  0  0
   68.1380   30.7680   50.7821 H   0  0  0  0  0  0  0  0  0  0  0  0
   67.5540   33.0720   50.0002 H   0  0  0  0  0  0  0  0  0  0  0  0
   65.1565   33.8287   49.9815 H   0  0  0  0  0  0  0  0  0  0  0  0
   62.2976   31.1237   48.8576 H   0  0  0  0  0  0  0  0  0  0  0  0
   60.9040   30.6840   46.8422 H   0  0  0  0  0  0  0  0  0  0  0  0
   59.4151   34.2968   44.8367 H   0  0  0  0  0  0  0  0  0  0  0  0
   58.0302   33.8539   42.8173 H   0  0  0  0  0  0  0  0  0  0  0  0
   56.2520   30.7170   42.1450 H   0  0  0  0  0  0  0  0  0  0  0  0
  1  2  1  0
  2  3  2  0
  2  4  2  0
  2  5  1  0
  5  6  2  0
  6  7  1  0
  7  8  1  0
  8  9  2  0
  9 10  1  0
 10 11  2  0
 11 12  1  0
 12 13  1  0
 13 14  1  0
 14 15  1  0
 15 16  1  0
 16 17  2  0
 17 18  1  0
 18 19  1  0
 19 20  1  0
 20 21  2  0
 20 22  1  0
 17 23  1  0
 23 24  2  0
 24 25  1  0
 25 26  2  0
 11 27  1  0
 27 28  2  0
  7 29  2  0
 29 30  1  0
 30 31  2  0
 31 32  1  0
 31  5  1  0
 28  8  1  0
 26 13  1  0
 26 16  1  0
  1 33  1  0
  6 34  1  0
  9 35  1  0
 10 36  1  0
 12 37  1  0
 12 38  1  0
 14 39  1  0
 14 40  1  0
 15 41  1  0
 15 42  1  0
 19 43  1  0
 19 44  1  0
 23 45  1  0
 24 46  1  0
 25 47  1  0
 27 48  1  0
 28 49  1  0
 29 50  1  0
 30 51  1  0
 32 52  1  0
M  CHG  2   1  -1  22  -1
M  END
>  <UniqueID>  (41) 
36

>  <SMILES>  (41) 
[NH-]S(=O)(=O)c1cc(-c2ccc(CN3CCc4c(OCC(=O)[O-])cccc43)cc2)ccc1O

>  <Energy>  (41) 
72.2553834559951

>  <Genealogy>  (41) 
[NH-]S(=O)(=O)c1cc(-c2ccc(CN3CCc4c(OCC(=O)[O-])cccc43)cc2)ccc1O (protonated)
[NH-]S(=O)(=O)c1cc(-c2ccc(CN3CCc4c(OCC(=O)[O-])cccc43)cc2)ccc1O (3D coordinates assigned)
[NH-]S(=O)(=O)c1cc(-c2ccc(CN3CCc4c(OCC(=O)[O-])cccc43)cc2)ccc1O (nonaromatic ring conformer: 72.2553834559951 kcal/mol)

>  <smiles>  (41) 
NS(=O)(=O)c1cc(-c2ccc(CN3CCc4c(OCC(=O)O)cccc43)cc2)ccc1O

>  <score_type>  (41) 
oracle

>  <origin>  (41) 
adg

>  <m_score__min__energy>  (41) 
-12.720000000000001

>  <m_primary>  (41) 
energy

$$$$
41:0
     RDKit          3D

 36 38  0  0  0  0  0  0  0  0999 V2000
   54.0340   26.3430   46.3750 H   0  0  0  0  0  0  0  0  0  0  0  0
   53.8480   25.6310   45.6770 O   0  0  0  0  0  0  0  0  0  0  0  0
   54.8480   24.7750   45.2200 C   0  0  0  0  0  0  0  0  0  0  0  0
   54.5370   23.7770   44.2840 C   0  0  0  0  0  0  0  0  0  0  0  0
   53.5174   23.7068   43.8773 H   0  0  0  0  0  0  0  0  0  0  0  0
   55.5160   22.8720   43.8660 C   0  0  0  0  0  0  0  0  0  0  0  0
   55.2685   22.0962   43.1265 H   0  0  0  0  0  0  0  0  0  0  0  0
   56.8100   22.9530   44.3880 C   0  0  0  0  0  0  0  0  0  0  0  0
   57.5775   22.2322   44.0695 H   0  0  0  0  0  0  0  0  0  0  0  0
   57.1290   23.9490   45.3140 C   0  0  0  0  0  0  0  0  0  0  0  0
   58.1451   24.0002   45.7322 H   0  0  0  0  0  0  0  0  0  0  0  0
   56.1650   24.8830   45.7140 C   0  0  0  0  0  0  0  0  0  0  0  0
   56.5360   25.8860   46.6700 N   0  0  0  0  0  0  0  0  0  0  0  0
   57.6590   26.7630   46.5450 C   0  0  0  0  0  0  0  0  0  0  0  0
   58.4570   26.8720   47.5150 O   0  0  0  0  0  0  0  0  0  0  0  0
   57.8970   27.4600   45.3120 N   0  0  0  0  0  0  0  0  0  0  0  0
   57.4890   28.6580   45.0160 C   0  0  0  0  0  0  0  0  0  0  0  0
   56.1940   28.9950   44.8130 N   0  0  0  0  0  0  0  0  0  0  0  0
   56.0650   30.3140   44.5070 C   0  0  0  0  0  0  0  0  0  0  0  0
   55.0920   30.7828   44.2983 H   0  0  0  0  0  0  0  0  0  0  0  0
   57.2620   31.0230   44.4790 C   0  0  0  0  0  0  0  0  0  0  0  0
   57.4180   32.4600   44.0940 C   0  0  0  0  0  0  0  0  0  0  0  0
   57.9870   32.5256   43.1549 H   0  0  0  0  0  0  0  0  0  0  0  0
   56.4222   32.9075   43.9594 H   0  0  0  0  0  0  0  0  0  0  0  0
   58.1520   33.2060   45.1740 C   0  0  0  0  0  0  0  0  0  0  0  0
   58.8490   34.3880   44.8700 C   0  0  0  0  0  0  0  0  0  0  0  0
   58.8323   34.7861   43.8447 H   0  0  0  0  0  0  0  0  0  0  0  0
   59.5630   35.0590   45.8660 C   0  0  0  0  0  0  0  0  0  0  0  0
   60.1012   35.9875   45.6245 H   0  0  0  0  0  0  0  0  0  0  0  0
   59.5950   34.5530   47.1690 C   0  0  0  0  0  0  0  0  0  0  0  0
   60.1547   35.0851   47.9523 H   0  0  0  0  0  0  0  0  0  0  0  0
   58.9150   33.3700   47.4760 C   0  0  0  0  0  0  0  0  0  0  0  0
   58.9660   32.7280   49.1080 Cl  0  0  0  0  0  0  0  0  0  0  0  0
   58.1990   32.6950   46.4810 C   0  0  0  0  0  0  0  0  0  0  0  0
   57.6712   31.7609   46.7236 H   0  0  0  0  0  0  0  0  0  0  0  0
   58.5260   29.9640   44.8200 S   0  0  0  0  0  0  0  0  0  0  0  0
  1  2  1  0
  2  3  1  0
  3  4  2  0
  4  5  1  0
  4  6  1  0
  6  7  1  0
  6  8  2  0
  8  9  1  0
  8 10  1  0
 10 11  1  0
 10 12  2  0
 12 13  1  0
 13 14  1  0
 14 15  2  0
 14 16  1  0
 16 17  2  0
 17 18  1  0
 18 19  1  0
 19 20  1  0
 19 21  2  0
 21 22  1  0
 22 23  1  0
 22 24  1  0
 22 25  1  0
 25 26  2  0
 26 27  1  0
 26 28  1  0
 28 29  1  0
 28 30  2  0
 30 31  1  0
 30 32  1  0
 32 33  1  0
 32 34  2  0
 34 35  1  0
 21 36  1  0
 12  3  1  0
 36 17  1  0
 34 25  1  0
M  CHG  2  13  -1  18  -1
M  END
>  <UniqueID>  (42) 
37

>  <SMILES>  (42) 
O=C(/N=c1\[n-]cc(Cc2cccc(Cl)c2)s1)[N-]c1ccccc1O

>  <Energy>  (42) 
73.28343005977322

>  <Genealogy>  (42) 
O=C(N=c1[n-]cc(Cc2cccc(Cl)c2)s1)[N-]c1ccccc1O (protonated)
O=C(/N=c1\[n-]cc(Cc2cccc(Cl)c2)s1)[N-]c1ccccc1O (cis-trans isomerization)
O=C(/N=c1\[n-]cc(Cc2cccc(Cl)c2)s1)[N-]c1ccccc1O (3D coordinates assigned)
O=C(/N=c1\[n-]cc(Cc2cccc(Cl)c2)s1)[N-]c1ccccc1O (optimized conformer: 73.28343005977322 kcal/mol)

>  <smiles>  (42) 
O=C(N=c1[nH]cc(Cc2cccc(Cl)c2)s1)Nc1ccccc1O

>  <score_type>  (42) 
oracle

>  <origin>  (42) 
adg

>  <m_score__min__energy>  (42) 
-12.02

>  <m_primary>  (42) 
energy

$$$$
42:0
     RDKit          3D

 49 52  0  0  0  0  0  0  0  0999 V2000
   55.1480   26.6950   45.9580 O   0  0  0  0  0  0  0  0  0  0  0  0
   56.0940   25.9750   46.3730 C   0  0  0  0  0  0  0  0  0  0  0  0
   55.7810   24.7730   47.0890 N   0  0  0  0  0  0  0  0  0  0  0  0
   56.2180   23.4470   46.7490 C   0  0  0  0  0  0  0  0  0  0  0  0
   56.5570   22.5250   47.7560 C   0  0  0  0  0  0  0  0  0  0  0  0
   56.9960   21.2420   47.4270 C   0  0  0  0  0  0  0  0  0  0  0  0
   57.1220   20.8620   46.0920 C   0  0  0  0  0  0  0  0  0  0  0  0
   56.8140   21.7690   45.0690 C   0  0  0  0  0  0  0  0  0  0  0  0
   56.9490   21.3890   43.7240 C   0  0  0  0  0  0  0  0  0  0  0  0
   56.6420   22.2930   42.7040 C   0  0  0  0  0  0  0  0  0  0  0  0
   56.1990   23.5790   43.0170 C   0  0  0  0  0  0  0  0  0  0  0  0
   56.0600   23.9720   44.3500 C   0  0  0  0  0  0  0  0  0  0  0  0
   56.3650   23.0760   45.3930 C   0  0  0  0  0  0  0  0  0  0  0  0
   57.4940   26.4340   46.1970 C   0  0  0  0  0  0  0  0  0  0  0  0
   58.5370   25.5520   46.5320 C   0  0  0  0  0  0  0  0  0  0  0  0
   59.8680   25.9490   46.4190 C   0  0  0  0  0  0  0  0  0  0  0  0
   60.1780   27.2310   45.9720 C   0  0  0  0  0  0  0  0  0  0  0  0
   59.1580   28.1200   45.6320 C   0  0  0  0  0  0  0  0  0  0  0  0
   57.8060   27.7400   45.7400 C   0  0  0  0  0  0  0  0  0  0  0  0
   56.7570   28.6470   45.3360 N   0  0  0  0  0  0  0  0  0  0  0  0
   56.7800   29.4410   44.1050 C   0  0  0  0  0  0  0  0  0  0  0  0
   58.0550   30.2890   43.9950 C   0  0  0  0  0  0  0  0  0  0  0  0
   57.9590   31.5550   44.8070 C   0  0  0  0  0  0  0  0  0  0  0  0
   58.1790   31.5260   46.1930 C   0  0  0  0  0  0  0  0  0  0  0  0
   58.1170   32.7050   46.9410 C   0  0  0  0  0  0  0  0  0  0  0  0
   57.8380   33.9210   46.3100 C   0  0  0  0  0  0  0  0  0  0  0  0
   57.6200   33.9590   44.9300 C   0  0  0  0  0  0  0  0  0  0  0  0
   57.6810   32.7820   44.1790 C   0  0  0  0  0  0  0  0  0  0  0  0
   56.4752   22.8183   48.8130 H   0  0  0  0  0  0  0  0  0  0  0  0
   57.2439   20.5269   48.2253 H   0  0  0  0  0  0  0  0  0  0  0  0
   57.4642   19.8473   45.8406 H   0  0  0  0  0  0  0  0  0  0  0  0
   57.2976   20.3764   43.4727 H   0  0  0  0  0  0  0  0  0  0  0  0
   56.7497   21.9906   41.6519 H   0  0  0  0  0  0  0  0  0  0  0  0
   55.9582   24.2865   42.2099 H   0  0  0  0  0  0  0  0  0  0  0  0
   55.7101   24.9876   44.5867 H   0  0  0  0  0  0  0  0  0  0  0  0
   58.2997   24.5382   46.8869 H   0  0  0  0  0  0  0  0  0  0  0  0
   60.6745   25.2491   46.6831 H   0  0  0  0  0  0  0  0  0  0  0  0
   61.2293   27.5433   45.8868 H   0  0  0  0  0  0  0  0  0  0  0  0
   59.4125   29.1291   45.2756 H   0  0  0  0  0  0  0  0  0  0  0  0
   55.9220   28.7620   45.9510 H   0  0  0  0  0  0  0  0  0  0  0  0
   56.7297   28.7608   43.2420 H   0  0  0  0  0  0  0  0  0  0  0  0
   55.9172   30.1231   44.1229 H   0  0  0  0  0  0  0  0  0  0  0  0
   58.9082   29.6973   44.3582 H   0  0  0  0  0  0  0  0  0  0  0  0
   58.1880   30.5698   42.9398 H   0  0  0  0  0  0  0  0  0  0  0  0
   58.4011   30.5714   46.6925 H   0  0  0  0  0  0  0  0  0  0  0  0
   58.2879   32.6762   48.0273 H   0  0  0  0  0  0  0  0  0  0  0  0
   57.7900   34.8482   46.8999 H   0  0  0  0  0  0  0  0  0  0  0  0
   57.4002   34.9162   44.4346 H   0  0  0  0  0  0  0  0  0  0  0  0
   57.5109   32.8156   43.0927 H   0  0  0  0  0  0  0  0  0  0  0  0
  1  2  2  0
  2  3  1  0
  3  4  1  0
  4  5  2  0
  5  6  1  0
  6  7  2  0
  7  8  1  0
  8  9  2  0
  9 10  1  0
 10 11  2  0
 11 12  1  0
 12 13  2  0
  2 14  1  0
 14 15  2  0
 15 16  1  0
 16 17  2  0
 17 18  1  0
 18 19  2  0
 19 20  1  0
 20 21  1  0
 21 22  1  0
 22 23  1  0
 23 24  2  0
 24 25  1  0
 25 26  2  0
 26 27  1  0
 27 28  2  0
 13  4  1  0
 19 14  1  0
 28 23  1  0
 13  8  1  0
  5 29  1  0
  6 30  1  0
  7 31  1  0
  9 32  1  0
 10 33  1  0
 11 34  1  0
 12 35  1  0
 15 36  1  0
 16 37  1  0
 17 38  1  0
 18 39  1  0
 20 40  1  0
 21 41  1  0
 21 42  1  0
 22 43  1  0
 22 44  1  0
 24 45  1  0
 25 46  1  0
 26 47  1  0
 27 48  1  0
 28 49  1  0
M  CHG  1   3  -1
M  END
>  <UniqueID>  (43) 
38

>  <SMILES>  (43) 
O=C([N-]c1cccc2ccccc12)c1ccccc1NCCc1ccccc1

>  <Energy>  (43) 
63.641322125565225

>  <Genealogy>  (43) 
O=C([N-]c1cccc2ccccc12)c1ccccc1NCCc1ccccc1 (protonated)
O=C([N-]c1cccc2ccccc12)c1ccccc1NCCc1ccccc1 (3D coordinates assigned)
O=C([N-]c1cccc2ccccc12)c1ccccc1NCCc1ccccc1 (optimized conformer: 63.641322125565225 kcal/mol)

>  <smiles>  (43) 
O=C(Nc1cccc2ccccc12)c1ccccc1NCCc1ccccc1

>  <score_type>  (43) 
oracle

>  <origin>  (43) 
adg

>  <m_score__min__energy>  (43) 
-10.75

>  <m_primary>  (43) 
energy

$$$$
43:0
     RDKit          3D

 41 44  0  0  0  0  0  0  0  0999 V2000
   61.7440   30.3480   50.1710 C   0  0  0  0  0  0  0  0  0  0  0  0
   61.3300   31.1130   48.9980 N   0  0  0  0  0  0  0  0  0  0  0  0
   60.1400   30.9740   48.3670 C   0  0  0  0  0  0  0  0  0  0  0  0
   60.0610   31.8390   47.2850 C   0  0  0  0  0  0  0  0  0  0  0  0
   58.9140   31.9920   46.3690 C   0  0  0  0  0  0  0  0  0  0  0  0
   58.2520   31.0120   45.7470 C   0  0  0  0  0  0  0  0  0  0  0  0
   58.6000   29.5730   45.7210 C   0  0  0  0  0  0  0  0  0  0  0  0
   59.9380   29.1600   45.5940 C   0  0  0  0  0  0  0  0  0  0  0  0
   60.2580   27.8010   45.5780 C   0  0  0  0  0  0  0  0  0  0  0  0
   59.2480   26.8410   45.6750 C   0  0  0  0  0  0  0  0  0  0  0  0
   57.9090   27.2380   45.7810 C   0  0  0  0  0  0  0  0  0  0  0  0
   56.6320   26.0340   45.9170 S   0  0  0  0  0  0  0  0  0  0  0  0
   56.6680   24.9990   44.5340 N   0  0  0  0  0  0  0  0  0  0  0  0
   55.2930   26.7130   46.0040 O   0  0  0  0  0  0  0  0  0  0  0  0
   56.8400   25.2180   47.1620 O   0  0  0  0  0  0  0  0  0  0  0  0
   57.5890   28.6030   45.8050 C   0  0  0  0  0  0  0  0  0  0  0  0
   57.1140   31.6270   45.0590 C   0  0  0  0  0  0  0  0  0  0  0  0
   56.2830   31.0090   44.3430 O   0  0  0  0  0  0  0  0  0  0  0  0
   57.0620   33.0320   45.2680 N   0  0  0  0  0  0  0  0  0  0  0  0
   58.1970   33.2400   46.1000 C   0  0  0  0  0  0  0  0  0  0  0  0
   58.4950   34.3630   46.5820 O   0  0  0  0  0  0  0  0  0  0  0  0
   61.2590   32.5270   47.2650 C   0  0  0  0  0  0  0  0  0  0  0  0
   61.7410   33.4810   46.3690 C   0  0  0  0  0  0  0  0  0  0  0  0
   63.0270   33.9970   46.5830 C   0  0  0  0  0  0  0  0  0  0  0  0
   63.8050   33.5480   47.6680 C   0  0  0  0  0  0  0  0  0  0  0  0
   63.3120   32.5700   48.5530 C   0  0  0  0  0  0  0  0  0  0  0  0
   64.3420   32.0450   49.8780 Cl  0  0  0  0  0  0  0  0  0  0  0  0
   62.0160   32.0660   48.3200 C   0  0  0  0  0  0  0  0  0  0  0  0
   61.4515   30.8886   51.0833 H   0  0  0  0  0  0  0  0  0  0  0  0
   61.2563   29.3621   50.1567 H   0  0  0  0  0  0  0  0  0  0  0  0
   62.8361   30.2171   50.1567 H   0  0  0  0  0  0  0  0  0  0  0  0
   59.3474   30.2738   48.6696 H   0  0  0  0  0  0  0  0  0  0  0  0
   60.7367   29.9113   45.5068 H   0  0  0  0  0  0  0  0  0  0  0  0
   61.3080   27.4856   45.4888 H   0  0  0  0  0  0  0  0  0  0  0  0
   59.5047   25.7714   45.6681 H   0  0  0  0  0  0  0  0  0  0  0  0
   56.6170   25.6140   43.6910 H   0  0  0  0  0  0  0  0  0  0  0  0
   57.6090   24.5450   44.5180 H   0  0  0  0  0  0  0  0  0  0  0  0
   56.5379   28.9159   45.8903 H   0  0  0  0  0  0  0  0  0  0  0  0
   61.1299   33.8188   45.5190 H   0  0  0  0  0  0  0  0  0  0  0  0
   63.4311   34.7577   45.8989 H   0  0  0  0  0  0  0  0  0  0  0  0
   64.8100   33.9665   47.8259 H   0  0  0  0  0  0  0  0  0  0  0  0
  1  2  1  0
  2  3  1  0
  3  4  2  0
  4  5  1  0
  5  6  2  0
  6  7  1  0
  7  8  2  0
  8  9  1  0
  9 10  2  0
 10 11  1  0
 11 12  1  0
 12 13  1  0
 12 14  2  0
 12 15  2  0
 11 16  2  0
  6 17  1  0
 17 18  2  0
 17 19  1  0
 19 20  1  0
 20 21  2  0
  4 22  1  0
 22 23  2  0
 23 24  1  0
 24 25  2  0
 25 26  1  0
 26 27  1  0
 26 28  2  0
 28  2  1  0
 20  5  1  0
 28 22  1  0
 16  7  1  0
  1 29  1  0
  1 30  1  0
  1 31  1  0
  3 32  1  0
  8 33  1  0
  9 34  1  0
 10 35  1  0
 13 36  1  0
 13 37  1  0
 16 38  1  0
 23 39  1  0
 24 40  1  0
 25 41  1  0
M  CHG  1  19  -1
M  END
>  <UniqueID>  (44) 
39

>  <SMILES>  (44) 
Cn1cc(C2=C(c3cccc(S(N)(=O)=O)c3)C(=O)[N-]C2=O)c2cccc(Cl)c21

>  <Energy>  (44) 
112.82918668617671

>  <Genealogy>  (44) 
Cn1cc(C2=C(c3cccc(S(N)(=O)=O)c3)C(=O)[N-]C2=O)c2cccc(Cl)c21 (protonated)
Cn1cc(C2=C(c3cccc(S(N)(=O)=O)c3)C(=O)[N-]C2=O)c2cccc(Cl)c21 (3D coordinates assigned)
Cn1cc(C2=C(c3cccc(S(N)(=O)=O)c3)C(=O)[N-]C2=O)c2cccc(Cl)c21 (nonaromatic ring conformer: 112.82918668617671 kcal/mol)

>  <smiles>  (44) 
Cn1cc(C2=C(c3cccc(S(N)(=O)=O)c3)C(=O)NC2=O)c2cccc(Cl)c21

>  <score_type>  (44) 
oracle

>  <origin>  (44) 
adg

>  <m_score__min__energy>  (44) 
-10.960000000000001

>  <m_primary>  (44) 
energy

$$$$
44:0
     RDKit          3D

 39 41  0  0  0  0  0  0  0  0999 V2000
   54.7680   27.1300   45.9850 H   0  0  0  0  0  0  0  0  0  0  0  0
   54.5890   26.1670   45.7240 O   0  0  0  0  0  0  0  0  0  0  0  0
   55.6210   25.2340   45.6180 C   0  0  0  0  0  0  0  0  0  0  0  0
   55.3540   23.9500   45.1210 C   0  0  0  0  0  0  0  0  0  0  0  0
   54.3313   23.6818   44.8175 H   0  0  0  0  0  0  0  0  0  0  0  0
   56.3810   23.0110   45.0100 C   0  0  0  0  0  0  0  0  0  0  0  0
   56.1661   22.0053   44.6196 H   0  0  0  0  0  0  0  0  0  0  0  0
   57.6810   23.3470   45.3940 C   0  0  0  0  0  0  0  0  0  0  0  0
   58.4883   22.6047   45.3090 H   0  0  0  0  0  0  0  0  0  0  0  0
   57.9570   24.6250   45.8860 C   0  0  0  0  0  0  0  0  0  0  0  0
   58.9862   24.8908   46.1691 H   0  0  0  0  0  0  0  0  0  0  0  0
   56.9270   25.5750   46.0220 C   0  0  0  0  0  0  0  0  0  0  0  0
   57.2070   26.9400   46.5290 C   0  0  0  0  0  0  0  0  0  0  0  0
   56.6583   27.2729   47.4224 H   0  0  0  0  0  0  0  0  0  0  0  0
   58.0800   27.8010   45.9800 C   0  0  0  0  0  0  0  0  0  0  0  0
   59.0880   27.4280   45.7459 H   0  0  0  0  0  0  0  0  0  0  0  0
   57.7800   29.2170   45.6680 C   0  0  0  0  0  0  0  0  0  0  0  0
   56.5280   29.5650   45.1550 C   0  0  0  0  0  0  0  0  0  0  0  0
   55.5480   28.5990   44.9560 O   0  0  0  0  0  0  0  0  0  0  0  0
   56.2680   30.8530   44.8260 N   0  0  0  0  0  0  0  0  0  0  0  0
   57.1950   31.8300   44.9880 C   0  0  0  0  0  0  0  0  0  0  0  0
   56.9010   33.0060   44.6420 O   0  0  0  0  0  0  0  0  0  0  0  0
   58.4260   31.5370   45.5210 N   0  0  0  0  0  0  0  0  0  0  0  0
   59.4580   32.5850   45.6590 C   0  0  0  0  0  0  0  0  0  0  0  0
   60.4096   32.2139   45.2507 H   0  0  0  0  0  0  0  0  0  0  0  0
   59.1364   33.4805   45.1070 H   0  0  0  0  0  0  0  0  0  0  0  0
   59.6450   32.9430   47.1110 C   0  0  0  0  0  0  0  0  0  0  0  0
   58.7160   32.5210   48.0770 C   0  0  0  0  0  0  0  0  0  0  0  0
   57.8326   31.9416   47.7705 H   0  0  0  0  0  0  0  0  0  0  0  0
   58.9090   32.8340   49.4260 C   0  0  0  0  0  0  0  0  0  0  0  0
   58.1745   32.5066   50.1766 H   0  0  0  0  0  0  0  0  0  0  0  0
   60.0350   33.5630   49.8220 C   0  0  0  0  0  0  0  0  0  0  0  0
   60.2260   33.8580   51.1310 F   0  0  0  0  0  0  0  0  0  0  0  0
   60.9690   33.9780   48.8690 C   0  0  0  0  0  0  0  0  0  0  0  0
   61.8568   34.5474   49.1814 H   0  0  0  0  0  0  0  0  0  0  0  0
   60.7760   33.6700   47.5180 C   0  0  0  0  0  0  0  0  0  0  0  0
   61.5134   33.9987   46.7709 H   0  0  0  0  0  0  0  0  0  0  0  0
   58.7160   30.2450   45.8850 C   0  0  0  0  0  0  0  0  0  0  0  0
   59.8230   29.9730   46.4280 O   0  0  0  0  0  0  0  0  0  0  0  0
  1  2  1  0
  2  3  1  0
  3  4  2  0
  4  5  1  0
  4  6  1  0
  6  7  1  0
  6  8  2  0
  8  9  1  0
  8 10  1  0
 10 11  1  0
 10 12  2  0
 12 13  1  0
 13 14  1  0
 13 15  2  0
 15 16  1  0
 15 17  1  0
 17 18  2  0
 18 19  1  0
 18 20  1  0
 20 21  1  0
 21 22  2  0
 21 23  1  0
 23 24  1  0
 24 25  1  0
 24 26  1  0
 24 27  1  0
 27 28  2  0
 28 29  1  0
 28 30  1  0
 30 31  1  0
 30 32  2  0
 32 33  1  0
 32 34  1  0
 34 35  1  0
 34 36  2  0
 36 37  1  0
 23 38  1  0
 38 39  2  0
 12  3  1  0
 38 17  1  0
 36 27  1  0
M  CHG  2  19  -1  20  -1
M  END
>  <UniqueID>  (45) 
40

>  <SMILES>  (45) 
O=c1[n-]c([O-])c(/C=C\c2ccccc2O)c(=O)n1Cc1ccc(F)cc1

>  <Energy>  (45) 
54.41331913298255

>  <Genealogy>  (45) 
O=c1[n-]c([O-])c(C=Cc2ccccc2O)c(=O)n1Cc1ccc(F)cc1 (protonated)
O=c1[n-]c([O-])c(/C=C\c2ccccc2O)c(=O)n1Cc1ccc(F)cc1 (cis-trans isomerization)
O=c1[n-]c([O-])c(/C=C\c2ccccc2O)c(=O)n1Cc1ccc(F)cc1 (3D coordinates assigned)
O=c1[n-]c([O-])c(/C=C\c2ccccc2O)c(=O)n1Cc1ccc(F)cc1 (optimized conformer: 54.41331913298255 kcal/mol)

>  <smiles>  (45) 
O=c1[nH]c(O)c(C=Cc2ccccc2O)c(=O)n1Cc1ccc(F)cc1

>  <score_type>  (45) 
oracle

>  <origin>  (45) 
adg

>  <m_score__min__energy>  (45) 
-13.779999999999999

>  <m_primary>  (45) 
energy

$$$$
45:0
     RDKit          3D

 39 41  0  0  0  0  0  0  0  0999 V2000
   55.5660   28.8760   45.1590 N   0  0  0  0  0  0  0  0  0  0  0  0
   56.4910   29.8590   44.0780 S   0  0  0  0  0  0  0  0  0  0  0  0
   56.0290   29.6340   42.6650 O   0  0  0  0  0  0  0  0  0  0  0  0
   57.9420   29.4860   44.1870 O   0  0  0  0  0  0  0  0  0  0  0  0
   56.3040   31.5080   44.4940 O   0  0  0  0  0  0  0  0  0  0  0  0
   57.2270   32.2480   45.2480 C   0  0  0  0  0  0  0  0  0  0  0  0
   57.5350   33.5460   44.8250 C   0  0  0  0  0  0  0  0  0  0  0  0
   58.4630   34.3190   45.5280 C   0  0  0  0  0  0  0  0  0  0  0  0
   59.0920   33.8010   46.6610 C   0  0  0  0  0  0  0  0  0  0  0  0
   58.7870   32.5070   47.1040 C   0  0  0  0  0  0  0  0  0  0  0  0
   59.5940   31.8320   48.5170 S   0  0  0  0  0  0  0  0  0  0  0  0
   60.5310   30.7520   48.0510 O   0  0  0  0  0  0  0  0  0  0  0  0
   58.5820   31.2260   49.4480 O   0  0  0  0  0  0  0  0  0  0  0  0
   60.4870   33.0710   49.3600 N   0  0  0  0  0  0  0  0  0  0  0  0
   59.7650   34.0180   50.1980 C   0  0  0  0  0  0  0  0  0  0  0  0
   59.5810   33.4280   51.5830 C   0  0  0  0  0  0  0  0  0  0  0  0
   60.8380   33.4430   52.3980 C   0  0  0  0  0  0  0  0  0  0  0  0
   60.7230   33.5890   53.6430 O   0  0  0  0  0  0  0  0  0  0  0  0
   62.1620   33.3590   51.8520 N   0  0  0  0  0  0  0  0  0  0  0  0
   62.6980   33.2140   50.5260 C   0  0  0  0  0  0  0  0  0  0  0  0
   64.0990   33.2250   50.4260 C   0  0  0  0  0  0  0  0  0  0  0  0
   64.7360   33.0900   49.1930 C   0  0  0  0  0  0  0  0  0  0  0  0
   63.9820   32.9380   48.0350 C   0  0  0  0  0  0  0  0  0  0  0  0
   62.5900   32.9300   48.1060 C   0  0  0  0  0  0  0  0  0  0  0  0
   61.9250   33.0840   49.3410 C   0  0  0  0  0  0  0  0  0  0  0  0
   57.8520   31.7340   46.4000 C   0  0  0  0  0  0  0  0  0  0  0  0
   54.6590   29.3680   45.3180 H   0  0  0  0  0  0  0  0  0  0  0  0
   57.0431   33.9607   43.9328 H   0  0  0  0  0  0  0  0  0  0  0  0
   58.6983   35.3382   45.1875 H   0  0  0  0  0  0  0  0  0  0  0  0
   59.8281   34.4093   47.2070 H   0  0  0  0  0  0  0  0  0  0  0  0
   60.3380   34.9541   50.2712 H   0  0  0  0  0  0  0  0  0  0  0  0
   58.7804   34.2251   49.7535 H   0  0  0  0  0  0  0  0  0  0  0  0
   58.8129   34.0105   52.1128 H   0  0  0  0  0  0  0  0  0  0  0  0
   59.2842   32.3765   51.4557 H   0  0  0  0  0  0  0  0  0  0  0  0
   64.7046   33.3422   51.3368 H   0  0  0  0  0  0  0  0  0  0  0  0
   65.8345   33.1038   49.1366 H   0  0  0  0  0  0  0  0  0  0  0  0
   64.4839   32.8241   47.0628 H   0  0  0  0  0  0  0  0  0  0  0  0
   62.0012   32.8018   47.1858 H   0  0  0  0  0  0  0  0  0  0  0  0
   57.6057   30.7206   46.7499 H   0  0  0  0  0  0  0  0  0  0  0  0
  1  2  1  0
  2  3  2  0
  2  4  2  0
  2  5  1  0
  5  6  1  0
  6  7  2  0
  7  8  1  0
  8  9  2  0
  9 10  1  0
 10 11  1  0
 11 12  2  0
 11 13  2  0
 11 14  1  0
 14 15  1  0
 15 16  1  0
 16 17  1  0
 17 18  2  0
 17 19  1  0
 19 20  1  0
 20 21  2  0
 21 22  1  0
 22 23  2  0
 23 24  1  0
 24 25  2  0
 10 26  2  0
 26  6  1  0
 25 14  1  0
 25 20  1  0
  1 27  1  0
  7 28  1  0
  8 29  1  0
  9 30  1  0
 15 31  1  0
 15 32  1  0
 16 33  1  0
 16 34  1  0
 21 35  1  0
 22 36  1  0
 23 37  1  0
 24 38  1  0
 26 39  1  0
M  CHG  2   1  -1  19  -1
M  END
>  <UniqueID>  (46) 
41

>  <SMILES>  (46) 
[NH-]S(=O)(=O)Oc1cccc(S(=O)(=O)N2CCC(=O)[N-]c3ccccc32)c1

>  <Energy>  (46) 
51.12933117693397

>  <Genealogy>  (46) 
[NH-]S(=O)(=O)Oc1cccc(S(=O)(=O)N2CCC(=O)[N-]c3ccccc32)c1 (protonated)
[NH-]S(=O)(=O)Oc1cccc(S(=O)(=O)N2CCC(=O)[N-]c3ccccc32)c1 (3D coordinates assigned)
[NH-]S(=O)(=O)Oc1cccc(S(=O)(=O)N2CCC(=O)[N-]c3ccccc32)c1 (nonaromatic ring conformer: 51.12933117693397 kcal/mol)

>  <smiles>  (46) 
NS(=O)(=O)Oc1cccc(S(=O)(=O)N2CCC(=O)Nc3ccccc32)c1

>  <score_type>  (46) 
oracle

>  <origin>  (46) 
adg

>  <m_score__min__energy>  (46) 
-10.83

>  <m_primary>  (46) 
energy

$$$$
46:0
     RDKit          3D

 53 56  0  0  0  0  0  0  0  0999 V2000
   60.8280   27.0180   47.5540 C   0  0  0  0  0  0  0  0  0  0  0  0
   59.7470   27.7200   46.7810 C   0  0  0  0  0  0  0  0  0  0  0  0
   60.0880   28.5930   45.7360 C   0  0  0  0  0  0  0  0  0  0  0  0
   59.0880   29.2240   44.9880 C   0  0  0  0  0  0  0  0  0  0  0  0
   57.7380   28.9910   45.2810 C   0  0  0  0  0  0  0  0  0  0  0  0
   56.4950   29.7780   44.3160 S   0  0  0  0  0  0  0  0  0  0  0  0
   56.5720   29.3440   42.8770 O   0  0  0  0  0  0  0  0  0  0  0  0
   55.1440   29.3950   44.8560 O   0  0  0  0  0  0  0  0  0  0  0  0
   56.6830   31.4940   44.4290 N   0  0  0  0  0  0  0  0  0  0  0  0
   57.5920   32.1830   45.3010 C   0  0  0  0  0  0  0  0  0  0  0  0
   58.2930   33.2840   44.7980 C   0  0  0  0  0  0  0  0  0  0  0  0
   59.2190   33.9590   45.5970 C   0  0  0  0  0  0  0  0  0  0  0  0
   59.4770   33.5230   46.9090 C   0  0  0  0  0  0  0  0  0  0  0  0
   60.4310   34.1450   47.7290 O   0  0  0  0  0  0  0  0  0  0  0  0
   61.6570   33.5740   48.0950 C   0  0  0  0  0  0  0  0  0  0  0  0
   62.7830   33.9650   47.4380 N   0  0  0  0  0  0  0  0  0  0  0  0
   63.9950   33.4190   47.7150 C   0  0  0  0  0  0  0  0  0  0  0  0
   64.0940   32.4290   48.6950 C   0  0  0  0  0  0  0  0  0  0  0  0
   62.9810   32.0540   49.3790 N   0  0  0  0  0  0  0  0  0  0  0  0
   61.7640   32.6090   49.1220 C   0  0  0  0  0  0  0  0  0  0  0  0
   60.6350   32.2390   49.9270 N   0  0  0  0  0  0  0  0  0  0  0  0
   60.2660   33.0810   51.0710 C   0  0  0  0  0  0  0  0  0  0  0  0
   58.7430   33.0940   51.3080 C   0  0  0  0  0  0  0  0  0  0  0  0
   58.0220   31.8410   50.7800 C   0  0  0  0  0  0  0  0  0  0  0  0
   58.9460   30.6210   50.7770 C   0  0  0  0  0  0  0  0  0  0  0  0
   60.1340   30.8570   49.8380 C   0  0  0  0  0  0  0  0  0  0  0  0
   58.7450   32.4500   47.4300 C   0  0  0  0  0  0  0  0  0  0  0  0
   57.8100   31.7790   46.6320 C   0  0  0  0  0  0  0  0  0  0  0  0
   57.3940   28.1120   46.3240 C   0  0  0  0  0  0  0  0  0  0  0  0
   58.3940   27.4730   47.0590 C   0  0  0  0  0  0  0  0  0  0  0  0
   60.6444   27.1372   48.6320 H   0  0  0  0  0  0  0  0  0  0  0  0
   60.8262   25.9482   47.2979 H   0  0  0  0  0  0  0  0  0  0  0  0
   61.8046   27.4547   47.2979 H   0  0  0  0  0  0  0  0  0  0  0  0
   61.1465   28.7819   45.5040 H   0  0  0  0  0  0  0  0  0  0  0  0
   59.3623   29.9043   44.1683 H   0  0  0  0  0  0  0  0  0  0  0  0
   58.1139   33.6206   43.7662 H   0  0  0  0  0  0  0  0  0  0  0  0
   59.7492   34.8362   45.1978 H   0  0  0  0  0  0  0  0  0  0  0  0
   64.8913   33.7536   47.1721 H   0  0  0  0  0  0  0  0  0  0  0  0
   65.0638   31.9571   48.9113 H   0  0  0  0  0  0  0  0  0  0  0  0
   60.7628   32.6935   51.9726 H   0  0  0  0  0  0  0  0  0  0  0  0
   60.5858   34.1107   50.8534 H   0  0  0  0  0  0  0  0  0  0  0  0
   58.5610   33.1688   52.3903 H   0  0  0  0  0  0  0  0  0  0  0  0
   58.3395   33.9538   50.7531 H   0  0  0  0  0  0  0  0  0  0  0  0
   57.1544   31.6306   51.4226 H   0  0  0  0  0  0  0  0  0  0  0  0
   57.7049   32.0360   49.7449 H   0  0  0  0  0  0  0  0  0  0  0  0
   59.3187   30.4454   51.7969 H   0  0  0  0  0  0  0  0  0  0  0  0
   58.3810   29.7446   50.4266 H   0  0  0  0  0  0  0  0  0  0  0  0
   60.9455   30.1659   50.1097 H   0  0  0  0  0  0  0  0  0  0  0  0
   59.7946   30.6820   48.8064 H   0  0  0  0  0  0  0  0  0  0  0  0
   58.9048   32.1323   48.4709 H   0  0  0  0  0  0  0  0  0  0  0  0
   57.2433   30.9324   47.0470 H   0  0  0  0  0  0  0  0  0  0  0  0
   56.3357   27.9280   46.5607 H   0  0  0  0  0  0  0  0  0  0  0  0
   58.1197   26.7717   47.8608 H   0  0  0  0  0  0  0  0  0  0  0  0
  1  2  1  0
  2  3  2  0
  3  4  1  0
  4  5  2  0
  5  6  1  0
  6  7  2  0
  6  8  2  0
  6  9  1  0
  9 10  1  0
 10 11  2  0
 11 12  1  0
 12 13  2  0
 13 14  1  0
 14 15  1  0
 15 16  2  0
 16 17  1  0
 17 18  2  0
 18 19  1  0
 19 20  2  0
 20 21  1  0
 21 22  1  0
 22 23  1  0
 23 24  1  0
 24 25  1  0
 25 26  1  0
 13 27  1  0
 27 28  2  0
  5 29  1  0
 29 30  2  0
 30  2  1  0
 28 10  1  0
 20 15  1  0
 26 21  1  0
  1 31  1  0
  1 32  1  0
  1 33  1  0
  3 34  1  0
  4 35  1  0
 11 36  1  0
 12 37  1  0
 17 38  1  0
 18 39  1  0
 22 40  1  0
 22 41  1  0
 23 42  1  0
 23 43  1  0
 24 44  1  0
 24 45  1  0
 25 46  1  0
 25 47  1  0
 26 48  1  0
 26 49  1  0
 27 50  1  0
 28 51  1  0
 29 52  1  0
 30 53  1  0
M  CHG  1   9  -1
M  END
>  <UniqueID>  (47) 
42

>  <SMILES>  (47) 
Cc1ccc(S(=O)(=O)[N-]c2ccc(Oc3nccnc3N3CCCCC3)cc2)cc1

>  <Energy>  (47) 
71.35925651225153

>  <Genealogy>  (47) 
Cc1ccc(S(=O)(=O)[N-]c2ccc(Oc3nccnc3N3CCCCC3)cc2)cc1 (protonated)
Cc1ccc(S(=O)(=O)[N-]c2ccc(Oc3nccnc3N3CCCCC3)cc2)cc1 (3D coordinates assigned)
Cc1ccc(S(=O)(=O)[N-]c2ccc(Oc3nccnc3N3CCCCC3)cc2)cc1 (nonaromatic ring conformer: 71.35925651225153 kcal/mol)

>  <smiles>  (47) 
Cc1ccc(S(=O)(=O)Nc2ccc(Oc3nccnc3N3CCCCC3)cc2)cc1

>  <score_type>  (47) 
oracle

>  <origin>  (47) 
adg

>  <m_score__min__energy>  (47) 
-10.18

>  <m_primary>  (47) 
energy

$$$$
47:0
     RDKit          3D

 32 33  0  0  0  0  0  0  0  0999 V2000
   61.2920   31.5230   46.8810 O   0  0  0  0  0  0  0  0  0  0  0  0
   60.3900   30.6720   46.6620 C   0  0  0  0  0  0  0  0  0  0  0  0
   60.7640   29.3960   46.0210 C   0  0  0  0  0  0  0  0  0  0  0  0
   60.0150   28.7510   45.1160 C   0  0  0  0  0  0  0  0  0  0  0  0
   58.6900   28.1650   45.3960 C   0  0  0  0  0  0  0  0  0  0  0  0
   57.5360   28.8580   45.0210 C   0  0  0  0  0  0  0  0  0  0  0  0
   56.2760   28.2950   45.2300 C   0  0  0  0  0  0  0  0  0  0  0  0
   55.1380   29.0060   44.8700 O   0  0  0  0  0  0  0  0  0  0  0  0
   56.1560   27.0190   45.7960 C   0  0  0  0  0  0  0  0  0  0  0  0
   54.8850   26.4890   45.9870 O   0  0  0  0  0  0  0  0  0  0  0  0
   57.3120   26.2890   46.1560 C   0  0  0  0  0  0  0  0  0  0  0  0
   57.2230   24.9680   46.7320 N   0  0  0  0  0  0  0  0  0  0  0  0
   58.1310   24.1330   46.5410 O   0  0  0  0  0  0  0  0  0  0  0  0
   56.1550   24.6030   47.5200 O   0  0  0  0  0  0  0  0  0  0  0  0
   58.5750   26.8760   45.9440 C   0  0  0  0  0  0  0  0  0  0  0  0
   58.9500   31.0390   46.9010 C   0  0  0  0  0  0  0  0  0  0  0  0
   58.5570   32.3070   46.2040 C   0  0  0  0  0  0  0  0  0  0  0  0
   57.3880   32.4760   45.6920 N   0  0  0  0  0  0  0  0  0  0  0  0
   57.3340   33.7560   44.9970 C   0  0  0  0  0  0  0  0  0  0  0  0
   58.7380   34.3560   45.1530 C   0  0  0  0  0  0  0  0  0  0  0  0
   59.4550   33.3640   45.9300 N   0  0  0  0  0  0  0  0  0  0  0  0
   61.7249   28.9428   46.3061 H   0  0  0  0  0  0  0  0  0  0  0  0
   60.4148   28.6518   44.0960 H   0  0  0  0  0  0  0  0  0  0  0  0
   57.6210   29.8525   44.5586 H   0  0  0  0  0  0  0  0  0  0  0  0
   59.4842   26.3174   46.2112 H   0  0  0  0  0  0  0  0  0  0  0  0
   58.3120   30.2219   46.5330 H   0  0  0  0  0  0  0  0  0  0  0  0
   58.8207   31.1979   47.9817 H   0  0  0  0  0  0  0  0  0  0  0  0
   57.0933   33.6082   43.9339 H   0  0  0  0  0  0  0  0  0  0  0  0
   56.5561   34.4157   45.4088 H   0  0  0  0  0  0  0  0  0  0  0  0
   59.2125   34.5026   44.1715 H   0  0  0  0  0  0  0  0  0  0  0  0
   58.7263   35.3452   45.6340 H   0  0  0  0  0  0  0  0  0  0  0  0
   60.4640   33.4090   46.1900 H   0  0  0  0  0  0  0  0  0  0  0  0
  1  2  2  0
  2  3  1  0
  3  4  2  3
  4  5  1  0
  5  6  2  0
  6  7  1  0
  7  8  1  0
  7  9  2  0
  9 10  1  0
  9 11  1  0
 11 12  1  0
 12 13  2  0
 12 14  1  0
 11 15  2  0
  2 16  1  0
 16 17  1  0
 17 18  2  0
 18 19  1  0
 19 20  1  0
 20 21  1  0
 15  5  1  0
 21 17  1  0
  3 22  1  0
  4 23  1  0
  6 24  1  0
 15 25  1  0
 16 26  1  0
 16 27  1  0
 19 28  1  0
 19 29  1  0
 20 30  1  0
 20 31  1  0
 21 32  1  0
M  CHG  4   8  -1  10  -1  12   1  14  -1
M  END
>  <UniqueID>  (48) 
43

>  <SMILES>  (48) 
O=C(C=Cc1cc([O-])c([O-])c([N+](=O)[O-])c1)CC1=NCCN1

>  <Energy>  (48) 
52.44275114139063

>  <Genealogy>  (48) 
O=C(C=Cc1cc([O-])c([O-])c([N+](=O)[O-])c1)CC1=NCCN1 (protonated)
O=C(C=Cc1cc([O-])c([O-])c([N+](=O)[O-])c1)CC1=NCCN1 (3D coordinates assigned)
O=C(C=Cc1cc([O-])c([O-])c([N+](=O)[O-])c1)CC1=NCCN1 (nonaromatic ring conformer: 52.44275114139063 kcal/mol)

>  <smiles>  (48) 
O=C(C=Cc1cc(O)c(O)c([N+](=O)[O-])c1)CC1=NCCN1

>  <score_type>  (48) 
oracle

>  <origin>  (48) 
adg

>  <m_score__min__energy>  (48) 
-15.800000000000001

>  <m_primary>  (48) 
energy

$$$$
48:0
     RDKit          3D

 49 52  0  0  0  0  0  0  0  0999 V2000
   57.9906   28.2984   47.7258 H   0  0  0  0  0  0  0  0  0  0  0  0
   58.8790   28.8840   47.4470 C   0  0  0  0  0  0  0  0  0  0  0  0
   59.3560   29.8330   48.2940 N   0  0  0  0  0  0  0  0  0  0  0  0
   60.4520   30.5830   48.0000 C   0  0  0  0  0  0  0  0  0  0  0  0
   60.8890   31.5350   48.9320 O   0  0  0  0  0  0  0  0  0  0  0  0
   62.2210   31.9280   49.1270 C   0  0  0  0  0  0  0  0  0  0  0  0
   62.8060   32.8050   48.2040 C   0  0  0  0  0  0  0  0  0  0  0  0
   62.2156   33.1781   47.3542 H   0  0  0  0  0  0  0  0  0  0  0  0
   64.1370   33.2090   48.3570 C   0  0  0  0  0  0  0  0  0  0  0  0
   64.5862   33.9064   47.6346 H   0  0  0  0  0  0  0  0  0  0  0  0
   64.8960   32.7270   49.4270 C   0  0  0  0  0  0  0  0  0  0  0  0
   66.1870   33.1180   49.5730 F   0  0  0  0  0  0  0  0  0  0  0  0
   64.3280   31.8350   50.3410 C   0  0  0  0  0  0  0  0  0  0  0  0
   64.9284   31.4502   51.1785 H   0  0  0  0  0  0  0  0  0  0  0  0
   62.9970   31.4310   50.1920 C   0  0  0  0  0  0  0  0  0  0  0  0
   62.5552   30.7231   50.9087 H   0  0  0  0  0  0  0  0  0  0  0  0
   61.1390   30.3540   46.7980 C   0  0  0  0  0  0  0  0  0  0  0  0
   62.0425   30.9334   46.5571 H   0  0  0  0  0  0  0  0  0  0  0  0
   60.6670   29.3850   45.9100 C   0  0  0  0  0  0  0  0  0  0  0  0
   61.2007   29.1997   44.9662 H   0  0  0  0  0  0  0  0  0  0  0  0
   59.5140   28.6470   46.2180 C   0  0  0  0  0  0  0  0  0  0  0  0
   58.9970   27.6120   45.2900 C   0  0  0  0  0  0  0  0  0  0  0  0
   59.3620   26.4150   45.4340 O   0  0  0  0  0  0  0  0  0  0  0  0
   58.1440   27.9410   44.1840 N   0  0  0  0  0  0  0  0  0  0  0  0
   57.6060   29.1040   43.9540 C   0  0  0  0  0  0  0  0  0  0  0  0
   56.3130   29.3590   43.5180 C   0  0  0  0  0  0  0  0  0  0  0  0
   55.5087   28.6340   43.3244 H   0  0  0  0  0  0  0  0  0  0  0  0
   56.2690   30.7360   43.3830 C   0  0  0  0  0  0  0  0  0  0  0  0
   55.3981   31.3195   43.0498 H   0  0  0  0  0  0  0  0  0  0  0  0
   57.4690   31.2440   43.7270 N   0  0  0  0  0  0  0  0  0  0  0  0
   57.8640   32.6470   43.6430 C   0  0  0  0  0  0  0  0  0  0  0  0
   56.9946   33.2540   43.3503 H   0  0  0  0  0  0  0  0  0  0  0  0
   58.6616   32.7548   42.8932 H   0  0  0  0  0  0  0  0  0  0  0  0
   58.3720   33.1150   44.9770 C   0  0  0  0  0  0  0  0  0  0  0  0
   59.3560   34.1140   45.0500 C   0  0  0  0  0  0  0  0  0  0  0  0
   59.7824   34.5309   44.1257 H   0  0  0  0  0  0  0  0  0  0  0  0
   59.7960   34.5810   46.2910 C   0  0  0  0  0  0  0  0  0  0  0  0
   60.5651   35.3660   46.3390 H   0  0  0  0  0  0  0  0  0  0  0  0
   59.2620   34.0540   47.4760 C   0  0  0  0  0  0  0  0  0  0  0  0
   59.7060   34.5850   48.8070 C   0  0  0  0  0  0  0  0  0  0  0  0
   59.2243   34.0089   49.6108 H   0  0  0  0  0  0  0  0  0  0  0  0
   60.7986   34.4916   48.8931 H   0  0  0  0  0  0  0  0  0  0  0  0
   59.4206   35.6438   48.8931 H   0  0  0  0  0  0  0  0  0  0  0  0
   58.2550   33.0790   47.4040 C   0  0  0  0  0  0  0  0  0  0  0  0
   57.8119   32.6800   48.3284 H   0  0  0  0  0  0  0  0  0  0  0  0
   57.8130   32.6130   46.1630 C   0  0  0  0  0  0  0  0  0  0  0  0
   57.0231   31.8490   46.1151 H   0  0  0  0  0  0  0  0  0  0  0  0
   58.2860   30.2580   44.0590 N   0  0  0  0  0  0  0  0  0  0  0  0
   59.2880   30.3730   44.3350 H   0  0  0  0  0  0  0  0  0  0  0  0
  1  2  1  0
  2  3  2  0
  3  4  1  0
  4  5  1  0
  5  6  1  0
  6  7  2  0
  7  8  1  0
  7  9  1  0
  9 10  1  0
  9 11  2  0
 11 12  1  0
 11 13  1  0
 13 14  1  0
 13 15  2  0
 15 16  1  0
  4 17  2  0
 17 18  1  0
 17 19  1  0
 19 20  1  0
 19 21  2  0
 21 22  1  0
 22 23  2  0
 22 24  1  0
 24 25  2  0
 25 26  1  0
 26 27  1  0
 26 28  2  0
 28 29  1  0
 28 30  1  0
 30 31  1  0
 31 32  1  0
 31 33  1  0
 31 34  1  0
 34 35  2  0
 35 36  1  0
 35 37  1  0
 37 38  1  0
 37 39  2  0
 39 40  1  0
 40 41  1  0
 40 42  1  0
 40 43  1  0
 39 44  1  0
 44 45  1  0
 44 46  2  0
 46 47  1  0
 30 48  1  0
 48 49  1  0
 21  2  1  0
 48 25  1  0
 15  6  1  0
 46 34  1  0
M  END
>  <UniqueID>  (49) 
44

>  <SMILES>  (49) 
Cc1ccc(Cn2cc/c(=N\C(=O)c3ccc(Oc4ccc(F)cc4)nc3)[nH]2)cc1

>  <Energy>  (49) 
97.94898768971751

>  <Genealogy>  (49) 
Cc1ccc(Cn2cc/c(=N\C(=O)c3ccc(Oc4ccc(F)cc4)nc3)[nH]2)cc1 (cis-trans isomerization)
Cc1ccc(Cn2cc/c(=N\C(=O)c3ccc(Oc4ccc(F)cc4)nc3)[nH]2)cc1 (3D coordinates assigned)
Cc1ccc(Cn2cc/c(=N\C(=O)c3ccc(Oc4ccc(F)cc4)nc3)[nH]2)cc1 (optimized conformer: 97.94898768971751 kcal/mol)

>  <smiles>  (49) 
Cc1ccc(Cn2ccc(=NC(=O)c3ccc(Oc4ccc(F)cc4)nc3)[nH]2)cc1

>  <score_type>  (49) 
oracle

>  <origin>  (49) 
adg

>  <m_score__min__energy>  (49) 
-8.9499999999999993

>  <m_primary>  (49) 
energy

$$$$
49:0
     RDKit          3D

 39 39  0  0  0  0  0  0  0  0999 V2000
   60.8690   28.5810   44.7530 C   0  0  0  0  0  0  0  0  0  0  0  0
   60.1610   28.9520   45.9290 O   0  0  0  0  0  0  0  0  0  0  0  0
   58.8030   29.2810   45.9170 C   0  0  0  0  0  0  0  0  0  0  0  0
   58.2050   29.5800   46.9880 O   0  0  0  0  0  0  0  0  0  0  0  0
   58.0440   29.2380   44.6300 C   0  0  0  0  0  0  0  0  0  0  0  0
   56.8460   30.1430   44.6870 C   0  0  0  0  0  0  0  0  0  0  0  0
   55.7070   29.6330   44.8640 O   0  0  0  0  0  0  0  0  0  0  0  0
   57.0310   31.6140   44.6190 C   0  0  0  0  0  0  0  0  0  0  0  0
   57.7770   32.2820   43.7100 C   0  0  0  0  0  0  0  0  0  0  0  0
   57.7750   31.9230   42.2440 C   0  0  0  0  0  0  0  0  0  0  0  0
   58.5870   33.4800   44.1610 C   0  0  0  0  0  0  0  0  0  0  0  0
   58.0640   34.1430   45.4500 C   0  0  0  0  0  0  0  0  0  0  0  0
   59.1740   34.6110   46.4080 C   0  0  0  0  0  0  0  0  0  0  0  0
   60.1420   33.5130   46.7700 C   0  0  0  0  0  0  0  0  0  0  0  0
   61.5240   33.7550   46.7950 C   0  0  0  0  0  0  0  0  0  0  0  0
   62.4080   32.7290   47.1270 C   0  0  0  0  0  0  0  0  0  0  0  0
   61.9050   31.4610   47.4220 C   0  0  0  0  0  0  0  0  0  0  0  0
   60.5640   31.2310   47.3760 N   0  0  0  0  0  0  0  0  0  0  0  0
   59.6830   32.2160   47.0500 C   0  0  0  0  0  0  0  0  0  0  0  0
   61.8113   28.0872   45.0327 H   0  0  0  0  0  0  0  0  0  0  0  0
   60.2548   27.8888   44.1583 H   0  0  0  0  0  0  0  0  0  0  0  0
   61.0886   29.4799   44.1583 H   0  0  0  0  0  0  0  0  0  0  0  0
   58.7031   29.5632   43.8115 H   0  0  0  0  0  0  0  0  0  0  0  0
   57.6998   28.2075   44.4578 H   0  0  0  0  0  0  0  0  0  0  0  0
   56.5129   32.2173   45.3790 H   0  0  0  0  0  0  0  0  0  0  0  0
   57.7689   30.8285   42.1345 H   0  0  0  0  0  0  0  0  0  0  0  0
   56.8792   32.3444   41.7645 H   0  0  0  0  0  0  0  0  0  0  0  0
   58.6755   32.3344   41.7645 H   0  0  0  0  0  0  0  0  0  0  0  0
   59.6218   33.1511   44.3369 H   0  0  0  0  0  0  0  0  0  0  0  0
   58.5109   34.2333   43.3631 H   0  0  0  0  0  0  0  0  0  0  0  0
   57.4589   35.0173   45.1683 H   0  0  0  0  0  0  0  0  0  0  0  0
   57.4813   33.3798   45.9866 H   0  0  0  0  0  0  0  0  0  0  0  0
   59.7331   35.4260   45.9251 H   0  0  0  0  0  0  0  0  0  0  0  0
   58.6881   34.9409   47.3381 H   0  0  0  0  0  0  0  0  0  0  0  0
   61.9106   34.7558   46.5523 H   0  0  0  0  0  0  0  0  0  0  0  0
   63.4914   32.9172   47.1561 H   0  0  0  0  0  0  0  0  0  0  0  0
   62.5930   30.6463   47.6920 H   0  0  0  0  0  0  0  0  0  0  0  0
   60.2040   30.2750   47.5930 H   0  0  0  0  0  0  0  0  0  0  0  0
   58.6064   31.9948   47.0057 H   0  0  0  0  0  0  0  0  0  0  0  0
  1  2  1  0
  2  3  1  0
  3  4  2  0
  3  5  1  0
  5  6  1  0
  6  7  2  0
  6  8  1  0
  8  9  2  3
  9 10  1  0
  9 11  1  0
 11 12  1  0
 12 13  1  0
 13 14  1  0
 14 15  2  0
 15 16  1  0
 16 17  2  0
 17 18  1  0
 18 19  2  0
 19 14  1  0
  1 20  1  0
  1 21  1  0
  1 22  1  0
  5 23  1  0
  5 24  1  0
  8 25  1  0
 10 26  1  0
 10 27  1  0
 10 28  1  0
 11 29  1  0
 11 30  1  0
 12 31  1  0
 12 32  1  0
 13 33  1  0
 13 34  1  0
 15 35  1  0
 16 36  1  0
 17 37  1  0
 18 38  1  0
 19 39  1  0
M  CHG  1  18   1
M  END
>  <UniqueID>  (50) 
45

>  <SMILES>  (50) 
COC(=O)CC(=O)C=C(C)CCCc1ccc[nH+]c1

>  <Energy>  (50) 
26.394822995829948

>  <Genealogy>  (50) 
COC(=O)CC(=O)C=C(C)CCCc1ccc[nH+]c1 (protonated)
COC(=O)CC(=O)C=C(C)CCCc1ccc[nH+]c1 (3D coordinates assigned)
COC(=O)CC(=O)C=C(C)CCCc1ccc[nH+]c1 (optimized conformer: 26.394822995829948 kcal/mol)

>  <smiles>  (50) 
COC(=O)CC(=O)C=C(C)CCCc1cccnc1

>  <score_type>  (50) 
oracle

>  <origin>  (50) 
adg

>  <m_score__min__energy>  (50) 
-5.9199999999999999

>  <m_primary>  (50) 
energy

$$$$
50:0
     RDKit          3D

 46 48  0  0  0  0  0  0  0  0999 V2000
   55.4560   23.3340   44.2590 C   0  0  0  0  0  0  0  0  0  0  0  0
   55.7750   24.5020   45.1270 C   0  0  0  0  0  0  0  0  0  0  0  0
   54.8410   25.3590   45.6000 N   0  0  0  0  0  0  0  0  0  0  0  0
   55.3530   26.3250   46.3610 N   0  0  0  0  0  0  0  0  0  0  0  0
   56.6960   26.2410   46.4960 C   0  0  0  0  0  0  0  0  0  0  0  0
   57.3770   27.0910   47.2040 N   0  0  0  0  0  0  0  0  0  0  0  0
   58.6510   28.0970   46.5830 S   0  0  0  0  0  0  0  0  0  0  0  0
   59.3270   28.8230   47.7130 O   0  0  0  0  0  0  0  0  0  0  0  0
   59.6760   27.2280   45.9080 O   0  0  0  0  0  0  0  0  0  0  0  0
   58.0020   29.2380   45.4060 C   0  0  0  0  0  0  0  0  0  0  0  0
   56.9830   28.8300   44.5380 C   0  0  0  0  0  0  0  0  0  0  0  0
   56.4830   29.7150   43.5770 C   0  0  0  0  0  0  0  0  0  0  0  0
   56.9920   31.0130   43.4910 C   0  0  0  0  0  0  0  0  0  0  0  0
   58.0130   31.4360   44.3610 C   0  0  0  0  0  0  0  0  0  0  0  0
   58.5760   32.7540   44.3010 N   0  0  0  0  0  0  0  0  0  0  0  0
   58.1790   34.0660   45.3590 S   0  0  0  0  0  0  0  0  0  0  0  0
   58.7820   35.3330   44.8200 O   0  0  0  0  0  0  0  0  0  0  0  0
   56.6850   34.2350   45.4080 O   0  0  0  0  0  0  0  0  0  0  0  0
   58.8350   33.7640   46.9650 C   0  0  0  0  0  0  0  0  0  0  0  0
   59.7910   34.6230   47.5220 C   0  0  0  0  0  0  0  0  0  0  0  0
   60.3180   34.3570   48.7870 C   0  0  0  0  0  0  0  0  0  0  0  0
   59.9040   33.2270   49.5010 C   0  0  0  0  0  0  0  0  0  0  0  0
   58.9540   32.3500   48.9480 C   0  0  0  0  0  0  0  0  0  0  0  0
   58.5120   31.1740   49.6500 N   0  0  0  0  0  0  0  0  0  0  0  0
   58.0460   31.1670   51.3200 S   0  0  0  0  0  0  0  0  0  0  0  0
   59.4760   30.9540   52.3560 C   0  0  0  0  0  0  0  0  0  0  0  0
   57.0520   30.0680   51.5700 O   0  0  0  0  0  0  0  0  0  0  0  0
   57.3990   32.4820   51.6480 O   0  0  0  0  0  0  0  0  0  0  0  0
   58.4110   32.6370   47.6870 C   0  0  0  0  0  0  0  0  0  0  0  0
   58.5100   30.5410   45.3210 C   0  0  0  0  0  0  0  0  0  0  0  0
   57.3230   24.9190   45.6490 S   0  0  0  0  0  0  0  0  0  0  0  0
   55.2183   22.4636   44.8882 H   0  0  0  0  0  0  0  0  0  0  0  0
   54.5907   23.5746   43.6239 H   0  0  0  0  0  0  0  0  0  0  0  0
   56.3235   23.1013   43.6239 H   0  0  0  0  0  0  0  0  0  0  0  0
   56.5744   27.8114   44.6115 H   0  0  0  0  0  0  0  0  0  0  0  0
   55.6891   29.3888   42.8891 H   0  0  0  0  0  0  0  0  0  0  0  0
   56.5920   31.7084   42.7384 H   0  0  0  0  0  0  0  0  0  0  0  0
   60.1269   35.5082   46.9620 H   0  0  0  0  0  0  0  0  0  0  0  0
   61.0621   35.0388   49.2245 H   0  0  0  0  0  0  0  0  0  0  0  0
   60.3229   33.0242   50.4977 H   0  0  0  0  0  0  0  0  0  0  0  0
   58.6370   30.2390   49.1960 H   0  0  0  0  0  0  0  0  0  0  0  0
   59.1733   30.9991   53.4126 H   0  0  0  0  0  0  0  0  0  0  0  0
   59.9372   29.9772   52.1481 H   0  0  0  0  0  0  0  0  0  0  0  0
   60.2019   31.7539   52.1481 H   0  0  0  0  0  0  0  0  0  0  0  0
   57.6455   31.9726   47.2596 H   0  0  0  0  0  0  0  0  0  0  0  0
   59.3033   30.8645   46.0110 H   0  0  0  0  0  0  0  0  0  0  0  0
  1  2  1  0
  2  3  2  0
  3  4  1  0
  4  5  1  0
  5  6  2  3
  6  7  1  0
  7  8  2  0
  7  9  2  0
  7 10  1  0
 10 11  2  0
 11 12  1  0
 12 13  2  0
 13 14  1  0
 14 15  1  0
 15 16  1  0
 16 17  2  0
 16 18  2  0
 16 19  1  0
 19 20  2  0
 20 21  1  0
 21 22  2  0
 22 23  1  0
 23 24  1  0
 24 25  1  0
 25 26  1  0
 25 27  2  0
 25 28  2  0
 23 29  2  0
 14 30  2  0
  5 31  1  0
 31  2  1  0
 30 10  1  0
 29 19  1  0
  1 32  1  0
  1 33  1  0
  1 34  1  0
 11 35  1  0
 12 36  1  0
 13 37  1  0
 20 38  1  0
 21 39  1  0
 22 40  1  0
 24 41  1  0
 26 42  1  0
 26 43  1  0
 26 44  1  0
 29 45  1  0
 30 46  1  0
M  CHG  2   4  -1  15  -1
M  END
>  <UniqueID>  (51) 
46

>  <SMILES>  (51) 
Cc1n[n-]c(=NS(=O)(=O)c2cccc([N-]S(=O)(=O)c3cccc(NS(C)(=O)=O)c3)c2)s1

>  <Energy>  (51) 
87.08576693391684

>  <Genealogy>  (51) 
Cc1n[n-]c(=NS(=O)(=O)c2cccc([N-]S(=O)(=O)c3cccc(NS(C)(=O)=O)c3)c2)s1 (protonated)
Cc1n[n-]c(=NS(=O)(=O)c2cccc([N-]S(=O)(=O)c3cccc(NS(C)(=O)=O)c3)c2)s1 (3D coordinates assigned)
Cc1n[n-]c(=NS(=O)(=O)c2cccc([N-]S(=O)(=O)c3cccc(NS(C)(=O)=O)c3)c2)s1 (optimized conformer: 87.08576693391684 kcal/mol)

>  <smiles>  (51) 
Cc1n[nH]c(=NS(=O)(=O)c2cccc(NS(=O)(=O)c3cccc(NS(C)(=O)=O)c3)c2)s1

>  <score_type>  (51) 
oracle

>  <origin>  (51) 
adg

>  <m_score__min__energy>  (51) 
-12.800000000000001

>  <m_primary>  (51) 
energy

$$$$
51:0
     RDKit          3D

 47 49  0  0  0  0  0  0  0  0999 V2000
   68.6920   34.9290   50.8930 C   0  0  0  0  0  0  0  0  0  0  0  0
   67.7590   33.8680   51.3080 N   0  0  0  0  0  0  0  0  0  0  0  0
   68.3940   33.0350   52.3450 C   0  0  0  0  0  0  0  0  0  0  0  0
   67.3740   33.0500   50.1400 C   0  0  0  0  0  0  0  0  0  0  0  0
   66.5610   31.8710   50.5760 C   0  0  0  0  0  0  0  0  0  0  0  0
   67.0980   30.7320   50.6270 O   0  0  0  0  0  0  0  0  0  0  0  0
   65.1910   32.0530   50.9530 N   0  0  0  0  0  0  0  0  0  0  0  0
   64.1140   32.4030   50.0750 C   0  0  0  0  0  0  0  0  0  0  0  0
   62.7560   32.1970   50.4400 C   0  0  0  0  0  0  0  0  0  0  0  0
   61.7160   32.5260   49.5520 C   0  0  0  0  0  0  0  0  0  0  0  0
   62.0620   33.0460   48.3040 C   0  0  0  0  0  0  0  0  0  0  0  0
   63.3700   33.2250   47.9400 C   0  0  0  0  0  0  0  0  0  0  0  0
   63.3820   33.7320   46.6570 C   0  0  0  0  0  0  0  0  0  0  0  0
   62.0440   33.8400   46.2920 C   0  0  0  0  0  0  0  0  0  0  0  0
   61.2460   33.4210   47.3020 N   0  0  0  0  0  0  0  0  0  0  0  0
   59.5140   33.3430   47.2730 S   0  0  0  0  0  0  0  0  0  0  0  0
   58.9760   33.8620   48.5770 O   0  0  0  0  0  0  0  0  0  0  0  0
   58.9800   34.1960   46.1560 O   0  0  0  0  0  0  0  0  0  0  0  0
   59.0190   31.6760   47.0100 C   0  0  0  0  0  0  0  0  0  0  0  0
   59.4750   30.6500   47.8510 C   0  0  0  0  0  0  0  0  0  0  0  0
   59.0930   29.3270   47.6120 C   0  0  0  0  0  0  0  0  0  0  0  0
   58.2530   29.0220   46.5370 C   0  0  0  0  0  0  0  0  0  0  0  0
   57.7890   30.0420   45.6940 C   0  0  0  0  0  0  0  0  0  0  0  0
   56.7540   29.6630   44.3210 S   0  0  0  0  0  0  0  0  0  0  0  0
   55.1560   29.3160   44.8800 N   0  0  0  0  0  0  0  0  0  0  0  0
   56.7100   30.8280   43.3740 O   0  0  0  0  0  0  0  0  0  0  0  0
   57.3020   28.4700   43.5920 O   0  0  0  0  0  0  0  0  0  0  0  0
   58.1790   31.3680   45.9310 C   0  0  0  0  0  0  0  0  0  0  0  0
   64.4220   32.9060   48.7960 C   0  0  0  0  0  0  0  0  0  0  0  0
   69.1173   35.4127   51.7847 H   0  0  0  0  0  0  0  0  0  0  0  0
   69.5023   34.4904   50.2921 H   0  0  0  0  0  0  0  0  0  0  0  0
   68.1534   35.6765   50.2921 H   0  0  0  0  0  0  0  0  0  0  0  0
   68.1096   33.4081   53.3400 H   0  0  0  0  0  0  0  0  0  0  0  0
   68.0589   31.9931   52.2345 H   0  0  0  0  0  0  0  0  0  0  0  0
   69.4874   33.0821   52.2345 H   0  0  0  0  0  0  0  0  0  0  0  0
   66.7800   33.6640   49.4470 H   0  0  0  0  0  0  0  0  0  0  0  0
   68.2851   32.6906   49.6392 H   0  0  0  0  0  0  0  0  0  0  0  0
   62.5157   31.7758   51.4274 H   0  0  0  0  0  0  0  0  0  0  0  0
   60.6627   32.3780   49.8325 H   0  0  0  0  0  0  0  0  0  0  0  0
   64.2620   33.9948   46.0517 H   0  0  0  0  0  0  0  0  0  0  0  0
   61.6856   34.2127   45.3211 H   0  0  0  0  0  0  0  0  0  0  0  0
   60.1339   30.8870   48.6994 H   0  0  0  0  0  0  0  0  0  0  0  0
   59.4541   28.5239   48.2713 H   0  0  0  0  0  0  0  0  0  0  0  0
   57.9553   27.9793   46.3520 H   0  0  0  0  0  0  0  0  0  0  0  0
   55.2460   28.5990   45.6350 H   0  0  0  0  0  0  0  0  0  0  0  0
   57.8241   32.1701   45.2671 H   0  0  0  0  0  0  0  0  0  0  0  0
   65.4669   33.0435   48.4808 H   0  0  0  0  0  0  0  0  0  0  0  0
  1  2  1  0
  2  3  1  0
  2  4  1  0
  4  5  1  0
  5  6  2  0
  5  7  1  0
  7  8  1  0
  8  9  2  0
  9 10  1  0
 10 11  2  0
 11 12  1  0
 12 13  1  0
 13 14  2  0
 14 15  1  0
 15 16  1  0
 16 17  2  0
 16 18  2  0
 16 19  1  0
 19 20  2  0
 20 21  1  0
 21 22  2  0
 22 23  1  0
 23 24  1  0
 24 25  1  0
 24 26  2  0
 24 27  2  0
 23 28  2  0
 12 29  2  0
 29  8  1  0
 15 11  1  0
 28 19  1  0
  1 30  1  0
  1 31  1  0
  1 32  1  0
  3 33  1  0
  3 34  1  0
  3 35  1  0
  4 36  1  0
  4 37  1  0
  9 38  1  0
 10 39  1  0
 13 40  1  0
 14 41  1  0
 20 42  1  0
 21 43  1  0
 22 44  1  0
 25 45  1  0
 28 46  1  0
 29 47  1  0
M  CHG  2   7  -1  25  -1
M  END
>  <UniqueID>  (52) 
47

>  <SMILES>  (52) 
CN(C)CC(=O)[N-]c1ccc2c(ccn2S(=O)(=O)c2cccc(S([NH-])(=O)=O)c2)c1

>  <Energy>  (52) 
85.61697167575176

>  <Genealogy>  (52) 
CN(C)CC(=O)[N-]c1ccc2c(ccn2S(=O)(=O)c2cccc(S([NH-])(=O)=O)c2)c1 (protonated)
CN(C)CC(=O)[N-]c1ccc2c(ccn2S(=O)(=O)c2cccc(S([NH-])(=O)=O)c2)c1 (3D coordinates assigned)
CN(C)CC(=O)[N-]c1ccc2c(ccn2S(=O)(=O)c2cccc(S([NH-])(=O)=O)c2)c1 (optimized conformer: 85.61697167575176 kcal/mol)

>  <smiles>  (52) 
CN(C)CC(=O)Nc1ccc2c(ccn2S(=O)(=O)c2cccc(S(N)(=O)=O)c2)c1

>  <score_type>  (52) 
oracle

>  <origin>  (52) 
adg

>  <m_score__min__energy>  (52) 
-13.68

>  <m_primary>  (52) 
energy

$$$$
52:0
     RDKit          3D

 37 39  0  0  0  0  0  0  0  0999 V2000
   59.6610   29.6560   48.6790 O   0  0  0  0  0  0  0  0  0  0  0  0
   59.4860   30.4510   47.7160 C   0  0  0  0  0  0  0  0  0  0  0  0
   58.8830   29.9820   46.4980 N   0  0  0  0  0  0  0  0  0  0  0  0
   58.4890   28.6150   46.3000 C   0  0  0  0  0  0  0  0  0  0  0  0
   59.1840   27.5830   46.9560 C   0  0  0  0  0  0  0  0  0  0  0  0
   58.7980   26.2510   46.7920 C   0  0  0  0  0  0  0  0  0  0  0  0
   57.7190   25.9320   45.9680 C   0  0  0  0  0  0  0  0  0  0  0  0
   57.0250   26.9430   45.3010 C   0  0  0  0  0  0  0  0  0  0  0  0
   57.4040   28.2880   45.4520 C   0  0  0  0  0  0  0  0  0  0  0  0
   56.6300   29.3330   44.7440 C   0  0  0  0  0  0  0  0  0  0  0  0
   55.3770   29.3450   44.8500 O   0  0  0  0  0  0  0  0  0  0  0  0
   57.2690   30.3950   44.0160 N   0  0  0  0  0  0  0  0  0  0  0  0
   57.5080   31.6010   44.4420 C   0  0  0  0  0  0  0  0  0  0  0  0
   57.0080   32.0450   45.6300 N   0  0  0  0  0  0  0  0  0  0  0  0
   57.2740   33.2980   46.0790 C   0  0  0  0  0  0  0  0  0  0  0  0
   58.0760   34.1510   45.3240 C   0  0  0  0  0  0  0  0  0  0  0  0
   58.5900   33.6810   44.1150 C   0  0  0  0  0  0  0  0  0  0  0  0
   58.3000   32.4200   43.7000 N   0  0  0  0  0  0  0  0  0  0  0  0
   59.8640   31.8740   47.8670 C   0  0  0  0  0  0  0  0  0  0  0  0
   60.7420   32.4570   46.9340 C   0  0  0  0  0  0  0  0  0  0  0  0
   61.1020   33.8030   47.0410 C   0  0  0  0  0  0  0  0  0  0  0  0
   60.5910   34.5840   48.0760 C   0  0  0  0  0  0  0  0  0  0  0  0
   59.7190   34.0210   49.0110 C   0  0  0  0  0  0  0  0  0  0  0  0
   59.3500   32.6740   48.9150 C   0  0  0  0  0  0  0  0  0  0  0  0
   58.2910   32.0170   50.1600 Cl  0  0  0  0  0  0  0  0  0  0  0  0
   58.7110   30.6640   45.7280 H   0  0  0  0  0  0  0  0  0  0  0  0
   60.0389   27.8272   47.6037 H   0  0  0  0  0  0  0  0  0  0  0  0
   59.3458   25.4523   47.3135 H   0  0  0  0  0  0  0  0  0  0  0  0
   57.4144   24.8824   45.8435 H   0  0  0  0  0  0  0  0  0  0  0  0
   56.1750   26.6850   44.6522 H   0  0  0  0  0  0  0  0  0  0  0  0
   56.8568   33.6395   47.0378 H   0  0  0  0  0  0  0  0  0  0  0  0
   58.2986   35.1703   45.6725 H   0  0  0  0  0  0  0  0  0  0  0  0
   59.2291   34.3304   43.4987 H   0  0  0  0  0  0  0  0  0  0  0  0
   61.1484   31.8476   46.1133 H   0  0  0  0  0  0  0  0  0  0  0  0
   61.7902   34.2471   46.3067 H   0  0  0  0  0  0  0  0  0  0  0  0
   60.8743   35.6438   48.1567 H   0  0  0  0  0  0  0  0  0  0  0  0
   59.3198   34.6401   49.8279 H   0  0  0  0  0  0  0  0  0  0  0  0
  1  2  2  0
  2  3  1  0
  3  4  1  0
  4  5  2  0
  5  6  1  0
  6  7  2  0
  7  8  1  0
  8  9  2  0
  9 10  1  0
 10 11  2  0
 10 12  1  0
 12 13  2  3
 13 14  1  0
 14 15  2  0
 15 16  1  0
 16 17  2  0
 17 18  1  0
  2 19  1  0
 19 20  2  0
 20 21  1  0
 21 22  2  0
 22 23  1  0
 23 24  2  0
 24 25  1  0
  9  4  1  0
 18 13  1  0
 24 19  1  0
  3 26  1  0
  5 27  1  0
  6 28  1  0
  7 29  1  0
  8 30  1  0
 15 31  1  0
 16 32  1  0
 17 33  1  0
 20 34  1  0
 21 35  1  0
 22 36  1  0
 23 37  1  0
M  CHG  1  18  -1
M  END
>  <UniqueID>  (53) 
48

>  <SMILES>  (53) 
O=C(Nc1ccccc1C(=O)N=c1nccc[n-]1)c1ccccc1Cl

>  <Energy>  (53) 
60.97469918139692

>  <Genealogy>  (53) 
O=C(Nc1ccccc1C(=O)N=c1nccc[n-]1)c1ccccc1Cl (protonated)
O=C(Nc1ccccc1C(=O)N=c1nccc[n-]1)c1ccccc1Cl (3D coordinates assigned)
O=C(Nc1ccccc1C(=O)N=c1nccc[n-]1)c1ccccc1Cl (optimized conformer: 60.97469918139692 kcal/mol)

>  <smiles>  (53) 
O=C(Nc1ccccc1C(=O)N=c1nccc[nH]1)c1ccccc1Cl

>  <score_type>  (53) 
oracle

>  <origin>  (53) 
adg

>  <m_score__min__energy>  (53) 
-8.8000000000000007

>  <m_primary>  (53) 
energy

$$$$
53:0
     RDKit          3D

 26 27  0  0  0  0  0  0  0  0999 V2000
   55.8230   24.9240   46.7930 O   0  0  0  0  0  0  0  0  0  0  0  0
   56.3550   25.7480   46.0000 C   0  0  0  0  0  0  0  0  0  0  0  0
   56.5690   27.1050   46.4040 N   0  0  0  0  0  0  0  0  0  0  0  0
   57.2720   28.1160   45.6640 C   0  0  0  0  0  0  0  0  0  0  0  0
   58.6780   28.1780   45.6420 C   0  0  0  0  0  0  0  0  0  0  0  0
   59.3280   29.1630   44.8910 C   0  0  0  0  0  0  0  0  0  0  0  0
   58.5850   30.0820   44.1460 C   0  0  0  0  0  0  0  0  0  0  0  0
   57.1900   30.0120   44.1440 C   0  0  0  0  0  0  0  0  0  0  0  0
   56.5340   29.0300   44.8930 C   0  0  0  0  0  0  0  0  0  0  0  0
   55.1440   28.9680   44.8750 O   0  0  0  0  0  0  0  0  0  0  0  0
   56.6610   25.3640   44.6530 N   0  0  0  0  0  0  0  0  0  0  0  0
   56.6690   24.0060   44.1790 C   0  0  0  0  0  0  0  0  0  0  0  0
   57.7810   23.1660   44.3570 C   0  0  0  0  0  0  0  0  0  0  0  0
   57.7580   21.8620   43.8590 C   0  0  0  0  0  0  0  0  0  0  0  0
   56.6280   21.4110   43.1720 C   0  0  0  0  0  0  0  0  0  0  0  0
   56.5900   20.2380   42.7170 O   0  0  0  0  0  0  0  0  0  0  0  0
   55.5690   22.2420   42.9890 N   0  0  0  0  0  0  0  0  0  0  0  0
   55.5670   23.5160   43.4640 C   0  0  0  0  0  0  0  0  0  0  0  0
   59.2678   27.4493   46.2174 H   0  0  0  0  0  0  0  0  0  0  0  0
   60.4268   29.2141   44.8870 H   0  0  0  0  0  0  0  0  0  0  0  0
   59.0981   30.8600   43.5616 H   0  0  0  0  0  0  0  0  0  0  0  0
   56.6057   30.7314   43.5515 H   0  0  0  0  0  0  0  0  0  0  0  0
   56.8190   26.1310   43.9600 H   0  0  0  0  0  0  0  0  0  0  0  0
   58.6700   23.5359   44.8889 H   0  0  0  0  0  0  0  0  0  0  0  0
   58.6211   21.1961   44.0060 H   0  0  0  0  0  0  0  0  0  0  0  0
   54.6969   24.1652   43.2865 H   0  0  0  0  0  0  0  0  0  0  0  0
  1  2  2  0
  2  3  1  0
  3  4  1  0
  4  5  2  0
  5  6  1  0
  6  7  2  0
  7  8  1  0
  8  9  2  0
  9 10  1  0
  2 11  1  0
 11 12  1  0
 12 13  1  0
 13 14  2  0
 14 15  1  0
 15 16  2  0
 15 17  1  0
 17 18  1  0
  9  4  1  0
 18 12  2  0
  5 19  1  0
  6 20  1  0
  7 21  1  0
  8 22  1  0
 11 23  1  0
 13 24  1  0
 14 25  1  0
 18 26  1  0
M  CHG  3   3  -1  10  -1  17  -1
M  END
>  <UniqueID>  (54) 
49

>  <SMILES>  (54) 
O=C([N-]c1ccccc1[O-])Nc1ccc(=O)[n-]c1

>  <Energy>  (54) 
34.699919314537986

>  <Genealogy>  (54) 
O=C([N-]c1ccccc1[O-])Nc1ccc(=O)[n-]c1 (protonated)
O=C([N-]c1ccccc1[O-])Nc1ccc(=O)[n-]c1 (3D coordinates assigned)
O=C([N-]c1ccccc1[O-])Nc1ccc(=O)[n-]c1 (optimized conformer: 34.699919314537986 kcal/mol)

>  <smiles>  (54) 
O=C(Nc1ccc(=O)[nH]c1)Nc1ccccc1O

>  <score_type>  (54) 
oracle

>  <origin>  (54) 
adg

>  <m_score__min__energy>  (54) 
-13.630000000000001

>  <m_primary>  (54) 
energy

$$$$
54:0
     RDKit          3D

 42 44  0  0  0  0  0  0  0  0999 V2000
   59.5600   27.1050   45.0490 O   0  0  0  0  0  0  0  0  0  0  0  0
   58.8300   27.7850   45.8190 C   0  0  0  0  0  0  0  0  0  0  0  0
   59.2900   29.0710   46.2480 N   0  0  0  0  0  0  0  0  0  0  0  0
   59.1690   29.6190   47.5700 C   0  0  0  0  0  0  0  0  0  0  0  0
   59.3770   28.7990   48.6950 C   0  0  0  0  0  0  0  0  0  0  0  0
   59.2610   29.3170   49.9840 C   0  0  0  0  0  0  0  0  0  0  0  0
   58.9470   30.6610   50.1710 C   0  0  0  0  0  0  0  0  0  0  0  0
   58.7610   31.4960   49.0680 C   0  0  0  0  0  0  0  0  0  0  0  0
   58.8830   30.9970   47.7540 C   0  0  0  0  0  0  0  0  0  0  0  0
   58.6910   31.9320   46.6110 C   0  0  0  0  0  0  0  0  0  0  0  0
   59.5980   32.7630   46.3270 O   0  0  0  0  0  0  0  0  0  0  0  0
   57.5210   31.8500   45.7850 N   0  0  0  0  0  0  0  0  0  0  0  0
   57.4780   31.7930   44.3500 C   0  0  0  0  0  0  0  0  0  0  0  0
   58.1780   32.7390   43.5780 C   0  0  0  0  0  0  0  0  0  0  0  0
   58.1320   32.6930   42.1840 C   0  0  0  0  0  0  0  0  0  0  0  0
   57.3780   31.7150   41.5430 C   0  0  0  0  0  0  0  0  0  0  0  0
   56.6520   30.7870   42.2920 C   0  0  0  0  0  0  0  0  0  0  0  0
   56.6790   30.8160   43.7000 C   0  0  0  0  0  0  0  0  0  0  0  0
   55.8770   29.8120   44.4490 C   0  0  0  0  0  0  0  0  0  0  0  0
   56.2380   29.4020   45.5830 O   0  0  0  0  0  0  0  0  0  0  0  0
   54.7000   29.3100   43.9060 O   0  0  0  0  0  0  0  0  0  0  0  0
   57.5170   27.3180   46.1690 N   0  0  0  0  0  0  0  0  0  0  0  0
   57.1050   25.9430   46.0770 C   0  0  0  0  0  0  0  0  0  0  0  0
   58.0500   24.8990   46.1070 C   0  0  0  0  0  0  0  0  0  0  0  0
   57.6330   23.5660   46.0420 C   0  0  0  0  0  0  0  0  0  0  0  0
   56.2740   23.2610   45.9570 C   0  0  0  0  0  0  0  0  0  0  0  0
   55.3260   24.2870   45.9460 C   0  0  0  0  0  0  0  0  0  0  0  0
   55.7360   25.6240   46.0110 C   0  0  0  0  0  0  0  0  0  0  0  0
   54.7770   26.6310   45.9980 O   0  0  0  0  0  0  0  0  0  0  0  0
   59.6337   27.7385   48.5556 H   0  0  0  0  0  0  0  0  0  0  0  0
   59.4177   28.6633   50.8547 H   0  0  0  0  0  0  0  0  0  0  0  0
   58.8455   31.0649   51.1891 H   0  0  0  0  0  0  0  0  0  0  0  0
   58.5161   32.5568   49.2253 H   0  0  0  0  0  0  0  0  0  0  0  0
   58.7669   33.5220   44.0781 H   0  0  0  0  0  0  0  0  0  0  0  0
   58.6925   33.4309   41.5912 H   0  0  0  0  0  0  0  0  0  0  0  0
   57.3538   31.6729   40.4441 H   0  0  0  0  0  0  0  0  0  0  0  0
   56.0513   30.0235   41.7760 H   0  0  0  0  0  0  0  0  0  0  0  0
   56.8050   28.0340   46.4400 H   0  0  0  0  0  0  0  0  0  0  0  0
   59.1221   25.1337   46.1820 H   0  0  0  0  0  0  0  0  0  0  0  0
   58.3775   22.7564   46.0579 H   0  0  0  0  0  0  0  0  0  0  0  0
   55.9489   22.2118   45.8986 H   0  0  0  0  0  0  0  0  0  0  0  0
   54.2549   24.0438   45.8861 H   0  0  0  0  0  0  0  0  0  0  0  0
  1  2  2  0
  2  3  1  0
  3  4  1  0
  4  5  2  0
  5  6  1  0
  6  7  2  0
  7  8  1  0
  8  9  2  0
  9 10  1  0
 10 11  2  0
 10 12  1  0
 12 13  1  0
 13 14  2  0
 14 15  1  0
 15 16  2  0
 16 17  1  0
 17 18  2  0
 18 19  1  0
 19 20  2  0
 19 21  1  0
  2 22  1  0
 22 23  1  0
 23 24  2  0
 24 25  1  0
 25 26  2  0
 26 27  1  0
 27 28  2  0
 28 29  1  0
  9  4  1  0
 18 13  1  0
 28 23  1  0
  5 30  1  0
  6 31  1  0
  7 32  1  0
  8 33  1  0
 14 34  1  0
 15 35  1  0
 16 36  1  0
 17 37  1  0
 22 38  1  0
 24 39  1  0
 25 40  1  0
 26 41  1  0
 27 42  1  0
M  CHG  4   3  -1  12  -1  21  -1  29  -1
M  END
>  <UniqueID>  (55) 
50

>  <SMILES>  (55) 
O=C([N-]c1ccccc1C(=O)[N-]c1ccccc1C(=O)[O-])Nc1ccccc1[O-]

>  <Energy>  (55) 
62.59912852476786

>  <Genealogy>  (55) 
O=C([N-]c1ccccc1C(=O)[N-]c1ccccc1C(=O)[O-])Nc1ccccc1[O-] (protonated)
O=C([N-]c1ccccc1C(=O)[N-]c1ccccc1C(=O)[O-])Nc1ccccc1[O-] (3D coordinates assigned)
O=C([N-]c1ccccc1C(=O)[N-]c1ccccc1C(=O)[O-])Nc1ccccc1[O-] (optimized conformer: 62.59912852476786 kcal/mol)

>  <smiles>  (55) 
O=C(Nc1ccccc1O)Nc1ccccc1C(=O)Nc1ccccc1C(=O)O

>  <score_type>  (55) 
oracle

>  <origin>  (55) 
adg

>  <m_score__min__energy>  (55) 
-16.600000000000001

>  <m_primary>  (55) 
energy

$$$$
55:0
     RDKit          3D

 69 72  0  0  1  0  0  0  0  0999 V2000
   66.3640   32.7510   50.1370 C   0  0  0  0  0  0  0  0  0  0  0  0
   64.9470   33.2870   49.9570 C   0  0  0  0  0  0  0  0  0  0  0  0
   64.0860   32.1030   49.5760 C   0  0  0  0  0  0  0  0  0  0  0  0
   62.9140   32.4760   48.7440 C   0  0  0  0  0  0  0  0  0  0  0  0
   62.0610   33.4600   49.2560 C   0  0  0  0  0  0  0  0  0  0  0  0
   60.9490   33.8680   48.5490 C   0  0  0  0  0  0  0  0  0  0  0  0
   60.6740   33.2990   47.3210 C   0  0  0  0  0  0  0  0  0  0  0  0
   59.2510   33.8690   46.4810 S   0  0  0  0  0  0  0  0  0  0  0  0
   58.6970   35.1110   47.1200 O   0  0  0  0  0  0  0  0  0  0  0  0
   59.5700   34.1900   45.0640 O   0  0  0  0  0  0  0  0  0  0  0  0
   58.0210   32.6530   46.5540 N   0  0  0  0  0  0  0  0  0  0  0  0
   57.3370   32.5240   45.2830 C   0  0  0  0  0  0  0  0  0  0  0  0
   58.1880   31.6340   44.3940 C   0  0  2  0  0  0  0  0  0  0  0  0
   58.0810   32.0770   42.9440 C   0  0  0  0  0  0  0  0  0  0  0  0
   56.9590   31.2340   42.3660 C   0  0  0  0  0  0  0  0  0  0  0  0
   57.0530   29.9540   43.1140 C   0  0  0  0  0  0  0  0  0  0  0  0
   57.6910   30.2780   44.3630 N   0  0  0  0  0  0  0  0  0  0  0  0
   57.7830   29.3090   45.4290 C   0  0  0  0  0  0  0  0  0  0  0  0
   58.4880   29.6050   46.5790 C   0  0  0  0  0  0  0  0  0  0  0  0
   58.5770   28.6830   47.6000 C   0  0  0  0  0  0  0  0  0  0  0  0
   59.2320   28.9540   48.6650 N   0  0  0  0  0  0  0  0  0  0  0  0
   60.4260   29.7500   48.7350 C   0  0  0  0  0  0  0  0  0  0  0  0
   60.8300   29.9440   50.1400 C   0  0  0  0  0  0  0  0  0  0  0  0
   62.0370   29.3870   50.5610 C   0  0  0  0  0  0  0  0  0  0  0  0
   62.5050   29.5140   51.8490 C   0  0  0  0  0  0  0  0  0  0  0  0
   61.7260   30.2300   52.7450 C   0  0  0  0  0  0  0  0  0  0  0  0
   60.5440   30.7700   52.3190 C   0  0  0  0  0  0  0  0  0  0  0  0
   60.0650   30.6480   51.0220 C   0  0  0  0  0  0  0  0  0  0  0  0
   58.5540   31.3870   50.5740 S   0  0  0  0  0  0  0  0  0  0  0  0
   58.5440   31.8120   48.9120 N   0  0  0  0  0  0  0  0  0  0  0  0
   57.3890   30.4840   50.8710 O   0  0  0  0  0  0  0  0  0  0  0  0
   58.3700   32.6340   51.4120 O   0  0  0  0  0  0  0  0  0  0  0  0
   57.9750   27.4950   47.4750 N   0  0  0  0  0  0  0  0  0  0  0  0
   57.2870   27.1990   46.3650 C   0  0  0  0  0  0  0  0  0  0  0  0
   57.2010   28.1050   45.3620 N   0  0  0  0  0  0  0  0  0  0  0  0
   61.5100   32.3250   46.8030 C   0  0  0  0  0  0  0  0  0  0  0  0
   62.6410   31.9060   47.5170 C   0  0  0  0  0  0  0  0  0  0  0  0
   66.5901   32.6655   51.2101 H   0  0  0  0  0  0  0  0  0  0  0  0
   66.4440   31.7605   49.6653 H   0  0  0  0  0  0  0  0  0  0  0  0
   67.0795   33.4406   49.6653 H   0  0  0  0  0  0  0  0  0  0  0  0
   64.5869   33.7324   50.8961 H   0  0  0  0  0  0  0  0  0  0  0  0
   64.9124   34.0694   49.1846 H   0  0  0  0  0  0  0  0  0  0  0  0
   64.7033   31.3893   49.0106 H   0  0  0  0  0  0  0  0  0  0  0  0
   63.6993   31.6663   50.5086 H   0  0  0  0  0  0  0  0  0  0  0  0
   62.2798   33.9136   50.2339 H   0  0  0  0  0  0  0  0  0  0  0  0
   60.2850   34.6422   48.9610 H   0  0  0  0  0  0  0  0  0  0  0  0
   58.4040   31.7400   46.8870 H   0  0  0  0  0  0  0  0  0  0  0  0
   56.3475   32.0679   45.4338 H   0  0  0  0  0  0  0  0  0  0  0  0
   57.1933   33.5109   44.8188 H   0  0  0  0  0  0  0  0  0  0  0  0
   59.2075   31.6981   44.8020 H   0  0  0  0  0  0  0  0  0  0  0  0
   57.8336   33.1471   42.8824 H   0  0  0  0  0  0  0  0  0  0  0  0
   59.0261   31.9439   42.3971 H   0  0  0  0  0  0  0  0  0  0  0  0
   55.9832   31.7138   42.5323 H   0  0  0  0  0  0  0  0  0  0  0  0
   57.0478   31.0974   41.2781 H   0  0  0  0  0  0  0  0  0  0  0  0
   56.0498   29.5394   43.2921 H   0  0  0  0  0  0  0  0  0  0  0  0
   57.6205   29.1969   42.5529 H   0  0  0  0  0  0  0  0  0  0  0  0
   58.9817   30.5827   46.6810 H   0  0  0  0  0  0  0  0  0  0  0  0
   61.2349   29.2394   48.1920 H   0  0  0  0  0  0  0  0  0  0  0  0
   60.2285   30.7321   48.2805 H   0  0  0  0  0  0  0  0  0  0  0  0
   62.6398   28.8230   49.8339 H   0  0  0  0  0  0  0  0  0  0  0  0
   63.4609   29.0645   52.1560 H   0  0  0  0  0  0  0  0  0  0  0  0
   62.0549   30.3622   53.7863 H   0  0  0  0  0  0  0  0  0  0  0  0
   59.9388   31.3327   53.0451 H   0  0  0  0  0  0  0  0  0  0  0  0
   57.8340   32.5390   48.7510 H   0  0  0  0  0  0  0  0  0  0  0  0
   58.5280   31.0100   48.2820 H   0  0  0  0  0  0  0  0  0  0  0  0
   56.7923   26.2213   46.2679 H   0  0  0  0  0  0  0  0  0  0  0  0
   56.6450   27.8100   44.5340 H   0  0  0  0  0  0  0  0  0  0  0  0
   61.2852   31.8766   45.8240 H   0  0  0  0  0  0  0  0  0  0  0  0
   63.3038   31.1313   47.1040 H   0  0  0  0  0  0  0  0  0  0  0  0
  1  2  1  0
  2  3  1  0
  3  4  1  0
  4  5  2  0
  5  6  1  0
  6  7  2  0
  7  8  1  0
  8  9  2  0
  8 10  2  0
  8 11  1  0
 11 12  1  0
 12 13  1  0
 13 14  1  0
 14 15  1  0
 15 16  1  0
 16 17  1  0
 17 18  1  0
 18 19  2  0
 19 20  1  0
 20 21  2  0
 21 22  1  0
 22 23  1  0
 23 24  2  0
 24 25  1  0
 25 26  2  0
 26 27  1  0
 27 28  2  0
 28 29  1  0
 29 30  1  0
 29 31  2  0
 29 32  2  0
 20 33  1  0
 33 34  2  0
 34 35  1  0
  7 36  1  0
 36 37  2  0
 37  4  1  0
 17 13  1  0
 35 18  1  0
 28 23  1  0
  1 38  1  0
  1 39  1  0
  1 40  1  0
  2 41  1  0
  2 42  1  0
  3 43  1  0
  3 44  1  0
  5 45  1  0
  6 46  1  0
 11 47  1  0
 12 48  1  0
 12 49  1  0
 13 50  1  1
 14 51  1  0
 14 52  1  0
 15 53  1  0
 15 54  1  0
 16 55  1  0
 16 56  1  0
 19 57  1  0
 22 58  1  0
 22 59  1  0
 24 60  1  0
 25 61  1  0
 26 62  1  0
 27 63  1  0
 30 64  1  0
 30 65  1  0
 34 66  1  0
 35 67  1  0
 36 68  1  0
 37 69  1  0
M  END
>  <smiles>  (56) 
CCCc1ccc(S(=O)(=O)NCC2CCCN2c2cc(=NCc3ccccc3S(N)(=O)=O)nc[nH]2)cc1

>  <score_type>  (56) 
oracle

>  <origin>  (56) 
adg

>  <m_score__min__energy>  (56) 
-10.69

>  <m_primary>  (56) 
energy

$$$$
56:0
     RDKit          3D

 44 46  0  0  0  0  0  0  0  0999 V2000
   63.0200   33.7010   47.4400 C   0  0  0  0  0  0  0  0  0  0  0  0
   61.9360   33.8280   46.3700 C   0  0  0  0  0  0  0  0  0  0  0  0
   60.7600   34.5910   46.8530 N   0  0  0  0  0  0  0  0  0  0  0  0
   60.1640   34.0580   48.0980 C   0  0  0  0  0  0  0  0  0  0  0  0
   59.6090   32.6440   47.8970 C   0  0  0  0  0  0  0  0  0  0  0  0
   58.9690   32.5130   46.5820 N   0  0  0  0  0  0  0  0  0  0  0  0
   58.4680   31.2280   46.1690 C   0  0  0  0  0  0  0  0  0  0  0  0
   58.9710   30.0480   46.7410 C   0  0  0  0  0  0  0  0  0  0  0  0
   58.4850   28.8010   46.3370 C   0  0  0  0  0  0  0  0  0  0  0  0
   57.4760   28.7110   45.3670 C   0  0  0  0  0  0  0  0  0  0  0  0
   57.0100   27.4150   44.9540 N   0  0  0  0  0  0  0  0  0  0  0  0
   56.6510   26.3630   45.8670 C   0  0  0  0  0  0  0  0  0  0  0  0
   57.0000   26.4330   47.0780 O   0  0  0  0  0  0  0  0  0  0  0  0
   55.9070   25.1790   45.3860 C   0  0  0  0  0  0  0  0  0  0  0  0
   56.5100   24.2350   44.5410 C   0  0  0  0  0  0  0  0  0  0  0  0
   55.7600   23.1340   44.1230 C   0  0  0  0  0  0  0  0  0  0  0  0
   56.2720   22.2710   43.3640 O   0  0  0  0  0  0  0  0  0  0  0  0
   54.4740   22.9940   44.5350 N   0  0  0  0  0  0  0  0  0  0  0  0
   53.9020   23.9130   45.3550 C   0  0  0  0  0  0  0  0  0  0  0  0
   52.7080   23.7660   45.7280 O   0  0  0  0  0  0  0  0  0  0  0  0
   54.6150   24.9910   45.7730 N   0  0  0  0  0  0  0  0  0  0  0  0
   56.9840   29.8900   44.7810 C   0  0  0  0  0  0  0  0  0  0  0  0
   57.4720   31.1370   45.1830 C   0  0  0  0  0  0  0  0  0  0  0  0
   58.5880   33.7230   45.8420 C   0  0  0  0  0  0  0  0  0  0  0  0
   59.7380   34.7560   45.7900 C   0  0  0  0  0  0  0  0  0  0  0  0
   62.5589   33.7550   48.4373 H   0  0  0  0  0  0  0  0  0  0  0  0
   63.5361   32.7362   47.3264 H   0  0  0  0  0  0  0  0  0  0  0  0
   63.7451   34.5203   47.3264 H   0  0  0  0  0  0  0  0  0  0  0  0
   62.3594   34.3450   45.4962 H   0  0  0  0  0  0  0  0  0  0  0  0
   61.5976   32.8142   46.1097 H   0  0  0  0  0  0  0  0  0  0  0  0
   60.9367   34.0304   48.8804 H   0  0  0  0  0  0  0  0  0  0  0  0
   59.3323   34.7158   48.3905 H   0  0  0  0  0  0  0  0  0  0  0  0
   60.4339   31.9199   47.9695 H   0  0  0  0  0  0  0  0  0  0  0  0
   58.8560   32.4488   48.6747 H   0  0  0  0  0  0  0  0  0  0  0  0
   59.7530   30.1054   47.5125 H   0  0  0  0  0  0  0  0  0  0  0  0
   58.8969   27.8838   46.7831 H   0  0  0  0  0  0  0  0  0  0  0  0
   57.0190   27.2000   43.9310 H   0  0  0  0  0  0  0  0  0  0  0  0
   57.5529   24.3599   44.2143 H   0  0  0  0  0  0  0  0  0  0  0  0
   56.2103   29.8313   44.0013 H   0  0  0  0  0  0  0  0  0  0  0  0
   57.0730   32.0534   44.7237 H   0  0  0  0  0  0  0  0  0  0  0  0
   58.3177   33.4403   44.8139 H   0  0  0  0  0  0  0  0  0  0  0  0
   57.7377   34.1868   46.3635 H   0  0  0  0  0  0  0  0  0  0  0  0
   60.2385   34.6646   44.8147 H   0  0  0  0  0  0  0  0  0  0  0  0
   59.2796   35.7436   45.9465 H   0  0  0  0  0  0  0  0  0  0  0  0
  1  2  1  0
  2  3  1  0
  3  4  1  0
  4  5  1  0
  5  6  1  0
  6  7  1  0
  7  8  2  0
  8  9  1  0
  9 10  2  0
 10 11  1  0
 11 12  1  0
 12 13  2  0
 12 14  1  0
 14 15  2  0
 15 16  1  0
 16 17  2  0
 16 18  1  0
 18 19  1  0
 19 20  2  0
 19 21  1  0
 10 22  1  0
 22 23  2  0
  6 24  1  0
 24 25  1  0
 25  3  1  0
 23  7  1  0
 21 14  1  0
  1 26  1  0
  1 27  1  0
  1 28  1  0
  2 29  1  0
  2 30  1  0
  4 31  1  0
  4 32  1  0
  5 33  1  0
  5 34  1  0
  8 35  1  0
  9 36  1  0
 11 37  1  0
 15 38  1  0
 22 39  1  0
 23 40  1  0
 24 41  1  0
 24 42  1  0
 25 43  1  0
 25 44  1  0
M  CHG  2  18  -1  21  -1
M  END
>  <UniqueID>  (57) 
51

>  <SMILES>  (57) 
CCN1CCN(c2ccc(NC(=O)c3cc(=O)[n-]c(=O)[n-]3)cc2)CC1

>  <Energy>  (57) 
62.01722491404774

>  <Genealogy>  (57) 
CCN1CCN(c2ccc(NC(=O)c3cc(=O)[n-]c(=O)[n-]3)cc2)CC1 (protonated)
CCN1CCN(c2ccc(NC(=O)c3cc(=O)[n-]c(=O)[n-]3)cc2)CC1 (3D coordinates assigned)
CCN1CCN(c2ccc(NC(=O)c3cc(=O)[n-]c(=O)[n-]3)cc2)CC1 (nonaromatic ring conformer: 62.01722491404774 kcal/mol)

>  <smiles>  (57) 
CCN1CCN(c2ccc(NC(=O)c3cc(=O)[nH]c(=O)[nH]3)cc2)CC1

>  <score_type>  (57) 
oracle

>  <origin>  (57) 
adg

>  <m_score__min__energy>  (57) 
-11.77

>  <m_primary>  (57) 
energy

$$$$
57:0
     RDKit          3D

 34 36  0  0  0  0  0  0  0  0999 V2000
   55.1960   26.6020   46.0000 O   0  0  0  0  0  0  0  0  0  0  0  0
   56.1730   25.8040   46.0040 C   0  0  0  0  0  0  0  0  0  0  0  0
   57.2830   26.0480   46.8710 N   0  0  0  0  0  0  0  0  0  0  0  0
   58.3900   26.9230   46.5130 C   0  0  0  0  0  0  0  0  0  0  0  0
   58.0230   28.3690   46.8330 C   0  0  0  0  0  0  0  0  0  0  0  0
   57.8290   29.1570   45.5720 C   0  0  0  0  0  0  0  0  0  0  0  0
   57.6220   28.6400   44.2960 C   0  0  0  0  0  0  0  0  0  0  0  0
   57.5630   29.6410   43.3870 N   0  0  0  0  0  0  0  0  0  0  0  0
   57.7450   30.7810   44.0760 C   0  0  0  0  0  0  0  0  0  0  0  0
   57.7860   32.0780   43.5670 C   0  0  0  0  0  0  0  0  0  0  0  0
   58.0120   33.1320   44.4710 C   0  0  0  0  0  0  0  0  0  0  0  0
   58.1930   32.8690   45.8470 C   0  0  0  0  0  0  0  0  0  0  0  0
   58.1490   31.5480   46.3330 C   0  0  0  0  0  0  0  0  0  0  0  0
   57.9180   30.5260   45.4120 C   0  0  0  0  0  0  0  0  0  0  0  0
   56.1810   24.6400   45.0820 C   0  0  0  0  0  0  0  0  0  0  0  0
   55.4310   23.4710   45.3430 C   0  0  0  0  0  0  0  0  0  0  0  0
   54.3590   23.3370   46.7370 Cl  0  0  0  0  0  0  0  0  0  0  0  0
   55.4810   22.4260   44.4740 N   0  0  0  0  0  0  0  0  0  0  0  0
   56.2360   22.4840   43.3460 C   0  0  0  0  0  0  0  0  0  0  0  0
   56.2670   21.5060   42.5530 O   0  0  0  0  0  0  0  0  0  0  0  0
   56.9580   23.5970   43.0690 N   0  0  0  0  0  0  0  0  0  0  0  0
   56.9480   24.6690   43.9000 C   0  0  0  0  0  0  0  0  0  0  0  0
   57.6460   25.6760   43.6070 O   0  0  0  0  0  0  0  0  0  0  0  0
   59.2836   26.6364   47.0869 H   0  0  0  0  0  0  0  0  0  0  0  0
   58.5976   26.8282   45.4369 H   0  0  0  0  0  0  0  0  0  0  0  0
   57.0902   28.3845   47.4158 H   0  0  0  0  0  0  0  0  0  0  0  0
   58.8414   28.8223   47.4115 H   0  0  0  0  0  0  0  0  0  0  0  0
   57.5208   27.5703   44.0602 H   0  0  0  0  0  0  0  0  0  0  0  0
   57.4200   29.5410   42.3570 H   0  0  0  0  0  0  0  0  0  0  0  0
   57.6462   32.2712   42.4932 H   0  0  0  0  0  0  0  0  0  0  0  0
   58.0480   34.1682   44.1037 H   0  0  0  0  0  0  0  0  0  0  0  0
   58.3695   33.7017   46.5437 H   0  0  0  0  0  0  0  0  0  0  0  0
   58.2918   31.3296   47.4016 H   0  0  0  0  0  0  0  0  0  0  0  0
   54.9190   21.5660   44.6710 H   0  0  0  0  0  0  0  0  0  0  0  0
  1  2  2  0
  2  3  1  0
  3  4  1  0
  4  5  1  0
  5  6  1  0
  6  7  2  0
  7  8  1  0
  8  9  1  0
  9 10  2  0
 10 11  1  0
 11 12  2  0
 12 13  1  0
 13 14  2  0
  2 15  1  0
 15 16  2  0
 16 17  1  0
 16 18  1  0
 18 19  1  0
 19 20  2  0
 19 21  1  0
 21 22  1  0
 22 23  2  0
 14  6  1  0
 22 15  1  0
 14  9  1  0
  4 24  1  0
  4 25  1  0
  5 26  1  0
  5 27  1  0
  7 28  1  0
  8 29  1  0
 10 30  1  0
 11 31  1  0
 12 32  1  0
 13 33  1  0
 18 34  1  0
M  CHG  2   3  -1  21  -1
M  END
>  <UniqueID>  (58) 
52

>  <SMILES>  (58) 
O=C([N-]CCc1c[nH]c2ccccc12)c1c(Cl)[nH]c(=O)[n-]c1=O

>  <Energy>  (58) 
71.02038278612375

>  <Genealogy>  (58) 
O=C([N-]CCc1c[nH]c2ccccc12)c1c(Cl)[nH]c(=O)[n-]c1=O (protonated)
O=C([N-]CCc1c[nH]c2ccccc12)c1c(Cl)[nH]c(=O)[n-]c1=O (3D coordinates assigned)
O=C([N-]CCc1c[nH]c2ccccc12)c1c(Cl)[nH]c(=O)[n-]c1=O (optimized conformer: 71.02038278612375 kcal/mol)

>  <smiles>  (58) 
O=C(NCCc1c[nH]c2ccccc12)c1c(Cl)[nH]c(=O)[nH]c1=O

>  <score_type>  (58) 
oracle

>  <origin>  (58) 
adg

>  <m_score__min__energy>  (58) 
-11.890000000000001

>  <m_primary>  (58) 
energy

$$$$
58:0
     RDKit          3D

 35 36  0  0  1  0  0  0  0  0999 V2000
   57.1150   30.9660   45.4870 O   0  0  0  0  0  0  0  0  0  0  0  0
   57.8000   31.0400   44.4020 C   0  0  0  0  0  0  0  0  0  0  0  0
   57.6450   32.2690   43.6200 C   0  0  0  0  0  0  0  0  0  0  0  0
   57.4130   33.7870   44.5170 S   0  0  0  0  0  0  0  0  0  0  0  0
   58.4320   33.8160   45.9640 C   0  0  0  0  0  0  0  0  0  0  0  0
   58.1470   33.2190   47.1590 C   0  0  0  0  0  0  0  0  0  0  0  0
   58.9950   33.3000   48.2690 C   0  0  0  0  0  0  0  0  0  0  0  0
   60.1790   34.0070   48.1870 C   0  0  0  0  0  0  0  0  0  0  0  0
   60.4670   34.6070   46.9860 C   0  0  0  0  0  0  0  0  0  0  0  0
   59.6310   34.5270   45.8920 C   0  0  0  0  0  0  0  0  0  0  0  0
   58.6070   29.9310   44.1080 N   0  0  0  0  0  0  0  0  0  0  0  0
   58.6620   28.7990   44.9730 C   0  0  0  0  0  0  0  0  0  0  0  0
   59.8210   28.4410   45.6410 C   0  0  0  0  0  0  0  0  0  0  0  0
   59.8740   27.3490   46.4760 C   0  0  0  0  0  0  0  0  0  0  0  0
   58.7540   26.5560   46.6830 C   0  0  0  0  0  0  0  0  0  0  0  0
   57.5710   26.8970   46.0190 C   0  0  0  0  0  0  0  0  0  0  0  0
   56.3610   26.1110   46.1980 C   0  0  0  0  0  0  0  0  0  0  0  0
   55.1230   26.7060   46.0010 O   0  0  0  0  0  0  0  0  0  0  0  0
   56.3560   24.8640   46.5360 N   0  0  0  0  0  0  0  0  0  0  0  0
   55.1680   24.2570   46.9360 O   0  0  0  0  0  0  0  0  0  0  0  0
   57.5430   28.0110   45.1750 C   0  0  0  0  0  0  0  0  0  0  0  0
   58.5493   32.3845   43.0045 H   0  0  0  0  0  0  0  0  0  0  0  0
   56.7096   32.1287   43.0585 H   0  0  0  0  0  0  0  0  0  0  0  0
   57.2103   32.6499   47.2528 H   0  0  0  0  0  0  0  0  0  0  0  0
   58.7183   32.7997   49.2088 H   0  0  0  0  0  0  0  0  0  0  0  0
   60.8612   34.0858   49.0463 H   0  0  0  0  0  0  0  0  0  0  0  0
   61.4041   35.1755   46.8925 H   0  0  0  0  0  0  0  0  0  0  0  0
   59.9118   35.0282   44.9539 H   0  0  0  0  0  0  0  0  0  0  0  0
   59.1590   29.9390   43.2390 H   0  0  0  0  0  0  0  0  0  0  0  0
   60.7271   29.0485   45.4996 H   0  0  0  0  0  0  0  0  0  0  0  0
   60.8164   27.1011   46.9863 H   0  0  0  0  0  0  0  0  0  0  0  0
   58.7955   25.6831   47.3510 H   0  0  0  0  0  0  0  0  0  0  0  0
   54.2660   26.3400   46.3970 H   0  0  0  0  0  0  0  0  0  0  0  0
   54.3400   24.8320   46.7540 H   0  0  0  0  0  0  0  0  0  0  0  0
   56.6067   28.2678   44.6579 H   0  0  0  0  0  0  0  0  0  0  0  0
  1  2  2  0
  2  3  1  0
  3  4  1  0
  4  5  1  0
  5  6  2  0
  6  7  1  0
  7  8  2  0
  8  9  1  0
  9 10  2  0
  2 11  1  0
 11 12  1  0
 12 13  2  0
 13 14  1  0
 14 15  2  0
 15 16  1  0
 16 17  1  0
 17 18  1  0
 17 19  2  0
 19 20  1  0
 16 21  2  0
 10  5  1  0
 21 12  1  0
  3 22  1  0
  3 23  1  0
  6 24  1  0
  7 25  1  0
  8 26  1  0
  9 27  1  0
 10 28  1  0
 11 29  1  0
 13 30  1  0
 14 31  1  0
 15 32  1  0
 18 33  1  0
 20 34  1  0
 21 35  1  0
M  END
>  <smiles>  (59) 
O=C(CSc1ccccc1)Nc1cccc(C(O)=NO)c1

>  <score_type>  (59) 
oracle

>  <origin>  (59) 
adg

>  <m_score__min__energy>  (59) 
-9.9100000000000001

>  <m_primary>  (59) 
energy

$$$$
59:0
     RDKit          3D

 38 39  0  0  0  0  0  0  0  0999 V2000
   58.4470   21.5130   45.8390 N   0  0  0  0  0  0  0  0  0  0  0  0
   57.5260   22.0760   44.8960 C   0  0  0  0  0  0  0  0  0  0  0  0
   57.4410   21.5210   43.6080 C   0  0  0  0  0  0  0  0  0  0  0  0
   56.5720   22.0650   42.6590 C   0  0  0  0  0  0  0  0  0  0  0  0
   55.7830   23.1680   42.9840 C   0  0  0  0  0  0  0  0  0  0  0  0
   55.8540   23.7270   44.2610 C   0  0  0  0  0  0  0  0  0  0  0  0
   56.7100   23.1810   45.2280 C   0  0  0  0  0  0  0  0  0  0  0  0
   56.7580   23.9400   46.8610 S   0  0  0  0  0  0  0  0  0  0  0  0
   57.3960   25.5580   46.2860 C   0  0  0  0  0  0  0  0  0  0  0  0
   56.2830   26.4740   45.7810 C   0  0  0  0  0  0  0  0  0  0  0  0
   56.6550   27.8710   45.9730 N   0  0  0  0  0  0  0  0  0  0  0  0
   56.4120   28.9090   45.0170 C   0  0  0  0  0  0  0  0  0  0  0  0
   55.2390   29.3490   44.8880 O   0  0  0  0  0  0  0  0  0  0  0  0
   57.5390   29.5390   44.2400 C   0  0  0  0  0  0  0  0  0  0  0  0
   57.0350   31.1010   43.4310 S   0  0  0  0  0  0  0  0  0  0  0  0
   57.7120   32.1690   44.7050 C   0  0  0  0  0  0  0  0  0  0  0  0
   57.8010   33.5510   44.4910 C   0  0  0  0  0  0  0  0  0  0  0  0
   58.2920   34.3860   45.5000 C   0  0  0  0  0  0  0  0  0  0  0  0
   58.6950   33.8430   46.7240 C   0  0  0  0  0  0  0  0  0  0  0  0
   58.6110   32.4640   46.9390 C   0  0  0  0  0  0  0  0  0  0  0  0
   58.1160   31.6270   45.9320 C   0  0  0  0  0  0  0  0  0  0  0  0
   58.9170   20.5960   45.6790 H   0  0  0  0  0  0  0  0  0  0  0  0
   58.6560   22.0120   46.7300 H   0  0  0  0  0  0  0  0  0  0  0  0
   58.0628   20.6525   43.3452 H   0  0  0  0  0  0  0  0  0  0  0  0
   56.5100   21.6226   41.6538 H   0  0  0  0  0  0  0  0  0  0  0  0
   55.1039   23.5980   42.2331 H   0  0  0  0  0  0  0  0  0  0  0  0
   55.2346   24.6012   44.5103 H   0  0  0  0  0  0  0  0  0  0  0  0
   57.9093   26.0535   47.1232 H   0  0  0  0  0  0  0  0  0  0  0  0
   58.0832   25.3700   45.4479 H   0  0  0  0  0  0  0  0  0  0  0  0
   56.1157   26.2863   44.7101 H   0  0  0  0  0  0  0  0  0  0  0  0
   55.3627   26.2664   46.3467 H   0  0  0  0  0  0  0  0  0  0  0  0
   58.3699   29.7496   44.9294 H   0  0  0  0  0  0  0  0  0  0  0  0
   57.8406   28.8334   43.4519 H   0  0  0  0  0  0  0  0  0  0  0  0
   57.4844   33.9796   43.5286 H   0  0  0  0  0  0  0  0  0  0  0  0
   58.3612   35.4707   45.3305 H   0  0  0  0  0  0  0  0  0  0  0  0
   59.0782   34.5009   47.5179 H   0  0  0  0  0  0  0  0  0  0  0  0
   58.9340   32.0367   47.8998 H   0  0  0  0  0  0  0  0  0  0  0  0
   58.0442   30.5430   46.1043 H   0  0  0  0  0  0  0  0  0  0  0  0
  1  2  1  0
  2  3  2  0
  3  4  1  0
  4  5  2  0
  5  6  1  0
  6  7  2  0
  7  8  1  0
  8  9  1  0
  9 10  1  0
 10 11  1  0
 11 12  1  0
 12 13  2  0
 12 14  1  0
 14 15  1  0
 15 16  1  0
 16 17  2  0
 17 18  1  0
 18 19  2  0
 19 20  1  0
 20 21  2  0
  7  2  1  0
 21 16  1  0
  1 22  1  0
  1 23  1  0
  3 24  1  0
  4 25  1  0
  5 26  1  0
  6 27  1  0
  9 28  1  0
  9 29  1  0
 10 30  1  0
 10 31  1  0
 14 32  1  0
 14 33  1  0
 17 34  1  0
 18 35  1  0
 19 36  1  0
 20 37  1  0
 21 38  1  0
M  CHG  1  11  -1
M  END
>  <UniqueID>  (60) 
53

>  <SMILES>  (60) 
Nc1ccccc1SCC[N-]C(=O)CSc1ccccc1

>  <Energy>  (60) 
25.619123929931288

>  <Genealogy>  (60) 
Nc1ccccc1SCC[N-]C(=O)CSc1ccccc1 (protonated)
Nc1ccccc1SCC[N-]C(=O)CSc1ccccc1 (3D coordinates assigned)
Nc1ccccc1SCC[N-]C(=O)CSc1ccccc1 (optimized conformer: 25.619123929931288 kcal/mol)

>  <smiles>  (60) 
Nc1ccccc1SCCNC(=O)CSc1ccccc1

>  <score_type>  (60) 
oracle

>  <origin>  (60) 
adg

>  <m_score__min__energy>  (60) 
-9.9199999999999999

>  <m_primary>  (60) 
energy

$$$$
60:0
     RDKit          3D

 52 55  0  0  0  0  0  0  0  0999 V2000
   54.1680   23.0700   46.6840 C   0  0  0  0  0  0  0  0  0  0  0  0
   54.7060   23.9740   45.7250 O   0  0  0  0  0  0  0  0  0  0  0  0
   55.9730   24.5700   45.8180 C   0  0  0  0  0  0  0  0  0  0  0  0
   57.1610   23.8160   45.7650 C   0  0  0  0  0  0  0  0  0  0  0  0
   58.4010   24.4490   45.8630 C   0  0  0  0  0  0  0  0  0  0  0  0
   58.4720   25.8340   46.0120 C   0  0  0  0  0  0  0  0  0  0  0  0
   57.3000   26.6040   46.0640 C   0  0  0  0  0  0  0  0  0  0  0  0
   57.3930   28.1080   46.2060 C   0  0  0  0  0  0  0  0  0  0  0  0
   56.5760   28.8180   45.2060 N   0  0  0  0  0  0  0  0  0  0  0  0
   57.3810   29.4440   44.1460 C   0  0  0  0  0  0  0  0  0  0  0  0
   57.8090   30.8320   44.5470 C   0  0  0  0  0  0  0  0  0  0  0  0
   57.4030   31.9480   43.7980 C   0  0  0  0  0  0  0  0  0  0  0  0
   57.8040   33.2310   44.1760 C   0  0  0  0  0  0  0  0  0  0  0  0
   58.6190   33.4140   45.2970 C   0  0  0  0  0  0  0  0  0  0  0  0
   58.9690   34.7040   45.6810 O   0  0  0  0  0  0  0  0  0  0  0  0
   59.0550   32.2990   46.0390 C   0  0  0  0  0  0  0  0  0  0  0  0
   59.8770   32.4350   47.1660 O   0  0  0  0  0  0  0  0  0  0  0  0
   59.4260   32.4360   48.4950 C   0  0  0  0  0  0  0  0  0  0  0  0
   59.7460   33.5280   49.3100 C   0  0  0  0  0  0  0  0  0  0  0  0
   59.3050   33.5760   50.6360 C   0  0  0  0  0  0  0  0  0  0  0  0
   58.5420   32.5250   51.1660 C   0  0  0  0  0  0  0  0  0  0  0  0
   58.1970   31.4370   50.3420 C   0  0  0  0  0  0  0  0  0  0  0  0
   58.6320   31.3970   49.0120 C   0  0  0  0  0  0  0  0  0  0  0  0
   57.4040   30.3670   50.8630 N   0  0  0  0  0  0  0  0  0  0  0  0
   57.1210   30.2890   52.2610 C   0  0  0  0  0  0  0  0  0  0  0  0
   56.3640   29.3830   52.6980 O   0  0  0  0  0  0  0  0  0  0  0  0
   57.7960   31.2380   53.2100 C   0  0  0  0  0  0  0  0  0  0  0  0
   57.9790   32.6190   52.5650 C   0  0  0  0  0  0  0  0  0  0  0  0
   58.6260   31.0180   45.6720 C   0  0  0  0  0  0  0  0  0  0  0  0
   56.0490   25.9630   45.9680 C   0  0  0  0  0  0  0  0  0  0  0  0
   54.8740   26.7070   46.0260 O   0  0  0  0  0  0  0  0  0  0  0  0
   54.3867   23.4375   47.6974 H   0  0  0  0  0  0  0  0  0  0  0  0
   53.0790   22.9963   46.5478 H   0  0  0  0  0  0  0  0  0  0  0  0
   54.6226   22.0776   46.5478 H   0  0  0  0  0  0  0  0  0  0  0  0
   57.1116   22.7236   45.6459 H   0  0  0  0  0  0  0  0  0  0  0  0
   59.3252   23.8538   45.8226 H   0  0  0  0  0  0  0  0  0  0  0  0
   59.4529   26.3258   46.0892 H   0  0  0  0  0  0  0  0  0  0  0  0
   57.0456   28.3902   47.2108 H   0  0  0  0  0  0  0  0  0  0  0  0
   58.4427   28.3957   46.0471 H   0  0  0  0  0  0  0  0  0  0  0  0
   55.9090   28.1450   44.7620 H   0  0  0  0  0  0  0  0  0  0  0  0
   58.2751   28.8301   43.9622 H   0  0  0  0  0  0  0  0  0  0  0  0
   56.7697   29.5136   43.2341 H   0  0  0  0  0  0  0  0  0  0  0  0
   56.7672   31.8112   42.9109 H   0  0  0  0  0  0  0  0  0  0  0  0
   57.4771   34.1019   43.5889 H   0  0  0  0  0  0  0  0  0  0  0  0
   60.3486   34.3541   48.9045 H   0  0  0  0  0  0  0  0  0  0  0  0
   59.5574   34.4415   51.2662 H   0  0  0  0  0  0  0  0  0  0  0  0
   58.3517   30.5497   48.3690 H   0  0  0  0  0  0  0  0  0  0  0  0
   57.1794   31.3419   54.1150 H   0  0  0  0  0  0  0  0  0  0  0  0
   58.7872   30.8348   53.4650 H   0  0  0  0  0  0  0  0  0  0  0  0
   57.0016   33.1216   52.5206 H   0  0  0  0  0  0  0  0  0  0  0  0
   58.6934   33.1868   53.1792 H   0  0  0  0  0  0  0  0  0  0  0  0
   58.9327   30.1485   46.2719 H   0  0  0  0  0  0  0  0  0  0  0  0
  1  2  1  0
  2  3  1  0
  3  4  2  0
  4  5  1  0
  5  6  2  0
  6  7  1  0
  7  8  1  0
  8  9  1  0
  9 10  1  0
 10 11  1  0
 11 12  2  0
 12 13  1  0
 13 14  2  0
 14 15  1  0
 14 16  1  0
 16 17  1  0
 17 18  1  0
 18 19  2  0
 19 20  1  0
 20 21  2  0
 21 22  1  0
 22 23  2  0
 22 24  1  0
 24 25  1  0
 25 26  2  0
 25 27  1  0
 27 28  1  0
 16 29  2  0
  7 30  2  0
 30 31  1  0
 30  3  1  0
 29 11  1  0
 23 18  1  0
 28 21  1  0
  1 32  1  0
  1 33  1  0
  1 34  1  0
  4 35  1  0
  5 36  1  0
  6 37  1  0
  8 38  1  0
  8 39  1  0
  9 40  1  0
 10 41  1  0
 10 42  1  0
 12 43  1  0
 13 44  1  0
 19 45  1  0
 20 46  1  0
 23 47  1  0
 27 48  1  0
 27 49  1  0
 28 50  1  0
 28 51  1  0
 29 52  1  0
M  CHG  3  15  -1  24  -1  31  -1
M  END
>  <UniqueID>  (61) 
54

>  <SMILES>  (61) 
COc1cccc(CNCc2ccc([O-])c(Oc3ccc4c(c3)[N-]C(=O)CC4)c2)c1[O-]

>  <Energy>  (61) 
64.04091313108526

>  <Genealogy>  (61) 
COc1cccc(CNCc2ccc([O-])c(Oc3ccc4c(c3)[N-]C(=O)CC4)c2)c1[O-] (protonated)
COc1cccc(CNCc2ccc([O-])c(Oc3ccc4c(c3)[N-]C(=O)CC4)c2)c1[O-] (3D coordinates assigned)
COc1cccc(CNCc2ccc([O-])c(Oc3ccc4c(c3)[N-]C(=O)CC4)c2)c1[O-] (nonaromatic ring conformer: 64.04091313108526 kcal/mol)

>  <smiles>  (61) 
COc1cccc(CNCc2ccc(O)c(Oc3ccc4c(c3)NC(=O)CC4)c2)c1O

>  <score_type>  (61) 
oracle

>  <origin>  (61) 
adg

>  <m_score__min__energy>  (61) 
-15.18

>  <m_primary>  (61) 
energy

$$$$
61:0
     RDKit          3D

 45 47  0  0  0  0  0  0  0  0999 V2000
   55.7320   29.8960   52.7800 C   0  0  0  0  0  0  0  0  0  0  0  0
   56.7690   30.8320   52.2460 C   0  0  0  0  0  0  0  0  0  0  0  0
   57.4200   30.5300   51.0900 N   0  0  0  0  0  0  0  0  0  0  0  0
   58.3770   31.3510   50.5900 C   0  0  0  0  0  0  0  0  0  0  0  0
   58.7120   32.5300   51.2640 C   0  0  0  0  0  0  0  0  0  0  0  0
   59.7680   33.4620   50.7300 C   0  0  0  0  0  0  0  0  0  0  0  0
   59.3370   34.0890   49.4710 N   0  0  0  0  0  0  0  0  0  0  0  0
   60.2840   33.8730   48.3630 C   0  0  0  0  0  0  0  0  0  0  0  0
   59.5870   33.7330   47.0280 C   0  0  0  0  0  0  0  0  0  0  0  0
   59.6330   34.7790   46.1000 C   0  0  0  0  0  0  0  0  0  0  0  0
   59.0050   34.6460   44.8650 C   0  0  0  0  0  0  0  0  0  0  0  0
   58.3290   33.4680   44.5390 C   0  0  0  0  0  0  0  0  0  0  0  0
   58.2700   32.3850   45.4490 C   0  0  0  0  0  0  0  0  0  0  0  0
   57.5740   31.1460   45.1080 N   0  0  0  0  0  0  0  0  0  0  0  0
   57.7510   29.9560   45.9680 C   0  0  0  0  0  0  0  0  0  0  0  0
   57.0360   28.7090   45.4400 C   0  0  0  0  0  0  0  0  0  0  0  0
   55.7840   29.0430   44.8930 O   0  0  0  0  0  0  0  0  0  0  0  0
   55.9990   29.7660   43.7030 C   0  0  0  0  0  0  0  0  0  0  0  0
   56.5990   31.1450   43.9970 C   0  0  0  0  0  0  0  0  0  0  0  0
   58.9050   32.5490   46.7040 C   0  0  0  0  0  0  0  0  0  0  0  0
   58.0410   32.8160   52.4590 C   0  0  0  0  0  0  0  0  0  0  0  0
   57.0880   31.9670   52.9280 N   0  0  0  0  0  0  0  0  0  0  0  0
   55.7526   29.9146   53.8796 H   0  0  0  0  0  0  0  0  0  0  0  0
   54.7385   30.2092   52.4266 H   0  0  0  0  0  0  0  0  0  0  0  0
   55.9421   28.8757   52.4266 H   0  0  0  0  0  0  0  0  0  0  0  0
   58.8904   31.0892   49.6531 H   0  0  0  0  0  0  0  0  0  0  0  0
   59.9622   34.2483   51.4743 H   0  0  0  0  0  0  0  0  0  0  0  0
   60.6802   32.8792   50.5344 H   0  0  0  0  0  0  0  0  0  0  0  0
   59.2280   35.1170   49.6330 H   0  0  0  0  0  0  0  0  0  0  0  0
   60.9720   34.7299   48.3142 H   0  0  0  0  0  0  0  0  0  0  0  0
   60.8226   32.9344   48.5603 H   0  0  0  0  0  0  0  0  0  0  0  0
   60.1667   35.7086   46.3470 H   0  0  0  0  0  0  0  0  0  0  0  0
   59.0413   35.4736   44.1413 H   0  0  0  0  0  0  0  0  0  0  0  0
   57.8348   33.3804   43.5602 H   0  0  0  0  0  0  0  0  0  0  0  0
   58.8263   29.7361   46.0411 H   0  0  0  0  0  0  0  0  0  0  0  0
   57.3065   30.1943   46.9456 H   0  0  0  0  0  0  0  0  0  0  0  0
   57.6560   28.2407   44.6613 H   0  0  0  0  0  0  0  0  0  0  0  0
   56.8797   28.0123   46.2768 H   0  0  0  0  0  0  0  0  0  0  0  0
   56.6913   29.2025   43.0602 H   0  0  0  0  0  0  0  0  0  0  0  0
   55.0313   29.9059   43.1991 H   0  0  0  0  0  0  0  0  0  0  0  0
   57.1069   31.5031   43.0893 H   0  0  0  0  0  0  0  0  0  0  0  0
   55.7676   31.7987   44.2994 H   0  0  0  0  0  0  0  0  0  0  0  0
   58.8632   31.7325   47.4399 H   0  0  0  0  0  0  0  0  0  0  0  0
   58.2854   33.7300   53.0201 H   0  0  0  0  0  0  0  0  0  0  0  0
   56.5990   32.1960   53.8220 H   0  0  0  0  0  0  0  0  0  0  0  0
  1  2  1  0
  2  3  2  0
  3  4  1  0
  4  5  2  0
  5  6  1  0
  6  7  1  0
  7  8  1  0
  8  9  1  0
  9 10  2  0
 10 11  1  0
 11 12  2  0
 12 13  1  0
 13 14  1  0
 14 15  1  0
 15 16  1  0
 16 17  1  0
 17 18  1  0
 18 19  1  0
 13 20  2  0
  5 21  1  0
 21 22  2  0
 22  2  1  0
 20  9  1  0
 19 14  1  0
  1 23  1  0
  1 24  1  0
  1 25  1  0
  4 26  1  0
  6 27  1  0
  6 28  1  0
  7 29  1  0
  8 30  1  0
  8 31  1  0
 10 32  1  0
 11 33  1  0
 12 34  1  0
 15 35  1  0
 15 36  1  0
 16 37  1  0
 16 38  1  0
 18 39  1  0
 18 40  1  0
 19 41  1  0
 19 42  1  0
 20 43  1  0
 21 44  1  0
 22 45  1  0
M  CHG  1  22   1
M  END
>  <UniqueID>  (62) 
55

>  <SMILES>  (62) 
Cc1ncc(CNCc2cccc(N3CCOCC3)c2)c[nH+]1

>  <Energy>  (62) 
52.16224854386615

>  <Genealogy>  (62) 
Cc1ncc(CNCc2cccc(N3CCOCC3)c2)c[nH+]1 (protonated)
Cc1ncc(CNCc2cccc(N3CCOCC3)c2)c[nH+]1 (3D coordinates assigned)
Cc1ncc(CNCc2cccc(N3CCOCC3)c2)c[nH+]1 (nonaromatic ring conformer: 52.16224854386615 kcal/mol)

>  <smiles>  (62) 
Cc1ncc(CNCc2cccc(N3CCOCC3)c2)cn1

>  <score_type>  (62) 
oracle

>  <origin>  (62) 
adg

>  <m_score__min__energy>  (62) 
-6.3399999999999999

>  <m_primary>  (62) 
energy

$$$$
62:0
     RDKit          3D

 58 60  0  0  0  0  0  0  0  0999 V2000
   56.1108   29.3528   41.7521 H   0  0  0  0  0  0  0  0  0  0  0  0
   56.5840   29.8170   42.6300 C   0  0  0  0  0  0  0  0  0  0  0  0
   56.8020   31.1570   42.6550 N   0  0  0  0  0  0  0  0  0  0  0  0
   57.3790   31.7570   43.7350 C   0  0  0  0  0  0  0  0  0  0  0  0
   57.5960   33.0390   43.7640 N   0  0  0  0  0  0  0  0  0  0  0  0
   57.4530   33.9120   44.8970 C   0  0  0  0  0  0  0  0  0  0  0  0
   56.5410   34.7810   44.8700 O   0  0  0  0  0  0  0  0  0  0  0  0
   58.3650   33.8620   46.0650 C   0  0  0  0  0  0  0  0  0  0  0  0
   59.5170   34.6640   46.0900 C   0  0  0  0  0  0  0  0  0  0  0  0
   59.7390   35.3282   45.2417 H   0  0  0  0  0  0  0  0  0  0  0  0
   60.3830   34.6240   47.1850 C   0  0  0  0  0  0  0  0  0  0  0  0
   61.2769   35.2648   47.1991 H   0  0  0  0  0  0  0  0  0  0  0  0
   60.1190   33.7710   48.2670 C   0  0  0  0  0  0  0  0  0  0  0  0
   61.0570   33.7420   49.4440 C   0  0  0  0  0  0  0  0  0  0  0  0
   60.9822   32.7658   49.9454 H   0  0  0  0  0  0  0  0  0  0  0  0
   60.7814   34.5437   50.1450 H   0  0  0  0  0  0  0  0  0  0  0  0
   62.4480   33.9530   48.9880 N   0  0  0  0  0  0  0  0  0  0  0  0
   62.8700   32.8790   48.0570 C   0  0  0  0  0  0  0  0  0  0  0  0
   62.0016   32.2504   47.8103 H   0  0  0  0  0  0  0  0  0  0  0  0
   63.6491   32.2713   48.5405 H   0  0  0  0  0  0  0  0  0  0  0  0
   63.4350   33.4830   46.7750 C   0  0  0  0  0  0  0  0  0  0  0  0
   64.1661   34.2646   47.0291 H   0  0  0  0  0  0  0  0  0  0  0  0
   63.9290   32.6964   46.1858 H   0  0  0  0  0  0  0  0  0  0  0  0
   62.6172   33.9235   46.1858 H   0  0  0  0  0  0  0  0  0  0  0  0
   63.3760   34.0610   50.1370 C   0  0  0  0  0  0  0  0  0  0  0  0
   63.7732   35.0855   50.1880 H   0  0  0  0  0  0  0  0  0  0  0  0
   62.8305   33.8227   51.0620 H   0  0  0  0  0  0  0  0  0  0  0  0
   64.5350   33.0780   49.9750 C   0  0  0  0  0  0  0  0  0  0  0  0
   64.8969   32.7711   50.9674 H   0  0  0  0  0  0  0  0  0  0  0  0
   64.1902   32.1928   49.4205 H   0  0  0  0  0  0  0  0  0  0  0  0
   65.3521   33.5627   49.4205 H   0  0  0  0  0  0  0  0  0  0  0  0
   58.9830   32.9480   48.2320 C   0  0  0  0  0  0  0  0  0  0  0  0
   58.7735   32.2686   49.0714 H   0  0  0  0  0  0  0  0  0  0  0  0
   58.1170   32.9870   47.1370 C   0  0  0  0  0  0  0  0  0  0  0  0
   57.2357   32.3292   47.1132 H   0  0  0  0  0  0  0  0  0  0  0  0
   57.7640   30.9980   44.7950 N   0  0  0  0  0  0  0  0  0  0  0  0
   57.5580   29.6540   44.8160 C   0  0  0  0  0  0  0  0  0  0  0  0
   57.9950   28.8860   45.9460 N   0  0  0  0  0  0  0  0  0  0  0  0
   57.4170   27.6590   46.3490 C   0  0  0  0  0  0  0  0  0  0  0  0
   56.5570   27.0310   45.6770 O   0  0  0  0  0  0  0  0  0  0  0  0
   57.8920   27.2270   47.5620 O   0  0  0  0  0  0  0  0  0  0  0  0
   58.9080   28.1160   48.0050 C   0  0  0  0  0  0  0  0  0  0  0  0
   58.7520   28.3856   49.0600 H   0  0  0  0  0  0  0  0  0  0  0  0
   59.9086   27.6639   47.9387 H   0  0  0  0  0  0  0  0  0  0  0  0
   58.7740   29.3740   47.0930 C   0  0  1  0  0  0  0  0  0  0  0  0
   58.2885   30.1972   47.6376 H   0  0  0  0  0  0  0  0  0  0  0  0
   60.1170   30.0540   46.6710 C   0  0  0  0  0  0  0  0  0  0  0  0
   59.8397   31.0573   46.3152 H   0  0  0  0  0  0  0  0  0  0  0  0
   60.8440   29.3200   45.5250 C   0  0  0  0  0  0  0  0  0  0  0  0
   61.5588   28.5983   45.9471 H   0  0  0  0  0  0  0  0  0  0  0  0
   60.1076   28.7872   44.9055 H   0  0  0  0  0  0  0  0  0  0  0  0
   61.3839   30.0512   44.9055 H   0  0  0  0  0  0  0  0  0  0  0  0
   61.0820   30.1300   47.8710 C   0  0  0  0  0  0  0  0  0  0  0  0
   60.5068   30.0847   48.8075 H   0  0  0  0  0  0  0  0  0  0  0  0
   61.7844   29.2844   47.8308 H   0  0  0  0  0  0  0  0  0  0  0  0
   61.6433   31.0751   47.8308 H   0  0  0  0  0  0  0  0  0  0  0  0
   56.9600   29.0300   43.7170 C   0  0  0  0  0  0  0  0  0  0  0  0
   56.7902   27.9432   43.7104 H   0  0  0  0  0  0  0  0  0  0  0  0
  1  2  1  0
  2  3  1  0
  3  4  1  0
  4  5  2  0
  5  6  1  0
  6  7  2  0
  6  8  1  0
  8  9  2  0
  9 10  1  0
  9 11  1  0
 11 12  1  0
 11 13  2  0
 13 14  1  0
 14 15  1  0
 14 16  1  0
 14 17  1  0
 17 18  1  0
 18 19  1  0
 18 20  1  0
 18 21  1  0
 21 22  1  0
 21 23  1  0
 21 24  1  0
 17 25  1  0
 25 26  1  0
 25 27  1  0
 25 28  1  0
 28 29  1  0
 28 30  1  0
 28 31  1  0
 13 32  1  0
 32 33  1  0
 32 34  2  0
 34 35  1  0
  4 36  1  0
 36 37  2  0
 37 38  1  0
 38 39  1  0
 39 40  2  0
 39 41  1  0
 41 42  1  0
 42 43  1  0
 42 44  1  0
 42 45  1  0
 45 46  1  1
 45 47  1  0
 47 48  1  0
 47 49  1  0
 49 50  1  0
 49 51  1  0
 49 52  1  0
 47 53  1  0
 53 54  1  0
 53 55  1  0
 53 56  1  0
 37 57  1  0
 57 58  1  0
 57  2  2  0
 34  8  1  0
 45 38  1  0
M  CHG  1   3  -1
M  END
>  <UniqueID>  (63) 
56

>  <SMILES>  (63) 
CCN(CC)Cc1ccc(C(=O)/N=c2/nc(N3C(=O)OC[C@H]3C(C)C)cc[n-]2)cc1

>  <Energy>  (63) 
89.14176534491517

>  <Genealogy>  (63) 
CCN(CC)Cc1ccc(C(=O)N=c2nc(N3C(=O)OCC3C(C)C)cc[n-]2)cc1 (protonated)
CCN(CC)Cc1ccc(C(=O)N=c2nc(N3C(=O)OC[C@H]3C(C)C)cc[n-]2)cc1 (chirality)
CCN(CC)Cc1ccc(C(=O)/N=c2/nc(N3C(=O)OC[C@H]3C(C)C)cc[n-]2)cc1 (cis-trans isomerization)
CCN(CC)Cc1ccc(C(=O)/N=c2/nc(N3C(=O)OC[C@H]3C(C)C)cc[n-]2)cc1 (3D coordinates assigned)
CCN(CC)Cc1ccc(C(=O)/N=c2/nc(N3C(=O)OC[C@H]3C(C)C)cc[n-]2)cc1 (nonaromatic ring conformer: 89.14176534491517 kcal/mol)

>  <smiles>  (63) 
CCN(CC)Cc1ccc(C(=O)N=c2nc(N3C(=O)OCC3C(C)C)cc[nH]2)cc1

>  <score_type>  (63) 
oracle

>  <origin>  (63) 
adg

>  <m_score__min__energy>  (63) 
-9.8800000000000008

>  <m_primary>  (63) 
energy

$$$$
63:0
     RDKit          3D

 42 44  0  0  0  0  0  0  0  0999 V2000
   59.6689   36.3954   46.5676 H   0  0  0  0  0  0  0  0  0  0  0  0
   59.3920   35.3430   46.4070 C   0  0  0  0  0  0  0  0  0  0  0  0
   59.1310   34.8800   45.1170 C   0  0  0  0  0  0  0  0  0  0  0  0
   59.2025   35.5680   44.2617 H   0  0  0  0  0  0  0  0  0  0  0  0
   58.7790   33.5440   44.9100 C   0  0  0  0  0  0  0  0  0  0  0  0
   58.5744   33.1856   43.8904 H   0  0  0  0  0  0  0  0  0  0  0  0
   58.6840   32.6530   45.9950 C   0  0  0  0  0  0  0  0  0  0  0  0
   58.2900   31.2460   45.7510 C   0  0  0  0  0  0  0  0  0  0  0  0
   57.1600   31.0000   45.2480 O   0  0  0  0  0  0  0  0  0  0  0  0
   59.2030   30.1710   46.0390 N   0  0  0  0  0  0  0  0  0  0  0  0
   60.1930   30.4050   46.2740 H   0  0  0  0  0  0  0  0  0  0  0  0
   58.8560   28.7790   45.9510 C   0  0  0  0  0  0  0  0  0  0  0  0
   58.6810   28.1930   44.6880 C   0  0  0  0  0  0  0  0  0  0  0  0
   58.7939   28.8052   43.7811 H   0  0  0  0  0  0  0  0  0  0  0  0
   58.3640   26.8360   44.5750 C   0  0  0  0  0  0  0  0  0  0  0  0
   58.2228   26.3861   43.5812 H   0  0  0  0  0  0  0  0  0  0  0  0
   58.2260   26.0490   45.7240 C   0  0  0  0  0  0  0  0  0  0  0  0
   57.8070   24.3080   45.5760 S   0  0  0  0  0  0  0  0  0  0  0  0
   56.2350   24.5960   44.6900 C   0  0  0  0  0  0  0  0  0  0  0  0
   55.8985   23.6517   44.2371 H   0  0  0  0  0  0  0  0  0  0  0  0
   56.4034   25.3559   43.9127 H   0  0  0  0  0  0  0  0  0  0  0  0
   55.1800   25.0940   45.6250 C   0  0  0  0  0  0  0  0  0  0  0  0
   55.1630   26.3130   45.9460 O   0  0  0  0  0  0  0  0  0  0  0  0
   54.2230   24.1690   46.1650 N   0  0  0  0  0  0  0  0  0  0  0  0
   53.1520   23.7170   45.5800 C   0  0  0  0  0  0  0  0  0  0  0  0
   52.8440   22.4070   45.5540 N   0  0  0  0  0  0  0  0  0  0  0  0
   51.7440   22.2970   44.8660 O   0  0  0  0  0  0  0  0  0  0  0  0
   51.3300   23.4700   44.4460 C   0  0  0  0  0  0  0  0  0  0  0  0
   50.1190   23.6870   43.6030 C   0  0  0  0  0  0  0  0  0  0  0  0
   49.2443   23.8437   44.2513 H   0  0  0  0  0  0  0  0  0  0  0  0
   50.2682   24.5727   42.9680 H   0  0  0  0  0  0  0  0  0  0  0  0
   49.9514   22.8046   42.9680 H   0  0  0  0  0  0  0  0  0  0  0  0
   52.2080   24.4440   44.8730 C   0  0  0  0  0  0  0  0  0  0  0  0
   52.1686   25.5290   44.6961 H   0  0  0  0  0  0  0  0  0  0  0  0
   58.4330   26.6170   46.9850 C   0  0  0  0  0  0  0  0  0  0  0  0
   58.3464   25.9947   47.8879 H   0  0  0  0  0  0  0  0  0  0  0  0
   58.7500   27.9750   47.1010 C   0  0  0  0  0  0  0  0  0  0  0  0
   58.9170   28.4157   48.0949 H   0  0  0  0  0  0  0  0  0  0  0  0
   58.9480   33.1310   47.2990 C   0  0  0  0  0  0  0  0  0  0  0  0
   58.9050   32.0740   48.7080 Cl  0  0  0  0  0  0  0  0  0  0  0  0
   59.3020   34.4720   47.4940 C   0  0  0  0  0  0  0  0  0  0  0  0
   59.5102   34.8408   48.5092 H   0  0  0  0  0  0  0  0  0  0  0  0
  1  2  1  0
  2  3  2  0
  3  4  1  0
  3  5  1  0
  5  6  1  0
  5  7  2  0
  7  8  1  0
  8  9  2  0
  8 10  1  0
 10 11  1  0
 10 12  1  0
 12 13  2  0
 13 14  1  0
 13 15  1  0
 15 16  1  0
 15 17  2  0
 17 18  1  0
 18 19  1  0
 19 20  1  0
 19 21  1  0
 19 22  1  0
 22 23  2  0
 22 24  1  0
 24 25  2  0
 25 26  1  0
 26 27  1  0
 27 28  1  0
 28 29  1  0
 29 30  1  0
 29 31  1  0
 29 32  1  0
 28 33  2  0
 33 34  1  0
 17 35  1  0
 35 36  1  0
 35 37  2  0
 37 38  1  0
  7 39  1  0
 39 40  1  0
 39 41  2  0
 41 42  1  0
 41  2  1  0
 37 12  1  0
 33 25  1  0
M  CHG  1  26  -1
M  END
>  <UniqueID>  (64) 
57

>  <SMILES>  (64) 
Cc1c/c(=N\C(=O)CSc2ccc(NC(=O)c3ccccc3Cl)cc2)[n-]o1

>  <Energy>  (64) 
81.76818251180042

>  <Genealogy>  (64) 
Cc1cc(=NC(=O)CSc2ccc(NC(=O)c3ccccc3Cl)cc2)[n-]o1 (protonated)
Cc1c/c(=N\C(=O)CSc2ccc(NC(=O)c3ccccc3Cl)cc2)[n-]o1 (cis-trans isomerization)
Cc1c/c(=N\C(=O)CSc2ccc(NC(=O)c3ccccc3Cl)cc2)[n-]o1 (3D coordinates assigned)
Cc1c/c(=N\C(=O)CSc2ccc(NC(=O)c3ccccc3Cl)cc2)[n-]o1 (optimized conformer: 81.76818251180042 kcal/mol)

>  <smiles>  (64) 
Cc1cc(=NC(=O)CSc2ccc(NC(=O)c3ccccc3Cl)cc2)[nH]o1

>  <score_type>  (64) 
oracle

>  <origin>  (64) 
adg

>  <m_score__min__energy>  (64) 
-11.449999999999999

>  <m_primary>  (64) 
energy

$$$$
64:0
     RDKit          3D

 42 44  0  0  1  0  0  0  0  0999 V2000
   57.8010   33.6360   46.7380 C   0  0  0  0  0  0  0  0  0  0  0  0
   58.0120   33.8670   44.9640 S   0  0  0  0  0  0  0  0  0  0  0  0
   57.4550   32.3490   44.1570 C   0  0  0  0  0  0  0  0  0  0  0  0
   57.0690   31.3530   44.9720 N   0  0  0  0  0  0  0  0  0  0  0  0
   56.6490   30.2060   44.4030 C   0  0  0  0  0  0  0  0  0  0  0  0
   56.2850   29.2660   45.2140 N   0  0  0  0  0  0  0  0  0  0  0  0
   57.1870   28.1970   45.5630 C   0  0  0  0  0  0  0  0  0  0  0  0
   56.6190   26.9290   45.7180 C   0  0  0  0  0  0  0  0  0  0  0  0
   57.4110   25.8460   46.0520 C   0  0  0  0  0  0  0  0  0  0  0  0
   58.7780   26.0530   46.2280 C   0  0  0  0  0  0  0  0  0  0  0  0
   59.3210   27.3180   46.0700 C   0  0  0  0  0  0  0  0  0  0  0  0
   58.5400   28.4140   45.7350 C   0  0  0  0  0  0  0  0  0  0  0  0
   59.0810   29.7190   45.5680 N   0  0  0  0  0  0  0  0  0  0  0  0
   59.8920   30.2940   46.5980 C   0  0  0  0  0  0  0  0  0  0  0  0
   60.1080   29.6300   47.6310 O   0  0  0  0  0  0  0  0  0  0  0  0
   60.4550   31.5900   46.4840 N   0  0  0  0  0  0  0  0  0  0  0  0
   61.2620   32.1790   47.4940 C   0  0  0  0  0  0  0  0  0  0  0  0
   62.5810   31.7470   47.5780 C   0  0  0  0  0  0  0  0  0  0  0  0
   63.4700   32.2290   48.5050 C   0  0  0  0  0  0  0  0  0  0  0  0
   63.0040   33.1890   49.3830 C   0  0  0  0  0  0  0  0  0  0  0  0
   64.1440   33.8020   50.5650 Cl  0  0  0  0  0  0  0  0  0  0  0  0
   61.6970   33.6260   49.3080 C   0  0  0  0  0  0  0  0  0  0  0  0
   60.8000   33.1370   48.3720 C   0  0  0  0  0  0  0  0  0  0  0  0
   56.6050   30.0340   43.0270 C   0  0  0  0  0  0  0  0  0  0  0  0
   57.0170   31.1040   42.2420 C   0  0  0  0  0  0  0  0  0  0  0  0
   57.4390   32.2540   42.8130 N   0  0  0  0  0  0  0  0  0  0  0  0
   58.4469   34.3431   47.2792 H   0  0  0  0  0  0  0  0  0  0  0  0
   56.7505   33.8177   47.0090 H   0  0  0  0  0  0  0  0  0  0  0  0
   58.0768   32.6062   47.0090 H   0  0  0  0  0  0  0  0  0  0  0  0
   55.5371   26.7923   45.5736 H   0  0  0  0  0  0  0  0  0  0  0  0
   56.9726   24.8448   46.1759 H   0  0  0  0  0  0  0  0  0  0  0  0
   59.4295   25.2075   46.4938 H   0  0  0  0  0  0  0  0  0  0  0  0
   60.4026   27.4569   46.2144 H   0  0  0  0  0  0  0  0  0  0  0  0
   58.9130   30.2870   44.7150 H   0  0  0  0  0  0  0  0  0  0  0  0
   60.2660   32.1330   45.6170 H   0  0  0  0  0  0  0  0  0  0  0  0
   62.9281   30.9824   46.8674 H   0  0  0  0  0  0  0  0  0  0  0  0
   64.5080   31.8673   48.5475 H   0  0  0  0  0  0  0  0  0  0  0  0
   61.3541   34.3922   50.0189 H   0  0  0  0  0  0  0  0  0  0  0  0
   59.7618   33.4981   48.3309 H   0  0  0  0  0  0  0  0  0  0  0  0
   56.2591   29.0917   42.5771 H   0  0  0  0  0  0  0  0  0  0  0  0
   56.9995   31.0142   41.1458 H   0  0  0  0  0  0  0  0  0  0  0  0
   57.7580   33.0820   42.2450 H   0  0  0  0  0  0  0  0  0  0  0  0
  1  2  1  0
  2  3  1  0
  3  4  2  0
  4  5  1  0
  5  6  2  0
  6  7  1  0
  7  8  2  0
  8  9  1  0
  9 10  2  0
 10 11  1  0
 11 12  2  0
 12 13  1  0
 13 14  1  0
 14 15  2  0
 14 16  1  0
 16 17  1  0
 17 18  2  0
 18 19  1  0
 19 20  2  0
 20 21  1  0
 20 22  1  0
 22 23  2  0
  5 24  1  0
 24 25  2  0
 25 26  1  0
 26  3  1  0
 12  7  1  0
 23 17  1  0
  1 27  1  0
  1 28  1  0
  1 29  1  0
  8 30  1  0
  9 31  1  0
 10 32  1  0
 11 33  1  0
 13 34  1  0
 16 35  1  0
 18 36  1  0
 19 37  1  0
 22 38  1  0
 23 39  1  0
 24 40  1  0
 25 41  1  0
 26 42  1  0
M  END
>  <smiles>  (65) 
CSc1nc(=Nc2ccccc2NC(=O)Nc2ccc(Cl)cc2)cc[nH]1

>  <score_type>  (65) 
oracle

>  <origin>  (65) 
adg

>  <m_score__min__energy>  (65) 
-8.1400000000000006

>  <m_primary>  (65) 
energy

$$$$
65:0
     RDKit          3D

 44 45  0  0  0  0  0  0  0  0999 V2000
   63.0300   33.4340   47.1130 C   0  0  0  0  0  0  0  0  0  0  0  0
   61.9820   33.6120   48.2150 C   0  0  0  0  0  0  0  0  0  0  0  0
   61.0800   32.4420   48.3440 N   0  0  0  0  0  0  0  0  0  0  0  0
   61.4400   31.2920   47.4740 C   0  0  0  0  0  0  0  0  0  0  0  0
   60.7060   29.9800   47.7870 C   0  0  0  0  0  0  0  0  0  0  0  0
   59.4150   32.9460   48.0940 S   0  0  0  0  0  0  0  0  0  0  0  0
   58.5190   32.1250   48.9800 O   0  0  0  0  0  0  0  0  0  0  0  0
   59.2750   34.3970   48.4610 O   0  0  0  0  0  0  0  0  0  0  0  0
   58.8640   32.7540   46.4090 C   0  0  0  0  0  0  0  0  0  0  0  0
   58.3170   31.5320   45.9770 C   0  0  0  0  0  0  0  0  0  0  0  0
   57.8860   31.3600   44.6520 C   0  0  0  0  0  0  0  0  0  0  0  0
   57.3500   30.1090   44.1950 N   0  0  0  0  0  0  0  0  0  0  0  0
   56.3310   29.3440   44.8530 C   0  0  0  0  0  0  0  0  0  0  0  0
   55.1540   29.7950   44.8690 O   0  0  0  0  0  0  0  0  0  0  0  0
   56.6460   28.0900   45.5720 C   0  0  0  0  0  0  0  0  0  0  0  0
   57.9050   27.8880   46.1540 C   0  0  0  0  0  0  0  0  0  0  0  0
   58.1600   26.6720   46.7920 C   0  0  0  0  0  0  0  0  0  0  0  0
   59.2790   26.4610   47.3280 O   0  0  0  0  0  0  0  0  0  0  0  0
   57.1970   25.7150   46.8380 N   0  0  0  0  0  0  0  0  0  0  0  0
   55.9820   25.9220   46.2680 C   0  0  0  0  0  0  0  0  0  0  0  0
   55.1010   25.0260   46.3220 O   0  0  0  0  0  0  0  0  0  0  0  0
   55.7170   27.0960   45.6390 N   0  0  0  0  0  0  0  0  0  0  0  0
   58.0400   32.4010   43.7390 C   0  0  0  0  0  0  0  0  0  0  0  0
   58.5820   33.6190   44.1440 C   0  0  0  0  0  0  0  0  0  0  0  0
   59.0050   33.8110   45.4710 C   0  0  0  0  0  0  0  0  0  0  0  0
   59.5740   35.1530   45.8550 C   0  0  0  0  0  0  0  0  0  0  0  0
   64.0168   33.2664   47.5691 H   0  0  0  0  0  0  0  0  0  0  0  0
   62.7626   32.5684   46.4891 H   0  0  0  0  0  0  0  0  0  0  0  0
   63.0634   34.3393   46.4891 H   0  0  0  0  0  0  0  0  0  0  0  0
   62.5013   33.7629   49.1729 H   0  0  0  0  0  0  0  0  0  0  0  0
   61.3623   34.4801   47.9459 H   0  0  0  0  0  0  0  0  0  0  0  0
   61.1430   32.0830   49.3230 H   0  0  0  0  0  0  0  0  0  0  0  0
   61.2138   31.5685   46.4336 H   0  0  0  0  0  0  0  0  0  0  0  0
   62.5071   31.0952   47.6545 H   0  0  0  0  0  0  0  0  0  0  0  0
   60.6339   29.8512   48.8771 H   0  0  0  0  0  0  0  0  0  0  0  0
   59.6953   30.0130   47.3541 H   0  0  0  0  0  0  0  0  0  0  0  0
   61.2630   29.1360   47.3541 H   0  0  0  0  0  0  0  0  0  0  0  0
   58.2256   30.6982   46.6886 H   0  0  0  0  0  0  0  0  0  0  0  0
   58.6763   28.6710   46.1092 H   0  0  0  0  0  0  0  0  0  0  0  0
   57.7319   32.2605   42.6924 H   0  0  0  0  0  0  0  0  0  0  0  0
   58.6800   34.4393   43.4177 H   0  0  0  0  0  0  0  0  0  0  0  0
   59.6093   35.2362   46.9513 H   0  0  0  0  0  0  0  0  0  0  0  0
   60.5909   35.2505   45.4470 H   0  0  0  0  0  0  0  0  0  0  0  0
   58.9371   35.9517   45.4470 H   0  0  0  0  0  0  0  0  0  0  0  0
  1  2  1  0
  2  3  1  0
  3  4  1  0
  4  5  1  0
  3  6  1  0
  6  7  2  0
  6  8  2  0
  6  9  1  0
  9 10  2  0
 10 11  1  0
 11 12  1  0
 12 13  1  0
 13 14  2  0
 13 15  1  0
 15 16  2  0
 16 17  1  0
 17 18  2  0
 17 19  1  0
 19 20  1  0
 20 21  2  0
 20 22  1  0
 11 23  2  0
 23 24  1  0
 24 25  2  0
 25 26  1  0
 25  9  1  0
 22 15  1  0
  1 27  1  0
  1 28  1  0
  1 29  1  0
  2 30  1  0
  2 31  1  0
  3 32  1  0
  4 33  1  0
  4 34  1  0
  5 35  1  0
  5 36  1  0
  5 37  1  0
 10 38  1  0
 16 39  1  0
 23 40  1  0
 24 41  1  0
 26 42  1  0
 26 43  1  0
 26 44  1  0
M  CHG  4   3   1  12  -1  19  -1  22  -1
M  END
>  <UniqueID>  (66) 
58

>  <SMILES>  (66) 
CC[NH+](CC)S(=O)(=O)c1cc([N-]C(=O)c2cc(=O)[n-]c(=O)[n-]2)ccc1C

>  <Energy>  (66) 
51.7079920370414

>  <Genealogy>  (66) 
CC[NH+](CC)S(=O)(=O)c1cc([N-]C(=O)c2cc(=O)[n-]c(=O)[n-]2)ccc1C (protonated)
CC[NH+](CC)S(=O)(=O)c1cc([N-]C(=O)c2cc(=O)[n-]c(=O)[n-]2)ccc1C (3D coordinates assigned)
CC[NH+](CC)S(=O)(=O)c1cc([N-]C(=O)c2cc(=O)[n-]c(=O)[n-]2)ccc1C (optimized conformer: 51.7079920370414 kcal/mol)

>  <smiles>  (66) 
CCN(CC)S(=O)(=O)c1cc(NC(=O)c2cc(=O)[nH]c(=O)[nH]2)ccc1C

>  <score_type>  (66) 
oracle

>  <origin>  (66) 
adg

>  <m_score__min__energy>  (66) 
-12.369999999999999

>  <m_primary>  (66) 
energy

$$$$
66:0
     RDKit          3D

 42 44  0  0  0  0  0  0  0  0999 V2000
   56.6240   22.8300   43.4000 C   0  0  0  0  0  0  0  0  0  0  0  0
   55.7900   23.6890   44.3040 C   0  0  0  0  0  0  0  0  0  0  0  0
   54.4410   23.3850   44.5260 C   0  0  0  0  0  0  0  0  0  0  0  0
   53.6790   24.2120   45.3510 C   0  0  0  0  0  0  0  0  0  0  0  0
   54.2380   25.3170   45.9140 N   0  0  0  0  0  0  0  0  0  0  0  0
   55.5420   25.6550   45.6990 C   0  0  0  0  0  0  0  0  0  0  0  0
   56.0660   26.7150   46.2460 N   0  0  0  0  0  0  0  0  0  0  0  0
   56.9520   27.6650   45.6280 C   0  0  0  0  0  0  0  0  0  0  0  0
   58.1960   27.4660   45.5990 O   0  0  0  0  0  0  0  0  0  0  0  0
   56.4380   28.8840   45.0810 N   0  0  0  0  0  0  0  0  0  0  0  0
   57.1250   30.1440   45.0220 C   0  0  0  0  0  0  0  0  0  0  0  0
   56.9610   31.0340   43.9460 C   0  0  0  0  0  0  0  0  0  0  0  0
   57.6560   32.2460   43.9190 C   0  0  0  0  0  0  0  0  0  0  0  0
   58.5430   32.5800   44.9580 C   0  0  0  0  0  0  0  0  0  0  0  0
   59.2810   33.8090   44.9690 N   0  0  0  0  0  0  0  0  0  0  0  0
   59.6560   34.7360   46.3850 S   0  0  0  0  0  0  0  0  0  0  0  0
   58.5100   34.6440   47.3530 O   0  0  0  0  0  0  0  0  0  0  0  0
   59.8470   36.1760   45.9980 O   0  0  0  0  0  0  0  0  0  0  0  0
   61.1020   34.0890   47.1530 C   0  0  0  0  0  0  0  0  0  0  0  0
   62.2410   33.8230   46.3770 C   0  0  0  0  0  0  0  0  0  0  0  0
   63.4030   33.3350   46.9800 C   0  0  0  0  0  0  0  0  0  0  0  0
   63.4330   33.1050   48.3590 C   0  0  0  0  0  0  0  0  0  0  0  0
   62.2980   33.3590   49.1350 C   0  0  0  0  0  0  0  0  0  0  0  0
   61.1330   33.8460   48.5340 C   0  0  0  0  0  0  0  0  0  0  0  0
   58.7260   31.6780   46.0130 C   0  0  0  0  0  0  0  0  0  0  0  0
   58.0280   30.4680   46.0420 C   0  0  0  0  0  0  0  0  0  0  0  0
   56.3380   24.8420   44.8830 C   0  0  0  0  0  0  0  0  0  0  0  0
   57.2632   22.1717   44.0067 H   0  0  0  0  0  0  0  0  0  0  0  0
   55.9658   22.2186   42.7652 H   0  0  0  0  0  0  0  0  0  0  0  0
   57.2546   23.4699   42.7652 H   0  0  0  0  0  0  0  0  0  0  0  0
   53.9864   22.5016   44.0538 H   0  0  0  0  0  0  0  0  0  0  0  0
   52.6239   23.9702   45.5468 H   0  0  0  0  0  0  0  0  0  0  0  0
   56.2816   30.7747   43.1206 H   0  0  0  0  0  0  0  0  0  0  0  0
   57.5085   32.9426   43.0805 H   0  0  0  0  0  0  0  0  0  0  0  0
   62.2187   33.9992   45.2914 H   0  0  0  0  0  0  0  0  0  0  0  0
   64.2951   33.1315   46.3694 H   0  0  0  0  0  0  0  0  0  0  0  0
   64.3496   32.7242   48.8333 H   0  0  0  0  0  0  0  0  0  0  0  0
   62.3215   33.1756   50.2193 H   0  0  0  0  0  0  0  0  0  0  0  0
   60.2392   34.0389   49.1455 H   0  0  0  0  0  0  0  0  0  0  0  0
   59.4251   31.9240   46.8258 H   0  0  0  0  0  0  0  0  0  0  0  0
   58.1890   29.7647   46.8723 H   0  0  0  0  0  0  0  0  0  0  0  0
   57.3893   25.1070   44.6970 H   0  0  0  0  0  0  0  0  0  0  0  0
  1  2  1  0
  2  3  1  0
  3  4  2  0
  4  5  1  0
  5  6  1  0
  6  7  2  3
  7  8  1  0
  8  9  2  0
  8 10  1  0
 10 11  1  0
 11 12  2  0
 12 13  1  0
 13 14  2  0
 14 15  1  0
 15 16  1  0
 16 17  2  0
 16 18  2  0
 16 19  1  0
 19 20  2  0
 20 21  1  0
 21 22  2  0
 22 23  1  0
 23 24  2  0
 14 25  1  0
 25 26  2  0
  6 27  1  0
 27  2  2  0
 26 11  1  0
 24 19  1  0
  1 28  1  0
  1 29  1  0
  1 30  1  0
  3 31  1  0
  4 32  1  0
 12 33  1  0
 13 34  1  0
 20 35  1  0
 21 36  1  0
 22 37  1  0
 23 38  1  0
 24 39  1  0
 25 40  1  0
 26 41  1  0
 27 42  1  0
M  CHG  3   5  -1  10  -1  15  -1
M  END
>  <UniqueID>  (67) 
59

>  <SMILES>  (67) 
Cc1cc[n-]c(=NC(=O)[N-]c2ccc([N-]S(=O)(=O)c3ccccc3)cc2)c1

>  <Energy>  (67) 
53.622576901769015

>  <Genealogy>  (67) 
Cc1cc[n-]c(=NC(=O)[N-]c2ccc([N-]S(=O)(=O)c3ccccc3)cc2)c1 (protonated)
Cc1cc[n-]c(=NC(=O)[N-]c2ccc([N-]S(=O)(=O)c3ccccc3)cc2)c1 (3D coordinates assigned)
Cc1cc[n-]c(=NC(=O)[N-]c2ccc([N-]S(=O)(=O)c3ccccc3)cc2)c1 (optimized conformer: 53.622576901769015 kcal/mol)

>  <smiles>  (67) 
Cc1cc[nH]c(=NC(=O)Nc2ccc(NS(=O)(=O)c3ccccc3)cc2)c1

>  <score_type>  (67) 
oracle

>  <origin>  (67) 
adg

>  <m_score__min__energy>  (67) 
-12.109999999999999

>  <m_primary>  (67) 
energy

$$$$
67:0
     RDKit          3D

 69 73  0  0  0  0  0  0  0  0999 V2000
   55.7030   19.1860   43.9520 C   0  0  0  0  0  0  0  0  0  0  0  0
   56.1600   20.4760   43.5700 O   0  0  0  0  0  0  0  0  0  0  0  0
   56.2270   21.5790   44.4320 C   0  0  0  0  0  0  0  0  0  0  0  0
   56.6700   21.4650   45.7650 C   0  0  0  0  0  0  0  0  0  0  0  0
   56.7510   22.6000   46.5780 C   0  0  0  0  0  0  0  0  0  0  0  0
   56.4000   23.8650   46.0740 C   0  0  0  0  0  0  0  0  0  0  0  0
   56.4870   25.0440   46.8850 N   0  0  0  0  0  0  0  0  0  0  0  0
   56.2760   26.3710   46.3930 C   0  0  0  0  0  0  0  0  0  0  0  0
   55.1240   26.7210   46.0220 O   0  0  0  0  0  0  0  0  0  0  0  0
   57.3870   27.2640   46.2450 N   0  0  0  0  0  0  0  0  0  0  0  0
   57.4530   28.3940   45.3660 C   0  0  0  0  0  0  0  0  0  0  0  0
   56.2930   29.0270   44.8820 C   0  0  0  0  0  0  0  0  0  0  0  0
   56.3980   30.2030   44.1340 C   0  0  0  0  0  0  0  0  0  0  0  0
   57.6530   30.7650   43.8780 C   0  0  0  0  0  0  0  0  0  0  0  0
   57.7620   32.3540   43.0520 S   0  0  0  0  0  0  0  0  0  0  0  0
   58.2330   33.1990   44.5670 C   0  0  0  0  0  0  0  0  0  0  0  0
   59.0120   34.3610   44.5120 C   0  0  0  0  0  0  0  0  0  0  0  0
   59.3800   35.0160   45.6930 C   0  0  0  0  0  0  0  0  0  0  0  0
   58.9910   34.4980   46.9330 C   0  0  0  0  0  0  0  0  0  0  0  0
   58.2500   33.3120   46.9960 C   0  0  0  0  0  0  0  0  0  0  0  0
   57.9040   32.7580   48.2700 N   0  0  0  0  0  0  0  0  0  0  0  0
   58.8640   32.1570   49.1480 C   0  0  0  0  0  0  0  0  0  0  0  0
   59.2110   32.7470   50.2090 O   0  0  0  0  0  0  0  0  0  0  0  0
   59.5060   30.8840   48.7790 C   0  0  0  0  0  0  0  0  0  0  0  0
   59.0920   29.7190   49.4490 C   0  0  0  0  0  0  0  0  0  0  0  0
   59.5380   28.4650   49.0350 C   0  0  0  0  0  0  0  0  0  0  0  0
   60.3950   28.3570   47.9430 C   0  0  0  0  0  0  0  0  0  0  0  0
   60.8340   29.5020   47.2760 C   0  0  0  0  0  0  0  0  0  0  0  0
   60.4270   30.7870   47.7030 C   0  0  0  0  0  0  0  0  0  0  0  0
   60.9920   31.9790   47.1060 N   0  0  0  0  0  0  0  0  0  0  0  0
   62.4280   32.2710   47.1010 C   0  0  0  0  0  0  0  0  0  0  0  0
   62.8920   32.7770   48.4440 C   0  0  0  0  0  0  0  0  0  0  0  0
   62.1250   33.7090   49.1660 C   0  0  0  0  0  0  0  0  0  0  0  0
   62.6160   34.2430   50.3640 C   0  0  0  0  0  0  0  0  0  0  0  0
   63.8650   33.8450   50.8520 C   0  0  0  0  0  0  0  0  0  0  0  0
   64.6170   32.8960   50.1580 C   0  0  0  0  0  0  0  0  0  0  0  0
   64.1360   32.3660   48.9540 C   0  0  0  0  0  0  0  0  0  0  0  0
   57.8410   32.6850   45.8090 C   0  0  0  0  0  0  0  0  0  0  0  0
   58.8100   30.1230   44.3310 C   0  0  0  0  0  0  0  0  0  0  0  0
   58.7080   28.9440   45.0750 C   0  0  0  0  0  0  0  0  0  0  0  0
   55.9250   23.9710   44.7620 C   0  0  0  0  0  0  0  0  0  0  0  0
   55.8450   22.8370   43.9450 C   0  0  0  0  0  0  0  0  0  0  0  0
   55.6782   19.1159   45.0495 H   0  0  0  0  0  0  0  0  0  0  0  0
   54.6919   19.0216   43.5511 H   0  0  0  0  0  0  0  0  0  0  0  0
   56.3851   18.4218   43.5511 H   0  0  0  0  0  0  0  0  0  0  0  0
   56.9527   20.4809   46.1669 H   0  0  0  0  0  0  0  0  0  0  0  0
   57.0918   22.5025   47.6193 H   0  0  0  0  0  0  0  0  0  0  0  0
   55.3031   28.5960   45.0925 H   0  0  0  0  0  0  0  0  0  0  0  0
   55.4905   30.6882   43.7453 H   0  0  0  0  0  0  0  0  0  0  0  0
   59.3353   34.7598   43.5392 H   0  0  0  0  0  0  0  0  0  0  0  0
   59.9759   35.9394   45.6461 H   0  0  0  0  0  0  0  0  0  0  0  0
   59.2676   35.0231   47.8592 H   0  0  0  0  0  0  0  0  0  0  0  0
   58.4096   29.7981   50.3081 H   0  0  0  0  0  0  0  0  0  0  0  0
   59.2130   27.5610   49.5708 H   0  0  0  0  0  0  0  0  0  0  0  0
   60.7277   27.3647   47.6043 H   0  0  0  0  0  0  0  0  0  0  0  0
   61.5037   29.4035   46.4090 H   0  0  0  0  0  0  0  0  0  0  0  0
   60.3420   32.7120   46.7350 H   0  0  0  0  0  0  0  0  0  0  0  0
   62.9792   31.3514   46.8552 H   0  0  0  0  0  0  0  0  0  0  0  0
   62.6193   33.0532   46.3517 H   0  0  0  0  0  0  0  0  0  0  0  0
   61.1389   34.0187   48.7895 H   0  0  0  0  0  0  0  0  0  0  0  0
   62.0176   34.9776   50.9228 H   0  0  0  0  0  0  0  0  0  0  0  0
   64.2550   34.2805   51.7838 H   0  0  0  0  0  0  0  0  0  0  0  0
   65.5872   32.5643   50.5564 H   0  0  0  0  0  0  0  0  0  0  0  0
   64.7346   31.6244   48.4047 H   0  0  0  0  0  0  0  0  0  0  0  0
   57.2095   31.7855   45.8545 H   0  0  0  0  0  0  0  0  0  0  0  0
   59.7995   30.5455   44.1020 H   0  0  0  0  0  0  0  0  0  0  0  0
   59.6198   28.4446   45.4345 H   0  0  0  0  0  0  0  0  0  0  0  0
   55.6128   24.9505   44.3706 H   0  0  0  0  0  0  0  0  0  0  0  0
   55.4793   22.9338   42.9121 H   0  0  0  0  0  0  0  0  0  0  0  0
  1  2  1  0
  2  3  1  0
  3  4  2  0
  4  5  1  0
  5  6  2  0
  6  7  1  0
  7  8  1  0
  8  9  2  0
  8 10  1  0
 10 11  1  0
 11 12  2  0
 12 13  1  0
 13 14  2  0
 14 15  1  0
 15 16  1  0
 16 17  2  0
 17 18  1  0
 18 19  2  0
 19 20  1  0
 20 21  1  0
 21 22  1  0
 22 23  2  0
 22 24  1  0
 24 25  2  0
 25 26  1  0
 26 27  2  0
 27 28  1  0
 28 29  2  0
 29 30  1  0
 30 31  1  0
 31 32  1  0
 32 33  2  0
 33 34  1  0
 34 35  2  0
 35 36  1  0
 36 37  2  0
 20 38  2  0
 14 39  1  0
 39 40  2  0
  6 41  1  0
 41 42  2  0
 42  3  1  0
 40 11  1  0
 38 16  1  0
 29 24  1  0
 37 32  1  0
  1 43  1  0
  1 44  1  0
  1 45  1  0
  4 46  1  0
  5 47  1  0
 12 48  1  0
 13 49  1  0
 17 50  1  0
 18 51  1  0
 19 52  1  0
 25 53  1  0
 26 54  1  0
 27 55  1  0
 28 56  1  0
 30 57  1  0
 31 58  1  0
 31 59  1  0
 33 60  1  0
 34 61  1  0
 35 62  1  0
 36 63  1  0
 37 64  1  0
 38 65  1  0
 39 66  1  0
 40 67  1  0
 41 68  1  0
 42 69  1  0
M  CHG  3   7  -1  10  -1  21  -1
M  END
>  <UniqueID>  (68) 
60

>  <SMILES>  (68) 
COc1ccc([N-]C(=O)[N-]c2ccc(Sc3cccc([N-]C(=O)c4ccccc4NCc4ccccc4)c3)cc2)cc1

>  <Energy>  (68) 
86.75650465908785

>  <Genealogy>  (68) 
COc1ccc([N-]C(=O)[N-]c2ccc(Sc3cccc([N-]C(=O)c4ccccc4NCc4ccccc4)c3)cc2)cc1 (protonated)
COc1ccc([N-]C(=O)[N-]c2ccc(Sc3cccc([N-]C(=O)c4ccccc4NCc4ccccc4)c3)cc2)cc1 (3D coordinates assigned)
COc1ccc([N-]C(=O)[N-]c2ccc(Sc3cccc([N-]C(=O)c4ccccc4NCc4ccccc4)c3)cc2)cc1 (optimized conformer: 86.75650465908785 kcal/mol)

>  <smiles>  (68) 
COc1ccc(NC(=O)Nc2ccc(Sc3cccc(NC(=O)c4ccccc4NCc4ccccc4)c3)cc2)cc1

>  <score_type>  (68) 
oracle

>  <origin>  (68) 
adg

>  <m_score__min__energy>  (68) 
-14.68

>  <m_primary>  (68) 
energy

$$$$
68:0
     RDKit          3D

 69 72  0  0  0  0  0  0  0  0999 V2000
   63.4040   33.8520   46.1980 C   0  0  0  0  0  0  0  0  0  0  0  0
   62.7180   34.2350   47.3860 O   0  0  0  0  0  0  0  0  0  0  0  0
   62.1410   33.3390   48.3030 C   0  0  0  0  0  0  0  0  0  0  0  0
   62.9170   32.6500   49.2500 C   0  0  0  0  0  0  0  0  0  0  0  0
   62.3170   31.7660   50.1490 C   0  0  0  0  0  0  0  0  0  0  0  0
   60.9330   31.5610   50.1290 C   0  0  0  0  0  0  0  0  0  0  0  0
   60.3490   30.6350   51.0610 N   0  0  0  0  0  0  0  0  0  0  0  0
   60.5590   28.9160   50.9540 S   0  0  0  0  0  0  0  0  0  0  0  0
   61.9800   28.5650   51.2930 O   0  0  0  0  0  0  0  0  0  0  0  0
   59.6450   28.2440   51.9360 O   0  0  0  0  0  0  0  0  0  0  0  0
   60.1360   28.3740   49.3350 C   0  0  0  0  0  0  0  0  0  0  0  0
   60.5880   27.1250   48.8850 C   0  0  0  0  0  0  0  0  0  0  0  0
   60.1920   26.6430   47.6360 C   0  0  0  0  0  0  0  0  0  0  0  0
   59.3270   27.4000   46.8280 C   0  0  0  0  0  0  0  0  0  0  0  0
   58.8290   26.8400   45.5200 C   0  0  0  0  0  0  0  0  0  0  0  0
   57.3780   27.2390   45.2300 C   0  0  0  0  0  0  0  0  0  0  0  0
   56.3690   26.3130   45.8430 C   0  0  0  0  0  0  0  0  0  0  0  0
   55.1770   26.6880   46.0160 O   0  0  0  0  0  0  0  0  0  0  0  0
   56.7890   25.0190   46.2870 N   0  0  0  0  0  0  0  0  0  0  0  0
   57.2310   23.9520   45.4380 C   0  0  0  0  0  0  0  0  0  0  0  0
   58.5340   23.4650   45.6170 C   0  0  0  0  0  0  0  0  0  0  0  0
   59.0060   22.3960   44.8570 C   0  0  0  0  0  0  0  0  0  0  0  0
   58.1740   21.7910   43.9150 C   0  0  0  0  0  0  0  0  0  0  0  0
   56.8680   22.2530   43.7320 C   0  0  0  0  0  0  0  0  0  0  0  0
   56.3690   23.3140   44.5050 C   0  0  0  0  0  0  0  0  0  0  0  0
   54.9290   23.7180   44.3310 C   0  0  0  0  0  0  0  0  0  0  0  0
   58.9110   28.6710   47.2630 C   0  0  0  0  0  0  0  0  0  0  0  0
   59.3150   29.1550   48.5090 C   0  0  0  0  0  0  0  0  0  0  0  0
   60.1530   32.2390   49.1760 C   0  0  0  0  0  0  0  0  0  0  0  0
   60.7500   33.1260   48.2640 C   0  0  0  0  0  0  0  0  0  0  0  0
   59.7760   33.9310   47.0260 S   0  0  0  0  0  0  0  0  0  0  0  0
   59.6820   35.3970   47.3600 O   0  0  0  0  0  0  0  0  0  0  0  0
   60.4820   33.7740   45.7070 O   0  0  0  0  0  0  0  0  0  0  0  0
   58.1720   33.2210   46.9440 N   0  0  0  0  0  0  0  0  0  0  0  0
   57.3130   33.9220   45.9690 C   0  0  0  0  0  0  0  0  0  0  0  0
   57.3810   33.3010   44.5580 C   0  0  0  0  0  0  0  0  0  0  0  0
   58.5980   32.6100   44.3730 O   0  0  0  0  0  0  0  0  0  0  0  0
   58.6440   31.4720   45.2160 C   0  0  0  0  0  0  0  0  0  0  0  0
   58.2190   31.7750   46.6710 C   0  0  0  0  0  0  0  0  0  0  0  0
   64.3359   33.3317   46.4643 H   0  0  0  0  0  0  0  0  0  0  0  0
   62.7651   33.1800   45.6061 H   0  0  0  0  0  0  0  0  0  0  0  0
   63.6408   34.7484   45.6061 H   0  0  0  0  0  0  0  0  0  0  0  0
   64.0051   32.8081   49.2835 H   0  0  0  0  0  0  0  0  0  0  0  0
   62.9377   31.2261   50.8792 H   0  0  0  0  0  0  0  0  0  0  0  0
   59.6230   30.9800   51.7280 H   0  0  0  0  0  0  0  0  0  0  0  0
   61.2566   26.5232   49.5181 H   0  0  0  0  0  0  0  0  0  0  0  0
   60.5583   25.6676   47.2834 H   0  0  0  0  0  0  0  0  0  0  0  0
   59.4683   27.2166   44.7079 H   0  0  0  0  0  0  0  0  0  0  0  0
   58.8687   25.7428   45.5874 H   0  0  0  0  0  0  0  0  0  0  0  0
   57.2089   28.2506   45.6275 H   0  0  0  0  0  0  0  0  0  0  0  0
   57.2409   27.1911   44.1396 H   0  0  0  0  0  0  0  0  0  0  0  0
   59.1909   23.9319   46.3656 H   0  0  0  0  0  0  0  0  0  0  0  0
   60.0334   22.0300   45.0000 H   0  0  0  0  0  0  0  0  0  0  0  0
   58.5469   20.9481   43.3147 H   0  0  0  0  0  0  0  0  0  0  0  0
   56.2244   21.7810   42.9750 H   0  0  0  0  0  0  0  0  0  0  0  0
   54.4629   23.8488   45.3188 H   0  0  0  0  0  0  0  0  0  0  0  0
   54.8786   24.6650   43.7736 H   0  0  0  0  0  0  0  0  0  0  0  0
   54.3934   22.9354   43.7736 H   0  0  0  0  0  0  0  0  0  0  0  0
   58.2650   29.2862   46.6194 H   0  0  0  0  0  0  0  0  0  0  0  0
   58.9886   30.1509   48.8432 H   0  0  0  0  0  0  0  0  0  0  0  0
   59.0660   32.0738   49.1439 H   0  0  0  0  0  0  0  0  0  0  0  0
   56.2722   33.8786   46.3224 H   0  0  0  0  0  0  0  0  0  0  0  0
   57.6750   34.9579   45.8930 H   0  0  0  0  0  0  0  0  0  0  0  0
   56.5443   32.5979   44.4326 H   0  0  0  0  0  0  0  0  0  0  0  0
   57.3171   34.1085   43.8137 H   0  0  0  0  0  0  0  0  0  0  0  0
   57.9688   30.7061   44.8067 H   0  0  0  0  0  0  0  0  0  0  0  0
   59.6886   31.1286   45.2452 H   0  0  0  0  0  0  0  0  0  0  0  0
   57.2201   31.3484   46.8450 H   0  0  0  0  0  0  0  0  0  0  0  0
   58.9664   31.3274   47.3426 H   0  0  0  0  0  0  0  0  0  0  0  0
  1  2  1  0
  2  3  1  0
  3  4  2  0
  4  5  1  0
  5  6  2  0
  6  7  1  0
  7  8  1  0
  8  9  2  0
  8 10  2  0
  8 11  1  0
 11 12  2  0
 12 13  1  0
 13 14  2  0
 14 15  1  0
 15 16  1  0
 16 17  1  0
 17 18  2  0
 17 19  1  0
 19 20  1  0
 20 21  2  0
 21 22  1  0
 22 23  2  0
 23 24  1  0
 24 25  2  0
 25 26  1  0
 14 27  1  0
 27 28  2  0
  6 29  1  0
 29 30  2  0
 30 31  1  0
 31 32  2  0
 31 33  2  0
 31 34  1  0
 34 35  1  0
 35 36  1  0
 36 37  1  0
 37 38  1  0
 38 39  1  0
 30  3  1  0
 39 34  1  0
 28 11  1  0
 25 20  1  0
  1 40  1  0
  1 41  1  0
  1 42  1  0
  4 43  1  0
  5 44  1  0
  7 45  1  0
 12 46  1  0
 13 47  1  0
 15 48  1  0
 15 49  1  0
 16 50  1  0
 16 51  1  0
 21 52  1  0
 22 53  1  0
 23 54  1  0
 24 55  1  0
 26 56  1  0
 26 57  1  0
 26 58  1  0
 27 59  1  0
 28 60  1  0
 29 61  1  0
 35 62  1  0
 35 63  1  0
 36 64  1  0
 36 65  1  0
 38 66  1  0
 38 67  1  0
 39 68  1  0
 39 69  1  0
M  CHG  1  19  -1
M  END
>  <UniqueID>  (69) 
61

>  <SMILES>  (69) 
COc1ccc(NS(=O)(=O)c2ccc(CCC(=O)[N-]c3ccccc3C)cc2)cc1S(=O)(=O)N1CCOCC1

>  <Energy>  (69) 
89.06325530276602

>  <Genealogy>  (69) 
COc1ccc(NS(=O)(=O)c2ccc(CCC(=O)[N-]c3ccccc3C)cc2)cc1S(=O)(=O)N1CCOCC1 (protonated)
COc1ccc(NS(=O)(=O)c2ccc(CCC(=O)[N-]c3ccccc3C)cc2)cc1S(=O)(=O)N1CCOCC1 (3D coordinates assigned)
COc1ccc(NS(=O)(=O)c2ccc(CCC(=O)[N-]c3ccccc3C)cc2)cc1S(=O)(=O)N1CCOCC1 (nonaromatic ring conformer: 89.06325530276602 kcal/mol)

>  <smiles>  (69) 
COc1ccc(NS(=O)(=O)c2ccc(CCC(=O)Nc3ccccc3C)cc2)cc1S(=O)(=O)N1CCOCC1

>  <score_type>  (69) 
oracle

>  <origin>  (69) 
adg

>  <m_score__min__energy>  (69) 
-11.77

>  <m_primary>  (69) 
energy

$$$$
69:0
     RDKit          3D

 48 50  0  0  0  0  0  0  0  0999 V2000
   61.1820   28.6180   44.4950 C   0  0  0  0  0  0  0  0  0  0  0  0
   60.2620   29.6120   44.9350 O   0  0  0  0  0  0  0  0  0  0  0  0
   60.1200   30.0290   46.2690 C   0  0  0  0  0  0  0  0  0  0  0  0
   60.7860   31.1640   46.7700 C   0  0  0  0  0  0  0  0  0  0  0  0
   60.6380   31.5440   48.1140 C   0  0  0  0  0  0  0  0  0  0  0  0
   61.3750   32.7370   48.6640 C   0  0  0  0  0  0  0  0  0  0  0  0
   61.3190   33.8520   47.7040 N   0  0  0  0  0  0  0  0  0  0  0  0
   60.0430   34.5830   47.7650 C   0  0  0  0  0  0  0  0  0  0  0  0
   59.1500   34.2170   46.6100 C   0  0  0  0  0  0  0  0  0  0  0  0
   57.8090   33.8690   46.8270 C   0  0  0  0  0  0  0  0  0  0  0  0
   57.0040   33.5210   45.7390 C   0  0  0  0  0  0  0  0  0  0  0  0
   57.5200   33.5190   44.4830 N   0  0  0  0  0  0  0  0  0  0  0  0
   58.8160   33.8540   44.2440 C   0  0  0  0  0  0  0  0  0  0  0  0
   59.6540   34.2130   45.3010 C   0  0  0  0  0  0  0  0  0  0  0  0
   59.8150   30.7860   48.9580 C   0  0  0  0  0  0  0  0  0  0  0  0
   59.1520   29.6610   48.4690 C   0  0  0  0  0  0  0  0  0  0  0  0
   59.2920   29.2830   47.1260 C   0  0  0  0  0  0  0  0  0  0  0  0
   58.6220   28.0590   46.6460 C   0  0  0  0  0  0  0  0  0  0  0  0
   59.0370   26.8280   47.1780 C   0  0  0  0  0  0  0  0  0  0  0  0
   58.4470   25.6370   46.7510 C   0  0  0  0  0  0  0  0  0  0  0  0
   57.4390   25.6630   45.7880 C   0  0  0  0  0  0  0  0  0  0  0  0
   57.0160   26.8810   45.2510 C   0  0  0  0  0  0  0  0  0  0  0  0
   57.5910   28.0900   45.6760 C   0  0  0  0  0  0  0  0  0  0  0  0
   57.0190   29.5980   44.9450 S   0  0  0  0  0  0  0  0  0  0  0  0
   57.7000   29.7680   43.3660 N   0  0  0  0  0  0  0  0  0  0  0  0
   55.5200   29.5640   44.8290 O   0  0  0  0  0  0  0  0  0  0  0  0
   57.3970   30.7790   45.7940 O   0  0  0  0  0  0  0  0  0  0  0  0
   61.6365   28.1269   45.3681 H   0  0  0  0  0  0  0  0  0  0  0  0
   60.6509   27.8696   43.8885 H   0  0  0  0  0  0  0  0  0  0  0  0
   61.9692   29.0897   43.8885 H   0  0  0  0  0  0  0  0  0  0  0  0
   61.4278   31.7582   46.1029 H   0  0  0  0  0  0  0  0  0  0  0  0
   60.9090   33.0480   49.6106 H   0  0  0  0  0  0  0  0  0  0  0  0
   62.4261   32.4629   48.8370 H   0  0  0  0  0  0  0  0  0  0  0  0
   61.3950   33.4510   46.7400 H   0  0  0  0  0  0  0  0  0  0  0  0
   59.5317   34.3343   48.7066 H   0  0  0  0  0  0  0  0  0  0  0  0
   60.2563   35.6608   47.7123 H   0  0  0  0  0  0  0  0  0  0  0  0
   57.3940   33.8699   47.8457 H   0  0  0  0  0  0  0  0  0  0  0  0
   55.9506   33.2483   45.9003 H   0  0  0  0  0  0  0  0  0  0  0  0
   59.2050   33.8421   43.2151 H   0  0  0  0  0  0  0  0  0  0  0  0
   60.7010   34.4905   45.1090 H   0  0  0  0  0  0  0  0  0  0  0  0
   59.6915   31.0798   50.0108 H   0  0  0  0  0  0  0  0  0  0  0  0
   58.5154   29.0665   49.1408 H   0  0  0  0  0  0  0  0  0  0  0  0
   59.8329   26.8016   47.9369 H   0  0  0  0  0  0  0  0  0  0  0  0
   58.7776   24.6772   47.1746 H   0  0  0  0  0  0  0  0  0  0  0  0
   56.9766   24.7236   45.4509 H   0  0  0  0  0  0  0  0  0  0  0  0
   56.2244   26.8936   44.4873 H   0  0  0  0  0  0  0  0  0  0  0  0
   57.6970   28.8220   42.9250 H   0  0  0  0  0  0  0  0  0  0  0  0
   58.7020   30.0360   43.4910 H   0  0  0  0  0  0  0  0  0  0  0  0
  1  2  1  0
  2  3  1  0
  3  4  2  0
  4  5  1  0
  5  6  1  0
  6  7  1  0
  7  8  1  0
  8  9  1  0
  9 10  2  0
 10 11  1  0
 11 12  2  0
 12 13  1  0
 13 14  2  0
  5 15  2  0
 15 16  1  0
 16 17  2  0
 17 18  1  0
 18 19  2  0
 19 20  1  0
 20 21  2  0
 21 22  1  0
 22 23  2  0
 23 24  1  0
 24 25  1  0
 24 26  2  0
 24 27  2  0
 17  3  1  0
 23 18  1  0
 14  9  1  0
  1 28  1  0
  1 29  1  0
  1 30  1  0
  4 31  1  0
  6 32  1  0
  6 33  1  0
  7 34  1  0
  8 35  1  0
  8 36  1  0
 10 37  1  0
 11 38  1  0
 13 39  1  0
 14 40  1  0
 15 41  1  0
 16 42  1  0
 19 43  1  0
 20 44  1  0
 21 45  1  0
 22 46  1  0
 25 47  1  0
 25 48  1  0
M  END
>  <UniqueID>  (70) 
62

>  <SMILES>  (70) 
COc1cc(CNCc2ccncc2)ccc1-c1ccccc1S(N)(=O)=O

>  <Energy>  (70) 
53.878256262626536

>  <Genealogy>  (70) 
COc1cc(CNCc2ccncc2)ccc1-c1ccccc1S(N)(=O)=O (3D coordinates assigned)
COc1cc(CNCc2ccncc2)ccc1-c1ccccc1S(N)(=O)=O (optimized conformer: 53.878256262626536 kcal/mol)

>  <smiles>  (70) 
COc1cc(CNCc2ccncc2)ccc1-c1ccccc1S(N)(=O)=O

>  <score_type>  (70) 
oracle

>  <origin>  (70) 
adg

>  <m_score__min__energy>  (70) 
-7.8899999999999997

>  <m_primary>  (70) 
energy

$$$$
70:0
     RDKit          3D

 25 26  0  0  0  0  0  0  0  0999 V2000
   54.9916   30.8880   43.6684 H   0  0  0  0  0  0  0  0  0  0  0  0
   55.7100   30.0850   43.8900 C   0  0  0  0  0  0  0  0  0  0  0  0
   55.6220   29.3150   45.0070 N   0  0  0  0  0  0  0  0  0  0  0  0
   56.6160   28.4010   45.0560 C   0  0  0  0  0  0  0  0  0  0  0  0
   56.7720   27.5350   46.0130 N   0  0  0  0  0  0  0  0  0  0  0  0
   57.9880   27.2760   46.7310 C   0  0  0  0  0  0  0  0  0  0  0  0
   58.4160   26.1000   46.8920 O   0  0  0  0  0  0  0  0  0  0  0  0
   58.7700   28.4270   47.2800 C   0  0  0  0  0  0  0  0  0  0  0  0
   58.7209   28.4087   48.3788 H   0  0  0  0  0  0  0  0  0  0  0  0
   59.8157   28.3410   46.9497 H   0  0  0  0  0  0  0  0  0  0  0  0
   58.2180   29.6890   46.7930 N   0  0  0  0  0  0  0  0  0  0  0  0
   57.2140   29.7030   46.5080 H   0  0  0  0  0  0  0  0  0  0  0  0
   59.0020   30.8900   46.7210 C   0  0  0  0  0  0  0  0  0  0  0  0
   60.1930   30.8890   47.1360 O   0  0  0  0  0  0  0  0  0  0  0  0
   58.4450   32.1380   46.1720 C   0  0  0  0  0  0  0  0  0  0  0  0
   57.2520   32.2170   45.6290 O   0  0  0  0  0  0  0  0  0  0  0  0
   57.0450   33.4530   45.2390 C   0  0  0  0  0  0  0  0  0  0  0  0
   56.1306   33.8177   44.7482 H   0  0  0  0  0  0  0  0  0  0  0  0
   58.1480   34.2250   45.5380 C   0  0  0  0  0  0  0  0  0  0  0  0
   58.2778   35.2985   45.3360 H   0  0  0  0  0  0  0  0  0  0  0  0
   59.0550   33.3800   46.1410 C   0  0  0  0  0  0  0  0  0  0  0  0
   60.0551   33.6389   46.5188 H   0  0  0  0  0  0  0  0  0  0  0  0
   57.6360   28.5070   43.7280 S   0  0  0  0  0  0  0  0  0  0  0  0
   56.7750   29.7830   43.0480 C   0  0  0  0  0  0  0  0  0  0  0  0
   57.0132   30.2903   42.1015 H   0  0  0  0  0  0  0  0  0  0  0  0
  1  2  1  0
  2  3  1  0
  3  4  1  0
  4  5  2  0
  5  6  1  0
  6  7  2  0
  6  8  1  0
  8  9  1  0
  8 10  1  0
  8 11  1  0
 11 12  1  0
 11 13  1  0
 13 14  2  0
 13 15  1  0
 15 16  1  0
 16 17  1  0
 17 18  1  0
 17 19  2  0
 19 20  1  0
 19 21  1  0
 21 22  1  0
  4 23  1  0
 23 24  1  0
 24 25  1  0
 24  2  2  0
 21 15  2  0
M  CHG  1   3  -1
M  END
>  <UniqueID>  (71) 
63

>  <SMILES>  (71) 
O=C(CNC(=O)c1ccco1)/N=c1\[n-]ccs1

>  <Energy>  (71) 
79.36197516755337

>  <Genealogy>  (71) 
O=C(CNC(=O)c1ccco1)N=c1[n-]ccs1 (protonated)
O=C(CNC(=O)c1ccco1)/N=c1\[n-]ccs1 (cis-trans isomerization)
O=C(CNC(=O)c1ccco1)/N=c1\[n-]ccs1 (3D coordinates assigned)
O=C(CNC(=O)c1ccco1)/N=c1\[n-]ccs1 (optimized conformer: 79.36197516755337 kcal/mol)

>  <smiles>  (71) 
O=C(CNC(=O)c1ccco1)N=c1[nH]ccs1

>  <score_type>  (71) 
oracle

>  <origin>  (71) 
adg

>  <m_score__min__energy>  (71) 
-8.0600000000000005

>  <m_primary>  (71) 
energy

$$$$
71:0
     RDKit          3D

 27 28  0  0  0  0  0  0  0  0999 V2000
   57.8440   28.9640   46.9360 O   0  0  0  0  0  0  0  0  0  0  0  0
   57.4150   29.0870   45.7570 C   0  0  0  0  0  0  0  0  0  0  0  0
   57.2260   27.8700   44.9090 C   0  0  0  0  0  0  0  0  0  0  0  0
   57.2220   26.6340   45.7740 C   0  0  0  0  0  0  0  0  0  0  0  0
   56.0180   26.0960   46.2640 C   0  0  0  0  0  0  0  0  0  0  0  0
   54.8010   26.7090   45.9890 O   0  0  0  0  0  0  0  0  0  0  0  0
   56.0350   24.9640   47.0140 N   0  0  0  0  0  0  0  0  0  0  0  0
   57.1990   24.3270   47.2970 C   0  0  0  0  0  0  0  0  0  0  0  0
   57.1900   23.2810   47.9960 O   0  0  0  0  0  0  0  0  0  0  0  0
   58.3740   24.8140   46.8230 N   0  0  0  0  0  0  0  0  0  0  0  0
   58.4120   25.9420   46.0680 C   0  0  0  0  0  0  0  0  0  0  0  0
   59.5210   26.3570   45.6360 O   0  0  0  0  0  0  0  0  0  0  0  0
   57.0960   30.3770   45.2210 N   0  0  0  0  0  0  0  0  0  0  0  0
   57.6760   31.6290   45.6110 C   0  0  0  0  0  0  0  0  0  0  0  0
   57.0490   32.8160   45.2090 C   0  0  0  0  0  0  0  0  0  0  0  0
   57.5950   34.0570   45.5490 C   0  0  0  0  0  0  0  0  0  0  0  0
   58.7860   34.1230   46.2820 C   0  0  0  0  0  0  0  0  0  0  0  0
   59.3400   35.3540   46.6290 O   0  0  0  0  0  0  0  0  0  0  0  0
   59.4310   32.9430   46.6670 C   0  0  0  0  0  0  0  0  0  0  0  0
   58.8850   31.7000   46.3280 C   0  0  0  0  0  0  0  0  0  0  0  0
   56.2674   27.9437   44.3745 H   0  0  0  0  0  0  0  0  0  0  0  0
   58.0521   27.8020   44.1858 H   0  0  0  0  0  0  0  0  0  0  0  0
   56.1202   32.7708   44.6215 H   0  0  0  0  0  0  0  0  0  0  0  0
   57.0882   34.9832   45.2402 H   0  0  0  0  0  0  0  0  0  0  0  0
   59.0200   35.8690   47.4400 H   0  0  0  0  0  0  0  0  0  0  0  0
   60.3700   32.9923   47.2378 H   0  0  0  0  0  0  0  0  0  0  0  0
   59.4025   30.7752   46.6229 H   0  0  0  0  0  0  0  0  0  0  0  0
  1  2  2  0
  2  3  1  0
  3  4  1  0
  4  5  2  0
  5  6  1  0
  5  7  1  0
  7  8  1  0
  8  9  2  0
  8 10  1  0
 10 11  1  0
 11 12  2  0
  2 13  1  0
 13 14  1  0
 14 15  2  0
 15 16  1  0
 16 17  2  0
 17 18  1  0
 17 19  1  0
 19 20  2  0
 11  4  1  0
 20 14  1  0
  3 21  1  0
  3 22  1  0
 15 23  1  0
 16 24  1  0
 18 25  1  0
 19 26  1  0
 20 27  1  0
M  CHG  4   6  -1   7  -1  10  -1  13  -1
M  END
>  <UniqueID>  (72) 
64

>  <SMILES>  (72) 
O=C(Cc1c([O-])[n-]c(=O)[n-]c1=O)[N-]c1ccc(O)cc1

>  <Energy>  (72) 
31.7981890329546

>  <Genealogy>  (72) 
O=C(Cc1c([O-])[n-]c(=O)[n-]c1=O)[N-]c1ccc(O)cc1 (protonated)
O=C(Cc1c([O-])[n-]c(=O)[n-]c1=O)[N-]c1ccc(O)cc1 (3D coordinates assigned)
O=C(Cc1c([O-])[n-]c(=O)[n-]c1=O)[N-]c1ccc(O)cc1 (optimized conformer: 31.7981890329546 kcal/mol)

>  <smiles>  (72) 
O=C(Cc1c(O)[nH]c(=O)[nH]c1=O)Nc1ccc(O)cc1

>  <score_type>  (72) 
oracle

>  <origin>  (72) 
adg

>  <m_score__min__energy>  (72) 
-14.85

>  <m_primary>  (72) 
energy

$$$$
72:0
     RDKit          3D

 60 64  0  0  0  0  0  0  0  0999 V2000
   55.4210   30.7330   44.4570 O   0  0  0  0  0  0  0  0  0  0  0  0
   56.6660   30.7260   44.6520 C   0  0  0  0  0  0  0  0  0  0  0  0
   57.4830   29.5550   44.1970 C   0  0  0  0  0  0  0  0  0  0  0  0
   57.1920   28.3260   45.0240 C   0  0  0  0  0  0  0  0  0  0  0  0
   55.8900   28.0080   45.2530 N   0  0  0  0  0  0  0  0  0  0  0  0
   55.5330   26.9520   45.9820 N   0  0  0  0  0  0  0  0  0  0  0  0
   56.4520   26.1290   46.5450 C   0  0  0  0  0  0  0  0  0  0  0  0
   56.0620   25.1390   47.2220 O   0  0  0  0  0  0  0  0  0  0  0  0
   57.8210   26.3930   46.3640 C   0  0  0  0  0  0  0  0  0  0  0  0
   58.8100   25.5670   46.9360 C   0  0  0  0  0  0  0  0  0  0  0  0
   60.1620   25.8610   46.7590 C   0  0  0  0  0  0  0  0  0  0  0  0
   60.5450   26.9730   46.0080 C   0  0  0  0  0  0  0  0  0  0  0  0
   59.5800   27.7910   45.4200 C   0  0  0  0  0  0  0  0  0  0  0  0
   58.2060   27.5160   45.5920 C   0  0  0  0  0  0  0  0  0  0  0  0
   57.3200   31.8240   45.3030 N   0  0  0  0  0  0  0  0  0  0  0  0
   58.4780   31.7810   46.1530 C   0  0  0  0  0  0  0  0  0  0  0  0
   59.4640   30.8210   45.8900 C   0  0  0  0  0  0  0  0  0  0  0  0
   60.5930   30.7200   46.7080 C   0  0  0  0  0  0  0  0  0  0  0  0
   60.7470   31.5780   47.8000 C   0  0  0  0  0  0  0  0  0  0  0  0
   59.7820   32.5590   48.0610 C   0  0  0  0  0  0  0  0  0  0  0  0
   59.9030   33.5950   49.4810 S   0  0  0  0  0  0  0  0  0  0  0  0
   59.2690   34.9210   49.1680 O   0  0  0  0  0  0  0  0  0  0  0  0
   61.3460   33.8150   49.8480 O   0  0  0  0  0  0  0  0  0  0  0  0
   59.0630   32.8350   50.8090 N   0  0  0  0  0  0  0  0  0  0  0  0
   59.5050   31.4300   50.9490 C   0  0  0  0  0  0  0  0  0  0  0  0
   59.1370   30.8250   52.3190 C   0  0  0  0  0  0  0  0  0  0  0  0
   58.1060   31.6290   52.9820 N   0  0  0  0  0  0  0  0  0  0  0  0
   56.9590   30.9990   53.5780 C   0  0  0  0  0  0  0  0  0  0  0  0
   56.8740   30.8750   54.9750 C   0  0  0  0  0  0  0  0  0  0  0  0
   55.7620   30.2670   55.5630 C   0  0  0  0  0  0  0  0  0  0  0  0
   54.7230   29.7860   54.7630 C   0  0  0  0  0  0  0  0  0  0  0  0
   54.7900   29.9190   53.3730 C   0  0  0  0  0  0  0  0  0  0  0  0
   55.9020   30.5270   52.7750 C   0  0  0  0  0  0  0  0  0  0  0  0
   55.9540   30.6840   51.3890 O   0  0  0  0  0  0  0  0  0  0  0  0
   58.3040   33.0780   53.1170 C   0  0  0  0  0  0  0  0  0  0  0  0
   59.2790   33.5910   52.0500 C   0  0  0  0  0  0  0  0  0  0  0  0
   58.6650   32.6760   47.2240 C   0  0  0  0  0  0  0  0  0  0  0  0
   57.2475   29.3418   43.1439 H   0  0  0  0  0  0  0  0  0  0  0  0
   58.5469   29.8081   44.3154 H   0  0  0  0  0  0  0  0  0  0  0  0
   58.5140   24.6863   47.5248 H   0  0  0  0  0  0  0  0  0  0  0  0
   60.9280   25.2148   47.2125 H   0  0  0  0  0  0  0  0  0  0  0  0
   61.6124   27.2056   45.8791 H   0  0  0  0  0  0  0  0  0  0  0  0
   59.8921   28.6569   44.8177 H   0  0  0  0  0  0  0  0  0  0  0  0
   59.3488   30.1413   45.0329 H   0  0  0  0  0  0  0  0  0  0  0  0
   61.3617   29.9635   46.4916 H   0  0  0  0  0  0  0  0  0  0  0  0
   61.6259   31.4830   48.4546 H   0  0  0  0  0  0  0  0  0  0  0  0
   59.0279   30.8305   50.1598 H   0  0  0  0  0  0  0  0  0  0  0  0
   60.6015   31.4161   50.8629 H   0  0  0  0  0  0  0  0  0  0  0  0
   58.7583   29.8027   52.1720 H   0  0  0  0  0  0  0  0  0  0  0  0
   60.0363   30.8123   52.9523 H   0  0  0  0  0  0  0  0  0  0  0  0
   57.6870   31.2585   55.6089 H   0  0  0  0  0  0  0  0  0  0  0  0
   55.7047   30.1670   56.6569 H   0  0  0  0  0  0  0  0  0  0  0  0
   53.8511   29.3020   55.2272 H   0  0  0  0  0  0  0  0  0  0  0  0
   53.9669   29.5451   52.7464 H   0  0  0  0  0  0  0  0  0  0  0  0
   55.8330   31.5890   50.9510 H   0  0  0  0  0  0  0  0  0  0  0  0
   57.3366   33.5878   52.9978 H   0  0  0  0  0  0  0  0  0  0  0  0
   58.7243   33.2875   54.1117 H   0  0  0  0  0  0  0  0  0  0  0  0
   59.0982   34.6606   51.8676 H   0  0  0  0  0  0  0  0  0  0  0  0
   60.3150   33.4561   52.3944 H   0  0  0  0  0  0  0  0  0  0  0  0
   57.9285   33.4728   47.4046 H   0  0  0  0  0  0  0  0  0  0  0  0
  1  2  2  0
  2  3  1  0
  3  4  1  0
  4  5  2  0
  5  6  1  0
  6  7  1  0
  7  8  2  0
  7  9  1  0
  9 10  2  0
 10 11  1  0
 11 12  2  0
 12 13  1  0
 13 14  2  0
  2 15  1  0
 15 16  1  0
 16 17  2  0
 17 18  1  0
 18 19  2  0
 19 20  1  0
 20 21  1  0
 21 22  2  0
 21 23  2  0
 21 24  1  0
 24 25  1  0
 25 26  1  0
 26 27  1  0
 27 28  1  0
 28 29  2  0
 29 30  1  0
 30 31  2  0
 31 32  1  0
 32 33  2  0
 33 34  1  0
 27 35  1  0
 35 36  1  0
 20 37  2  0
 14  4  1  0
 37 16  1  0
 14  9  1  0
 36 24  1  0
 33 28  1  0
  3 38  1  0
  3 39  1  0
 10 40  1  0
 11 41  1  0
 12 42  1  0
 13 43  1  0
 17 44  1  0
 18 45  1  0
 19 46  1  0
 25 47  1  0
 25 48  1  0
 26 49  1  0
 26 50  1  0
 29 51  1  0
 30 52  1  0
 31 53  1  0
 32 54  1  0
 34 55  1  0
 35 56  1  0
 35 57  1  0
 36 58  1  0
 36 59  1  0
 37 60  1  0
M  CHG  2   6  -1  15  -1
M  END
>  <UniqueID>  (73) 
65

>  <SMILES>  (73) 
O=C(Cc1n[n-]c(=O)c2ccccc12)[N-]c1cccc(S(=O)(=O)N2CCN(c3ccccc3O)CC2)c1

>  <Energy>  (73) 
82.89208037807818

>  <Genealogy>  (73) 
O=C(Cc1n[n-]c(=O)c2ccccc12)[N-]c1cccc(S(=O)(=O)N2CCN(c3ccccc3O)CC2)c1 (protonated)
O=C(Cc1n[n-]c(=O)c2ccccc12)[N-]c1cccc(S(=O)(=O)N2CCN(c3ccccc3O)CC2)c1 (3D coordinates assigned)
O=C(Cc1n[n-]c(=O)c2ccccc12)[N-]c1cccc(S(=O)(=O)N2CCN(c3ccccc3O)CC2)c1 (nonaromatic ring conformer: 82.89208037807818 kcal/mol)

>  <smiles>  (73) 
O=C(Cc1n[nH]c(=O)c2ccccc12)Nc1cccc(S(=O)(=O)N2CCN(c3ccccc3O)CC2)c1

>  <score_type>  (73) 
oracle

>  <origin>  (73) 
adg

>  <m_score__min__energy>  (73) 
-14.859999999999999

>  <m_primary>  (73) 
energy

$$$$
73:0
     RDKit          3D

 64 68  0  0  0  0  0  0  0  0999 V2000
   64.8540   29.4530   53.5910 C   0  0  0  0  0  0  0  0  0  0  0  0
   65.9720   28.9190   52.7310 C   0  0  0  0  0  0  0  0  0  0  0  0
   66.5380   27.6740   53.0580 C   0  0  0  0  0  0  0  0  0  0  0  0
   67.5930   27.1530   52.3070 C   0  0  0  0  0  0  0  0  0  0  0  0
   68.0950   27.8650   51.2180 C   0  0  0  0  0  0  0  0  0  0  0  0
   67.5350   29.0940   50.8670 C   0  0  0  0  0  0  0  0  0  0  0  0
   66.4650   29.6360   51.6070 C   0  0  0  0  0  0  0  0  0  0  0  0
   65.8750   30.9280   51.1780 C   0  0  0  0  0  0  0  0  0  0  0  0
   66.5200   32.1460   51.4500 C   0  0  0  0  0  0  0  0  0  0  0  0
   65.9280   33.3420   51.0410 C   0  0  0  0  0  0  0  0  0  0  0  0
   64.7030   33.3220   50.3710 C   0  0  0  0  0  0  0  0  0  0  0  0
   64.0820   32.0910   50.1080 C   0  0  0  0  0  0  0  0  0  0  0  0
   62.7630   32.0250   49.4430 C   0  0  0  0  0  0  0  0  0  0  0  0
   62.2400   30.9010   49.2180 O   0  0  0  0  0  0  0  0  0  0  0  0
   62.1100   33.2330   49.0120 N   0  0  0  0  0  0  0  0  0  0  0  0
   60.9910   33.2720   48.1100 C   0  0  0  0  0  0  0  0  0  0  0  0
   59.6800   32.9930   48.5380 C   0  0  0  0  0  0  0  0  0  0  0  0
   58.6200   33.0250   47.6270 C   0  0  0  0  0  0  0  0  0  0  0  0
   58.8510   33.3540   46.2840 C   0  0  0  0  0  0  0  0  0  0  0  0
   57.5430   33.3480   45.1080 S   0  0  0  0  0  0  0  0  0  0  0  0
   58.1280   33.4620   43.7280 O   0  0  0  0  0  0  0  0  0  0  0  0
   56.6180   34.5120   45.3400 O   0  0  0  0  0  0  0  0  0  0  0  0
   56.6870   31.8360   45.2460 N   0  0  0  0  0  0  0  0  0  0  0  0
   56.8310   31.0000   44.0490 C   0  0  1  0  0  0  0  0  0  0  0  0
   58.2680   30.4480   43.9750 C   0  0  0  0  0  0  0  0  0  0  0  0
   58.7630   29.9160   45.2950 C   0  0  0  0  0  0  0  0  0  0  0  0
   59.7110   30.5160   46.1200 C   0  0  0  0  0  0  0  0  0  0  0  0
   60.0010   29.7170   47.1700 N   0  0  0  0  0  0  0  0  0  0  0  0
   59.2480   28.6130   47.0140 C   0  0  0  0  0  0  0  0  0  0  0  0
   59.2270   27.4850   47.8340 C   0  0  0  0  0  0  0  0  0  0  0  0
   58.3800   26.4240   47.4690 C   0  0  0  0  0  0  0  0  0  0  0  0
   57.5870   26.5100   46.3030 C   0  0  0  0  0  0  0  0  0  0  0  0
   57.6300   27.6590   45.4930 C   0  0  0  0  0  0  0  0  0  0  0  0
   58.4790   28.6970   45.8800 C   0  0  0  0  0  0  0  0  0  0  0  0
   55.8210   29.8790   44.0320 C   0  0  0  0  0  0  0  0  0  0  0  0
   55.4830   29.3530   42.9390 O   0  0  0  0  0  0  0  0  0  0  0  0
   55.2920   29.3880   45.2200 O   0  0  0  0  0  0  0  0  0  0  0  0
   60.1480   33.6700   45.8650 C   0  0  0  0  0  0  0  0  0  0  0  0
   61.2080   33.6370   46.7730 C   0  0  0  0  0  0  0  0  0  0  0  0
   64.6880   30.9410   50.5120 N   0  0  0  0  0  0  0  0  0  0  0  0
   65.1158   29.3279   54.6520 H   0  0  0  0  0  0  0  0  0  0  0  0
   64.7025   30.5207   53.3741 H   0  0  0  0  0  0  0  0  0  0  0  0
   63.9283   28.8998   53.3741 H   0  0  0  0  0  0  0  0  0  0  0  0
   66.1456   27.1052   53.9138 H   0  0  0  0  0  0  0  0  0  0  0  0
   68.0291   26.1792   52.5746 H   0  0  0  0  0  0  0  0  0  0  0  0
   68.9338   27.4571   50.6348 H   0  0  0  0  0  0  0  0  0  0  0  0
   67.9332   29.6461   50.0029 H   0  0  0  0  0  0  0  0  0  0  0  0
   67.4834   32.1571   51.9808 H   0  0  0  0  0  0  0  0  0  0  0  0
   66.4266   34.3007   51.2465 H   0  0  0  0  0  0  0  0  0  0  0  0
   64.2291   34.2621   50.0523 H   0  0  0  0  0  0  0  0  0  0  0  0
   62.5740   34.1430   49.2280 H   0  0  0  0  0  0  0  0  0  0  0  0
   59.4884   32.7488   49.5933 H   0  0  0  0  0  0  0  0  0  0  0  0
   57.5999   32.7909   47.9656 H   0  0  0  0  0  0  0  0  0  0  0  0
   56.6378   31.6223   43.1627 H   0  0  0  0  0  0  0  0  0  0  0  0
   58.2928   29.6327   43.2370 H   0  0  0  0  0  0  0  0  0  0  0  0
   58.9263   31.2814   43.6884 H   0  0  0  0  0  0  0  0  0  0  0  0
   60.1613   31.5036   45.9414 H   0  0  0  0  0  0  0  0  0  0  0  0
   60.6930   29.9070   47.9280 H   0  0  0  0  0  0  0  0  0  0  0  0
   59.8527   27.4274   48.7368 H   0  0  0  0  0  0  0  0  0  0  0  0
   58.3344   25.5209   48.0954 H   0  0  0  0  0  0  0  0  0  0  0  0
   56.9307   25.6717   46.0264 H   0  0  0  0  0  0  0  0  0  0  0  0
   57.0148   27.7370   44.5845 H   0  0  0  0  0  0  0  0  0  0  0  0
   60.3332   33.9455   44.8163 H   0  0  0  0  0  0  0  0  0  0  0  0
   62.2221   33.8995   46.4371 H   0  0  0  0  0  0  0  0  0  0  0  0
  1  2  1  0
  2  3  2  0
  3  4  1  0
  4  5  2  0
  5  6  1  0
  6  7  2  0
  7  8  1  0
  8  9  2  0
  9 10  1  0
 10 11  2  0
 11 12  1  0
 12 13  1  0
 13 14  2  0
 13 15  1  0
 15 16  1  0
 16 17  2  0
 17 18  1  0
 18 19  2  0
 19 20  1  0
 20 21  2  0
 20 22  2  0
 20 23  1  0
 23 24  1  0
 24 25  1  0
 25 26  1  0
 26 27  2  0
 27 28  1  0
 28 29  1  0
 29 30  2  0
 30 31  1  0
 31 32  2  0
 32 33  1  0
 33 34  2  0
 24 35  1  0
 35 36  2  0
 35 37  1  0
 19 38  1  0
 38 39  2  0
 12 40  2  0
  7  2  1  0
 40  8  1  0
 39 16  1  0
 34 26  1  0
 34 29  1  0
  1 41  1  0
  1 42  1  0
  1 43  1  0
  3 44  1  0
  4 45  1  0
  5 46  1  0
  6 47  1  0
  9 48  1  0
 10 49  1  0
 11 50  1  0
 15 51  1  0
 17 52  1  0
 18 53  1  0
 24 54  1  6
 25 55  1  0
 25 56  1  0
 27 57  1  0
 28 58  1  0
 30 59  1  0
 31 60  1  0
 32 61  1  0
 33 62  1  0
 38 63  1  0
 39 64  1  0
M  CHG  2  23  -1  37  -1
M  END
>  <UniqueID>  (74) 
66

>  <SMILES>  (74) 
Cc1ccccc1-c1cccc(C(=O)Nc2ccc(S(=O)(=O)[N-][C@@H](Cc3c[nH]c4ccccc34)C(=O)[O-])cc2)n1

>  <Energy>  (74) 
112.38241171113991

>  <Genealogy>  (74) 
Cc1ccccc1-c1cccc(C(=O)Nc2ccc(S(=O)(=O)[N-]C(Cc3c[nH]c4ccccc34)C(=O)[O-])cc2)n1 (protonated)
Cc1ccccc1-c1cccc(C(=O)Nc2ccc(S(=O)(=O)[N-][C@@H](Cc3c[nH]c4ccccc34)C(=O)[O-])cc2)n1 (chirality)
Cc1ccccc1-c1cccc(C(=O)Nc2ccc(S(=O)(=O)[N-][C@@H](Cc3c[nH]c4ccccc34)C(=O)[O-])cc2)n1 (3D coordinates assigned)
Cc1ccccc1-c1cccc(C(=O)Nc2ccc(S(=O)(=O)[N-][C@@H](Cc3c[nH]c4ccccc34)C(=O)[O-])cc2)n1 (optimized conformer: 112.38241171113991 kcal/mol)

>  <smiles>  (74) 
Cc1ccccc1-c1cccc(C(=O)Nc2ccc(S(=O)(=O)NC(Cc3c[nH]c4ccccc34)C(=O)O)cc2)n1

>  <score_type>  (74) 
oracle

>  <origin>  (74) 
adg

>  <m_score__min__energy>  (74) 
-14.41

>  <m_primary>  (74) 
energy

$$$$
74:0
     RDKit          3D

 54 58  0  0  0  0  0  0  0  0999 V2000
   56.8850   29.2720   43.3970 C   0  0  0  0  0  0  0  0  0  0  0  0
   57.6490   29.6480   44.5880 N   0  0  0  0  0  0  0  0  0  0  0  0
   58.7450   28.8660   45.0820 C   0  0  0  0  0  0  0  0  0  0  0  0
   58.6370   27.5920   45.4870 C   0  0  0  0  0  0  0  0  0  0  0  0
   58.6800   27.1350   46.8960 C   0  0  0  0  0  0  0  0  0  0  0  0
   57.5690   26.6040   47.4320 C   0  0  0  0  0  0  0  0  0  0  0  0
   56.7060   25.6230   46.7360 C   0  0  0  0  0  0  0  0  0  0  0  0
   55.7080   26.0690   45.8650 C   0  0  0  0  0  0  0  0  0  0  0  0
   55.5220   27.4280   45.6350 O   0  0  0  0  0  0  0  0  0  0  0  0
   54.9200   25.1730   45.2240 N   0  0  0  0  0  0  0  0  0  0  0  0
   55.0660   23.8370   45.4150 C   0  0  0  0  0  0  0  0  0  0  0  0
   54.3250   23.0460   44.7710 O   0  0  0  0  0  0  0  0  0  0  0  0
   56.0110   23.3610   46.2870 N   0  0  0  0  0  0  0  0  0  0  0  0
   56.1630   21.9410   46.4860 C   0  0  0  0  0  0  0  0  0  0  0  0
   56.7610   21.1480   45.4920 C   0  0  0  0  0  0  0  0  0  0  0  0
   56.9100   19.7720   45.6850 C   0  0  0  0  0  0  0  0  0  0  0  0
   56.4670   19.1780   46.8700 C   0  0  0  0  0  0  0  0  0  0  0  0
   55.8720   19.9600   47.8630 C   0  0  0  0  0  0  0  0  0  0  0  0
   55.7190   21.3370   47.6750 C   0  0  0  0  0  0  0  0  0  0  0  0
   56.8160   24.2400   46.9650 C   0  0  0  0  0  0  0  0  0  0  0  0
   57.6410   23.8130   47.8220 O   0  0  0  0  0  0  0  0  0  0  0  0
   60.2590   27.0790   47.7810 S   0  0  0  0  0  0  0  0  0  0  0  0
   60.0640   28.7280   48.4530 C   0  0  0  0  0  0  0  0  0  0  0  0
   58.8480   29.1190   49.0260 C   0  0  0  0  0  0  0  0  0  0  0  0
   58.7070   30.4040   49.5580 C   0  0  0  0  0  0  0  0  0  0  0  0
   59.7760   31.3020   49.5120 C   0  0  0  0  0  0  0  0  0  0  0  0
   60.9890   30.9170   48.9290 C   0  0  0  0  0  0  0  0  0  0  0  0
   62.3300   32.0470   48.8590 Cl  0  0  0  0  0  0  0  0  0  0  0  0
   61.1320   29.6320   48.3970 C   0  0  0  0  0  0  0  0  0  0  0  0
   60.2120   29.8200   45.5020 S   0  0  0  0  0  0  0  0  0  0  0  0
   59.1400   31.2510   45.4660 C   0  0  0  0  0  0  0  0  0  0  0  0
   59.4930   32.5240   45.9190 C   0  0  0  0  0  0  0  0  0  0  0  0
   58.5630   33.5670   45.8060 C   0  0  0  0  0  0  0  0  0  0  0  0
   57.2970   33.3290   45.2450 C   0  0  0  0  0  0  0  0  0  0  0  0
   56.9520   32.0430   44.8020 C   0  0  0  0  0  0  0  0  0  0  0  0
   57.8910   31.0110   44.9200 C   0  0  0  0  0  0  0  0  0  0  0  0
   55.9367   28.8053   43.7019 H   0  0  0  0  0  0  0  0  0  0  0  0
   56.6755   30.1699   42.7971 H   0  0  0  0  0  0  0  0  0  0  0  0
   57.4687   28.5583   42.7971 H   0  0  0  0  0  0  0  0  0  0  0  0
   58.5059   26.8241   44.7104 H   0  0  0  0  0  0  0  0  0  0  0  0
   57.2836   26.9162   48.4474 H   0  0  0  0  0  0  0  0  0  0  0  0
   57.1130   21.6119   44.5588 H   0  0  0  0  0  0  0  0  0  0  0  0
   57.3768   19.1553   44.9029 H   0  0  0  0  0  0  0  0  0  0  0  0
   56.5868   18.0950   47.0207 H   0  0  0  0  0  0  0  0  0  0  0  0
   55.5231   19.4913   48.7950 H   0  0  0  0  0  0  0  0  0  0  0  0
   55.2500   21.9491   48.4595 H   0  0  0  0  0  0  0  0  0  0  0  0
   58.0034   28.4150   49.0576 H   0  0  0  0  0  0  0  0  0  0  0  0
   57.7531   30.7084   50.0134 H   0  0  0  0  0  0  0  0  0  0  0  0
   59.6646   32.3117   49.9339 H   0  0  0  0  0  0  0  0  0  0  0  0
   62.0835   29.3311   47.9344 H   0  0  0  0  0  0  0  0  0  0  0  0
   60.4853   32.7055   46.3576 H   0  0  0  0  0  0  0  0  0  0  0  0
   58.8255   34.5756   46.1579 H   0  0  0  0  0  0  0  0  0  0  0  0
   56.5743   34.1531   45.1528 H   0  0  0  0  0  0  0  0  0  0  0  0
   55.9597   31.8487   44.3689 H   0  0  0  0  0  0  0  0  0  0  0  0
  1  2  1  0
  2  3  1  0
  3  4  2  3
  4  5  1  0
  5  6  2  3
  6  7  1  0
  7  8  2  0
  8  9  1  0
  8 10  1  0
 10 11  1  0
 11 12  2  0
 11 13  1  0
 13 14  1  0
 14 15  2  0
 15 16  1  0
 16 17  2  0
 17 18  1  0
 18 19  2  0
 13 20  1  0
 20 21  2  0
  5 22  1  0
 22 23  1  0
 23 24  2  0
 24 25  1  0
 25 26  2  0
 26 27  1  0
 27 28  1  0
 27 29  2  0
  3 30  1  0
 30 31  1  0
 31 32  2  0
 32 33  1  0
 33 34  2  0
 34 35  1  0
 35 36  2  0
 36  2  1  0
 20  7  1  0
 29 23  1  0
 36 31  1  0
 19 14  1  0
  1 37  1  0
  1 38  1  0
  1 39  1  0
  4 40  1  0
  6 41  1  0
 15 42  1  0
 16 43  1  0
 17 44  1  0
 18 45  1  0
 19 46  1  0
 24 47  1  0
 25 48  1  0
 26 49  1  0
 29 50  1  0
 32 51  1  0
 33 52  1  0
 34 53  1  0
 35 54  1  0
M  CHG  2   9  -1  10  -1
M  END
>  <UniqueID>  (75) 
67

>  <SMILES>  (75) 
CN1C(=CC(=Cc2c([O-])[n-]c(=O)n(-c3ccccc3)c2=O)Sc2cccc(Cl)c2)Sc2ccccc21

>  <Energy>  (75) 
102.21920785126247

>  <Genealogy>  (75) 
CN1C(=CC(=Cc2c([O-])[n-]c(=O)n(-c3ccccc3)c2=O)Sc2cccc(Cl)c2)Sc2ccccc21 (protonated)
CN1C(=CC(=Cc2c([O-])[n-]c(=O)n(-c3ccccc3)c2=O)Sc2cccc(Cl)c2)Sc2ccccc21 (3D coordinates assigned)
CN1C(=CC(=Cc2c([O-])[n-]c(=O)n(-c3ccccc3)c2=O)Sc2cccc(Cl)c2)Sc2ccccc21 (nonaromatic ring conformer: 102.21920785126247 kcal/mol)

>  <smiles>  (75) 
CN1C(=CC(=Cc2c(O)[nH]c(=O)n(-c3ccccc3)c2=O)Sc2cccc(Cl)c2)Sc2ccccc21

>  <score_type>  (75) 
oracle

>  <origin>  (75) 
adg

>  <m_score__min__energy>  (75) 
-14.300000000000001

>  <m_primary>  (75) 
energy

$$$$
75:0
     RDKit          3D

 46 49  0  0  0  0  0  0  0  0999 V2000
   63.5440   32.4210   50.9470 O   0  0  0  0  0  0  0  0  0  0  0  0
   63.1940   32.8170   49.8030 C   0  0  0  0  0  0  0  0  0  0  0  0
   63.9650   32.3530   48.6140 C   0  0  0  0  0  0  0  0  0  0  0  0
   64.0490   33.4640   47.5790 C   0  0  0  0  0  0  0  0  0  0  0  0
   62.8840   33.4700   46.7700 O   0  0  0  0  0  0  0  0  0  0  0  0
   61.5640   33.6420   47.2100 C   0  0  0  0  0  0  0  0  0  0  0  0
   60.5850   33.6960   46.2080 C   0  0  0  0  0  0  0  0  0  0  0  0
   59.2400   33.9130   46.5200 C   0  0  0  0  0  0  0  0  0  0  0  0
   58.0250   33.9990   45.2480 S   0  0  0  0  0  0  0  0  0  0  0  0
   58.1910   35.2940   44.5050 O   0  0  0  0  0  0  0  0  0  0  0  0
   56.6380   33.9440   45.8280 O   0  0  0  0  0  0  0  0  0  0  0  0
   58.2310   32.6790   44.1430 N   0  0  0  0  0  0  0  0  0  0  0  0
   57.8030   31.3300   44.3770 C   0  0  0  0  0  0  0  0  0  0  0  0
   57.0410   30.6130   43.4370 C   0  0  0  0  0  0  0  0  0  0  0  0
   56.6340   29.3060   43.7150 C   0  0  0  0  0  0  0  0  0  0  0  0
   56.9900   28.7010   44.9220 C   0  0  0  0  0  0  0  0  0  0  0  0
   57.7720   29.3980   45.8590 C   0  0  0  0  0  0  0  0  0  0  0  0
   58.1390   28.8310   47.0890 O   0  0  0  0  0  0  0  0  0  0  0  0
   58.9810   29.4270   48.0410 C   0  0  0  0  0  0  0  0  0  0  0  0
   60.3160   29.6720   47.6980 C   0  0  0  0  0  0  0  0  0  0  0  0
   61.1900   30.2490   48.6250 C   0  0  0  0  0  0  0  0  0  0  0  0
   60.7360   30.5720   49.9070 C   0  0  0  0  0  0  0  0  0  0  0  0
   59.4100   30.3130   50.2640 C   0  0  0  0  0  0  0  0  0  0  0  0
   58.5350   29.7370   49.3390 C   0  0  0  0  0  0  0  0  0  0  0  0
   58.1580   30.7150   45.5840 C   0  0  0  0  0  0  0  0  0  0  0  0
   58.8600   34.0750   47.8520 C   0  0  0  0  0  0  0  0  0  0  0  0
   59.8160   34.0140   48.8650 C   0  0  0  0  0  0  0  0  0  0  0  0
   61.1710   33.7790   48.5740 C   0  0  0  0  0  0  0  0  0  0  0  0
   62.0840   33.7180   49.6870 N   0  0  0  0  0  0  0  0  0  0  0  0
   64.9808   32.0699   48.9270 H   0  0  0  0  0  0  0  0  0  0  0  0
   63.4545   31.4856   48.1702 H   0  0  0  0  0  0  0  0  0  0  0  0
   64.1396   34.4326   48.0924 H   0  0  0  0  0  0  0  0  0  0  0  0
   64.9282   33.2933   46.9403 H   0  0  0  0  0  0  0  0  0  0  0  0
   60.8809   33.5651   45.1567 H   0  0  0  0  0  0  0  0  0  0  0  0
   56.7651   31.0824   42.4812 H   0  0  0  0  0  0  0  0  0  0  0  0
   56.0311   28.7516   42.9807 H   0  0  0  0  0  0  0  0  0  0  0  0
   56.6573   27.6755   45.1402 H   0  0  0  0  0  0  0  0  0  0  0  0
   60.6796   29.4092   46.6937 H   0  0  0  0  0  0  0  0  0  0  0  0
   62.2349   30.4487   48.3452 H   0  0  0  0  0  0  0  0  0  0  0  0
   61.4223   31.0299   50.6346 H   0  0  0  0  0  0  0  0  0  0  0  0
   59.0545   30.5629   51.2745 H   0  0  0  0  0  0  0  0  0  0  0  0
   57.4945   29.5253   49.6265 H   0  0  0  0  0  0  0  0  0  0  0  0
   58.7477   31.2741   46.3254 H   0  0  0  0  0  0  0  0  0  0  0  0
   57.8038   34.2513   48.1039 H   0  0  0  0  0  0  0  0  0  0  0  0
   59.5043   34.1523   49.9108 H   0  0  0  0  0  0  0  0  0  0  0  0
   61.7740   34.1660   50.5800 H   0  0  0  0  0  0  0  0  0  0  0  0
  1  2  2  0
  2  3  1  0
  3  4  1  0
  4  5  1  0
  5  6  1  0
  6  7  2  0
  7  8  1  0
  8  9  1  0
  9 10  2  0
  9 11  2  0
  9 12  1  0
 12 13  1  0
 13 14  2  0
 14 15  1  0
 15 16  2  0
 16 17  1  0
 17 18  1  0
 18 19  1  0
 19 20  2  0
 20 21  1  0
 21 22  2  0
 22 23  1  0
 23 24  2  0
 17 25  2  0
  8 26  2  0
 26 27  1  0
 27 28  2  0
 28 29  1  0
 29  2  1  0
 28  6  1  0
 25 13  1  0
 24 19  1  0
  3 30  1  0
  3 31  1  0
  4 32  1  0
  4 33  1  0
  7 34  1  0
 14 35  1  0
 15 36  1  0
 16 37  1  0
 20 38  1  0
 21 39  1  0
 22 40  1  0
 23 41  1  0
 24 42  1  0
 25 43  1  0
 26 44  1  0
 27 45  1  0
 29 46  1  0
M  CHG  1  12  -1
M  END
>  <UniqueID>  (76) 
68

>  <SMILES>  (76) 
O=C1CCOc2cc(S(=O)(=O)[N-]c3cccc(Oc4ccccc4)c3)ccc2N1

>  <Energy>  (76) 
68.16813565526276

>  <Genealogy>  (76) 
O=C1CCOc2cc(S(=O)(=O)[N-]c3cccc(Oc4ccccc4)c3)ccc2N1 (protonated)
O=C1CCOc2cc(S(=O)(=O)[N-]c3cccc(Oc4ccccc4)c3)ccc2N1 (3D coordinates assigned)
O=C1CCOc2cc(S(=O)(=O)[N-]c3cccc(Oc4ccccc4)c3)ccc2N1 (nonaromatic ring conformer: 68.16813565526276 kcal/mol)

>  <smiles>  (76) 
O=C1CCOc2cc(S(=O)(=O)Nc3cccc(Oc4ccccc4)c3)ccc2N1

>  <score_type>  (76) 
oracle

>  <origin>  (76) 
adg

>  <m_score__min__energy>  (76) 
-9.0600000000000005

>  <m_primary>  (76) 
energy

$$$$
76:0
     RDKit          3D

 54 57  0  0  1  0  0  0  0  0999 V2000
   56.2600   28.9670   42.2650 N   0  0  0  0  0  0  0  0  0  0  0  0
   56.0110   29.7600   43.3930 C   0  0  0  0  0  0  0  0  0  0  0  0
   54.8040   29.9170   43.7450 O   0  0  0  0  0  0  0  0  0  0  0  0
   57.0640   30.4060   44.1700 C   0  0  0  0  0  0  0  0  0  0  0  0
   56.9710   31.7480   44.4520 C   0  0  0  0  0  0  0  0  0  0  0  0
   57.9460   32.4250   45.1920 C   0  0  0  0  0  0  0  0  0  0  0  0
   57.8510   33.8110   45.4830 N   0  0  0  0  0  0  0  0  0  0  0  0
   58.9200   34.7250   45.2490 C   0  0  0  0  0  0  0  0  0  0  0  0
   59.5870   35.2290   46.4670 C   0  0  0  0  0  0  0  0  0  0  0  0
   60.3480   34.5150   47.2670 C   0  0  0  0  0  0  0  0  0  0  0  0
   59.8870   33.8760   48.4880 C   0  0  0  0  0  0  0  0  0  0  0  0
   60.4050   34.1710   49.7400 C   0  0  0  0  0  0  0  0  0  0  0  0
   59.9530   33.5520   50.8950 C   0  0  0  0  0  0  0  0  0  0  0  0
   58.9430   32.5920   50.8290 C   0  0  0  0  0  0  0  0  0  0  0  0
   58.4280   32.2960   49.5960 C   0  0  0  0  0  0  0  0  0  0  0  0
   58.8890   32.9220   48.4570 C   0  0  0  0  0  0  0  0  0  0  0  0
   59.0060   31.6550   45.6200 C   0  0  0  0  0  0  0  0  0  0  0  0
   59.1040   30.3080   45.3410 C   0  0  0  0  0  0  0  0  0  0  0  0
   60.2040   29.6200   45.8120 C   0  0  0  0  0  0  0  0  0  0  0  0
   61.1120   30.1490   46.4760 N   0  0  0  0  0  0  0  0  0  0  0  0
   61.3380   30.6100   47.7530 C   0  0  0  0  0  0  0  0  0  0  0  0
   62.3180   31.5810   48.1700 C   0  0  0  0  0  0  0  0  0  0  0  0
   62.7900   31.6130   49.4790 C   0  0  0  0  0  0  0  0  0  0  0  0
   63.7550   32.5040   49.9000 C   0  0  0  0  0  0  0  0  0  0  0  0
   64.3040   33.4160   49.0260 C   0  0  0  0  0  0  0  0  0  0  0  0
   63.8600   33.4070   47.7340 C   0  0  0  0  0  0  0  0  0  0  0  0
   62.9010   32.5260   47.3060 C   0  0  0  0  0  0  0  0  0  0  0  0
   60.2870   28.3160   45.5340 N   0  0  0  0  0  0  0  0  0  0  0  0
   59.3550   27.6800   44.8290 C   0  0  0  0  0  0  0  0  0  0  0  0
   58.2780   28.3480   44.3660 N   0  0  0  0  0  0  0  0  0  0  0  0
   58.1280   29.6630   44.6080 C   0  0  0  0  0  0  0  0  0  0  0  0
   56.8910   28.1270   42.2500 H   0  0  0  0  0  0  0  0  0  0  0  0
   55.8070   29.1820   41.3300 H   0  0  0  0  0  0  0  0  0  0  0  0
   56.0997   32.3090   44.0830 H   0  0  0  0  0  0  0  0  0  0  0  0
   56.9470   34.1450   45.8830 H   0  0  0  0  0  0  0  0  0  0  0  0
   59.6752   34.2164   44.6318 H   0  0  0  0  0  0  0  0  0  0  0  0
   58.4734   35.6018   44.7573 H   0  0  0  0  0  0  0  0  0  0  0  0
   59.4347   36.2873   46.7256 H   0  0  0  0  0  0  0  0  0  0  0  0
   61.4064   34.3930   46.9932 H   0  0  0  0  0  0  0  0  0  0  0  0
   61.2035   34.9234   49.8195 H   0  0  0  0  0  0  0  0  0  0  0  0
   60.3925   33.8188   51.8675 H   0  0  0  0  0  0  0  0  0  0  0  0
   58.5736   32.0907   51.7358 H   0  0  0  0  0  0  0  0  0  0  0  0
   57.6301   31.5435   49.5118 H   0  0  0  0  0  0  0  0  0  0  0  0
   58.4452   32.6513   47.4876 H   0  0  0  0  0  0  0  0  0  0  0  0
   59.8043   32.1332   46.2065 H   0  0  0  0  0  0  0  0  0  0  0  0
   60.3729   31.0262   48.0774 H   0  0  0  0  0  0  0  0  0  0  0  0
   61.7934   29.7069   48.1856 H   0  0  0  0  0  0  0  0  0  0  0  0
   62.3769   30.8992   50.2068 H   0  0  0  0  0  0  0  0  0  0  0  0
   64.0905   32.4860   50.9474 H   0  0  0  0  0  0  0  0  0  0  0  0
   65.0743   34.1279   49.3572 H   0  0  0  0  0  0  0  0  0  0  0  0
   64.2836   34.1263   47.0177 H   0  0  0  0  0  0  0  0  0  0  0  0
   62.5775   32.5589   46.2552 H   0  0  0  0  0  0  0  0  0  0  0  0
   61.0950   27.7940   45.8760 H   0  0  0  0  0  0  0  0  0  0  0  0
   59.4629   26.6049   44.6227 H   0  0  0  0  0  0  0  0  0  0  0  0
  1  2  1  0
  2  3  2  0
  2  4  1  0
  4  5  2  0
  5  6  1  0
  6  7  1  0
  7  8  1  0
  8  9  1  0
  9 10  2  0
 10 11  1  0
 11 12  2  0
 12 13  1  0
 13 14  2  0
 14 15  1  0
 15 16  2  0
  6 17  2  0
 17 18  1  0
 18 19  1  0
 19 20  2  0
 20 21  1  0
 21 22  1  0
 22 23  2  0
 23 24  1  0
 24 25  2  0
 25 26  1  0
 26 27  2  0
 19 28  1  0
 28 29  1  0
 29 30  2  0
 30 31  1  0
 31  4  1  0
 16 11  1  0
 31 18  2  0
 27 22  1  0
  1 32  1  0
  1 33  1  0
  5 34  1  0
  7 35  1  0
  8 36  1  0
  8 37  1  0
  9 38  1  0
 10 39  1  0
 12 40  1  0
 13 41  1  0
 14 42  1  0
 15 43  1  0
 16 44  1  0
 17 45  1  0
 21 46  1  0
 21 47  1  0
 23 48  1  0
 24 49  1  0
 25 50  1  0
 26 51  1  0
 27 52  1  0
 28 53  1  0
 29 54  1  0
M  END
>  <smiles>  (77) 
NC(=O)c1cc(NCC=Cc2ccccc2)cc2c(=NCc3ccccc3)[nH]cnc12

>  <score_type>  (77) 
oracle

>  <origin>  (77) 
adg

>  <m_score__min__energy>  (77) 
-9.4700000000000006

>  <m_primary>  (77) 
energy

$$$$
77:0
     RDKit          3D

 41 42  0  0  0  0  0  0  0  0999 V2000
   56.5460   23.0010   43.1210 C   0  0  0  0  0  0  0  0  0  0  0  0
   57.3490   23.8270   44.1230 C   0  0  0  0  0  0  0  0  0  0  0  0
   57.4200   25.3060   43.7250 C   0  0  0  0  0  0  0  0  0  0  0  0
   58.1180   26.0880   44.7740 N   0  0  0  0  0  0  0  0  0  0  0  0
   57.3060   26.3000   45.9920 C   0  0  0  0  0  0  0  0  0  0  0  0
   57.8050   27.5090   46.7790 C   0  0  0  0  0  0  0  0  0  0  0  0
   58.7050   27.3450   44.2570 C   0  0  0  0  0  0  0  0  0  0  0  0
   57.7330   28.1690   43.3890 C   0  0  0  0  0  0  0  0  0  0  0  0
   57.4310   29.4360   44.0480 N   0  0  0  0  0  0  0  0  0  0  0  0
   58.3330   30.3430   44.3830 N   0  0  0  0  0  0  0  0  0  0  0  0
   57.6260   31.3800   44.8910 C   0  0  0  0  0  0  0  0  0  0  0  0
   58.2300   32.6250   45.4050 C   0  0  0  0  0  0  0  0  0  0  0  0
   58.3660   32.8240   46.7900 C   0  0  0  0  0  0  0  0  0  0  0  0
   58.9390   34.0030   47.2790 C   0  0  0  0  0  0  0  0  0  0  0  0
   59.3770   34.9900   46.3940 C   0  0  0  0  0  0  0  0  0  0  0  0
   59.2460   34.8000   45.0160 C   0  0  0  0  0  0  0  0  0  0  0  0
   58.6760   33.6230   44.5210 C   0  0  0  0  0  0  0  0  0  0  0  0
   56.3290   31.1390   44.8670 O   0  0  0  0  0  0  0  0  0  0  0  0
   56.2230   29.9450   44.3400 C   0  0  0  0  0  0  0  0  0  0  0  0
   55.1290   29.3580   44.1290 O   0  0  0  0  0  0  0  0  0  0  0  0
   55.8787   22.3146   43.6629 H   0  0  0  0  0  0  0  0  0  0  0  0
   55.9464   23.6727   42.4891 H   0  0  0  0  0  0  0  0  0  0  0  0
   57.2344   22.4206   42.4891 H   0  0  0  0  0  0  0  0  0  0  0  0
   56.8720   23.7480   45.1110 H   0  0  0  0  0  0  0  0  0  0  0  0
   58.3753   23.4317   44.1428 H   0  0  0  0  0  0  0  0  0  0  0  0
   57.9687   25.4006   42.7763 H   0  0  0  0  0  0  0  0  0  0  0  0
   56.3976   25.6950   43.6093 H   0  0  0  0  0  0  0  0  0  0  0  0
   56.2584   26.4676   45.7012 H   0  0  0  0  0  0  0  0  0  0  0  0
   57.3912   25.4076   46.6295 H   0  0  0  0  0  0  0  0  0  0  0  0
   57.7209   27.3052   47.8567 H   0  0  0  0  0  0  0  0  0  0  0  0
   58.8571   27.7039   46.5237 H   0  0  0  0  0  0  0  0  0  0  0  0
   57.1967   28.3892   46.5237 H   0  0  0  0  0  0  0  0  0  0  0  0
   59.0150   27.9620   45.1133 H   0  0  0  0  0  0  0  0  0  0  0  0
   59.5528   27.0648   43.6145 H   0  0  0  0  0  0  0  0  0  0  0  0
   58.1960   28.3677   42.4112 H   0  0  0  0  0  0  0  0  0  0  0  0
   56.8009   27.6015   43.2505 H   0  0  0  0  0  0  0  0  0  0  0  0
   58.0208   32.0503   47.4915 H   0  0  0  0  0  0  0  0  0  0  0  0
   59.0447   34.1527   48.3636 H   0  0  0  0  0  0  0  0  0  0  0  0
   59.8251   35.9169   46.7815 H   0  0  0  0  0  0  0  0  0  0  0  0
   59.5919   35.5777   44.3192 H   0  0  0  0  0  0  0  0  0  0  0  0
   58.5761   33.4774   43.4353 H   0  0  0  0  0  0  0  0  0  0  0  0
  1  2  1  0
  2  3  1  0
  3  4  1  0
  4  5  1  0
  5  6  1  0
  4  7  1  0
  7  8  1  0
  8  9  1  0
  9 10  1  0
 10 11  2  0
 11 12  1  0
 12 13  2  0
 13 14  1  0
 14 15  2  0
 15 16  1  0
 16 17  2  0
 11 18  1  0
 18 19  1  0
 19 20  2  0
 19  9  1  0
 17 12  1  0
  1 21  1  0
  1 22  1  0
  1 23  1  0
  2 24  1  0
  2 25  1  0
  3 26  1  0
  3 27  1  0
  5 28  1  0
  5 29  1  0
  6 30  1  0
  6 31  1  0
  6 32  1  0
  7 33  1  0
  7 34  1  0
  8 35  1  0
  8 36  1  0
 13 37  1  0
 14 38  1  0
 15 39  1  0
 16 40  1  0
 17 41  1  0
M  END
>  <UniqueID>  (78) 
69

>  <SMILES>  (78) 
CCCN(CC)CCn1nc(-c2ccccc2)oc1=O

>  <Energy>  (78) 
74.80903604778271

>  <Genealogy>  (78) 
CCCN(CC)CCn1nc(-c2ccccc2)oc1=O (3D coordinates assigned)
CCCN(CC)CCn1nc(-c2ccccc2)oc1=O (optimized conformer: 74.80903604778271 kcal/mol)

>  <smiles>  (78) 
CCCN(CC)CCn1nc(-c2ccccc2)oc1=O

>  <score_type>  (78) 
oracle

>  <origin>  (78) 
adg

>  <m_score__min__energy>  (78) 
-6.7199999999999998

>  <m_primary>  (78) 
energy

$$$$
78:0
     RDKit          3D

 39 40  0  0  0  0  0  0  0  0999 V2000
   58.0620   33.7870   46.6970 C   0  0  0  0  0  0  0  0  0  0  0  0
   58.4710   33.3570   45.5000 C   0  0  0  0  0  0  0  0  0  0  0  0
   58.9380   31.9450   45.2850 C   0  0  0  0  0  0  0  0  0  0  0  0
   57.8780   31.1310   44.5850 C   0  0  0  0  0  0  0  0  0  0  0  0
   57.5550   31.4120   43.2470 C   0  0  0  0  0  0  0  0  0  0  0  0
   56.5560   30.6870   42.5940 C   0  0  0  0  0  0  0  0  0  0  0  0
   55.8750   29.6720   43.2670 C   0  0  0  0  0  0  0  0  0  0  0  0
   56.1790   29.3830   44.6000 C   0  0  0  0  0  0  0  0  0  0  0  0
   55.5200   28.3370   45.2340 O   0  0  0  0  0  0  0  0  0  0  0  0
   57.1660   30.1290   45.2770 C   0  0  0  0  0  0  0  0  0  0  0  0
   57.4790   29.8730   46.6200 O   0  0  0  0  0  0  0  0  0  0  0  0
   58.6070   29.1610   47.0440 C   0  0  0  0  0  0  0  0  0  0  0  0
   59.3160   29.5860   47.9970 O   0  0  0  0  0  0  0  0  0  0  0  0
   58.9740   27.9680   46.3490 N   0  0  0  0  0  0  0  0  0  0  0  0
   58.2420   26.7170   46.4940 C   0  0  0  0  0  0  0  0  0  0  0  0
   58.1680   26.0060   45.1440 C   0  0  0  0  0  0  0  0  0  0  0  0
   56.9410   25.1370   45.0680 C   0  0  0  0  0  0  0  0  0  0  0  0
   56.8350   24.1460   44.0770 C   0  0  0  0  0  0  0  0  0  0  0  0
   55.7090   23.3180   44.0270 C   0  0  0  0  0  0  0  0  0  0  0  0
   54.6870   23.4660   44.9700 C   0  0  0  0  0  0  0  0  0  0  0  0
   53.5700   22.6440   44.9190 O   0  0  0  0  0  0  0  0  0  0  0  0
   54.7930   24.4420   45.9660 C   0  0  0  0  0  0  0  0  0  0  0  0
   55.9170   25.2720   46.0200 C   0  0  0  0  0  0  0  0  0  0  0  0
   57.7258   34.8268   46.8225 H   0  0  0  0  0  0  0  0  0  0  0  0
   58.0614   33.1012   47.5570 H   0  0  0  0  0  0  0  0  0  0  0  0
   58.4658   34.0548   44.6497 H   0  0  0  0  0  0  0  0  0  0  0  0
   59.8493   31.9564   44.6691 H   0  0  0  0  0  0  0  0  0  0  0  0
   59.1436   31.4886   46.2645 H   0  0  0  0  0  0  0  0  0  0  0  0
   58.0923   32.2079   42.7105 H   0  0  0  0  0  0  0  0  0  0  0  0
   56.3056   30.9164   41.5477 H   0  0  0  0  0  0  0  0  0  0  0  0
   55.0954   29.0968   42.7460 H   0  0  0  0  0  0  0  0  0  0  0  0
   58.7597   26.0721   47.2193 H   0  0  0  0  0  0  0  0  0  0  0  0
   57.2234   26.9295   46.8508 H   0  0  0  0  0  0  0  0  0  0  0  0
   58.1288   26.7574   44.3416 H   0  0  0  0  0  0  0  0  0  0  0  0
   59.0591   25.3714   45.0287 H   0  0  0  0  0  0  0  0  0  0  0  0
   57.6404   24.0212   43.3382 H   0  0  0  0  0  0  0  0  0  0  0  0
   55.6271   22.5491   43.2446 H   0  0  0  0  0  0  0  0  0  0  0  0
   53.9900   24.5570   46.7089 H   0  0  0  0  0  0  0  0  0  0  0  0
   55.9996   26.0328   46.8102 H   0  0  0  0  0  0  0  0  0  0  0  0
  1  2  2  0
  2  3  1  0
  3  4  1  0
  4  5  2  0
  5  6  1  0
  6  7  2  0
  7  8  1  0
  8  9  1  0
  8 10  2  0
 10 11  1  0
 11 12  1  0
 12 13  2  0
 12 14  1  0
 14 15  1  0
 15 16  1  0
 16 17  1  0
 17 18  2  0
 18 19  1  0
 19 20  2  0
 20 21  1  0
 20 22  1  0
 22 23  2  0
 10  4  1  0
 23 17  1  0
  1 24  1  0
  1 25  1  0
  2 26  1  0
  3 27  1  0
  3 28  1  0
  5 29  1  0
  6 30  1  0
  7 31  1  0
 15 32  1  0
 15 33  1  0
 16 34  1  0
 16 35  1  0
 18 36  1  0
 19 37  1  0
 22 38  1  0
 23 39  1  0
M  CHG  3   9  -1  14  -1  21  -1
M  END
>  <UniqueID>  (79) 
70

>  <SMILES>  (79) 
C=CCc1cccc([O-])c1OC(=O)[N-]CCc1ccc([O-])cc1

>  <Energy>  (79) 
37.438513006974986

>  <Genealogy>  (79) 
C=CCc1cccc([O-])c1OC(=O)[N-]CCc1ccc([O-])cc1 (protonated)
C=CCc1cccc([O-])c1OC(=O)[N-]CCc1ccc([O-])cc1 (3D coordinates assigned)
C=CCc1cccc([O-])c1OC(=O)[N-]CCc1ccc([O-])cc1 (optimized conformer: 37.438513006974986 kcal/mol)

>  <smiles>  (79) 
C=CCc1cccc(O)c1OC(=O)NCCc1ccc(O)cc1

>  <score_type>  (79) 
oracle

>  <origin>  (79) 
adg

>  <m_score__min__energy>  (79) 
-13.880000000000001

>  <m_primary>  (79) 
energy

$$$$
79:0
     RDKit          3D

 54 56  0  0  0  0  0  0  0  0999 V2000
   58.9540   29.3990   51.9460 N   0  0  0  0  0  0  0  0  0  0  0  0
   57.6910   30.0380   52.1140 C   0  0  0  0  0  0  0  0  0  0  0  0
   56.6410   29.3290   52.0700 O   0  0  0  0  0  0  0  0  0  0  0  0
   57.5760   31.4890   52.4640 C   0  0  0  0  0  0  0  0  0  0  0  0
   58.3140   32.3150   51.4540 C   0  0  0  0  0  0  0  0  0  0  0  0
   59.0310   33.4740   51.7990 C   0  0  0  0  0  0  0  0  0  0  0  0
   59.6940   34.2050   50.8080 C   0  0  0  0  0  0  0  0  0  0  0  0
   59.6550   33.7720   49.4720 C   0  0  0  0  0  0  0  0  0  0  0  0
   60.3500   34.4630   48.4290 N   0  0  0  0  0  0  0  0  0  0  0  0
   60.5150   33.8230   47.1570 C   0  0  0  0  0  0  0  0  0  0  0  0
   61.6710   33.6070   46.7060 O   0  0  0  0  0  0  0  0  0  0  0  0
   59.3350   33.5380   46.3320 C   0  0  0  0  0  0  0  0  0  0  0  0
   58.6750   34.5790   45.6630 C   0  0  0  0  0  0  0  0  0  0  0  0
   57.5570   34.3240   44.8760 C   0  0  0  0  0  0  0  0  0  0  0  0
   57.0720   33.0320   44.7340 C   0  0  0  0  0  0  0  0  0  0  0  0
   57.7330   31.9810   45.3880 C   0  0  0  0  0  0  0  0  0  0  0  0
   57.3530   30.6720   45.2480 O   0  0  0  0  0  0  0  0  0  0  0  0
   58.2180   29.5120   45.4240 C   0  0  0  0  0  0  0  0  0  0  0  0
   58.6440   29.0260   46.7260 C   0  0  0  0  0  0  0  0  0  0  0  0
   57.9140   28.0000   47.0320 O   0  0  0  0  0  0  0  0  0  0  0  0
   59.9160   29.7150   47.6830 N   0  0  0  0  0  0  0  0  0  0  0  0
   61.0430   30.1590   48.7550 C   0  0  0  0  0  0  0  0  0  0  0  0
   61.3800   29.7130   49.9460 O   0  0  0  0  0  0  0  0  0  0  0  0
   61.7480   31.2030   48.3010 N   0  0  0  0  0  0  0  0  0  0  0  0
   62.7150   31.6460   49.1710 C   0  0  0  0  0  0  0  0  0  0  0  0
   63.9340   32.1040   48.6190 C   0  0  0  0  0  0  0  0  0  0  0  0
   64.8240   32.8070   49.4170 C   0  0  0  0  0  0  0  0  0  0  0  0
   64.4410   33.2230   50.6940 C   0  0  0  0  0  0  0  0  0  0  0  0
   63.1530   32.9580   51.1790 C   0  0  0  0  0  0  0  0  0  0  0  0
   62.2630   32.2500   50.3880 C   0  0  0  0  0  0  0  0  0  0  0  0
   58.8410   32.2350   46.1830 C   0  0  0  0  0  0  0  0  0  0  0  0
   58.9340   32.6130   49.1600 C   0  0  0  0  0  0  0  0  0  0  0  0
   58.2910   31.8990   50.1330 C   0  0  0  0  0  0  0  0  0  0  0  0
   59.1060   28.5310   52.4870 H   0  0  0  0  0  0  0  0  0  0  0  0
   59.6450   29.7220   51.2320 H   0  0  0  0  0  0  0  0  0  0  0  0
   56.5153   31.7804   52.4693 H   0  0  0  0  0  0  0  0  0  0  0  0
   58.0118   31.6581   53.4597 H   0  0  0  0  0  0  0  0  0  0  0  0
   59.0705   33.8055   52.8471 H   0  0  0  0  0  0  0  0  0  0  0  0
   60.2457   35.1186   51.0745 H   0  0  0  0  0  0  0  0  0  0  0  0
   59.0461   35.6098   45.7619 H   0  0  0  0  0  0  0  0  0  0  0  0
   57.0524   35.1548   44.3611 H   0  0  0  0  0  0  0  0  0  0  0  0
   56.1824   32.8343   44.1179 H   0  0  0  0  0  0  0  0  0  0  0  0
   57.6966   28.6709   44.9437 H   0  0  0  0  0  0  0  0  0  0  0  0
   59.1668   29.8834   45.0095 H   0  0  0  0  0  0  0  0  0  0  0  0
   59.2070   29.0310   47.5590 H   0  0  0  0  0  0  0  0  0  0  0  0
   61.6800   31.7680   47.3210 H   0  0  0  0  0  0  0  0  0  0  0  0
   64.1743   31.9040   47.5644 H   0  0  0  0  0  0  0  0  0  0  0  0
   65.8328   33.0372   49.0437 H   0  0  0  0  0  0  0  0  0  0  0  0
   65.1590   33.7652   51.3269 H   0  0  0  0  0  0  0  0  0  0  0  0
   62.8520   33.3085   52.1773 H   0  0  0  0  0  0  0  0  0  0  0  0
   61.2110   32.1520   50.6943 H   0  0  0  0  0  0  0  0  0  0  0  0
   59.3383   31.4030   46.7031 H   0  0  0  0  0  0  0  0  0  0  0  0
   58.8840   32.2714   48.1156 H   0  0  0  0  0  0  0  0  0  0  0  0
   57.7479   30.9814   49.8628 H   0  0  0  0  0  0  0  0  0  0  0  0
  1  2  1  0
  2  3  2  0
  2  4  1  0
  4  5  1  0
  5  6  2  0
  6  7  1  0
  7  8  2  0
  8  9  1  0
  9 10  1  0
 10 11  2  0
 10 12  1  0
 12 13  2  0
 13 14  1  0
 14 15  2  0
 15 16  1  0
 16 17  1  0
 17 18  1  0
 18 19  1  0
 19 20  2  0
 19 21  1  0
 21 22  1  0
 22 23  2  0
 22 24  1  0
 24 25  1  0
 25 26  2  0
 26 27  1  0
 27 28  2  0
 28 29  1  0
 29 30  2  0
 16 31  2  0
  8 32  1  0
 32 33  2  0
 33  5  1  0
 31 12  1  0
 30 25  1  0
  1 34  1  0
  1 35  1  0
  4 36  1  0
  4 37  1  0
  6 38  1  0
  7 39  1  0
 13 40  1  0
 14 41  1  0
 15 42  1  0
 18 43  1  0
 18 44  1  0
 21 45  1  0
 24 46  1  0
 26 47  1  0
 27 48  1  0
 28 49  1  0
 29 50  1  0
 30 51  1  0
 31 52  1  0
 32 53  1  0
 33 54  1  0
M  CHG  1   9  -1
M  END
>  <UniqueID>  (80) 
71

>  <SMILES>  (80) 
NC(=O)Cc1ccc([N-]C(=O)c2cccc(OCC(=O)NC(=O)Nc3ccccc3)c2)cc1

>  <Energy>  (80) 
361.727074586077

>  <Genealogy>  (80) 
NC(=O)Cc1ccc([N-]C(=O)c2cccc(OCC(=O)NC(=O)Nc3ccccc3)c2)cc1 (protonated)
NC(=O)Cc1ccc([N-]C(=O)c2cccc(OCC(=O)NC(=O)Nc3ccccc3)c2)cc1 (3D coordinates assigned)
NC(=O)Cc1ccc([N-]C(=O)c2cccc(OCC(=O)NC(=O)Nc3ccccc3)c2)cc1 (optimized conformer: 361.727074586077 kcal/mol)

>  <smiles>  (80) 
NC(=O)Cc1ccc(NC(=O)c2cccc(OCC(=O)NC(=O)Nc3ccccc3)c2)cc1

>  <score_type>  (80) 
oracle

>  <origin>  (80) 
adg

>  <m_score__min__energy>  (80) 
-9.5

>  <m_primary>  (80) 
energy

$$$$
80:0
     RDKit          3D

 47 49  0  0  0  0  0  0  0  0999 V2000
   57.9050   31.3110   51.5440 C   0  0  0  0  0  0  0  0  0  0  0  0
   57.9890   31.6000   50.1480 O   0  0  0  0  0  0  0  0  0  0  0  0
   58.9180   31.0250   49.2630 C   0  0  0  0  0  0  0  0  0  0  0  0
   59.0300   29.6290   49.1040 C   0  0  0  0  0  0  0  0  0  0  0  0
   59.9710   29.0900   48.2190 C   0  0  0  0  0  0  0  0  0  0  0  0
   60.8020   29.9340   47.4790 C   0  0  0  0  0  0  0  0  0  0  0  0
   60.7010   31.3180   47.6290 C   0  0  0  0  0  0  0  0  0  0  0  0
   59.7650   31.8730   48.5200 C   0  0  0  0  0  0  0  0  0  0  0  0
   59.6480   33.3000   48.6390 N   0  0  0  0  0  0  0  0  0  0  0  0
   59.9210   33.9550   49.9200 C   0  0  0  0  0  0  0  0  0  0  0  0
   59.6150   34.2650   47.1940 S   0  0  0  0  0  0  0  0  0  0  0  0
   58.8950   35.5590   47.4610 O   0  0  0  0  0  0  0  0  0  0  0  0
   61.0210   34.5780   46.7520 O   0  0  0  0  0  0  0  0  0  0  0  0
   58.8060   33.3650   45.9120 C   0  0  0  0  0  0  0  0  0  0  0  0
   57.8830   32.3550   46.2260 C   0  0  0  0  0  0  0  0  0  0  0  0
   57.2950   31.5990   45.2070 C   0  0  0  0  0  0  0  0  0  0  0  0
   57.6240   31.8400   43.8570 C   0  0  0  0  0  0  0  0  0  0  0  0
   57.0090   31.0350   42.7740 C   0  0  0  0  0  0  0  0  0  0  0  0
   56.6330   31.6010   41.7090 O   0  0  0  0  0  0  0  0  0  0  0  0
   56.9380   29.6030   42.9030 N   0  0  0  0  0  0  0  0  0  0  0  0
   57.3710   28.8460   43.8750 C   0  0  0  0  0  0  0  0  0  0  0  0
   58.6500   28.3500   43.9050 N   0  0  0  0  0  0  0  0  0  0  0  0
   59.0850   27.5650   44.9310 C   0  0  0  0  0  0  0  0  0  0  0  0
   58.2210   27.2240   45.9780 C   0  0  0  0  0  0  0  0  0  0  0  0
   56.9070   27.6890   45.9580 C   0  0  0  0  0  0  0  0  0  0  0  0
   56.4770   28.5010   44.9060 C   0  0  0  0  0  0  0  0  0  0  0  0
   55.1690   28.9690   44.8920 O   0  0  0  0  0  0  0  0  0  0  0  0
   58.5520   32.8580   43.5510 C   0  0  0  0  0  0  0  0  0  0  0  0
   59.1410   33.6100   44.5720 C   0  0  0  0  0  0  0  0  0  0  0  0
   58.1664   32.2103   52.1210 H   0  0  0  0  0  0  0  0  0  0  0  0
   56.8795   31.0007   51.7932 H   0  0  0  0  0  0  0  0  0  0  0  0
   58.6044   30.4994   51.7932 H   0  0  0  0  0  0  0  0  0  0  0  0
   58.3739   28.9590   49.6789 H   0  0  0  0  0  0  0  0  0  0  0  0
   60.0562   27.9991   48.1061 H   0  0  0  0  0  0  0  0  0  0  0  0
   61.5355   29.5084   46.7785 H   0  0  0  0  0  0  0  0  0  0  0  0
   61.3585   31.9797   47.0459 H   0  0  0  0  0  0  0  0  0  0  0  0
   59.6403   33.2816   50.7433 H   0  0  0  0  0  0  0  0  0  0  0  0
   60.9929   34.1922   49.9895 H   0  0  0  0  0  0  0  0  0  0  0  0
   59.3348   34.8832   49.9895 H   0  0  0  0  0  0  0  0  0  0  0  0
   57.6216   32.1578   47.2761 H   0  0  0  0  0  0  0  0  0  0  0  0
   56.5707   30.8108   45.4603 H   0  0  0  0  0  0  0  0  0  0  0  0
   59.3290   28.5250   43.1290 H   0  0  0  0  0  0  0  0  0  0  0  0
   60.1217   27.1972   44.9361 H   0  0  0  0  0  0  0  0  0  0  0  0
   58.5753   26.5954   46.8083 H   0  0  0  0  0  0  0  0  0  0  0  0
   56.2123   27.4178   46.7666 H   0  0  0  0  0  0  0  0  0  0  0  0
   58.8138   33.0613   42.5021 H   0  0  0  0  0  0  0  0  0  0  0  0
   59.8693   34.3961   44.3238 H   0  0  0  0  0  0  0  0  0  0  0  0
  1  2  1  0
  2  3  1  0
  3  4  2  0
  4  5  1  0
  5  6  2  0
  6  7  1  0
  7  8  2  0
  8  9  1  0
  9 10  1  0
  9 11  1  0
 11 12  2  0
 11 13  2  0
 11 14  1  0
 14 15  2  0
 15 16  1  0
 16 17  2  0
 17 18  1  0
 18 19  2  0
 18 20  1  0
 20 21  2  3
 21 22  1  0
 22 23  1  0
 23 24  2  0
 24 25  1  0
 25 26  2  0
 26 27  1  0
 17 28  1  0
 28 29  2  0
  8  3  1  0
 29 14  1  0
 26 21  1  0
  1 30  1  0
  1 31  1  0
  1 32  1  0
  4 33  1  0
  5 34  1  0
  6 35  1  0
  7 36  1  0
 10 37  1  0
 10 38  1  0
 10 39  1  0
 15 40  1  0
 16 41  1  0
 22 42  1  0
 23 43  1  0
 24 44  1  0
 25 45  1  0
 28 46  1  0
 29 47  1  0
M  CHG  1  27  -1
M  END
>  <UniqueID>  (81) 
72

>  <SMILES>  (81) 
COc1ccccc1N(C)S(=O)(=O)c1ccc(C(=O)N=c2[nH]cccc2[O-])cc1

>  <Energy>  (81) 
62.41766929619621

>  <Genealogy>  (81) 
COc1ccccc1N(C)S(=O)(=O)c1ccc(C(=O)N=c2[nH]cccc2[O-])cc1 (protonated)
COc1ccccc1N(C)S(=O)(=O)c1ccc(C(=O)N=c2[nH]cccc2[O-])cc1 (3D coordinates assigned)
COc1ccccc1N(C)S(=O)(=O)c1ccc(C(=O)N=c2[nH]cccc2[O-])cc1 (optimized conformer: 62.41766929619621 kcal/mol)

>  <smiles>  (81) 
COc1ccccc1N(C)S(=O)(=O)c1ccc(C(=O)N=c2[nH]cccc2O)cc1

>  <score_type>  (81) 
oracle

>  <origin>  (81) 
adg

>  <m_score__min__energy>  (81) 
-11.710000000000001

>  <m_primary>  (81) 
energy

$$$$
81:0
     RDKit          3D

 38 41  0  0  0  0  0  0  0  0999 V2000
   56.1770   21.4290   42.1529 H   0  0  0  0  0  0  0  0  0  0  0  0
   56.4580   21.7010   43.1810 C   0  0  0  0  0  0  0  0  0  0  0  0
   55.7340   22.6300   43.8600 N   0  0  0  0  0  0  0  0  0  0  0  0
   56.0440   22.9990   45.1370 C   0  0  0  0  0  0  0  0  0  0  0  0
   55.3390   23.8930   45.7730 N   0  0  0  0  0  0  0  0  0  0  0  0
   55.6790   25.2730   45.9850 C   0  0  0  0  0  0  0  0  0  0  0  0
   54.7870   26.1660   45.9860 O   0  0  0  0  0  0  0  0  0  0  0  0
   57.0470   25.6160   46.2440 N   0  0  0  0  0  0  0  0  0  0  0  0
   57.6950   24.8380   46.5020 H   0  0  0  0  0  0  0  0  0  0  0  0
   57.5510   26.9620   46.2850 C   0  0  0  0  0  0  0  0  0  0  0  0
   57.2010   27.9070   45.3060 C   0  0  0  0  0  0  0  0  0  0  0  0
   56.5104   27.6258   44.4973 H   0  0  0  0  0  0  0  0  0  0  0  0
   57.7250   29.2030   45.3530 C   0  0  0  0  0  0  0  0  0  0  0  0
   57.4320   29.9377   44.5886 H   0  0  0  0  0  0  0  0  0  0  0  0
   58.6240   29.5750   46.3700 C   0  0  0  0  0  0  0  0  0  0  0  0
   59.1850   30.9490   46.4440 C   0  0  0  0  0  0  0  0  0  0  0  0
   58.4880   31.9880   45.8940 N   0  0  0  0  0  0  0  0  0  0  0  0
   58.9860   33.2200   45.9630 N   0  0  0  0  0  0  0  0  0  0  0  0
   58.4850   34.3720   45.4980 C   0  0  0  0  0  0  0  0  0  0  0  0
   57.3910   34.4640   44.8820 O   0  0  0  0  0  0  0  0  0  0  0  0
   59.2870   35.4290   45.7650 N   0  0  0  0  0  0  0  0  0  0  0  0
   60.3400   34.8890   46.4320 C   0  0  0  0  0  0  0  0  0  0  0  0
   61.2072   35.4453   46.8173 H   0  0  0  0  0  0  0  0  0  0  0  0
   60.1430   33.5260   46.5470 C   0  0  0  0  0  0  0  0  0  0  0  0
   60.9120   32.5340   47.1410 C   0  0  0  0  0  0  0  0  0  0  0  0
   62.0040   32.8000   47.7100 O   0  0  0  0  0  0  0  0  0  0  0  0
   60.4210   31.2180   47.0910 C   0  0  0  0  0  0  0  0  0  0  0  0
   60.9922   30.3985   47.5516 H   0  0  0  0  0  0  0  0  0  0  0  0
   58.9790   28.6220   47.3400 C   0  0  0  0  0  0  0  0  0  0  0  0
   59.6743   28.8984   48.1463 H   0  0  0  0  0  0  0  0  0  0  0  0
   58.4570   27.3260   47.2900 C   0  0  0  0  0  0  0  0  0  0  0  0
   58.7599   26.5862   48.0456 H   0  0  0  0  0  0  0  0  0  0  0  0
   57.1450   22.4060   45.7750 C   0  0  0  0  0  0  0  0  0  0  0  0
   57.4880   22.7610   47.0760 O   0  0  0  0  0  0  0  0  0  0  0  0
   57.9010   21.4490   45.0920 C   0  0  0  0  0  0  0  0  0  0  0  0
   58.7656   20.9779   45.5824 H   0  0  0  0  0  0  0  0  0  0  0  0
   57.5580   21.0920   43.7880 C   0  0  0  0  0  0  0  0  0  0  0  0
   58.1474   20.3392   43.2440 H   0  0  0  0  0  0  0  0  0  0  0  0
  1  2  1  0
  2  3  1  0
  3  4  1  0
  4  5  2  0
  5  6  1  0
  6  7  2  0
  6  8  1  0
  8  9  1  0
  8 10  1  0
 10 11  2  0
 11 12  1  0
 11 13  1  0
 13 14  1  0
 13 15  2  0
 15 16  1  0
 16 17  1  0
 17 18  1  0
 18 19  1  0
 19 20  2  0
 19 21  1  0
 21 22  1  0
 22 23  1  0
 22 24  2  0
 24 25  1  0
 25 26  2  0
 25 27  1  0
 27 28  1  0
 15 29  1  0
 29 30  1  0
 29 31  2  0
 31 32  1  0
  4 33  1  0
 33 34  1  0
 33 35  2  0
 35 36  1  0
 35 37  1  0
 37 38  1  0
 37  2  2  0
 31 10  1  0
 27 16  2  0
 24 18  1  0
M  CHG  4   3  -1  17  -1  21  -1  34  -1
M  END
>  <UniqueID>  (82) 
73

>  <SMILES>  (82) 
O=C(/N=c1\[n-]cccc1[O-])Nc1ccc(-c2cc(=O)c3c[n-]c(=O)n3[n-]2)cc1

>  <Energy>  (82) 
93.67730164480635

>  <Genealogy>  (82) 
O=C(N=c1[n-]cccc1[O-])Nc1ccc(-c2cc(=O)c3c[n-]c(=O)n3[n-]2)cc1 (protonated)
O=C(/N=c1\[n-]cccc1[O-])Nc1ccc(-c2cc(=O)c3c[n-]c(=O)n3[n-]2)cc1 (cis-trans isomerization)
O=C(/N=c1\[n-]cccc1[O-])Nc1ccc(-c2cc(=O)c3c[n-]c(=O)n3[n-]2)cc1 (3D coordinates assigned)
O=C(/N=c1\[n-]cccc1[O-])Nc1ccc(-c2cc(=O)c3c[n-]c(=O)n3[n-]2)cc1 (optimized conformer: 93.67730164480635 kcal/mol)

>  <smiles>  (82) 
O=C(N=c1[nH]cccc1O)Nc1ccc(-c2cc(=O)c3c[nH]c(=O)n3[nH]2)cc1

>  <score_type>  (82) 
oracle

>  <origin>  (82) 
adg

>  <m_score__min__energy>  (82) 
-13.029999999999999

>  <m_primary>  (82) 
energy

$$$$
82:0
     RDKit          3D

 36 38  0  0  0  0  0  0  0  0999 V2000
   59.7760   23.7290   45.6370 O   0  0  0  0  0  0  0  0  0  0  0  0
   58.8060   23.2330   45.0040 C   0  0  0  0  0  0  0  0  0  0  0  0
   58.6260   21.8470   44.8380 N   0  0  0  0  0  0  0  0  0  0  0  0
   57.4580   21.6420   43.9940 C   0  0  0  0  0  0  0  0  0  0  0  0
   56.9570   23.0580   43.6140 C   0  0  0  0  0  0  0  0  0  0  0  0
   57.8230   23.9950   44.3270 N   0  0  0  0  0  0  0  0  0  0  0  0
   57.6440   25.4260   44.3700 C   0  0  0  0  0  0  0  0  0  0  0  0
   57.1760   26.0460   45.5420 C   0  0  0  0  0  0  0  0  0  0  0  0
   57.0090   27.4330   45.5930 C   0  0  0  0  0  0  0  0  0  0  0  0
   57.3110   28.2220   44.4770 C   0  0  0  0  0  0  0  0  0  0  0  0
   57.1100   29.9660   44.5480 S   0  0  0  0  0  0  0  0  0  0  0  0
   55.6440   30.2980   44.5000 O   0  0  0  0  0  0  0  0  0  0  0  0
   57.8140   30.6000   43.3800 O   0  0  0  0  0  0  0  0  0  0  0  0
   57.7910   30.5590   46.0020 O   0  0  0  0  0  0  0  0  0  0  0  0
   58.3890   31.8180   46.1500 C   0  0  0  0  0  0  0  0  0  0  0  0
   57.6030   32.9540   45.9150 C   0  0  0  0  0  0  0  0  0  0  0  0
   58.1480   34.2350   46.0460 C   0  0  0  0  0  0  0  0  0  0  0  0
   59.4850   34.3910   46.4160 C   0  0  0  0  0  0  0  0  0  0  0  0
   60.2810   33.2670   46.6530 C   0  0  0  0  0  0  0  0  0  0  0  0
   61.9610   33.4650   47.1170 Cl  0  0  0  0  0  0  0  0  0  0  0  0
   59.7380   31.9830   46.5210 C   0  0  0  0  0  0  0  0  0  0  0  0
   57.7970   27.6140   43.3130 C   0  0  0  0  0  0  0  0  0  0  0  0
   57.9640   26.2280   43.2590 C   0  0  0  0  0  0  0  0  0  0  0  0
   59.2250   21.0970   45.2490 H   0  0  0  0  0  0  0  0  0  0  0  0
   57.7327   21.0778   43.0906 H   0  0  0  0  0  0  0  0  0  0  0  0
   56.6799   21.0635   44.5136 H   0  0  0  0  0  0  0  0  0  0  0  0
   57.0374   23.2135   42.5280 H   0  0  0  0  0  0  0  0  0  0  0  0
   55.9004   23.1985   43.8856 H   0  0  0  0  0  0  0  0  0  0  0  0
   56.9395   25.4350   46.4256 H   0  0  0  0  0  0  0  0  0  0  0  0
   56.6386   27.9064   46.5142 H   0  0  0  0  0  0  0  0  0  0  0  0
   56.5484   32.8370   45.6250 H   0  0  0  0  0  0  0  0  0  0  0  0
   57.5229   35.1203   45.8574 H   0  0  0  0  0  0  0  0  0  0  0  0
   59.9122   35.3992   46.5211 H   0  0  0  0  0  0  0  0  0  0  0  0
   60.3670   31.1001   46.7077 H   0  0  0  0  0  0  0  0  0  0  0  0
   58.0484   28.2304   42.4373 H   0  0  0  0  0  0  0  0  0  0  0  0
   58.3486   25.7600   42.3408 H   0  0  0  0  0  0  0  0  0  0  0  0
  1  2  2  0
  2  3  1  0
  3  4  1  0
  4  5  1  0
  5  6  1  0
  6  7  1  0
  7  8  2  0
  8  9  1  0
  9 10  2  0
 10 11  1  0
 11 12  2  0
 11 13  2  0
 11 14  1  0
 14 15  1  0
 15 16  2  0
 16 17  1  0
 17 18  2  0
 18 19  1  0
 19 20  1  0
 19 21  2  0
 10 22  1  0
 22 23  2  0
  6  2  1  0
 23  7  1  0
 21 15  1  0
  3 24  1  0
  4 25  1  0
  4 26  1  0
  5 27  1  0
  5 28  1  0
  8 29  1  0
  9 30  1  0
 16 31  1  0
 17 32  1  0
 18 33  1  0
 21 34  1  0
 22 35  1  0
 23 36  1  0
M  END
>  <UniqueID>  (83) 
74

>  <SMILES>  (83) 
O=C1NCCN1c1ccc(S(=O)(=O)Oc2cccc(Cl)c2)cc1

>  <Energy>  (83) 
55.08959905079242

>  <Genealogy>  (83) 
O=C1NCCN1c1ccc(S(=O)(=O)Oc2cccc(Cl)c2)cc1 (3D coordinates assigned)
O=C1NCCN1c1ccc(S(=O)(=O)Oc2cccc(Cl)c2)cc1 (nonaromatic ring conformer: 55.08959905079242 kcal/mol)

>  <smiles>  (83) 
O=C1NCCN1c1ccc(S(=O)(=O)Oc2cccc(Cl)c2)cc1

>  <score_type>  (83) 
oracle

>  <origin>  (83) 
adg

>  <m_score__min__energy>  (83) 
-8.4700000000000006

>  <m_primary>  (83) 
energy

$$$$
83:0
     RDKit          3D

 48 51  0  0  0  0  0  0  0  0999 V2000
   56.2410   30.5300   43.9740 C   0  0  0  0  0  0  0  0  0  0  0  0
   56.3500   29.6130   45.0580 O   0  0  0  0  0  0  0  0  0  0  0  0
   57.4360   28.7470   45.2630 C   0  0  0  0  0  0  0  0  0  0  0  0
   57.3430   27.3600   45.0340 C   0  0  0  0  0  0  0  0  0  0  0  0
   58.4540   26.5190   45.2330 C   0  0  0  0  0  0  0  0  0  0  0  0
   58.3290   25.0560   45.0030 C   0  0  0  0  0  0  0  0  0  0  0  0
   57.4600   24.6370   44.1230 N   0  0  0  0  0  0  0  0  0  0  0  0
   57.2700   23.2720   43.8600 N   0  0  0  0  0  0  0  0  0  0  0  0
   56.1630   22.6520   43.4180 C   0  0  0  0  0  0  0  0  0  0  0  0
   54.9090   23.3430   42.9970 C   0  0  0  0  0  0  0  0  0  0  0  0
   56.2770   21.3110   43.5620 N   0  0  0  0  0  0  0  0  0  0  0  0
   57.4780   21.0920   44.0860 N   0  0  0  0  0  0  0  0  0  0  0  0
   58.0690   22.2860   44.2600 C   0  0  0  0  0  0  0  0  0  0  0  0
   59.6690   22.5900   44.9780 S   0  0  0  0  0  0  0  0  0  0  0  0
   59.0700   24.0620   45.8910 C   0  0  0  0  0  0  0  0  0  0  0  0
   59.6640   27.0870   45.6720 C   0  0  0  0  0  0  0  0  0  0  0  0
   59.7610   28.4610   45.8950 C   0  0  0  0  0  0  0  0  0  0  0  0
   58.6510   29.2880   45.7050 C   0  0  0  0  0  0  0  0  0  0  0  0
   58.7670   30.6510   45.9690 O   0  0  0  0  0  0  0  0  0  0  0  0
   58.8590   31.2250   47.5730 S   0  0  0  0  0  0  0  0  0  0  0  0
   58.4680   30.1410   48.5350 O   0  0  0  0  0  0  0  0  0  0  0  0
   57.9110   32.3800   47.7380 O   0  0  0  0  0  0  0  0  0  0  0  0
   60.5070   31.7440   47.9070 C   0  0  0  0  0  0  0  0  0  0  0  0
   61.0380   32.8550   47.2360 C   0  0  0  0  0  0  0  0  0  0  0  0
   62.3330   33.2960   47.5190 C   0  0  0  0  0  0  0  0  0  0  0  0
   63.1080   32.6390   48.4880 C   0  0  0  0  0  0  0  0  0  0  0  0
   64.5110   33.0880   48.7690 C   0  0  0  0  0  0  0  0  0  0  0  0
   62.5800   31.5200   49.1490 C   0  0  0  0  0  0  0  0  0  0  0  0
   61.2830   31.0810   48.8670 C   0  0  0  0  0  0  0  0  0  0  0  0
   56.1198   31.5501   44.3674 H   0  0  0  0  0  0  0  0  0  0  0  0
   57.1514   30.4802   43.3586 H   0  0  0  0  0  0  0  0  0  0  0  0
   55.3677   30.2681   43.3586 H   0  0  0  0  0  0  0  0  0  0  0  0
   56.3895   26.9286   44.6952 H   0  0  0  0  0  0  0  0  0  0  0  0
   54.3447   23.6540   43.8885 H   0  0  0  0  0  0  0  0  0  0  0  0
   55.1625   24.2288   42.3961 H   0  0  0  0  0  0  0  0  0  0  0  0
   54.2956   22.6556   42.3961 H   0  0  0  0  0  0  0  0  0  0  0  0
   57.8660   20.1540   44.3260 H   0  0  0  0  0  0  0  0  0  0  0  0
   58.3880   23.7270   46.6864 H   0  0  0  0  0  0  0  0  0  0  0  0
   59.9528   24.5785   46.2959 H   0  0  0  0  0  0  0  0  0  0  0  0
   60.5399   26.4433   45.8406 H   0  0  0  0  0  0  0  0  0  0  0  0
   60.7170   28.8956   46.2223 H   0  0  0  0  0  0  0  0  0  0  0  0
   60.4323   33.3814   46.4837 H   0  0  0  0  0  0  0  0  0  0  0  0
   62.7471   34.1613   46.9806 H   0  0  0  0  0  0  0  0  0  0  0  0
   64.6690   33.1385   49.8564 H   0  0  0  0  0  0  0  0  0  0  0  0
   65.2203   32.3720   48.3283 H   0  0  0  0  0  0  0  0  0  0  0  0
   64.6728   34.0828   48.3283 H   0  0  0  0  0  0  0  0  0  0  0  0
   63.1893   30.9855   49.8927 H   0  0  0  0  0  0  0  0  0  0  0  0
   60.8703   30.2121   49.4006 H   0  0  0  0  0  0  0  0  0  0  0  0
  1  2  1  0
  2  3  1  0
  3  4  2  0
  4  5  1  0
  5  6  1  0
  6  7  2  0
  7  8  1  0
  8  9  1  0
  9 10  1  0
  9 11  2  0
 11 12  1  0
 12 13  2  0
 13 14  1  0
 14 15  1  0
  5 16  2  0
 16 17  1  0
 17 18  2  0
 18 19  1  0
 19 20  1  0
 20 21  2  0
 20 22  2  0
 20 23  1  0
 23 24  2  0
 24 25  1  0
 25 26  2  0
 26 27  1  0
 26 28  1  0
 28 29  2  0
 18  3  1  0
 29 23  1  0
 15  6  1  0
 13  8  1  0
  1 30  1  0
  1 31  1  0
  1 32  1  0
  4 33  1  0
 10 34  1  0
 10 35  1  0
 10 36  1  0
 12 37  1  0
 15 38  1  0
 15 39  1  0
 16 40  1  0
 17 41  1  0
 24 42  1  0
 25 43  1  0
 27 44  1  0
 27 45  1  0
 27 46  1  0
 28 47  1  0
 29 48  1  0
M  CHG  1  12   1
M  END
>  <UniqueID>  (84) 
75

>  <SMILES>  (84) 
COc1cc(C2=Nn3c(C)n[nH+]c3SC2)ccc1OS(=O)(=O)c1ccc(C)cc1

>  <Energy>  (84) 
101.76798279200335

>  <Genealogy>  (84) 
COc1cc(C2=Nn3c(C)n[nH+]c3SC2)ccc1OS(=O)(=O)c1ccc(C)cc1 (protonated)
COc1cc(C2=Nn3c(C)n[nH+]c3SC2)ccc1OS(=O)(=O)c1ccc(C)cc1 (3D coordinates assigned)
COc1cc(C2=Nn3c(C)n[nH+]c3SC2)ccc1OS(=O)(=O)c1ccc(C)cc1 (nonaromatic ring conformer: 101.76798279200335 kcal/mol)

>  <smiles>  (84) 
COc1cc(C2=Nn3c(C)nnc3SC2)ccc1OS(=O)(=O)c1ccc(C)cc1

>  <score_type>  (84) 
oracle

>  <origin>  (84) 
adg

>  <m_score__min__energy>  (84) 
-8.4700000000000006

>  <m_primary>  (84) 
energy

$$$$
84:0
     RDKit          3D

 54 57  0  0  0  0  0  0  0  0999 V2000
   62.8910   33.8290   46.4150 C   0  0  0  0  0  0  0  0  0  0  0  0
   62.3570   32.9640   47.5200 C   0  0  0  0  0  0  0  0  0  0  0  0
   63.2290   32.4750   48.4400 N   0  0  0  0  0  0  0  0  0  0  0  0
   62.8190   31.6720   49.4540 C   0  0  0  0  0  0  0  0  0  0  0  0
   63.8030   31.1900   50.4720 C   0  0  0  0  0  0  0  0  0  0  0  0
   64.8620   32.2320   50.6960 C   0  0  0  0  0  0  0  0  0  0  0  0
   64.5570   33.4160   51.3890 C   0  0  0  0  0  0  0  0  0  0  0  0
   65.5520   34.3680   51.6300 C   0  0  0  0  0  0  0  0  0  0  0  0
   66.8600   34.1410   51.1900 C   0  0  0  0  0  0  0  0  0  0  0  0
   67.1750   32.9600   50.5130 C   0  0  0  0  0  0  0  0  0  0  0  0
   66.1820   32.0050   50.2700 C   0  0  0  0  0  0  0  0  0  0  0  0
   61.5040   31.3590   49.5780 N   0  0  0  0  0  0  0  0  0  0  0  0
   60.5830   31.8230   48.6960 C   0  0  0  0  0  0  0  0  0  0  0  0
   59.3710   31.5140   48.8500 O   0  0  0  0  0  0  0  0  0  0  0  0
   60.9830   32.6550   47.6340 C   0  0  0  0  0  0  0  0  0  0  0  0
   59.9820   33.1790   46.6760 C   0  0  0  0  0  0  0  0  0  0  0  0
   59.8230   34.5590   46.5000 C   0  0  0  0  0  0  0  0  0  0  0  0
   58.9060   35.0340   45.6180 N   0  0  0  0  0  0  0  0  0  0  0  0
   58.1230   34.2040   44.8800 C   0  0  0  0  0  0  0  0  0  0  0  0
   58.2460   32.8100   45.0090 C   0  0  0  0  0  0  0  0  0  0  0  0
   57.4010   31.8940   44.2080 C   0  0  0  0  0  0  0  0  0  0  0  0
   57.4550   31.9250   42.9480 O   0  0  0  0  0  0  0  0  0  0  0  0
   56.5150   30.9750   44.8610 N   0  0  0  0  0  0  0  0  0  0  0  0
   56.1170   29.6930   44.2890 C   0  0  0  0  0  0  0  0  0  0  0  0
   57.3470   28.9100   43.8240 C   0  0  0  0  0  0  0  0  0  0  0  0
   58.3920   28.8740   44.9060 C   0  0  0  0  0  0  0  0  0  0  0  0
   58.0160   28.6960   46.2480 C   0  0  0  0  0  0  0  0  0  0  0  0
   58.9850   28.6960   47.2560 C   0  0  0  0  0  0  0  0  0  0  0  0
   60.3320   28.8830   46.9340 C   0  0  0  0  0  0  0  0  0  0  0  0
   60.7120   29.0750   45.6030 C   0  0  0  0  0  0  0  0  0  0  0  0
   59.7470   29.0760   44.5910 C   0  0  0  0  0  0  0  0  0  0  0  0
   59.1910   32.3050   45.9180 C   0  0  0  0  0  0  0  0  0  0  0  0
   63.4223   34.6897   46.8473 H   0  0  0  0  0  0  0  0  0  0  0  0
   63.5852   33.2437   45.7941 H   0  0  0  0  0  0  0  0  0  0  0  0
   62.0567   34.1873   45.7941 H   0  0  0  0  0  0  0  0  0  0  0  0
   63.2800   30.9925   51.4193 H   0  0  0  0  0  0  0  0  0  0  0  0
   64.2764   30.2662   50.1079 H   0  0  0  0  0  0  0  0  0  0  0  0
   63.5310   33.5944   51.7433 H   0  0  0  0  0  0  0  0  0  0  0  0
   65.3059   35.2964   52.1662 H   0  0  0  0  0  0  0  0  0  0  0  0
   67.6411   34.8926   51.3770 H   0  0  0  0  0  0  0  0  0  0  0  0
   68.2049   32.7809   50.1707 H   0  0  0  0  0  0  0  0  0  0  0  0
   66.4352   31.0729   49.7436 H   0  0  0  0  0  0  0  0  0  0  0  0
   60.4427   35.2605   47.0779 H   0  0  0  0  0  0  0  0  0  0  0  0
   57.3888   34.6256   44.1777 H   0  0  0  0  0  0  0  0  0  0  0  0
   55.5813   29.1072   45.0505 H   0  0  0  0  0  0  0  0  0  0  0  0
   55.4633   29.8766   43.4235 H   0  0  0  0  0  0  0  0  0  0  0  0
   57.0479   27.8809   43.5759 H   0  0  0  0  0  0  0  0  0  0  0  0
   57.7701   29.4072   42.9387 H   0  0  0  0  0  0  0  0  0  0  0  0
   56.9560   28.5562   46.5065 H   0  0  0  0  0  0  0  0  0  0  0  0
   58.6865   28.5485   48.3044 H   0  0  0  0  0  0  0  0  0  0  0  0
   61.0931   28.8791   47.7282 H   0  0  0  0  0  0  0  0  0  0  0  0
   61.7721   29.2256   45.3509 H   0  0  0  0  0  0  0  0  0  0  0  0
   60.0491   29.2353   43.5454 H   0  0  0  0  0  0  0  0  0  0  0  0
   59.3106   31.2178   46.0353 H   0  0  0  0  0  0  0  0  0  0  0  0
  1  2  1  0
  2  3  1  0
  3  4  2  0
  4  5  1  0
  5  6  1  0
  6  7  2  0
  7  8  1  0
  8  9  2  0
  9 10  1  0
 10 11  2  0
  4 12  1  0
 12 13  1  0
 13 14  2  0
 13 15  1  0
 15 16  1  0
 16 17  2  0
 17 18  1  0
 18 19  2  0
 19 20  1  0
 20 21  1  0
 21 22  2  0
 21 23  1  0
 23 24  1  0
 24 25  1  0
 25 26  1  0
 26 27  2  0
 27 28  1  0
 28 29  2  0
 29 30  1  0
 30 31  2  0
 20 32  2  0
 15  2  2  0
 32 16  1  0
 11  6  1  0
 31 26  1  0
  1 33  1  0
  1 34  1  0
  1 35  1  0
  5 36  1  0
  5 37  1  0
  7 38  1  0
  8 39  1  0
  9 40  1  0
 10 41  1  0
 11 42  1  0
 17 43  1  0
 19 44  1  0
 24 45  1  0
 24 46  1  0
 25 47  1  0
 25 48  1  0
 27 49  1  0
 28 50  1  0
 29 51  1  0
 30 52  1  0
 31 53  1  0
 32 54  1  0
M  CHG  2  12  -1  23  -1
M  END
>  <UniqueID>  (85) 
76

>  <SMILES>  (85) 
Cc1nc(Cc2ccccc2)[n-]c(=O)c1-c1cncc(C(=O)[N-]CCc2ccccc2)c1

>  <Energy>  (85) 
62.33662060297729

>  <Genealogy>  (85) 
Cc1nc(Cc2ccccc2)[n-]c(=O)c1-c1cncc(C(=O)[N-]CCc2ccccc2)c1 (protonated)
Cc1nc(Cc2ccccc2)[n-]c(=O)c1-c1cncc(C(=O)[N-]CCc2ccccc2)c1 (3D coordinates assigned)
Cc1nc(Cc2ccccc2)[n-]c(=O)c1-c1cncc(C(=O)[N-]CCc2ccccc2)c1 (optimized conformer: 62.33662060297729 kcal/mol)

>  <smiles>  (85) 
Cc1nc(Cc2ccccc2)[nH]c(=O)c1-c1cncc(C(=O)NCCc2ccccc2)c1

>  <score_type>  (85) 
oracle

>  <origin>  (85) 
adg

>  <m_score__min__energy>  (85) 
-12.77

>  <m_primary>  (85) 
energy

$$$$
85:0
     RDKit          3D

 54 56  0  0  0  0  0  0  0  0999 V2000
   59.2930   35.2730   45.1950 C   0  0  0  0  0  0  0  0  0  0  0  0
   58.8690   33.9370   45.7380 C   0  0  0  0  0  0  0  0  0  0  0  0
   58.1950   33.0230   44.9100 C   0  0  0  0  0  0  0  0  0  0  0  0
   57.8110   31.7580   45.3930 C   0  0  0  0  0  0  0  0  0  0  0  0
   57.0970   30.7820   44.5270 C   0  0  0  0  0  0  0  0  0  0  0  0
   55.8370   30.8160   44.4700 O   0  0  0  0  0  0  0  0  0  0  0  0
   57.8450   29.7210   43.7550 C   0  0  0  0  0  0  0  0  0  0  0  0
   58.6240   28.8020   44.6600 C   0  0  0  0  0  0  0  0  0  0  0  0
   57.9580   27.8200   45.4110 C   0  0  0  0  0  0  0  0  0  0  0  0
   58.6760   26.9860   46.2740 C   0  0  0  0  0  0  0  0  0  0  0  0
   60.0600   27.1330   46.4000 C   0  0  0  0  0  0  0  0  0  0  0  0
   60.7540   26.3250   47.2370 F   0  0  0  0  0  0  0  0  0  0  0  0
   60.7270   28.1160   45.6650 C   0  0  0  0  0  0  0  0  0  0  0  0
   60.0120   28.9520   44.8010 C   0  0  0  0  0  0  0  0  0  0  0  0
   58.1290   31.4170   46.7180 C   0  0  0  0  0  0  0  0  0  0  0  0
   58.8060   32.3160   47.5440 C   0  0  0  0  0  0  0  0  0  0  0  0
   59.1840   33.5820   47.0620 C   0  0  0  0  0  0  0  0  0  0  0  0
   59.8730   34.5070   47.8630 O   0  0  0  0  0  0  0  0  0  0  0  0
   60.3050   34.2610   49.1990 C   0  0  0  0  0  0  0  0  0  0  0  0
   61.8270   34.4000   49.2910 C   0  0  0  0  0  0  0  0  0  0  0  0
   62.4790   33.2290   50.0410 C   0  0  0  0  0  0  0  0  0  0  0  0
   63.5000   32.5680   49.1950 N   0  0  0  0  0  0  0  0  0  0  0  0
   63.0200   31.2940   48.6270 C   0  0  0  0  0  0  0  0  0  0  0  0
   61.9510   31.5160   47.5350 C   0  0  0  0  0  0  0  0  0  0  0  0
   62.1590   32.7480   46.7520 N   0  0  0  0  0  0  0  0  0  0  0  0
   63.5630   33.1680   46.7370 C   0  0  0  0  0  0  0  0  0  0  0  0
   64.0740   33.4670   48.1620 C   0  0  0  0  0  0  0  0  0  0  0  0
   59.5098   35.9560   46.0296 H   0  0  0  0  0  0  0  0  0  0  0  0
   60.1958   35.1487   44.5790 H   0  0  0  0  0  0  0  0  0  0  0  0
   58.4837   35.6920   44.5790 H   0  0  0  0  0  0  0  0  0  0  0  0
   57.9645   33.3000   43.8707 H   0  0  0  0  0  0  0  0  0  0  0  0
   57.1210   29.1235   43.1815 H   0  0  0  0  0  0  0  0  0  0  0  0
   58.5607   30.2278   43.0910 H   0  0  0  0  0  0  0  0  0  0  0  0
   56.8677   27.7063   45.3202 H   0  0  0  0  0  0  0  0  0  0  0  0
   58.1506   26.2133   46.8544 H   0  0  0  0  0  0  0  0  0  0  0  0
   61.8161   28.2328   45.7658 H   0  0  0  0  0  0  0  0  0  0  0  0
   60.5398   29.7300   44.2299 H   0  0  0  0  0  0  0  0  0  0  0  0
   57.8412   30.4301   47.1093 H   0  0  0  0  0  0  0  0  0  0  0  0
   59.0455   32.0321   48.5794 H   0  0  0  0  0  0  0  0  0  0  0  0
   59.8313   34.9882   49.8748 H   0  0  0  0  0  0  0  0  0  0  0  0
   60.0174   33.2397   49.4893 H   0  0  0  0  0  0  0  0  0  0  0  0
   62.2400   34.4405   48.2723 H   0  0  0  0  0  0  0  0  0  0  0  0
   62.0458   35.3204   49.8523 H   0  0  0  0  0  0  0  0  0  0  0  0
   62.9585   33.6082   50.9555 H   0  0  0  0  0  0  0  0  0  0  0  0
   61.7005   32.4943   50.2944 H   0  0  0  0  0  0  0  0  0  0  0  0
   63.8730   30.7578   48.1856 H   0  0  0  0  0  0  0  0  0  0  0  0
   62.5614   30.7105   49.4389 H   0  0  0  0  0  0  0  0  0  0  0  0
   61.9724   30.6581   46.8469 H   0  0  0  0  0  0  0  0  0  0  0  0
   60.9819   31.6162   48.0457 H   0  0  0  0  0  0  0  0  0  0  0  0
   61.5830   33.5210   47.1600 H   0  0  0  0  0  0  0  0  0  0  0  0
   64.1728   32.3641   46.2990 H   0  0  0  0  0  0  0  0  0  0  0  0
   63.6439   34.0877   46.1390 H   0  0  0  0  0  0  0  0  0  0  0  0
   65.1682   33.3544   48.1708 H   0  0  0  0  0  0  0  0  0  0  0  0
   63.7594   34.4911   48.4116 H   0  0  0  0  0  0  0  0  0  0  0  0
  1  2  1  0
  2  3  2  0
  3  4  1  0
  4  5  1  0
  5  6  2  0
  5  7  1  0
  7  8  1  0
  8  9  2  0
  9 10  1  0
 10 11  2  0
 11 12  1  0
 11 13  1  0
 13 14  2  0
  4 15  2  0
 15 16  1  0
 16 17  2  0
 17 18  1  0
 18 19  1  0
 19 20  1  0
 20 21  1  0
 21 22  1  0
 22 23  1  0
 23 24  1  0
 24 25  1  0
 25 26  1  0
 26 27  1  0
 17  2  1  0
 27 22  1  0
 14  8  1  0
  1 28  1  0
  1 29  1  0
  1 30  1  0
  3 31  1  0
  7 32  1  0
  7 33  1  0
  9 34  1  0
 10 35  1  0
 13 36  1  0
 14 37  1  0
 15 38  1  0
 16 39  1  0
 19 40  1  0
 19 41  1  0
 20 42  1  0
 20 43  1  0
 21 44  1  0
 21 45  1  0
 23 46  1  0
 23 47  1  0
 24 48  1  0
 24 49  1  0
 25 50  1  0
 26 51  1  0
 26 52  1  0
 27 53  1  0
 27 54  1  0
M  END
>  <UniqueID>  (86) 
77

>  <SMILES>  (86) 
Cc1cc(C(=O)Cc2ccc(F)cc2)ccc1OCCCN1CCNCC1

>  <Energy>  (86) 
63.15460412545542

>  <Genealogy>  (86) 
Cc1cc(C(=O)Cc2ccc(F)cc2)ccc1OCCCN1CCNCC1 (3D coordinates assigned)
Cc1cc(C(=O)Cc2ccc(F)cc2)ccc1OCCCN1CCNCC1 (nonaromatic ring conformer: 63.15460412545542 kcal/mol)

>  <smiles>  (86) 
Cc1cc(C(=O)Cc2ccc(F)cc2)ccc1OCCCN1CCNCC1

>  <score_type>  (86) 
oracle

>  <origin>  (86) 
adg

>  <m_score__min__energy>  (86) 
-8.9000000000000004

>  <m_primary>  (86) 
energy

$$$$
86:0
     RDKit          3D

 59 62  0  0  0  0  0  0  0  0999 V2000
   59.7710   33.4680   51.0690 C   0  0  0  0  0  0  0  0  0  0  0  0
   60.3930   33.7770   49.8250 O   0  0  0  0  0  0  0  0  0  0  0  0
   59.7080   33.9130   48.6100 C   0  0  0  0  0  0  0  0  0  0  0  0
   60.1030   34.8340   47.6190 C   0  0  0  0  0  0  0  0  0  0  0  0
   59.3860   34.9330   46.4230 C   0  0  0  0  0  0  0  0  0  0  0  0
   58.2610   34.1240   46.2020 C   0  0  0  0  0  0  0  0  0  0  0  0
   57.5150   34.2020   44.8990 C   0  0  0  0  0  0  0  0  0  0  0  0
   57.5800   32.8850   44.1940 C   0  0  0  0  0  0  0  0  0  0  0  0
   58.0720   32.7210   42.9490 N   0  0  0  0  0  0  0  0  0  0  0  0
   57.8960   31.4590   42.6800 O   0  0  0  0  0  0  0  0  0  0  0  0
   57.3120   30.8660   43.6940 C   0  0  0  0  0  0  0  0  0  0  0  0
   56.9780   29.4090   43.7440 C   0  0  0  0  0  0  0  0  0  0  0  0
   57.6930   28.7650   44.8640 N   0  0  0  0  0  0  0  0  0  0  0  0
   57.8760   27.3110   44.6070 C   0  0  0  0  0  0  0  0  0  0  0  0
   58.9180   26.6600   45.5430 C   0  0  0  0  0  0  0  0  0  0  0  0
   59.1140   27.4980   46.8050 C   0  0  0  0  0  0  0  0  0  0  0  0
   59.6130   28.9170   46.4380 C   0  0  2  0  0  0  0  0  0  0  0  0
   59.4950   29.9310   47.6110 C   0  0  0  0  0  0  0  0  0  0  0  0
   60.7700   30.6930   47.9570 C   0  0  0  0  0  0  0  0  0  0  0  0
   61.3400   31.4970   46.9490 C   0  0  0  0  0  0  0  0  0  0  0  0
   62.5290   32.1920   47.1660 C   0  0  0  0  0  0  0  0  0  0  0  0
   63.1680   32.1090   48.3990 C   0  0  0  0  0  0  0  0  0  0  0  0
   62.6070   31.3540   49.4270 C   0  0  0  0  0  0  0  0  0  0  0  0
   61.3940   30.6650   49.2390 C   0  0  0  0  0  0  0  0  0  0  0  0
   60.8440   29.9140   50.4240 C   0  0  0  0  0  0  0  0  0  0  0  0
   58.9930   29.4200   45.1090 C   0  0  0  0  0  0  0  0  0  0  0  0
   57.0860   31.7370   44.6920 N   0  0  0  0  0  0  0  0  0  0  0  0
   57.8760   33.1970   47.1830 C   0  0  0  0  0  0  0  0  0  0  0  0
   58.5930   33.1000   48.3790 C   0  0  0  0  0  0  0  0  0  0  0  0
   60.4219   33.7914   51.8947 H   0  0  0  0  0  0  0  0  0  0  0  0
   58.8058   33.9914   51.1364 H   0  0  0  0  0  0  0  0  0  0  0  0
   59.6050   32.3827   51.1364 H   0  0  0  0  0  0  0  0  0  0  0  0
   60.9791   35.4776   47.7873 H   0  0  0  0  0  0  0  0  0  0  0  0
   59.7054   35.6488   45.6512 H   0  0  0  0  0  0  0  0  0  0  0  0
   56.4636   34.4585   45.0958 H   0  0  0  0  0  0  0  0  0  0  0  0
   57.9746   34.9745   44.2650 H   0  0  0  0  0  0  0  0  0  0  0  0
   55.8940   29.2885   43.8865 H   0  0  0  0  0  0  0  0  0  0  0  0
   57.2851   28.9356   42.7998 H   0  0  0  0  0  0  0  0  0  0  0  0
   56.9101   26.8050   44.7517 H   0  0  0  0  0  0  0  0  0  0  0  0
   58.2456   27.2026   43.5766 H   0  0  0  0  0  0  0  0  0  0  0  0
   58.5695   25.6562   45.8275 H   0  0  0  0  0  0  0  0  0  0  0  0
   59.8783   26.5960   45.0103 H   0  0  0  0  0  0  0  0  0  0  0  0
   58.1560   27.5776   47.3397 H   0  0  0  0  0  0  0  0  0  0  0  0
   59.8642   27.0101   47.4446 H   0  0  0  0  0  0  0  0  0  0  0  0
   60.6948   28.8356   46.2561 H   0  0  0  0  0  0  0  0  0  0  0  0
   58.7227   30.6676   47.3446 H   0  0  0  0  0  0  0  0  0  0  0  0
   59.2522   29.3326   48.5015 H   0  0  0  0  0  0  0  0  0  0  0  0
   60.8376   31.5775   45.9737 H   0  0  0  0  0  0  0  0  0  0  0  0
   62.9618   32.8059   46.3624 H   0  0  0  0  0  0  0  0  0  0  0  0
   64.1173   32.6401   48.5626 H   0  0  0  0  0  0  0  0  0  0  0  0
   63.1191   31.2956   50.3988 H   0  0  0  0  0  0  0  0  0  0  0  0
   61.1920   30.3892   51.3530 H   0  0  0  0  0  0  0  0  0  0  0  0
   59.7446   29.9329   50.3920 H   0  0  0  0  0  0  0  0  0  0  0  0
   61.1938   28.8716   50.3920 H   0  0  0  0  0  0  0  0  0  0  0  0
   58.8445   30.5083   45.1680 H   0  0  0  0  0  0  0  0  0  0  0  0
   59.6762   29.1745   44.2826 H   0  0  0  0  0  0  0  0  0  0  0  0
   56.6360   31.5660   45.6190 H   0  0  0  0  0  0  0  0  0  0  0  0
   57.0073   32.5447   47.0101 H   0  0  0  0  0  0  0  0  0  0  0  0
   58.2775   32.3774   49.1461 H   0  0  0  0  0  0  0  0  0  0  0  0
  1  2  1  0
  2  3  1  0
  3  4  2  0
  4  5  1  0
  5  6  2  0
  6  7  1  0
  7  8  1  0
  8  9  2  0
  9 10  1  0
 10 11  1  0
 11 12  1  0
 12 13  1  0
 13 14  1  0
 14 15  1  0
 15 16  1  0
 16 17  1  0
 17 18  1  0
 18 19  1  0
 19 20  2  0
 20 21  1  0
 21 22  2  0
 22 23  1  0
 23 24  2  0
 24 25  1  0
 17 26  1  0
 11 27  2  0
  6 28  1  0
 28 29  2  0
 29  3  1  0
 27  8  1  0
 26 13  1  0
 24 19  1  0
  1 30  1  0
  1 31  1  0
  1 32  1  0
  4 33  1  0
  5 34  1  0
  7 35  1  0
  7 36  1  0
 12 37  1  0
 12 38  1  0
 14 39  1  0
 14 40  1  0
 15 41  1  0
 15 42  1  0
 16 43  1  0
 16 44  1  0
 17 45  1  6
 18 46  1  0
 18 47  1  0
 20 48  1  0
 21 49  1  0
 22 50  1  0
 23 51  1  0
 25 52  1  0
 25 53  1  0
 25 54  1  0
 26 55  1  0
 26 56  1  0
 27 57  1  0
 28 58  1  0
 29 59  1  0
M  CHG  1  27   1
M  END
>  <UniqueID>  (87) 
78

>  <SMILES>  (87) 
COc1ccc(Cc2noc(CN3CCC[C@H](Cc4ccccc4C)C3)[nH+]2)cc1

>  <Energy>  (87) 
103.25452702057426

>  <Genealogy>  (87) 
COc1ccc(Cc2noc(CN3CCCC(Cc4ccccc4C)C3)[nH+]2)cc1 (protonated)
COc1ccc(Cc2noc(CN3CCC[C@H](Cc4ccccc4C)C3)[nH+]2)cc1 (chirality)
COc1ccc(Cc2noc(CN3CCC[C@H](Cc4ccccc4C)C3)[nH+]2)cc1 (3D coordinates assigned)
COc1ccc(Cc2noc(CN3CCC[C@H](Cc4ccccc4C)C3)[nH+]2)cc1 (nonaromatic ring conformer: 103.25452702057426 kcal/mol)

>  <smiles>  (87) 
COc1ccc(Cc2noc(CN3CCCC(Cc4ccccc4C)C3)n2)cc1

>  <score_type>  (87) 
oracle

>  <origin>  (87) 
adg

>  <m_score__min__energy>  (87) 
-8.2100000000000009

>  <m_primary>  (87) 
energy

$$$$
87:0
     RDKit          3D

 38 39  0  0  0  0  0  0  0  0999 V2000
   60.7480   28.9490   44.9030 C   0  0  0  0  0  0  0  0  0  0  0  0
   59.4510   28.3030   45.3050 C   0  0  0  0  0  0  0  0  0  0  0  0
   59.4850   27.1580   46.1170 C   0  0  0  0  0  0  0  0  0  0  0  0
   58.2990   26.5460   46.5300 C   0  0  0  0  0  0  0  0  0  0  0  0
   57.0670   27.0700   46.1360 C   0  0  0  0  0  0  0  0  0  0  0  0
   57.0170   28.1960   45.3130 C   0  0  0  0  0  0  0  0  0  0  0  0
   58.2000   28.8040   44.8680 C   0  0  0  0  0  0  0  0  0  0  0  0
   58.1050   29.9530   44.0130 N   0  0  0  0  0  0  0  0  0  0  0  0
   58.1290   31.3060   44.4970 C   0  0  0  0  0  0  0  0  0  0  0  0
   57.8540   32.5180   43.4240 S   0  0  0  0  0  0  0  0  0  0  0  0
   58.4880   31.5890   45.8650 N   0  0  0  0  0  0  0  0  0  0  0  0
   58.4490   32.9180   46.4830 C   0  0  0  0  0  0  0  0  0  0  0  0
   59.7260   33.7070   46.1720 C   0  0  0  0  0  0  0  0  0  0  0  0
   60.3870   34.2660   47.4360 C   0  0  0  0  0  0  0  0  0  0  0  0
   61.6900   33.6390   47.6390 N   0  0  0  0  0  0  0  0  0  0  0  0
   62.2040   33.2030   48.8060 C   0  0  0  0  0  0  0  0  0  0  0  0
   63.4850   32.7510   48.5660 C   0  0  0  0  0  0  0  0  0  0  0  0
   63.7620   32.9190   47.2570 N   0  0  0  0  0  0  0  0  0  0  0  0
   62.6570   33.4670   46.7180 C   0  0  0  0  0  0  0  0  0  0  0  0
   61.3124   29.2301   45.8043 H   0  0  0  0  0  0  0  0  0  0  0  0
   61.3406   28.2408   44.3053 H   0  0  0  0  0  0  0  0  0  0  0  0
   60.5398   29.8487   44.3053 H   0  0  0  0  0  0  0  0  0  0  0  0
   60.4529   26.7397   46.4303 H   0  0  0  0  0  0  0  0  0  0  0  0
   58.3363   25.6498   47.1667 H   0  0  0  0  0  0  0  0  0  0  0  0
   56.1344   26.5950   46.4745 H   0  0  0  0  0  0  0  0  0  0  0  0
   56.0433   28.6094   45.0113 H   0  0  0  0  0  0  0  0  0  0  0  0
   58.1610   29.7920   42.9820 H   0  0  0  0  0  0  0  0  0  0  0  0
   58.7500   30.7960   46.4910 H   0  0  0  0  0  0  0  0  0  0  0  0
   57.5812   33.4704   46.0934 H   0  0  0  0  0  0  0  0  0  0  0  0
   58.3702   32.7950   47.5733 H   0  0  0  0  0  0  0  0  0  0  0  0
   60.4392   33.0401   45.6653 H   0  0  0  0  0  0  0  0  0  0  0  0
   59.4482   34.5583   45.5332 H   0  0  0  0  0  0  0  0  0  0  0  0
   60.5189   35.3527   47.3276 H   0  0  0  0  0  0  0  0  0  0  0  0
   59.7450   34.0520   48.3032 H   0  0  0  0  0  0  0  0  0  0  0  0
   61.6918   33.2069   49.7794 H   0  0  0  0  0  0  0  0  0  0  0  0
   64.1666   32.3248   49.3169 H   0  0  0  0  0  0  0  0  0  0  0  0
   64.6530   32.6850   46.7680 H   0  0  0  0  0  0  0  0  0  0  0  0
   62.5565   33.7403   45.6572 H   0  0  0  0  0  0  0  0  0  0  0  0
  1  2  1  0
  2  3  2  0
  3  4  1  0
  4  5  2  0
  5  6  1  0
  6  7  2  0
  7  8  1  0
  8  9  1  0
  9 10  2  0
  9 11  1  0
 11 12  1  0
 12 13  1  0
 13 14  1  0
 14 15  1  0
 15 16  1  0
 16 17  2  0
 17 18  1  0
 18 19  2  0
  7  2  1  0
 19 15  1  0
  1 20  1  0
  1 21  1  0
  1 22  1  0
  3 23  1  0
  4 24  1  0
  5 25  1  0
  6 26  1  0
  8 27  1  0
 11 28  1  0
 12 29  1  0
 12 30  1  0
 13 31  1  0
 13 32  1  0
 14 33  1  0
 14 34  1  0
 16 35  1  0
 17 36  1  0
 18 37  1  0
 19 38  1  0
M  CHG  1  18   1
M  END
>  <UniqueID>  (88) 
79

>  <SMILES>  (88) 
Cc1ccccc1NC(=S)NCCCn1cc[nH+]c1

>  <Energy>  (88) 
67.27228151801016

>  <Genealogy>  (88) 
Cc1ccccc1NC(=S)NCCCn1cc[nH+]c1 (protonated)
Cc1ccccc1NC(=S)NCCCn1cc[nH+]c1 (3D coordinates assigned)
Cc1ccccc1NC(=S)NCCCn1cc[nH+]c1 (optimized conformer: 67.27228151801016 kcal/mol)

>  <smiles>  (88) 
Cc1ccccc1NC(=S)NCCCn1ccnc1

>  <score_type>  (88) 
oracle

>  <origin>  (88) 
adg

>  <m_score__min__energy>  (88) 
-5.2999999999999998

>  <m_primary>  (88) 
energy

$$$$
88:0
     RDKit          3D

 38 39  0  0  0  0  0  0  0  0999 V2000
   55.8750   28.2800   45.2370 O   0  0  0  0  0  0  0  0  0  0  0  0
   56.5150   29.3640   45.2280 C   0  0  0  0  0  0  0  0  0  0  0  0
   56.0130   30.4440   44.5160 O   0  0  0  0  0  0  0  0  0  0  0  0
   57.8400   29.4760   45.8660 C   0  0  0  0  0  0  0  0  0  0  0  0
   58.1210   30.2650   46.8640 N   0  0  0  0  0  0  0  0  0  0  0  0
   59.3170   30.2920   47.6580 C   0  0  0  0  0  0  0  0  0  0  0  0
   60.4510   30.1620   47.1220 O   0  0  0  0  0  0  0  0  0  0  0  0
   59.2070   30.3560   49.1510 C   0  0  0  0  0  0  0  0  0  0  0  0
   58.9860   31.7940   49.6240 C   0  0  0  0  0  0  0  0  0  0  0  0
   57.9190   31.8360   50.6760 C   0  0  0  0  0  0  0  0  0  0  0  0
   57.7880   32.8730   51.3820 O   0  0  0  0  0  0  0  0  0  0  0  0
   57.0590   30.7030   50.8750 N   0  0  0  0  0  0  0  0  0  0  0  0
   56.2420   30.5130   52.0420 C   0  0  0  0  0  0  0  0  0  0  0  0
   56.7640   29.9370   53.2140 C   0  0  0  0  0  0  0  0  0  0  0  0
   55.9430   29.7390   54.3280 C   0  0  0  0  0  0  0  0  0  0  0  0
   54.5950   30.0990   54.2790 C   0  0  0  0  0  0  0  0  0  0  0  0
   54.0510   30.6480   53.1050 C   0  0  0  0  0  0  0  0  0  0  0  0
   52.6070   31.0650   53.0630 C   0  0  0  0  0  0  0  0  0  0  0  0
   52.1070   31.0470   51.6510 C   0  0  0  0  0  0  0  0  0  0  0  0
   52.2710   29.7560   50.5800 S   0  0  0  0  0  0  0  0  0  0  0  0
   51.4120   30.5470   49.3700 C   0  0  0  0  0  0  0  0  0  0  0  0
   51.1820   30.0620   48.2330 O   0  0  0  0  0  0  0  0  0  0  0  0
   50.9850   31.7700   49.7490 N   0  0  0  0  0  0  0  0  0  0  0  0
   51.3660   32.0460   51.0230 C   0  0  0  0  0  0  0  0  0  0  0  0
   51.0310   33.2430   51.6420 O   0  0  0  0  0  0  0  0  0  0  0  0
   54.8820   30.8540   51.9920 C   0  0  0  0  0  0  0  0  0  0  0  0
   58.6509   28.8469   45.4700 H   0  0  0  0  0  0  0  0  0  0  0  0
   58.3584   29.7361   49.4759 H   0  0  0  0  0  0  0  0  0  0  0  0
   60.1457   29.9842   49.5875 H   0  0  0  0  0  0  0  0  0  0  0  0
   59.9243   32.1868   50.0426 H   0  0  0  0  0  0  0  0  0  0  0  0
   58.6697   32.4082   48.7680 H   0  0  0  0  0  0  0  0  0  0  0  0
   56.9730   30.0120   50.0950 H   0  0  0  0  0  0  0  0  0  0  0  0
   57.8227   29.6411   53.2543 H   0  0  0  0  0  0  0  0  0  0  0  0
   56.3601   29.2984   55.2455 H   0  0  0  0  0  0  0  0  0  0  0  0
   53.9563   29.9525   55.1625 H   0  0  0  0  0  0  0  0  0  0  0  0
   52.0094   30.3686   53.6695 H   0  0  0  0  0  0  0  0  0  0  0  0
   52.5149   32.0849   53.4646 H   0  0  0  0  0  0  0  0  0  0  0  0
   54.4626   31.2870   51.0719 H   0  0  0  0  0  0  0  0  0  0  0  0
  1  2  2  0
  2  3  1  0
  2  4  1  0
  4  5  2  3
  5  6  1  0
  6  7  2  0
  6  8  1  0
  8  9  1  0
  9 10  1  0
 10 11  2  0
 10 12  1  0
 12 13  1  0
 13 14  2  0
 14 15  1  0
 15 16  2  0
 16 17  1  0
 17 18  1  0
 18 19  1  0
 19 20  1  0
 20 21  1  0
 21 22  2  0
 21 23  1  0
 23 24  1  0
 24 25  1  0
 17 26  2  0
 26 13  1  0
 24 19  2  0
  4 27  1  0
  8 28  1  0
  8 29  1  0
  9 30  1  0
  9 31  1  0
 12 32  1  0
 14 33  1  0
 15 34  1  0
 16 35  1  0
 18 36  1  0
 18 37  1  0
 26 38  1  0
M  CHG  3   3  -1  23  -1  25  -1
M  END
>  <UniqueID>  (89) 
80

>  <SMILES>  (89) 
O=C([O-])C=NC(=O)CCC(=O)Nc1cccc(Cc2sc(=O)[n-]c2[O-])c1

>  <Energy>  (89) 
73.58224171630572

>  <Genealogy>  (89) 
O=C([O-])C=NC(=O)CCC(=O)Nc1cccc(Cc2sc(=O)[n-]c2[O-])c1 (protonated)
O=C([O-])C=NC(=O)CCC(=O)Nc1cccc(Cc2sc(=O)[n-]c2[O-])c1 (3D coordinates assigned)
O=C([O-])C=NC(=O)CCC(=O)Nc1cccc(Cc2sc(=O)[n-]c2[O-])c1 (optimized conformer: 73.58224171630572 kcal/mol)

>  <smiles>  (89) 
O=C(O)C=NC(=O)CCC(=O)Nc1cccc(Cc2sc(=O)[nH]c2O)c1

>  <score_type>  (89) 
oracle

>  <origin>  (89) 
adg

>  <m_score__min__energy>  (89) 
-17.190000000000001

>  <m_primary>  (89) 
energy

$$$$
89:0
     RDKit          3D

 53 56  0  0  0  0  0  0  0  0999 V2000
   58.1220   32.7020   42.8350 C   0  0  0  0  0  0  0  0  0  0  0  0
   58.3200   33.1900   44.2440 C   0  0  0  0  0  0  0  0  0  0  0  0
   59.4060   34.0310   44.5460 C   0  0  0  0  0  0  0  0  0  0  0  0
   59.5970   34.4990   45.8470 C   0  0  0  0  0  0  0  0  0  0  0  0
   58.7050   34.1390   46.8570 C   0  0  0  0  0  0  0  0  0  0  0  0
   58.8910   34.5990   48.1200 F   0  0  0  0  0  0  0  0  0  0  0  0
   57.6200   33.3070   46.5710 C   0  0  0  0  0  0  0  0  0  0  0  0
   57.4170   32.8250   45.2640 C   0  0  0  0  0  0  0  0  0  0  0  0
   56.3090   31.9670   44.9440 N   0  0  0  0  0  0  0  0  0  0  0  0
   56.4310   30.3250   44.3990 S   0  0  0  0  0  0  0  0  0  0  0  0
   55.1730   29.5900   44.7660 O   0  0  0  0  0  0  0  0  0  0  0  0
   56.5810   30.3090   42.9030 O   0  0  0  0  0  0  0  0  0  0  0  0
   57.7970   29.5380   45.1820 C   0  0  0  0  0  0  0  0  0  0  0  0
   59.1130   29.9230   44.8870 C   0  0  0  0  0  0  0  0  0  0  0  0
   60.1870   29.3010   45.5300 C   0  0  0  0  0  0  0  0  0  0  0  0
   59.9540   28.2800   46.4550 C   0  0  0  0  0  0  0  0  0  0  0  0
   58.6420   27.8610   46.7290 C   0  0  0  0  0  0  0  0  0  0  0  0
   58.3640   26.8280   47.6850 N   0  0  0  0  0  0  0  0  0  0  0  0
   57.8170   25.5310   47.4100 C   0  0  0  0  0  0  0  0  0  0  0  0
   57.7370   24.6960   48.3500 O   0  0  0  0  0  0  0  0  0  0  0  0
   57.3000   25.1550   46.0490 C   0  0  0  0  0  0  0  0  0  0  0  0
   56.0870   24.3460   46.1710 N   0  0  0  0  0  0  0  0  0  0  0  0
   54.8130   24.7600   45.9940 C   0  0  0  0  0  0  0  0  0  0  0  0
   54.4490   26.0620   45.6750 O   0  0  0  0  0  0  0  0  0  0  0  0
   53.9380   23.7050   46.1660 C   0  0  0  0  0  0  0  0  0  0  0  0
   54.7110   22.5920   46.4100 C   0  0  0  0  0  0  0  0  0  0  0  0
   56.0230   23.0200   46.4230 C   0  0  0  0  0  0  0  0  0  0  0  0
   57.1320   22.2140   46.6590 O   0  0  0  0  0  0  0  0  0  0  0  0
   54.1540   21.2350   46.7180 C   0  0  0  0  0  0  0  0  0  0  0  0
   52.6930   21.1360   46.2340 C   0  0  0  0  0  0  0  0  0  0  0  0
   51.8720   22.3850   46.6230 C   0  0  0  0  0  0  0  0  0  0  0  0
   52.4510   23.6710   45.9960 C   0  0  0  0  0  0  0  0  0  0  0  0
   57.5680   28.5140   46.1100 C   0  0  0  0  0  0  0  0  0  0  0  0
   57.7085   31.6829   42.8546 H   0  0  0  0  0  0  0  0  0  0  0  0
   57.4241   33.3708   42.3100 H   0  0  0  0  0  0  0  0  0  0  0  0
   59.0886   32.6955   42.3100 H   0  0  0  0  0  0  0  0  0  0  0  0
   60.1094   34.3218   43.7518 H   0  0  0  0  0  0  0  0  0  0  0  0
   60.4518   35.1524   46.0760 H   0  0  0  0  0  0  0  0  0  0  0  0
   56.9200   33.0268   47.3719 H   0  0  0  0  0  0  0  0  0  0  0  0
   59.3003   30.7161   44.1481 H   0  0  0  0  0  0  0  0  0  0  0  0
   61.2172   29.6158   45.3075 H   0  0  0  0  0  0  0  0  0  0  0  0
   60.8008   27.8030   46.9701 H   0  0  0  0  0  0  0  0  0  0  0  0
   57.0704   26.0697   45.4828 H   0  0  0  0  0  0  0  0  0  0  0  0
   58.0689   24.5692   45.5240 H   0  0  0  0  0  0  0  0  0  0  0  0
   54.7582   20.4701   46.2082 H   0  0  0  0  0  0  0  0  0  0  0  0
   54.1833   21.0737   47.8057 H   0  0  0  0  0  0  0  0  0  0  0  0
   52.6873   21.0335   45.1388 H   0  0  0  0  0  0  0  0  0  0  0  0
   52.2324   20.2612   46.7164 H   0  0  0  0  0  0  0  0  0  0  0  0
   50.8372   22.2536   46.2738 H   0  0  0  0  0  0  0  0  0  0  0  0
   51.9102   22.4915   47.7172 H   0  0  0  0  0  0  0  0  0  0  0  0
   52.2073   23.6939   44.9236 H   0  0  0  0  0  0  0  0  0  0  0  0
   52.0121   24.5449   46.4997 H   0  0  0  0  0  0  0  0  0  0  0  0
   56.5366   28.2202   46.3547 H   0  0  0  0  0  0  0  0  0  0  0  0
  1  2  1  0
  2  3  2  0
  3  4  1  0
  4  5  2  0
  5  6  1  0
  5  7  1  0
  7  8  2  0
  8  9  1  0
  9 10  1  0
 10 11  2  0
 10 12  2  0
 10 13  1  0
 13 14  2  0
 14 15  1  0
 15 16  2  0
 16 17  1  0
 17 18  1  0
 18 19  1  0
 19 20  2  0
 19 21  1  0
 21 22  1  0
 22 23  1  0
 23 24  1  0
 23 25  2  0
 25 26  1  0
 26 27  2  0
 27 28  1  0
 26 29  1  0
 29 30  1  0
 30 31  1  0
 31 32  1  0
 17 33  2  0
  8  2  1  0
 33 13  1  0
 27 22  1  0
 32 25  1  0
  1 34  1  0
  1 35  1  0
  1 36  1  0
  3 37  1  0
  4 38  1  0
  7 39  1  0
 14 40  1  0
 15 41  1  0
 16 42  1  0
 21 43  1  0
 21 44  1  0
 29 45  1  0
 29 46  1  0
 30 47  1  0
 30 48  1  0
 31 49  1  0
 31 50  1  0
 32 51  1  0
 32 52  1  0
 33 53  1  0
M  CHG  4   9  -1  18  -1  24  -1  28  -1
M  END
>  <UniqueID>  (90) 
81

>  <SMILES>  (90) 
Cc1ccc(F)cc1[N-]S(=O)(=O)c1cccc([N-]C(=O)Cn2c([O-])c3c(c2[O-])CCCC3)c1

>  <Energy>  (90) 
92.07632882774568

>  <Genealogy>  (90) 
Cc1ccc(F)cc1[N-]S(=O)(=O)c1cccc([N-]C(=O)Cn2c([O-])c3c(c2[O-])CCCC3)c1 (protonated)
Cc1ccc(F)cc1[N-]S(=O)(=O)c1cccc([N-]C(=O)Cn2c([O-])c3c(c2[O-])CCCC3)c1 (3D coordinates assigned)
Cc1ccc(F)cc1[N-]S(=O)(=O)c1cccc([N-]C(=O)Cn2c([O-])c3c(c2[O-])CCCC3)c1 (nonaromatic ring conformer: 92.07632882774568 kcal/mol)

>  <smiles>  (90) 
Cc1ccc(F)cc1NS(=O)(=O)c1cccc(NC(=O)Cn2c(O)c3c(c2O)CCCC3)c1

>  <score_type>  (90) 
oracle

>  <origin>  (90) 
adg

>  <m_score__min__energy>  (90) 
-16.649999999999999

>  <m_primary>  (90) 
energy

$$$$
90:0
     RDKit          3D

 40 42  0  0  0  0  0  0  0  0999 V2000
   54.8760   26.1670   45.9740 N   0  0  0  0  0  0  0  0  0  0  0  0
   56.5590   25.7720   46.0040 S   0  0  0  0  0  0  0  0  0  0  0  0
   56.8180   24.7640   47.0860 O   0  0  0  0  0  0  0  0  0  0  0  0
   56.9400   25.1860   44.6730 O   0  0  0  0  0  0  0  0  0  0  0  0
   57.5080   27.2220   46.3150 C   0  0  0  0  0  0  0  0  0  0  0  0
   58.4190   27.2560   47.3790 C   0  0  0  0  0  0  0  0  0  0  0  0
   59.1630   28.4120   47.6320 C   0  0  0  0  0  0  0  0  0  0  0  0
   59.0150   29.5450   46.8180 C   0  0  0  0  0  0  0  0  0  0  0  0
   59.7750   30.7280   47.1120 N   0  0  0  0  0  0  0  0  0  0  0  0
   60.9420   30.7410   47.9510 C   0  0  0  0  0  0  0  0  0  0  0  0
   61.2370   29.7300   48.6440 O   0  0  0  0  0  0  0  0  0  0  0  0
   61.7850   31.9560   48.0270 C   0  0  0  0  0  0  0  0  0  0  0  0
   63.1070   31.8940   47.5530 C   0  0  0  0  0  0  0  0  0  0  0  0
   63.9400   33.0140   47.6210 C   0  0  0  0  0  0  0  0  0  0  0  0
   63.4620   34.2090   48.1590 C   0  0  0  0  0  0  0  0  0  0  0  0
   62.1490   34.2900   48.6240 C   0  0  0  0  0  0  0  0  0  0  0  0
   61.3000   33.1770   48.5580 C   0  0  0  0  0  0  0  0  0  0  0  0
   59.5970   33.3810   49.1020 S   0  0  0  0  0  0  0  0  0  0  0  0
   59.0110   33.7210   47.4440 C   0  0  0  0  0  0  0  0  0  0  0  0
   59.7250   34.5830   46.6040 C   0  0  0  0  0  0  0  0  0  0  0  0
   59.2400   34.8420   45.3200 C   0  0  0  0  0  0  0  0  0  0  0  0
   58.0580   34.2370   44.8890 C   0  0  0  0  0  0  0  0  0  0  0  0
   57.3760   33.3770   45.7550 C   0  0  0  0  0  0  0  0  0  0  0  0
   57.8630   33.1390   47.0020 N   0  0  0  0  0  0  0  0  0  0  0  0
   58.0790   29.5170   45.7690 C   0  0  0  0  0  0  0  0  0  0  0  0
   57.3340   28.3610   45.5180 C   0  0  0  0  0  0  0  0  0  0  0  0
   54.7690   27.0860   46.4590 H   0  0  0  0  0  0  0  0  0  0  0  0
   58.5492   26.3698   48.0175 H   0  0  0  0  0  0  0  0  0  0  0  0
   59.8693   28.4335   48.4750 H   0  0  0  0  0  0  0  0  0  0  0  0
   59.3880   31.6480   46.8030 H   0  0  0  0  0  0  0  0  0  0  0  0
   63.4891   30.9556   47.1248 H   0  0  0  0  0  0  0  0  0  0  0  0
   64.9737   32.9532   47.2499 H   0  0  0  0  0  0  0  0  0  0  0  0
   64.1207   35.0881   48.2167 H   0  0  0  0  0  0  0  0  0  0  0  0
   61.7772   35.2354   49.0459 H   0  0  0  0  0  0  0  0  0  0  0  0
   60.6578   35.0514   46.9511 H   0  0  0  0  0  0  0  0  0  0  0  0
   59.7880   35.5209   44.6501 H   0  0  0  0  0  0  0  0  0  0  0  0
   57.6677   34.4346   43.8797 H   0  0  0  0  0  0  0  0  0  0  0  0
   56.4445   32.8924   45.4272 H   0  0  0  0  0  0  0  0  0  0  0  0
   57.9322   30.4093   45.1427 H   0  0  0  0  0  0  0  0  0  0  0  0
   56.6083   28.3456   44.6915 H   0  0  0  0  0  0  0  0  0  0  0  0
  1  2  1  0
  2  3  2  0
  2  4  2  0
  2  5  1  0
  5  6  2  0
  6  7  1  0
  7  8  2  0
  8  9  1  0
  9 10  1  0
 10 11  2  0
 10 12  1  0
 12 13  2  0
 13 14  1  0
 14 15  2  0
 15 16  1  0
 16 17  2  0
 17 18  1  0
 18 19  1  0
 19 20  2  0
 20 21  1  0
 21 22  2  0
 22 23  1  0
 23 24  2  0
  8 25  1  0
 25 26  2  0
 26  5  1  0
 17 12  1  0
 24 19  1  0
  1 27  1  0
  6 28  1  0
  7 29  1  0
  9 30  1  0
 13 31  1  0
 14 32  1  0
 15 33  1  0
 16 34  1  0
 20 35  1  0
 21 36  1  0
 22 37  1  0
 23 38  1  0
 25 39  1  0
 26 40  1  0
M  CHG  1   1  -1
M  END
>  <UniqueID>  (91) 
82

>  <SMILES>  (91) 
[NH-]S(=O)(=O)c1ccc(NC(=O)c2ccccc2Sc2ccccn2)cc1

>  <Energy>  (91) 
46.80995563683863

>  <Genealogy>  (91) 
[NH-]S(=O)(=O)c1ccc(NC(=O)c2ccccc2Sc2ccccn2)cc1 (protonated)
[NH-]S(=O)(=O)c1ccc(NC(=O)c2ccccc2Sc2ccccn2)cc1 (3D coordinates assigned)
[NH-]S(=O)(=O)c1ccc(NC(=O)c2ccccc2Sc2ccccn2)cc1 (optimized conformer: 46.80995563683863 kcal/mol)

>  <smiles>  (91) 
NS(=O)(=O)c1ccc(NC(=O)c2ccccc2Sc2ccccn2)cc1

>  <score_type>  (91) 
oracle

>  <origin>  (91) 
adg

>  <m_score__min__energy>  (91) 
-12.19

>  <m_primary>  (91) 
energy

$$$$
91:0
     RDKit          3D

 34 36  0  0  0  0  0  0  0  0999 V2000
   56.8915   32.6391   46.8849 H   0  0  0  0  0  0  0  0  0  0  0  0
   57.3300   32.5400   45.8810 C   0  0  0  0  0  0  0  0  0  0  0  0
   56.7150   31.6900   44.9050 N   0  0  0  0  0  0  0  0  0  0  0  0
   57.3120   30.7550   44.2240 C   0  0  0  0  0  0  0  0  0  0  0  0
   57.6069   30.9754   43.1874 H   0  0  0  0  0  0  0  0  0  0  0  0
   57.6160   29.4130   44.7660 C   0  0  0  0  0  0  0  0  0  0  0  0
   56.5700   28.5540   45.1330 C   0  0  0  0  0  0  0  0  0  0  0  0
   55.2480   28.9780   45.0190 O   0  0  0  0  0  0  0  0  0  0  0  0
   56.8670   27.2740   45.6260 C   0  0  0  0  0  0  0  0  0  0  0  0
   55.8620   26.3770   46.0260 C   0  0  0  0  0  0  0  0  0  0  0  0
   54.8038   26.6689   45.9553 H   0  0  0  0  0  0  0  0  0  0  0  0
   56.2080   25.1130   46.5140 C   0  0  0  0  0  0  0  0  0  0  0  0
   55.4197   24.4129   46.8278 H   0  0  0  0  0  0  0  0  0  0  0  0
   57.5500   24.7350   46.6050 C   0  0  0  0  0  0  0  0  0  0  0  0
   57.8152   23.7395   46.9904 H   0  0  0  0  0  0  0  0  0  0  0  0
   58.5560   25.6200   46.2070 C   0  0  0  0  0  0  0  0  0  0  0  0
   59.6115   25.3189   46.2792 H   0  0  0  0  0  0  0  0  0  0  0  0
   58.2240   26.8880   45.7170 C   0  0  0  0  0  0  0  0  0  0  0  0
   59.1860   27.7210   45.3340 O   0  0  0  0  0  0  0  0  0  0  0  0
   58.9390   28.9390   44.8630 C   0  0  0  0  0  0  0  0  0  0  0  0
   59.9050   29.6580   44.4920 O   0  0  0  0  0  0  0  0  0  0  0  0
   58.4400   33.2110   45.5620 C   0  0  0  0  0  0  0  0  0  0  0  0
   58.3778   33.9582   44.7571 H   0  0  0  0  0  0  0  0  0  0  0  0
   59.7520   33.0110   46.2260 C   0  0  0  0  0  0  0  0  0  0  0  0
   60.0530   31.7420   46.7500 C   0  0  0  0  0  0  0  0  0  0  0  0
   59.3172   30.9288   46.6651 H   0  0  0  0  0  0  0  0  0  0  0  0
   61.2790   31.5040   47.3780 C   0  0  0  0  0  0  0  0  0  0  0  0
   61.5001   30.5090   47.7916 H   0  0  0  0  0  0  0  0  0  0  0  0
   62.2230   32.5270   47.4810 C   0  0  0  0  0  0  0  0  0  0  0  0
   63.1855   32.3394   47.9794 H   0  0  0  0  0  0  0  0  0  0  0  0
   61.9450   33.7890   46.9510 C   0  0  0  0  0  0  0  0  0  0  0  0
   62.6918   34.5930   47.0279 H   0  0  0  0  0  0  0  0  0  0  0  0
   60.7200   34.0330   46.3230 C   0  0  0  0  0  0  0  0  0  0  0  0
   60.5096   35.0273   45.9021 H   0  0  0  0  0  0  0  0  0  0  0  0
  1  2  1  0
  2  3  1  0
  3  4  2  0
  4  5  1  0
  4  6  1  0
  6  7  2  0
  7  8  1  0
  7  9  1  0
  9 10  2  0
 10 11  1  0
 10 12  1  0
 12 13  1  0
 12 14  2  0
 14 15  1  0
 14 16  1  0
 16 17  1  0
 16 18  2  0
 18 19  1  0
 19 20  1  0
 20 21  2  0
  2 22  2  0
 22 23  1  0
 22 24  1  0
 24 25  2  0
 25 26  1  0
 25 27  1  0
 27 28  1  0
 27 29  2  0
 29 30  1  0
 29 31  1  0
 31 32  1  0
 31 33  2  0
 33 34  1  0
 20  6  1  0
 33 24  1  0
 18  9  1  0
M  CHG  1   8  -1
M  END
>  <UniqueID>  (92) 
83

>  <SMILES>  (92) 
O=c1oc2ccccc2c([O-])c1/C=N\C=Cc1ccccc1

>  <Energy>  (92) 
51.70984957456908

>  <Genealogy>  (92) 
O=c1oc2ccccc2c([O-])c1C=NC=Cc1ccccc1 (protonated)
O=c1oc2ccccc2c([O-])c1/C=N\C=Cc1ccccc1 (cis-trans isomerization)
O=c1oc2ccccc2c([O-])c1/C=N\C=Cc1ccccc1 (3D coordinates assigned)
O=c1oc2ccccc2c([O-])c1/C=N\C=Cc1ccccc1 (optimized conformer: 51.70984957456908 kcal/mol)

>  <smiles>  (92) 
O=c1oc2ccccc2c(O)c1C=NC=Cc1ccccc1

>  <score_type>  (92) 
oracle

>  <origin>  (92) 
adg

>  <m_score__min__energy>  (92) 
-10.73

>  <m_primary>  (92) 
energy

$$$$
92:0
     RDKit          3D

 54 57  0  0  0  0  0  0  0  0999 V2000
   61.5268   25.7550   45.9676 H   0  0  0  0  0  0  0  0  0  0  0  0
   60.9800   26.3460   46.7170 C   0  0  0  0  0  0  0  0  0  0  0  0
   61.4680   26.5790   47.9650 N   0  0  0  0  0  0  0  0  0  0  0  0
   60.6090   27.3070   48.7120 C   0  0  0  0  0  0  0  0  0  0  0  0
   60.8720   27.6160   49.9480 N   0  0  0  0  0  0  0  0  0  0  0  0
   60.9530   28.9240   50.5410 C   0  0  0  0  0  0  0  0  0  0  0  0
   60.5450   29.0700   51.7240 O   0  0  0  0  0  0  0  0  0  0  0  0
   61.4330   30.1470   49.7940 C   0  0  0  0  0  0  0  0  0  0  0  0
   61.4782   30.9897   50.4996 H   0  0  0  0  0  0  0  0  0  0  0  0
   62.4185   29.9003   49.3721 H   0  0  0  0  0  0  0  0  0  0  0  0
   60.5420   30.5400   48.6370 C   0  0  0  0  0  0  0  0  0  0  0  0
   60.9190   30.2840   47.3080 C   0  0  0  0  0  0  0  0  0  0  0  0
   61.8792   29.7903   47.0974 H   0  0  0  0  0  0  0  0  0  0  0  0
   60.0810   30.6530   46.2520 C   0  0  0  0  0  0  0  0  0  0  0  0
   60.3982   30.4770   45.2135 H   0  0  0  0  0  0  0  0  0  0  0  0
   58.8390   31.2460   46.5110 C   0  0  0  0  0  0  0  0  0  0  0  0
   57.7590   31.6260   45.1730 S   0  0  0  0  0  0  0  0  0  0  0  0
   58.5150   31.6340   43.8730 O   0  0  0  0  0  0  0  0  0  0  0  0
   56.6920   30.5710   45.1020 O   0  0  0  0  0  0  0  0  0  0  0  0
   57.0110   33.1790   45.4270 N   0  0  0  0  0  0  0  0  0  0  0  0
   57.9520   34.2760   45.1820 C   0  0  0  0  0  0  0  0  0  0  0  0
   58.3389   34.1949   44.1555 H   0  0  0  0  0  0  0  0  0  0  0  0
   57.4211   35.2294   45.3208 H   0  0  0  0  0  0  0  0  0  0  0  0
   59.1060   34.2260   46.1480 C   0  0  0  0  0  0  0  0  0  0  0  0
   60.3850   33.8570   45.6990 C   0  0  0  0  0  0  0  0  0  0  0  0
   60.5341   33.5640   44.6493 H   0  0  0  0  0  0  0  0  0  0  0  0
   61.4700   33.8610   46.5830 C   0  0  0  0  0  0  0  0  0  0  0  0
   62.4712   33.5789   46.2251 H   0  0  0  0  0  0  0  0  0  0  0  0
   61.2830   34.2230   47.9200 C   0  0  0  0  0  0  0  0  0  0  0  0
   62.1382   34.2322   48.6118 H   0  0  0  0  0  0  0  0  0  0  0  0
   60.0110   34.5730   48.3780 C   0  0  0  0  0  0  0  0  0  0  0  0
   59.8642   34.8515   49.4320 H   0  0  0  0  0  0  0  0  0  0  0  0
   58.9240   34.5700   47.4990 C   0  0  0  0  0  0  0  0  0  0  0  0
   57.9222   34.8379   47.8659 H   0  0  0  0  0  0  0  0  0  0  0  0
   58.4440   31.4760   47.8350 C   0  0  0  0  0  0  0  0  0  0  0  0
   57.4686   31.9395   48.0442 H   0  0  0  0  0  0  0  0  0  0  0  0
   59.2860   31.1180   48.8900 C   0  0  0  0  0  0  0  0  0  0  0  0
   58.9636   31.2898   49.9276 H   0  0  0  0  0  0  0  0  0  0  0  0
   59.2260   27.7280   47.8420 S   0  0  0  0  0  0  0  0  0  0  0  0
   59.7360   26.9130   46.4620 C   0  0  0  0  0  0  0  0  0  0  0  0
   58.9010   26.6850   45.2430 C   0  0  0  0  0  0  0  0  0  0  0  0
   58.5863   27.6543   44.8289 H   0  0  0  0  0  0  0  0  0  0  0  0
   59.4920   26.1374   44.4941 H   0  0  0  0  0  0  0  0  0  0  0  0
   57.6840   25.8770   45.6050 C   0  0  0  0  0  0  0  0  0  0  0  0
   57.7900   24.4940   45.8330 C   0  0  0  0  0  0  0  0  0  0  0  0
   58.7728   24.0032   45.7758 H   0  0  0  0  0  0  0  0  0  0  0  0
   56.6520   23.7400   46.1320 C   0  0  0  0  0  0  0  0  0  0  0  0
   56.7426   22.6602   46.3212 H   0  0  0  0  0  0  0  0  0  0  0  0
   55.3990   24.3560   46.1910 C   0  0  0  0  0  0  0  0  0  0  0  0
   54.5051   23.7610   46.4297 H   0  0  0  0  0  0  0  0  0  0  0  0
   55.2800   25.7280   45.9470 C   0  0  0  0  0  0  0  0  0  0  0  0
   54.0320   26.3360   45.9930 O   0  0  0  0  0  0  0  0  0  0  0  0
   56.4190   26.4870   45.6550 C   0  0  0  0  0  0  0  0  0  0  0  0
   56.3236   27.5660   45.4637 H   0  0  0  0  0  0  0  0  0  0  0  0
  1  2  1  0
  2  3  1  0
  3  4  1  0
  4  5  2  0
  5  6  1  0
  6  7  2  0
  6  8  1  0
  8  9  1  0
  8 10  1  0
  8 11  1  0
 11 12  2  0
 12 13  1  0
 12 14  1  0
 14 15  1  0
 14 16  2  0
 16 17  1  0
 17 18  2  0
 17 19  2  0
 17 20  1  0
 20 21  1  0
 21 22  1  0
 21 23  1  0
 21 24  1  0
 24 25  2  0
 25 26  1  0
 25 27  1  0
 27 28  1  0
 27 29  2  0
 29 30  1  0
 29 31  1  0
 31 32  1  0
 31 33  2  0
 33 34  1  0
 16 35  1  0
 35 36  1  0
 35 37  2  0
 37 38  1  0
  4 39  1  0
 39 40  1  0
 40 41  1  0
 41 42  1  0
 41 43  1  0
 41 44  1  0
 44 45  2  0
 45 46  1  0
 45 47  1  0
 47 48  1  0
 47 49  2  0
 49 50  1  0
 49 51  1  0
 51 52  1  0
 51 53  2  0
 53 54  1  0
 40  2  2  0
 53 44  1  0
 37 11  1  0
 33 24  1  0
M  CHG  3   3  -1  20  -1  52  -1
M  END
>  <UniqueID>  (93) 
84

>  <SMILES>  (93) 
O=C(Cc1ccc(S(=O)(=O)[N-]Cc2ccccc2)cc1)/N=c1/[n-]cc(Cc2cccc([O-])c2)s1

>  <Energy>  (93) 
85.00007345546949

>  <Genealogy>  (93) 
O=C(Cc1ccc(S(=O)(=O)[N-]Cc2ccccc2)cc1)N=c1[n-]cc(Cc2cccc([O-])c2)s1 (protonated)
O=C(Cc1ccc(S(=O)(=O)[N-]Cc2ccccc2)cc1)/N=c1/[n-]cc(Cc2cccc([O-])c2)s1 (cis-trans isomerization)
O=C(Cc1ccc(S(=O)(=O)[N-]Cc2ccccc2)cc1)/N=c1/[n-]cc(Cc2cccc([O-])c2)s1 (3D coordinates assigned)
O=C(Cc1ccc(S(=O)(=O)[N-]Cc2ccccc2)cc1)/N=c1/[n-]cc(Cc2cccc([O-])c2)s1 (optimized conformer: 85.00007345546949 kcal/mol)

>  <smiles>  (93) 
O=C(Cc1ccc(S(=O)(=O)NCc2ccccc2)cc1)N=c1[nH]cc(Cc2cccc(O)c2)s1

>  <score_type>  (93) 
oracle

>  <origin>  (93) 
adg

>  <m_score__min__energy>  (93) 
-16.289999999999999

>  <m_primary>  (93) 
energy

$$$$
93:0
     RDKit          3D

 62 66  0  0  0  0  0  0  0  0999 V2000
   59.6640   35.3520   46.4600 C   0  0  0  0  0  0  0  0  0  0  0  0
   59.7890   34.2530   47.3570 O   0  0  0  0  0  0  0  0  0  0  0  0
   59.9130   32.9130   46.9590 C   0  0  0  0  0  0  0  0  0  0  0  0
   58.8390   32.1960   46.4020 C   0  0  0  0  0  0  0  0  0  0  0  0
   58.9880   30.8540   46.0290 C   0  0  0  0  0  0  0  0  0  0  0  0
   60.2260   30.2110   46.2310 C   0  0  0  0  0  0  0  0  0  0  0  0
   61.3050   30.9320   46.7580 C   0  0  0  0  0  0  0  0  0  0  0  0
   61.1530   32.2800   47.1320 C   0  0  0  0  0  0  0  0  0  0  0  0
   62.2080   33.0230   47.6860 O   0  0  0  0  0  0  0  0  0  0  0  0
   63.2180   33.6810   46.9280 C   0  0  0  0  0  0  0  0  0  0  0  0
   60.4120   28.7580   45.8640 C   0  0  0  0  0  0  0  0  0  0  0  0
   59.1360   28.0170   45.8560 N   0  0  0  0  0  0  0  0  0  0  0  0
   58.6760   27.5010   47.1700 C   0  0  0  0  0  0  0  0  0  0  0  0
   59.1560   28.3010   48.3510 C   0  0  0  0  0  0  0  0  0  0  0  0
   60.2930   28.0410   49.0950 C   0  0  0  0  0  0  0  0  0  0  0  0
   60.3740   29.0550   50.0250 C   0  0  0  0  0  0  0  0  0  0  0  0
   59.2790   29.8640   49.7910 C   0  0  0  0  0  0  0  0  0  0  0  0
   58.9230   31.1020   50.5460 C   0  0  0  0  0  0  0  0  0  0  0  0
   57.5850   30.9740   51.1150 N   0  0  0  0  0  0  0  0  0  0  0  0
   57.2430   29.9220   52.0350 C   0  0  0  0  0  0  0  0  0  0  0  0
   58.1010   29.0420   52.3200 O   0  0  0  0  0  0  0  0  0  0  0  0
   55.8920   29.8420   52.6430 C   0  0  0  0  0  0  0  0  0  0  0  0
   55.6780   29.0190   53.7610 C   0  0  0  0  0  0  0  0  0  0  0  0
   54.4150   28.9350   54.3470 C   0  0  0  0  0  0  0  0  0  0  0  0
   53.3500   29.6720   53.8290 C   0  0  0  0  0  0  0  0  0  0  0  0
   53.5360   30.5140   52.7180 C   0  0  0  0  0  0  0  0  0  0  0  0
   52.4020   31.3050   52.1700 C   0  0  0  0  0  0  0  0  0  0  0  0
   51.3890   31.9350   52.8710 C   0  0  0  0  0  0  0  0  0  0  0  0
   50.5670   32.5520   52.0020 N   0  0  0  0  0  0  0  0  0  0  0  0
   51.0130   32.3390   50.7740 N   0  0  0  0  0  0  0  0  0  0  0  0
   52.1270   31.5870   50.8450 C   0  0  0  0  0  0  0  0  0  0  0  0
   54.8160   30.5960   52.1360 C   0  0  0  0  0  0  0  0  0  0  0  0
   58.5660   29.3840   48.7990 O   0  0  0  0  0  0  0  0  0  0  0  0
   58.1060   28.6820   45.0370 C   0  0  0  0  0  0  0  0  0  0  0  0
   57.7820   30.1020   45.5220 C   0  0  0  0  0  0  0  0  0  0  0  0
   59.5580   36.2840   47.0346 H   0  0  0  0  0  0  0  0  0  0  0  0
   60.5611   35.4119   45.8263 H   0  0  0  0  0  0  0  0  0  0  0  0
   58.7763   35.2089   45.8263 H   0  0  0  0  0  0  0  0  0  0  0  0
   57.8696   32.6954   46.2574 H   0  0  0  0  0  0  0  0  0  0  0  0
   62.2809   30.4396   46.8807 H   0  0  0  0  0  0  0  0  0  0  0  0
   63.9406   34.1518   47.6108 H   0  0  0  0  0  0  0  0  0  0  0  0
   63.7371   32.9472   46.2938 H   0  0  0  0  0  0  0  0  0  0  0  0
   62.7565   34.4523   46.2938 H   0  0  0  0  0  0  0  0  0  0  0  0
   60.8612   28.7006   44.8615 H   0  0  0  0  0  0  0  0  0  0  0  0
   61.0640   28.2992   46.6219 H   0  0  0  0  0  0  0  0  0  0  0  0
   57.5760   27.5042   47.1756 H   0  0  0  0  0  0  0  0  0  0  0  0
   59.1006   26.4921   47.2789 H   0  0  0  0  0  0  0  0  0  0  0  0
   60.9891   27.1985   48.9701 H   0  0  0  0  0  0  0  0  0  0  0  0
   61.1491   29.1916   50.7935 H   0  0  0  0  0  0  0  0  0  0  0  0
   59.6502   31.2556   51.3569 H   0  0  0  0  0  0  0  0  0  0  0  0
   58.9420   31.9610   49.8592 H   0  0  0  0  0  0  0  0  0  0  0  0
   56.8440   31.6130   50.7520 H   0  0  0  0  0  0  0  0  0  0  0  0
   56.5128   28.4363   54.1776 H   0  0  0  0  0  0  0  0  0  0  0  0
   54.2583   28.2853   55.2207 H   0  0  0  0  0  0  0  0  0  0  0  0
   52.3560   29.5939   54.2935 H   0  0  0  0  0  0  0  0  0  0  0  0
   51.2737   31.9321   53.9649 H   0  0  0  0  0  0  0  0  0  0  0  0
   52.7241   31.2501   49.9848 H   0  0  0  0  0  0  0  0  0  0  0  0
   54.9776   31.2586   51.2729 H   0  0  0  0  0  0  0  0  0  0  0  0
   58.4658   28.7392   43.9991 H   0  0  0  0  0  0  0  0  0  0  0  0
   57.1844   28.0870   45.1186 H   0  0  0  0  0  0  0  0  0  0  0  0
   57.3472   30.6657   44.6835 H   0  0  0  0  0  0  0  0  0  0  0  0
   57.0830   30.0044   46.3657 H   0  0  0  0  0  0  0  0  0  0  0  0
  1  2  1  0
  2  3  1  0
  3  4  2  0
  4  5  1  0
  5  6  2  0
  6  7  1  0
  7  8  2  0
  8  9  1  0
  9 10  1  0
  6 11  1  0
 11 12  1  0
 12 13  1  0
 13 14  1  0
 14 15  2  0
 15 16  1  0
 16 17  2  0
 17 18  1  0
 18 19  1  0
 19 20  1  0
 20 21  2  0
 20 22  1  0
 22 23  2  0
 23 24  1  0
 24 25  2  0
 25 26  1  0
 26 27  1  0
 27 28  1  0
 28 29  2  0
 29 30  1  0
 30 31  1  0
 26 32  2  0
 17 33  1  0
 12 34  1  0
 34 35  1  0
  8  3  1  0
 33 14  1  0
 35  5  1  0
 32 22  1  0
 31 27  2  0
  1 36  1  0
  1 37  1  0
  1 38  1  0
  4 39  1  0
  7 40  1  0
 10 41  1  0
 10 42  1  0
 10 43  1  0
 11 44  1  0
 11 45  1  0
 13 46  1  0
 13 47  1  0
 15 48  1  0
 16 49  1  0
 18 50  1  0
 18 51  1  0
 19 52  1  0
 23 53  1  0
 24 54  1  0
 25 55  1  0
 28 56  1  0
 31 57  1  0
 32 58  1  0
 34 59  1  0
 34 60  1  0
 35 61  1  0
 35 62  1  0
M  CHG  1  30  -1
M  END
>  <UniqueID>  (94) 
85

>  <SMILES>  (94) 
COc1cc2c(cc1OC)CN(Cc1ccc(CNC(=O)c3cccc(-c4cn[n-]c4)c3)o1)CC2

>  <Energy>  (94) 
130.65268585297096

>  <Genealogy>  (94) 
COc1cc2c(cc1OC)CN(Cc1ccc(CNC(=O)c3cccc(-c4cn[n-]c4)c3)o1)CC2 (protonated)
COc1cc2c(cc1OC)CN(Cc1ccc(CNC(=O)c3cccc(-c4cn[n-]c4)c3)o1)CC2 (3D coordinates assigned)
COc1cc2c(cc1OC)CN(Cc1ccc(CNC(=O)c3cccc(-c4cn[n-]c4)c3)o1)CC2 (nonaromatic ring conformer: 130.65268585297096 kcal/mol)

>  <smiles>  (94) 
COc1cc2c(cc1OC)CN(Cc1ccc(CNC(=O)c3cccc(-c4cn[nH]c4)c3)o1)CC2

>  <score_type>  (94) 
oracle

>  <origin>  (94) 
adg

>  <m_score__min__energy>  (94) 
-12.800000000000001

>  <m_primary>  (94) 
energy

$$$$
94:0
     RDKit          3D

 49 51  0  0  0  0  0  0  0  0999 V2000
   58.1080   26.6610   42.8470 N   0  0  0  0  0  0  0  0  0  0  0  0
   58.1460   26.7840   43.9980 C   0  0  0  0  0  0  0  0  0  0  0  0
   58.1940   26.9330   45.4330 C   0  0  0  0  0  0  0  0  0  0  0  0
   57.4980   27.8880   46.0720 C   0  0  0  0  0  0  0  0  0  0  0  0
   57.4010   29.2950   45.6130 C   0  0  0  0  0  0  0  0  0  0  0  0
   56.2470   29.7840   44.9890 C   0  0  0  0  0  0  0  0  0  0  0  0
   55.1460   28.9640   44.7760 O   0  0  0  0  0  0  0  0  0  0  0  0
   56.1870   31.0820   44.6100 N   0  0  0  0  0  0  0  0  0  0  0  0
   57.2140   31.9400   44.8360 C   0  0  0  0  0  0  0  0  0  0  0  0
   57.0990   33.1380   44.4620 O   0  0  0  0  0  0  0  0  0  0  0  0
   58.3510   31.5080   45.4730 N   0  0  0  0  0  0  0  0  0  0  0  0
   59.4370   32.4650   45.7720 C   0  0  0  0  0  0  0  0  0  0  0  0
   59.4270   32.8760   47.2510 C   0  0  0  0  0  0  0  0  0  0  0  0
   60.8100   33.2160   47.7430 C   0  0  0  0  0  0  0  0  0  0  0  0
   61.9410   32.7460   47.0550 C   0  0  0  0  0  0  0  0  0  0  0  0
   63.2240   33.0120   47.5440 C   0  0  0  0  0  0  0  0  0  0  0  0
   63.3860   33.7420   48.7240 C   0  0  0  0  0  0  0  0  0  0  0  0
   62.2650   34.2080   49.4180 C   0  0  0  0  0  0  0  0  0  0  0  0
   60.9820   33.9460   48.9310 C   0  0  0  0  0  0  0  0  0  0  0  0
   58.4470   30.1960   45.8730 C   0  0  0  0  0  0  0  0  0  0  0  0
   59.4770   29.7870   46.4790 O   0  0  0  0  0  0  0  0  0  0  0  0
   59.0530   26.0090   46.1950 C   0  0  0  0  0  0  0  0  0  0  0  0
   60.3000   26.0610   46.0300 O   0  0  0  0  0  0  0  0  0  0  0  0
   58.5170   25.0700   47.1360 N   0  0  0  0  0  0  0  0  0  0  0  0
   57.1400   24.5780   47.1460 C   0  0  0  0  0  0  0  0  0  0  0  0
   56.8190   23.8900   45.8470 C   0  0  0  0  0  0  0  0  0  0  0  0
   55.6370   24.1890   45.1500 C   0  0  0  0  0  0  0  0  0  0  0  0
   55.3310   23.5230   43.9600 C   0  0  0  0  0  0  0  0  0  0  0  0
   56.2020   22.5530   43.4530 C   0  0  0  0  0  0  0  0  0  0  0  0
   55.8860   21.8970   42.2660 O   0  0  0  0  0  0  0  0  0  0  0  0
   57.3840   22.2510   44.1430 C   0  0  0  0  0  0  0  0  0  0  0  0
   57.6900   22.9150   45.3350 C   0  0  0  0  0  0  0  0  0  0  0  0
   56.9665   27.6088   46.9938 H   0  0  0  0  0  0  0  0  0  0  0  0
   60.4034   31.9950   45.5373 H   0  0  0  0  0  0  0  0  0  0  0  0
   59.2837   33.3662   45.1602 H   0  0  0  0  0  0  0  0  0  0  0  0
   58.7788   33.7564   47.3722 H   0  0  0  0  0  0  0  0  0  0  0  0
   59.0517   32.0268   47.8409 H   0  0  0  0  0  0  0  0  0  0  0  0
   61.8171   32.1666   46.1282 H   0  0  0  0  0  0  0  0  0  0  0  0
   64.1065   32.6460   46.9989 H   0  0  0  0  0  0  0  0  0  0  0  0
   64.3958   33.9503   49.1074 H   0  0  0  0  0  0  0  0  0  0  0  0
   62.3934   34.7812   50.3480 H   0  0  0  0  0  0  0  0  0  0  0  0
   60.1024   34.3130   49.4803 H   0  0  0  0  0  0  0  0  0  0  0  0
   57.0161   23.8647   47.9741 H   0  0  0  0  0  0  0  0  0  0  0  0
   56.4575   25.4308   47.2761 H   0  0  0  0  0  0  0  0  0  0  0  0
   54.9483   24.9515   45.5428 H   0  0  0  0  0  0  0  0  0  0  0  0
   54.4027   23.7623   43.4206 H   0  0  0  0  0  0  0  0  0  0  0  0
   56.2900   22.1770   41.3810 H   0  0  0  0  0  0  0  0  0  0  0  0
   58.0723   21.4902   43.7461 H   0  0  0  0  0  0  0  0  0  0  0  0
   58.6176   22.6723   45.8742 H   0  0  0  0  0  0  0  0  0  0  0  0
  1  2  3  0
  2  3  1  0
  3  4  2  3
  4  5  1  0
  5  6  2  0
  6  7  1  0
  6  8  1  0
  8  9  1  0
  9 10  2  0
  9 11  1  0
 11 12  1  0
 12 13  1  0
 13 14  1  0
 14 15  2  0
 15 16  1  0
 16 17  2  0
 17 18  1  0
 18 19  2  0
 11 20  1  0
 20 21  2  0
  3 22  1  0
 22 23  2  0
 22 24  1  0
 24 25  1  0
 25 26  1  0
 26 27  2  0
 27 28  1  0
 28 29  2  0
 29 30  1  0
 29 31  1  0
 31 32  2  0
 20  5  1  0
 32 26  1  0
 19 14  1  0
  4 33  1  0
 12 34  1  0
 12 35  1  0
 13 36  1  0
 13 37  1  0
 15 38  1  0
 16 39  1  0
 17 40  1  0
 18 41  1  0
 19 42  1  0
 25 43  1  0
 25 44  1  0
 27 45  1  0
 28 46  1  0
 30 47  1  0
 31 48  1  0
 32 49  1  0
M  CHG  3   7  -1   8  -1  24  -1
M  END
>  <UniqueID>  (95) 
86

>  <SMILES>  (95) 
N#CC(=Cc1c([O-])[n-]c(=O)n(CCc2ccccc2)c1=O)C(=O)[N-]Cc1ccc(O)cc1

>  <Energy>  (95) 
61.05666890679271

>  <Genealogy>  (95) 
N#CC(=Cc1c([O-])[n-]c(=O)n(CCc2ccccc2)c1=O)C(=O)[N-]Cc1ccc(O)cc1 (protonated)
N#CC(=Cc1c([O-])[n-]c(=O)n(CCc2ccccc2)c1=O)C(=O)[N-]Cc1ccc(O)cc1 (3D coordinates assigned)
N#CC(=Cc1c([O-])[n-]c(=O)n(CCc2ccccc2)c1=O)C(=O)[N-]Cc1ccc(O)cc1 (optimized conformer: 61.05666890679271 kcal/mol)

>  <smiles>  (95) 
N#CC(=Cc1c(O)[nH]c(=O)n(CCc2ccccc2)c1=O)C(=O)NCc1ccc(O)cc1

>  <score_type>  (95) 
oracle

>  <origin>  (95) 
adg

>  <m_score__min__energy>  (95) 
-15.300000000000001

>  <m_primary>  (95) 
energy

$$$$
95:0
     RDKit          3D

 44 46  0  0  0  0  0  0  0  0999 V2000
   62.4240   32.7510   47.1600 C   0  0  0  0  0  0  0  0  0  0  0  0
   61.4480   31.7120   47.6230 C   0  0  0  0  0  0  0  0  0  0  0  0
   60.7220   31.8980   48.8080 C   0  0  0  0  0  0  0  0  0  0  0  0
   59.7880   30.9430   49.2190 C   0  0  0  0  0  0  0  0  0  0  0  0
   59.5660   29.8020   48.4450 C   0  0  0  0  0  0  0  0  0  0  0  0
   60.2810   29.6020   47.2530 C   0  0  0  0  0  0  0  0  0  0  0  0
   60.0260   28.3780   46.4080 C   0  0  0  0  0  0  0  0  0  0  0  0
   58.5720   28.2380   46.0220 C   0  0  0  0  0  0  0  0  0  0  0  0
   57.9920   29.2630   45.3410 N   0  0  0  0  0  0  0  0  0  0  0  0
   56.6920   29.2180   44.9600 C   0  0  0  0  0  0  0  0  0  0  0  0
   55.9510   30.6200   44.1270 S   0  0  0  0  0  0  0  0  0  0  0  0
   57.5390   31.3760   43.6360 C   0  0  0  0  0  0  0  0  0  0  0  0
   57.9780   32.3970   44.6490 C   0  0  0  0  0  0  0  0  0  0  0  0
   57.7370   32.1950   46.0170 C   0  0  0  0  0  0  0  0  0  0  0  0
   58.1560   33.1460   46.9540 C   0  0  0  0  0  0  0  0  0  0  0  0
   58.8100   34.3100   46.5320 C   0  0  0  0  0  0  0  0  0  0  0  0
   59.2260   35.2660   47.4570 O   0  0  0  0  0  0  0  0  0  0  0  0
   59.0510   34.5160   45.1700 C   0  0  0  0  0  0  0  0  0  0  0  0
   58.6400   33.5640   44.2320 C   0  0  0  0  0  0  0  0  0  0  0  0
   55.9370   28.1300   45.2490 N   0  0  0  0  0  0  0  0  0  0  0  0
   56.4550   27.0750   45.9250 C   0  0  0  0  0  0  0  0  0  0  0  0
   55.7210   26.0780   46.1580 O   0  0  0  0  0  0  0  0  0  0  0  0
   57.7940   27.1040   46.3640 C   0  0  0  0  0  0  0  0  0  0  0  0
   58.3790   25.9340   47.1190 C   0  0  0  0  0  0  0  0  0  0  0  0
   61.2060   30.5740   46.8380 C   0  0  0  0  0  0  0  0  0  0  0  0
   62.8821   33.2387   48.0331 H   0  0  0  0  0  0  0  0  0  0  0  0
   63.2077   32.2735   46.5535 H   0  0  0  0  0  0  0  0  0  0  0  0
   61.8985   33.5034   46.5535 H   0  0  0  0  0  0  0  0  0  0  0  0
   60.8882   32.7991   49.4166 H   0  0  0  0  0  0  0  0  0  0  0  0
   59.2269   31.0903   50.1536 H   0  0  0  0  0  0  0  0  0  0  0  0
   58.8267   29.0555   48.7710 H   0  0  0  0  0  0  0  0  0  0  0  0
   60.6297   28.4495   45.4912 H   0  0  0  0  0  0  0  0  0  0  0  0
   60.3015   27.4954   47.0039 H   0  0  0  0  0  0  0  0  0  0  0  0
   58.3049   30.5901   43.5604 H   0  0  0  0  0  0  0  0  0  0  0  0
   57.4073   31.8756   42.6649 H   0  0  0  0  0  0  0  0  0  0  0  0
   57.2170   31.2860   46.3536 H   0  0  0  0  0  0  0  0  0  0  0  0
   57.9711   32.9787   48.0254 H   0  0  0  0  0  0  0  0  0  0  0  0
   58.8110   36.1910   47.4850 H   0  0  0  0  0  0  0  0  0  0  0  0
   59.5652   35.4292   44.8358 H   0  0  0  0  0  0  0  0  0  0  0  0
   58.8359   33.7295   43.1623 H   0  0  0  0  0  0  0  0  0  0  0  0
   58.2892   26.1137   48.2005 H   0  0  0  0  0  0  0  0  0  0  0  0
   57.8336   25.0164   46.8532 H   0  0  0  0  0  0  0  0  0  0  0  0
   59.4403   25.8198   46.8532 H   0  0  0  0  0  0  0  0  0  0  0  0
   61.7459   30.4421   45.8887 H   0  0  0  0  0  0  0  0  0  0  0  0
  1  2  1  0
  2  3  2  0
  3  4  1  0
  4  5  2  0
  5  6  1  0
  6  7  1  0
  7  8  1  0
  8  9  1  0
  9 10  1  0
 10 11  1  0
 11 12  1  0
 12 13  1  0
 13 14  2  0
 14 15  1  0
 15 16  2  0
 16 17  1  0
 16 18  1  0
 18 19  2  0
 10 20  2  0
 20 21  1  0
 21 22  2  0
 21 23  1  0
 23 24  1  0
  6 25  2  0
 25  2  1  0
 23  8  2  0
 19 13  1  0
  1 26  1  0
  1 27  1  0
  1 28  1  0
  3 29  1  0
  4 30  1  0
  5 31  1  0
  7 32  1  0
  7 33  1  0
 12 34  1  0
 12 35  1  0
 14 36  1  0
 15 37  1  0
 17 38  1  0
 18 39  1  0
 19 40  1  0
 24 41  1  0
 24 42  1  0
 24 43  1  0
 25 44  1  0
M  CHG  1   9  -1
M  END
>  <UniqueID>  (96) 
87

>  <SMILES>  (96) 
Cc1cccc(Cc2[n-]c(SCc3ccc(O)cc3)nc(=O)c2C)c1

>  <Energy>  (96) 
40.70883846254755

>  <Genealogy>  (96) 
Cc1cccc(Cc2[n-]c(SCc3ccc(O)cc3)nc(=O)c2C)c1 (protonated)
Cc1cccc(Cc2[n-]c(SCc3ccc(O)cc3)nc(=O)c2C)c1 (3D coordinates assigned)
Cc1cccc(Cc2[n-]c(SCc3ccc(O)cc3)nc(=O)c2C)c1 (optimized conformer: 40.70883846254755 kcal/mol)

>  <smiles>  (96) 
Cc1cccc(Cc2[nH]c(SCc3ccc(O)cc3)nc(=O)c2C)c1

>  <score_type>  (96) 
oracle

>  <origin>  (96) 
adg

>  <m_score__min__energy>  (96) 
-9.7799999999999994

>  <m_primary>  (96) 
energy

$$$$
