0:0
     RDKit          3D

 47 49  0  0  0  0  0  0  0  0999 V2000
   61.0280   33.7380   47.7210 C   0  0  0  0  0  0  0  0  0  0  0  0
   59.7490   33.8040   46.9290 C   0  0  0  0  0  0  0  0  0  0  0  0
   59.7210   34.5440   45.7330 C   0  0  0  0  0  0  0  0  0  0  0  0
   58.5490   34.6290   44.9780 C   0  0  0  0  0  0  0  0  0  0  0  0
   57.3930   33.9780   45.4060 C   0  0  0  0  0  0  0  0  0  0  0  0
   57.4050   33.2320   46.5860 C   0  0  0  0  0  0  0  0  0  0  0  0
   58.5790   33.1210   47.3510 C   0  0  0  0  0  0  0  0  0  0  0  0
   58.5410   32.3240   48.6300 C   0  0  0  0  0  0  0  0  0  0  0  0
   59.0240   33.1480   49.7310 N   0  0  0  0  0  0  0  0  0  0  0  0
   58.6280   32.9670   51.0940 C   0  0  0  0  0  0  0  0  0  0  0  0
   58.5010   33.9760   51.8360 O   0  0  0  0  0  0  0  0  0  0  0  0
   58.3400   31.6270   51.6430 C   0  0  0  0  0  0  0  0  0  0  0  0
   59.1070   30.5090   51.2820 C   0  0  0  0  0  0  0  0  0  0  0  0
   60.1950   30.6080   50.4130 O   0  0  0  0  0  0  0  0  0  0  0  0
   58.8030   29.2960   51.8020 N   0  0  0  0  0  0  0  0  0  0  0  0
   57.7740   29.1260   52.6700 C   0  0  0  0  0  0  0  0  0  0  0  0
   57.5500   27.9730   53.1290 O   0  0  0  0  0  0  0  0  0  0  0  0
   57.0000   30.1950   53.0460 N   0  0  0  0  0  0  0  0  0  0  0  0
   55.9010   30.0110   54.0140 C   0  0  0  0  0  0  0  0  0  0  0  0
   54.7640   29.2040   53.3810 C   0  0  0  0  0  0  0  0  0  0  0  0
   53.6610   30.1150   52.9130 C   0  0  0  0  0  0  0  0  0  0  0  0
   53.7270   30.7110   51.6420 C   0  0  0  0  0  0  0  0  0  0  0  0
   52.7180   31.5840   51.2220 C   0  0  0  0  0  0  0  0  0  0  0  0
   51.6440   31.8750   52.0690 C   0  0  0  0  0  0  0  0  0  0  0  0
   50.6440   32.7430   51.6490 O   0  0  0  0  0  0  0  0  0  0  0  0
   51.5810   31.2960   53.3400 C   0  0  0  0  0  0  0  0  0  0  0  0
   52.5870   30.4230   53.7640 C   0  0  0  0  0  0  0  0  0  0  0  0
   57.2860   31.4440   52.5540 C   0  0  0  0  0  0  0  0  0  0  0  0
   56.5990   32.4430   52.9130 O   0  0  0  0  0  0  0  0  0  0  0  0
   60.7947   33.7500   48.7959 H   0  0  0  0  0  0  0  0  0  0  0  0
   61.5655   32.8109   47.4728 H   0  0  0  0  0  0  0  0  0  0  0  0
   61.6581   34.6048   47.4728 H   0  0  0  0  0  0  0  0  0  0  0  0
   60.6297   35.0600   45.3895 H   0  0  0  0  0  0  0  0  0  0  0  0
   58.5381   35.2105   44.0443 H   0  0  0  0  0  0  0  0  0  0  0  0
   56.4696   34.0522   44.8128 H   0  0  0  0  0  0  0  0  0  0  0  0
   56.4871   32.7263   46.9202 H   0  0  0  0  0  0  0  0  0  0  0  0
   57.5074   32.0081   48.8345 H   0  0  0  0  0  0  0  0  0  0  0  0
   59.1825   31.4363   48.5278 H   0  0  0  0  0  0  0  0  0  0  0  0
   60.3700   31.4290   49.8460 H   0  0  0  0  0  0  0  0  0  0  0  0
   56.2803   29.4734   54.8956 H   0  0  0  0  0  0  0  0  0  0  0  0
   55.5168   30.9981   54.3106 H   0  0  0  0  0  0  0  0  0  0  0  0
   55.1562   28.6407   52.5214 H   0  0  0  0  0  0  0  0  0  0  0  0
   54.3570   28.5148   54.1356 H   0  0  0  0  0  0  0  0  0  0  0  0
   54.5741   30.4905   50.9759 H   0  0  0  0  0  0  0  0  0  0  0  0
   52.7694   32.0425   50.2235 H   0  0  0  0  0  0  0  0  0  0  0  0
   50.7381   31.5279   54.0077 H   0  0  0  0  0  0  0  0  0  0  0  0
   52.5373   29.9757   54.7677 H   0  0  0  0  0  0  0  0  0  0  0  0
  1  2  1  0
  2  3  2  0
  3  4  1  0
  4  5  2  0
  5  6  1  0
  6  7  2  0
  7  8  1  0
  8  9  1  0
  9 10  1  0
 10 11  2  0
 10 12  1  0
 12 13  2  0
 13 14  1  0
 13 15  1  0
 15 16  1  0
 16 17  2  0
 16 18  1  0
 18 19  1  0
 19 20  1  0
 20 21  1  0
 21 22  2  0
 22 23  1  0
 23 24  2  0
 24 25  1  0
 24 26  1  0
 26 27  2  0
 18 28  1  0
 28 29  2  0
  7  2  1  0
 28 12  1  0
 27 21  1  0
  1 30  1  0
  1 31  1  0
  1 32  1  0
  3 33  1  0
  4 34  1  0
  5 35  1  0
  6 36  1  0
  8 37  1  0
  8 38  1  0
 14 39  1  0
 19 40  1  0
 19 41  1  0
 20 42  1  0
 20 43  1  0
 22 44  1  0
 23 45  1  0
 26 46  1  0
 27 47  1  0
M  CHG  3   9  -1  15  -1  25  -1
M  END
>  <UniqueID>  (1) 
1

>  <SMILES>  (1) 
Cc1ccccc1C[N-]C(=O)c1c(O)[n-]c(=O)n(CCc2ccc([O-])cc2)c1=O

>  <Energy>  (1) 
57.451874115618175

>  <Genealogy>  (1) 
Cc1ccccc1C[N-]C(=O)c1c(O)[n-]c(=O)n(CCc2ccc([O-])cc2)c1=O (protonated)
Cc1ccccc1C[N-]C(=O)c1c(O)[n-]c(=O)n(CCc2ccc([O-])cc2)c1=O (3D coordinates assigned)
Cc1ccccc1C[N-]C(=O)c1c(O)[n-]c(=O)n(CCc2ccc([O-])cc2)c1=O (optimized conformer: 57.451874115618175 kcal/mol)

>  <smiles>  (1) 
Cc1ccccc1CNC(=O)c1c(O)[nH]c(=O)n(CCc2ccc(O)cc2)c1=O

>  <score_type>  (1) 
oracle

>  <origin>  (1) 
adg

>  <m_score__min__energy>  (1) 
-13.23

>  <m_primary>  (1) 
energy

$$$$
1:0
     RDKit          3D

 44 46  0  0  0  0  0  0  0  0999 V2000
   56.6930   24.2110   43.7250 C   0  0  0  0  0  0  0  0  0  0  0  0
   57.6870   24.8350   44.7010 C   0  0  0  0  0  0  0  0  0  0  0  0
   57.1550   26.1660   45.2610 C   0  0  0  0  0  0  0  0  0  0  0  0
   58.1700   27.0320   46.0060 C   0  0  0  0  0  0  0  0  0  0  0  0
   58.7890   26.5500   47.1930 C   0  0  0  0  0  0  0  0  0  0  0  0
   59.7210   27.3450   47.8590 C   0  0  0  0  0  0  0  0  0  0  0  0
   60.2930   26.9320   48.9030 O   0  0  0  0  0  0  0  0  0  0  0  0
   59.9960   28.5670   47.3510 N   0  0  0  0  0  0  0  0  0  0  0  0
   60.8560   29.4550   47.8170 N   0  0  0  0  0  0  0  0  0  0  0  0
   60.8160   30.5300   46.9970 C   0  0  0  0  0  0  0  0  0  0  0  0
   61.6360   31.7380   47.1570 C   0  0  0  0  0  0  0  0  0  0  0  0
   61.2720   33.0250   46.8130 C   0  0  0  0  0  0  0  0  0  0  0  0
   62.3500   33.8170   47.1440 C   0  0  0  0  0  0  0  0  0  0  0  0
   63.3020   32.9680   47.6690 C   0  0  0  0  0  0  0  0  0  0  0  0
   62.8480   31.7360   47.6630 O   0  0  0  0  0  0  0  0  0  0  0  0
   59.8930   30.3110   45.9790 C   0  0  0  0  0  0  0  0  0  0  0  0
   59.3980   29.0420   46.2510 C   0  0  0  0  0  0  0  0  0  0  0  0
   58.4640   28.3150   45.5600 N   0  0  0  0  0  0  0  0  0  0  0  0
   57.8400   28.9020   44.3560 C   0  0  0  0  0  0  0  0  0  0  0  0
   56.6130   29.6720   44.7310 C   0  0  0  0  0  0  0  0  0  0  0  0
   55.5130   29.0710   44.8700 O   0  0  0  0  0  0  0  0  0  0  0  0
   56.6950   31.0590   44.8950 O   0  0  0  0  0  0  0  0  0  0  0  0
   57.5290   31.8950   44.0980 C   0  0  0  0  0  0  0  0  0  0  0  0
   57.8010   33.2130   44.8150 C   0  0  0  0  0  0  0  0  0  0  0  0
   55.8926   23.7085   44.2879 H   0  0  0  0  0  0  0  0  0  0  0  0
   56.2575   24.9981   43.0919 H   0  0  0  0  0  0  0  0  0  0  0  0
   57.2126   23.4767   43.0919 H   0  0  0  0  0  0  0  0  0  0  0  0
   57.8577   24.1376   45.5344 H   0  0  0  0  0  0  0  0  0  0  0  0
   58.6259   25.0334   44.1632 H   0  0  0  0  0  0  0  0  0  0  0  0
   56.7653   26.7545   44.4173 H   0  0  0  0  0  0  0  0  0  0  0  0
   56.3947   25.8914   46.0071 H   0  0  0  0  0  0  0  0  0  0  0  0
   58.5333   25.5540   47.5838 H   0  0  0  0  0  0  0  0  0  0  0  0
   61.4560   29.3280   48.6630 H   0  0  0  0  0  0  0  0  0  0  0  0
   60.3201   33.3501   46.3677 H   0  0  0  0  0  0  0  0  0  0  0  0
   62.4343   34.9062   47.0155 H   0  0  0  0  0  0  0  0  0  0  0  0
   64.2917   33.2764   48.0370 H   0  0  0  0  0  0  0  0  0  0  0  0
   59.6197   30.9843   45.1532 H   0  0  0  0  0  0  0  0  0  0  0  0
   58.5577   29.5778   43.8680 H   0  0  0  0  0  0  0  0  0  0  0  0
   57.5579   28.0918   43.6676 H   0  0  0  0  0  0  0  0  0  0  0  0
   58.4832   31.3812   43.9097 H   0  0  0  0  0  0  0  0  0  0  0  0
   57.0186   32.1051   43.1465 H   0  0  0  0  0  0  0  0  0  0  0  0
   57.7678   33.0523   45.9027 H   0  0  0  0  0  0  0  0  0  0  0  0
   58.7953   33.5872   44.5298 H   0  0  0  0  0  0  0  0  0  0  0  0
   57.0361   33.9502   44.5298 H   0  0  0  0  0  0  0  0  0  0  0  0
  1  2  1  0
  2  3  1  0
  3  4  1  0
  4  5  2  0
  5  6  1  0
  6  7  2  0
  6  8  1  0
  8  9  1  0
  9 10  2  0
 10 11  1  0
 11 12  2  0
 12 13  1  0
 13 14  2  0
 14 15  1  0
 10 16  1  0
 16 17  2  0
 17 18  1  0
 18 19  1  0
 19 20  1  0
 20 21  2  0
 20 22  1  0
 22 23  1  0
 23 24  1  0
 18  4  1  0
 17  8  1  0
 15 11  1  0
  1 25  1  0
  1 26  1  0
  1 27  1  0
  2 28  1  0
  2 29  1  0
  3 30  1  0
  3 31  1  0
  5 32  1  0
  9 33  1  0
 12 34  1  0
 13 35  1  0
 14 36  1  0
 16 37  1  0
 19 38  1  0
 19 39  1  0
 23 40  1  0
 23 41  1  0
 24 42  1  0
 24 43  1  0
 24 44  1  0
M  CHG  1   9   1
M  END
>  <UniqueID>  (2) 
2

>  <SMILES>  (2) 
CCCc1cc(=O)n2[nH+]c(-c3ccco3)cc2n1CC(=O)OCC

>  <Energy>  (2) 
105.85033230053753

>  <Genealogy>  (2) 
CCCc1cc(=O)n2[nH+]c(-c3ccco3)cc2n1CC(=O)OCC (protonated)
CCCc1cc(=O)n2[nH+]c(-c3ccco3)cc2n1CC(=O)OCC (3D coordinates assigned)
CCCc1cc(=O)n2[nH+]c(-c3ccco3)cc2n1CC(=O)OCC (optimized conformer: 105.85033230053753 kcal/mol)

>  <smiles>  (2) 
CCCc1cc(=O)n2nc(-c3ccco3)cc2n1CC(=O)OCC

>  <score_type>  (2) 
oracle

>  <origin>  (2) 
adg

>  <m_score__min__energy>  (2) 
-5.71

>  <m_primary>  (2) 
energy

$$$$
2:0
     RDKit          3D

 59 63  0  0  0  0  0  0  0  0999 V2000
   58.7950   33.5210   44.0640 O   0  0  0  0  0  0  0  0  0  0  0  0
   58.7520   32.5710   44.8850 C   0  0  0  0  0  0  0  0  0  0  0  0
   58.0080   31.3230   44.6040 C   0  0  0  0  0  0  0  0  0  0  0  0
   56.6370   31.4090   44.4740 C   0  0  0  0  0  0  0  0  0  0  0  0
   55.9460   30.2210   44.2260 C   0  0  0  0  0  0  0  0  0  0  0  0
   56.6240   29.0080   44.1170 C   0  0  0  0  0  0  0  0  0  0  0  0
   57.9760   28.9160   44.2430 C   0  0  0  0  0  0  0  0  0  0  0  0
   58.8010   27.7000   44.1840 C   0  0  0  0  0  0  0  0  0  0  0  0
   58.9240   27.0490   45.5040 C   0  0  0  0  0  0  0  0  0  0  0  0
   58.0550   26.2220   46.1750 C   0  0  0  0  0  0  0  0  0  0  0  0
   56.6650   25.8290   45.8730 C   0  0  0  0  0  0  0  0  0  0  0  0
   56.7270   24.4790   45.2940 C   0  0  0  0  0  0  0  0  0  0  0  0
   56.1550   24.0380   43.6200 S   0  0  0  0  0  0  0  0  0  0  0  0
   56.6480   22.2400   43.8590 C   0  0  0  0  0  0  0  0  0  0  0  0
   56.4720   21.4040   42.9510 O   0  0  0  0  0  0  0  0  0  0  0  0
   57.1450   22.2130   45.0880 N   0  0  0  0  0  0  0  0  0  0  0  0
   57.1890   23.3030   45.7980 C   0  0  0  0  0  0  0  0  0  0  0  0
   57.7240   23.2990   47.1350 O   0  0  0  0  0  0  0  0  0  0  0  0
   58.6660   25.8100   47.3300 N   0  0  0  0  0  0  0  0  0  0  0  0
   59.8720   26.3460   47.4070 N   0  0  0  0  0  0  0  0  0  0  0  0
   60.0650   27.1130   46.3040 C   0  0  0  0  0  0  0  0  0  0  0  0
   61.0980   27.7900   46.0150 O   0  0  0  0  0  0  0  0  0  0  0  0
   58.6550   30.1230   44.4930 C   0  0  0  0  0  0  0  0  0  0  0  0
   59.4480   32.7290   46.1120 N   0  0  0  0  0  0  0  0  0  0  0  0
   60.2030   33.9040   46.4640 C   0  0  0  0  0  0  0  0  0  0  0  0
   61.6260   33.5180   46.7740 C   0  0  0  0  0  0  0  0  0  0  0  0
   61.7480   32.3140   47.5320 N   0  0  0  0  0  0  0  0  0  0  0  0
   62.8460   32.1090   48.4450 C   0  0  0  0  0  0  0  0  0  0  0  0
   62.9530   31.0540   49.1320 O   0  0  0  0  0  0  0  0  0  0  0  0
   63.9260   33.1160   48.6390 C   0  0  0  0  0  0  0  0  0  0  0  0
   65.0390   32.8170   49.5770 C   0  0  0  0  0  0  0  0  0  0  0  0
   63.9570   33.7610   50.0100 C   0  0  0  0  0  0  0  0  0  0  0  0
   60.8100   31.2020   47.4420 C   0  0  0  0  0  0  0  0  0  0  0  0
   59.4130   31.6600   47.1130 C   0  0  0  0  0  0  0  0  0  0  0  0
   56.1113   32.3712   44.5619 H   0  0  0  0  0  0  0  0  0  0  0  0
   54.8518   30.2428   44.1152 H   0  0  0  0  0  0  0  0  0  0  0  0
   56.0458   28.0927   43.9222 H   0  0  0  0  0  0  0  0  0  0  0  0
   58.3392   26.9916   43.4805 H   0  0  0  0  0  0  0  0  0  0  0  0
   59.8093   27.9898   43.8533 H   0  0  0  0  0  0  0  0  0  0  0  0
   56.0644   25.8196   46.7945 H   0  0  0  0  0  0  0  0  0  0  0  0
   56.1944   26.5384   45.1764 H   0  0  0  0  0  0  0  0  0  0  0  0
   57.5040   21.2660   45.4710 H   0  0  0  0  0  0  0  0  0  0  0  0
   57.7720   22.4580   47.6690 H   0  0  0  0  0  0  0  0  0  0  0  0
   58.2470   25.1600   48.0620 H   0  0  0  0  0  0  0  0  0  0  0  0
   60.5430   26.1880   48.2030 H   0  0  0  0  0  0  0  0  0  0  0  0
   59.7492   30.1005   44.6035 H   0  0  0  0  0  0  0  0  0  0  0  0
   60.1911   34.6122   45.6224 H   0  0  0  0  0  0  0  0  0  0  0  0
   59.7519   34.3757   47.3494 H   0  0  0  0  0  0  0  0  0  0  0  0
   62.1633   33.3846   45.8235 H   0  0  0  0  0  0  0  0  0  0  0  0
   62.0488   34.3261   47.3890 H   0  0  0  0  0  0  0  0  0  0  0  0
   63.8930   33.4524   47.5922 H   0  0  0  0  0  0  0  0  0  0  0  0
   65.1133   31.8212   50.0383 H   0  0  0  0  0  0  0  0  0  0  0  0
   66.1358   32.8754   49.5169 H   0  0  0  0  0  0  0  0  0  0  0  0
   63.2335   33.4563   50.7806 H   0  0  0  0  0  0  0  0  0  0  0  0
   63.9235   34.7922   50.3915 H   0  0  0  0  0  0  0  0  0  0  0  0
   61.1515   30.5135   46.6550 H   0  0  0  0  0  0  0  0  0  0  0  0
   60.7800   30.7058   48.4232 H   0  0  0  0  0  0  0  0  0  0  0  0
   58.8373   30.8108   46.7163 H   0  0  0  0  0  0  0  0  0  0  0  0
   58.9387   32.0439   48.0283 H   0  0  0  0  0  0  0  0  0  0  0  0
  1  2  2  0
  2  3  1  0
  3  4  2  0
  4  5  1  0
  5  6  2  0
  6  7  1  0
  7  8  1  0
  8  9  1  0
  9 10  2  0
 10 11  1  0
 11 12  1  0
 12 13  1  0
 13 14  1  0
 14 15  2  0
 14 16  1  0
 16 17  1  0
 17 18  1  0
 10 19  1  0
 19 20  1  0
 20 21  1  0
 21 22  2  0
  7 23  2  0
  2 24  1  0
 24 25  1  0
 25 26  1  0
 26 27  1  0
 27 28  1  0
 28 29  2  0
 28 30  1  0
 30 31  1  0
 31 32  1  0
 27 33  1  0
 33 34  1  0
 23  3  1  0
 34 24  1  0
 21  9  1  0
 32 30  1  0
 17 12  2  0
  4 35  1  0
  5 36  1  0
  6 37  1  0
  8 38  1  0
  8 39  1  0
 11 40  1  0
 11 41  1  0
 16 42  1  0
 18 43  1  0
 19 44  1  0
 20 45  1  0
 23 46  1  0
 25 47  1  0
 25 48  1  0
 26 49  1  0
 26 50  1  0
 30 51  1  0
 31 52  1  0
 31 53  1  0
 32 54  1  0
 32 55  1  0
 33 56  1  0
 33 57  1  0
 34 58  1  0
 34 59  1  0
M  END
>  <smiles>  (3) 
O=C(c1cccc(Cc2c(Cc3sc(=O)[nH]c3O)[nH][nH]c2=O)c1)N1CCN(C(=O)C2CC2)CC1

>  <score_type>  (3) 
oracle

>  <origin>  (3) 
adg

>  <m_score__min__energy>  (3) 
-10.98

>  <m_primary>  (3) 
energy

$$$$
3:0
     RDKit          3D

 46 48  0  0  0  0  0  0  0  0999 V2000
   63.2040   33.8940   46.3420 C   0  0  0  0  0  0  0  0  0  0  0  0
   63.0600   32.9050   47.4470 C   0  0  0  0  0  0  0  0  0  0  0  0
   62.0750   31.9840   47.5020 N   0  0  0  0  0  0  0  0  0  0  0  0
   62.1350   31.2490   48.6450 C   0  0  0  0  0  0  0  0  0  0  0  0
   61.1290   30.1780   48.9500 C   0  0  0  0  0  0  0  0  0  0  0  0
   60.1490   30.0670   47.8510 N   0  0  0  0  0  0  0  0  0  0  0  0
   58.9800   29.2650   48.2780 C   0  0  0  0  0  0  0  0  0  0  0  0
   58.1370   28.7250   47.0990 C   0  0  0  0  0  0  0  0  0  0  0  0
   58.4220   29.4250   45.8370 N   0  0  0  0  0  0  0  0  0  0  0  0
   57.3730   29.5760   44.8550 C   0  0  0  0  0  0  0  0  0  0  0  0
   56.3220   28.8850   44.9570 O   0  0  0  0  0  0  0  0  0  0  0  0
   57.5370   30.5140   43.6830 C   0  0  0  0  0  0  0  0  0  0  0  0
   57.0610   31.9400   43.9890 C   0  0  0  0  0  0  0  0  0  0  0  0
   57.8920   32.5430   45.0830 C   0  0  0  0  0  0  0  0  0  0  0  0
   58.8610   33.5170   44.8490 C   0  0  0  0  0  0  0  0  0  0  0  0
   59.5100   33.9640   46.3370 S   0  0  0  0  0  0  0  0  0  0  0  0
   58.5180   32.9280   47.2140 C   0  0  0  0  0  0  0  0  0  0  0  0
   58.5800   32.7360   48.6920 C   0  0  0  0  0  0  0  0  0  0  0  0
   57.7080   32.2250   46.3940 N   0  0  0  0  0  0  0  0  0  0  0  0
   59.8120   29.7310   45.4680 C   0  0  0  0  0  0  0  0  0  0  0  0
   60.7600   29.4950   46.6410 C   0  0  0  0  0  0  0  0  0  0  0  0
   63.1610   31.5950   49.5210 C   0  0  0  0  0  0  0  0  0  0  0  0
   64.0180   32.8640   48.8280 S   0  0  0  0  0  0  0  0  0  0  0  0
   63.3503   34.8985   46.7657 H   0  0  0  0  0  0  0  0  0  0  0  0
   64.0728   33.6274   45.7222 H   0  0  0  0  0  0  0  0  0  0  0  0
   62.2953   33.8862   45.7222 H   0  0  0  0  0  0  0  0  0  0  0  0
   61.6486   29.2161   49.0713 H   0  0  0  0  0  0  0  0  0  0  0  0
   60.5983   30.4394   49.8774 H   0  0  0  0  0  0  0  0  0  0  0  0
   59.3415   28.4097   48.8678 H   0  0  0  0  0  0  0  0  0  0  0  0
   58.3281   29.9303   48.8632 H   0  0  0  0  0  0  0  0  0  0  0  0
   58.3586   27.6556   46.9673 H   0  0  0  0  0  0  0  0  0  0  0  0
   57.0770   28.8909   47.3418 H   0  0  0  0  0  0  0  0  0  0  0  0
   58.6017   30.5505   43.4089 H   0  0  0  0  0  0  0  0  0  0  0  0
   56.9160   30.1277   42.8614 H   0  0  0  0  0  0  0  0  0  0  0  0
   57.1530   32.5557   43.0821 H   0  0  0  0  0  0  0  0  0  0  0  0
   56.0112   31.9044   44.3155 H   0  0  0  0  0  0  0  0  0  0  0  0
   59.1501   33.9214   43.8677 H   0  0  0  0  0  0  0  0  0  0  0  0
   58.2795   33.6666   49.1956 H   0  0  0  0  0  0  0  0  0  0  0  0
   57.8984   31.9239   48.9852 H   0  0  0  0  0  0  0  0  0  0  0  0
   59.6078   32.4759   48.9852 H   0  0  0  0  0  0  0  0  0  0  0  0
   57.0180   31.5160   46.7300 H   0  0  0  0  0  0  0  0  0  0  0  0
   60.1111   29.0849   44.6295 H   0  0  0  0  0  0  0  0  0  0  0  0
   59.8706   30.7913   45.1811 H   0  0  0  0  0  0  0  0  0  0  0  0
   60.9190   28.4154   46.7794 H   0  0  0  0  0  0  0  0  0  0  0  0
   61.7315   29.9723   46.4451 H   0  0  0  0  0  0  0  0  0  0  0  0
   63.3724   31.1228   50.4917 H   0  0  0  0  0  0  0  0  0  0  0  0
  1  2  1  0
  2  3  2  0
  3  4  1  0
  4  5  1  0
  5  6  1  0
  6  7  1  0
  7  8  1  0
  8  9  1  0
  9 10  1  0
 10 11  2  0
 10 12  1  0
 12 13  1  0
 13 14  1  0
 14 15  2  0
 15 16  1  0
 16 17  1  0
 17 18  1  0
 17 19  2  0
  9 20  1  0
 20 21  1  0
  4 22  2  0
 22 23  1  0
 23  2  1  0
 21  6  1  0
 19 14  1  0
  1 24  1  0
  1 25  1  0
  1 26  1  0
  5 27  1  0
  5 28  1  0
  7 29  1  0
  7 30  1  0
  8 31  1  0
  8 32  1  0
 12 33  1  0
 12 34  1  0
 13 35  1  0
 13 36  1  0
 15 37  1  0
 18 38  1  0
 18 39  1  0
 18 40  1  0
 19 41  1  0
 20 42  1  0
 20 43  1  0
 21 44  1  0
 21 45  1  0
 22 46  1  0
M  CHG  1  19   1
M  END
>  <UniqueID>  (4) 
3

>  <SMILES>  (4) 
Cc1nc(CN2CCN(C(=O)CCc3csc(C)[nH+]3)CC2)cs1

>  <Energy>  (4) 
104.3359325480148

>  <Genealogy>  (4) 
Cc1nc(CN2CCN(C(=O)CCc3csc(C)[nH+]3)CC2)cs1 (protonated)
Cc1nc(CN2CCN(C(=O)CCc3csc(C)[nH+]3)CC2)cs1 (3D coordinates assigned)
Cc1nc(CN2CCN(C(=O)CCc3csc(C)[nH+]3)CC2)cs1 (nonaromatic ring conformer: 104.3359325480148 kcal/mol)

>  <smiles>  (4) 
Cc1nc(CCC(=O)N2CCN(Cc3csc(C)n3)CC2)cs1

>  <score_type>  (4) 
oracle

>  <origin>  (4) 
adg

>  <m_score__min__energy>  (4) 
-6.2300000000000004

>  <m_primary>  (4) 
energy

$$$$
4:0
     RDKit          3D

 45 47  0  0  0  0  0  0  0  0999 V2000
   57.3630   31.5250   44.2440 C   0  0  0  0  0  0  0  0  0  0  0  0
   56.6640   30.4670   44.8640 O   0  0  0  0  0  0  0  0  0  0  0  0
   56.6090   29.3430   44.0060 C   0  0  0  0  0  0  0  0  0  0  0  0
   57.7830   28.4020   44.2930 C   0  0  0  0  0  0  0  0  0  0  0  0
   58.0600   28.3430   45.7330 N   0  0  0  0  0  0  0  0  0  0  0  0
   57.6590   27.1760   46.4770 C   0  0  0  0  0  0  0  0  0  0  0  0
   57.7710   27.1750   47.7330 O   0  0  0  0  0  0  0  0  0  0  0  0
   57.1270   25.9700   45.7990 C   0  0  0  0  0  0  0  0  0  0  0  0
   58.0210   25.0070   45.2960 C   0  0  0  0  0  0  0  0  0  0  0  0
   57.5420   23.8530   44.6710 C   0  0  0  0  0  0  0  0  0  0  0  0
   56.1680   23.6490   44.5320 C   0  0  0  0  0  0  0  0  0  0  0  0
   55.2690   24.6050   45.0110 C   0  0  0  0  0  0  0  0  0  0  0  0
   55.7390   25.7670   45.6350 C   0  0  0  0  0  0  0  0  0  0  0  0
   54.8190   26.7160   46.0680 O   0  0  0  0  0  0  0  0  0  0  0  0
   58.8490   29.3810   46.3500 C   0  0  0  0  0  0  0  0  0  0  0  0
   58.3510   30.2620   47.2460 N   0  0  0  0  0  0  0  0  0  0  0  0
   59.2480   31.1540   47.6650 N   0  0  0  0  0  0  0  0  0  0  0  0
   60.4720   31.0030   47.1050 C   0  0  0  0  0  0  0  0  0  0  0  0
   61.6290   31.8720   47.4190 C   0  0  0  0  0  0  0  0  0  0  0  0
   61.8320   33.0610   46.6960 C   0  0  0  0  0  0  0  0  0  0  0  0
   62.9230   33.8810   46.9780 C   0  0  0  0  0  0  0  0  0  0  0  0
   63.8230   33.5340   47.9890 C   0  0  0  0  0  0  0  0  0  0  0  0
   63.6350   32.3590   48.7360 C   0  0  0  0  0  0  0  0  0  0  0  0
   64.6000   32.0020   49.8050 C   0  0  0  0  0  0  0  0  0  0  0  0
   65.9530   32.4670   49.7770 N   0  0  0  0  0  0  0  0  0  0  0  0
   64.2310   31.2600   50.7550 O   0  0  0  0  0  0  0  0  0  0  0  0
   62.5390   31.5280   48.4360 C   0  0  0  0  0  0  0  0  0  0  0  0
   60.4730   29.7040   46.0250 S   0  0  0  0  0  0  0  0  0  0  0  0
   57.7957   32.1799   45.0146 H   0  0  0  0  0  0  0  0  0  0  0  0
   58.1684   31.1147   43.6171 H   0  0  0  0  0  0  0  0  0  0  0  0
   56.6697   32.1049   43.6171 H   0  0  0  0  0  0  0  0  0  0  0  0
   55.6635   28.8056   44.1710 H   0  0  0  0  0  0  0  0  0  0  0  0
   56.6689   29.6844   42.9621 H   0  0  0  0  0  0  0  0  0  0  0  0
   57.5341   27.3934   43.9315 H   0  0  0  0  0  0  0  0  0  0  0  0
   58.6762   28.7829   43.7762 H   0  0  0  0  0  0  0  0  0  0  0  0
   59.1052   25.1639   45.3956 H   0  0  0  0  0  0  0  0  0  0  0  0
   58.2494   23.1031   44.2874 H   0  0  0  0  0  0  0  0  0  0  0  0
   55.7935   22.7362   44.0457 H   0  0  0  0  0  0  0  0  0  0  0  0
   54.1868   24.4441   44.8974 H   0  0  0  0  0  0  0  0  0  0  0  0
   61.1251   33.3456   45.9028 H   0  0  0  0  0  0  0  0  0  0  0  0
   63.0763   34.8056   46.4021 H   0  0  0  0  0  0  0  0  0  0  0  0
   64.6840   34.1848   48.2013 H   0  0  0  0  0  0  0  0  0  0  0  0
   66.5930   32.2510   50.5730 H   0  0  0  0  0  0  0  0  0  0  0  0
   66.3530   32.9430   48.9400 H   0  0  0  0  0  0  0  0  0  0  0  0
   62.3919   30.5975   49.0040 H   0  0  0  0  0  0  0  0  0  0  0  0
  1  2  1  0
  2  3  1  0
  3  4  1  0
  4  5  1  0
  5  6  1  0
  6  7  2  0
  6  8  1  0
  8  9  2  0
  9 10  1  0
 10 11  2  0
 11 12  1  0
 12 13  2  0
 13 14  1  0
  5 15  1  0
 15 16  2  0
 16 17  1  0
 17 18  2  0
 18 19  1  0
 19 20  2  0
 20 21  1  0
 21 22  2  0
 22 23  1  0
 23 24  1  0
 24 25  1  0
 24 26  2  0
 23 27  2  0
 18 28  1  0
 13  8  1  0
 28 15  1  0
 27 19  1  0
  1 29  1  0
  1 30  1  0
  1 31  1  0
  3 32  1  0
  3 33  1  0
  4 34  1  0
  4 35  1  0
  9 36  1  0
 10 37  1  0
 11 38  1  0
 12 39  1  0
 20 40  1  0
 21 41  1  0
 22 42  1  0
 25 43  1  0
 25 44  1  0
 27 45  1  0
M  CHG  1  14  -1
M  END
>  <UniqueID>  (5) 
4

>  <SMILES>  (5) 
COCCN(C(=O)c1ccccc1[O-])c1nnc(-c2cccc(C(N)=O)c2)s1

>  <Energy>  (5) 
91.02791031382604

>  <Genealogy>  (5) 
COCCN(C(=O)c1ccccc1[O-])c1nnc(-c2cccc(C(N)=O)c2)s1 (protonated)
COCCN(C(=O)c1ccccc1[O-])c1nnc(-c2cccc(C(N)=O)c2)s1 (3D coordinates assigned)
COCCN(C(=O)c1ccccc1[O-])c1nnc(-c2cccc(C(N)=O)c2)s1 (optimized conformer: 91.02791031382604 kcal/mol)

>  <smiles>  (5) 
COCCN(C(=O)c1ccccc1O)c1nnc(-c2cccc(C(N)=O)c2)s1

>  <score_type>  (5) 
oracle

>  <origin>  (5) 
adg

>  <m_score__min__energy>  (5) 
-12.98

>  <m_primary>  (5) 
energy

$$$$
5:0
     RDKit          3D

 42 44  0  0  0  0  0  0  0  0999 V2000
   59.8840   29.8450   46.1290 O   0  0  0  0  0  0  0  0  0  0  0  0
   59.4570   29.3580   47.2090 C   0  0  0  0  0  0  0  0  0  0  0  0
   58.5300   28.1880   47.1740 C   0  0  0  0  0  0  0  0  0  0  0  0
   58.1150   27.9440   45.7990 N   0  0  0  0  0  0  0  0  0  0  0  0
   57.0000   28.5910   45.1730 C   0  0  0  0  0  0  0  0  0  0  0  0
   55.8640   28.0580   45.2430 O   0  0  0  0  0  0  0  0  0  0  0  0
   57.1420   29.8850   44.4870 C   0  0  0  0  0  0  0  0  0  0  0  0
   57.3670   30.9960   45.2390 N   0  0  0  0  0  0  0  0  0  0  0  0
   57.5300   32.2300   44.6870 C   0  0  0  0  0  0  0  0  0  0  0  0
   57.7370   33.4280   45.5780 C   0  0  1  0  0  0  0  0  0  0  0  0
   58.9060   33.2050   46.5310 C   0  0  0  0  0  0  0  0  0  0  0  0
   60.0130   33.9940   45.9060 C   0  0  0  0  0  0  0  0  0  0  0  0
   59.2710   35.0530   45.1220 C   0  0  0  0  0  0  0  0  0  0  0  0
   57.9910   34.5680   44.7840 O   0  0  0  0  0  0  0  0  0  0  0  0
   57.4370   32.3810   43.2960 C   0  0  0  0  0  0  0  0  0  0  0  0
   57.1900   31.2620   42.5010 C   0  0  0  0  0  0  0  0  0  0  0  0
   57.0270   30.0050   43.0870 C   0  0  0  0  0  0  0  0  0  0  0  0
   56.7290   28.9130   42.2680 O   0  0  0  0  0  0  0  0  0  0  0  0
   59.7600   29.9750   48.4670 N   0  0  0  0  0  0  0  0  0  0  0  0
   60.4040   31.2440   48.6640 C   0  0  0  0  0  0  0  0  0  0  0  0
   59.8900   32.2140   49.5460 C   0  0  0  0  0  0  0  0  0  0  0  0
   60.5360   33.4460   49.6890 C   0  0  0  0  0  0  0  0  0  0  0  0
   61.6880   33.7250   48.9480 C   0  0  0  0  0  0  0  0  0  0  0  0
   62.1900   32.7750   48.0540 C   0  0  0  0  0  0  0  0  0  0  0  0
   63.6260   33.1310   47.1110 Cl  0  0  0  0  0  0  0  0  0  0  0  0
   61.5450   31.5430   47.9080 C   0  0  0  0  0  0  0  0  0  0  0  0
   59.0456   27.2987   47.5656 H   0  0  0  0  0  0  0  0  0  0  0  0
   57.6462   28.3992   47.7939 H   0  0  0  0  0  0  0  0  0  0  0  0
   56.8246   33.5789   46.1736 H   0  0  0  0  0  0  0  0  0  0  0  0
   58.6720   33.5827   47.5373 H   0  0  0  0  0  0  0  0  0  0  0  0
   59.1564   32.1423   46.6648 H   0  0  0  0  0  0  0  0  0  0  0  0
   60.6575   34.4481   46.6731 H   0  0  0  0  0  0  0  0  0  0  0  0
   60.6846   33.3837   45.2844 H   0  0  0  0  0  0  0  0  0  0  0  0
   59.1704   35.9612   45.7344 H   0  0  0  0  0  0  0  0  0  0  0  0
   59.8292   35.2930   44.2051 H   0  0  0  0  0  0  0  0  0  0  0  0
   57.5577   33.3729   42.8361 H   0  0  0  0  0  0  0  0  0  0  0  0
   57.1233   31.3700   41.4083 H   0  0  0  0  0  0  0  0  0  0  0  0
   56.5360   27.9910   42.6370 H   0  0  0  0  0  0  0  0  0  0  0  0
   58.9783   32.0021   50.1238 H   0  0  0  0  0  0  0  0  0  0  0  0
   60.1367   34.1973   50.3862 H   0  0  0  0  0  0  0  0  0  0  0  0
   62.1991   34.6916   49.0684 H   0  0  0  0  0  0  0  0  0  0  0  0
   61.9363   30.8031   47.1943 H   0  0  0  0  0  0  0  0  0  0  0  0
  1  2  2  0
  2  3  1  0
  3  4  1  0
  4  5  1  0
  5  6  2  0
  5  7  1  0
  7  8  2  0
  8  9  1  0
  9 10  1  0
 10 11  1  0
 11 12  1  0
 12 13  1  0
 13 14  1  0
  9 15  2  0
 15 16  1  0
 16 17  2  0
 17 18  1  0
  2 19  1  0
 19 20  1  0
 20 21  2  0
 21 22  1  0
 22 23  2  0
 23 24  1  0
 24 25  1  0
 24 26  2  0
 17  7  1  0
 26 20  1  0
 14 10  1  0
  3 27  1  0
  3 28  1  0
 10 29  1  1
 11 30  1  0
 11 31  1  0
 12 32  1  0
 12 33  1  0
 13 34  1  0
 13 35  1  0
 15 36  1  0
 16 37  1  0
 18 38  1  0
 21 39  1  0
 22 40  1  0
 23 41  1  0
 26 42  1  0
M  CHG  2   4  -1  19  -1
M  END
>  <UniqueID>  (6) 
5

>  <SMILES>  (6) 
O=C(C[N-]C(=O)c1nc([C@H]2CCCO2)ccc1O)[N-]c1cccc(Cl)c1

>  <Energy>  (6) 
50.570635705739065

>  <Genealogy>  (6) 
O=C(C[N-]C(=O)c1nc(C2CCCO2)ccc1O)[N-]c1cccc(Cl)c1 (protonated)
O=C(C[N-]C(=O)c1nc([C@H]2CCCO2)ccc1O)[N-]c1cccc(Cl)c1 (chirality)
O=C(C[N-]C(=O)c1nc([C@H]2CCCO2)ccc1O)[N-]c1cccc(Cl)c1 (3D coordinates assigned)
O=C(C[N-]C(=O)c1nc([C@H]2CCCO2)ccc1O)[N-]c1cccc(Cl)c1 (nonaromatic ring conformer: 50.570635705739065 kcal/mol)

>  <smiles>  (6) 
O=C(CNC(=O)c1nc(C2CCCO2)ccc1O)Nc1cccc(Cl)c1

>  <score_type>  (6) 
oracle

>  <origin>  (6) 
adg

>  <m_score__min__energy>  (6) 
-11.6

>  <m_primary>  (6) 
energy

$$$$
6:0
     RDKit          3D

 45 47  0  0  0  0  0  0  0  0999 V2000
   63.4710   33.4050   46.7240 C   0  0  0  0  0  0  0  0  0  0  0  0
   62.8220   32.6910   47.9100 C   0  0  0  0  0  0  0  0  0  0  0  0
   61.9440   31.5110   47.4730 C   0  0  0  0  0  0  0  0  0  0  0  0
   60.7000   31.9720   46.7770 C   0  0  0  0  0  0  0  0  0  0  0  0
   60.3840   33.2710   46.5410 N   0  0  0  0  0  0  0  0  0  0  0  0
   59.1860   33.3060   45.9610 N   0  0  0  0  0  0  0  0  0  0  0  0
   58.5080   34.5360   45.5690 C   0  0  0  0  0  0  0  0  0  0  0  0
   58.7300   32.0440   45.8380 C   0  0  0  0  0  0  0  0  0  0  0  0
   57.5350   31.5420   45.3320 C   0  0  0  0  0  0  0  0  0  0  0  0
   56.6460   32.2960   44.8570 O   0  0  0  0  0  0  0  0  0  0  0  0
   57.3490   30.1890   45.3700 N   0  0  0  0  0  0  0  0  0  0  0  0
   58.2990   29.3400   45.8890 C   0  0  0  0  0  0  0  0  0  0  0  0
   58.0550   27.8770   45.9190 C   0  0  0  0  0  0  0  0  0  0  0  0
   59.1340   26.9730   45.9210 C   0  0  0  0  0  0  0  0  0  0  0  0
   58.9030   25.5970   45.9570 C   0  0  0  0  0  0  0  0  0  0  0  0
   57.5970   25.1020   45.9830 C   0  0  0  0  0  0  0  0  0  0  0  0
   56.5060   25.9870   45.9610 C   0  0  0  0  0  0  0  0  0  0  0  0
   55.1490   25.5230   46.0070 N   0  0  0  0  0  0  0  0  0  0  0  0
   54.6120   24.3870   45.3160 C   0  0  0  0  0  0  0  0  0  0  0  0
   53.4260   24.3920   44.8900 O   0  0  0  0  0  0  0  0  0  0  0  0
   55.4340   23.1450   45.1950 C   0  0  0  0  0  0  0  0  0  0  0  0
   55.8790   22.9630   43.7770 C   0  0  0  0  0  0  0  0  0  0  0  0
   56.2960   24.0860   43.0020 N   0  0  0  0  0  0  0  0  0  0  0  0
   55.9270   21.8070   43.2800 O   0  0  0  0  0  0  0  0  0  0  0  0
   56.7430   27.3680   45.9480 C   0  0  0  0  0  0  0  0  0  0  0  0
   59.4690   29.8520   46.3850 N   0  0  0  0  0  0  0  0  0  0  0  0
   59.6530   31.1920   46.3410 C   0  0  0  0  0  0  0  0  0  0  0  0
   64.1678   34.1715   47.0941 H   0  0  0  0  0  0  0  0  0  0  0  0
   64.0207   32.6745   46.1123 H   0  0  0  0  0  0  0  0  0  0  0  0
   62.6915   33.8827   46.1123 H   0  0  0  0  0  0  0  0  0  0  0  0
   63.6151   32.3148   48.5729 H   0  0  0  0  0  0  0  0  0  0  0  0
   62.1761   33.4167   48.4259 H   0  0  0  0  0  0  0  0  0  0  0  0
   62.5204   30.8730   46.7869 H   0  0  0  0  0  0  0  0  0  0  0  0
   61.6460   30.9542   48.3736 H   0  0  0  0  0  0  0  0  0  0  0  0
   58.2029   35.0895   46.4693 H   0  0  0  0  0  0  0  0  0  0  0  0
   59.1914   35.1568   44.9710 H   0  0  0  0  0  0  0  0  0  0  0  0
   57.6182   34.2896   44.9710 H   0  0  0  0  0  0  0  0  0  0  0  0
   60.1658   27.3534   45.8940 H   0  0  0  0  0  0  0  0  0  0  0  0
   59.7533   24.8991   45.9649 H   0  0  0  0  0  0  0  0  0  0  0  0
   57.4223   24.0166   46.0208 H   0  0  0  0  0  0  0  0  0  0  0  0
   56.3166   23.2272   45.8463 H   0  0  0  0  0  0  0  0  0  0  0  0
   54.8272   22.2789   45.4975 H   0  0  0  0  0  0  0  0  0  0  0  0
   56.2940   25.0470   43.4110 H   0  0  0  0  0  0  0  0  0  0  0  0
   56.6200   23.9560   42.0170 H   0  0  0  0  0  0  0  0  0  0  0  0
   55.8915   28.0643   45.9606 H   0  0  0  0  0  0  0  0  0  0  0  0
  1  2  1  0
  2  3  1  0
  3  4  1  0
  4  5  2  0
  5  6  1  0
  6  7  1  0
  6  8  1  0
  8  9  1  0
  9 10  2  0
  9 11  1  0
 11 12  1  0
 12 13  1  0
 13 14  2  0
 14 15  1  0
 15 16  2  0
 16 17  1  0
 17 18  1  0
 18 19  1  0
 19 20  2  0
 19 21  1  0
 21 22  1  0
 22 23  1  0
 22 24  2  0
 17 25  2  0
 12 26  2  0
 26 27  1  0
 27  4  1  0
 27  8  2  0
 25 13  1  0
  1 28  1  0
  1 29  1  0
  1 30  1  0
  2 31  1  0
  2 32  1  0
  3 33  1  0
  3 34  1  0
  7 35  1  0
  7 36  1  0
  7 37  1  0
 14 38  1  0
 15 39  1  0
 16 40  1  0
 21 41  1  0
 21 42  1  0
 23 43  1  0
 23 44  1  0
 25 45  1  0
M  CHG  2  11  -1  18  -1
M  END
>  <UniqueID>  (7) 
6

>  <SMILES>  (7) 
CCCc1nn(C)c2c(=O)[n-]c(-c3cccc([N-]C(=O)CC(N)=O)c3)nc12

>  <Energy>  (7) 
84.95394785799527

>  <Genealogy>  (7) 
CCCc1nn(C)c2c(=O)[n-]c(-c3cccc([N-]C(=O)CC(N)=O)c3)nc12 (protonated)
CCCc1nn(C)c2c(=O)[n-]c(-c3cccc([N-]C(=O)CC(N)=O)c3)nc12 (3D coordinates assigned)
CCCc1nn(C)c2c(=O)[n-]c(-c3cccc([N-]C(=O)CC(N)=O)c3)nc12 (optimized conformer: 84.95394785799527 kcal/mol)

>  <smiles>  (7) 
CCCc1nn(C)c2c(=O)[nH]c(-c3cccc(NC(=O)CC(N)=O)c3)nc12

>  <score_type>  (7) 
oracle

>  <origin>  (7) 
adg

>  <m_score__min__energy>  (7) 
-11.640000000000001

>  <m_primary>  (7) 
energy

$$$$
7:0
     RDKit          3D

 54 57  0  0  0  0  0  0  0  0999 V2000
   52.8700   28.2090   53.4720 C   0  0  0  0  0  0  0  0  0  0  0  0
   53.7970   29.1370   53.1710 C   0  0  0  0  0  0  0  0  0  0  0  0
   55.1240   28.8720   53.5630 C   0  0  0  0  0  0  0  0  0  0  0  0
   56.1810   29.6390   53.0800 C   0  0  0  0  0  0  0  0  0  0  0  0
   55.9480   30.6770   52.1740 C   0  0  0  0  0  0  0  0  0  0  0  0
   57.0830   31.4660   51.6390 C   0  0  0  0  0  0  0  0  0  0  0  0
   57.0750   32.7190   51.7780 O   0  0  0  0  0  0  0  0  0  0  0  0
   58.1880   30.8390   50.9570 N   0  0  0  0  0  0  0  0  0  0  0  0
   58.6940   29.5260   51.3820 C   0  0  0  0  0  0  0  0  0  0  0  0
   60.2260   29.5420   51.4540 C   0  0  0  0  0  0  0  0  0  0  0  0
   60.8290   30.2030   50.2850 N   0  0  0  0  0  0  0  0  0  0  0  0
   62.2700   30.2600   50.1880 C   0  0  0  0  0  0  0  0  0  0  0  0
   62.9650   29.4440   50.8570 O   0  0  0  0  0  0  0  0  0  0  0  0
   62.9600   31.2640   49.2980 C   0  0  0  0  0  0  0  0  0  0  0  0
   63.8140   32.2360   50.0830 C   0  0  0  0  0  0  0  0  0  0  0  0
   65.1970   32.0000   50.1840 C   0  0  0  0  0  0  0  0  0  0  0  0
   66.0200   32.8900   50.8810 C   0  0  0  0  0  0  0  0  0  0  0  0
   65.4720   34.0290   51.4750 C   0  0  0  0  0  0  0  0  0  0  0  0
   64.1030   34.2830   51.3670 C   0  0  0  0  0  0  0  0  0  0  0  0
   63.2690   33.4000   50.6710 C   0  0  0  0  0  0  0  0  0  0  0  0
   61.4050   33.8400   50.5380 Br  0  0  0  0  0  0  0  0  0  0  0  0
   59.9540   30.7220   49.2210 C   0  0  0  0  0  0  0  0  0  0  0  0
   58.8260   31.5510   49.8410 C   0  0  0  0  0  0  0  0  0  0  0  0
   54.6270   31.0030   51.8340 C   0  0  0  0  0  0  0  0  0  0  0  0
   53.5280   30.3000   52.3750 C   0  0  0  0  0  0  0  0  0  0  0  0
   52.2940   30.8000   52.1110 C   0  0  0  0  0  0  0  0  0  0  0  0
   51.7550   31.1430   50.7820 C   0  0  0  0  0  0  0  0  0  0  0  0
   51.1370   32.3060   50.5110 N   0  0  0  0  0  0  0  0  0  0  0  0
   50.7160   32.1490   49.2370 C   0  0  0  0  0  0  0  0  0  0  0  0
   50.0930   33.0460   48.6140 O   0  0  0  0  0  0  0  0  0  0  0  0
   51.0020   30.9490   48.6890 N   0  0  0  0  0  0  0  0  0  0  0  0
   51.6470   30.3160   49.6840 C   0  0  0  0  0  0  0  0  0  0  0  0
   52.1030   29.0050   49.6010 O   0  0  0  0  0  0  0  0  0  0  0  0
   51.8194   28.3686   53.1876 H   0  0  0  0  0  0  0  0  0  0  0  0
   53.1628   27.2909   54.0024 H   0  0  0  0  0  0  0  0  0  0  0  0
   55.3281   28.0468   54.2611 H   0  0  0  0  0  0  0  0  0  0  0  0
   57.2072   29.4262   53.4142 H   0  0  0  0  0  0  0  0  0  0  0  0
   58.2869   29.2846   52.3749 H   0  0  0  0  0  0  0  0  0  0  0  0
   58.3788   28.7678   50.6501 H   0  0  0  0  0  0  0  0  0  0  0  0
   60.5327   30.0802   52.3630 H   0  0  0  0  0  0  0  0  0  0  0  0
   60.5750   28.4990   51.4705 H   0  0  0  0  0  0  0  0  0  0  0  0
   63.6019   30.7238   48.5866 H   0  0  0  0  0  0  0  0  0  0  0  0
   62.1826   31.8430   48.7780 H   0  0  0  0  0  0  0  0  0  0  0  0
   65.6345   31.1084   49.7110 H   0  0  0  0  0  0  0  0  0  0  0  0
   67.0992   32.6930   50.9615 H   0  0  0  0  0  0  0  0  0  0  0  0
   66.1187   34.7261   52.0280 H   0  0  0  0  0  0  0  0  0  0  0  0
   63.6767   35.1839   51.8325 H   0  0  0  0  0  0  0  0  0  0  0  0
   60.5418   31.3552   48.5402 H   0  0  0  0  0  0  0  0  0  0  0  0
   59.5222   29.8798   48.6605 H   0  0  0  0  0  0  0  0  0  0  0  0
   59.2415   32.4994   50.2124 H   0  0  0  0  0  0  0  0  0  0  0  0
   58.0657   31.7341   49.0675 H   0  0  0  0  0  0  0  0  0  0  0  0
   54.4423   31.8266   51.1286 H   0  0  0  0  0  0  0  0  0  0  0  0
   51.6310   30.9656   52.9730 H   0  0  0  0  0  0  0  0  0  0  0  0
   52.0980   28.4050   50.4160 H   0  0  0  0  0  0  0  0  0  0  0  0
  1  2  2  0
  2  3  1  0
  3  4  2  0
  4  5  1  0
  5  6  1  0
  6  7  2  0
  6  8  1  0
  8  9  1  0
  9 10  1  0
 10 11  1  0
 11 12  1  0
 12 13  2  0
 12 14  1  0
 14 15  1  0
 15 16  2  0
 16 17  1  0
 17 18  2  0
 18 19  1  0
 19 20  2  0
 20 21  1  0
 11 22  1  0
 22 23  1  0
  5 24  2  0
 24 25  1  0
 25 26  2  3
 26 27  1  0
 27 28  1  0
 28 29  1  0
 29 30  2  0
 29 31  1  0
 31 32  1  0
 32 33  1  0
 25  2  1  0
 32 27  2  0
 23  8  1  0
 20 15  1  0
  1 34  1  0
  1 35  1  0
  3 36  1  0
  4 37  1  0
  9 38  1  0
  9 39  1  0
 10 40  1  0
 10 41  1  0
 14 42  1  0
 14 43  1  0
 16 44  1  0
 17 45  1  0
 18 46  1  0
 19 47  1  0
 22 48  1  0
 22 49  1  0
 23 50  1  0
 23 51  1  0
 24 52  1  0
 26 53  1  0
 33 54  1  0
M  CHG  2  28  -1  31  -1
M  END
>  <UniqueID>  (8) 
7

>  <SMILES>  (8) 
C=c1ccc(C(=O)N2CCN(C(=O)Cc3ccccc3Br)CC2)cc1=Cc1[n-]c(=O)[n-]c1O

>  <Energy>  (8) 
114.69698480875054

>  <Genealogy>  (8) 
C=c1ccc(C(=O)N2CCN(C(=O)Cc3ccccc3Br)CC2)cc1=Cc1[n-]c(=O)[n-]c1O (protonated)
C=c1ccc(C(=O)N2CCN(C(=O)Cc3ccccc3Br)CC2)cc1=Cc1[n-]c(=O)[n-]c1O (3D coordinates assigned)
C=c1ccc(C(=O)N2CCN(C(=O)Cc3ccccc3Br)CC2)cc1=Cc1[n-]c(=O)[n-]c1O (nonaromatic ring conformer: 114.69698480875054 kcal/mol)

>  <smiles>  (8) 
C=c1ccc(C(=O)N2CCN(C(=O)Cc3ccccc3Br)CC2)cc1=Cc1[nH]c(=O)[nH]c1O

>  <score_type>  (8) 
oracle

>  <origin>  (8) 
adg

>  <m_score__min__energy>  (8) 
-14.220000000000001

>  <m_primary>  (8) 
energy

$$$$
8:0
     RDKit          3D

 50 52  0  0  0  0  0  0  0  0999 V2000
   55.5310   28.3790   45.2410 O   0  0  0  0  0  0  0  0  0  0  0  0
   56.6700   28.8370   44.9600 C   0  0  0  0  0  0  0  0  0  0  0  0
   57.8300   27.9950   45.0200 N   0  0  0  0  0  0  0  0  0  0  0  0
   58.7630   27.9040   46.1070 C   0  0  0  0  0  0  0  0  0  0  0  0
   59.7350   26.8980   46.0720 C   0  0  0  0  0  0  0  0  0  0  0  0
   60.6630   26.7760   47.1080 C   0  0  0  0  0  0  0  0  0  0  0  0
   60.6420   27.6740   48.1780 C   0  0  0  0  0  0  0  0  0  0  0  0
   59.7080   28.7230   48.2070 C   0  0  0  0  0  0  0  0  0  0  0  0
   59.6640   29.6790   49.3730 C   0  0  0  0  0  0  0  0  0  0  0  0
   58.7830   30.7180   49.1270 F   0  0  0  0  0  0  0  0  0  0  0  0
   60.9270   30.2000   49.5820 F   0  0  0  0  0  0  0  0  0  0  0  0
   59.2500   29.0250   50.5210 F   0  0  0  0  0  0  0  0  0  0  0  0
   58.7590   28.8230   47.1720 C   0  0  0  0  0  0  0  0  0  0  0  0
   56.8100   30.2310   44.5110 C   0  0  0  0  0  0  0  0  0  0  0  0
   55.9480   31.0810   44.8630 O   0  0  0  0  0  0  0  0  0  0  0  0
   57.9140   30.6250   43.6810 N   0  0  0  0  0  0  0  0  0  0  0  0
   58.1140   32.0080   43.2560 C   0  0  0  0  0  0  0  0  0  0  0  0
   58.2980   32.8970   44.4470 C   0  0  0  0  0  0  0  0  0  0  0  0
   57.7360   34.1480   44.6140 C   0  0  0  0  0  0  0  0  0  0  0  0
   58.1510   34.5970   45.8510 C   0  0  0  0  0  0  0  0  0  0  0  0
   58.9660   33.6100   46.3710 C   0  0  0  0  0  0  0  0  0  0  0  0
   59.5760   33.6510   47.7140 C   0  0  0  0  0  0  0  0  0  0  0  0
   60.4380   32.7790   48.1530 N   0  0  0  0  0  0  0  0  0  0  0  0
   61.4670   32.1240   47.3980 C   0  0  0  0  0  0  0  0  0  0  0  0
   61.2040   31.0280   46.8360 O   0  0  0  0  0  0  0  0  0  0  0  0
   62.8890   32.6360   47.3950 C   0  0  1  0  0  0  0  0  0  0  0  0
   62.9910   33.9740   48.1260 C   0  0  0  0  0  0  0  0  0  0  0  0
   63.5750   33.6320   49.4730 C   0  0  0  0  0  0  0  0  0  0  0  0
   64.3750   32.3720   49.2150 C   0  0  0  0  0  0  0  0  0  0  0  0
   63.7570   31.6750   48.0870 N   0  0  0  0  0  0  0  0  0  0  0  0
   59.0390   32.5680   45.5210 N   0  0  0  0  0  0  0  0  0  0  0  0
   59.7682   26.1991   45.2232 H   0  0  0  0  0  0  0  0  0  0  0  0
   61.4123   25.9711   47.0817 H   0  0  0  0  0  0  0  0  0  0  0  0
   61.3609   27.5590   49.0026 H   0  0  0  0  0  0  0  0  0  0  0  0
   58.0081   29.6265   47.1963 H   0  0  0  0  0  0  0  0  0  0  0  0
   58.6020   29.9080   43.3620 H   0  0  0  0  0  0  0  0  0  0  0  0
   59.0086   32.0658   42.6185 H   0  0  0  0  0  0  0  0  0  0  0  0
   57.2286   32.3411   42.6946 H   0  0  0  0  0  0  0  0  0  0  0  0
   57.0871   34.6800   43.9027 H   0  0  0  0  0  0  0  0  0  0  0  0
   57.8855   35.5517   46.3285 H   0  0  0  0  0  0  0  0  0  0  0  0
   59.2840   34.4704   48.3873 H   0  0  0  0  0  0  0  0  0  0  0  0
   63.2003   32.7655   46.3479 H   0  0  0  0  0  0  0  0  0  0  0  0
   63.6517   34.6642   47.5809 H   0  0  0  0  0  0  0  0  0  0  0  0
   62.0162   34.4766   48.2110 H   0  0  0  0  0  0  0  0  0  0  0  0
   64.2261   34.4417   49.8341 H   0  0  0  0  0  0  0  0  0  0  0  0
   62.8049   33.4942   50.2462 H   0  0  0  0  0  0  0  0  0  0  0  0
   65.4152   32.6325   48.9698 H   0  0  0  0  0  0  0  0  0  0  0  0
   64.3804   31.7298   50.1081 H   0  0  0  0  0  0  0  0  0  0  0  0
   64.5110   31.3570   47.4330 H   0  0  0  0  0  0  0  0  0  0  0  0
   59.5300   31.6590   45.6750 H   0  0  0  0  0  0  0  0  0  0  0  0
  1  2  2  0
  2  3  1  0
  3  4  1  0
  4  5  2  0
  5  6  1  0
  6  7  2  0
  7  8  1  0
  8  9  1  0
  9 10  1  0
  9 11  1  0
  9 12  1  0
  8 13  2  0
  2 14  1  0
 14 15  2  0
 14 16  1  0
 16 17  1  0
 17 18  1  0
 18 19  2  0
 19 20  1  0
 20 21  2  0
 21 22  1  0
 22 23  2  3
 23 24  1  0
 24 25  2  0
 24 26  1  0
 26 27  1  0
 27 28  1  0
 28 29  1  0
 29 30  1  0
 21 31  1  0
 13  4  1  0
 31 18  1  0
 30 26  1  0
  5 32  1  0
  6 33  1  0
  7 34  1  0
 13 35  1  0
 16 36  1  0
 17 37  1  0
 17 38  1  0
 19 39  1  0
 20 40  1  0
 22 41  1  0
 26 42  1  6
 27 43  1  0
 27 44  1  0
 28 45  1  0
 28 46  1  0
 29 47  1  0
 29 48  1  0
 30 49  1  0
 31 50  1  0
M  CHG  1   3  -1
M  END
>  <UniqueID>  (9) 
8

>  <SMILES>  (9) 
O=C([N-]c1cccc(C(F)(F)F)c1)C(=O)NCc1ccc(C=NC(=O)[C@H]2CCCN2)[nH]1

>  <Energy>  (9) 
84.52106970501539

>  <Genealogy>  (9) 
O=C([N-]c1cccc(C(F)(F)F)c1)C(=O)NCc1ccc(C=NC(=O)C2CCCN2)[nH]1 (protonated)
O=C([N-]c1cccc(C(F)(F)F)c1)C(=O)NCc1ccc(C=NC(=O)[C@H]2CCCN2)[nH]1 (chirality)
O=C([N-]c1cccc(C(F)(F)F)c1)C(=O)NCc1ccc(C=NC(=O)[C@H]2CCCN2)[nH]1 (3D coordinates assigned)
O=C([N-]c1cccc(C(F)(F)F)c1)C(=O)NCc1ccc(C=NC(=O)[C@H]2CCCN2)[nH]1 (nonaromatic ring conformer: 84.52106970501539 kcal/mol)

>  <smiles>  (9) 
O=C(NCc1ccc(C=NC(=O)C2CCCN2)[nH]1)C(=O)Nc1cccc(C(F)(F)F)c1

>  <score_type>  (9) 
oracle

>  <origin>  (9) 
adg

>  <m_score__min__energy>  (9) 
-9.9399999999999995

>  <m_primary>  (9) 
energy

$$$$
9:0
     RDKit          3D

 44 47  0  0  0  0  0  0  0  0999 V2000
   68.1700   32.2820   51.6690 C   0  0  0  0  0  0  0  0  0  0  0  0
   66.7730   32.1290   51.1690 C   0  0  0  0  0  0  0  0  0  0  0  0
   65.9010   31.1000   51.5010 C   0  0  0  0  0  0  0  0  0  0  0  0
   64.6830   31.1640   50.8130 C   0  0  0  0  0  0  0  0  0  0  0  0
   64.6030   32.2390   49.9300 C   0  0  0  0  0  0  0  0  0  0  0  0
   63.4730   32.5690   49.0450 C   0  0  0  0  0  0  0  0  0  0  0  0
   63.6450   33.4070   48.1190 O   0  0  0  0  0  0  0  0  0  0  0  0
   62.1780   31.9820   49.2530 N   0  0  0  0  0  0  0  0  0  0  0  0
   61.1330   31.9780   48.2650 C   0  0  0  0  0  0  0  0  0  0  0  0
   60.2610   33.0710   48.1180 C   0  0  0  0  0  0  0  0  0  0  0  0
   59.2710   33.0530   47.1340 C   0  0  0  0  0  0  0  0  0  0  0  0
   59.1440   31.9540   46.2840 C   0  0  0  0  0  0  0  0  0  0  0  0
   60.0120   30.8550   46.4060 C   0  0  0  0  0  0  0  0  0  0  0  0
   59.8880   29.6870   45.5010 C   0  0  0  0  0  0  0  0  0  0  0  0
   60.9210   29.2020   44.9630 O   0  0  0  0  0  0  0  0  0  0  0  0
   58.6030   29.1120   45.1950 N   0  0  0  0  0  0  0  0  0  0  0  0
   57.6880   29.8710   44.3270 C   0  0  0  0  0  0  0  0  0  0  0  0
   56.2540   29.5740   44.6590 C   0  0  0  0  0  0  0  0  0  0  0  0
   55.3540   30.4050   44.3680 O   0  0  0  0  0  0  0  0  0  0  0  0
   55.8970   28.3190   45.2390 N   0  0  0  0  0  0  0  0  0  0  0  0
   56.9030   27.3870   45.6340 C   0  0  0  0  0  0  0  0  0  0  0  0
   56.5370   26.1060   46.0600 C   0  0  0  0  0  0  0  0  0  0  0  0
   57.5190   25.1850   46.4340 C   0  0  0  0  0  0  0  0  0  0  0  0
   58.8690   25.5410   46.3790 C   0  0  0  0  0  0  0  0  0  0  0  0
   59.2410   26.8220   45.9620 C   0  0  0  0  0  0  0  0  0  0  0  0
   58.2590   27.7650   45.5990 C   0  0  0  0  0  0  0  0  0  0  0  0
   61.0160   30.8850   47.3920 C   0  0  0  0  0  0  0  0  0  0  0  0
   66.0530   33.0960   49.9980 S   0  0  0  0  0  0  0  0  0  0  0  0
   68.1678   32.2818   52.7690 H   0  0  0  0  0  0  0  0  0  0  0  0
   68.7840   31.4457   51.3034 H   0  0  0  0  0  0  0  0  0  0  0  0
   68.5884   33.2313   51.3034 H   0  0  0  0  0  0  0  0  0  0  0  0
   66.1430   30.3137   52.2312 H   0  0  0  0  0  0  0  0  0  0  0  0
   63.8696   30.4373   50.9555 H   0  0  0  0  0  0  0  0  0  0  0  0
   61.9430   31.6330   50.2100 H   0  0  0  0  0  0  0  0  0  0  0  0
   60.3592   33.9434   48.7807 H   0  0  0  0  0  0  0  0  0  0  0  0
   58.5882   33.9089   47.0284 H   0  0  0  0  0  0  0  0  0  0  0  0
   58.3593   31.9474   45.5131 H   0  0  0  0  0  0  0  0  0  0  0  0
   57.8728   30.9467   44.4641 H   0  0  0  0  0  0  0  0  0  0  0  0
   57.8725   29.5760   43.2835 H   0  0  0  0  0  0  0  0  0  0  0  0
   55.4747   25.8233   46.1007 H   0  0  0  0  0  0  0  0  0  0  0  0
   57.2291   24.1791   46.7719 H   0  0  0  0  0  0  0  0  0  0  0  0
   59.6409   24.8112   46.6646 H   0  0  0  0  0  0  0  0  0  0  0  0
   60.3055   27.0954   45.9170 H   0  0  0  0  0  0  0  0  0  0  0  0
   61.7172   30.0420   47.4795 H   0  0  0  0  0  0  0  0  0  0  0  0
  1  2  1  0
  2  3  2  0
  3  4  1  0
  4  5  2  0
  5  6  1  0
  6  7  2  0
  6  8  1  0
  8  9  1  0
  9 10  2  0
 10 11  1  0
 11 12  2  0
 12 13  1  0
 13 14  1  0
 14 15  2  0
 14 16  1  0
 16 17  1  0
 17 18  1  0
 18 19  2  0
 18 20  1  0
 20 21  1  0
 21 22  2  0
 22 23  1  0
 23 24  2  0
 24 25  1  0
 25 26  2  0
 13 27  2  0
  5 28  1  0
 28  2  1  0
 27  9  1  0
 26 16  1  0
 26 21  1  0
  1 29  1  0
  1 30  1  0
  1 31  1  0
  3 32  1  0
  4 33  1  0
  8 34  1  0
 10 35  1  0
 11 36  1  0
 12 37  1  0
 17 38  1  0
 17 39  1  0
 22 40  1  0
 23 41  1  0
 24 42  1  0
 25 43  1  0
 27 44  1  0
M  CHG  1  20  -1
M  END
>  <UniqueID>  (10) 
9

>  <SMILES>  (10) 
Cc1ccc(C(=O)Nc2cccc(C(=O)N3CC(=O)[N-]c4ccccc43)c2)s1

>  <Energy>  (10) 
84.69922499306051

>  <Genealogy>  (10) 
Cc1ccc(C(=O)Nc2cccc(C(=O)N3CC(=O)[N-]c4ccccc43)c2)s1 (protonated)
Cc1ccc(C(=O)Nc2cccc(C(=O)N3CC(=O)[N-]c4ccccc43)c2)s1 (3D coordinates assigned)
Cc1ccc(C(=O)Nc2cccc(C(=O)N3CC(=O)[N-]c4ccccc43)c2)s1 (nonaromatic ring conformer: 84.69922499306051 kcal/mol)

>  <smiles>  (10) 
Cc1ccc(C(=O)Nc2cccc(C(=O)N3CC(=O)Nc4ccccc43)c2)s1

>  <score_type>  (10) 
oracle

>  <origin>  (10) 
adg

>  <m_score__min__energy>  (10) 
-11.01

>  <m_primary>  (10) 
energy

$$$$
10:0
     RDKit          3D

 37 39  0  0  0  0  0  0  0  0999 V2000
   58.2050   23.2230   44.7770 C   0  0  0  0  0  0  0  0  0  0  0  0
   57.3810   24.3560   45.2990 C   0  0  0  0  0  0  0  0  0  0  0  0
   55.9860   24.3180   45.2030 C   0  0  0  0  0  0  0  0  0  0  0  0
   55.2550   25.3970   45.7070 C   0  0  0  0  0  0  0  0  0  0  0  0
   53.9990   25.4000   45.6360 O   0  0  0  0  0  0  0  0  0  0  0  0
   55.9030   26.4460   46.2750 N   0  0  0  0  0  0  0  0  0  0  0  0
   57.2580   26.4640   46.3670 C   0  0  0  0  0  0  0  0  0  0  0  0
   58.0850   27.8570   47.1290 S   0  0  0  0  0  0  0  0  0  0  0  0
   58.4130   28.7230   45.5560 C   0  0  0  0  0  0  0  0  0  0  0  0
   57.2970   29.6730   45.2350 C   0  0  0  0  0  0  0  0  0  0  0  0
   56.1070   29.2600   45.2640 O   0  0  0  0  0  0  0  0  0  0  0  0
   57.5730   31.0470   44.7790 C   0  0  0  0  0  0  0  0  0  0  0  0
   57.3600   31.5590   43.4970 C   0  0  0  0  0  0  0  0  0  0  0  0
   56.8530   30.7890   42.3190 C   0  0  0  0  0  0  0  0  0  0  0  0
   57.7740   32.8450   43.4230 N   0  0  0  0  0  0  0  0  0  0  0  0
   58.2260   33.1590   44.6490 C   0  0  0  0  0  0  0  0  0  0  0  0
   58.7320   34.3890   45.0670 C   0  0  0  0  0  0  0  0  0  0  0  0
   59.1240   34.5200   46.4120 C   0  0  0  0  0  0  0  0  0  0  0  0
   59.6360   35.7360   46.8590 O   0  0  0  0  0  0  0  0  0  0  0  0
   58.9920   33.4270   47.3010 C   0  0  0  0  0  0  0  0  0  0  0  0
   58.4760   32.1980   46.8520 C   0  0  0  0  0  0  0  0  0  0  0  0
   58.1170   32.0910   45.5060 C   0  0  0  0  0  0  0  0  0  0  0  0
   57.9870   25.4260   45.8790 N   0  0  0  0  0  0  0  0  0  0  0  0
   58.6201   22.6523   45.6208 H   0  0  0  0  0  0  0  0  0  0  0  0
   57.5742   22.5633   44.1631 H   0  0  0  0  0  0  0  0  0  0  0  0
   59.0270   23.6198   44.1631 H   0  0  0  0  0  0  0  0  0  0  0  0
   55.4765   23.4591   44.7417 H   0  0  0  0  0  0  0  0  0  0  0  0
   59.3539   29.2862   45.6425 H   0  0  0  0  0  0  0  0  0  0  0  0
   58.4887   27.9785   44.7498 H   0  0  0  0  0  0  0  0  0  0  0  0
   56.2796   29.9181   42.6694 H   0  0  0  0  0  0  0  0  0  0  0  0
   56.2032   31.4352   41.7107 H   0  0  0  0  0  0  0  0  0  0  0  0
   57.7034   30.4474   41.7107 H   0  0  0  0  0  0  0  0  0  0  0  0
   57.7520   33.4660   42.5830 H   0  0  0  0  0  0  0  0  0  0  0  0
   58.8221   35.2320   44.3662 H   0  0  0  0  0  0  0  0  0  0  0  0
   59.0910   36.3560   47.4460 H   0  0  0  0  0  0  0  0  0  0  0  0
   59.2956   33.5395   48.3523 H   0  0  0  0  0  0  0  0  0  0  0  0
   58.3587   31.3473   47.5394 H   0  0  0  0  0  0  0  0  0  0  0  0
  1  2  1  0
  2  3  2  0
  3  4  1  0
  4  5  2  0
  4  6  1  0
  6  7  1  0
  7  8  1  0
  8  9  1  0
  9 10  1  0
 10 11  2  0
 10 12  1  0
 12 13  2  0
 13 14  1  0
 13 15  1  0
 15 16  1  0
 16 17  2  0
 17 18  1  0
 18 19  1  0
 18 20  2  0
 20 21  1  0
 21 22  2  0
  7 23  2  0
 23  2  1  0
 22 12  1  0
 22 16  1  0
  1 24  1  0
  1 25  1  0
  1 26  1  0
  3 27  1  0
  9 28  1  0
  9 29  1  0
 14 30  1  0
 14 31  1  0
 14 32  1  0
 15 33  1  0
 17 34  1  0
 19 35  1  0
 20 36  1  0
 21 37  1  0
M  CHG  1   6  -1
M  END
>  <UniqueID>  (11) 
10

>  <SMILES>  (11) 
Cc1cc(=O)[n-]c(SCC(=O)c2c(C)[nH]c3cc(O)ccc23)n1

>  <Energy>  (11) 
70.66797414998138

>  <Genealogy>  (11) 
Cc1cc(=O)[n-]c(SCC(=O)c2c(C)[nH]c3cc(O)ccc23)n1 (protonated)
Cc1cc(=O)[n-]c(SCC(=O)c2c(C)[nH]c3cc(O)ccc23)n1 (3D coordinates assigned)
Cc1cc(=O)[n-]c(SCC(=O)c2c(C)[nH]c3cc(O)ccc23)n1 (optimized conformer: 70.66797414998138 kcal/mol)

>  <smiles>  (11) 
Cc1cc(=O)[nH]c(SCC(=O)c2c(C)[nH]c3cc(O)ccc23)n1

>  <score_type>  (11) 
oracle

>  <origin>  (11) 
adg

>  <m_score__min__energy>  (11) 
-9.6099999999999994

>  <m_primary>  (11) 
energy

$$$$
11:0
     RDKit          3D

 64 67  0  0  1  0  0  0  0  0999 V2000
   58.0370   29.1300   52.8600 C   0  0  0  0  0  0  0  0  0  0  0  0
   59.3100   29.9020   52.8170 C   0  0  0  0  0  0  0  0  0  0  0  0
   60.3900   29.2930   53.0560 O   0  0  0  0  0  0  0  0  0  0  0  0
   59.3330   31.2840   52.5210 N   0  0  0  0  0  0  0  0  0  0  0  0
   58.1110   32.0030   52.2240 C   0  0  0  0  0  0  0  0  0  0  0  0
   58.3020   32.6370   50.8460 C   0  0  0  0  0  0  0  0  0  0  0  0
   59.6140   33.2250   50.7250 N   0  0  0  0  0  0  0  0  0  0  0  0
   60.1680   33.6520   49.5110 C   0  0  0  0  0  0  0  0  0  0  0  0
   61.3540   34.1780   49.5000 O   0  0  0  0  0  0  0  0  0  0  0  0
   59.5520   33.5780   48.2010 C   0  0  0  0  0  0  0  0  0  0  0  0
   58.3900   32.8080   48.0410 C   0  0  0  0  0  0  0  0  0  0  0  0
   57.7550   32.7280   46.8430 C   0  0  0  0  0  0  0  0  0  0  0  0
   58.2640   33.4120   45.7820 C   0  0  0  0  0  0  0  0  0  0  0  0
   57.5710   33.3020   44.4090 C   0  0  0  0  0  0  0  0  0  0  0  0
   58.1110   32.0450   44.1230 N   0  0  0  0  0  0  0  0  0  0  0  0
   57.4940   30.9430   44.3160 C   0  0  0  0  0  0  0  0  0  0  0  0
   56.2020   30.9610   43.8910 N   0  0  0  0  0  0  0  0  0  0  0  0
   55.4080   29.9210   44.1360 C   0  0  0  0  0  0  0  0  0  0  0  0
   55.8820   28.8590   44.8030 N   0  0  0  0  0  0  0  0  0  0  0  0
   57.1870   28.8090   45.2450 C   0  0  0  0  0  0  0  0  0  0  0  0
   58.0370   29.8630   45.0010 C   0  0  0  0  0  0  0  0  0  0  0  0
   59.4680   30.0720   45.1720 C   0  0  0  0  0  0  0  0  0  0  0  0
   59.8030   28.9840   46.2600 C   0  0  0  0  0  0  0  0  0  0  0  0
   58.8020   29.0090   47.2800 N   0  0  0  0  0  0  0  0  0  0  0  0
   59.5740   29.0110   48.8570 S   0  0  0  0  0  0  0  0  0  0  0  0
   60.9760   30.0750   48.9150 C   0  0  0  0  0  0  0  0  0  0  0  0
   58.5700   29.5840   49.8470 O   0  0  0  0  0  0  0  0  0  0  0  0
   59.8970   27.6390   49.3180 O   0  0  0  0  0  0  0  0  0  0  0  0
   58.0760   27.7270   47.2530 C   0  0  0  0  0  0  0  0  0  0  0  0
   57.3050   27.5530   46.0170 C   0  0  0  0  0  0  0  0  0  0  0  0
   59.4220   34.1830   45.9200 C   0  0  0  0  0  0  0  0  0  0  0  0
   60.0870   34.2800   47.1350 C   0  0  0  0  0  0  0  0  0  0  0  0
   60.4220   33.3960   51.9310 C   0  0  0  0  0  0  0  0  0  0  0  0
   60.5940   31.9980   52.5240 C   0  0  0  0  0  0  0  0  0  0  0  0
   57.7492   28.9555   53.9072 H   0  0  0  0  0  0  0  0  0  0  0  0
   57.2451   29.7001   52.3523 H   0  0  0  0  0  0  0  0  0  0  0  0
   58.1765   28.1642   52.3523 H   0  0  0  0  0  0  0  0  0  0  0  0
   57.2570   31.3099   52.2079 H   0  0  0  0  0  0  0  0  0  0  0  0
   57.9046   32.7675   52.9875 H   0  0  0  0  0  0  0  0  0  0  0  0
   58.1822   31.8626   50.0740 H   0  0  0  0  0  0  0  0  0  0  0  0
   57.5496   33.4291   50.7172 H   0  0  0  0  0  0  0  0  0  0  0  0
   57.9851   32.2580   48.9033 H   0  0  0  0  0  0  0  0  0  0  0  0
   56.8446   32.1206   46.7321 H   0  0  0  0  0  0  0  0  0  0  0  0
   56.4732   33.2955   44.4780 H   0  0  0  0  0  0  0  0  0  0  0  0
   57.7286   34.1121   43.6818 H   0  0  0  0  0  0  0  0  0  0  0  0
   54.3635   29.9330   43.7913 H   0  0  0  0  0  0  0  0  0  0  0  0
   55.2300   28.0800   44.9760 H   0  0  0  0  0  0  0  0  0  0  0  0
   60.0174   29.8903   44.2365 H   0  0  0  0  0  0  0  0  0  0  0  0
   59.7455   31.0978   45.4562 H   0  0  0  0  0  0  0  0  0  0  0  0
   59.8237   27.9895   45.7904 H   0  0  0  0  0  0  0  0  0  0  0  0
   60.7860   29.1991   46.7044 H   0  0  0  0  0  0  0  0  0  0  0  0
   61.2407   30.2759   49.9636 H   0  0  0  0  0  0  0  0  0  0  0  0
   61.8245   29.5914   48.4088 H   0  0  0  0  0  0  0  0  0  0  0  0
   60.7386   31.0223   48.4088 H   0  0  0  0  0  0  0  0  0  0  0  0
   58.8035   26.9060   47.3353 H   0  0  0  0  0  0  0  0  0  0  0  0
   57.3691   27.7213   48.0958 H   0  0  0  0  0  0  0  0  0  0  0  0
   57.8057   26.7994   45.3914 H   0  0  0  0  0  0  0  0  0  0  0  0
   56.2900   27.2344   46.2967 H   0  0  0  0  0  0  0  0  0  0  0  0
   59.8149   34.7246   45.0469 H   0  0  0  0  0  0  0  0  0  0  0  0
   60.9976   34.8872   47.2453 H   0  0  0  0  0  0  0  0  0  0  0  0
   61.4018   33.8266   51.6768 H   0  0  0  0  0  0  0  0  0  0  0  0
   59.9405   34.0803   52.6451 H   0  0  0  0  0  0  0  0  0  0  0  0
   61.3275   31.4388   51.9246 H   0  0  0  0  0  0  0  0  0  0  0  0
   60.9448   32.0938   53.5622 H   0  0  0  0  0  0  0  0  0  0  0  0
  1  2  1  0
  2  3  2  0
  2  4  1  0
  4  5  1  0
  5  6  1  0
  6  7  1  0
  7  8  1  0
  8  9  2  0
  8 10  1  0
 10 11  2  0
 11 12  1  0
 12 13  2  0
 13 14  1  0
 14 15  1  0
 15 16  2  0
 16 17  1  0
 17 18  2  0
 18 19  1  0
 19 20  1  0
 20 21  2  0
 21 22  1  0
 22 23  1  0
 23 24  1  0
 24 25  1  0
 25 26  1  0
 25 27  2  0
 25 28  2  0
 24 29  1  0
 29 30  1  0
 13 31  1  0
 31 32  2  0
  7 33  1  0
 33 34  1  0
 34  4  1  0
 32 10  1  0
 21 16  1  0
 30 20  1  0
  1 35  1  0
  1 36  1  0
  1 37  1  0
  5 38  1  0
  5 39  1  0
  6 40  1  0
  6 41  1  0
 11 42  1  0
 12 43  1  0
 14 44  1  0
 14 45  1  0
 18 46  1  0
 19 47  1  0
 22 48  1  0
 22 49  1  0
 23 50  1  0
 23 51  1  0
 26 52  1  0
 26 53  1  0
 26 54  1  0
 29 55  1  0
 29 56  1  0
 30 57  1  0
 30 58  1  0
 31 59  1  0
 32 60  1  0
 33 61  1  0
 33 62  1  0
 34 63  1  0
 34 64  1  0
M  END
>  <smiles>  (12) 
CC(=O)N1CCN(C(=O)c2ccc(CN=c3nc[nH]c4c3CCN(S(C)(=O)=O)CC4)cc2)CC1

>  <score_type>  (12) 
oracle

>  <origin>  (12) 
adg

>  <m_score__min__energy>  (12) 
-8.8300000000000001

>  <m_primary>  (12) 
energy

$$$$
12:0
     RDKit          3D

 80 85  0  0  1  0  0  0  0  0999 V2000
   63.0240   34.3790   50.6110 C   0  0  0  0  0  0  0  0  0  0  0  0
   62.5710   33.8180   49.3120 C   0  0  0  0  0  0  0  0  0  0  0  0
   63.3580   32.8940   48.6530 C   0  0  0  0  0  0  0  0  0  0  0  0
   62.8960   32.4080   47.4630 C   0  0  0  0  0  0  0  0  0  0  0  0
   61.6920   32.7970   46.8980 C   0  0  0  0  0  0  0  0  0  0  0  0
   60.8920   33.7270   47.5520 C   0  0  0  0  0  0  0  0  0  0  0  0
   59.6620   34.1340   47.0100 N   0  0  0  0  0  0  0  0  0  0  0  0
   58.3680   33.6260   47.4430 C   0  0  0  0  0  0  0  0  0  0  0  0
   57.8440   32.7290   46.3420 C   0  0  0  0  0  0  0  0  0  0  0  0
   58.4550   33.1240   45.1050 N   0  0  0  0  0  0  0  0  0  0  0  0
   57.7370   32.6940   43.9220 C   0  0  0  0  0  0  0  0  0  0  0  0
   58.0610   31.3030   43.4830 C   0  0  0  0  0  0  0  0  0  0  0  0
   56.7600   30.5500   43.3740 C   0  0  0  0  0  0  0  0  0  0  0  0
   56.2500   30.2780   42.2460 O   0  0  0  0  0  0  0  0  0  0  0  0
   56.1570   30.1760   44.6030 N   0  0  0  0  0  0  0  0  0  0  0  0
   56.7240   29.2520   45.3010 C   0  0  0  0  0  0  0  0  0  0  0  0
   57.9390   29.4430   45.9560 C   0  0  0  0  0  0  0  0  0  0  0  0
   58.5380   28.4360   46.6980 C   0  0  0  0  0  0  0  0  0  0  0  0
   59.7610   28.6180   47.3400 N   0  0  0  0  0  0  0  0  0  0  0  0
   60.7410   27.5280   47.4700 C   0  0  0  0  0  0  0  0  0  0  0  0
   60.4260   26.9540   48.8440 C   0  0  0  0  0  0  0  0  0  0  0  0
   60.3880   28.1320   49.7700 C   0  0  0  0  0  0  0  0  0  0  0  0
   60.4580   27.7980   51.0940 N   0  0  0  0  0  0  0  0  0  0  0  0
   60.4610   28.7390   52.0170 C   0  0  0  0  0  0  0  0  0  0  0  0
   60.3980   30.0200   51.6760 N   0  0  0  0  0  0  0  0  0  0  0  0
   60.3270   30.3940   50.3710 C   0  0  0  0  0  0  0  0  0  0  0  0
   60.2980   31.6380   50.1700 N   0  0  0  0  0  0  0  0  0  0  0  0
   59.1760   32.4500   50.3400 C   0  0  1  0  0  0  0  0  0  0  0  0
   57.9130   31.7550   50.8120 C   0  0  0  0  0  0  0  0  0  0  0  0
   59.5750   33.0560   51.7540 C   0  0  0  0  0  0  0  0  0  0  0  0
   58.7950   34.2190   52.1970 C   0  0  0  0  0  0  0  0  0  0  0  0
   58.6110   32.9250   52.8870 C   0  0  0  0  0  0  0  0  0  0  0  0
   60.3180   29.4390   49.3460 C   0  0  0  0  0  0  0  0  0  0  0  0
   60.2110   29.8910   47.9510 C   0  0  0  0  0  0  0  0  0  0  0  0
   57.8400   27.2350   46.7370 C   0  0  0  0  0  0  0  0  0  0  0  0
   56.6220   27.0830   46.0660 C   0  0  0  0  0  0  0  0  0  0  0  0
   56.0620   28.0690   45.3550 N   0  0  0  0  0  0  0  0  0  0  0  0
   58.5020   34.5940   45.0000 C   0  0  0  0  0  0  0  0  0  0  0  0
   59.6010   35.1310   45.9290 C   0  0  0  0  0  0  0  0  0  0  0  0
   61.3590   34.2110   48.7450 C   0  0  0  0  0  0  0  0  0  0  0  0
   62.5661   33.8120   51.4349 H   0  0  0  0  0  0  0  0  0  0  0  0
   64.1194   34.3059   50.6799 H   0  0  0  0  0  0  0  0  0  0  0  0
   62.7219   35.4344   50.6799 H   0  0  0  0  0  0  0  0  0  0  0  0
   64.3201   32.5621   49.0705 H   0  0  0  0  0  0  0  0  0  0  0  0
   63.5107   31.6706   46.9261 H   0  0  0  0  0  0  0  0  0  0  0  0
   61.3705   32.3716   45.9359 H   0  0  0  0  0  0  0  0  0  0  0  0
   58.4818   33.0515   48.3742 H   0  0  0  0  0  0  0  0  0  0  0  0
   57.6698   34.4539   47.6356 H   0  0  0  0  0  0  0  0  0  0  0  0
   58.0979   31.6819   46.5638 H   0  0  0  0  0  0  0  0  0  0  0  0
   56.7503   32.8207   46.2689 H   0  0  0  0  0  0  0  0  0  0  0  0
   56.6589   32.7469   44.1341 H   0  0  0  0  0  0  0  0  0  0  0  0
   58.0429   33.3637   43.1047 H   0  0  0  0  0  0  0  0  0  0  0  0
   58.5656   31.3251   42.5058 H   0  0  0  0  0  0  0  0  0  0  0  0
   58.7330   30.8148   44.2042 H   0  0  0  0  0  0  0  0  0  0  0  0
   58.4375   30.4208   45.8824 H   0  0  0  0  0  0  0  0  0  0  0  0
   60.6001   26.7724   46.6831 H   0  0  0  0  0  0  0  0  0  0  0  0
   61.7832   27.8646   47.3669 H   0  0  0  0  0  0  0  0  0  0  0  0
   59.4525   26.4420   48.8329 H   0  0  0  0  0  0  0  0  0  0  0  0
   61.1746   26.2116   49.1580 H   0  0  0  0  0  0  0  0  0  0  0  0
   60.5080   26.8010   51.4040 H   0  0  0  0  0  0  0  0  0  0  0  0
   60.5162   28.4600   53.0796 H   0  0  0  0  0  0  0  0  0  0  0  0
   58.9853   33.0145   49.4154 H   0  0  0  0  0  0  0  0  0  0  0  0
   57.8904   31.7426   51.9117 H   0  0  0  0  0  0  0  0  0  0  0  0
   57.0333   32.2961   50.4333 H   0  0  0  0  0  0  0  0  0  0  0  0
   57.8993   30.7223   50.4333 H   0  0  0  0  0  0  0  0  0  0  0  0
   60.6407   32.8150   51.6267 H   0  0  0  0  0  0  0  0  0  0  0  0
   59.2967   35.0494   52.7154 H   0  0  0  0  0  0  0  0  0  0  0  0
   58.1210   34.9320   51.6996 H   0  0  0  0  0  0  0  0  0  0  0  0
   58.9811   32.7894   53.9139 H   0  0  0  0  0  0  0  0  0  0  0  0
   57.7536   32.2741   53.1132 H   0  0  0  0  0  0  0  0  0  0  0  0
   59.4680   30.6933   47.8314 H   0  0  0  0  0  0  0  0  0  0  0  0
   61.1228   30.3307   47.5206 H   0  0  0  0  0  0  0  0  0  0  0  0
   58.2527   26.3887   47.3057 H   0  0  0  0  0  0  0  0  0  0  0  0
   56.1038   26.1145   46.1251 H   0  0  0  0  0  0  0  0  0  0  0  0
   55.1550   27.9130   44.8720 H   0  0  0  0  0  0  0  0  0  0  0  0
   58.7244   34.8819   43.9619 H   0  0  0  0  0  0  0  0  0  0  0  0
   57.5300   35.0171   45.2937 H   0  0  0  0  0  0  0  0  0  0  0  0
   60.5637   35.1964   45.4009 H   0  0  0  0  0  0  0  0  0  0  0  0
   59.3900   36.1460   46.2967 H   0  0  0  0  0  0  0  0  0  0  0  0
   60.7461   34.9483   49.2842 H   0  0  0  0  0  0  0  0  0  0  0  0
  1  2  1  0
  2  3  2  0
  3  4  1  0
  4  5  2  0
  5  6  1  0
  6  7  1  0
  7  8  1  0
  8  9  1  0
  9 10  1  0
 10 11  1  0
 11 12  1  0
 12 13  1  0
 13 14  2  0
 13 15  1  0
 15 16  2  0
 16 17  1  0
 17 18  2  0
 18 19  1  0
 19 20  1  0
 20 21  1  0
 21 22  1  0
 22 23  1  0
 23 24  1  0
 24 25  2  0
 25 26  1  0
 26 27  2  0
 27 28  1  0
 28 29  1  0
 28 30  1  0
 30 31  1  0
 31 32  1  0
 26 33  1  0
 33 34  1  0
 18 35  1  0
 35 36  2  0
 36 37  1  0
 10 38  1  0
 38 39  1  0
  6 40  2  0
 40  2  1  0
 39  7  1  0
 37 16  1  0
 34 19  1  0
 33 22  2  0
 32 30  1  0
  1 41  1  0
  1 42  1  0
  1 43  1  0
  3 44  1  0
  4 45  1  0
  5 46  1  0
  8 47  1  0
  8 48  1  0
  9 49  1  0
  9 50  1  0
 11 51  1  0
 11 52  1  0
 12 53  1  0
 12 54  1  0
 17 55  1  0
 20 56  1  0
 20 57  1  0
 21 58  1  0
 21 59  1  0
 23 60  1  0
 24 61  1  0
 28 62  1  6
 29 63  1  0
 29 64  1  0
 29 65  1  0
 30 66  1  0
 31 67  1  0
 31 68  1  0
 32 69  1  0
 32 70  1  0
 34 71  1  0
 34 72  1  0
 35 73  1  0
 36 74  1  0
 37 75  1  0
 38 76  1  0
 38 77  1  0
 39 78  1  0
 39 79  1  0
 40 80  1  0
M  END
>  <smiles>  (13) 
Cc1cccc(N2CCN(CCC(=O)N=c3cc(N4CCc5[nH]cnc(=NC(C)C6CC6)c5C4)cc[nH]3)CC2)c1

>  <score_type>  (13) 
oracle

>  <origin>  (13) 
adg

>  <m_score__min__energy>  (13) 
-10.640000000000001

>  <m_primary>  (13) 
energy

$$$$
13:0
     RDKit          3D

 62 66  0  0  0  0  0  0  0  0999 V2000
   62.4680   28.0310   52.0980 H   0  0  0  0  0  0  0  0  0  0  0  0
   61.9090   27.4690   51.4160 N   0  0  0  0  0  0  0  0  0  0  0  0
   61.2790   28.0300   50.4360 C   0  0  0  0  0  0  0  0  0  0  0  0
   61.4430   29.3560   50.1790 N   0  0  0  0  0  0  0  0  0  0  0  0
   60.7900   29.9640   49.1550 C   0  0  0  0  0  0  0  0  0  0  0  0
   60.9376   31.0373   48.9648 H   0  0  0  0  0  0  0  0  0  0  0  0
   59.9240   29.2140   48.3390 C   0  0  0  0  0  0  0  0  0  0  0  0
   59.1890   29.8350   47.2080 C   0  0  0  0  0  0  0  0  0  0  0  0
   58.9600   29.1120   46.0250 C   0  0  0  0  0  0  0  0  0  0  0  0
   59.3164   28.0746   45.9432 H   0  0  0  0  0  0  0  0  0  0  0  0
   58.2850   29.6970   44.9530 C   0  0  0  0  0  0  0  0  0  0  0  0
   58.1136   29.1144   44.0358 H   0  0  0  0  0  0  0  0  0  0  0  0
   57.8210   31.0230   45.0310 C   0  0  0  0  0  0  0  0  0  0  0  0
   57.0500   31.6520   43.8770 C   0  0  0  0  0  0  0  0  0  0  0  0
   56.1252   31.9023   44.4176 H   0  0  0  0  0  0  0  0  0  0  0  0
   57.8070   32.7380   43.1130 C   0  0  0  0  0  0  0  0  0  0  0  0
   57.2592   33.6873   43.0202 H   0  0  0  0  0  0  0  0  0  0  0  0
   58.7616   33.1275   43.4964 H   0  0  0  0  0  0  0  0  0  0  0  0
   57.7730   31.8740   41.8580 C   0  0  0  0  0  0  0  0  0  0  0  0
   57.2120   32.3189   41.0229 H   0  0  0  0  0  0  0  0  0  0  0  0
   58.7058   31.6267   41.3300 H   0  0  0  0  0  0  0  0  0  0  0  0
   57.0090   30.7940   42.6130 C   0  0  0  0  0  0  0  0  0  0  0  0
   55.9952   30.6085   42.2284 H   0  0  0  0  0  0  0  0  0  0  0  0
   57.3787   29.7581   42.6301 H   0  0  0  0  0  0  0  0  0  0  0  0
   58.0300   31.7480   46.2230 C   0  0  0  0  0  0  0  0  0  0  0  0
   57.5360   33.0530   46.3410 O   0  0  0  0  0  0  0  0  0  0  0  0
   58.3600   34.2030   46.1570 C   0  0  0  0  0  0  0  0  0  0  0  0
   58.6173   34.3010   45.0920 H   0  0  0  0  0  0  0  0  0  0  0  0
   57.8139   35.0976   46.4908 H   0  0  0  0  0  0  0  0  0  0  0  0
   59.6210   34.0620   46.9640 C   0  0  0  0  0  0  0  0  0  0  0  0
   60.7590   33.4670   46.3980 C   0  0  0  0  0  0  0  0  0  0  0  0
   60.7531   33.1724   45.3382 H   0  0  0  0  0  0  0  0  0  0  0  0
   61.9000   33.2470   47.1750 C   0  0  0  0  0  0  0  0  0  0  0  0
   62.7898   32.7846   46.7228 H   0  0  0  0  0  0  0  0  0  0  0  0
   61.9150   33.6130   48.5270 C   0  0  0  0  0  0  0  0  0  0  0  0
   63.3490   33.3150   49.5100 S   0  0  0  0  0  0  0  0  0  0  0  0
   63.6560   34.5460   50.3170 O   0  0  0  0  0  0  0  0  0  0  0  0
   64.5210   33.0480   48.6050 O   0  0  0  0  0  0  0  0  0  0  0  0
   63.1270   31.9610   50.5910 N   0  0  0  0  0  0  0  0  0  0  0  0
   62.5160   31.2700   50.0950 H   0  0  0  0  0  0  0  0  0  0  0  0
   64.4180   31.3230   50.8970 C   0  0  0  0  0  0  0  0  0  0  0  0
   64.8639   30.9456   49.9649 H   0  0  0  0  0  0  0  0  0  0  0  0
   65.0789   32.0690   51.3624 H   0  0  0  0  0  0  0  0  0  0  0  0
   64.2280   30.1460   51.8810 C   0  0  0  0  0  0  0  0  0  0  0  0
   64.4995   29.2104   51.3701 H   0  0  0  0  0  0  0  0  0  0  0  0
   64.8728   30.3290   52.7532 H   0  0  0  0  0  0  0  0  0  0  0  0
   62.8930   30.0420   52.3430 O   0  0  0  0  0  0  0  0  0  0  0  0
   62.4810   31.2740   52.9000 C   0  0  0  0  0  0  0  0  0  0  0  0
   61.4723   31.1569   53.3228 H   0  0  0  0  0  0  0  0  0  0  0  0
   63.1995   31.5595   53.6825 H   0  0  0  0  0  0  0  0  0  0  0  0
   62.4530   32.3910   51.8310 C   0  0  0  0  0  0  0  0  0  0  0  0
   61.4068   32.6421   51.6020 H   0  0  0  0  0  0  0  0  0  0  0  0
   62.9844   33.2677   52.2298 H   0  0  0  0  0  0  0  0  0  0  0  0
   60.7760   34.2030   49.0950 C   0  0  0  0  0  0  0  0  0  0  0  0
   60.7824   34.4961   50.1552 H   0  0  0  0  0  0  0  0  0  0  0  0
   59.6340   34.4200   48.3210 C   0  0  0  0  0  0  0  0  0  0  0  0
   58.7413   34.8732   48.7767 H   0  0  0  0  0  0  0  0  0  0  0  0
   58.7260   31.1620   47.2940 C   0  0  0  0  0  0  0  0  0  0  0  0
   58.9400   31.8890   48.4210 F   0  0  0  0  0  0  0  0  0  0  0  0
   59.7710   27.8860   48.6010 N   0  0  0  0  0  0  0  0  0  0  0  0
   60.4220   27.2780   49.6260 C   0  0  0  0  0  0  0  0  0  0  0  0
   60.2767   26.2046   49.8173 H   0  0  0  0  0  0  0  0  0  0  0  0
  1  2  1  0
  2  3  2  0
  3  4  1  0
  4  5  1  0
  5  6  1  0
  5  7  2  0
  7  8  1  0
  8  9  2  0
  9 10  1  0
  9 11  1  0
 11 12  1  0
 11 13  2  0
 13 14  1  0
 14 15  1  0
 14 16  1  0
 16 17  1  0
 16 18  1  0
 16 19  1  0
 19 20  1  0
 19 21  1  0
 19 22  1  0
 22 23  1  0
 22 24  1  0
 13 25  1  0
 25 26  1  0
 26 27  1  0
 27 28  1  0
 27 29  1  0
 27 30  1  0
 30 31  2  0
 31 32  1  0
 31 33  1  0
 33 34  1  0
 33 35  2  0
 35 36  1  0
 36 37  2  0
 36 38  2  0
 36 39  1  0
 39 40  1  0
 39 41  1  0
 41 42  1  0
 41 43  1  0
 41 44  1  0
 44 45  1  0
 44 46  1  0
 44 47  1  0
 47 48  1  0
 48 49  1  0
 48 50  1  0
 48 51  1  0
 51 52  1  0
 51 53  1  0
 35 54  1  0
 54 55  1  0
 54 56  2  0
 56 57  1  0
 25 58  2  0
 58 59  1  0
  7 60  1  0
 60 61  2  0
 61 62  1  0
 61  3  1  0
 58  8  1  0
 22 14  1  0
 56 30  1  0
 51 39  1  0
M  CHG  2   4  -1  39   1
M  END
>  <UniqueID>  (14) 
11

>  <SMILES>  (14) 
[H]/N=c1/cnc(-c2ccc(C3CCC3)c(OCc3ccc(S(=O)(=O)[NH+]4CCOCC4)cc3)c2F)c[n-]1

>  <Energy>  (14) 
143.92327909554635

>  <Genealogy>  (14) 
N=c1cnc(-c2ccc(C3CCC3)c(OCc3ccc(S(=O)(=O)[NH+]4CCOCC4)cc3)c2F)c[n-]1 (protonated)
[H]/N=c1/cnc(-c2ccc(C3CCC3)c(OCc3ccc(S(=O)(=O)[NH+]4CCOCC4)cc3)c2F)c[n-]1 (cis-trans isomerization)
[H]/N=c1/cnc(-c2ccc(C3CCC3)c(OCc3ccc(S(=O)(=O)[NH+]4CCOCC4)cc3)c2F)c[n-]1 (3D coordinates assigned)
[H]/N=c1/cnc(-c2ccc(C3CCC3)c(OCc3ccc(S(=O)(=O)[NH+]4CCOCC4)cc3)c2F)c[n-]1 (nonaromatic ring conformer: 143.92327909554635 kcal/mol)

>  <smiles>  (14) 
N=c1cnc(-c2ccc(C3CCC3)c(OCc3ccc(S(=O)(=O)N4CCOCC4)cc3)c2F)c[nH]1

>  <score_type>  (14) 
oracle

>  <origin>  (14) 
adg

>  <m_score__min__energy>  (14) 
-10.02

>  <m_primary>  (14) 
energy

$$$$
14:0
     RDKit          3D

 58 61  0  0  0  0  0  0  0  0999 V2000
   57.4263   30.5378   42.6435 H   0  0  0  0  0  0  0  0  0  0  0  0
   57.6230   29.8150   43.4490 C   0  0  0  0  0  0  0  0  0  0  0  0
   57.4928   28.7382   43.2656 H   0  0  0  0  0  0  0  0  0  0  0  0
   58.0220   30.2470   44.6560 C   0  0  0  0  0  0  0  0  0  0  0  0
   58.3130   29.4600   45.7840 C   0  0  0  0  0  0  0  0  0  0  0  0
   58.4130   28.1250   45.9360 C   0  0  0  0  0  0  0  0  0  0  0  0
   59.4246   27.7063   46.0425 H   0  0  0  0  0  0  0  0  0  0  0  0
   57.2880   27.1790   45.9720 C   0  0  0  0  0  0  0  0  0  0  0  0
   57.3510   25.9400   46.4980 N   0  0  0  0  0  0  0  0  0  0  0  0
   56.0750   25.5040   46.4100 C   0  0  0  0  0  0  0  0  0  0  0  0
   55.7250   24.3580   46.7930 O   0  0  0  0  0  0  0  0  0  0  0  0
   55.2020   26.3980   45.8890 N   0  0  0  0  0  0  0  0  0  0  0  0
   55.9860   27.4560   45.6310 C   0  0  0  0  0  0  0  0  0  0  0  0
   55.5210   28.6510   45.0920 O   0  0  0  0  0  0  0  0  0  0  0  0
   58.5160   30.3430   46.8290 C   0  0  0  0  0  0  0  0  0  0  0  0
   58.7189   30.0800   47.8776 H   0  0  0  0  0  0  0  0  0  0  0  0
   58.4160   31.6140   46.3080 C   0  0  0  0  0  0  0  0  0  0  0  0
   58.6370   32.8400   47.1080 C   0  0  0  0  0  0  0  0  0  0  0  0
   57.7540   33.1460   47.9550 O   0  0  0  0  0  0  0  0  0  0  0  0
   59.8110   33.6900   46.9130 N   0  0  0  0  0  0  0  0  0  0  0  0
   59.6110   34.3150   46.1000 H   0  0  0  0  0  0  0  0  0  0  0  0
   60.0780   34.5870   48.0690 C   0  0  0  0  0  0  0  0  0  0  0  0
   60.8330   35.3304   47.7734 H   0  0  0  0  0  0  0  0  0  0  0  0
   59.1294   35.0687   48.3485 H   0  0  0  0  0  0  0  0  0  0  0  0
   60.5950   33.8170   49.2950 C   0  0  0  0  0  0  0  0  0  0  0  0
   60.8986   34.5303   50.0754 H   0  0  0  0  0  0  0  0  0  0  0  0
   59.7975   33.1671   49.6844 H   0  0  0  0  0  0  0  0  0  0  0  0
   61.7460   33.0000   48.9050 N   0  0  0  0  0  0  0  0  0  0  0  0
   63.0610   33.3270   49.3980 C   0  0  0  0  0  0  0  0  0  0  0  0
   63.3830   34.5410   49.5250 O   0  0  0  0  0  0  0  0  0  0  0  0
   64.0880   32.2770   49.7720 C   0  0  0  0  0  0  0  0  0  0  0  0
   64.0478   31.5012   48.9932 H   0  0  0  0  0  0  0  0  0  0  0  0
   65.5610   32.7780   49.7120 C   0  0  0  0  0  0  0  0  0  0  0  0
   66.0324   32.3704   48.8055 H   0  0  0  0  0  0  0  0  0  0  0  0
   65.5325   33.8776   49.7037 H   0  0  0  0  0  0  0  0  0  0  0  0
   66.3940   32.3520   50.9290 C   0  0  0  0  0  0  0  0  0  0  0  0
   67.4581   32.5367   50.7200 H   0  0  0  0  0  0  0  0  0  0  0  0
   66.0675   32.9370   51.8015 H   0  0  0  0  0  0  0  0  0  0  0  0
   66.1930   30.8640   51.2330 C   0  0  0  0  0  0  0  0  0  0  0  0
   66.5636   30.2786   50.3787 H   0  0  0  0  0  0  0  0  0  0  0  0
   66.7470   30.6391   52.1563 H   0  0  0  0  0  0  0  0  0  0  0  0
   64.7120   30.4920   51.4800 C   0  0  0  0  0  0  0  0  0  0  0  0
   64.4723   29.6047   50.8756 H   0  0  0  0  0  0  0  0  0  0  0  0
   64.6043   30.3093   52.5594 H   0  0  0  0  0  0  0  0  0  0  0  0
   63.7200   31.6090   51.1150 C   0  0  0  0  0  0  0  0  0  0  0  0
   62.7108   31.1787   51.0354 H   0  0  0  0  0  0  0  0  0  0  0  0
   63.7582   32.3753   51.9032 H   0  0  0  0  0  0  0  0  0  0  0  0
   61.5460   32.0970   47.7690 C   0  0  0  0  0  0  0  0  0  0  0  0
   62.5006   31.6182   47.5055 H   0  0  0  0  0  0  0  0  0  0  0  0
   60.8147   31.3197   48.0354 H   0  0  0  0  0  0  0  0  0  0  0  0
   61.0290   32.9090   46.5720 C   0  0  0  0  0  0  0  0  0  0  0  0
   61.8173   33.6042   46.2474 H   0  0  0  0  0  0  0  0  0  0  0  0
   60.7664   32.2028   45.7705 H   0  0  0  0  0  0  0  0  0  0  0  0
   58.0900   31.5630   44.9940 N   0  0  0  0  0  0  0  0  0  0  0  0
   57.7600   32.7090   44.1370 C   0  0  0  0  0  0  0  0  0  0  0  0
   57.5101   33.5767   44.7652 H   0  0  0  0  0  0  0  0  0  0  0  0
   58.6244   32.9529   43.5019 H   0  0  0  0  0  0  0  0  0  0  0  0
   56.8983   32.4558   43.5019 H   0  0  0  0  0  0  0  0  0  0  0  0
  1  2  1  0
  2  3  1  0
  2  4  2  0
  4  5  1  0
  5  6  2  0
  6  7  1  0
  6  8  1  0
  8  9  1  0
  9 10  1  0
 10 11  2  0
 10 12  1  0
 12 13  1  0
 13 14  1  0
  5 15  1  0
 15 16  1  0
 15 17  2  0
 17 18  1  0
 18 19  2  0
 18 20  1  0
 20 21  1  0
 20 22  1  0
 22 23  1  0
 22 24  1  0
 22 25  1  0
 25 26  1  0
 25 27  1  0
 25 28  1  0
 28 29  1  0
 29 30  2  0
 29 31  1  0
 31 32  1  0
 31 33  1  0
 33 34  1  0
 33 35  1  0
 33 36  1  0
 36 37  1  0
 36 38  1  0
 36 39  1  0
 39 40  1  0
 39 41  1  0
 39 42  1  0
 42 43  1  0
 42 44  1  0
 42 45  1  0
 45 46  1  0
 45 47  1  0
 28 48  1  0
 48 49  1  0
 48 50  1  0
 48 51  1  0
 51 52  1  0
 51 53  1  0
 17 54  1  0
 54 55  1  0
 55 56  1  0
 55 57  1  0
 55 58  1  0
 54  4  1  0
 13  8  2  0
 51 20  1  0
 45 31  1  0
M  CHG  4   9  -1  12  -1  14  -1  20   1
M  END
>  <UniqueID>  (15) 
12

>  <SMILES>  (15) 
C=c1/c(=C\c2[n-]c(=O)[n-]c2[O-])cc(C(=O)[NH+]2CCN(C(=O)C3CCCCC3)CC2)n1C

>  <Energy>  (15) 
150.26987884858158

>  <Genealogy>  (15) 
C=c1c(=Cc2[n-]c(=O)[n-]c2[O-])cc(C(=O)[NH+]2CCN(C(=O)C3CCCCC3)CC2)n1C (protonated)
C=c1/c(=C\c2[n-]c(=O)[n-]c2[O-])cc(C(=O)[NH+]2CCN(C(=O)C3CCCCC3)CC2)n1C (cis-trans isomerization)
C=c1/c(=C\c2[n-]c(=O)[n-]c2[O-])cc(C(=O)[NH+]2CCN(C(=O)C3CCCCC3)CC2)n1C (3D coordinates assigned)
C=c1/c(=C\c2[n-]c(=O)[n-]c2[O-])cc(C(=O)[NH+]2CCN(C(=O)C3CCCCC3)CC2)n1C (nonaromatic ring conformer: 150.26987884858158 kcal/mol)

>  <smiles>  (15) 
C=c1c(=Cc2[nH]c(=O)[nH]c2O)cc(C(=O)N2CCN(C(=O)C3CCCCC3)CC2)n1C

>  <score_type>  (15) 
oracle

>  <origin>  (15) 
adg

>  <m_score__min__energy>  (15) 
-17.550000000000001

>  <m_primary>  (15) 
energy

$$$$
15:0
     RDKit          3D

 58 61  0  0  0  0  0  0  0  0999 V2000
   55.1710   29.3770   44.8190 O   0  0  0  0  0  0  0  0  0  0  0  0
   56.1520   28.7130   45.2410 C   0  0  0  0  0  0  0  0  0  0  0  0
   55.9450   27.3950   45.6240 O   0  0  0  0  0  0  0  0  0  0  0  0
   57.4900   29.3480   45.3470 C   0  0  0  0  0  0  0  0  0  0  0  0
   58.5950   28.8080   45.9910 C   0  0  0  0  0  0  0  0  0  0  0  0
   58.7070   27.5040   46.7180 C   0  0  0  0  0  0  0  0  0  0  0  0
   58.5100   27.7220   48.1120 O   0  0  0  0  0  0  0  0  0  0  0  0
   59.2500   28.6280   48.8850 C   0  0  0  0  0  0  0  0  0  0  0  0
   60.6280   28.4650   49.1280 C   0  0  0  0  0  0  0  0  0  0  0  0
   61.3190   29.3990   49.9070 C   0  0  0  0  0  0  0  0  0  0  0  0
   60.6470   30.4980   50.4480 C   0  0  0  0  0  0  0  0  0  0  0  0
   61.5160   31.6690   51.4230 Cl  0  0  0  0  0  0  0  0  0  0  0  0
   59.2780   30.6640   50.2100 C   0  0  0  0  0  0  0  0  0  0  0  0
   58.5840   29.7320   49.4330 C   0  0  0  0  0  0  0  0  0  0  0  0
   59.5960   29.7450   45.8490 C   0  0  0  0  0  0  0  0  0  0  0  0
   59.1250   30.7930   45.1500 N   0  0  0  0  0  0  0  0  0  0  0  0
   57.8560   30.5580   44.8490 N   0  0  0  0  0  0  0  0  0  0  0  0
   57.0550   31.5230   44.0930 C   0  0  0  0  0  0  0  0  0  0  0  0
   57.9000   32.7030   43.6850 C   0  0  0  0  0  0  0  0  0  0  0  0
   58.4230   32.7000   42.5780 O   0  0  0  0  0  0  0  0  0  0  0  0
   58.1130   33.8190   44.5870 N   0  0  0  0  0  0  0  0  0  0  0  0
   57.0460   33.8800   45.6250 C   0  0  0  0  0  0  0  0  0  0  0  0
   57.5310   33.3730   46.9890 C   0  0  0  0  0  0  0  0  0  0  0  0
   58.6660   34.1840   47.4870 N   0  0  0  0  0  0  0  0  0  0  0  0
   59.3580   33.4800   48.5860 C   0  0  0  0  0  0  0  0  0  0  0  0
   60.7920   33.2080   48.2160 C   0  0  0  0  0  0  0  0  0  0  0  0
   61.1270   32.0400   47.5120 C   0  0  0  0  0  0  0  0  0  0  0  0
   62.4580   31.7740   47.1770 C   0  0  0  0  0  0  0  0  0  0  0  0
   63.4630   32.6730   47.5420 C   0  0  0  0  0  0  0  0  0  0  0  0
   63.1390   33.8380   48.2420 C   0  0  0  0  0  0  0  0  0  0  0  0
   61.8090   34.1080   48.5790 C   0  0  0  0  0  0  0  0  0  0  0  0
   59.6040   34.6150   46.4150 C   0  0  0  0  0  0  0  0  0  0  0  0
   59.4850   33.7570   45.1480 C   0  0  0  0  0  0  0  0  0  0  0  0
   57.9420   26.8080   46.3435 H   0  0  0  0  0  0  0  0  0  0  0  0
   59.7055   27.0740   46.5504 H   0  0  0  0  0  0  0  0  0  0  0  0
   61.1617   27.6015   48.7043 H   0  0  0  0  0  0  0  0  0  0  0  0
   62.3950   29.2678   50.0943 H   0  0  0  0  0  0  0  0  0  0  0  0
   58.7474   31.5289   50.6348 H   0  0  0  0  0  0  0  0  0  0  0  0
   57.5076   29.8663   49.2506 H   0  0  0  0  0  0  0  0  0  0  0  0
   60.6180   29.6505   46.2447 H   0  0  0  0  0  0  0  0  0  0  0  0
   56.6550   31.0350   43.1920 H   0  0  0  0  0  0  0  0  0  0  0  0
   56.2304   31.8777   44.7287 H   0  0  0  0  0  0  0  0  0  0  0  0
   58.0520   34.7070   44.0360 H   0  0  0  0  0  0  0  0  0  0  0  0
   56.7163   34.9239   45.7325 H   0  0  0  0  0  0  0  0  0  0  0  0
   56.2211   33.2298   45.2982 H   0  0  0  0  0  0  0  0  0  0  0  0
   56.7025   33.4337   47.7101 H   0  0  0  0  0  0  0  0  0  0  0  0
   57.8689   32.3325   46.8747 H   0  0  0  0  0  0  0  0  0  0  0  0
   59.3296   34.1047   49.4909 H   0  0  0  0  0  0  0  0  0  0  0  0
   58.8500   32.5221   48.7712 H   0  0  0  0  0  0  0  0  0  0  0  0
   60.3378   31.3305   47.2225 H   0  0  0  0  0  0  0  0  0  0  0  0
   62.7138   30.8569   46.6261 H   0  0  0  0  0  0  0  0  0  0  0  0
   64.5102   32.4636   47.2781 H   0  0  0  0  0  0  0  0  0  0  0  0
   63.9320   34.5444   48.5287 H   0  0  0  0  0  0  0  0  0  0  0  0
   61.5580   35.0267   49.1294 H   0  0  0  0  0  0  0  0  0  0  0  0
   59.3847   35.6609   46.1543 H   0  0  0  0  0  0  0  0  0  0  0  0
   60.6275   34.4997   46.8011 H   0  0  0  0  0  0  0  0  0  0  0  0
   60.1976   34.1265   44.3958 H   0  0  0  0  0  0  0  0  0  0  0  0
   59.7074   32.7125   45.4116 H   0  0  0  0  0  0  0  0  0  0  0  0
  1  2  2  0
  2  3  1  0
  2  4  1  0
  4  5  2  0
  5  6  1  0
  6  7  1  0
  7  8  1  0
  8  9  2  0
  9 10  1  0
 10 11  2  0
 11 12  1  0
 11 13  1  0
 13 14  2  0
  5 15  1  0
 15 16  2  0
 16 17  1  0
 17 18  1  0
 18 19  1  0
 19 20  2  0
 19 21  1  0
 21 22  1  0
 22 23  1  0
 23 24  1  0
 24 25  1  0
 25 26  1  0
 26 27  2  0
 27 28  1  0
 28 29  2  0
 29 30  1  0
 30 31  2  0
 24 32  1  0
 32 33  1  0
 17  4  1  0
 33 21  1  0
 14  8  1  0
 31 26  1  0
  6 34  1  0
  6 35  1  0
  9 36  1  0
 10 37  1  0
 13 38  1  0
 14 39  1  0
 15 40  1  0
 18 41  1  0
 18 42  1  0
 21 43  1  0
 22 44  1  0
 22 45  1  0
 23 46  1  0
 23 47  1  0
 25 48  1  0
 25 49  1  0
 27 50  1  0
 28 51  1  0
 29 52  1  0
 30 53  1  0
 31 54  1  0
 32 55  1  0
 32 56  1  0
 33 57  1  0
 33 58  1  0
M  CHG  2   3  -1  21   1
M  END
>  <UniqueID>  (16) 
13

>  <SMILES>  (16) 
O=C([O-])c1c(COc2ccc(Cl)cc2)cnn1CC(=O)[NH+]1CCN(Cc2ccccc2)CC1

>  <Energy>  (16) 
105.05631155381984

>  <Genealogy>  (16) 
O=C([O-])c1c(COc2ccc(Cl)cc2)cnn1CC(=O)[NH+]1CCN(Cc2ccccc2)CC1 (protonated)
O=C([O-])c1c(COc2ccc(Cl)cc2)cnn1CC(=O)[NH+]1CCN(Cc2ccccc2)CC1 (3D coordinates assigned)
O=C([O-])c1c(COc2ccc(Cl)cc2)cnn1CC(=O)[NH+]1CCN(Cc2ccccc2)CC1 (nonaromatic ring conformer: 105.05631155381984 kcal/mol)

>  <smiles>  (16) 
O=C(O)c1c(COc2ccc(Cl)cc2)cnn1CC(=O)N1CCN(Cc2ccccc2)CC1

>  <score_type>  (16) 
oracle

>  <origin>  (16) 
adg

>  <m_score__min__energy>  (16) 
-10.380000000000001

>  <m_primary>  (16) 
energy

$$$$
16:0
     RDKit          3D

 54 57  0  0  0  0  0  0  0  0999 V2000
   55.1770   27.6425   45.4393 H   0  0  0  0  0  0  0  0  0  0  0  0
   56.1480   27.1770   45.6640 C   0  0  0  0  0  0  0  0  0  0  0  0
   56.1940   25.9040   46.1380 N   0  0  0  0  0  0  0  0  0  0  0  0
   57.3660   25.2710   46.4130 C   0  0  0  0  0  0  0  0  0  0  0  0
   57.3180   24.0450   46.8520 N   0  0  0  0  0  0  0  0  0  0  0  0
   57.7780   22.8280   46.1730 C   0  0  0  0  0  0  0  0  0  0  0  0
   58.6530   22.4278   46.7061 H   0  0  0  0  0  0  0  0  0  0  0  0
   58.1760   23.1810   44.7300 C   0  0  0  0  0  0  0  0  0  0  0  0
   58.9387   23.9731   44.7580 H   0  0  0  0  0  0  0  0  0  0  0  0
   58.5608   22.2661   44.2558 H   0  0  0  0  0  0  0  0  0  0  0  0
   56.9790   23.6760   43.8920 C   0  0  0  0  0  0  0  0  0  0  0  0
   56.9018   24.7673   44.0061 H   0  0  0  0  0  0  0  0  0  0  0  0
   57.1681   23.3775   42.8503 H   0  0  0  0  0  0  0  0  0  0  0  0
   55.6350   23.0460   44.3070 C   0  0  0  0  0  0  0  0  0  0  0  0
   55.1484   23.6985   45.0469 H   0  0  0  0  0  0  0  0  0  0  0  0
   55.0125   22.9400   43.4063 H   0  0  0  0  0  0  0  0  0  0  0  0
   55.8280   21.6590   44.9200 C   0  0  0  0  0  0  0  0  0  0  0  0
   54.8430   21.2401   45.1734 H   0  0  0  0  0  0  0  0  0  0  0  0
   56.3456   21.0258   44.1844 H   0  0  0  0  0  0  0  0  0  0  0  0
   56.6900   21.7200   46.1970 C   0  0  0  0  0  0  0  0  0  0  0  0
   56.0259   21.9060   47.0539 H   0  0  0  0  0  0  0  0  0  0  0  0
   57.2177   20.7577   46.2708 H   0  0  0  0  0  0  0  0  0  0  0  0
   58.5800   25.9560   46.2030 C   0  0  0  0  0  0  0  0  0  0  0  0
   59.5399   25.4576   46.4036 H   0  0  0  0  0  0  0  0  0  0  0  0
   58.5540   27.2730   45.7380 C   0  0  0  0  0  0  0  0  0  0  0  0
   59.4966   27.8201   45.5894 H   0  0  0  0  0  0  0  0  0  0  0  0
   57.3320   27.9000   45.4600 C   0  0  0  0  0  0  0  0  0  0  0  0
   57.2680   29.2820   44.9300 C   0  0  0  0  0  0  0  0  0  0  0  0
   56.2340   29.9620   45.1800 O   0  0  0  0  0  0  0  0  0  0  0  0
   58.3410   29.8390   44.1130 N   0  0  0  0  0  0  0  0  0  0  0  0
   58.5510   29.1450   43.3590 H   0  0  0  0  0  0  0  0  0  0  0  0
   59.5800   30.0560   44.8830 C   0  0  0  0  0  0  0  0  0  0  0  0
   60.3612   30.4195   44.1992 H   0  0  0  0  0  0  0  0  0  0  0  0
   59.8597   29.0969   45.3434 H   0  0  0  0  0  0  0  0  0  0  0  0
   59.3990   31.0790   46.0110 C   0  0  0  0  0  0  0  0  0  0  0  0
   60.3840   31.5001   46.2609 H   0  0  0  0  0  0  0  0  0  0  0  0
   58.9455   30.5478   46.8608 H   0  0  0  0  0  0  0  0  0  0  0  0
   58.4960   32.1840   45.6590 N   0  0  0  0  0  0  0  0  0  0  0  0
   58.1740   33.1290   46.6890 C   0  0  0  0  0  0  0  0  0  0  0  0
   57.0150   33.1360   47.1840 O   0  0  0  0  0  0  0  0  0  0  0  0
   59.1860   34.1470   47.1320 C   0  0  0  0  0  0  0  0  0  0  0  0
   58.8281   34.2079   48.1704 H   0  0  0  0  0  0  0  0  0  0  0  0
   59.5970   35.1540   46.0660 C   0  0  0  0  0  0  0  0  0  0  0  0
   59.1157   35.1346   45.0771 H   0  0  0  0  0  0  0  0  0  0  0  0
   59.6570   36.2512   46.0161 H   0  0  0  0  0  0  0  0  0  0  0  0
   60.5550   34.0440   46.4660 C   0  0  0  0  0  0  0  0  0  0  0  0
   60.7661   33.2213   45.7670 H   0  0  0  0  0  0  0  0  0  0  0  0
   61.5939   34.0052   46.8255 H   0  0  0  0  0  0  0  0  0  0  0  0
   57.7270   32.2660   44.4090 C   0  0  0  0  0  0  0  0  0  0  0  0
   57.9938   33.2045   43.9011 H   0  0  0  0  0  0  0  0  0  0  0  0
   56.6642   32.2192   44.6887 H   0  0  0  0  0  0  0  0  0  0  0  0
   57.9790   31.1000   43.4330 C   0  0  0  0  0  0  0  0  0  0  0  0
   58.8003   31.3810   42.7574 H   0  0  0  0  0  0  0  0  0  0  0  0
   57.0397   30.9201   42.8895 H   0  0  0  0  0  0  0  0  0  0  0  0
  1  2  1  0
  2  3  1  0
  3  4  1  0
  4  5  2  0
  5  6  1  0
  6  7  1  0
  6  8  1  0
  8  9  1  0
  8 10  1  0
  8 11  1  0
 11 12  1  0
 11 13  1  0
 11 14  1  0
 14 15  1  0
 14 16  1  0
 14 17  1  0
 17 18  1  0
 17 19  1  0
 17 20  1  0
 20 21  1  0
 20 22  1  0
  4 23  1  0
 23 24  1  0
 23 25  2  0
 25 26  1  0
 25 27  1  0
 27 28  1  0
 28 29  2  0
 28 30  1  0
 30 31  1  0
 30 32  1  0
 32 33  1  0
 32 34  1  0
 32 35  1  0
 35 36  1  0
 35 37  1  0
 35 38  1  0
 38 39  1  0
 39 40  2  0
 39 41  1  0
 41 42  1  0
 41 43  1  0
 43 44  1  0
 43 45  1  0
 43 46  1  0
 46 47  1  0
 46 48  1  0
 38 49  1  0
 49 50  1  0
 49 51  1  0
 49 52  1  0
 52 53  1  0
 52 54  1  0
 27  2  2  0
 52 30  1  0
 20  6  1  0
 46 41  1  0
M  CHG  2   3  -1  30   1
M  END
>  <UniqueID>  (17) 
14

>  <SMILES>  (17) 
O=C(C1CC1)N1CC[NH+](C(=O)c2cc/c(=N\C3CCCCC3)[n-]c2)CC1

>  <Energy>  (17) 
341.4207269112251

>  <Genealogy>  (17) 
O=C(C1CC1)N1CC[NH+](C(=O)c2ccc(=NC3CCCCC3)[n-]c2)CC1 (protonated)
O=C(C1CC1)N1CC[NH+](C(=O)c2cc/c(=N\C3CCCCC3)[n-]c2)CC1 (cis-trans isomerization)
O=C(C1CC1)N1CC[NH+](C(=O)c2cc/c(=N\C3CCCCC3)[n-]c2)CC1 (3D coordinates assigned)
O=C(C1CC1)N1CC[NH+](C(=O)c2cc/c(=N\C3CCCCC3)[n-]c2)CC1 (nonaromatic ring conformer: 341.4207269112251 kcal/mol)

>  <smiles>  (17) 
O=C(c1ccc(=NC2CCCCC2)[nH]c1)N1CCN(C(=O)C2CC2)CC1

>  <score_type>  (17) 
oracle

>  <origin>  (17) 
adg

>  <m_score__min__energy>  (17) 
-9.3399999999999999

>  <m_primary>  (17) 
energy

$$$$
17:0
     RDKit          3D

 58 61  0  0  0  0  0  0  0  0999 V2000
   56.6330   22.9080   43.0990 C   0  0  0  0  0  0  0  0  0  0  0  0
   56.4400   24.0460   44.0540 C   0  0  0  0  0  0  0  0  0  0  0  0
   55.3780   24.1120   44.9530 C   0  0  0  0  0  0  0  0  0  0  0  0
   55.6500   25.4200   45.9730 S   0  0  0  0  0  0  0  0  0  0  0  0
   57.0870   25.9380   45.2770 C   0  0  0  0  0  0  0  0  0  0  0  0
   58.0030   26.9840   45.8000 C   0  0  0  0  0  0  0  0  0  0  0  0
   58.9010   26.7760   46.8450 C   0  0  0  0  0  0  0  0  0  0  0  0
   59.4290   28.0140   47.1680 C   0  0  0  0  0  0  0  0  0  0  0  0
   60.2680   28.3120   48.3360 C   0  0  0  0  0  0  0  0  0  0  0  0
   61.0610   27.4380   48.7780 O   0  0  0  0  0  0  0  0  0  0  0  0
   60.1650   29.5830   48.9900 N   0  0  0  0  0  0  0  0  0  0  0  0
   58.8450   30.0600   49.4230 C   0  0  0  0  0  0  0  0  0  0  0  0
   58.6840   31.5790   49.2340 C   0  0  0  0  0  0  0  0  0  0  0  0
   59.9700   32.2820   48.9970 N   0  0  0  0  0  0  0  0  0  0  0  0
   59.8600   33.7110   49.1940 C   0  0  0  0  0  0  0  0  0  0  0  0
   59.5700   34.1900   50.3260 O   0  0  0  0  0  0  0  0  0  0  0  0
   60.1200   34.5620   48.1080 O   0  0  0  0  0  0  0  0  0  0  0  0
   59.6120   34.4130   46.7760 C   0  0  0  0  0  0  0  0  0  0  0  0
   60.5290   33.4150   46.0520 C   0  0  0  0  0  0  0  0  0  0  0  0
   58.1770   33.8500   46.8070 C   0  0  0  0  0  0  0  0  0  0  0  0
   59.6460   35.7500   46.0110 C   0  0  0  0  0  0  0  0  0  0  0  0
   61.0590   31.7360   49.8230 C   0  0  0  0  0  0  0  0  0  0  0  0
   61.3840   30.3060   49.3690 C   0  0  0  0  0  0  0  0  0  0  0  0
   58.8580   28.9230   46.2980 C   0  0  0  0  0  0  0  0  0  0  0  0
   59.0850   30.3010   46.2070 C   0  0  0  0  0  0  0  0  0  0  0  0
   58.4220   31.0080   45.1970 C   0  0  0  0  0  0  0  0  0  0  0  0
   57.5580   30.3410   44.3160 C   0  0  0  0  0  0  0  0  0  0  0  0
   57.3630   28.9590   44.4550 C   0  0  0  0  0  0  0  0  0  0  0  0
   58.0100   28.2990   45.4570 N   0  0  0  0  0  0  0  0  0  0  0  0
   57.3970   25.0530   44.2420 C   0  0  0  0  0  0  0  0  0  0  0  0
   56.7908   21.9777   43.6643 H   0  0  0  0  0  0  0  0  0  0  0  0
   55.7395   22.8052   42.4657 H   0  0  0  0  0  0  0  0  0  0  0  0
   57.5105   23.1056   42.4657 H   0  0  0  0  0  0  0  0  0  0  0  0
   54.5156   23.4301   44.9890 H   0  0  0  0  0  0  0  0  0  0  0  0
   59.1433   25.8144   47.3210 H   0  0  0  0  0  0  0  0  0  0  0  0
   58.0718   29.5459   48.8333 H   0  0  0  0  0  0  0  0  0  0  0  0
   58.7425   29.8409   50.4961 H   0  0  0  0  0  0  0  0  0  0  0  0
   58.0257   31.7553   48.3706 H   0  0  0  0  0  0  0  0  0  0  0  0
   58.2613   31.9799   50.1671 H   0  0  0  0  0  0  0  0  0  0  0  0
   60.2240   32.1430   47.9890 H   0  0  0  0  0  0  0  0  0  0  0  0
   61.0784   32.8170   46.7940 H   0  0  0  0  0  0  0  0  0  0  0  0
   59.9212   32.7491   45.4219 H   0  0  0  0  0  0  0  0  0  0  0  0
   61.2439   33.9644   45.4219 H   0  0  0  0  0  0  0  0  0  0  0  0
   57.8551   33.7237   47.8513 H   0  0  0  0  0  0  0  0  0  0  0  0
   57.4980   34.5484   46.2959 H   0  0  0  0  0  0  0  0  0  0  0  0
   58.1541   32.8762   46.2959 H   0  0  0  0  0  0  0  0  0  0  0  0
   59.6672   36.5829   46.7292 H   0  0  0  0  0  0  0  0  0  0  0  0
   60.5454   35.7880   45.3788 H   0  0  0  0  0  0  0  0  0  0  0  0
   58.7497   35.8336   45.3788 H   0  0  0  0  0  0  0  0  0  0  0  0
   61.9533   32.3670   49.7130 H   0  0  0  0  0  0  0  0  0  0  0  0
   60.7452   31.7216   50.8772 H   0  0  0  0  0  0  0  0  0  0  0  0
   62.0604   30.3490   48.5026 H   0  0  0  0  0  0  0  0  0  0  0  0
   61.8607   29.7735   50.2052 H   0  0  0  0  0  0  0  0  0  0  0  0
   59.7627   30.8121   46.9067 H   0  0  0  0  0  0  0  0  0  0  0  0
   58.5793   32.0918   45.0937 H   0  0  0  0  0  0  0  0  0  0  0  0
   57.0376   30.8973   43.5225 H   0  0  0  0  0  0  0  0  0  0  0  0
   56.6986   28.4164   43.7664 H   0  0  0  0  0  0  0  0  0  0  0  0
   58.3077   25.1382   43.6310 H   0  0  0  0  0  0  0  0  0  0  0  0
  1  2  1  0
  2  3  2  0
  3  4  1  0
  4  5  1  0
  5  6  1  0
  6  7  2  0
  7  8  1  0
  8  9  1  0
  9 10  2  0
  9 11  1  0
 11 12  1  0
 12 13  1  0
 13 14  1  0
 14 15  1  0
 15 16  2  0
 15 17  1  0
 17 18  1  0
 18 19  1  0
 18 20  1  0
 18 21  1  0
 14 22  1  0
 22 23  1  0
  8 24  2  0
 24 25  1  0
 25 26  2  0
 26 27  1  0
 27 28  2  0
 28 29  1  0
  5 30  2  0
 30  2  1  0
 29  6  1  0
 23 11  1  0
 29 24  1  0
  1 31  1  0
  1 32  1  0
  1 33  1  0
  3 34  1  0
  7 35  1  0
 12 36  1  0
 12 37  1  0
 13 38  1  0
 13 39  1  0
 14 40  1  0
 19 41  1  0
 19 42  1  0
 19 43  1  0
 20 44  1  0
 20 45  1  0
 20 46  1  0
 21 47  1  0
 21 48  1  0
 21 49  1  0
 22 50  1  0
 22 51  1  0
 23 52  1  0
 23 53  1  0
 25 54  1  0
 26 55  1  0
 27 56  1  0
 28 57  1  0
 30 58  1  0
M  CHG  1  14   1
M  END
>  <UniqueID>  (18) 
15

>  <SMILES>  (18) 
Cc1csc(-c2cc(C(=O)N3CC[NH+](C(=O)OC(C)(C)C)CC3)c3ccccn23)c1

>  <Energy>  (18) 
133.00058479390952

>  <Genealogy>  (18) 
Cc1csc(-c2cc(C(=O)N3CC[NH+](C(=O)OC(C)(C)C)CC3)c3ccccn23)c1 (protonated)
Cc1csc(-c2cc(C(=O)N3CC[NH+](C(=O)OC(C)(C)C)CC3)c3ccccn23)c1 (3D coordinates assigned)
Cc1csc(-c2cc(C(=O)N3CC[NH+](C(=O)OC(C)(C)C)CC3)c3ccccn23)c1 (nonaromatic ring conformer: 133.00058479390952 kcal/mol)

>  <smiles>  (18) 
Cc1csc(-c2cc(C(=O)N3CCN(C(=O)OC(C)(C)C)CC3)c3ccccn23)c1

>  <score_type>  (18) 
oracle

>  <origin>  (18) 
adg

>  <m_score__min__energy>  (18) 
-7.46

>  <m_primary>  (18) 
energy

$$$$
18:0
     RDKit          3D

 39 41  0  0  0  0  0  0  0  0999 V2000
   56.4463   30.9520   44.0659 H   0  0  0  0  0  0  0  0  0  0  0  0
   56.7380   29.9050   44.2350 C   0  0  0  0  0  0  0  0  0  0  0  0
   56.2839   29.1036   43.6337 H   0  0  0  0  0  0  0  0  0  0  0  0
   57.6490   29.6050   45.1760 C   0  0  0  0  0  0  0  0  0  0  0  0
   58.1100   28.3230   45.4950 C   0  0  0  0  0  0  0  0  0  0  0  0
   57.6740   27.1490   44.9970 C   0  0  0  0  0  0  0  0  0  0  0  0
   57.7116   27.0052   43.9071 H   0  0  0  0  0  0  0  0  0  0  0  0
   57.1500   26.0460   45.8220 C   0  0  0  0  0  0  0  0  0  0  0  0
   57.9320   25.0950   46.3630 N   0  0  0  0  0  0  0  0  0  0  0  0
   57.0690   24.3560   47.0930 C   0  0  0  0  0  0  0  0  0  0  0  0
   57.4290   23.3460   47.7500 O   0  0  0  0  0  0  0  0  0  0  0  0
   55.7920   24.7940   47.0740 N   0  0  0  0  0  0  0  0  0  0  0  0
   55.8610   25.8710   46.2750 C   0  0  0  0  0  0  0  0  0  0  0  0
   54.7780   26.7000   46.0090 O   0  0  0  0  0  0  0  0  0  0  0  0
   59.0800   28.4900   46.4740 C   0  0  0  0  0  0  0  0  0  0  0  0
   59.6609   27.6955   46.9654 H   0  0  0  0  0  0  0  0  0  0  0  0
   59.1740   29.8460   46.7110 C   0  0  0  0  0  0  0  0  0  0  0  0
   60.0780   30.4630   47.7370 C   0  0  0  0  0  0  0  0  0  0  0  0
   59.7131   30.2140   48.7444 H   0  0  0  0  0  0  0  0  0  0  0  0
   61.0982   30.0719   47.6095 H   0  0  0  0  0  0  0  0  0  0  0  0
   60.0856   31.5556   47.6095 H   0  0  0  0  0  0  0  0  0  0  0  0
   58.3090   30.5280   45.9240 N   0  0  0  0  0  0  0  0  0  0  0  0
   58.1140   31.9540   45.9380 C   0  0  0  0  0  0  0  0  0  0  0  0
   57.9480   32.5800   44.8550 O   0  0  0  0  0  0  0  0  0  0  0  0
   58.0850   32.6590   47.1830 N   0  0  0  0  0  0  0  0  0  0  0  0
   58.6370   33.9960   47.3670 C   0  0  0  0  0  0  0  0  0  0  0  0
   58.4312   34.6009   46.4716 H   0  0  0  0  0  0  0  0  0  0  0  0
   58.1697   34.4600   48.2481 H   0  0  0  0  0  0  0  0  0  0  0  0
   60.1240   33.9170   47.5830 C   0  0  0  0  0  0  0  0  0  0  0  0
   60.9930   33.7620   46.4910 C   0  0  0  0  0  0  0  0  0  0  0  0
   60.5835   33.6732   45.4740 H   0  0  0  0  0  0  0  0  0  0  0  0
   62.3760   33.7200   46.6900 C   0  0  0  0  0  0  0  0  0  0  0  0
   63.0509   33.5946   45.8305 H   0  0  0  0  0  0  0  0  0  0  0  0
   62.9020   33.8370   47.9780 C   0  0  0  0  0  0  0  0  0  0  0  0
   63.9905   33.8016   48.1329 H   0  0  0  0  0  0  0  0  0  0  0  0
   62.0460   33.9990   49.0700 C   0  0  0  0  0  0  0  0  0  0  0  0
   62.4626   34.0938   50.0836 H   0  0  0  0  0  0  0  0  0  0  0  0
   60.6620   34.0410   48.8790 C   0  0  0  0  0  0  0  0  0  0  0  0
   59.8460   34.2080   49.9510 F   0  0  0  0  0  0  0  0  0  0  0  0
  1  2  1  0
  2  3  1  0
  2  4  2  0
  4  5  1  0
  5  6  2  0
  6  7  1  0
  6  8  1  0
  8  9  1  0
  9 10  1  0
 10 11  2  0
 10 12  1  0
 12 13  1  0
 13 14  1  0
  5 15  1  0
 15 16  1  0
 15 17  2  0
 17 18  1  0
 18 19  1  0
 18 20  1  0
 18 21  1  0
 17 22  1  0
 22 23  1  0
 23 24  2  0
 23 25  1  0
 25 26  1  0
 26 27  1  0
 26 28  1  0
 26 29  1  0
 29 30  2  0
 30 31  1  0
 30 32  1  0
 32 33  1  0
 32 34  2  0
 34 35  1  0
 34 36  1  0
 36 37  1  0
 36 38  2  0
 38 39  1  0
 22  4  1  0
 38 29  1  0
 13  8  2  0
M  CHG  4   9  -1  12  -1  14  -1  25  -1
M  END
>  <UniqueID>  (19) 
16

>  <SMILES>  (19) 
C=c1/c(=C/c2[n-]c(=O)[n-]c2[O-])cc(C)n1C(=O)[N-]Cc1ccccc1F

>  <Energy>  (19) 
108.2780993637469

>  <Genealogy>  (19) 
C=c1c(=Cc2[n-]c(=O)[n-]c2[O-])cc(C)n1C(=O)[N-]Cc1ccccc1F (protonated)
C=c1/c(=C/c2[n-]c(=O)[n-]c2[O-])cc(C)n1C(=O)[N-]Cc1ccccc1F (cis-trans isomerization)
C=c1/c(=C/c2[n-]c(=O)[n-]c2[O-])cc(C)n1C(=O)[N-]Cc1ccccc1F (3D coordinates assigned)
C=c1/c(=C/c2[n-]c(=O)[n-]c2[O-])cc(C)n1C(=O)[N-]Cc1ccccc1F (optimized conformer: 108.2780993637469 kcal/mol)

>  <smiles>  (19) 
C=c1c(=Cc2[nH]c(=O)[nH]c2O)cc(C)n1C(=O)NCc1ccccc1F

>  <score_type>  (19) 
oracle

>  <origin>  (19) 
adg

>  <m_score__min__energy>  (19) 
-16.859999999999999

>  <m_primary>  (19) 
energy

$$$$
19:0
     RDKit          3D

 43 46  0  0  0  0  0  0  0  0999 V2000
   55.1620   29.8290   44.8790 O   0  0  0  0  0  0  0  0  0  0  0  0
   56.1960   29.1690   44.5830 C   0  0  0  0  0  0  0  0  0  0  0  0
   57.1110   29.6540   43.5940 N   0  0  0  0  0  0  0  0  0  0  0  0
   57.1440   31.0380   43.1330 C   0  0  0  0  0  0  0  0  0  0  0  0
   57.7480   31.9420   44.1790 C   0  0  0  0  0  0  0  0  0  0  0  0
   58.5040   31.4010   45.2320 C   0  0  0  0  0  0  0  0  0  0  0  0
   59.0450   32.2350   46.2170 C   0  0  0  0  0  0  0  0  0  0  0  0
   58.8550   33.6230   46.1510 C   0  0  0  0  0  0  0  0  0  0  0  0
   59.4620   34.5030   47.1670 C   0  0  0  0  0  0  0  0  0  0  0  0
   59.2710   35.7510   47.0950 O   0  0  0  0  0  0  0  0  0  0  0  0
   60.2290   33.9490   48.2500 N   0  0  0  0  0  0  0  0  0  0  0  0
   59.8170   34.0640   49.6550 C   0  0  0  0  0  0  0  0  0  0  0  0
   61.0800   33.7930   50.5070 C   0  0  0  0  0  0  0  0  0  0  0  0
   62.1380   33.5610   49.4870 C   0  0  0  0  0  0  0  0  0  0  0  0
   63.4870   33.2700   49.7010 C   0  0  0  0  0  0  0  0  0  0  0  0
   64.3130   33.0660   48.5860 C   0  0  0  0  0  0  0  0  0  0  0  0
   63.7800   33.1390   47.2850 C   0  0  0  0  0  0  0  0  0  0  0  0
   62.4190   33.4300   47.0940 C   0  0  0  0  0  0  0  0  0  0  0  0
   61.6190   33.6510   48.2210 C   0  0  0  0  0  0  0  0  0  0  0  0
   58.0780   34.1640   45.1160 C   0  0  0  0  0  0  0  0  0  0  0  0
   57.5120   33.3290   44.1480 C   0  0  0  0  0  0  0  0  0  0  0  0
   56.4790   27.9070   45.2800 C   0  0  0  0  0  0  0  0  0  0  0  0
   57.7420   27.3970   45.5320 C   0  0  0  0  0  0  0  0  0  0  0  0
   57.5500   26.1940   46.1770 C   0  0  0  0  0  0  0  0  0  0  0  0
   56.1850   26.0400   46.2730 C   0  0  0  0  0  0  0  0  0  0  0  0
   55.5550   24.9390   46.8390 O   0  0  0  0  0  0  0  0  0  0  0  0
   55.5170   27.0780   45.7340 N   0  0  0  0  0  0  0  0  0  0  0  0
   57.7470   31.0971   42.2149 H   0  0  0  0  0  0  0  0  0  0  0  0
   56.1126   31.3673   42.9385 H   0  0  0  0  0  0  0  0  0  0  0  0
   58.6718   30.3151   45.2827 H   0  0  0  0  0  0  0  0  0  0  0  0
   59.6217   31.8000   47.0466 H   0  0  0  0  0  0  0  0  0  0  0  0
   59.4323   35.0746   49.8567 H   0  0  0  0  0  0  0  0  0  0  0  0
   59.0152   33.3499   49.8941 H   0  0  0  0  0  0  0  0  0  0  0  0
   61.3238   34.6610   51.1372 H   0  0  0  0  0  0  0  0  0  0  0  0
   60.9581   32.9479   51.2005 H   0  0  0  0  0  0  0  0  0  0  0  0
   63.8927   33.2023   50.7212 H   0  0  0  0  0  0  0  0  0  0  0  0
   65.3817   32.8481   48.7286 H   0  0  0  0  0  0  0  0  0  0  0  0
   64.4313   32.9676   46.4153 H   0  0  0  0  0  0  0  0  0  0  0  0
   61.9918   33.4830   46.0817 H   0  0  0  0  0  0  0  0  0  0  0  0
   57.9132   35.2504   45.0657 H   0  0  0  0  0  0  0  0  0  0  0  0
   56.8787   33.7585   43.3578 H   0  0  0  0  0  0  0  0  0  0  0  0
   58.7051   27.8593   45.2699 H   0  0  0  0  0  0  0  0  0  0  0  0
   58.3247   25.5021   46.5391 H   0  0  0  0  0  0  0  0  0  0  0  0
  1  2  2  0
  2  3  1  0
  3  4  1  0
  4  5  1  0
  5  6  2  0
  6  7  1  0
  7  8  2  0
  8  9  1  0
  9 10  2  0
  9 11  1  0
 11 12  1  0
 12 13  1  0
 13 14  1  0
 14 15  2  0
 15 16  1  0
 16 17  2  0
 17 18  1  0
 18 19  2  0
  8 20  1  0
 20 21  2  0
  2 22  1  0
 22 23  2  0
 23 24  1  0
 24 25  2  0
 25 26  1  0
 25 27  1  0
 21  5  1  0
 27 22  1  0
 19 11  1  0
 19 14  1  0
  4 28  1  0
  4 29  1  0
  6 30  1  0
  7 31  1  0
 12 32  1  0
 12 33  1  0
 13 34  1  0
 13 35  1  0
 15 36  1  0
 16 37  1  0
 17 38  1  0
 18 39  1  0
 20 40  1  0
 21 41  1  0
 23 42  1  0
 24 43  1  0
M  CHG  3   3  -1  26  -1  27  -1
M  END
>  <UniqueID>  (20) 
17

>  <SMILES>  (20) 
O=C([N-]Cc1ccc(C(=O)N2CCc3ccccc32)cc1)c1ccc([O-])[n-]1

>  <Energy>  (20) 
90.6213445541887

>  <Genealogy>  (20) 
O=C([N-]Cc1ccc(C(=O)N2CCc3ccccc32)cc1)c1ccc([O-])[n-]1 (protonated)
O=C([N-]Cc1ccc(C(=O)N2CCc3ccccc32)cc1)c1ccc([O-])[n-]1 (3D coordinates assigned)
O=C([N-]Cc1ccc(C(=O)N2CCc3ccccc32)cc1)c1ccc([O-])[n-]1 (nonaromatic ring conformer: 90.6213445541887 kcal/mol)

>  <smiles>  (20) 
O=C(NCc1ccc(C(=O)N2CCc3ccccc32)cc1)c1ccc(O)[nH]1

>  <score_type>  (20) 
oracle

>  <origin>  (20) 
adg

>  <m_score__min__energy>  (20) 
-15.960000000000001

>  <m_primary>  (20) 
energy

$$$$
20:0
     RDKit          3D

 50 53  0  0  0  0  0  0  0  0999 V2000
   55.6403   32.4406   44.4599 H   0  0  0  0  0  0  0  0  0  0  0  0
   56.6490   32.3400   44.8870 C   0  0  0  0  0  0  0  0  0  0  0  0
   57.2770   31.1390   44.8630 N   0  0  0  0  0  0  0  0  0  0  0  0
   58.5190   30.9870   45.3890 C   0  0  0  0  0  0  0  0  0  0  0  0
   59.0990   29.8240   45.3250 N   0  0  0  0  0  0  0  0  0  0  0  0
   58.6510   28.6040   45.9420 C   0  0  0  0  0  0  0  0  0  0  0  0
   59.4420   27.9050   46.8710 C   0  0  0  0  0  0  0  0  0  0  0  0
   60.4444   28.2778   47.1284 H   0  0  0  0  0  0  0  0  0  0  0  0
   58.9580   26.7380   47.4680 C   0  0  0  0  0  0  0  0  0  0  0  0
   59.5867   26.1854   48.1817 H   0  0  0  0  0  0  0  0  0  0  0  0
   57.6790   26.2720   47.1610 C   0  0  0  0  0  0  0  0  0  0  0  0
   57.3078   25.3477   47.6277 H   0  0  0  0  0  0  0  0  0  0  0  0
   56.8650   26.9730   46.2630 C   0  0  0  0  0  0  0  0  0  0  0  0
   55.5530   26.4660   45.9870 N   0  0  0  0  0  0  0  0  0  0  0  0
   55.1530   24.7940   45.7660 S   0  0  0  0  0  0  0  0  0  0  0  0
   56.0020   24.2050   44.6750 O   0  0  0  0  0  0  0  0  0  0  0  0
   55.3730   24.0430   47.0500 O   0  0  0  0  0  0  0  0  0  0  0  0
   53.4410   24.6660   45.3050 C   0  0  0  0  0  0  0  0  0  0  0  0
   52.8197   24.6195   46.2115 H   0  0  0  0  0  0  0  0  0  0  0  0
   53.1550   25.5453   44.7091 H   0  0  0  0  0  0  0  0  0  0  0  0
   53.2889   23.7540   44.7091 H   0  0  0  0  0  0  0  0  0  0  0  0
   57.3550   28.1480   45.6620 C   0  0  0  0  0  0  0  0  0  0  0  0
   56.7161   28.7128   44.9672 H   0  0  0  0  0  0  0  0  0  0  0  0
   59.1510   32.0620   45.9350 N   0  0  0  0  0  0  0  0  0  0  0  0
   58.5680   33.2910   45.9920 C   0  0  0  0  0  0  0  0  0  0  0  0
   59.2890   34.3920   46.6000 N   0  0  0  0  0  0  0  0  0  0  0  0
   59.7000   35.5150   45.7480 C   0  0  0  0  0  0  0  0  0  0  0  0
   60.0095   36.3606   46.3799 H   0  0  0  0  0  0  0  0  0  0  0  0
   60.5427   35.2042   45.1129 H   0  0  0  0  0  0  0  0  0  0  0  0
   58.8558   35.8216   45.1129 H   0  0  0  0  0  0  0  0  0  0  0  0
   59.6460   34.3970   48.0300 C   0  0  0  0  0  0  0  0  0  0  0  0
   60.1867   35.3261   48.2632 H   0  0  0  0  0  0  0  0  0  0  0  0
   58.7223   34.3314   48.6237 H   0  0  0  0  0  0  0  0  0  0  0  0
   60.5230   33.2160   48.3690 C   0  0  0  0  0  0  0  0  0  0  0  0
   60.0550   32.2040   49.2380 C   0  0  0  0  0  0  0  0  0  0  0  0
   59.0495   32.2867   49.6763 H   0  0  0  0  0  0  0  0  0  0  0  0
   60.8610   31.0900   49.5500 C   0  0  0  0  0  0  0  0  0  0  0  0
   60.4831   30.3178   50.2362 H   0  0  0  0  0  0  0  0  0  0  0  0
   62.1430   30.9590   48.9910 C   0  0  0  0  0  0  0  0  0  0  0  0
   62.7810   30.0958   49.2314 H   0  0  0  0  0  0  0  0  0  0  0  0
   62.5810   31.9560   48.1230 C   0  0  0  0  0  0  0  0  0  0  0  0
   61.8020   33.0440   47.8150 C   0  0  0  0  0  0  0  0  0  0  0  0
   62.5300   33.8160   46.9270 C   0  0  0  0  0  0  0  0  0  0  0  0
   62.2227   34.7642   46.4617 H   0  0  0  0  0  0  0  0  0  0  0  0
   63.7310   33.1410   46.7470 C   0  0  0  0  0  0  0  0  0  0  0  0
   64.5489   33.4841   46.0963 H   0  0  0  0  0  0  0  0  0  0  0  0
   63.7580   32.0070   47.4790 N   0  0  0  0  0  0  0  0  0  0  0  0
   64.5350   31.3110   47.5270 H   0  0  0  0  0  0  0  0  0  0  0  0
   57.2790   33.4480   45.4520 C   0  0  0  0  0  0  0  0  0  0  0  0
   56.7773   34.4266   45.4750 H   0  0  0  0  0  0  0  0  0  0  0  0
  1  2  1  0
  2  3  1  0
  3  4  1  0
  4  5  2  0
  5  6  1  0
  6  7  2  0
  7  8  1  0
  7  9  1  0
  9 10  1  0
  9 11  2  0
 11 12  1  0
 11 13  1  0
 13 14  1  0
 14 15  1  0
 15 16  2  0
 15 17  2  0
 15 18  1  0
 18 19  1  0
 18 20  1  0
 18 21  1  0
 13 22  2  0
 22 23  1  0
  4 24  1  0
 24 25  2  0
 25 26  1  0
 26 27  1  0
 27 28  1  0
 27 29  1  0
 27 30  1  0
 26 31  1  0
 31 32  1  0
 31 33  1  0
 31 34  1  0
 34 35  2  0
 35 36  1  0
 35 37  1  0
 37 38  1  0
 37 39  2  0
 39 40  1  0
 39 41  1  0
 41 42  2  0
 42 43  1  0
 43 44  1  0
 43 45  2  0
 45 46  1  0
 45 47  1  0
 47 48  1  0
 25 49  1  0
 49 50  1  0
 49  2  2  0
 22  6  1  0
 42 34  1  0
 47 41  1  0
M  CHG  2   3  -1  14  -1
M  END
>  <UniqueID>  (21) 
18

>  <SMILES>  (21) 
CN(Cc1cccc2[nH]ccc12)c1cc[n-]/c(=N/c2cccc([N-]S(C)(=O)=O)c2)n1

>  <Energy>  (21) 
91.87995084234387

>  <Genealogy>  (21) 
CN(Cc1cccc2[nH]ccc12)c1cc[n-]c(=Nc2cccc([N-]S(C)(=O)=O)c2)n1 (protonated)
CN(Cc1cccc2[nH]ccc12)c1cc[n-]/c(=N/c2cccc([N-]S(C)(=O)=O)c2)n1 (cis-trans isomerization)
CN(Cc1cccc2[nH]ccc12)c1cc[n-]/c(=N/c2cccc([N-]S(C)(=O)=O)c2)n1 (3D coordinates assigned)
CN(Cc1cccc2[nH]ccc12)c1cc[n-]/c(=N/c2cccc([N-]S(C)(=O)=O)c2)n1 (optimized conformer: 91.87995084234387 kcal/mol)

>  <smiles>  (21) 
CN(Cc1cccc2[nH]ccc12)c1cc[nH]c(=Nc2cccc(NS(C)(=O)=O)c2)n1

>  <score_type>  (21) 
oracle

>  <origin>  (21) 
adg

>  <m_score__min__energy>  (21) 
-13.359999999999999

>  <m_primary>  (21) 
energy

$$$$
21:0
     RDKit          3D

 51 54  0  0  0  0  0  0  0  0999 V2000
   57.9280   25.8930   44.2050 O   0  0  0  0  0  0  0  0  0  0  0  0
   58.6280   25.9340   45.2550 C   0  0  0  0  0  0  0  0  0  0  0  0
   59.2080   24.6540   45.8020 C   0  0  0  0  0  0  0  0  0  0  0  0
   58.3240   23.4750   45.4910 C   0  0  0  0  0  0  0  0  0  0  0  0
   58.8780   22.2460   45.1080 C   0  0  0  0  0  0  0  0  0  0  0  0
   58.0700   21.1980   44.7960 N   0  0  0  0  0  0  0  0  0  0  0  0
   56.7140   21.3040   44.8350 C   0  0  0  0  0  0  0  0  0  0  0  0
   56.1040   22.5170   45.2000 C   0  0  0  0  0  0  0  0  0  0  0  0
   54.6260   22.6450   45.2380 C   0  0  0  0  0  0  0  0  0  0  0  0
   53.9630   23.6450   44.5080 C   0  0  0  0  0  0  0  0  0  0  0  0
   52.6090   23.7440   44.5580 N   0  0  0  0  0  0  0  0  0  0  0  0
   51.8720   22.8830   45.3050 C   0  0  0  0  0  0  0  0  0  0  0  0
   52.4860   21.9050   46.0190 N   0  0  0  0  0  0  0  0  0  0  0  0
   53.8370   21.7710   46.0020 C   0  0  0  0  0  0  0  0  0  0  0  0
   56.9290   23.6050   45.5250 C   0  0  0  0  0  0  0  0  0  0  0  0
   58.8830   27.2070   45.8840 N   0  0  0  0  0  0  0  0  0  0  0  0
   60.0490   27.4060   46.7580 C   0  0  0  0  0  0  0  0  0  0  0  0
   60.6410   28.8080   46.5650 C   0  0  0  0  0  0  0  0  0  0  0  0
   59.6040   29.8500   46.5340 N   0  0  0  0  0  0  0  0  0  0  0  0
   60.0050   31.2350   46.5930 C   0  0  0  0  0  0  0  0  0  0  0  0
   61.0930   31.5500   47.1470 O   0  0  0  0  0  0  0  0  0  0  0  0
   59.1660   32.3100   46.0250 C   0  0  0  0  0  0  0  0  0  0  0  0
   58.5230   32.0970   44.7940 C   0  0  0  0  0  0  0  0  0  0  0  0
   57.7340   33.1010   44.2260 C   0  0  0  0  0  0  0  0  0  0  0  0
   57.5710   34.3200   44.8850 C   0  0  0  0  0  0  0  0  0  0  0  0
   58.1890   34.5360   46.1190 C   0  0  0  0  0  0  0  0  0  0  0  0
   58.9810   33.5370   46.6980 C   0  0  0  0  0  0  0  0  0  0  0  0
   59.6650   33.8310   48.2940 Cl  0  0  0  0  0  0  0  0  0  0  0  0
   58.1870   29.4730   46.6320 C   0  0  0  0  0  0  0  0  0  0  0  0
   57.8920   28.2810   45.7180 C   0  0  0  0  0  0  0  0  0  0  0  0
   60.1978   24.4881   45.3518 H   0  0  0  0  0  0  0  0  0  0  0  0
   59.2881   24.7487   46.8950 H   0  0  0  0  0  0  0  0  0  0  0  0
   59.9707   22.1288   45.0596 H   0  0  0  0  0  0  0  0  0  0  0  0
   58.5010   20.2870   44.5200 H   0  0  0  0  0  0  0  0  0  0  0  0
   56.0907   20.4345   44.5791 H   0  0  0  0  0  0  0  0  0  0  0  0
   54.5419   24.3504   43.8938 H   0  0  0  0  0  0  0  0  0  0  0  0
   50.7764   22.9777   45.3319 H   0  0  0  0  0  0  0  0  0  0  0  0
   54.3155   20.9737   46.5897 H   0  0  0  0  0  0  0  0  0  0  0  0
   56.4772   24.5670   45.8085 H   0  0  0  0  0  0  0  0  0  0  0  0
   59.7384   27.2868   47.8065 H   0  0  0  0  0  0  0  0  0  0  0  0
   60.8154   26.6607   46.4988 H   0  0  0  0  0  0  0  0  0  0  0  0
   61.3302   29.0189   47.3960 H   0  0  0  0  0  0  0  0  0  0  0  0
   61.1637   28.8233   45.5973 H   0  0  0  0  0  0  0  0  0  0  0  0
   58.6413   31.1347   44.2744 H   0  0  0  0  0  0  0  0  0  0  0  0
   57.2407   32.9299   43.2578 H   0  0  0  0  0  0  0  0  0  0  0  0
   56.9555   35.1114   44.4325 H   0  0  0  0  0  0  0  0  0  0  0  0
   58.0527   35.4959   46.6386 H   0  0  0  0  0  0  0  0  0  0  0  0
   57.9550   29.1995   47.6719 H   0  0  0  0  0  0  0  0  0  0  0  0
   57.5665   30.3261   46.3203 H   0  0  0  0  0  0  0  0  0  0  0  0
   56.8944   27.8854   45.9596 H   0  0  0  0  0  0  0  0  0  0  0  0
   57.9373   28.6299   44.6758 H   0  0  0  0  0  0  0  0  0  0  0  0
  1  2  2  0
  2  3  1  0
  3  4  1  0
  4  5  2  0
  5  6  1  0
  6  7  2  0
  7  8  1  0
  8  9  1  0
  9 10  2  0
 10 11  1  0
 11 12  2  0
 12 13  1  0
 13 14  2  0
  8 15  2  0
  2 16  1  0
 16 17  1  0
 17 18  1  0
 18 19  1  0
 19 20  1  0
 20 21  2  0
 20 22  1  0
 22 23  2  0
 23 24  1  0
 24 25  2  0
 25 26  1  0
 26 27  2  0
 27 28  1  0
 19 29  1  0
 29 30  1  0
 15  4  1  0
 30 16  1  0
 14  9  1  0
 27 22  1  0
  3 31  1  0
  3 32  1  0
  5 33  1  0
  6 34  1  0
  7 35  1  0
 10 36  1  0
 12 37  1  0
 14 38  1  0
 15 39  1  0
 17 40  1  0
 17 41  1  0
 18 42  1  0
 18 43  1  0
 23 44  1  0
 24 45  1  0
 25 46  1  0
 26 47  1  0
 29 48  1  0
 29 49  1  0
 30 50  1  0
 30 51  1  0
M  CHG  1   6   1
M  END
>  <UniqueID>  (22) 
19

>  <SMILES>  (22) 
O=C(Cc1c[nH+]cc(-c2cncnc2)c1)N1CCN(C(=O)c2ccccc2Cl)CC1

>  <Energy>  (22) 
68.95365384791474

>  <Genealogy>  (22) 
O=C(Cc1c[nH+]cc(-c2cncnc2)c1)N1CCN(C(=O)c2ccccc2Cl)CC1 (protonated)
O=C(Cc1c[nH+]cc(-c2cncnc2)c1)N1CCN(C(=O)c2ccccc2Cl)CC1 (3D coordinates assigned)
O=C(Cc1c[nH+]cc(-c2cncnc2)c1)N1CCN(C(=O)c2ccccc2Cl)CC1 (nonaromatic ring conformer: 68.95365384791474 kcal/mol)

>  <smiles>  (22) 
O=C(Cc1cncc(-c2cncnc2)c1)N1CCN(C(=O)c2ccccc2Cl)CC1

>  <score_type>  (22) 
oracle

>  <origin>  (22) 
adg

>  <m_score__min__energy>  (22) 
-7.7400000000000002

>  <m_primary>  (22) 
energy

$$$$
22:0
     RDKit          3D

 73 76  0  0  0  0  0  0  0  0999 V2000
   58.4455   28.2134   44.5618 H   0  0  0  0  0  0  0  0  0  0  0  0
   57.9160   28.6450   45.4240 C   0  0  0  0  0  0  0  0  0  0  0  0
   56.6280   29.3240   45.1550 C   0  0  0  0  0  0  0  0  0  0  0  0
   55.5680   28.6450   45.1820 O   0  0  0  0  0  0  0  0  0  0  0  0
   56.5710   30.7200   44.8370 N   0  0  0  0  0  0  0  0  0  0  0  0
   57.6830   31.4820   44.2840 C   0  0  0  0  0  0  0  0  0  0  0  0
   58.6147   31.1802   44.7848 H   0  0  0  0  0  0  0  0  0  0  0  0
   57.7538   31.2808   43.2049 H   0  0  0  0  0  0  0  0  0  0  0  0
   57.4570   32.9800   44.4980 C   0  0  0  0  0  0  0  0  0  0  0  0
   57.7278   33.5213   43.5795 H   0  0  0  0  0  0  0  0  0  0  0  0
   56.3972   33.1478   44.7400 H   0  0  0  0  0  0  0  0  0  0  0  0
   58.3000   33.4850   45.6360 C   0  0  0  0  0  0  0  0  0  0  0  0
   59.2460   34.5030   45.4160 C   0  0  0  0  0  0  0  0  0  0  0  0
   59.3847   34.9148   44.4055 H   0  0  0  0  0  0  0  0  0  0  0  0
   60.0100   34.9920   46.4800 C   0  0  0  0  0  0  0  0  0  0  0  0
   60.7508   35.7861   46.3049 H   0  0  0  0  0  0  0  0  0  0  0  0
   59.8340   34.4740   47.7640 C   0  0  0  0  0  0  0  0  0  0  0  0
   60.4435   34.8536   48.5974 H   0  0  0  0  0  0  0  0  0  0  0  0
   58.8850   33.4740   47.9930 C   0  0  0  0  0  0  0  0  0  0  0  0
   58.7394   33.0760   49.0081 H   0  0  0  0  0  0  0  0  0  0  0  0
   58.1200   32.9790   46.9310 C   0  0  0  0  0  0  0  0  0  0  0  0
   57.3750   32.1904   47.1128 H   0  0  0  0  0  0  0  0  0  0  0  0
   58.4940   28.5100   46.6280 C   0  0  0  0  0  0  0  0  0  0  0  0
   58.1530   27.6878   47.2742 H   0  0  0  0  0  0  0  0  0  0  0  0
   59.5540   29.3920   47.1370 C   0  0  0  0  0  0  0  0  0  0  0  0
   60.2530   30.2280   46.2600 C   0  0  0  0  0  0  0  0  0  0  0  0
   60.0497   30.1839   45.1799 H   0  0  0  0  0  0  0  0  0  0  0  0
   61.2070   31.1170   46.7530 C   0  0  0  0  0  0  0  0  0  0  0  0
   61.7511   31.7738   46.0583 H   0  0  0  0  0  0  0  0  0  0  0  0
   61.4800   31.1810   48.1340 C   0  0  0  0  0  0  0  0  0  0  0  0
   62.4170   32.0870   48.6580 O   0  0  0  0  0  0  0  0  0  0  0  0
   63.3930   32.7780   47.8870 C   0  0  0  0  0  0  0  0  0  0  0  0
   64.1032   33.2808   48.5600 H   0  0  0  0  0  0  0  0  0  0  0  0
   63.9342   32.0607   47.2525 H   0  0  0  0  0  0  0  0  0  0  0  0
   62.8962   33.5267   47.2525 H   0  0  0  0  0  0  0  0  0  0  0  0
   60.8000   30.3140   49.0110 C   0  0  0  0  0  0  0  0  0  0  0  0
   61.1390   30.3530   50.7470 S   0  0  0  0  0  0  0  0  0  0  0  0
   61.4830   28.9620   51.1990 O   0  0  0  0  0  0  0  0  0  0  0  0
   62.3090   31.2550   51.0290 O   0  0  0  0  0  0  0  0  0  0  0  0
   59.7350   30.9320   51.6130 N   0  0  0  0  0  0  0  0  0  0  0  0
   60.0730   31.6670   52.2780 H   0  0  0  0  0  0  0  0  0  0  0  0
   58.8030   31.5840   50.6700 C   0  0  0  0  0  0  0  0  0  0  0  0
   59.2053   32.5677   50.3863 H   0  0  0  0  0  0  0  0  0  0  0  0
   58.6948   30.9458   49.7806 H   0  0  0  0  0  0  0  0  0  0  0  0
   57.4280   31.7700   51.3130 C   0  0  0  0  0  0  0  0  0  0  0  0
   57.5409   32.3525   52.2393 H   0  0  0  0  0  0  0  0  0  0  0  0
   56.7784   32.2981   50.5994 H   0  0  0  0  0  0  0  0  0  0  0  0
   56.8060   30.4640   51.6360 N   0  0  0  0  0  0  0  0  0  0  0  0
   55.7060   30.5030   52.6390 C   0  0  0  0  0  0  0  0  0  0  0  0
   55.9247   31.3551   53.2993 H   0  0  0  0  0  0  0  0  0  0  0  0
   54.3170   30.8240   52.0180 C   0  0  0  0  0  0  0  0  0  0  0  0
   54.2382   31.9092   51.8562 H   0  0  0  0  0  0  0  0  0  0  0  0
   54.2276   30.2829   51.0645 H   0  0  0  0  0  0  0  0  0  0  0  0
   53.1830   30.3730   52.9400 C   0  0  0  0  0  0  0  0  0  0  0  0
   53.3045   30.8556   53.9210 H   0  0  0  0  0  0  0  0  0  0  0  0
   52.2255   30.6619   52.4820 H   0  0  0  0  0  0  0  0  0  0  0  0
   53.1930   28.8460   53.1270 C   0  0  0  0  0  0  0  0  0  0  0  0
   52.7039   28.6104   54.0837 H   0  0  0  0  0  0  0  0  0  0  0  0
   52.6623   28.4138   52.2658 H   0  0  0  0  0  0  0  0  0  0  0  0
   54.6110   28.2290   53.1390 C   0  0  0  0  0  0  0  0  0  0  0  0
   54.6245   27.3920   53.8527 H   0  0  0  0  0  0  0  0  0  0  0  0
   54.8364   27.8949   52.1155 H   0  0  0  0  0  0  0  0  0  0  0  0
   55.6940   29.2390   53.5460 C   0  0  0  0  0  0  0  0  0  0  0  0
   55.5108   29.5524   54.5844 H   0  0  0  0  0  0  0  0  0  0  0  0
   56.6696   28.7425   53.4376 H   0  0  0  0  0  0  0  0  0  0  0  0
   57.7700   29.3560   51.8430 C   0  0  0  0  0  0  0  0  0  0  0  0
   57.3298   28.6315   52.5439 H   0  0  0  0  0  0  0  0  0  0  0  0
   57.9703   28.8992   50.8626 H   0  0  0  0  0  0  0  0  0  0  0  0
   59.1140   29.8440   52.4160 C   0  0  0  0  0  0  0  0  0  0  0  0
   58.9437   30.2169   53.4368 H   0  0  0  0  0  0  0  0  0  0  0  0
   59.8061   28.9892   52.3974 H   0  0  0  0  0  0  0  0  0  0  0  0
   59.8400   29.4240   48.5060 C   0  0  0  0  0  0  0  0  0  0  0  0
   59.3088   28.7469   49.1911 H   0  0  0  0  0  0  0  0  0  0  0  0
  1  2  1  0
  2  3  1  0
  3  4  2  0
  3  5  1  0
  5  6  1  0
  6  7  1  0
  6  8  1  0
  6  9  1  0
  9 10  1  0
  9 11  1  0
  9 12  1  0
 12 13  2  0
 13 14  1  0
 13 15  1  0
 15 16  1  0
 15 17  2  0
 17 18  1  0
 17 19  1  0
 19 20  1  0
 19 21  2  0
 21 22  1  0
  2 23  2  0
 23 24  1  0
 23 25  1  0
 25 26  2  0
 26 27  1  0
 26 28  1  0
 28 29  1  0
 28 30  2  0
 30 31  1  0
 31 32  1  0
 32 33  1  0
 32 34  1  0
 32 35  1  0
 30 36  1  0
 36 37  1  0
 37 38  2  0
 37 39  2  0
 37 40  1  0
 40 41  1  0
 40 42  1  0
 42 43  1  0
 42 44  1  0
 42 45  1  0
 45 46  1  0
 45 47  1  0
 45 48  1  0
 48 49  1  0
 49 50  1  0
 49 51  1  0
 51 52  1  0
 51 53  1  0
 51 54  1  0
 54 55  1  0
 54 56  1  0
 54 57  1  0
 57 58  1  0
 57 59  1  0
 57 60  1  0
 60 61  1  0
 60 62  1  0
 60 63  1  0
 63 64  1  0
 63 65  1  0
 48 66  1  0
 66 67  1  0
 66 68  1  0
 66 69  1  0
 69 70  1  0
 69 71  1  0
 36 72  2  0
 72 73  1  0
 21 12  1  0
 72 25  1  0
 69 40  1  0
 63 49  1  0
M  CHG  2   5  -1  40   1
M  END
>  <UniqueID>  (23) 
20

>  <SMILES>  (23) 
COc1ccc(/C=C\C(=O)[N-]CCc2ccccc2)cc1S(=O)(=O)[NH+]1CCN(C2CCCCC2)CC1

>  <Energy>  (23) 
96.53272443594565

>  <Genealogy>  (23) 
COc1ccc(C=CC(=O)[N-]CCc2ccccc2)cc1S(=O)(=O)[NH+]1CCN(C2CCCCC2)CC1 (protonated)
COc1ccc(/C=C\C(=O)[N-]CCc2ccccc2)cc1S(=O)(=O)[NH+]1CCN(C2CCCCC2)CC1 (cis-trans isomerization)
COc1ccc(/C=C\C(=O)[N-]CCc2ccccc2)cc1S(=O)(=O)[NH+]1CCN(C2CCCCC2)CC1 (3D coordinates assigned)
COc1ccc(/C=C\C(=O)[N-]CCc2ccccc2)cc1S(=O)(=O)[NH+]1CCN(C2CCCCC2)CC1 (nonaromatic ring conformer: 96.53272443594565 kcal/mol)

>  <smiles>  (23) 
COc1ccc(C=CC(=O)NCCc2ccccc2)cc1S(=O)(=O)N1CCN(C2CCCCC2)CC1

>  <score_type>  (23) 
oracle

>  <origin>  (23) 
adg

>  <m_score__min__energy>  (23) 
-11.02

>  <m_primary>  (23) 
energy

$$$$
23:0
     RDKit          3D

 32 33  0  0  0  0  0  0  0  0999 V2000
   54.4120   28.6490   44.4990 H   0  0  0  0  0  0  0  0  0  0  0  0
   55.3190   29.0970   44.4490 O   0  0  0  0  0  0  0  0  0  0  0  0
   56.3870   28.6710   45.2370 C   0  0  0  0  0  0  0  0  0  0  0  0
   57.5590   29.4340   45.3180 C   0  0  0  0  0  0  0  0  0  0  0  0
   57.6398   30.3758   44.7554 H   0  0  0  0  0  0  0  0  0  0  0  0
   58.6260   29.0030   46.1110 C   0  0  0  0  0  0  0  0  0  0  0  0
   59.5497   29.5985   46.1567 H   0  0  0  0  0  0  0  0  0  0  0  0
   58.5240   27.8110   46.8510 C   0  0  0  0  0  0  0  0  0  0  0  0
   59.6500   27.3080   47.6710 C   0  0  0  0  0  0  0  0  0  0  0  0
   60.2055   26.4368   47.2936 H   0  0  0  0  0  0  0  0  0  0  0  0
   60.0440   27.8380   48.8440 C   0  0  0  0  0  0  0  0  0  0  0  0
   60.7750   27.0020   49.7640 C   0  0  0  0  0  0  0  0  0  0  0  0
   61.3620   26.3310   50.5040 N   0  0  0  0  0  0  0  0  0  0  0  0
   59.6550   29.1970   49.2900 C   0  0  0  0  0  0  0  0  0  0  0  0
   58.9070   29.3170   50.2990 O   0  0  0  0  0  0  0  0  0  0  0  0
   60.1490   30.4180   48.6040 C   0  0  0  0  0  0  0  0  0  0  0  0
   61.4390   30.4650   48.0480 C   0  0  0  0  0  0  0  0  0  0  0  0
   62.1000   29.5895   48.1293 H   0  0  0  0  0  0  0  0  0  0  0  0
   61.8890   31.6140   47.3930 C   0  0  0  0  0  0  0  0  0  0  0  0
   62.9036   31.6373   46.9688 H   0  0  0  0  0  0  0  0  0  0  0  0
   61.0570   32.7410   47.2710 C   0  0  0  0  0  0  0  0  0  0  0  0
   61.5160   33.9260   46.5970 N   0  0  0  0  0  0  0  0  0  0  0  0
   60.7050   34.7840   46.1930 O   0  0  0  0  0  0  0  0  0  0  0  0
   62.8590   34.1330   46.3840 O   0  0  0  0  0  0  0  0  0  0  0  0
   59.7620   32.6890   47.8170 C   0  0  0  0  0  0  0  0  0  0  0  0
   59.0976   33.5612   47.7285 H   0  0  0  0  0  0  0  0  0  0  0  0
   59.3120   31.5390   48.4710 C   0  0  0  0  0  0  0  0  0  0  0  0
   58.2934   31.5109   48.8854 H   0  0  0  0  0  0  0  0  0  0  0  0
   57.3590   27.0370   46.7450 C   0  0  0  0  0  0  0  0  0  0  0  0
   57.2842   26.0845   47.2901 H   0  0  0  0  0  0  0  0  0  0  0  0
   56.2910   27.4690   45.9500 C   0  0  0  0  0  0  0  0  0  0  0  0
   55.1360   26.7000   45.8680 O   0  0  0  0  0  0  0  0  0  0  0  0
  1  2  1  0
  2  3  1  0
  3  4  2  0
  4  5  1  0
  4  6  1  0
  6  7  1  0
  6  8  2  0
  8  9  1  0
  9 10  1  0
  9 11  2  0
 11 12  1  0
 12 13  3  0
 11 14  1  0
 14 15  2  0
 14 16  1  0
 16 17  2  0
 17 18  1  0
 17 19  1  0
 19 20  1  0
 19 21  2  0
 21 22  1  0
 22 23  2  0
 22 24  1  0
 21 25  1  0
 25 26  1  0
 25 27  2  0
 27 28  1  0
  8 29  1  0
 29 30  1  0
 29 31  2  0
 31 32  1  0
 31  3  1  0
 27 16  1  0
M  CHG  3  22   1  24  -1  32  -1
M  END
>  <UniqueID>  (24) 
21

>  <SMILES>  (24) 
N#C/C(=C/c1ccc(O)c([O-])c1)C(=O)c1ccc([N+](=O)[O-])cc1

>  <Energy>  (24) 
45.16275458573914

>  <Genealogy>  (24) 
N#CC(=Cc1ccc(O)c([O-])c1)C(=O)c1ccc([N+](=O)[O-])cc1 (protonated)
N#C/C(=C/c1ccc(O)c([O-])c1)C(=O)c1ccc([N+](=O)[O-])cc1 (cis-trans isomerization)
N#C/C(=C/c1ccc(O)c([O-])c1)C(=O)c1ccc([N+](=O)[O-])cc1 (3D coordinates assigned)
N#C/C(=C/c1ccc(O)c([O-])c1)C(=O)c1ccc([N+](=O)[O-])cc1 (optimized conformer: 45.16275458573914 kcal/mol)

>  <smiles>  (24) 
N#CC(=Cc1ccc(O)c(O)c1)C(=O)c1ccc([N+](=O)[O-])cc1

>  <score_type>  (24) 
oracle

>  <origin>  (24) 
adg

>  <m_score__min__energy>  (24) 
-10.949999999999999

>  <m_primary>  (24) 
energy

$$$$
24:0
     RDKit          3D

 43 45  0  0  0  0  0  0  0  0999 V2000
   63.9230   32.9990   48.9090 C   0  0  0  0  0  0  0  0  0  0  0  0
   63.7240   32.7330   47.4220 C   0  0  0  0  0  0  0  0  0  0  0  0
   62.2790   32.4980   47.1190 C   0  0  0  0  0  0  0  0  0  0  0  0
   61.3880   33.4980   46.9350 N   0  0  0  0  0  0  0  0  0  0  0  0
   60.1250   33.0270   46.7390 C   0  0  0  0  0  0  0  0  0  0  0  0
   58.9630   33.9660   46.6040 C   0  0  0  0  0  0  0  0  0  0  0  0
   59.2210   34.9760   45.4930 C   0  0  0  0  0  0  0  0  0  0  0  0
   60.0120   31.6370   46.8110 C   0  0  0  0  0  0  0  0  0  0  0  0
   58.7950   30.8360   46.6290 C   0  0  0  0  0  0  0  0  0  0  0  0
   58.3690   30.1510   47.5950 O   0  0  0  0  0  0  0  0  0  0  0  0
   58.1120   30.7910   45.3610 N   0  0  0  0  0  0  0  0  0  0  0  0
   57.4350   31.9490   44.8030 C   0  0  0  0  0  0  0  0  0  0  0  0
   57.0230   31.5510   43.3900 C   0  0  0  0  0  0  0  0  0  0  0  0
   57.1290   30.0300   43.3260 C   0  0  0  0  0  0  0  0  0  0  0  0
   58.0330   29.6220   44.4920 C   0  0  2  0  0  0  0  0  0  0  0  0
   57.5030   28.4070   45.2160 C   0  0  0  0  0  0  0  0  0  0  0  0
   56.1960   28.0920   45.2460 N   0  0  0  0  0  0  0  0  0  0  0  0
   56.1600   26.9660   45.9870 C   0  0  0  0  0  0  0  0  0  0  0  0
   55.0880   26.3520   46.2350 O   0  0  0  0  0  0  0  0  0  0  0  0
   57.3600   26.5480   46.4350 N   0  0  0  0  0  0  0  0  0  0  0  0
   58.2110   27.4680   45.9480 C   0  0  0  0  0  0  0  0  0  0  0  0
   59.6870   27.4210   46.1830 C   0  0  0  0  0  0  0  0  0  0  0  0
   61.5340   30.9880   47.1090 S   0  0  0  0  0  0  0  0  0  0  0  0
   63.3646   32.2526   49.4930 H   0  0  0  0  0  0  0  0  0  0  0  0
   64.9932   32.9302   49.1538 H   0  0  0  0  0  0  0  0  0  0  0  0
   63.5549   34.0063   49.1538 H   0  0  0  0  0  0  0  0  0  0  0  0
   64.0769   33.6029   46.8486 H   0  0  0  0  0  0  0  0  0  0  0  0
   64.2958   31.8359   47.1423 H   0  0  0  0  0  0  0  0  0  0  0  0
   58.0570   33.3893   46.3660 H   0  0  0  0  0  0  0  0  0  0  0  0
   58.8295   34.5064   47.5528 H   0  0  0  0  0  0  0  0  0  0  0  0
   59.4703   35.9519   45.9352 H   0  0  0  0  0  0  0  0  0  0  0  0
   60.0597   34.6304   44.8708 H   0  0  0  0  0  0  0  0  0  0  0  0
   58.3193   35.0750   44.8708 H   0  0  0  0  0  0  0  0  0  0  0  0
   56.5484   32.2002   45.4037 H   0  0  0  0  0  0  0  0  0  0  0  0
   58.0867   32.8351   44.7993 H   0  0  0  0  0  0  0  0  0  0  0  0
   55.9892   31.8696   43.1906 H   0  0  0  0  0  0  0  0  0  0  0  0
   57.6660   32.0289   42.6362 H   0  0  0  0  0  0  0  0  0  0  0  0
   56.1346   29.5724   43.4347 H   0  0  0  0  0  0  0  0  0  0  0  0
   57.5381   29.6943   42.3617 H   0  0  0  0  0  0  0  0  0  0  0  0
   59.0318   29.3254   44.1393 H   0  0  0  0  0  0  0  0  0  0  0  0
   59.8860   27.4147   47.2648 H   0  0  0  0  0  0  0  0  0  0  0  0
   60.1018   26.5092   45.7285 H   0  0  0  0  0  0  0  0  0  0  0  0
   60.1590   28.3046   45.7285 H   0  0  0  0  0  0  0  0  0  0  0  0
  1  2  1  0
  2  3  1  0
  3  4  2  0
  4  5  1  0
  5  6  1  0
  6  7  1  0
  5  8  2  0
  8  9  1  0
  9 10  2  0
  9 11  1  0
 11 12  1  0
 12 13  1  0
 13 14  1  0
 14 15  1  0
 15 16  1  0
 16 17  1  0
 17 18  1  0
 18 19  2  0
 18 20  1  0
 20 21  1  0
 21 22  1  0
  8 23  1  0
 23  3  1  0
 15 11  1  0
 21 16  2  0
  1 24  1  0
  1 25  1  0
  1 26  1  0
  2 27  1  0
  2 28  1  0
  6 29  1  0
  6 30  1  0
  7 31  1  0
  7 32  1  0
  7 33  1  0
 12 34  1  0
 12 35  1  0
 13 36  1  0
 13 37  1  0
 14 38  1  0
 14 39  1  0
 15 40  1  6
 22 41  1  0
 22 42  1  0
 22 43  1  0
M  CHG  2  17  -1  20  -1
M  END
>  <UniqueID>  (25) 
22

>  <SMILES>  (25) 
CCc1nc(CC)c(C(=O)N2CCC[C@@H]2c2[n-]c(=O)[n-]c2C)s1

>  <Energy>  (25) 
96.14349257207758

>  <Genealogy>  (25) 
CCc1nc(CC)c(C(=O)N2CCCC2c2[n-]c(=O)[n-]c2C)s1 (protonated)
CCc1nc(CC)c(C(=O)N2CCC[C@@H]2c2[n-]c(=O)[n-]c2C)s1 (chirality)
CCc1nc(CC)c(C(=O)N2CCC[C@@H]2c2[n-]c(=O)[n-]c2C)s1 (3D coordinates assigned)
CCc1nc(CC)c(C(=O)N2CCC[C@@H]2c2[n-]c(=O)[n-]c2C)s1 (nonaromatic ring conformer: 96.14349257207758 kcal/mol)

>  <smiles>  (25) 
CCc1nc(CC)c(C(=O)N2CCCC2c2[nH]c(=O)[nH]c2C)s1

>  <score_type>  (25) 
oracle

>  <origin>  (25) 
adg

>  <m_score__min__energy>  (25) 
-11.84

>  <m_primary>  (25) 
energy

$$$$
25:0
     RDKit          3D

 37 39  0  0  0  0  0  0  0  0999 V2000
   60.8883   31.0491   46.5687 H   0  0  0  0  0  0  0  0  0  0  0  0
   60.7850   29.9700   46.3820 C   0  0  0  0  0  0  0  0  0  0  0  0
   61.6165   29.2892   46.6166 H   0  0  0  0  0  0  0  0  0  0  0  0
   59.6490   29.4860   45.8700 C   0  0  0  0  0  0  0  0  0  0  0  0
   58.5500   30.2280   45.5820 N   0  0  0  0  0  0  0  0  0  0  0  0
   58.3680   31.6500   45.6900 C   0  0  0  0  0  0  0  0  0  0  0  0
   58.2920   32.2440   46.9590 C   0  0  0  0  0  0  0  0  0  0  0  0
   58.3668   31.6185   47.8608 H   0  0  0  0  0  0  0  0  0  0  0  0
   58.1220   33.6240   47.0840 C   0  0  0  0  0  0  0  0  0  0  0  0
   58.0693   34.0838   48.0819 H   0  0  0  0  0  0  0  0  0  0  0  0
   58.0190   34.4200   45.9420 C   0  0  0  0  0  0  0  0  0  0  0  0
   57.8926   35.5082   46.0417 H   0  0  0  0  0  0  0  0  0  0  0  0
   58.0760   33.8390   44.6730 C   0  0  0  0  0  0  0  0  0  0  0  0
   57.9885   34.4718   43.7775 H   0  0  0  0  0  0  0  0  0  0  0  0
   58.2450   32.4460   44.5330 C   0  0  0  0  0  0  0  0  0  0  0  0
   58.2730   31.8130   43.2780 O   0  0  0  0  0  0  0  0  0  0  0  0
   57.1560   31.6430   42.4060 C   0  0  0  0  0  0  0  0  0  0  0  0
   57.0030   30.5697   42.2202 H   0  0  0  0  0  0  0  0  0  0  0  0
   56.2655   32.0784   42.8828 H   0  0  0  0  0  0  0  0  0  0  0  0
   57.3970   32.3520   41.0770 C   0  0  0  0  0  0  0  0  0  0  0  0
   57.7457   33.3779   41.2667 H   0  0  0  0  0  0  0  0  0  0  0  0
   58.1599   31.8056   40.5030 H   0  0  0  0  0  0  0  0  0  0  0  0
   56.4592   32.3837   40.5030 H   0  0  0  0  0  0  0  0  0  0  0  0
   57.6380   29.3350   45.1470 C   0  0  0  0  0  0  0  0  0  0  0  0
   56.4930   29.6510   44.7240 O   0  0  0  0  0  0  0  0  0  0  0  0
   58.1880   28.0620   45.1740 C   0  0  0  0  0  0  0  0  0  0  0  0
   57.6360   26.8940   44.8070 C   0  0  0  0  0  0  0  0  0  0  0  0
   57.5757   26.6727   43.7312 H   0  0  0  0  0  0  0  0  0  0  0  0
   57.1060   25.8890   45.7430 C   0  0  0  0  0  0  0  0  0  0  0  0
   57.8650   24.9430   46.3240 N   0  0  0  0  0  0  0  0  0  0  0  0
   57.0060   24.3270   47.1660 C   0  0  0  0  0  0  0  0  0  0  0  0
   57.3470   23.3570   47.8910 O   0  0  0  0  0  0  0  0  0  0  0  0
   55.7570   24.8410   47.1780 N   0  0  0  0  0  0  0  0  0  0  0  0
   55.8400   25.8370   46.2830 C   0  0  0  0  0  0  0  0  0  0  0  0
   54.7940   26.7060   45.9970 O   0  0  0  0  0  0  0  0  0  0  0  0
   59.4580   28.1720   45.6170 N   0  0  0  0  0  0  0  0  0  0  0  0
   60.1460   27.3970   45.7560 H   0  0  0  0  0  0  0  0  0  0  0  0
  1  2  1  0
  2  3  1  0
  2  4  2  0
  4  5  1  0
  5  6  1  0
  6  7  2  0
  7  8  1  0
  7  9  1  0
  9 10  1  0
  9 11  2  0
 11 12  1  0
 11 13  1  0
 13 14  1  0
 13 15  2  0
 15 16  1  0
 16 17  1  0
 17 18  1  0
 17 19  1  0
 17 20  1  0
 20 21  1  0
 20 22  1  0
 20 23  1  0
  5 24  1  0
 24 25  2  0
 24 26  1  0
 26 27  2  0
 27 28  1  0
 27 29  1  0
 29 30  1  0
 30 31  1  0
 31 32  2  0
 31 33  1  0
 33 34  1  0
 34 35  1  0
 26 36  1  0
 36 37  1  0
 36  4  1  0
 15  6  1  0
 34 29  2  0
M  CHG  3  30  -1  33  -1  35  -1
M  END
>  <UniqueID>  (26) 
23

>  <SMILES>  (26) 
C=c1[nH]/c(=C/c2[n-]c(=O)[n-]c2[O-])c(=O)n1-c1ccccc1OCC

>  <Energy>  (26) 
114.97086834464318

>  <Genealogy>  (26) 
C=c1[nH]c(=Cc2[n-]c(=O)[n-]c2[O-])c(=O)n1-c1ccccc1OCC (protonated)
C=c1[nH]/c(=C/c2[n-]c(=O)[n-]c2[O-])c(=O)n1-c1ccccc1OCC (cis-trans isomerization)
C=c1[nH]/c(=C/c2[n-]c(=O)[n-]c2[O-])c(=O)n1-c1ccccc1OCC (3D coordinates assigned)
C=c1[nH]/c(=C/c2[n-]c(=O)[n-]c2[O-])c(=O)n1-c1ccccc1OCC (optimized conformer: 114.97086834464318 kcal/mol)

>  <smiles>  (26) 
C=c1[nH]c(=Cc2[nH]c(=O)[nH]c2O)c(=O)n1-c1ccccc1OCC

>  <score_type>  (26) 
oracle

>  <origin>  (26) 
adg

>  <m_score__min__energy>  (26) 
-15.25

>  <m_primary>  (26) 
energy

$$$$
26:0
     RDKit          3D

 57 59  0  0  0  0  0  0  0  0999 V2000
   59.6570   34.8250   48.7050 C   0  0  0  0  0  0  0  0  0  0  0  0
   59.3040   33.7230   47.7980 N   0  0  0  0  0  0  0  0  0  0  0  0
   58.3250   34.1880   46.8030 C   0  0  0  0  0  0  0  0  0  0  0  0
   57.9610   33.0840   45.7820 C   0  0  0  0  0  0  0  0  0  0  0  0
   58.8130   31.8760   45.8700 N   0  0  0  0  0  0  0  0  0  0  0  0
   58.2970   30.6190   45.3710 C   0  0  0  0  0  0  0  0  0  0  0  0
   57.0560   30.4660   45.2240 O   0  0  0  0  0  0  0  0  0  0  0  0
   59.1870   29.5480   44.9940 N   0  0  0  0  0  0  0  0  0  0  0  0
   58.7860   28.1680   44.9830 C   0  0  0  0  0  0  0  0  0  0  0  0
   58.9700   27.3850   46.1350 C   0  0  0  0  0  0  0  0  0  0  0  0
   58.5870   26.0410   46.1480 C   0  0  0  0  0  0  0  0  0  0  0  0
   57.9930   25.4590   45.0140 C   0  0  0  0  0  0  0  0  0  0  0  0
   57.5990   24.0290   45.0210 C   0  0  0  0  0  0  0  0  0  0  0  0
   57.5830   23.2930   43.8250 C   0  0  0  0  0  0  0  0  0  0  0  0
   57.1920   21.9530   43.8260 C   0  0  0  0  0  0  0  0  0  0  0  0
   56.8190   21.3290   45.0180 C   0  0  0  0  0  0  0  0  0  0  0  0
   56.8330   22.0430   46.2310 C   0  0  0  0  0  0  0  0  0  0  0  0
   56.4440   21.3790   47.4970 C   0  0  0  0  0  0  0  0  0  0  0  0
   57.0160   21.6890   48.5760 O   0  0  0  0  0  0  0  0  0  0  0  0
   55.4060   20.3850   47.5000 N   0  0  0  0  0  0  0  0  0  0  0  0
   54.0080   20.6730   47.1970 C   0  0  0  0  0  0  0  0  0  0  0  0
   53.9020   21.6880   46.0600 C   0  0  0  0  0  0  0  0  0  0  0  0
   53.8870   23.0400   46.6170 N   0  0  0  0  0  0  0  0  0  0  0  0
   53.7700   24.2090   45.3310 S   0  0  0  0  0  0  0  0  0  0  0  0
   54.4250   25.7250   45.8400 N   0  0  0  0  0  0  0  0  0  0  0  0
   52.3320   24.3910   44.9230 O   0  0  0  0  0  0  0  0  0  0  0  0
   54.5540   23.7110   44.1490 O   0  0  0  0  0  0  0  0  0  0  0  0
   57.2250   23.3970   46.2210 C   0  0  0  0  0  0  0  0  0  0  0  0
   57.7820   26.2520   43.8700 C   0  0  0  0  0  0  0  0  0  0  0  0
   58.1720   27.5950   43.8540 C   0  0  0  0  0  0  0  0  0  0  0  0
   60.1800   31.9150   46.4100 C   0  0  0  0  0  0  0  0  0  0  0  0
   60.5000   33.2400   47.1010 C   0  0  0  0  0  0  0  0  0  0  0  0
   59.5499   34.4905   49.7474 H   0  0  0  0  0  0  0  0  0  0  0  0
   60.6980   35.1305   48.5231 H   0  0  0  0  0  0  0  0  0  0  0  0
   58.9873   35.6785   48.5231 H   0  0  0  0  0  0  0  0  0  0  0  0
   57.4099   34.5024   47.3263 H   0  0  0  0  0  0  0  0  0  0  0  0
   58.7768   35.0245   46.2496 H   0  0  0  0  0  0  0  0  0  0  0  0
   56.9169   32.7840   45.9549 H   0  0  0  0  0  0  0  0  0  0  0  0
   58.1192   33.5122   44.7812 H   0  0  0  0  0  0  0  0  0  0  0  0
   60.1290   29.7940   44.6110 H   0  0  0  0  0  0  0  0  0  0  0  0
   59.4190   27.8333   47.0336 H   0  0  0  0  0  0  0  0  0  0  0  0
   58.7512   25.4346   47.0509 H   0  0  0  0  0  0  0  0  0  0  0  0
   57.8803   23.7752   42.8821 H   0  0  0  0  0  0  0  0  0  0  0  0
   57.1777   21.3861   42.8834 H   0  0  0  0  0  0  0  0  0  0  0  0
   56.5122   20.2727   45.0091 H   0  0  0  0  0  0  0  0  0  0  0  0
   53.5036   19.7421   46.8987 H   0  0  0  0  0  0  0  0  0  0  0  0
   53.5303   21.0942   48.0939 H   0  0  0  0  0  0  0  0  0  0  0  0
   54.7654   21.5775   45.3875 H   0  0  0  0  0  0  0  0  0  0  0  0
   52.9744   21.5124   45.4954 H   0  0  0  0  0  0  0  0  0  0  0  0
   53.6170   26.3390   46.1020 H   0  0  0  0  0  0  0  0  0  0  0  0
   57.2386   23.9660   47.1623 H   0  0  0  0  0  0  0  0  0  0  0  0
   57.3064   25.8116   42.9813 H   0  0  0  0  0  0  0  0  0  0  0  0
   57.9981   28.2055   42.9556 H   0  0  0  0  0  0  0  0  0  0  0  0
   60.2940   31.1001   47.1400 H   0  0  0  0  0  0  0  0  0  0  0  0
   60.8758   31.8025   45.5654 H   0  0  0  0  0  0  0  0  0  0  0  0
   61.3128   33.0893   47.8267 H   0  0  0  0  0  0  0  0  0  0  0  0
   60.8144   33.9807   46.3510 H   0  0  0  0  0  0  0  0  0  0  0  0
  1  2  1  0
  2  3  1  0
  3  4  1  0
  4  5  1  0
  5  6  1  0
  6  7  2  0
  6  8  1  0
  8  9  1  0
  9 10  2  0
 10 11  1  0
 11 12  2  0
 12 13  1  0
 13 14  2  0
 14 15  1  0
 15 16  2  0
 16 17  1  0
 17 18  1  0
 18 19  2  0
 18 20  1  0
 20 21  1  0
 21 22  1  0
 22 23  1  0
 23 24  1  0
 24 25  1  0
 24 26  2  0
 24 27  2  0
 17 28  2  0
 12 29  1  0
 29 30  2  0
  5 31  1  0
 31 32  1  0
 32  2  1  0
 30  9  1  0
 28 13  1  0
  1 33  1  0
  1 34  1  0
  1 35  1  0
  3 36  1  0
  3 37  1  0
  4 38  1  0
  4 39  1  0
  8 40  1  0
 10 41  1  0
 11 42  1  0
 14 43  1  0
 15 44  1  0
 16 45  1  0
 21 46  1  0
 21 47  1  0
 22 48  1  0
 22 49  1  0
 25 50  1  0
 28 51  1  0
 29 52  1  0
 30 53  1  0
 31 54  1  0
 31 55  1  0
 32 56  1  0
 32 57  1  0
M  CHG  3  20  -1  23  -1  25  -1
M  END
>  <UniqueID>  (27) 
24

>  <SMILES>  (27) 
CN1CCN(C(=O)Nc2ccc(-c3cccc(C(=O)[N-]CC[N-]S([NH-])(=O)=O)c3)cc2)CC1

>  <Energy>  (27) 
65.58922073704946

>  <Genealogy>  (27) 
CN1CCN(C(=O)Nc2ccc(-c3cccc(C(=O)[N-]CC[N-]S([NH-])(=O)=O)c3)cc2)CC1 (protonated)
CN1CCN(C(=O)Nc2ccc(-c3cccc(C(=O)[N-]CC[N-]S([NH-])(=O)=O)c3)cc2)CC1 (3D coordinates assigned)
CN1CCN(C(=O)Nc2ccc(-c3cccc(C(=O)[N-]CC[N-]S([NH-])(=O)=O)c3)cc2)CC1 (nonaromatic ring conformer: 65.58922073704946 kcal/mol)

>  <smiles>  (27) 
CN1CCN(C(=O)Nc2ccc(-c3cccc(C(=O)NCCNS(N)(=O)=O)c3)cc2)CC1

>  <score_type>  (27) 
oracle

>  <origin>  (27) 
adg

>  <m_score__min__energy>  (27) 
-15.41

>  <m_primary>  (27) 
energy

$$$$
27:0
     RDKit          3D

 53 56  0  0  0  0  0  0  0  0999 V2000
   58.5610   30.0960   49.0600 N   0  0  0  0  0  0  0  0  0  0  0  0
   59.8860   29.9420   49.5670 C   0  0  0  0  0  0  0  0  0  0  0  0
   60.3380   30.7790   50.3950 O   0  0  0  0  0  0  0  0  0  0  0  0
   60.7510   28.8000   49.1180 C   0  0  0  0  0  0  0  0  0  0  0  0
   59.9910   27.5920   49.0640 O   0  0  0  0  0  0  0  0  0  0  0  0
   59.5020   26.9990   47.8880 C   0  0  0  0  0  0  0  0  0  0  0  0
   60.2580   26.0850   47.1290 C   0  0  0  0  0  0  0  0  0  0  0  0
   59.7180   25.5160   45.9740 C   0  0  0  0  0  0  0  0  0  0  0  0
   58.4190   25.8380   45.5710 C   0  0  0  0  0  0  0  0  0  0  0  0
   57.6480   26.7360   46.3230 C   0  0  0  0  0  0  0  0  0  0  0  0
   56.2650   27.0540   45.8960 C   0  0  0  0  0  0  0  0  0  0  0  0
   55.3530   26.2110   46.1080 O   0  0  0  0  0  0  0  0  0  0  0  0
   55.9200   28.2790   45.2270 N   0  0  0  0  0  0  0  0  0  0  0  0
   56.5510   29.4130   45.3140 C   0  0  0  0  0  0  0  0  0  0  0  0
   56.3830   30.3950   44.3900 N   0  0  0  0  0  0  0  0  0  0  0  0
   57.1770   31.3680   44.8590 C   0  0  0  0  0  0  0  0  0  0  0  0
   57.3960   32.6270   44.3060 C   0  0  0  0  0  0  0  0  0  0  0  0
   58.2820   33.4890   44.9790 C   0  0  0  0  0  0  0  0  0  0  0  0
   58.9290   33.0740   46.1720 C   0  0  0  0  0  0  0  0  0  0  0  0
   60.0430   34.1670   46.9970 S   0  0  0  0  0  0  0  0  0  0  0  0
   59.3040   34.9060   48.0790 O   0  0  0  0  0  0  0  0  0  0  0  0
   60.5620   35.1790   46.0140 O   0  0  0  0  0  0  0  0  0  0  0  0
   61.3830   33.3000   47.7090 N   0  0  0  0  0  0  0  0  0  0  0  0
   61.4370   33.4830   49.1840 C   0  0  0  0  0  0  0  0  0  0  0  0
   62.6140   34.3570   49.6440 C   0  0  0  0  0  0  0  0  0  0  0  0
   63.9500   33.7660   49.1730 C   0  0  0  0  0  0  0  0  0  0  0  0
   63.8540   33.1120   47.7780 C   0  0  0  0  0  0  0  0  0  0  0  0
   62.6400   33.6220   46.9980 C   0  0  0  0  0  0  0  0  0  0  0  0
   58.6760   31.7890   46.7000 C   0  0  0  0  0  0  0  0  0  0  0  0
   57.7830   30.9700   46.0120 C   0  0  0  0  0  0  0  0  0  0  0  0
   57.3940   29.7290   46.3350 N   0  0  0  0  0  0  0  0  0  0  0  0
   58.2120   27.3360   47.4630 C   0  0  0  0  0  0  0  0  0  0  0  0
   58.1770   29.4320   48.3520 H   0  0  0  0  0  0  0  0  0  0  0  0
   57.9700   30.8990   49.3750 H   0  0  0  0  0  0  0  0  0  0  0  0
   61.1526   29.0207   48.1180 H   0  0  0  0  0  0  0  0  0  0  0  0
   61.5746   28.6720   49.8359 H   0  0  0  0  0  0  0  0  0  0  0  0
   61.2768   25.8186   47.4470 H   0  0  0  0  0  0  0  0  0  0  0  0
   60.3174   24.8114   45.3788 H   0  0  0  0  0  0  0  0  0  0  0  0
   57.9998   25.3852   44.6604 H   0  0  0  0  0  0  0  0  0  0  0  0
   56.8948   32.9366   43.3770 H   0  0  0  0  0  0  0  0  0  0  0  0
   58.4749   34.4943   44.5763 H   0  0  0  0  0  0  0  0  0  0  0  0
   60.5004   33.9577   49.5117 H   0  0  0  0  0  0  0  0  0  0  0  0
   61.5751   32.4877   49.6315 H   0  0  0  0  0  0  0  0  0  0  0  0
   62.4986   35.3671   49.2239 H   0  0  0  0  0  0  0  0  0  0  0  0
   62.6146   34.3966   50.7433 H   0  0  0  0  0  0  0  0  0  0  0  0
   64.6968   34.5726   49.1327 H   0  0  0  0  0  0  0  0  0  0  0  0
   64.2366   32.9812   49.8886 H   0  0  0  0  0  0  0  0  0  0  0  0
   64.7668   33.3462   47.2106 H   0  0  0  0  0  0  0  0  0  0  0  0
   63.7434   32.0261   47.9144 H   0  0  0  0  0  0  0  0  0  0  0  0
   62.7188   34.7130   46.8818 H   0  0  0  0  0  0  0  0  0  0  0  0
   62.6229   33.1313   46.0137 H   0  0  0  0  0  0  0  0  0  0  0  0
   59.1670   31.4463   47.6228 H   0  0  0  0  0  0  0  0  0  0  0  0
   57.6315   28.0801   48.0281 H   0  0  0  0  0  0  0  0  0  0  0  0
  1  2  1  0
  2  3  2  0
  2  4  1  0
  4  5  1  0
  5  6  1  0
  6  7  2  0
  7  8  1  0
  8  9  2  0
  9 10  1  0
 10 11  1  0
 11 12  2  0
 11 13  1  0
 13 14  2  3
 14 15  1  0
 15 16  1  0
 16 17  2  0
 17 18  1  0
 18 19  2  0
 19 20  1  0
 20 21  2  0
 20 22  2  0
 20 23  1  0
 23 24  1  0
 24 25  1  0
 25 26  1  0
 26 27  1  0
 27 28  1  0
 19 29  1  0
 29 30  2  0
 30 31  1  0
 10 32  2  0
 32  6  1  0
 31 14  1  0
 30 16  1  0
 28 23  1  0
  1 33  1  0
  1 34  1  0
  4 35  1  0
  4 36  1  0
  7 37  1  0
  8 38  1  0
  9 39  1  0
 17 40  1  0
 18 41  1  0
 24 42  1  0
 24 43  1  0
 25 44  1  0
 25 45  1  0
 26 46  1  0
 26 47  1  0
 27 48  1  0
 27 49  1  0
 28 50  1  0
 28 51  1  0
 29 52  1  0
 32 53  1  0
M  CHG  2  15  -1  31  -1
M  END
>  <UniqueID>  (28) 
25

>  <SMILES>  (28) 
NC(=O)COc1cccc(C(=O)N=c2[n-]c3ccc(S(=O)(=O)N4CCCCC4)cc3[n-]2)c1

>  <Energy>  (28) 
100.93992912807386

>  <Genealogy>  (28) 
NC(=O)COc1cccc(C(=O)N=c2[n-]c3ccc(S(=O)(=O)N4CCCCC4)cc3[n-]2)c1 (protonated)
NC(=O)COc1cccc(C(=O)N=c2[n-]c3ccc(S(=O)(=O)N4CCCCC4)cc3[n-]2)c1 (3D coordinates assigned)
NC(=O)COc1cccc(C(=O)N=c2[n-]c3ccc(S(=O)(=O)N4CCCCC4)cc3[n-]2)c1 (nonaromatic ring conformer: 100.93992912807386 kcal/mol)

>  <smiles>  (28) 
NC(=O)COc1cccc(C(=O)N=c2[nH]c3ccc(S(=O)(=O)N4CCCCC4)cc3[nH]2)c1

>  <score_type>  (28) 
oracle

>  <origin>  (28) 
adg

>  <m_score__min__energy>  (28) 
-12.539999999999999

>  <m_primary>  (28) 
energy

$$$$
28:0
     RDKit          3D

 89 93  0  0  0  0  0  0  0  0999 V2000
   65.3430   33.3550   50.5650 C   0  0  0  0  0  0  0  0  0  0  0  0
   64.3910   32.7310   49.5890 C   0  0  0  0  0  0  0  0  0  0  0  0
   64.2560   33.2520   48.2920 C   0  0  0  0  0  0  0  0  0  0  0  0
   63.3400   32.6890   47.3970 C   0  0  0  0  0  0  0  0  0  0  0  0
   62.5380   31.6070   47.7920 C   0  0  0  0  0  0  0  0  0  0  0  0
   61.5660   30.9910   46.8210 C   0  0  0  0  0  0  0  0  0  0  0  0
   60.3010   30.6870   47.4810 N   0  0  0  0  0  0  0  0  0  0  0  0
   59.0240   31.0870   46.9710 C   0  0  0  0  0  0  0  0  0  0  0  0
   58.1800   31.6260   47.7360 O   0  0  0  0  0  0  0  0  0  0  0  0
   58.7240   30.8890   45.5830 N   0  0  0  0  0  0  0  0  0  0  0  0
   57.3990   31.1510   45.0090 C   0  0  1  0  0  0  0  0  0  0  0  0
   57.4580   32.2360   43.9170 C   0  0  0  0  0  0  0  0  0  0  0  0
   57.2710   33.6470   44.4890 C   0  0  0  0  0  0  0  0  0  0  0  0
   58.3650   33.9640   45.4740 C   0  0  0  0  0  0  0  0  0  0  0  0
   59.7100   33.9200   45.0700 C   0  0  0  0  0  0  0  0  0  0  0  0
   60.7310   34.1590   45.9930 C   0  0  0  0  0  0  0  0  0  0  0  0
   60.4180   34.4370   47.3280 C   0  0  0  0  0  0  0  0  0  0  0  0
   59.0840   34.4700   47.7400 C   0  0  0  0  0  0  0  0  0  0  0  0
   58.0580   34.2290   46.8200 C   0  0  0  0  0  0  0  0  0  0  0  0
   56.7500   29.8810   44.4950 C   0  0  0  0  0  0  0  0  0  0  0  0
   55.5320   29.6920   44.7630 O   0  0  0  0  0  0  0  0  0  0  0  0
   57.3960   28.9310   43.6320 N   0  0  0  0  0  0  0  0  0  0  0  0
   57.9160   27.6110   43.9720 C   0  0  0  0  0  0  0  0  0  0  0  0
   58.5030   27.6230   45.3600 C   0  0  0  0  0  0  0  0  0  0  0  0
   59.8970   27.6900   45.5550 C   0  0  0  0  0  0  0  0  0  0  0  0
   60.4280   27.7680   46.8470 C   0  0  0  0  0  0  0  0  0  0  0  0
   59.5720   27.8280   47.9560 C   0  0  0  0  0  0  0  0  0  0  0  0
   60.1290   27.9430   49.3160 C   0  0  0  0  0  0  0  0  0  0  0  0
   61.1770   27.2990   49.5950 O   0  0  0  0  0  0  0  0  0  0  0  0
   59.4970   28.7660   50.3210 N   0  0  0  0  0  0  0  0  0  0  0  0
   59.9030   28.5970   51.7280 C   0  0  0  0  0  0  0  0  0  0  0  0
   58.7950   29.0460   52.6810 C   0  0  0  0  0  0  0  0  0  0  0  0
   58.2760   30.3490   52.2610 N   0  0  0  0  0  0  0  0  0  0  0  0
   57.8780   31.3180   53.2380 C   0  0  0  0  0  0  0  0  0  0  0  0
   56.6550   31.4960   53.4810 O   0  0  0  0  0  0  0  0  0  0  0  0
   58.9060   32.1650   53.9280 C   0  0  0  0  0  0  0  0  0  0  0  0
   59.8760   32.7620   52.9440 C   0  0  0  0  0  0  0  0  0  0  0  0
   59.4250   33.1900   51.6830 C   0  0  0  0  0  0  0  0  0  0  0  0
   60.3290   33.7270   50.7580 C   0  0  0  0  0  0  0  0  0  0  0  0
   61.6810   33.8430   51.0890 C   0  0  0  0  0  0  0  0  0  0  0  0
   62.1350   33.4280   52.3440 C   0  0  0  0  0  0  0  0  0  0  0  0
   61.2380   32.8900   53.2700 C   0  0  0  0  0  0  0  0  0  0  0  0
   57.7980   30.4730   50.8870 C   0  0  0  0  0  0  0  0  0  0  0  0
   58.9100   30.0580   49.9210 C   0  0  0  0  0  0  0  0  0  0  0  0
   58.1800   27.7930   47.7660 C   0  0  0  0  0  0  0  0  0  0  0  0
   57.6500   27.6820   46.4780 C   0  0  0  0  0  0  0  0  0  0  0  0
   62.6620   31.0980   49.0950 C   0  0  0  0  0  0  0  0  0  0  0  0
   63.5740   31.6620   49.9890 C   0  0  0  0  0  0  0  0  0  0  0  0
   65.0112   33.1375   51.5910 H   0  0  0  0  0  0  0  0  0  0  0  0
   66.3505   32.9415   50.4100 H   0  0  0  0  0  0  0  0  0  0  0  0
   65.3657   34.4438   50.4100 H   0  0  0  0  0  0  0  0  0  0  0  0
   64.8733   34.1067   47.9783 H   0  0  0  0  0  0  0  0  0  0  0  0
   63.2479   33.0961   46.3793 H   0  0  0  0  0  0  0  0  0  0  0  0
   61.3830   31.6962   45.9968 H   0  0  0  0  0  0  0  0  0  0  0  0
   61.9970   30.0557   46.4343 H   0  0  0  0  0  0  0  0  0  0  0  0
   59.5240   30.6560   44.9570 H   0  0  0  0  0  0  0  0  0  0  0  0
   56.7648   31.5366   45.8209 H   0  0  0  0  0  0  0  0  0  0  0  0
   58.4370   32.1832   43.4181 H   0  0  0  0  0  0  0  0  0  0  0  0
   56.6367   32.0475   43.2100 H   0  0  0  0  0  0  0  0  0  0  0  0
   57.3002   34.3778   43.6674 H   0  0  0  0  0  0  0  0  0  0  0  0
   56.3010   33.6968   45.0053 H   0  0  0  0  0  0  0  0  0  0  0  0
   59.9601   33.6964   44.0224 H   0  0  0  0  0  0  0  0  0  0  0  0
   61.7820   34.1286   45.6699 H   0  0  0  0  0  0  0  0  0  0  0  0
   61.2225   34.6296   48.0530 H   0  0  0  0  0  0  0  0  0  0  0  0
   58.8394   34.6860   48.7905 H   0  0  0  0  0  0  0  0  0  0  0  0
   57.0090   34.2469   47.1505 H   0  0  0  0  0  0  0  0  0  0  0  0
   57.0981   26.8767   43.9300 H   0  0  0  0  0  0  0  0  0  0  0  0
   58.7026   27.3396   43.2526 H   0  0  0  0  0  0  0  0  0  0  0  0
   60.5717   27.6809   44.6862 H   0  0  0  0  0  0  0  0  0  0  0  0
   61.5182   27.7823   46.9930 H   0  0  0  0  0  0  0  0  0  0  0  0
   60.1263   27.5357   51.9120 H   0  0  0  0  0  0  0  0  0  0  0  0
   60.7924   29.2179   51.9108 H   0  0  0  0  0  0  0  0  0  0  0  0
   57.9803   28.3070   52.6675 H   0  0  0  0  0  0  0  0  0  0  0  0
   59.2037   29.1293   53.6989 H   0  0  0  0  0  0  0  0  0  0  0  0
   58.3970   32.9778   54.4668 H   0  0  0  0  0  0  0  0  0  0  0  0
   59.4688   31.5270   54.6253 H   0  0  0  0  0  0  0  0  0  0  0  0
   58.3599   33.1029   51.4224 H   0  0  0  0  0  0  0  0  0  0  0  0
   59.9743   34.0575   49.7706 H   0  0  0  0  0  0  0  0  0  0  0  0
   62.3903   34.2620   50.3601 H   0  0  0  0  0  0  0  0  0  0  0  0
   63.1997   33.5251   52.6029 H   0  0  0  0  0  0  0  0  0  0  0  0
   61.5982   32.5654   54.2574 H   0  0  0  0  0  0  0  0  0  0  0  0
   56.9242   29.8206   50.7424 H   0  0  0  0  0  0  0  0  0  0  0  0
   57.5124   31.5170   50.6908 H   0  0  0  0  0  0  0  0  0  0  0  0
   58.4915   29.9656   48.9079 H   0  0  0  0  0  0  0  0  0  0  0  0
   59.6986   30.8246   49.9415 H   0  0  0  0  0  0  0  0  0  0  0  0
   57.5061   27.8531   48.6333 H   0  0  0  0  0  0  0  0  0  0  0  0
   56.5599   27.6405   46.3369 H   0  0  0  0  0  0  0  0  0  0  0  0
   62.0372   30.2503   49.4129 H   0  0  0  0  0  0  0  0  0  0  0  0
   63.6528   31.2665   51.0124 H   0  0  0  0  0  0  0  0  0  0  0  0
  1  2  1  0
  2  3  2  0
  3  4  1  0
  4  5  2  0
  5  6  1  0
  6  7  1  0
  7  8  1  0
  8  9  2  0
  8 10  1  0
 10 11  1  0
 11 12  1  0
 12 13  1  0
 13 14  1  0
 14 15  2  0
 15 16  1  0
 16 17  2  0
 17 18  1  0
 18 19  2  0
 11 20  1  0
 20 21  2  0
 20 22  1  0
 22 23  1  0
 23 24  1  0
 24 25  2  0
 25 26  1  0
 26 27  2  0
 27 28  1  0
 28 29  2  0
 28 30  1  0
 30 31  1  0
 31 32  1  0
 32 33  1  0
 33 34  1  0
 34 35  2  0
 34 36  1  0
 36 37  1  0
 37 38  2  0
 38 39  1  0
 39 40  2  0
 40 41  1  0
 41 42  2  0
 33 43  1  0
 43 44  1  0
 27 45  1  0
 45 46  2  0
  5 47  1  0
 47 48  2  0
 48  2  1  0
 19 14  1  0
 46 24  1  0
 44 30  1  0
 42 37  1  0
  1 49  1  0
  1 50  1  0
  1 51  1  0
  3 52  1  0
  4 53  1  0
  6 54  1  0
  6 55  1  0
 10 56  1  0
 11 57  1  1
 12 58  1  0
 12 59  1  0
 13 60  1  0
 13 61  1  0
 15 62  1  0
 16 63  1  0
 17 64  1  0
 18 65  1  0
 19 66  1  0
 23 67  1  0
 23 68  1  0
 25 69  1  0
 26 70  1  0
 31 71  1  0
 31 72  1  0
 32 73  1  0
 32 74  1  0
 36 75  1  0
 36 76  1  0
 38 77  1  0
 39 78  1  0
 40 79  1  0
 41 80  1  0
 42 81  1  0
 43 82  1  0
 43 83  1  0
 44 84  1  0
 44 85  1  0
 45 86  1  0
 46 87  1  0
 47 88  1  0
 48 89  1  0
M  CHG  2   7  -1  22  -1
M  END
>  <UniqueID>  (29) 
26

>  <SMILES>  (29) 
Cc1ccc(C[N-]C(=O)N[C@@H](CCc2ccccc2)C(=O)[N-]Cc2ccc(C(=O)N3CCN(C(=O)Cc4ccccc4)CC3)cc2)cc1

>  <Energy>  (29) 
97.4306371239944

>  <Genealogy>  (29) 
Cc1ccc(C[N-]C(=O)NC(CCc2ccccc2)C(=O)[N-]Cc2ccc(C(=O)N3CCN(C(=O)Cc4ccccc4)CC3)cc2)cc1 (protonated)
Cc1ccc(C[N-]C(=O)N[C@@H](CCc2ccccc2)C(=O)[N-]Cc2ccc(C(=O)N3CCN(C(=O)Cc4ccccc4)CC3)cc2)cc1 (chirality)
Cc1ccc(C[N-]C(=O)N[C@@H](CCc2ccccc2)C(=O)[N-]Cc2ccc(C(=O)N3CCN(C(=O)Cc4ccccc4)CC3)cc2)cc1 (3D coordinates assigned)
Cc1ccc(C[N-]C(=O)N[C@@H](CCc2ccccc2)C(=O)[N-]Cc2ccc(C(=O)N3CCN(C(=O)Cc4ccccc4)CC3)cc2)cc1 (nonaromatic ring conformer: 97.4306371239944 kcal/mol)

>  <smiles>  (29) 
Cc1ccc(CNC(=O)NC(CCc2ccccc2)C(=O)NCc2ccc(C(=O)N3CCN(C(=O)Cc4ccccc4)CC3)cc2)cc1

>  <score_type>  (29) 
oracle

>  <origin>  (29) 
adg

>  <m_score__min__energy>  (29) 
-14.27

>  <m_primary>  (29) 
energy

$$$$
29:0
     RDKit          3D

 46 48  0  0  0  0  0  0  0  0999 V2000
   65.7420   33.4470   50.5070 C   0  0  0  0  0  0  0  0  0  0  0  0
   64.9050   32.2820   50.0700 C   0  0  0  0  0  0  0  0  0  0  0  0
   65.1980   31.1390   50.5130 O   0  0  0  0  0  0  0  0  0  0  0  0
   63.8020   32.4380   49.1450 N   0  0  0  0  0  0  0  0  0  0  0  0
   62.7370   31.4180   49.1190 C   0  0  0  0  0  0  0  0  0  0  0  0
   62.1780   31.2530   47.7050 C   0  0  0  0  0  0  0  0  0  0  0  0
   61.8600   32.5710   47.1510 N   0  0  0  0  0  0  0  0  0  0  0  0
   60.4950   33.0150   47.0500 C   0  0  0  0  0  0  0  0  0  0  0  0
   60.1710   34.1330   47.5360 O   0  0  0  0  0  0  0  0  0  0  0  0
   59.4660   32.1890   46.3750 C   0  0  0  0  0  0  0  0  0  0  0  0
   58.8220   32.6620   45.2180 C   0  0  0  0  0  0  0  0  0  0  0  0
   57.8600   31.8810   44.5720 C   0  0  0  0  0  0  0  0  0  0  0  0
   57.5290   30.6140   45.0700 C   0  0  0  0  0  0  0  0  0  0  0  0
   56.3270   29.6240   44.2490 S   0  0  0  0  0  0  0  0  0  0  0  0
   55.1120   30.4630   43.9670 O   0  0  0  0  0  0  0  0  0  0  0  0
   56.9040   29.1030   42.9630 O   0  0  0  0  0  0  0  0  0  0  0  0
   55.8950   28.2830   45.2610 N   0  0  0  0  0  0  0  0  0  0  0  0
   56.7710   27.2070   45.6200 C   0  0  0  0  0  0  0  0  0  0  0  0
   58.1200   27.1710   45.2270 C   0  0  0  0  0  0  0  0  0  0  0  0
   58.9270   26.0960   45.6070 C   0  0  0  0  0  0  0  0  0  0  0  0
   58.3810   25.0670   46.3760 C   0  0  0  0  0  0  0  0  0  0  0  0
   57.0750   25.1170   46.7490 N   0  0  0  0  0  0  0  0  0  0  0  0
   56.2690   26.1530   46.3920 C   0  0  0  0  0  0  0  0  0  0  0  0
   58.1800   30.1280   46.2090 C   0  0  0  0  0  0  0  0  0  0  0  0
   59.1430   30.9070   46.8570 C   0  0  0  0  0  0  0  0  0  0  0  0
   62.9590   33.5370   47.1000 C   0  0  0  0  0  0  0  0  0  0  0  0
   63.5310   33.7380   48.5040 C   0  0  0  0  0  0  0  0  0  0  0  0
   65.7703   33.4864   51.6059 H   0  0  0  0  0  0  0  0  0  0  0  0
   66.7642   33.3305   50.1178 H   0  0  0  0  0  0  0  0  0  0  0  0
   65.3054   34.3786   50.1178 H   0  0  0  0  0  0  0  0  0  0  0  0
   63.1500   30.4565   49.4581 H   0  0  0  0  0  0  0  0  0  0  0  0
   61.9230   31.7409   49.7847 H   0  0  0  0  0  0  0  0  0  0  0  0
   62.9275   30.7588   47.0694 H   0  0  0  0  0  0  0  0  0  0  0  0
   61.2659   30.6391   47.7397 H   0  0  0  0  0  0  0  0  0  0  0  0
   59.0774   33.6545   44.8183 H   0  0  0  0  0  0  0  0  0  0  0  0
   57.3607   32.2624   43.6691 H   0  0  0  0  0  0  0  0  0  0  0  0
   58.5395   27.9878   44.6213 H   0  0  0  0  0  0  0  0  0  0  0  0
   59.9835   26.0607   45.3029 H   0  0  0  0  0  0  0  0  0  0  0  0
   59.0077   24.2157   46.6801 H   0  0  0  0  0  0  0  0  0  0  0  0
   55.2166   26.1624   46.7119 H   0  0  0  0  0  0  0  0  0  0  0  0
   57.9330   29.1285   46.5963 H   0  0  0  0  0  0  0  0  0  0  0  0
   59.6519   30.5151   47.7500 H   0  0  0  0  0  0  0  0  0  0  0  0
   63.7483   33.1586   46.4338 H   0  0  0  0  0  0  0  0  0  0  0  0
   62.5835   34.4976   46.7176 H   0  0  0  0  0  0  0  0  0  0  0  0
   64.4686   34.3090   48.4341 H   0  0  0  0  0  0  0  0  0  0  0  0
   62.7959   34.2864   49.1113 H   0  0  0  0  0  0  0  0  0  0  0  0
  1  2  1  0
  2  3  2  0
  2  4  1  0
  4  5  1  0
  5  6  1  0
  6  7  1  0
  7  8  1  0
  8  9  2  0
  8 10  1  0
 10 11  2  0
 11 12  1  0
 12 13  2  0
 13 14  1  0
 14 15  2  0
 14 16  2  0
 14 17  1  0
 17 18  1  0
 18 19  2  0
 19 20  1  0
 20 21  2  0
 21 22  1  0
 22 23  2  0
 13 24  1  0
 24 25  2  0
  7 26  1  0
 26 27  1  0
 27  4  1  0
 25 10  1  0
 23 18  1  0
  1 28  1  0
  1 29  1  0
  1 30  1  0
  5 31  1  0
  5 32  1  0
  6 33  1  0
  6 34  1  0
 11 35  1  0
 12 36  1  0
 19 37  1  0
 20 38  1  0
 21 39  1  0
 23 40  1  0
 24 41  1  0
 25 42  1  0
 26 43  1  0
 26 44  1  0
 27 45  1  0
 27 46  1  0
M  CHG  1  17  -1
M  END
>  <UniqueID>  (30) 
27

>  <SMILES>  (30) 
CC(=O)N1CCN(C(=O)c2ccc(S(=O)(=O)[N-]c3cccnc3)cc2)CC1

>  <Energy>  (30) 
56.697757170664524

>  <Genealogy>  (30) 
CC(=O)N1CCN(C(=O)c2ccc(S(=O)(=O)[N-]c3cccnc3)cc2)CC1 (protonated)
CC(=O)N1CCN(C(=O)c2ccc(S(=O)(=O)[N-]c3cccnc3)cc2)CC1 (3D coordinates assigned)
CC(=O)N1CCN(C(=O)c2ccc(S(=O)(=O)[N-]c3cccnc3)cc2)CC1 (nonaromatic ring conformer: 56.697757170664524 kcal/mol)

>  <smiles>  (30) 
CC(=O)N1CCN(C(=O)c2ccc(S(=O)(=O)Nc3cccnc3)cc2)CC1

>  <score_type>  (30) 
oracle

>  <origin>  (30) 
adg

>  <m_score__min__energy>  (30) 
-10.050000000000001

>  <m_primary>  (30) 
energy

$$$$
30:0
     RDKit          3D

 57 60  0  0  0  0  0  0  0  0999 V2000
   55.1600   28.6180   45.6250 H   0  0  0  0  0  0  0  0  0  0  0  0
   56.1240   28.6040   45.2230 N   0  0  0  0  0  0  0  0  0  0  0  0
   56.2880   30.0300   44.2610 S   0  0  0  0  0  0  0  0  0  0  0  0
   54.9480   30.6920   44.1110 O   0  0  0  0  0  0  0  0  0  0  0  0
   56.7960   29.6570   42.8970 O   0  0  0  0  0  0  0  0  0  0  0  0
   57.4190   31.1340   45.0360 C   0  0  0  0  0  0  0  0  0  0  0  0
   58.6160   30.6500   45.5800 C   0  0  0  0  0  0  0  0  0  0  0  0
   58.8570   29.5792   45.5077 H   0  0  0  0  0  0  0  0  0  0  0  0
   59.5050   31.5220   46.2140 C   0  0  0  0  0  0  0  0  0  0  0  0
   60.4486   31.1360   46.6271 H   0  0  0  0  0  0  0  0  0  0  0  0
   59.2000   32.8910   46.3270 C   0  0  0  0  0  0  0  0  0  0  0  0
   60.1340   33.8220   47.0050 C   0  0  0  0  0  0  0  0  0  0  0  0
   59.6800   34.8760   47.5240 O   0  0  0  0  0  0  0  0  0  0  0  0
   61.5520   33.5910   47.0470 N   0  0  0  0  0  0  0  0  0  0  0  0
   62.1940   32.9230   47.9610 C   0  0  0  0  0  0  0  0  0  0  0  0
   63.4430   33.2960   48.3580 N   0  0  0  0  0  0  0  0  0  0  0  0
   64.1370   32.6130   49.3070 C   0  0  0  0  0  0  0  0  0  0  0  0
   65.4880   33.0940   49.7290 C   0  0  0  0  0  0  0  0  0  0  0  0
   65.5436   33.1138   50.8274 H   0  0  0  0  0  0  0  0  0  0  0  0
   66.2585   32.4150   49.3351 H   0  0  0  0  0  0  0  0  0  0  0  0
   65.6560   34.1072   49.3351 H   0  0  0  0  0  0  0  0  0  0  0  0
   63.5690   31.4800   49.9010 C   0  0  0  0  0  0  0  0  0  0  0  0
   64.1160   30.9322   50.6825 H   0  0  0  0  0  0  0  0  0  0  0  0
   62.2980   31.0470   49.4940 C   0  0  0  0  0  0  0  0  0  0  0  0
   61.6770   29.8540   50.1100 C   0  0  0  0  0  0  0  0  0  0  0  0
   61.9990   29.5280   51.2860 O   0  0  0  0  0  0  0  0  0  0  0  0
   60.7150   29.0600   49.3950 N   0  0  0  0  0  0  0  0  0  0  0  0
   60.6960   27.6040   49.5950 C   0  0  0  0  0  0  0  0  0  0  0  0
   61.7010   27.2654   49.8870 H   0  0  0  0  0  0  0  0  0  0  0  0
   59.9704   27.3626   50.3857 H   0  0  0  0  0  0  0  0  0  0  0  0
   60.2780   26.8900   48.3020 C   0  0  0  0  0  0  0  0  0  0  0  0
   61.1355   26.8694   47.6133 H   0  0  0  0  0  0  0  0  0  0  0  0
   59.9561   25.8709   48.5624 H   0  0  0  0  0  0  0  0  0  0  0  0
   59.1530   27.5710   47.6420 N   0  0  0  0  0  0  0  0  0  0  0  0
   58.7500   27.1600   46.3210 C   0  0  0  0  0  0  0  0  0  0  0  0
   57.8290   26.1100   46.1520 C   0  0  0  0  0  0  0  0  0  0  0  0
   57.4218   25.5919   47.0328 H   0  0  0  0  0  0  0  0  0  0  0  0
   57.4290   25.7220   44.8700 C   0  0  0  0  0  0  0  0  0  0  0  0
   56.7117   24.8975   44.7444 H   0  0  0  0  0  0  0  0  0  0  0  0
   57.9390   26.3800   43.7480 C   0  0  0  0  0  0  0  0  0  0  0  0
   57.6239   26.0727   42.7399 H   0  0  0  0  0  0  0  0  0  0  0  0
   58.8490   27.4280   43.9060 C   0  0  0  0  0  0  0  0  0  0  0  0
   59.2490   27.9463   43.0220 H   0  0  0  0  0  0  0  0  0  0  0  0
   59.2520   27.8190   45.1870 C   0  0  0  0  0  0  0  0  0  0  0  0
   59.9660   28.6472   45.3069 H   0  0  0  0  0  0  0  0  0  0  0  0
   58.5180   28.7220   48.2940 C   0  0  0  0  0  0  0  0  0  0  0  0
   57.8204   29.2024   47.5921 H   0  0  0  0  0  0  0  0  0  0  0  0
   57.9669   28.3821   49.1832 H   0  0  0  0  0  0  0  0  0  0  0  0
   59.5930   29.7270   48.7130 C   0  0  0  0  0  0  0  0  0  0  0  0
   59.9726   30.2396   47.8168 H   0  0  0  0  0  0  0  0  0  0  0  0
   59.1411   30.4463   49.4119 H   0  0  0  0  0  0  0  0  0  0  0  0
   61.6040   31.7850   48.5230 C   0  0  0  0  0  0  0  0  0  0  0  0
   60.5993   31.4701   48.2045 H   0  0  0  0  0  0  0  0  0  0  0  0
   58.0050   33.3730   45.7680 C   0  0  0  0  0  0  0  0  0  0  0  0
   57.7663   34.4450   45.8295 H   0  0  0  0  0  0  0  0  0  0  0  0
   57.1170   32.4990   45.1340 C   0  0  0  0  0  0  0  0  0  0  0  0
   56.1777   32.8841   44.7105 H   0  0  0  0  0  0  0  0  0  0  0  0
  1  2  1  0
  2  3  1  0
  3  4  2  0
  3  5  2  0
  3  6  1  0
  6  7  2  0
  7  8  1  0
  7  9  1  0
  9 10  1  0
  9 11  2  0
 11 12  1  0
 12 13  2  0
 12 14  1  0
 14 15  2  0
 15 16  1  0
 16 17  1  0
 17 18  1  0
 18 19  1  0
 18 20  1  0
 18 21  1  0
 17 22  2  0
 22 23  1  0
 22 24  1  0
 24 25  1  0
 25 26  2  0
 25 27  1  0
 27 28  1  0
 28 29  1  0
 28 30  1  0
 28 31  1  0
 31 32  1  0
 31 33  1  0
 31 34  1  0
 34 35  1  0
 35 36  2  0
 36 37  1  0
 36 38  1  0
 38 39  1  0
 38 40  2  0
 40 41  1  0
 40 42  1  0
 42 43  1  0
 42 44  2  0
 44 45  1  0
 34 46  1  0
 46 47  1  0
 46 48  1  0
 46 49  1  0
 49 50  1  0
 49 51  1  0
 24 52  2  0
 52 53  1  0
 11 54  1  0
 54 55  1  0
 54 56  2  0
 56 57  1  0
 56  6  1  0
 52 15  1  0
 49 27  1  0
 44 35  1  0
M  CHG  2   2  -1  16  -1
M  END
>  <UniqueID>  (31) 
28

>  <SMILES>  (31) 
Cc1cc(C(=O)N2CCN(c3ccccc3)CC2)c/c(=N/C(=O)c2ccc(S([NH-])(=O)=O)cc2)[n-]1

>  <Energy>  (31) 
76.20706801440909

>  <Genealogy>  (31) 
Cc1cc(C(=O)N2CCN(c3ccccc3)CC2)cc(=NC(=O)c2ccc(S([NH-])(=O)=O)cc2)[n-]1 (protonated)
Cc1cc(C(=O)N2CCN(c3ccccc3)CC2)c/c(=N/C(=O)c2ccc(S([NH-])(=O)=O)cc2)[n-]1 (cis-trans isomerization)
Cc1cc(C(=O)N2CCN(c3ccccc3)CC2)c/c(=N/C(=O)c2ccc(S([NH-])(=O)=O)cc2)[n-]1 (3D coordinates assigned)
Cc1cc(C(=O)N2CCN(c3ccccc3)CC2)c/c(=N/C(=O)c2ccc(S([NH-])(=O)=O)cc2)[n-]1 (nonaromatic ring conformer: 76.20706801440909 kcal/mol)

>  <smiles>  (31) 
Cc1cc(C(=O)N2CCN(c3ccccc3)CC2)cc(=NC(=O)c2ccc(S(N)(=O)=O)cc2)[nH]1

>  <score_type>  (31) 
oracle

>  <origin>  (31) 
adg

>  <m_score__min__energy>  (31) 
-13.66

>  <m_primary>  (31) 
energy

$$$$
31:0
     RDKit          3D

 46 48  0  0  0  0  0  0  0  0999 V2000
   57.2660   31.4120   51.5940 C   0  0  0  0  0  0  0  0  0  0  0  0
   57.8010   30.3610   50.7400 N   0  0  0  0  0  0  0  0  0  0  0  0
   58.5240   30.5840   49.5230 C   0  0  0  0  0  0  0  0  0  0  0  0
   58.6920   29.6180   48.7320 O   0  0  0  0  0  0  0  0  0  0  0  0
   59.0440   31.9150   49.1480 C   0  0  0  0  0  0  0  0  0  0  0  0
   59.9800   32.5760   49.9570 C   0  0  0  0  0  0  0  0  0  0  0  0
   60.4870   33.8200   49.5760 C   0  0  0  0  0  0  0  0  0  0  0  0
   60.0640   34.4140   48.3850 C   0  0  0  0  0  0  0  0  0  0  0  0
   59.1210   33.7690   47.5710 C   0  0  0  0  0  0  0  0  0  0  0  0
   58.6990   34.3430   46.3290 N   0  0  0  0  0  0  0  0  0  0  0  0
   57.8650   33.7050   45.3530 C   0  0  0  0  0  0  0  0  0  0  0  0
   56.6870   34.1200   45.2000 O   0  0  0  0  0  0  0  0  0  0  0  0
   58.3990   32.6500   44.4190 C   0  0  0  0  0  0  0  0  0  0  0  0
   57.7840   31.3490   44.6820 N   0  0  0  0  0  0  0  0  0  0  0  0
   56.4950   31.0090   44.4720 C   0  0  0  0  0  0  0  0  0  0  0  0
   56.3300   29.7050   44.8890 C   0  0  0  0  0  0  0  0  0  0  0  0
   55.1460   28.9810   44.8110 O   0  0  0  0  0  0  0  0  0  0  0  0
   57.4970   29.2240   45.3660 N   0  0  0  0  0  0  0  0  0  0  0  0
   57.7570   27.9140   45.9050 C   0  0  0  0  0  0  0  0  0  0  0  0
   59.0640   27.5350   46.2520 C   0  0  0  0  0  0  0  0  0  0  0  0
   59.3160   26.2650   46.7730 C   0  0  0  0  0  0  0  0  0  0  0  0
   58.2680   25.3600   46.9520 C   0  0  0  0  0  0  0  0  0  0  0  0
   56.9570   25.7160   46.6140 C   0  0  0  0  0  0  0  0  0  0  0  0
   55.9380   24.7730   46.8160 O   0  0  0  0  0  0  0  0  0  0  0  0
   55.1750   24.1760   45.7730 C   0  0  0  0  0  0  0  0  0  0  0  0
   56.7060   26.9980   46.0890 C   0  0  0  0  0  0  0  0  0  0  0  0
   58.3600   30.2560   45.2310 C   0  0  0  0  0  0  0  0  0  0  0  0
   59.5610   30.2200   45.6150 O   0  0  0  0  0  0  0  0  0  0  0  0
   58.6410   32.5060   47.9390 C   0  0  0  0  0  0  0  0  0  0  0  0
   57.4072   31.1346   52.6490 H   0  0  0  0  0  0  0  0  0  0  0  0
   57.7937   32.3551   51.3891 H   0  0  0  0  0  0  0  0  0  0  0  0
   56.1929   31.5403   51.3891 H   0  0  0  0  0  0  0  0  0  0  0  0
   60.3162   32.1122   50.8960 H   0  0  0  0  0  0  0  0  0  0  0  0
   61.2208   34.3330   50.2150 H   0  0  0  0  0  0  0  0  0  0  0  0
   60.4714   35.3905   48.0843 H   0  0  0  0  0  0  0  0  0  0  0  0
   58.1822   32.9461   43.3820 H   0  0  0  0  0  0  0  0  0  0  0  0
   59.4837   32.5607   44.5787 H   0  0  0  0  0  0  0  0  0  0  0  0
   55.7152   31.6565   44.0445 H   0  0  0  0  0  0  0  0  0  0  0  0
   59.8940   28.2433   46.1123 H   0  0  0  0  0  0  0  0  0  0  0  0
   60.3425   25.9764   47.0432 H   0  0  0  0  0  0  0  0  0  0  0  0
   58.4740   24.3601   47.3616 H   0  0  0  0  0  0  0  0  0  0  0  0
   54.3800   23.5540   46.2102 H   0  0  0  0  0  0  0  0  0  0  0  0
   54.7242   24.9637   45.1514 H   0  0  0  0  0  0  0  0  0  0  0  0
   55.8312   23.5490   45.1514 H   0  0  0  0  0  0  0  0  0  0  0  0
   55.6788   27.2856   45.8204 H   0  0  0  0  0  0  0  0  0  0  0  0
   57.9433   31.9728   47.2765 H   0  0  0  0  0  0  0  0  0  0  0  0
  1  2  1  0
  2  3  1  0
  3  4  2  0
  3  5  1  0
  5  6  2  0
  6  7  1  0
  7  8  2  0
  8  9  1  0
  9 10  1  0
 10 11  1  0
 11 12  2  0
 11 13  1  0
 13 14  1  0
 14 15  1  0
 15 16  2  0
 16 17  1  0
 16 18  1  0
 18 19  1  0
 19 20  2  0
 20 21  1  0
 21 22  2  0
 22 23  1  0
 23 24  1  0
 24 25  1  0
 23 26  2  0
 18 27  1  0
 27 28  2  0
  9 29  2  0
 29  5  1  0
 27 14  1  0
 26 19  1  0
  1 30  1  0
  1 31  1  0
  1 32  1  0
  6 33  1  0
  7 34  1  0
  8 35  1  0
 13 36  1  0
 13 37  1  0
 15 38  1  0
 20 39  1  0
 21 40  1  0
 22 41  1  0
 25 42  1  0
 25 43  1  0
 25 44  1  0
 26 45  1  0
 29 46  1  0
M  CHG  3   2  -1  10  -1  17  -1
M  END
>  <UniqueID>  (32) 
29

>  <SMILES>  (32) 
C[N-]C(=O)c1cccc([N-]C(=O)Cn2cc([O-])n(-c3cccc(OC)c3)c2=O)c1

>  <Energy>  (32) 
95.04289526718853

>  <Genealogy>  (32) 
C[N-]C(=O)c1cccc([N-]C(=O)Cn2cc([O-])n(-c3cccc(OC)c3)c2=O)c1 (protonated)
C[N-]C(=O)c1cccc([N-]C(=O)Cn2cc([O-])n(-c3cccc(OC)c3)c2=O)c1 (3D coordinates assigned)
C[N-]C(=O)c1cccc([N-]C(=O)Cn2cc([O-])n(-c3cccc(OC)c3)c2=O)c1 (optimized conformer: 95.04289526718853 kcal/mol)

>  <smiles>  (32) 
CNC(=O)c1cccc(NC(=O)Cn2cc(O)n(-c3cccc(OC)c3)c2=O)c1

>  <score_type>  (32) 
oracle

>  <origin>  (32) 
adg

>  <m_score__min__energy>  (32) 
-13.52

>  <m_primary>  (32) 
energy

$$$$
32:0
     RDKit          3D

 51 53  0  0  0  0  0  0  0  0999 V2000
   56.6420   24.3480   43.9830 C   0  0  0  0  0  0  0  0  0  0  0  0
   55.7210   24.2960   44.9430 C   0  0  0  0  0  0  0  0  0  0  0  0
   55.2430   25.5020   45.6500 C   0  0  0  0  0  0  0  0  0  0  0  0
   54.0190   25.8010   45.6300 O   0  0  0  0  0  0  0  0  0  0  0  0
   56.1340   26.3080   46.4310 N   0  0  0  0  0  0  0  0  0  0  0  0
   57.1650   27.1690   45.9260 C   0  0  0  0  0  0  0  0  0  0  0  0
   58.4960   26.7350   45.9770 C   0  0  0  0  0  0  0  0  0  0  0  0
   59.5270   27.5630   45.5240 C   0  0  0  0  0  0  0  0  0  0  0  0
   59.2360   28.8370   45.0310 C   0  0  0  0  0  0  0  0  0  0  0  0
   57.9130   29.2920   44.9940 C   0  0  0  0  0  0  0  0  0  0  0  0
   57.5640   30.9180   44.4110 S   0  0  0  0  0  0  0  0  0  0  0  0
   57.9360   31.0000   42.9570 O   0  0  0  0  0  0  0  0  0  0  0  0
   56.0940   31.2060   44.5460 O   0  0  0  0  0  0  0  0  0  0  0  0
   58.4890   32.0860   45.3240 N   0  0  2  0  0  0  0  0  0  0  0  0
   58.1360   32.0010   46.7530 C   0  0  0  0  0  0  0  0  0  0  0  0
   59.0730   32.8780   47.6050 C   0  0  0  0  0  0  0  0  0  0  0  0
   59.4560   34.2190   46.9200 C   0  0  1  0  0  0  0  0  0  0  0  0
   60.9180   34.2040   46.4090 C   0  0  0  0  0  0  0  0  0  0  0  0
   61.8840   33.6990   47.4520 C   0  0  0  0  0  0  0  0  0  0  0  0
   61.8410   34.2080   48.7610 C   0  0  0  0  0  0  0  0  0  0  0  0
   62.7490   33.7550   49.7230 C   0  0  0  0  0  0  0  0  0  0  0  0
   63.7070   32.7940   49.3860 C   0  0  0  0  0  0  0  0  0  0  0  0
   63.7590   32.2850   48.0860 C   0  0  0  0  0  0  0  0  0  0  0  0
   62.8520   32.7350   47.1200 C   0  0  0  0  0  0  0  0  0  0  0  0
   58.4430   34.5750   45.8130 C   0  0  0  0  0  0  0  0  0  0  0  0
   58.2770   33.4480   44.7690 C   0  0  0  0  0  0  0  0  0  0  0  0
   56.8800   28.4640   45.4560 C   0  0  0  0  0  0  0  0  0  0  0  0
   56.9683   23.4240   43.4833 H   0  0  0  0  0  0  0  0  0  0  0  0
   57.0766   25.3150   43.6896 H   0  0  0  0  0  0  0  0  0  0  0  0
   55.3001   23.3183   45.2202 H   0  0  0  0  0  0  0  0  0  0  0  0
   58.7310   25.7371   46.3757 H   0  0  0  0  0  0  0  0  0  0  0  0
   60.5686   27.2109   45.5558 H   0  0  0  0  0  0  0  0  0  0  0  0
   60.0490   29.4846   44.6708 H   0  0  0  0  0  0  0  0  0  0  0  0
   59.4940   31.8180   45.2120 H   0  0  0  0  0  0  0  0  0  0  0  0
   57.0997   32.3440   46.8888 H   0  0  0  0  0  0  0  0  0  0  0  0
   58.2411   30.9557   47.0789 H   0  0  0  0  0  0  0  0  0  0  0  0
   58.5694   33.1040   48.5565 H   0  0  0  0  0  0  0  0  0  0  0  0
   60.0041   32.3109   47.7515 H   0  0  0  0  0  0  0  0  0  0  0  0
   59.4055   35.0175   47.6749 H   0  0  0  0  0  0  0  0  0  0  0  0
   60.9774   33.5507   45.5260 H   0  0  0  0  0  0  0  0  0  0  0  0
   61.1991   35.2386   46.1629 H   0  0  0  0  0  0  0  0  0  0  0  0
   61.0902   34.9656   49.0299 H   0  0  0  0  0  0  0  0  0  0  0  0
   62.7095   34.1554   50.7468 H   0  0  0  0  0  0  0  0  0  0  0  0
   64.4199   32.4386   50.1446 H   0  0  0  0  0  0  0  0  0  0  0  0
   64.5137   31.5297   47.8215 H   0  0  0  0  0  0  0  0  0  0  0  0
   62.8966   32.3330   46.0971 H   0  0  0  0  0  0  0  0  0  0  0  0
   57.4659   34.7686   46.2797 H   0  0  0  0  0  0  0  0  0  0  0  0
   58.8260   35.4613   45.2859 H   0  0  0  0  0  0  0  0  0  0  0  0
   57.2577   33.5015   44.3589 H   0  0  0  0  0  0  0  0  0  0  0  0
   59.0469   33.6058   43.9993 H   0  0  0  0  0  0  0  0  0  0  0  0
   55.8422   28.8286   45.4509 H   0  0  0  0  0  0  0  0  0  0  0  0
  1  2  2  0
  2  3  1  0
  3  4  2  0
  3  5  1  0
  5  6  1  0
  6  7  2  0
  7  8  1  0
  8  9  2  0
  9 10  1  0
 10 11  1  0
 11 12  2  0
 11 13  2  0
 11 14  1  0
 14 15  1  0
 15 16  1  0
 16 17  1  0
 17 18  1  0
 18 19  1  0
 19 20  2  0
 20 21  1  0
 21 22  2  0
 22 23  1  0
 23 24  2  0
 17 25  1  0
 25 26  1  0
 10 27  2  0
 27  6  1  0
 26 14  1  0
 24 19  1  0
  1 28  1  0
  1 29  1  0
  2 30  1  0
  7 31  1  0
  8 32  1  0
  9 33  1  0
 14 34  1  1
 15 35  1  0
 15 36  1  0
 16 37  1  0
 16 38  1  0
 17 39  1  1
 18 40  1  0
 18 41  1  0
 20 42  1  0
 21 43  1  0
 22 44  1  0
 23 45  1  0
 24 46  1  0
 25 47  1  0
 25 48  1  0
 26 49  1  0
 26 50  1  0
 27 51  1  0
M  CHG  2   5  -1  14   1
M  END
>  <UniqueID>  (33) 
30

>  <SMILES>  (33) 
C=CC(=O)[N-]c1cccc(S(=O)(=O)[NH+]2CCC(Cc3ccccc3)CC2)c1

>  <Energy>  (33) 
59.112482831967256

>  <Genealogy>  (33) 
C=CC(=O)[N-]c1cccc(S(=O)(=O)[NH+]2CCC(Cc3ccccc3)CC2)c1 (protonated)
C=CC(=O)[N-]c1cccc(S(=O)(=O)[NH+]2CCC(Cc3ccccc3)CC2)c1 (3D coordinates assigned)
C=CC(=O)[N-]c1cccc(S(=O)(=O)[NH+]2CCC(Cc3ccccc3)CC2)c1 (nonaromatic ring conformer: 59.112482831967256 kcal/mol)

>  <smiles>  (33) 
C=CC(=O)Nc1cccc(S(=O)(=O)N2CCC(Cc3ccccc3)CC2)c1

>  <score_type>  (33) 
oracle

>  <origin>  (33) 
adg

>  <m_score__min__energy>  (33) 
-10.81

>  <m_primary>  (33) 
energy

$$$$
33:0
     RDKit          3D

 46 48  0  0  0  0  0  0  0  0999 V2000
   59.5520   28.2780   44.4950 C   0  0  0  0  0  0  0  0  0  0  0  0
   59.0920   28.0240   45.9260 C   0  0  0  0  0  0  0  0  0  0  0  0
   57.7540   27.3440   45.9390 C   0  0  0  0  0  0  0  0  0  0  0  0
   57.5760   26.1100   46.4450 N   0  0  0  0  0  0  0  0  0  0  0  0
   56.2440   25.9260   46.3720 C   0  0  0  0  0  0  0  0  0  0  0  0
   55.6840   24.8630   46.7480 O   0  0  0  0  0  0  0  0  0  0  0  0
   55.5590   26.9710   45.8680 N   0  0  0  0  0  0  0  0  0  0  0  0
   56.5170   27.8760   45.5920 C   0  0  0  0  0  0  0  0  0  0  0  0
   56.2130   29.2020   45.0240 C   0  0  0  0  0  0  0  0  0  0  0  0
   55.1490   29.3630   44.3700 O   0  0  0  0  0  0  0  0  0  0  0  0
   57.1290   30.2900   45.1750 N   0  0  0  0  0  0  0  0  0  0  0  0
   56.9930   31.5680   44.4790 C   0  0  2  0  0  0  0  0  0  0  0  0
   57.5070   31.4220   43.0460 C   0  0  0  0  0  0  0  0  0  0  0  0
   57.7600   32.6480   45.2070 C   0  0  0  0  0  0  0  0  0  0  0  0
   58.2320   33.7740   44.5140 C   0  0  0  0  0  0  0  0  0  0  0  0
   58.9700   34.7540   45.1830 C   0  0  0  0  0  0  0  0  0  0  0  0
   59.2560   34.6130   46.5430 C   0  0  0  0  0  0  0  0  0  0  0  0
   58.8130   33.4820   47.2500 C   0  0  0  0  0  0  0  0  0  0  0  0
   59.1310   33.3310   48.6920 C   0  0  0  0  0  0  0  0  0  0  0  0
   58.4000   32.6020   49.4130 O   0  0  0  0  0  0  0  0  0  0  0  0
   60.2830   33.9460   49.2880 N   0  0  0  0  0  0  0  0  0  0  0  0
   61.6530   33.6700   48.9620 C   0  0  0  0  0  0  0  0  0  0  0  0
   62.6190   33.7360   49.9750 C   0  0  0  0  0  0  0  0  0  0  0  0
   63.9580   33.4520   49.6920 C   0  0  0  0  0  0  0  0  0  0  0  0
   64.3440   33.1180   48.3900 C   0  0  0  0  0  0  0  0  0  0  0  0
   63.3910   33.0780   47.3680 C   0  0  0  0  0  0  0  0  0  0  0  0
   62.0520   33.3610   47.6480 C   0  0  0  0  0  0  0  0  0  0  0  0
   58.0480   32.5150   46.5750 C   0  0  0  0  0  0  0  0  0  0  0  0
   60.5149   28.8097   44.5083 H   0  0  0  0  0  0  0  0  0  0  0  0
   59.6707   27.3176   43.9721 H   0  0  0  0  0  0  0  0  0  0  0  0
   58.8024   28.8900   43.9721 H   0  0  0  0  0  0  0  0  0  0  0  0
   59.8279   27.3832   46.4337 H   0  0  0  0  0  0  0  0  0  0  0  0
   59.0039   28.9891   46.4463 H   0  0  0  0  0  0  0  0  0  0  0  0
   55.9320   31.8573   44.4554 H   0  0  0  0  0  0  0  0  0  0  0  0
   58.5650   31.1215   43.0648 H   0  0  0  0  0  0  0  0  0  0  0  0
   56.9174   30.6558   42.5213 H   0  0  0  0  0  0  0  0  0  0  0  0
   57.4083   32.3837   42.5213 H   0  0  0  0  0  0  0  0  0  0  0  0
   58.0201   33.8852   43.4404 H   0  0  0  0  0  0  0  0  0  0  0  0
   59.3270   35.6396   44.6368 H   0  0  0  0  0  0  0  0  0  0  0  0
   59.8317   35.3922   47.0640 H   0  0  0  0  0  0  0  0  0  0  0  0
   62.3222   34.0125   50.9975 H   0  0  0  0  0  0  0  0  0  0  0  0
   64.7092   33.4913   50.4946 H   0  0  0  0  0  0  0  0  0  0  0  0
   65.3968   32.8869   48.1702 H   0  0  0  0  0  0  0  0  0  0  0  0
   63.6958   32.8234   46.3422 H   0  0  0  0  0  0  0  0  0  0  0  0
   61.3070   33.3423   46.8389 H   0  0  0  0  0  0  0  0  0  0  0  0
   57.6695   31.6416   47.1263 H   0  0  0  0  0  0  0  0  0  0  0  0
  1  2  1  0
  2  3  1  0
  3  4  1  0
  4  5  1  0
  5  6  2  0
  5  7  1  0
  7  8  1  0
  8  9  1  0
  9 10  2  0
  9 11  1  0
 11 12  1  0
 12 13  1  0
 12 14  1  0
 14 15  2  0
 15 16  1  0
 16 17  2  0
 17 18  1  0
 18 19  1  0
 19 20  2  0
 19 21  1  0
 21 22  1  0
 22 23  2  0
 23 24  1  0
 24 25  2  0
 25 26  1  0
 26 27  2  0
 18 28  2  0
  8  3  2  0
 28 14  1  0
 27 22  1  0
  1 29  1  0
  1 30  1  0
  1 31  1  0
  2 32  1  0
  2 33  1  0
 12 34  1  6
 13 35  1  0
 13 36  1  0
 13 37  1  0
 15 38  1  0
 16 39  1  0
 17 40  1  0
 23 41  1  0
 24 42  1  0
 25 43  1  0
 26 44  1  0
 27 45  1  0
 28 46  1  0
M  CHG  4   4  -1   7  -1  11  -1  21  -1
M  END
>  <UniqueID>  (34) 
31

>  <SMILES>  (34) 
CCc1[n-]c(=O)[n-]c1C(=O)[N-][C@H](C)c1cccc(C(=O)[N-]c2ccccc2)c1

>  <Energy>  (34) 
73.63570434735357

>  <Genealogy>  (34) 
CCc1[n-]c(=O)[n-]c1C(=O)[N-]C(C)c1cccc(C(=O)[N-]c2ccccc2)c1 (protonated)
CCc1[n-]c(=O)[n-]c1C(=O)[N-][C@H](C)c1cccc(C(=O)[N-]c2ccccc2)c1 (chirality)
CCc1[n-]c(=O)[n-]c1C(=O)[N-][C@H](C)c1cccc(C(=O)[N-]c2ccccc2)c1 (3D coordinates assigned)
CCc1[n-]c(=O)[n-]c1C(=O)[N-][C@H](C)c1cccc(C(=O)[N-]c2ccccc2)c1 (optimized conformer: 73.63570434735357 kcal/mol)

>  <smiles>  (34) 
CCc1[nH]c(=O)[nH]c1C(=O)NC(C)c1cccc(C(=O)Nc2ccccc2)c1

>  <score_type>  (34) 
oracle

>  <origin>  (34) 
adg

>  <m_score__min__energy>  (34) 
-15.83

>  <m_primary>  (34) 
energy

$$$$
34:0
     RDKit          3D

 44 47  0  0  0  0  0  0  0  0999 V2000
   57.4590   31.2550   43.9680 C   0  0  0  0  0  0  0  0  0  0  0  0
   57.7440   32.1990   44.8580 C   0  0  0  0  0  0  0  0  0  0  0  0
   57.0770   33.4090   44.9720 O   0  0  0  0  0  0  0  0  0  0  0  0
   57.6690   34.1250   46.0150 C   0  0  0  0  0  0  0  0  0  0  0  0
   58.6660   33.4400   46.5820 C   0  0  0  0  0  0  0  0  0  0  0  0
   59.5190   33.9190   47.6870 C   0  0  0  0  0  0  0  0  0  0  0  0
   60.2210   34.9550   47.5240 O   0  0  0  0  0  0  0  0  0  0  0  0
   59.5770   33.2120   48.9350 N   0  0  0  0  0  0  0  0  0  0  0  0
   60.7890   33.2880   49.7570 C   0  0  0  0  0  0  0  0  0  0  0  0
   60.4460   33.1850   51.1360 O   0  0  0  0  0  0  0  0  0  0  0  0
   59.3780   32.3950   51.5720 C   0  0  0  0  0  0  0  0  0  0  0  0
   59.2030   32.1610   52.9380 C   0  0  0  0  0  0  0  0  0  0  0  0
   58.1390   31.3720   53.3850 C   0  0  0  0  0  0  0  0  0  0  0  0
   57.2320   30.8220   52.4730 C   0  0  0  0  0  0  0  0  0  0  0  0
   56.1890   30.0230   52.9620 O   0  0  0  0  0  0  0  0  0  0  0  0
   54.8240   30.3000   52.8130 C   0  0  0  0  0  0  0  0  0  0  0  0
   53.7800   29.8180   53.5940 C   0  0  0  0  0  0  0  0  0  0  0  0
   52.5240   30.2570   53.1570 C   0  0  0  0  0  0  0  0  0  0  0  0
   52.5720   31.0690   52.0220 C   0  0  0  0  0  0  0  0  0  0  0  0
   51.3840   31.6850   51.3840 C   0  0  0  0  0  0  0  0  0  0  0  0
   51.0430   31.2790   50.2410 O   0  0  0  0  0  0  0  0  0  0  0  0
   50.6000   32.7250   51.9860 N   0  0  0  0  0  0  0  0  0  0  0  0
   50.0400   32.7400   53.3300 C   0  0  0  0  0  0  0  0  0  0  0  0
   54.1920   31.2430   51.5800 S   0  0  0  0  0  0  0  0  0  0  0  0
   57.4160   31.0450   51.0960 C   0  0  0  0  0  0  0  0  0  0  0  0
   58.4730   31.8480   50.6430 C   0  0  0  0  0  0  0  0  0  0  0  0
   58.6640   32.0890   49.1690 C   0  0  0  0  0  0  0  0  0  0  0  0
   58.7830   32.1740   45.8670 C   0  0  0  0  0  0  0  0  0  0  0  0
   59.6400   31.2690   46.0510 O   0  0  0  0  0  0  0  0  0  0  0  0
   58.0424   30.3226   43.9492 H   0  0  0  0  0  0  0  0  0  0  0  0
   56.6396   31.4056   43.2497 H   0  0  0  0  0  0  0  0  0  0  0  0
   57.3529   35.1301   46.3309 H   0  0  0  0  0  0  0  0  0  0  0  0
   61.4655   32.4638   49.4867 H   0  0  0  0  0  0  0  0  0  0  0  0
   61.2881   34.2519   49.5786 H   0  0  0  0  0  0  0  0  0  0  0  0
   59.9042   32.5987   53.6638 H   0  0  0  0  0  0  0  0  0  0  0  0
   58.0142   31.1824   54.4613 H   0  0  0  0  0  0  0  0  0  0  0  0
   53.9252   29.1607   54.4640 H   0  0  0  0  0  0  0  0  0  0  0  0
   51.5849   29.9867   53.6620 H   0  0  0  0  0  0  0  0  0  0  0  0
   50.8559   32.7181   54.0674 H   0  0  0  0  0  0  0  0  0  0  0  0
   49.4446   33.6544   53.4689 H   0  0  0  0  0  0  0  0  0  0  0  0
   49.3965   31.8588   53.4689 H   0  0  0  0  0  0  0  0  0  0  0  0
   56.7272   30.5871   50.3708 H   0  0  0  0  0  0  0  0  0  0  0  0
   59.0828   31.1826   48.7074 H   0  0  0  0  0  0  0  0  0  0  0  0
   57.6879   32.3319   48.7239 H   0  0  0  0  0  0  0  0  0  0  0  0
  1  2  2  0
  2  3  1  0
  3  4  1  0
  4  5  2  0
  5  6  1  0
  6  7  2  0
  6  8  1  0
  8  9  1  0
  9 10  1  0
 10 11  1  0
 11 12  2  0
 12 13  1  0
 13 14  2  0
 14 15  1  0
 15 16  1  0
 16 17  2  0
 17 18  1  0
 18 19  2  0
 19 20  1  0
 20 21  2  0
 20 22  1  0
 22 23  1  0
 19 24  1  0
 14 25  1  0
 25 26  2  0
 26 27  1  0
  5 28  1  0
 28 29  2  0
 28  2  1  0
 27  8  1  0
 26 11  1  0
 24 16  1  0
  1 30  1  0
  1 31  1  0
  4 32  1  0
  9 33  1  0
  9 34  1  0
 12 35  1  0
 13 36  1  0
 17 37  1  0
 18 38  1  0
 23 39  1  0
 23 40  1  0
 23 41  1  0
 25 42  1  0
 27 43  1  0
 27 44  1  0
M  CHG  1  22  -1
M  END
>  <UniqueID>  (35) 
32

>  <SMILES>  (35) 
C=C1OC=C(C(=O)N2COc3ccc(Oc4ccc(C(=O)[N-]C)s4)cc3C2)C1=O

>  <Energy>  (35) 
112.2262881888422

>  <Genealogy>  (35) 
C=C1OC=C(C(=O)N2COc3ccc(Oc4ccc(C(=O)[N-]C)s4)cc3C2)C1=O (protonated)
C=C1OC=C(C(=O)N2COc3ccc(Oc4ccc(C(=O)[N-]C)s4)cc3C2)C1=O (3D coordinates assigned)
C=C1OC=C(C(=O)N2COc3ccc(Oc4ccc(C(=O)[N-]C)s4)cc3C2)C1=O (nonaromatic ring conformer: 112.2262881888422 kcal/mol)

>  <smiles>  (35) 
C=C1OC=C(C(=O)N2COc3ccc(Oc4ccc(C(=O)NC)s4)cc3C2)C1=O

>  <score_type>  (35) 
oracle

>  <origin>  (35) 
adg

>  <m_score__min__energy>  (35) 
-11.09

>  <m_primary>  (35) 
energy

$$$$
35:0
     RDKit          3D

 46 48  0  0  0  0  0  0  0  0999 V2000
   55.1490   22.3110   44.9450 C   0  0  0  0  0  0  0  0  0  0  0  0
   56.4710   23.0320   44.5990 C   0  0  0  0  0  0  0  0  0  0  0  0
   57.2370   22.1850   43.5550 C   0  0  0  0  0  0  0  0  0  0  0  0
   57.3090   23.1750   45.8920 C   0  0  0  0  0  0  0  0  0  0  0  0
   58.5440   24.0130   45.6750 C   0  0  0  0  0  0  0  0  0  0  0  0
   59.5890   23.6880   46.2230 O   0  0  0  0  0  0  0  0  0  0  0  0
   58.4950   25.2910   44.8690 C   0  0  0  0  0  0  0  0  0  0  0  0
   58.3610   26.5050   45.7590 C   0  0  0  0  0  0  0  0  0  0  0  0
   58.9540   26.5270   46.8700 O   0  0  0  0  0  0  0  0  0  0  0  0
   57.6170   27.6980   45.3220 C   0  0  0  0  0  0  0  0  0  0  0  0
   58.3030   28.7850   44.7700 C   0  0  0  0  0  0  0  0  0  0  0  0
   57.6200   29.9670   44.4520 C   0  0  0  0  0  0  0  0  0  0  0  0
   58.4020   31.1750   43.9980 C   0  0  0  0  0  0  0  0  0  0  0  0
   58.4220   32.2230   45.0820 C   0  0  0  0  0  0  0  0  0  0  0  0
   58.4560   33.5870   44.7450 C   0  0  0  0  0  0  0  0  0  0  0  0
   58.5090   34.5600   45.7510 C   0  0  0  0  0  0  0  0  0  0  0  0
   58.5120   34.1800   47.0970 C   0  0  0  0  0  0  0  0  0  0  0  0
   58.4810   32.8260   47.4400 C   0  0  0  0  0  0  0  0  0  0  0  0
   58.4470   31.8490   46.4370 C   0  0  0  0  0  0  0  0  0  0  0  0
   56.2270   30.0150   44.6590 C   0  0  0  0  0  0  0  0  0  0  0  0
   55.5710   31.0580   44.3940 O   0  0  0  0  0  0  0  0  0  0  0  0
   55.5730   28.9280   45.1510 N   0  0  0  0  0  0  0  0  0  0  0  0
   56.2260   27.7830   45.4850 C   0  0  0  0  0  0  0  0  0  0  0  0
   55.5040   26.7090   45.9960 O   0  0  0  0  0  0  0  0  0  0  0  0
   57.3830   25.2820   43.8440 C   0  0  0  0  0  0  0  0  0  0  0  0
   57.4370   26.0690   42.9080 O   0  0  0  0  0  0  0  0  0  0  0  0
   56.1470   24.4350   44.0260 C   0  0  0  0  0  0  0  0  0  0  0  0
   55.0392   22.2511   46.0379 H   0  0  0  0  0  0  0  0  0  0  0  0
   54.3033   22.8728   44.5217 H   0  0  0  0  0  0  0  0  0  0  0  0
   55.1634   21.2958   44.5217 H   0  0  0  0  0  0  0  0  0  0  0  0
   57.8879   21.4653   44.0730 H   0  0  0  0  0  0  0  0  0  0  0  0
   56.5177   21.6413   42.9249 H   0  0  0  0  0  0  0  0  0  0  0  0
   57.8500   22.8462   42.9249 H   0  0  0  0  0  0  0  0  0  0  0  0
   56.6889   23.6502   46.6664 H   0  0  0  0  0  0  0  0  0  0  0  0
   57.6306   22.1696   46.2014 H   0  0  0  0  0  0  0  0  0  0  0  0
   59.4529   25.3491   44.3313 H   0  0  0  0  0  0  0  0  0  0  0  0
   59.3848   28.7117   44.5844 H   0  0  0  0  0  0  0  0  0  0  0  0
   59.4340   30.8731   43.7661 H   0  0  0  0  0  0  0  0  0  0  0  0
   57.9222   31.5959   43.1021 H   0  0  0  0  0  0  0  0  0  0  0  0
   58.4409   33.8913   43.6880 H   0  0  0  0  0  0  0  0  0  0  0  0
   58.5484   35.6258   45.4818 H   0  0  0  0  0  0  0  0  0  0  0  0
   58.5388   34.9468   47.8852 H   0  0  0  0  0  0  0  0  0  0  0  0
   58.4833   32.5270   48.4986 H   0  0  0  0  0  0  0  0  0  0  0  0
   58.4398   30.7837   46.7108 H   0  0  0  0  0  0  0  0  0  0  0  0
   55.4645   24.9502   44.7180 H   0  0  0  0  0  0  0  0  0  0  0  0
   55.6877   24.2951   43.0363 H   0  0  0  0  0  0  0  0  0  0  0  0
  1  2  1  0
  2  3  1  0
  2  4  1  0
  4  5  1  0
  5  6  2  0
  5  7  1  0
  7  8  1  0
  8  9  2  0
  8 10  1  0
 10 11  1  0
 11 12  2  0
 12 13  1  0
 13 14  1  0
 14 15  2  0
 15 16  1  0
 16 17  2  0
 17 18  1  0
 18 19  2  0
 12 20  1  0
 20 21  2  0
 20 22  1  0
 22 23  1  0
 23 24  1  0
  7 25  1  0
 25 26  2  0
 25 27  1  0
 27  2  1  0
 23 10  2  0
 19 14  1  0
  1 28  1  0
  1 29  1  0
  1 30  1  0
  3 31  1  0
  3 32  1  0
  3 33  1  0
  4 34  1  0
  4 35  1  0
  7 36  1  0
 11 37  1  0
 13 38  1  0
 13 39  1  0
 15 40  1  0
 16 41  1  0
 17 42  1  0
 18 43  1  0
 19 44  1  0
 27 45  1  0
 27 46  1  0
M  CHG  2  22  -1  24  -1
M  END
>  <UniqueID>  (36) 
33

>  <SMILES>  (36) 
CC1(C)CC(=O)C(C(=O)c2cc(Cc3ccccc3)c(=O)[n-]c2[O-])C(=O)C1

>  <Energy>  (36) 
49.50023195187031

>  <Genealogy>  (36) 
CC1(C)CC(=O)C(C(=O)c2cc(Cc3ccccc3)c(=O)[n-]c2[O-])C(=O)C1 (protonated)
CC1(C)CC(=O)C(C(=O)c2cc(Cc3ccccc3)c(=O)[n-]c2[O-])C(=O)C1 (3D coordinates assigned)
CC1(C)CC(=O)C(C(=O)c2cc(Cc3ccccc3)c(=O)[n-]c2[O-])C(=O)C1 (nonaromatic ring conformer: 49.50023195187031 kcal/mol)

>  <smiles>  (36) 
CC1(C)CC(=O)C(C(=O)c2cc(Cc3ccccc3)c(=O)[nH]c2O)C(=O)C1

>  <score_type>  (36) 
oracle

>  <origin>  (36) 
adg

>  <m_score__min__energy>  (36) 
-14.58

>  <m_primary>  (36) 
energy

$$$$
36:0
     RDKit          3D

 51 54  0  0  0  0  0  0  0  0999 V2000
   57.3010   20.5540   46.5610 C   0  0  0  0  0  0  0  0  0  0  0  0
   57.1780   21.7620   47.3050 O   0  0  0  0  0  0  0  0  0  0  0  0
   57.3990   23.0420   46.7770 C   0  0  0  0  0  0  0  0  0  0  0  0
   57.8420   23.2500   45.4580 C   0  0  0  0  0  0  0  0  0  0  0  0
   58.0480   24.5470   44.9790 C   0  0  0  0  0  0  0  0  0  0  0  0
   57.8290   25.6590   45.8100 C   0  0  0  0  0  0  0  0  0  0  0  0
   58.0340   26.9930   45.3050 N   0  0  0  0  0  0  0  0  0  0  0  0
   59.2990   27.4960   44.7990 C   0  0  0  0  0  0  0  0  0  0  0  0
   58.9740   28.8400   44.1290 C   0  0  0  0  0  0  0  0  0  0  0  0
   57.6060   29.3080   44.6860 C   0  0  2  0  0  0  0  0  0  0  0  0
   57.7960   30.3690   45.7140 N   0  0  0  0  0  0  0  0  0  0  0  0
   58.3580   31.6250   45.1550 C   0  0  0  0  0  0  0  0  0  0  0  0
   58.8570   32.5710   46.2500 C   0  0  0  0  0  0  0  0  0  0  0  0
   59.8810   31.9130   47.0670 N   0  0  0  0  0  0  0  0  0  0  0  0
   60.8410   32.6970   47.8090 C   0  0  0  0  0  0  0  0  0  0  0  0
   60.4380   33.4470   48.9310 C   0  0  0  0  0  0  0  0  0  0  0  0
   61.3670   34.2060   49.6480 C   0  0  0  0  0  0  0  0  0  0  0  0
   62.7070   34.2290   49.2560 C   0  0  0  0  0  0  0  0  0  0  0  0
   63.1210   33.4910   48.1440 C   0  0  0  0  0  0  0  0  0  0  0  0
   64.4210   33.5180   47.7610 F   0  0  0  0  0  0  0  0  0  0  0  0
   62.1960   32.7290   47.4230 C   0  0  0  0  0  0  0  0  0  0  0  0
   59.9530   30.4470   47.0530 C   0  0  0  0  0  0  0  0  0  0  0  0
   58.5470   29.8520   46.8950 C   0  0  0  0  0  0  0  0  0  0  0  0
   57.0680   28.0300   45.2450 C   0  0  0  0  0  0  0  0  0  0  0  0
   55.8680   27.8730   45.5970 O   0  0  0  0  0  0  0  0  0  0  0  0
   57.3740   25.4470   47.1230 C   0  0  0  0  0  0  0  0  0  0  0  0
   57.1670   24.1500   47.5990 C   0  0  0  0  0  0  0  0  0  0  0  0
   57.3876   19.7039   47.2537 H   0  0  0  0  0  0  0  0  0  0  0  0
   56.4117   20.4215   45.9273 H   0  0  0  0  0  0  0  0  0  0  0  0
   58.1988   20.6035   45.9273 H   0  0  0  0  0  0  0  0  0  0  0  0
   58.0272   22.3878   44.8004 H   0  0  0  0  0  0  0  0  0  0  0  0
   58.3844   24.6985   43.9427 H   0  0  0  0  0  0  0  0  0  0  0  0
   60.0117   27.6413   45.6242 H   0  0  0  0  0  0  0  0  0  0  0  0
   59.7625   26.7917   44.0925 H   0  0  0  0  0  0  0  0  0  0  0  0
   59.7522   29.5794   44.3695 H   0  0  0  0  0  0  0  0  0  0  0  0
   58.9351   28.7327   43.0349 H   0  0  0  0  0  0  0  0  0  0  0  0
   56.9289   29.7706   43.9528 H   0  0  0  0  0  0  0  0  0  0  0  0
   59.1999   31.3731   44.4934 H   0  0  0  0  0  0  0  0  0  0  0  0
   57.5564   32.1384   44.6038 H   0  0  0  0  0  0  0  0  0  0  0  0
   59.2875   33.4696   45.7840 H   0  0  0  0  0  0  0  0  0  0  0  0
   58.0101   32.8481   46.8949 H   0  0  0  0  0  0  0  0  0  0  0  0
   59.3839   33.4353   49.2454 H   0  0  0  0  0  0  0  0  0  0  0  0
   61.0417   34.7869   50.5236 H   0  0  0  0  0  0  0  0  0  0  0  0
   63.4360   34.8275   49.8220 H   0  0  0  0  0  0  0  0  0  0  0  0
   62.5285   32.1506   46.5484 H   0  0  0  0  0  0  0  0  0  0  0  0
   60.5826   30.1216   46.2117 H   0  0  0  0  0  0  0  0  0  0  0  0
   60.3872   30.0985   48.0017 H   0  0  0  0  0  0  0  0  0  0  0  0
   58.6431   28.7610   46.7927 H   0  0  0  0  0  0  0  0  0  0  0  0
   57.9758   30.1463   47.7878 H   0  0  0  0  0  0  0  0  0  0  0  0
   57.1797   26.3077   47.7798 H   0  0  0  0  0  0  0  0  0  0  0  0
   56.8179   23.9983   48.6310 H   0  0  0  0  0  0  0  0  0  0  0  0
  1  2  1  0
  2  3  1  0
  3  4  2  0
  4  5  1  0
  5  6  2  0
  6  7  1  0
  7  8  1  0
  8  9  1  0
  9 10  1  0
 10 11  1  0
 11 12  1  0
 12 13  1  0
 13 14  1  0
 14 15  1  0
 15 16  2  0
 16 17  1  0
 17 18  2  0
 18 19  1  0
 19 20  1  0
 19 21  2  0
 14 22  1  0
 22 23  1  0
 10 24  1  0
 24 25  2  0
  6 26  1  0
 26 27  2  0
 27  3  1  0
 24  7  1  0
 23 11  1  0
 21 15  1  0
  1 28  1  0
  1 29  1  0
  1 30  1  0
  4 31  1  0
  5 32  1  0
  8 33  1  0
  8 34  1  0
  9 35  1  0
  9 36  1  0
 10 37  1  6
 12 38  1  0
 12 39  1  0
 13 40  1  0
 13 41  1  0
 16 42  1  0
 17 43  1  0
 18 44  1  0
 21 45  1  0
 22 46  1  0
 22 47  1  0
 23 48  1  0
 23 49  1  0
 26 50  1  0
 27 51  1  0
M  END
>  <UniqueID>  (37) 
34

>  <SMILES>  (37) 
COc1ccc(N2CC[C@H](N3CCN(c4cccc(F)c4)CC3)C2=O)cc1

>  <Energy>  (37) 
79.40035360294183

>  <Genealogy>  (37) 
COc1ccc(N2CC[C@H](N3CCN(c4cccc(F)c4)CC3)C2=O)cc1 (chirality)
COc1ccc(N2CC[C@H](N3CCN(c4cccc(F)c4)CC3)C2=O)cc1 (3D coordinates assigned)
COc1ccc(N2CC[C@H](N3CCN(c4cccc(F)c4)CC3)C2=O)cc1 (nonaromatic ring conformer: 79.40035360294183 kcal/mol)

>  <smiles>  (37) 
COc1ccc(N2CCC(N3CCN(c4cccc(F)c4)CC3)C2=O)cc1

>  <score_type>  (37) 
oracle

>  <origin>  (37) 
adg

>  <m_score__min__energy>  (37) 
-7.6399999999999997

>  <m_primary>  (37) 
energy

$$$$
37:0
     RDKit          3D

 48 51  0  0  0  0  0  0  0  0999 V2000
   60.2260   34.9530   48.6580 O   0  0  0  0  0  0  0  0  0  0  0  0
   60.7670   33.8930   48.2410 C   0  0  0  0  0  0  0  0  0  0  0  0
   61.3920   32.9440   49.2120 C   0  0  0  0  0  0  0  0  0  0  0  0
   60.3090   32.1320   49.8710 C   0  0  0  0  0  0  0  0  0  0  0  0
   60.1360   30.7780   49.5390 C   0  0  0  0  0  0  0  0  0  0  0  0
   59.0480   30.0610   50.0400 C   0  0  0  0  0  0  0  0  0  0  0  0
   58.1130   30.6910   50.8650 C   0  0  0  0  0  0  0  0  0  0  0  0
   57.0300   30.0060   51.3100 N   0  0  0  0  0  0  0  0  0  0  0  0
   56.0880   30.6060   52.0850 C   0  0  0  0  0  0  0  0  0  0  0  0
   54.9240   29.8160   52.5910 C   0  0  0  0  0  0  0  0  0  0  0  0
   53.6580   30.6090   52.4250 C   0  0  0  0  0  0  0  0  0  0  0  0
   53.3490   31.2080   51.1930 C   0  0  0  0  0  0  0  0  0  0  0  0
   52.1850   31.9700   51.0520 C   0  0  0  0  0  0  0  0  0  0  0  0
   51.3260   32.1470   52.1400 C   0  0  0  0  0  0  0  0  0  0  0  0
   50.1700   32.9040   51.9970 O   0  0  0  0  0  0  0  0  0  0  0  0
   51.6330   31.5640   53.3740 C   0  0  0  0  0  0  0  0  0  0  0  0
   52.7950   30.8000   53.5180 C   0  0  0  0  0  0  0  0  0  0  0  0
   56.2330   31.9110   52.4410 N   0  0  0  0  0  0  0  0  0  0  0  0
   57.2970   32.6430   52.0250 C   0  0  0  0  0  0  0  0  0  0  0  0
   57.3860   33.8520   52.3670 O   0  0  0  0  0  0  0  0  0  0  0  0
   58.2770   32.0470   51.2140 C   0  0  0  0  0  0  0  0  0  0  0  0
   59.3810   32.7610   50.7180 C   0  0  0  0  0  0  0  0  0  0  0  0
   60.7310   33.5630   46.8470 N   0  0  0  0  0  0  0  0  0  0  0  0
   59.6070   33.9470   45.9980 C   0  0  0  0  0  0  0  0  0  0  0  0
   58.7770   32.7330   45.6780 C   0  0  0  0  0  0  0  0  0  0  0  0
   57.7980   32.7810   44.6770 C   0  0  0  0  0  0  0  0  0  0  0  0
   57.0110   31.6550   44.4320 C   0  0  0  0  0  0  0  0  0  0  0  0
   57.1890   30.5230   45.1640 N   0  0  0  0  0  0  0  0  0  0  0  0
   58.1210   30.4550   46.1490 C   0  0  0  0  0  0  0  0  0  0  0  0
   58.9280   31.5600   46.4290 C   0  0  0  0  0  0  0  0  0  0  0  0
   62.0831   32.2739   48.6797 H   0  0  0  0  0  0  0  0  0  0  0  0
   61.9501   33.5070   49.9746 H   0  0  0  0  0  0  0  0  0  0  0  0
   60.8624   30.2796   48.8802 H   0  0  0  0  0  0  0  0  0  0  0  0
   58.9267   28.9979   49.7847 H   0  0  0  0  0  0  0  0  0  0  0  0
   54.8444   28.8781   52.0218 H   0  0  0  0  0  0  0  0  0  0  0  0
   55.0741   29.5916   53.6573 H   0  0  0  0  0  0  0  0  0  0  0  0
   54.0253   31.0773   50.3354 H   0  0  0  0  0  0  0  0  0  0  0  0
   51.9450   32.4311   50.0826 H   0  0  0  0  0  0  0  0  0  0  0  0
   50.9595   31.7068   54.2319 H   0  0  0  0  0  0  0  0  0  0  0  0
   53.0350   30.3463   54.4909 H   0  0  0  0  0  0  0  0  0  0  0  0
   59.5193   33.8168   50.9940 H   0  0  0  0  0  0  0  0  0  0  0  0
   61.4210   32.8760   46.4720 H   0  0  0  0  0  0  0  0  0  0  0  0
   58.9860   34.6862   46.5252 H   0  0  0  0  0  0  0  0  0  0  0  0
   59.9883   34.3850   45.0638 H   0  0  0  0  0  0  0  0  0  0  0  0
   57.6509   33.6989   44.0889 H   0  0  0  0  0  0  0  0  0  0  0  0
   56.2440   31.6832   43.6440 H   0  0  0  0  0  0  0  0  0  0  0  0
   58.2408   29.5274   46.7279 H   0  0  0  0  0  0  0  0  0  0  0  0
   59.6767   31.5097   47.2333 H   0  0  0  0  0  0  0  0  0  0  0  0
  1  2  2  0
  2  3  1  0
  3  4  1  0
  4  5  2  0
  5  6  1  0
  6  7  2  0
  7  8  1  0
  8  9  1  0
  9 10  1  0
 10 11  1  0
 11 12  2  0
 12 13  1  0
 13 14  2  0
 14 15  1  0
 14 16  1  0
 16 17  2  0
  9 18  2  0
 18 19  1  0
 19 20  2  0
 19 21  1  0
 21 22  2  0
  2 23  1  0
 23 24  1  0
 24 25  1  0
 25 26  2  0
 26 27  1  0
 27 28  2  0
 28 29  1  0
 29 30  2  0
 22  4  1  0
 30 25  1  0
 21  7  1  0
 17 11  1  0
  3 31  1  0
  3 32  1  0
  5 33  1  0
  6 34  1  0
 10 35  1  0
 10 36  1  0
 12 37  1  0
 13 38  1  0
 16 39  1  0
 17 40  1  0
 22 41  1  0
 23 42  1  0
 24 43  1  0
 24 44  1  0
 26 45  1  0
 27 46  1  0
 29 47  1  0
 30 48  1  0
M  CHG  2   8  -1  15  -1
M  END
>  <UniqueID>  (38) 
35

>  <SMILES>  (38) 
O=C(Cc1ccc2[n-]c(Cc3ccc([O-])cc3)nc(=O)c2c1)NCc1ccncc1

>  <Energy>  (38) 
48.60168770521264

>  <Genealogy>  (38) 
O=C(Cc1ccc2[n-]c(Cc3ccc([O-])cc3)nc(=O)c2c1)NCc1ccncc1 (protonated)
O=C(Cc1ccc2[n-]c(Cc3ccc([O-])cc3)nc(=O)c2c1)NCc1ccncc1 (3D coordinates assigned)
O=C(Cc1ccc2[n-]c(Cc3ccc([O-])cc3)nc(=O)c2c1)NCc1ccncc1 (optimized conformer: 48.60168770521264 kcal/mol)

>  <smiles>  (38) 
O=C(Cc1ccc2[nH]c(Cc3ccc(O)cc3)nc(=O)c2c1)NCc1ccncc1

>  <score_type>  (38) 
oracle

>  <origin>  (38) 
adg

>  <m_score__min__energy>  (38) 
-14.390000000000001

>  <m_primary>  (38) 
energy

$$$$
38:0
     RDKit          3D

 34 36  0  0  0  0  0  0  0  0999 V2000
   57.7900   32.8990   46.3480 O   0  0  0  0  0  0  0  0  0  0  0  0
   57.7670   31.7410   45.8520 C   0  0  0  0  0  0  0  0  0  0  0  0
   56.6500   31.3180   45.2050 N   0  0  0  0  0  0  0  0  0  0  0  0
   56.5470   30.0730   44.6740 C   0  0  0  0  0  0  0  0  0  0  0  0
   55.3730   29.7090   44.0240 O   0  0  0  0  0  0  0  0  0  0  0  0
   57.6180   29.1690   44.7840 C   0  0  0  0  0  0  0  0  0  0  0  0
   57.5180   27.7620   44.2480 C   0  0  0  0  0  0  0  0  0  0  0  0
   57.5590   26.7600   45.3750 C   0  0  0  0  0  0  0  0  0  0  0  0
   58.7880   26.2010   45.7680 C   0  0  0  0  0  0  0  0  0  0  0  0
   58.8390   25.2460   46.7860 C   0  0  0  0  0  0  0  0  0  0  0  0
   57.6650   24.8340   47.4210 C   0  0  0  0  0  0  0  0  0  0  0  0
   57.7180   23.8840   48.4320 O   0  0  0  0  0  0  0  0  0  0  0  0
   56.4360   25.3800   47.0360 C   0  0  0  0  0  0  0  0  0  0  0  0
   56.3780   26.3370   46.0180 C   0  0  0  0  0  0  0  0  0  0  0  0
   55.1430   26.8640   45.6560 O   0  0  0  0  0  0  0  0  0  0  0  0
   58.7790   29.5860   45.4490 C   0  0  0  0  0  0  0  0  0  0  0  0
   58.8720   30.8800   45.9820 C   0  0  0  0  0  0  0  0  0  0  0  0
   60.1100   31.2990   46.6840 C   0  0  0  0  0  0  0  0  0  0  0  0
   60.6400   32.5810   46.4580 C   0  0  0  0  0  0  0  0  0  0  0  0
   61.8050   32.9890   47.1150 C   0  0  0  0  0  0  0  0  0  0  0  0
   62.4460   32.1250   48.0070 C   0  0  0  0  0  0  0  0  0  0  0  0
   61.9210   30.8530   48.2470 C   0  0  0  0  0  0  0  0  0  0  0  0
   60.7560   30.4370   47.5930 C   0  0  0  0  0  0  0  0  0  0  0  0
   60.2430   29.2120   47.8720 F   0  0  0  0  0  0  0  0  0  0  0  0
   56.5710   27.6506   43.6996 H   0  0  0  0  0  0  0  0  0  0  0  0
   58.3702   27.5766   43.5776 H   0  0  0  0  0  0  0  0  0  0  0  0
   59.7161   26.5182   45.2700 H   0  0  0  0  0  0  0  0  0  0  0  0
   59.8059   24.8174   47.0884 H   0  0  0  0  0  0  0  0  0  0  0  0
   55.5116   25.0553   47.5360 H   0  0  0  0  0  0  0  0  0  0  0  0
   59.6257   28.8916   45.5540 H   0  0  0  0  0  0  0  0  0  0  0  0
   60.1359   33.2666   45.7610 H   0  0  0  0  0  0  0  0  0  0  0  0
   62.2176   33.9917   46.9294 H   0  0  0  0  0  0  0  0  0  0  0  0
   63.3642   32.4467   48.5202 H   0  0  0  0  0  0  0  0  0  0  0  0
   62.4251   30.1761   48.9525 H   0  0  0  0  0  0  0  0  0  0  0  0
  1  2  2  0
  2  3  1  0
  3  4  1  0
  4  5  1  0
  4  6  2  0
  6  7  1  0
  7  8  1  0
  8  9  2  0
  9 10  1  0
 10 11  2  0
 11 12  1  0
 11 13  1  0
 13 14  2  0
 14 15  1  0
  6 16  1  0
 16 17  2  0
 17 18  1  0
 18 19  2  0
 19 20  1  0
 20 21  2  0
 21 22  1  0
 22 23  2  0
 23 24  1  0
 17  2  1  0
 23 18  1  0
 14  8  1  0
  7 25  1  0
  7 26  1  0
  9 27  1  0
 10 28  1  0
 13 29  1  0
 16 30  1  0
 19 31  1  0
 20 32  1  0
 21 33  1  0
 22 34  1  0
M  CHG  4   3  -1   5  -1  12  -1  15  -1
M  END
>  <UniqueID>  (39) 
36

>  <SMILES>  (39) 
O=c1[n-]c([O-])c(Cc2ccc([O-])cc2[O-])cc1-c1ccccc1F

>  <Energy>  (39) 
45.85060887852298

>  <Genealogy>  (39) 
O=c1[n-]c([O-])c(Cc2ccc([O-])cc2[O-])cc1-c1ccccc1F (protonated)
O=c1[n-]c([O-])c(Cc2ccc([O-])cc2[O-])cc1-c1ccccc1F (3D coordinates assigned)
O=c1[n-]c([O-])c(Cc2ccc([O-])cc2[O-])cc1-c1ccccc1F (optimized conformer: 45.85060887852298 kcal/mol)

>  <smiles>  (39) 
O=c1[nH]c(O)c(Cc2ccc(O)cc2O)cc1-c1ccccc1F

>  <score_type>  (39) 
oracle

>  <origin>  (39) 
adg

>  <m_score__min__energy>  (39) 
-15.81

>  <m_primary>  (39) 
energy

$$$$
39:0
     RDKit          3D

 51 53  0  0  0  0  0  0  0  0999 V2000
   63.4380   34.0670   47.9890 C   0  0  0  0  0  0  0  0  0  0  0  0
   62.6280   32.9770   47.4370 N   0  0  0  0  0  0  0  0  0  0  0  0
   63.1260   31.5980   47.4890 C   0  0  0  0  0  0  0  0  0  0  0  0
   61.3680   33.2940   46.8060 C   0  0  0  0  0  0  0  0  0  0  0  0
   61.1210   34.4910   46.4920 O   0  0  0  0  0  0  0  0  0  0  0  0
   60.3540   32.2270   46.4550 C   0  0  0  0  0  0  0  0  0  0  0  0
   58.9890   32.4080   47.1630 C   0  0  1  0  0  0  0  0  0  0  0  0
   57.9580   33.1720   46.3070 C   0  0  0  0  0  0  0  0  0  0  0  0
   57.7340   32.5250   44.9620 C   0  0  0  0  0  0  0  0  0  0  0  0
   56.9910   31.3360   44.8600 C   0  0  0  0  0  0  0  0  0  0  0  0
   56.8070   30.7260   43.6150 C   0  0  0  0  0  0  0  0  0  0  0  0
   57.3640   31.2940   42.4670 C   0  0  0  0  0  0  0  0  0  0  0  0
   58.1040   32.4770   42.5600 C   0  0  0  0  0  0  0  0  0  0  0  0
   58.2910   33.0910   43.8020 C   0  0  0  0  0  0  0  0  0  0  0  0
   58.4260   31.1120   47.5370 N   0  0  0  0  0  0  0  0  0  0  0  0
   59.1620   29.8850   47.5240 C   0  0  0  0  0  0  0  0  0  0  0  0
   60.1460   29.7240   48.2950 O   0  0  0  0  0  0  0  0  0  0  0  0
   58.7640   28.8080   46.6100 C   0  0  0  0  0  0  0  0  0  0  0  0
   58.0430   27.6690   46.9520 C   0  0  0  0  0  0  0  0  0  0  0  0
   57.8110   26.8130   45.8620 C   0  0  0  0  0  0  0  0  0  0  0  0
   57.0700   25.5340   45.9740 C   0  0  0  0  0  0  0  0  0  0  0  0
   55.6600   25.5250   46.0220 C   0  0  0  0  0  0  0  0  0  0  0  0
   54.9370   26.7140   45.9890 O   0  0  0  0  0  0  0  0  0  0  0  0
   54.9670   24.3140   46.1230 C   0  0  0  0  0  0  0  0  0  0  0  0
   55.6650   23.1070   46.1880 C   0  0  0  0  0  0  0  0  0  0  0  0
   57.0600   23.1040   46.1490 C   0  0  0  0  0  0  0  0  0  0  0  0
   57.7640   24.3070   46.0380 C   0  0  0  0  0  0  0  0  0  0  0  0
   59.1540   24.2700   45.9730 O   0  0  0  0  0  0  0  0  0  0  0  0
   58.3500   27.2820   44.6640 C   0  0  0  0  0  0  0  0  0  0  0  0
   59.1120   28.7500   44.9660 S   0  0  0  0  0  0  0  0  0  0  0  0
   63.4077   34.0262   49.0878 H   0  0  0  0  0  0  0  0  0  0  0  0
   64.4780   33.9607   47.6467 H   0  0  0  0  0  0  0  0  0  0  0  0
   63.0362   35.0321   47.6467 H   0  0  0  0  0  0  0  0  0  0  0  0
   63.2380   31.2879   48.5384 H   0  0  0  0  0  0  0  0  0  0  0  0
   62.4120   30.9310   46.9838 H   0  0  0  0  0  0  0  0  0  0  0  0
   64.1015   31.5411   46.9838 H   0  0  0  0  0  0  0  0  0  0  0  0
   60.1872   32.2507   45.3680 H   0  0  0  0  0  0  0  0  0  0  0  0
   60.7676   31.2663   46.7955 H   0  0  0  0  0  0  0  0  0  0  0  0
   59.1930   33.0109   48.0602 H   0  0  0  0  0  0  0  0  0  0  0  0
   57.0011   33.2009   46.8488 H   0  0  0  0  0  0  0  0  0  0  0  0
   58.3523   34.1837   46.1309 H   0  0  0  0  0  0  0  0  0  0  0  0
   56.5530   30.8840   45.7621 H   0  0  0  0  0  0  0  0  0  0  0  0
   56.2225   29.7972   43.5398 H   0  0  0  0  0  0  0  0  0  0  0  0
   57.2206   30.8106   41.4894 H   0  0  0  0  0  0  0  0  0  0  0  0
   58.5395   32.9250   41.6547 H   0  0  0  0  0  0  0  0  0  0  0  0
   58.8759   34.0200   43.8718 H   0  0  0  0  0  0  0  0  0  0  0  0
   57.6900   27.4594   47.9725 H   0  0  0  0  0  0  0  0  0  0  0  0
   53.8674   24.3130   46.1513 H   0  0  0  0  0  0  0  0  0  0  0  0
   55.1153   22.1578   46.2700 H   0  0  0  0  0  0  0  0  0  0  0  0
   57.6077   22.1518   46.2058 H   0  0  0  0  0  0  0  0  0  0  0  0
   58.2872   26.7776   43.6885 H   0  0  0  0  0  0  0  0  0  0  0  0
  1  2  1  0
  2  3  1  0
  2  4  1  0
  4  5  2  0
  4  6  1  0
  6  7  1  0
  7  8  1  0
  8  9  1  0
  9 10  2  0
 10 11  1  0
 11 12  2  0
 12 13  1  0
 13 14  2  0
  7 15  1  0
 15 16  1  0
 16 17  2  0
 16 18  1  0
 18 19  2  0
 19 20  1  0
 20 21  1  0
 21 22  2  0
 22 23  1  0
 22 24  1  0
 24 25  2  0
 25 26  1  0
 26 27  2  0
 27 28  1  0
 20 29  2  0
 29 30  1  0
 14  9  1  0
 30 18  1  0
 27 21  1  0
  1 31  1  0
  1 32  1  0
  1 33  1  0
  3 34  1  0
  3 35  1  0
  3 36  1  0
  6 37  1  0
  6 38  1  0
  7 39  1  1
  8 40  1  0
  8 41  1  0
 10 42  1  0
 11 43  1  0
 12 44  1  0
 13 45  1  0
 14 46  1  0
 19 47  1  0
 24 48  1  0
 25 49  1  0
 26 50  1  0
 29 51  1  0
M  CHG  3  15  -1  23  -1  28  -1
M  END
>  <UniqueID>  (40) 
37

>  <SMILES>  (40) 
CN(C)C(=O)C[C@@H](Cc1ccccc1)[N-]C(=O)c1cc(-c2c([O-])cccc2[O-])cs1

>  <Energy>  (40) 
78.14518446472961

>  <Genealogy>  (40) 
CN(C)C(=O)CC(Cc1ccccc1)[N-]C(=O)c1cc(-c2c([O-])cccc2[O-])cs1 (protonated)
CN(C)C(=O)C[C@@H](Cc1ccccc1)[N-]C(=O)c1cc(-c2c([O-])cccc2[O-])cs1 (chirality)
CN(C)C(=O)C[C@@H](Cc1ccccc1)[N-]C(=O)c1cc(-c2c([O-])cccc2[O-])cs1 (3D coordinates assigned)
CN(C)C(=O)C[C@@H](Cc1ccccc1)[N-]C(=O)c1cc(-c2c([O-])cccc2[O-])cs1 (optimized conformer: 78.14518446472961 kcal/mol)

>  <smiles>  (40) 
CN(C)C(=O)CC(Cc1ccccc1)NC(=O)c1cc(-c2c(O)cccc2O)cs1

>  <score_type>  (40) 
oracle

>  <origin>  (40) 
adg

>  <m_score__min__energy>  (40) 
-14.77

>  <m_primary>  (40) 
energy

$$$$
40:0
     RDKit          3D

 54 57  0  0  0  0  0  0  0  0999 V2000
   59.5330   32.5630   50.9760 C   0  0  0  0  0  0  0  0  0  0  0  0
   60.6790   31.9790   50.2850 N   0  0  0  0  0  0  0  0  0  0  0  0
   61.6390   32.6120   49.5830 C   0  0  0  0  0  0  0  0  0  0  0  0
   61.7880   34.1000   49.4730 C   0  0  0  0  0  0  0  0  0  0  0  0
   60.9610   34.6120   48.3860 N   0  0  0  0  0  0  0  0  0  0  0  0
   61.0000   34.0990   47.0500 C   0  0  0  0  0  0  0  0  0  0  0  0
   62.0590   34.2000   46.3710 O   0  0  0  0  0  0  0  0  0  0  0  0
   59.8020   33.4560   46.4640 C   0  0  0  0  0  0  0  0  0  0  0  0
   59.1120   34.0690   45.4030 C   0  0  0  0  0  0  0  0  0  0  0  0
   57.9880   33.4590   44.8370 C   0  0  0  0  0  0  0  0  0  0  0  0
   57.5300   32.2240   45.3270 C   0  0  0  0  0  0  0  0  0  0  0  0
   56.3800   31.5650   44.7750 N   0  0  0  0  0  0  0  0  0  0  0  0
   56.3760   29.9680   44.0920 S   0  0  0  0  0  0  0  0  0  0  0  0
   58.0230   29.3050   44.1680 C   0  0  0  0  0  0  0  0  0  0  0  0
   55.9360   30.0270   42.6520 O   0  0  0  0  0  0  0  0  0  0  0  0
   55.4510   29.0780   44.8780 O   0  0  0  0  0  0  0  0  0  0  0  0
   58.2040   31.6210   46.3950 C   0  0  0  0  0  0  0  0  0  0  0  0
   59.3310   32.2260   46.9560 C   0  0  0  0  0  0  0  0  0  0  0  0
   62.4870   31.7350   49.0100 N   0  0  0  0  0  0  0  0  0  0  0  0
   62.0600   30.5210   49.3230 N   0  0  0  0  0  0  0  0  0  0  0  0
   60.9630   30.6770   50.0860 C   0  0  0  0  0  0  0  0  0  0  0  0
   60.0260   29.3010   50.7570 S   0  0  0  0  0  0  0  0  0  0  0  0
   60.2650   28.2250   49.3010 C   0  0  0  0  0  0  0  0  0  0  0  0
   59.3310   28.5660   48.1780 C   0  0  0  0  0  0  0  0  0  0  0  0
   58.5190   29.5180   48.3230 O   0  0  0  0  0  0  0  0  0  0  0  0
   59.3590   27.8120   46.9580 N   0  0  0  0  0  0  0  0  0  0  0  0
   58.3970   26.8280   46.5620 C   0  0  0  0  0  0  0  0  0  0  0  0
   58.8390   25.5060   46.3110 C   0  0  0  0  0  0  0  0  0  0  0  0
   57.9220   24.5020   45.9480 C   0  0  0  0  0  0  0  0  0  0  0  0
   56.5760   24.8510   45.8660 C   0  0  0  0  0  0  0  0  0  0  0  0
   56.1430   26.1100   46.1260 C   0  0  0  0  0  0  0  0  0  0  0  0
   57.0170   27.1320   46.4810 C   0  0  0  0  0  0  0  0  0  0  0  0
   54.7690   26.1620   45.9870 O   0  0  0  0  0  0  0  0  0  0  0  0
   54.3110   24.8560   45.6180 C   0  0  0  0  0  0  0  0  0  0  0  0
   55.4970   24.0510   45.5470 O   0  0  0  0  0  0  0  0  0  0  0  0
   59.6825   32.4868   52.0631 H   0  0  0  0  0  0  0  0  0  0  0  0
   59.4344   33.6213   50.6927 H   0  0  0  0  0  0  0  0  0  0  0  0
   58.6188   32.0209   50.6927 H   0  0  0  0  0  0  0  0  0  0  0  0
   61.4748   34.5670   50.4184 H   0  0  0  0  0  0  0  0  0  0  0  0
   62.8412   34.3400   49.2653 H   0  0  0  0  0  0  0  0  0  0  0  0
   59.4597   35.0376   45.0145 H   0  0  0  0  0  0  0  0  0  0  0  0
   57.4602   33.9479   44.0049 H   0  0  0  0  0  0  0  0  0  0  0  0
   58.3217   29.1848   45.2198 H   0  0  0  0  0  0  0  0  0  0  0  0
   58.0480   28.3267   43.6656 H   0  0  0  0  0  0  0  0  0  0  0  0
   58.7188   29.9931   43.6656 H   0  0  0  0  0  0  0  0  0  0  0  0
   57.8431   30.6624   46.7961 H   0  0  0  0  0  0  0  0  0  0  0  0
   59.8546   31.7359   47.7900 H   0  0  0  0  0  0  0  0  0  0  0  0
   61.3001   28.3363   48.9457 H   0  0  0  0  0  0  0  0  0  0  0  0
   60.0538   27.1907   49.6103 H   0  0  0  0  0  0  0  0  0  0  0  0
   59.9079   25.2620   46.4005 H   0  0  0  0  0  0  0  0  0  0  0  0
   58.2570   23.4759   45.7361 H   0  0  0  0  0  0  0  0  0  0  0  0
   56.6469   28.1461   46.6925 H   0  0  0  0  0  0  0  0  0  0  0  0
   53.6202   24.4601   46.3770 H   0  0  0  0  0  0  0  0  0  0  0  0
   53.7613   24.8656   44.6652 H   0  0  0  0  0  0  0  0  0  0  0  0
  1  2  1  0
  2  3  1  0
  3  4  1  0
  4  5  1  0
  5  6  1  0
  6  7  2  0
  6  8  1  0
  8  9  2  0
  9 10  1  0
 10 11  2  0
 11 12  1  0
 12 13  1  0
 13 14  1  0
 13 15  2  0
 13 16  2  0
 11 17  1  0
 17 18  2  0
  3 19  2  0
 19 20  1  0
 20 21  2  0
 21 22  1  0
 22 23  1  0
 23 24  1  0
 24 25  2  0
 24 26  1  0
 26 27  1  0
 27 28  2  0
 28 29  1  0
 29 30  2  0
 30 31  1  0
 31 32  2  0
 31 33  1  0
 33 34  1  0
 34 35  1  0
 21  2  1  0
 32 27  1  0
 18  8  1  0
 35 30  1  0
  1 36  1  0
  1 37  1  0
  1 38  1  0
  4 39  1  0
  4 40  1  0
  9 41  1  0
 10 42  1  0
 14 43  1  0
 14 44  1  0
 14 45  1  0
 17 46  1  0
 18 47  1  0
 23 48  1  0
 23 49  1  0
 28 50  1  0
 29 51  1  0
 32 52  1  0
 34 53  1  0
 34 54  1  0
M  CHG  3   5  -1  12  -1  26  -1
M  END
>  <UniqueID>  (41) 
38

>  <SMILES>  (41) 
Cn1c(C[N-]C(=O)c2ccc([N-]S(C)(=O)=O)cc2)nnc1SCC(=O)[N-]c1ccc2c(c1)OCO2

>  <Energy>  (41) 
116.06435454951237

>  <Genealogy>  (41) 
Cn1c(C[N-]C(=O)c2ccc([N-]S(C)(=O)=O)cc2)nnc1SCC(=O)[N-]c1ccc2c(c1)OCO2 (protonated)
Cn1c(C[N-]C(=O)c2ccc([N-]S(C)(=O)=O)cc2)nnc1SCC(=O)[N-]c1ccc2c(c1)OCO2 (3D coordinates assigned)
Cn1c(C[N-]C(=O)c2ccc([N-]S(C)(=O)=O)cc2)nnc1SCC(=O)[N-]c1ccc2c(c1)OCO2 (nonaromatic ring conformer: 116.06435454951237 kcal/mol)

>  <smiles>  (41) 
Cn1c(CNC(=O)c2ccc(NS(C)(=O)=O)cc2)nnc1SCC(=O)Nc1ccc2c(c1)OCO2

>  <score_type>  (41) 
oracle

>  <origin>  (41) 
adg

>  <m_score__min__energy>  (41) 
-13.199999999999999

>  <m_primary>  (41) 
energy

$$$$
41:0
     RDKit          3D

 48 50  0  0  0  0  0  0  0  0999 V2000
   60.4520   26.7830   48.3190 C   0  0  0  0  0  0  0  0  0  0  0  0
   59.6470   26.6350   47.1550 O   0  0  0  0  0  0  0  0  0  0  0  0
   59.0010   27.6890   46.4910 C   0  0  0  0  0  0  0  0  0  0  0  0
   59.6180   28.9440   46.3260 C   0  0  0  0  0  0  0  0  0  0  0  0
   58.9520   29.9800   45.6700 C   0  0  0  0  0  0  0  0  0  0  0  0
   57.6390   29.8070   45.2140 C   0  0  0  0  0  0  0  0  0  0  0  0
   56.9130   30.8890   44.5100 C   0  0  0  0  0  0  0  0  0  0  0  0
   55.6560   30.8350   44.4570 O   0  0  0  0  0  0  0  0  0  0  0  0
   57.5660   32.0230   43.9160 N   0  0  0  0  0  0  0  0  0  0  0  0
   57.7930   33.3440   44.5000 C   0  0  0  0  0  0  0  0  0  0  0  0
   58.5230   33.2570   45.8150 C   0  0  0  0  0  0  0  0  0  0  0  0
   57.8090   33.0850   47.0120 C   0  0  0  0  0  0  0  0  0  0  0  0
   58.4800   33.0790   48.2370 C   0  0  0  0  0  0  0  0  0  0  0  0
   59.8670   33.2500   48.2790 C   0  0  0  0  0  0  0  0  0  0  0  0
   60.5860   33.4190   47.0930 C   0  0  0  0  0  0  0  0  0  0  0  0
   62.4820   33.6430   47.1470 Br  0  0  0  0  0  0  0  0  0  0  0  0
   59.9180   33.4250   45.8640 C   0  0  0  0  0  0  0  0  0  0  0  0
   57.0360   28.5470   45.3470 C   0  0  0  0  0  0  0  0  0  0  0  0
   57.7070   27.4860   45.9730 C   0  0  0  0  0  0  0  0  0  0  0  0
   56.9160   25.9020   46.0670 S   0  0  0  0  0  0  0  0  0  0  0  0
   55.4250   26.0880   46.0250 O   0  0  0  0  0  0  0  0  0  0  0  0
   57.2530   25.2750   47.3920 O   0  0  0  0  0  0  0  0  0  0  0  0
   57.3980   24.8090   44.7850 N   0  0  0  0  0  0  0  0  0  0  0  0
   56.2560   24.0820   44.2010 C   0  0  0  0  0  0  0  0  0  0  0  0
   55.8650   22.8250   45.0090 C   0  0  0  0  0  0  0  0  0  0  0  0
   56.7310   22.5820   46.0980 O   0  0  0  0  0  0  0  0  0  0  0  0
   58.0630   22.5420   45.6440 C   0  0  0  0  0  0  0  0  0  0  0  0
   58.5220   23.9300   45.1640 C   0  0  0  0  0  0  0  0  0  0  0  0
   59.8251   26.6677   49.2155 H   0  0  0  0  0  0  0  0  0  0  0  0
   61.2390   26.0145   48.3207 H   0  0  0  0  0  0  0  0  0  0  0  0
   60.9142   27.7812   48.3207 H   0  0  0  0  0  0  0  0  0  0  0  0
   60.6328   29.1089   46.7172 H   0  0  0  0  0  0  0  0  0  0  0  0
   59.4626   30.9410   45.5096 H   0  0  0  0  0  0  0  0  0  0  0  0
   58.3917   33.9447   43.7996 H   0  0  0  0  0  0  0  0  0  0  0  0
   56.8133   33.8095   44.6832 H   0  0  0  0  0  0  0  0  0  0  0  0
   56.7171   32.9545   46.9847 H   0  0  0  0  0  0  0  0  0  0  0  0
   57.9158   32.9394   49.1709 H   0  0  0  0  0  0  0  0  0  0  0  0
   60.3921   33.2515   49.2456 H   0  0  0  0  0  0  0  0  0  0  0  0
   60.4864   33.5617   44.9322 H   0  0  0  0  0  0  0  0  0  0  0  0
   56.0208   28.3887   44.9541 H   0  0  0  0  0  0  0  0  0  0  0  0
   55.3901   24.7595   44.1655 H   0  0  0  0  0  0  0  0  0  0  0  0
   56.5568   23.7479   43.1971 H   0  0  0  0  0  0  0  0  0  0  0  0
   54.8439   22.9593   45.3954 H   0  0  0  0  0  0  0  0  0  0  0  0
   55.9351   21.9612   44.3315 H   0  0  0  0  0  0  0  0  0  0  0  0
   58.7141   22.2121   46.4669 H   0  0  0  0  0  0  0  0  0  0  0  0
   58.1253   21.8400   44.7994 H   0  0  0  0  0  0  0  0  0  0  0  0
   59.0866   24.4127   45.9753 H   0  0  0  0  0  0  0  0  0  0  0  0
   59.1404   23.7805   44.2667 H   0  0  0  0  0  0  0  0  0  0  0  0
  1  2  1  0
  2  3  1  0
  3  4  2  0
  4  5  1  0
  5  6  2  0
  6  7  1  0
  7  8  2  0
  7  9  1  0
  9 10  1  0
 10 11  1  0
 11 12  2  0
 12 13  1  0
 13 14  2  0
 14 15  1  0
 15 16  1  0
 15 17  2  0
  6 18  1  0
 18 19  2  0
 19 20  1  0
 20 21  2  0
 20 22  2  0
 20 23  1  0
 23 24  1  0
 24 25  1  0
 25 26  1  0
 26 27  1  0
 27 28  1  0
 19  3  1  0
 28 23  1  0
 17 11  1  0
  1 29  1  0
  1 30  1  0
  1 31  1  0
  4 32  1  0
  5 33  1  0
 10 34  1  0
 10 35  1  0
 12 36  1  0
 13 37  1  0
 14 38  1  0
 17 39  1  0
 18 40  1  0
 24 41  1  0
 24 42  1  0
 25 43  1  0
 25 44  1  0
 27 45  1  0
 27 46  1  0
 28 47  1  0
 28 48  1  0
M  CHG  1   9  -1
M  END
>  <UniqueID>  (42) 
39

>  <SMILES>  (42) 
COc1ccc(C(=O)[N-]Cc2cccc(Br)c2)cc1S(=O)(=O)N1CCOCC1

>  <Energy>  (42) 
59.461629436215745

>  <Genealogy>  (42) 
COc1ccc(C(=O)[N-]Cc2cccc(Br)c2)cc1S(=O)(=O)N1CCOCC1 (protonated)
COc1ccc(C(=O)[N-]Cc2cccc(Br)c2)cc1S(=O)(=O)N1CCOCC1 (3D coordinates assigned)
COc1ccc(C(=O)[N-]Cc2cccc(Br)c2)cc1S(=O)(=O)N1CCOCC1 (nonaromatic ring conformer: 59.461629436215745 kcal/mol)

>  <smiles>  (42) 
COc1ccc(C(=O)NCc2cccc(Br)c2)cc1S(=O)(=O)N1CCOCC1

>  <score_type>  (42) 
oracle

>  <origin>  (42) 
adg

>  <m_score__min__energy>  (42) 
-10.52

>  <m_primary>  (42) 
energy

$$$$
42:0
     RDKit          3D

 46 48  0  0  0  0  0  0  0  0999 V2000
   61.4255   30.2398   49.0315 H   0  0  0  0  0  0  0  0  0  0  0  0
   60.8360   31.0000   48.4980 C   0  0  0  0  0  0  0  0  0  0  0  0
   61.0768   32.0666   48.6178 H   0  0  0  0  0  0  0  0  0  0  0  0
   59.8280   30.6280   47.7050 C   0  0  0  0  0  0  0  0  0  0  0  0
   58.7550   34.0180   46.9110 C   0  0  0  0  0  0  0  0  0  0  0  0
   59.7760   34.7380   47.4000 C   0  0  0  0  0  0  0  0  0  0  0  0
   59.5853   35.7957   47.6345 H   0  0  0  0  0  0  0  0  0  0  0  0
   58.9610   31.5280   46.9360 C   0  0  0  0  0  0  0  0  0  0  0  0
   57.6376   32.5849   48.1818 H   0  0  0  0  0  0  0  0  0  0  0  0
   58.4030   32.6670   47.3960 C   0  0  0  0  0  0  0  0  0  0  0  0
   58.1473   34.4567   46.1059 H   0  0  0  0  0  0  0  0  0  0  0  0
   61.1390   34.2180   47.6480 C   0  0  0  0  0  0  0  0  0  0  0  0
   61.6980   34.1940   48.9400 C   0  0  0  0  0  0  0  0  0  0  0  0
   61.1089   34.5496   49.7982 H   0  0  0  0  0  0  0  0  0  0  0  0
   62.9990   33.7200   49.1370 C   0  0  0  0  0  0  0  0  0  0  0  0
   63.4243   33.6890   50.1510 H   0  0  0  0  0  0  0  0  0  0  0  0
   63.7590   33.2860   48.0490 C   0  0  0  0  0  0  0  0  0  0  0  0
   64.7790   32.9057   48.2070 H   0  0  0  0  0  0  0  0  0  0  0  0
   63.2230   33.3350   46.7590 C   0  0  0  0  0  0  0  0  0  0  0  0
   63.8251   33.0008   45.9012 H   0  0  0  0  0  0  0  0  0  0  0  0
   61.9230   33.8080   46.5570 C   0  0  0  0  0  0  0  0  0  0  0  0
   61.5118   33.8594   45.5380 H   0  0  0  0  0  0  0  0  0  0  0  0
   58.5240   30.7550   45.7490 C   0  0  0  0  0  0  0  0  0  0  0  0
   57.7690   31.1490   44.6980 C   0  0  0  0  0  0  0  0  0  0  0  0
   57.5120   32.5940   44.3550 C   0  0  0  0  0  0  0  0  0  0  0  0
   57.4082   33.1779   45.2814 H   0  0  0  0  0  0  0  0  0  0  0  0
   58.3544   32.9866   43.7666 H   0  0  0  0  0  0  0  0  0  0  0  0
   56.5859   32.6721   43.7666 H   0  0  0  0  0  0  0  0  0  0  0  0
   57.1550   30.0960   43.8530 C   0  0  0  0  0  0  0  0  0  0  0  0
   56.6470   30.3910   42.7370 O   0  0  0  0  0  0  0  0  0  0  0  0
   57.0330   28.6810   44.3560 C   0  0  0  0  0  0  0  0  0  0  0  0
   56.0716   28.5734   44.8797 H   0  0  0  0  0  0  0  0  0  0  0  0
   57.0950   28.0087   43.4876 H   0  0  0  0  0  0  0  0  0  0  0  0
   58.1450   28.3130   45.3040 C   0  0  0  0  0  0  0  0  0  0  0  0
   58.3130   27.1360   45.5840 O   0  0  0  0  0  0  0  0  0  0  0  0
   59.1270   29.3620   45.8030 C   0  0  1  0  0  0  0  0  0  0  0  0
   60.3650   29.3270   44.8790 C   0  0  0  0  0  0  0  0  0  0  0  0
   61.2787   29.3012   45.4910 H   0  0  0  0  0  0  0  0  0  0  0  0
   60.3234   28.4297   44.2441 H   0  0  0  0  0  0  0  0  0  0  0  0
   60.3742   30.2252   44.2441 H   0  0  0  0  0  0  0  0  0  0  0  0
   59.5890   29.2080   47.2880 C   0  0  2  0  0  0  0  0  0  0  0  0
   60.4510   28.5278   47.3534 H   0  0  0  0  0  0  0  0  0  0  0  0
   58.5320   28.5970   48.2270 C   0  0  0  0  0  0  0  0  0  0  0  0
   58.8278   28.7680   49.2726 H   0  0  0  0  0  0  0  0  0  0  0  0
   57.5572   29.0709   48.0395 H   0  0  0  0  0  0  0  0  0  0  0  0
   58.4562   27.5158   48.0395 H   0  0  0  0  0  0  0  0  0  0  0  0
  1  2  1  0
  2  3  1  0
  2  4  2  0
  4  5  1  0
  5  6  2  0
  6  7  1  0
  6  8  1  0
  8  9  1  0
  8 10  2  0
 10 11  1  0
 10 12  1  0
 12 13  2  0
 13 14  1  0
 13 15  1  0
 15 16  1  0
 15 17  2  0
 17 18  1  0
 17 19  1  0
 19 20  1  0
 19 21  2  0
 21 22  1  0
  5 23  1  0
 23 24  2  0
 24 25  1  0
 25 26  1  0
 25 27  1  0
 25 28  1  0
 24 29  1  0
 29 30  2  0
 29 31  1  0
 31 32  1  0
 31 33  1  0
 31 34  1  0
 34 35  2  0
 34 36  1  0
 36 37  1  6
 37 38  1  0
 37 39  1  0
 37 40  1  0
 36 41  1  0
 41 42  1  6
 41 43  1  0
 43 44  1  0
 43 45  1  0
 43 46  1  0
 41  4  1  0
 21 12  1  0
 36 23  1  0
M  END
>  <UniqueID>  (43) 
40

>  <SMILES>  (43) 
C=C1C(=C/C=C\c2ccccc2)C2=C(C)C(=O)CC(=O)[C@]2(C)[C@@H]1C

>  <Energy>  (43) 
82.84300953570894

>  <Genealogy>  (43) 
C=C1C(=CC=Cc2ccccc2)C2=C(C)C(=O)CC(=O)[C@]2(C)[C@@H]1C (chirality)
C=C1C(=C/C=C\c2ccccc2)C2=C(C)C(=O)CC(=O)[C@]2(C)[C@@H]1C (cis-trans isomerization)
C=C1C(=C/C=C\c2ccccc2)C2=C(C)C(=O)CC(=O)[C@]2(C)[C@@H]1C (3D coordinates assigned)
C=C1C(=C/C=C\c2ccccc2)C2=C(C)C(=O)CC(=O)[C@]2(C)[C@@H]1C (nonaromatic ring conformer: 82.84300953570894 kcal/mol)

>  <smiles>  (43) 
C=C1C(=CC=Cc2ccccc2)C2=C(C)C(=O)CC(=O)C2(C)C1C

>  <score_type>  (43) 
oracle

>  <origin>  (43) 
adg

>  <m_score__min__energy>  (43) 
-8.5999999999999996

>  <m_primary>  (43) 
energy

$$$$
43:0
     RDKit          3D

 46 48  0  0  0  0  0  0  0  0999 V2000
   57.7550   32.0350   41.8530 C   0  0  0  0  0  0  0  0  0  0  0  0
   57.6850   31.9590   43.1840 C   0  0  0  0  0  0  0  0  0  0  0  0
   58.1460   32.9160   44.0650 C   0  0  0  0  0  0  0  0  0  0  0  0
   57.8520   32.4320   45.3280 C   0  0  0  0  0  0  0  0  0  0  0  0
   58.1470   33.1300   46.5960 C   0  0  0  0  0  0  0  0  0  0  0  0
   57.2800   33.0920   47.5120 O   0  0  0  0  0  0  0  0  0  0  0  0
   59.3950   33.8250   46.8220 N   0  0  0  0  0  0  0  0  0  0  0  0
   60.5880   33.5420   46.0120 C   0  0  0  0  0  0  0  0  0  0  0  0
   61.8870   33.8420   46.7880 C   0  0  0  0  0  0  0  0  0  0  0  0
   61.7740   33.5240   48.2300 N   0  0  0  0  0  0  0  0  0  0  0  0
   62.1450   32.1420   48.6180 C   0  0  0  0  0  0  0  0  0  0  0  0
   61.0200   31.1420   48.4600 C   0  0  0  0  0  0  0  0  0  0  0  0
   60.8630   30.4470   47.2490 C   0  0  0  0  0  0  0  0  0  0  0  0
   59.7960   29.5630   47.0760 C   0  0  0  0  0  0  0  0  0  0  0  0
   58.8800   29.3560   48.1090 C   0  0  0  0  0  0  0  0  0  0  0  0
   59.0340   30.0260   49.3370 C   0  0  0  0  0  0  0  0  0  0  0  0
   58.1440   29.8480   50.4060 O   0  0  0  0  0  0  0  0  0  0  0  0
   57.7620   30.8770   51.3140 C   0  0  0  0  0  0  0  0  0  0  0  0
   60.1080   30.9090   49.5060 C   0  0  0  0  0  0  0  0  0  0  0  0
   60.5950   34.0850   48.9360 C   0  0  0  0  0  0  0  0  0  0  0  0
   59.5620   34.6990   47.9870 C   0  0  0  0  0  0  0  0  0  0  0  0
   57.2680   31.2580   45.2350 O   0  0  0  0  0  0  0  0  0  0  0  0
   57.1480   30.9430   43.9660 C   0  0  0  0  0  0  0  0  0  0  0  0
   56.5830   29.8080   43.5510 C   0  0  0  0  0  0  0  0  0  0  0  0
   57.3579   31.2172   41.2338 H   0  0  0  0  0  0  0  0  0  0  0  0
   58.2098   32.9154   41.3755 H   0  0  0  0  0  0  0  0  0  0  0  0
   58.6432   33.8650   43.8156 H   0  0  0  0  0  0  0  0  0  0  0  0
   60.5809   32.4800   45.7253 H   0  0  0  0  0  0  0  0  0  0  0  0
   60.5614   34.1897   45.1233 H   0  0  0  0  0  0  0  0  0  0  0  0
   62.7016   33.2413   46.3573 H   0  0  0  0  0  0  0  0  0  0  0  0
   62.0876   34.9199   46.6987 H   0  0  0  0  0  0  0  0  0  0  0  0
   62.9874   31.8191   47.9886 H   0  0  0  0  0  0  0  0  0  0  0  0
   62.4044   32.1672   49.6867 H   0  0  0  0  0  0  0  0  0  0  0  0
   61.5845   30.6001   46.4329 H   0  0  0  0  0  0  0  0  0  0  0  0
   59.6768   29.0278   46.1224 H   0  0  0  0  0  0  0  0  0  0  0  0
   58.0351   28.6670   47.9626 H   0  0  0  0  0  0  0  0  0  0  0  0
   57.8937   30.5221   52.3468 H   0  0  0  0  0  0  0  0  0  0  0  0
   58.3906   31.7643   51.1482 H   0  0  0  0  0  0  0  0  0  0  0  0
   56.7066   31.1392   51.1482 H   0  0  0  0  0  0  0  0  0  0  0  0
   60.2401   31.4264   50.4677 H   0  0  0  0  0  0  0  0  0  0  0  0
   60.1110   33.2776   49.5052 H   0  0  0  0  0  0  0  0  0  0  0  0
   60.9580   34.8907   49.5910 H   0  0  0  0  0  0  0  0  0  0  0  0
   58.5995   34.8032   48.5092 H   0  0  0  0  0  0  0  0  0  0  0  0
   59.9072   35.6902   47.6577 H   0  0  0  0  0  0  0  0  0  0  0  0
   56.5076   29.5925   42.4749 H   0  0  0  0  0  0  0  0  0  0  0  0
   56.1926   29.0876   44.2849 H   0  0  0  0  0  0  0  0  0  0  0  0
  1  2  2  0
  2  3  1  0
  3  4  2  0
  4  5  1  0
  5  6  2  0
  5  7  1  0
  7  8  1  0
  8  9  1  0
  9 10  1  0
 10 11  1  0
 11 12  1  0
 12 13  2  0
 13 14  1  0
 14 15  2  0
 15 16  1  0
 16 17  1  0
 17 18  1  0
 16 19  2  0
 10 20  1  0
 20 21  1  0
  4 22  1  0
 22 23  1  0
 23 24  2  0
 23  2  1  0
 21  7  1  0
 19 12  1  0
  1 25  1  0
  1 26  1  0
  3 27  1  0
  8 28  1  0
  8 29  1  0
  9 30  1  0
  9 31  1  0
 11 32  1  0
 11 33  1  0
 13 34  1  0
 14 35  1  0
 15 36  1  0
 18 37  1  0
 18 38  1  0
 18 39  1  0
 19 40  1  0
 20 41  1  0
 20 42  1  0
 21 43  1  0
 21 44  1  0
 24 45  1  0
 24 46  1  0
M  END
>  <UniqueID>  (44) 
41

>  <SMILES>  (44) 
C=c1cc(C(=O)N2CCN(Cc3cccc(OC)c3)CC2)oc1=C

>  <Energy>  (44) 
84.21403646785407

>  <Genealogy>  (44) 
C=c1cc(C(=O)N2CCN(Cc3cccc(OC)c3)CC2)oc1=C (3D coordinates assigned)
C=c1cc(C(=O)N2CCN(Cc3cccc(OC)c3)CC2)oc1=C (nonaromatic ring conformer: 84.21403646785407 kcal/mol)

>  <smiles>  (44) 
C=c1cc(C(=O)N2CCN(Cc3cccc(OC)c3)CC2)oc1=C

>  <score_type>  (44) 
oracle

>  <origin>  (44) 
adg

>  <m_score__min__energy>  (44) 
-7.6699999999999999

>  <m_primary>  (44) 
energy

$$$$
44:0
     RDKit          3D

 58 61  0  0  0  0  0  0  0  0999 V2000
   57.0220   34.2210   46.1880 O   0  0  0  0  0  0  0  0  0  0  0  0
   58.2770   34.0810   46.1920 C   0  0  0  0  0  0  0  0  0  0  0  0
   59.1100   34.9820   47.0500 C   0  0  0  0  0  0  0  0  0  0  0  0
   59.7830   34.2100   48.0490 O   0  0  0  0  0  0  0  0  0  0  0  0
   59.8600   32.8060   48.1140 C   0  0  0  0  0  0  0  0  0  0  0  0
   58.8900   32.0380   48.7910 C   0  0  0  0  0  0  0  0  0  0  0  0
   59.0220   30.6510   48.8940 C   0  0  0  0  0  0  0  0  0  0  0  0
   60.1060   29.9920   48.3040 C   0  0  0  0  0  0  0  0  0  0  0  0
   60.2850   28.5300   48.4630 C   0  0  0  0  0  0  0  0  0  0  0  0
   61.1100   28.1050   49.3260 O   0  0  0  0  0  0  0  0  0  0  0  0
   59.5470   27.5810   47.6670 N   0  0  0  0  0  0  0  0  0  0  0  0
   59.3120   27.8390   46.2370 C   0  0  0  0  0  0  0  0  0  0  0  0
   59.2680   26.5300   45.4350 C   0  0  0  0  0  0  0  0  0  0  0  0
   58.3360   25.5620   46.0430 N   0  0  0  0  0  0  0  0  0  0  0  0
   57.7050   24.5490   45.2240 C   0  0  0  0  0  0  0  0  0  0  0  0
   57.5740   23.2290   45.6920 C   0  0  0  0  0  0  0  0  0  0  0  0
   56.9760   22.2490   44.8930 C   0  0  0  0  0  0  0  0  0  0  0  0
   56.4950   22.5740   43.6230 C   0  0  0  0  0  0  0  0  0  0  0  0
   55.9050   21.5960   42.8290 O   0  0  0  0  0  0  0  0  0  0  0  0
   56.6170   23.8790   43.1500 C   0  0  0  0  0  0  0  0  0  0  0  0
   57.2210   24.8610   43.9390 C   0  0  0  0  0  0  0  0  0  0  0  0
   58.0930   25.5870   47.4960 C   0  0  0  0  0  0  0  0  0  0  0  0
   59.2540   26.2560   48.2370 C   0  0  0  0  0  0  0  0  0  0  0  0
   61.0610   30.7450   47.6070 C   0  0  0  0  0  0  0  0  0  0  0  0
   60.9470   32.1440   47.4880 C   0  0  0  0  0  0  0  0  0  0  0  0
   61.9560   32.8810   46.7600 N   0  0  0  0  0  0  0  0  0  0  0  0
   61.6280   33.8030   45.9890 O   0  0  0  0  0  0  0  0  0  0  0  0
   63.2970   32.6160   46.9210 O   0  0  0  0  0  0  0  0  0  0  0  0
   58.9000   33.0690   45.3870 N   0  0  0  0  0  0  0  0  0  0  0  0
   58.1820   32.2800   44.4230 C   0  0  0  0  0  0  0  0  0  0  0  0
   58.0820   32.6930   43.0800 C   0  0  0  0  0  0  0  0  0  0  0  0
   57.3980   31.9060   42.1490 C   0  0  0  0  0  0  0  0  0  0  0  0
   56.8150   30.7000   42.5450 C   0  0  0  0  0  0  0  0  0  0  0  0
   56.9200   30.2760   43.8740 C   0  0  0  0  0  0  0  0  0  0  0  0
   57.6090   31.0570   44.8090 C   0  0  0  0  0  0  0  0  0  0  0  0
   57.6970   30.6350   46.0960 F   0  0  0  0  0  0  0  0  0  0  0  0
   59.8532   35.4981   46.4245 H   0  0  0  0  0  0  0  0  0  0  0  0
   58.4601   35.7228   47.5387 H   0  0  0  0  0  0  0  0  0  0  0  0
   58.0199   32.5366   49.2429 H   0  0  0  0  0  0  0  0  0  0  0  0
   58.2663   30.0714   49.4444 H   0  0  0  0  0  0  0  0  0  0  0  0
   58.3521   28.3635   46.1203 H   0  0  0  0  0  0  0  0  0  0  0  0
   60.1398   28.4539   45.8539 H   0  0  0  0  0  0  0  0  0  0  0  0
   58.9384   26.7491   44.4087 H   0  0  0  0  0  0  0  0  0  0  0  0
   60.2757   26.0889   45.4334 H   0  0  0  0  0  0  0  0  0  0  0  0
   57.9445   22.9655   46.6936 H   0  0  0  0  0  0  0  0  0  0  0  0
   56.8843   21.2184   45.2665 H   0  0  0  0  0  0  0  0  0  0  0  0
   56.2360   24.1371   42.1509 H   0  0  0  0  0  0  0  0  0  0  0  0
   57.3193   25.8864   43.5532 H   0  0  0  0  0  0  0  0  0  0  0  0
   57.1681   26.1479   47.6961 H   0  0  0  0  0  0  0  0  0  0  0  0
   58.0012   24.5506   47.8530 H   0  0  0  0  0  0  0  0  0  0  0  0
   58.9856   26.3715   49.2975 H   0  0  0  0  0  0  0  0  0  0  0  0
   60.1480   25.6234   48.1336 H   0  0  0  0  0  0  0  0  0  0  0  0
   61.9171   30.2329   47.1434 H   0  0  0  0  0  0  0  0  0  0  0  0
   59.9010   32.8330   45.5730 H   0  0  0  0  0  0  0  0  0  0  0  0
   58.5443   33.6392   42.7624 H   0  0  0  0  0  0  0  0  0  0  0  0
   57.3187   32.2369   41.1030 H   0  0  0  0  0  0  0  0  0  0  0  0
   56.2735   30.0839   41.8121 H   0  0  0  0  0  0  0  0  0  0  0  0
   56.4599   29.3264   44.1849 H   0  0  0  0  0  0  0  0  0  0  0  0
  1  2  2  0
  2  3  1  0
  3  4  1  0
  4  5  1  0
  5  6  2  0
  6  7  1  0
  7  8  2  0
  8  9  1  0
  9 10  2  0
  9 11  1  0
 11 12  1  0
 12 13  1  0
 13 14  1  0
 14 15  1  0
 15 16  2  0
 16 17  1  0
 17 18  2  0
 18 19  1  0
 18 20  1  0
 20 21  2  0
 14 22  1  0
 22 23  1  0
  8 24  1  0
 24 25  2  0
 25 26  1  0
 26 27  2  0
 26 28  1  0
  2 29  1  0
 29 30  1  0
 30 31  2  0
 31 32  1  0
 32 33  2  0
 33 34  1  0
 34 35  2  0
 35 36  1  0
 25  5  1  0
 35 30  1  0
 23 11  1  0
 21 15  1  0
  3 37  1  0
  3 38  1  0
  6 39  1  0
  7 40  1  0
 12 41  1  0
 12 42  1  0
 13 43  1  0
 13 44  1  0
 16 45  1  0
 17 46  1  0
 20 47  1  0
 21 48  1  0
 22 49  1  0
 22 50  1  0
 23 51  1  0
 23 52  1  0
 24 53  1  0
 29 54  1  0
 31 55  1  0
 32 56  1  0
 33 57  1  0
 34 58  1  0
M  CHG  3  19  -1  26   1  28  -1
M  END
>  <UniqueID>  (45) 
42

>  <SMILES>  (45) 
O=C(COc1ccc(C(=O)N2CCN(c3ccc([O-])cc3)CC2)cc1[N+](=O)[O-])Nc1ccccc1F

>  <Energy>  (45) 
80.38262061951839

>  <Genealogy>  (45) 
O=C(COc1ccc(C(=O)N2CCN(c3ccc([O-])cc3)CC2)cc1[N+](=O)[O-])Nc1ccccc1F (protonated)
O=C(COc1ccc(C(=O)N2CCN(c3ccc([O-])cc3)CC2)cc1[N+](=O)[O-])Nc1ccccc1F (3D coordinates assigned)
O=C(COc1ccc(C(=O)N2CCN(c3ccc([O-])cc3)CC2)cc1[N+](=O)[O-])Nc1ccccc1F (nonaromatic ring conformer: 80.38262061951839 kcal/mol)

>  <smiles>  (45) 
O=C(COc1ccc(C(=O)N2CCN(c3ccc(O)cc3)CC2)cc1[N+](=O)[O-])Nc1ccccc1F

>  <score_type>  (45) 
oracle

>  <origin>  (45) 
adg

>  <m_score__min__energy>  (45) 
-10.18

>  <m_primary>  (45) 
energy

$$$$
45:0
     RDKit          3D

 40 42  0  0  0  0  0  0  0  0999 V2000
   63.2060   32.6450   48.0840 C   0  0  0  0  0  0  0  0  0  0  0  0
   61.9090   32.0960   47.5510 C   0  0  0  0  0  0  0  0  0  0  0  0
   61.9020   30.8460   46.9100 C   0  0  0  0  0  0  0  0  0  0  0  0
   60.7160   30.3130   46.4030 C   0  0  0  0  0  0  0  0  0  0  0  0
   59.5140   31.0210   46.5270 C   0  0  0  0  0  0  0  0  0  0  0  0
   58.2890   30.4720   46.0010 N   0  0  0  0  0  0  0  0  0  0  0  0
   57.3920   31.2870   45.3600 C   0  0  0  0  0  0  0  0  0  0  0  0
   57.6120   32.5230   45.2450 O   0  0  0  0  0  0  0  0  0  0  0  0
   56.2450   30.7730   44.8490 N   0  0  0  0  0  0  0  0  0  0  0  0
   55.9580   29.4530   44.9440 C   0  0  0  0  0  0  0  0  0  0  0  0
   54.7780   28.9700   44.3890 O   0  0  0  0  0  0  0  0  0  0  0  0
   56.8550   28.5880   45.5790 C   0  0  0  0  0  0  0  0  0  0  0  0
   56.5760   27.1390   45.6350 C   0  0  0  0  0  0  0  0  0  0  0  0
   55.4660   26.7460   46.0800 O   0  0  0  0  0  0  0  0  0  0  0  0
   57.5150   26.1680   45.1510 N   0  0  0  0  0  0  0  0  0  0  0  0
   57.8050   24.8770   45.7730 C   0  0  0  0  0  0  0  0  0  0  0  0
   57.4930   23.7500   44.8380 C   0  0  0  0  0  0  0  0  0  0  0  0
   58.1640   22.5350   44.7760 C   0  0  0  0  0  0  0  0  0  0  0  0
   57.6720   21.6870   43.7770 C   0  0  0  0  0  0  0  0  0  0  0  0
   56.6140   22.2270   43.0570 C   0  0  0  0  0  0  0  0  0  0  0  0
   56.2920   23.7640   43.6610 S   0  0  0  0  0  0  0  0  0  0  0  0
   58.0270   29.1320   46.1280 C   0  0  0  0  0  0  0  0  0  0  0  0
   58.8380   28.3790   46.7380 O   0  0  0  0  0  0  0  0  0  0  0  0
   59.5110   32.2710   47.1620 C   0  0  0  0  0  0  0  0  0  0  0  0
   60.6990   32.8200   47.6740 C   0  0  0  0  0  0  0  0  0  0  0  0
   60.6580   34.1650   48.3500 C   0  0  0  0  0  0  0  0  0  0  0  0
   63.1838   32.6356   49.1837 H   0  0  0  0  0  0  0  0  0  0  0  0
   64.0409   32.0231   47.7288 H   0  0  0  0  0  0  0  0  0  0  0  0
   63.3407   33.6773   47.7288 H   0  0  0  0  0  0  0  0  0  0  0  0
   62.8406   30.2817   46.8067 H   0  0  0  0  0  0  0  0  0  0  0  0
   60.7253   29.3328   45.9039 H   0  0  0  0  0  0  0  0  0  0  0  0
   58.8712   24.8379   46.0407 H   0  0  0  0  0  0  0  0  0  0  0  0
   57.1786   24.7716   46.6711 H   0  0  0  0  0  0  0  0  0  0  0  0
   58.9963   22.2670   45.4434 H   0  0  0  0  0  0  0  0  0  0  0  0
   58.0846   20.6864   43.5805 H   0  0  0  0  0  0  0  0  0  0  0  0
   56.0781   21.7339   42.2326 H   0  0  0  0  0  0  0  0  0  0  0  0
   58.5678   32.8284   47.2606 H   0  0  0  0  0  0  0  0  0  0  0  0
   60.6622   34.0272   49.4413 H   0  0  0  0  0  0  0  0  0  0  0  0
   61.5387   34.7525   48.0512 H   0  0  0  0  0  0  0  0  0  0  0  0
   59.7432   34.6978   48.0512 H   0  0  0  0  0  0  0  0  0  0  0  0
  1  2  1  0
  2  3  2  0
  3  4  1  0
  4  5  2  0
  5  6  1  0
  6  7  1  0
  7  8  2  0
  7  9  1  0
  9 10  1  0
 10 11  1  0
 10 12  2  0
 12 13  1  0
 13 14  2  0
 13 15  1  0
 15 16  1  0
 16 17  1  0
 17 18  2  0
 18 19  1  0
 19 20  2  0
 20 21  1  0
 12 22  1  0
 22 23  2  0
  5 24  1  0
 24 25  2  0
 25 26  1  0
 25  2  1  0
 22  6  1  0
 21 17  1  0
  1 27  1  0
  1 28  1  0
  1 29  1  0
  3 30  1  0
  4 31  1  0
 16 32  1  0
 16 33  1  0
 18 34  1  0
 19 35  1  0
 20 36  1  0
 24 37  1  0
 26 38  1  0
 26 39  1  0
 26 40  1  0
M  CHG  3   9  -1  11  -1  15  -1
M  END
>  <UniqueID>  (46) 
43

>  <SMILES>  (46) 
Cc1ccc(-n2c(=O)[n-]c([O-])c(C(=O)[N-]Cc3cccs3)c2=O)cc1C

>  <Energy>  (46) 
82.31780992540511

>  <Genealogy>  (46) 
Cc1ccc(-n2c(=O)[n-]c([O-])c(C(=O)[N-]Cc3cccs3)c2=O)cc1C (protonated)
Cc1ccc(-n2c(=O)[n-]c([O-])c(C(=O)[N-]Cc3cccs3)c2=O)cc1C (3D coordinates assigned)
Cc1ccc(-n2c(=O)[n-]c([O-])c(C(=O)[N-]Cc3cccs3)c2=O)cc1C (optimized conformer: 82.31780992540511 kcal/mol)

>  <smiles>  (46) 
Cc1ccc(-n2c(=O)[nH]c(O)c(C(=O)NCc3cccs3)c2=O)cc1C

>  <score_type>  (46) 
oracle

>  <origin>  (46) 
adg

>  <m_score__min__energy>  (46) 
-14.25

>  <m_primary>  (46) 
energy

$$$$
46:0
     RDKit          3D

 45 47  0  0  0  0  0  0  0  0999 V2000
   57.8730   32.1360   41.5370 C   0  0  0  0  0  0  0  0  0  0  0  0
   57.5220   32.0710   42.9870 C   0  0  0  0  0  0  0  0  0  0  0  0
   57.7630   33.0610   43.8640 N   0  0  0  0  0  0  0  0  0  0  0  0
   57.2600   32.5860   45.0260 C   0  0  0  0  0  0  0  0  0  0  0  0
   57.3530   33.3310   46.3140 C   0  0  0  0  0  0  0  0  0  0  0  0
   58.4190   34.3250   46.2160 N   0  0  0  0  0  0  0  0  0  0  0  0
   59.6920   33.9350   47.3320 S   0  0  0  0  0  0  0  0  0  0  0  0
   59.4860   34.6990   48.6110 O   0  0  0  0  0  0  0  0  0  0  0  0
   61.0110   34.3320   46.7340 O   0  0  0  0  0  0  0  0  0  0  0  0
   59.7050   32.2020   47.6490 C   0  0  0  0  0  0  0  0  0  0  0  0
   59.2730   31.6990   48.8830 C   0  0  0  0  0  0  0  0  0  0  0  0
   59.2750   30.3230   49.1170 C   0  0  0  0  0  0  0  0  0  0  0  0
   59.7130   29.4430   48.1230 C   0  0  0  0  0  0  0  0  0  0  0  0
   60.1590   29.9290   46.8890 C   0  0  0  0  0  0  0  0  0  0  0  0
   60.5930   29.0000   45.9300 O   0  0  0  0  0  0  0  0  0  0  0  0
   59.9060   28.6670   44.7220 C   0  0  0  0  0  0  0  0  0  0  0  0
   58.4690   28.2110   45.0030 C   0  0  0  0  0  0  0  0  0  0  0  0
   58.4060   27.2360   46.1840 C   0  0  0  0  0  0  0  0  0  0  0  0
   57.0560   26.6000   46.2660 C   0  0  0  0  0  0  0  0  0  0  0  0
   55.9300   27.1410   45.7690 N   0  0  0  0  0  0  0  0  0  0  0  0
   54.9940   26.2380   46.0050 N   0  0  0  0  0  0  0  0  0  0  0  0
   55.5270   25.1860   46.6100 N   0  0  0  0  0  0  0  0  0  0  0  0
   56.8240   25.3810   46.7830 N   0  0  0  0  0  0  0  0  0  0  0  0
   60.1490   31.3190   46.6550 C   0  0  0  0  0  0  0  0  0  0  0  0
   56.7270   31.3480   44.9310 N   0  0  0  0  0  0  0  0  0  0  0  0
   56.8820   31.0350   43.6330 C   0  0  0  0  0  0  0  0  0  0  0  0
   56.4530   29.7380   43.0300 C   0  0  0  0  0  0  0  0  0  0  0  0
   58.9494   32.3353   41.4289 H   0  0  0  0  0  0  0  0  0  0  0  0
   57.6276   31.1771   41.0570 H   0  0  0  0  0  0  0  0  0  0  0  0
   57.3005   32.9434   41.0570 H   0  0  0  0  0  0  0  0  0  0  0  0
   56.3968   33.8353   46.5176 H   0  0  0  0  0  0  0  0  0  0  0  0
   57.5744   32.6299   47.1322 H   0  0  0  0  0  0  0  0  0  0  0  0
   58.9318   32.3893   49.6685 H   0  0  0  0  0  0  0  0  0  0  0  0
   58.9313   29.9303   50.0853 H   0  0  0  0  0  0  0  0  0  0  0  0
   59.7070   28.3595   48.3125 H   0  0  0  0  0  0  0  0  0  0  0  0
   59.8795   29.5523   44.0697 H   0  0  0  0  0  0  0  0  0  0  0  0
   60.4429   27.8394   44.2353 H   0  0  0  0  0  0  0  0  0  0  0  0
   57.8538   29.0928   45.2352 H   0  0  0  0  0  0  0  0  0  0  0  0
   58.0920   27.6926   44.1090 H   0  0  0  0  0  0  0  0  0  0  0  0
   59.1672   26.4535   46.0485 H   0  0  0  0  0  0  0  0  0  0  0  0
   58.5948   27.7915   47.1145 H   0  0  0  0  0  0  0  0  0  0  0  0
   60.4916   31.7130   45.6868 H   0  0  0  0  0  0  0  0  0  0  0  0
   56.2161   29.0219   43.8307 H   0  0  0  0  0  0  0  0  0  0  0  0
   55.5607   29.9004   42.4075 H   0  0  0  0  0  0  0  0  0  0  0  0
   57.2661   29.3363   42.4075 H   0  0  0  0  0  0  0  0  0  0  0  0
  1  2  1  0
  2  3  1  0
  3  4  2  0
  4  5  1  0
  5  6  1  0
  6  7  1  0
  7  8  2  0
  7  9  2  0
  7 10  1  0
 10 11  2  0
 11 12  1  0
 12 13  2  0
 13 14  1  0
 14 15  1  0
 15 16  1  0
 16 17  1  0
 17 18  1  0
 18 19  1  0
 19 20  1  0
 20 21  2  0
 21 22  1  0
 22 23  1  0
 14 24  2  0
  4 25  1  0
 25 26  1  0
 26 27  1  0
 26  2  2  0
 24 10  1  0
 23 19  2  0
  1 28  1  0
  1 29  1  0
  1 30  1  0
  5 31  1  0
  5 32  1  0
 11 33  1  0
 12 34  1  0
 13 35  1  0
 16 36  1  0
 16 37  1  0
 17 38  1  0
 17 39  1  0
 18 40  1  0
 18 41  1  0
 24 42  1  0
 27 43  1  0
 27 44  1  0
 27 45  1  0
M  CHG  3   6  -1  22  -1  25  -1
M  END
>  <UniqueID>  (47) 
44

>  <SMILES>  (47) 
Cc1nc(C[N-]S(=O)(=O)c2cccc(OCCCc3nn[n-]n3)c2)[n-]c1C

>  <Energy>  (47) 
101.73667221434405

>  <Genealogy>  (47) 
Cc1nc(C[N-]S(=O)(=O)c2cccc(OCCCc3nn[n-]n3)c2)[n-]c1C (protonated)
Cc1nc(C[N-]S(=O)(=O)c2cccc(OCCCc3nn[n-]n3)c2)[n-]c1C (3D coordinates assigned)
Cc1nc(C[N-]S(=O)(=O)c2cccc(OCCCc3nn[n-]n3)c2)[n-]c1C (optimized conformer: 101.73667221434405 kcal/mol)

>  <smiles>  (47) 
Cc1nc(CNS(=O)(=O)c2cccc(OCCCc3nn[nH]n3)c2)[nH]c1C

>  <score_type>  (47) 
oracle

>  <origin>  (47) 
adg

>  <m_score__min__energy>  (47) 
-13.279999999999999

>  <m_primary>  (47) 
energy

$$$$
47:0
     RDKit          3D

 47 49  0  0  0  0  0  0  0  0999 V2000
   56.1870   24.5180   46.7780 H   0  0  0  0  0  0  0  0  0  0  0  0
   57.0480   25.0310   46.6280 O   0  0  0  0  0  0  0  0  0  0  0  0
   57.0640   26.3200   46.0910 C   0  0  0  0  0  0  0  0  0  0  0  0
   55.8670   26.9660   45.7540 C   0  0  0  0  0  0  0  0  0  0  0  0
   54.6450   26.3330   45.9450 O   0  0  0  0  0  0  0  0  0  0  0  0
   55.8910   28.2210   45.2360 N   0  0  0  0  0  0  0  0  0  0  0  0
   57.0480   28.9040   45.0130 C   0  0  0  0  0  0  0  0  0  0  0  0
   57.0170   30.1210   44.5470 N   0  0  0  0  0  0  0  0  0  0  0  0
   57.5840   31.2940   45.1540 C   0  0  0  0  0  0  0  0  0  0  0  0
   58.1120   31.2750   46.4580 C   0  0  0  0  0  0  0  0  0  0  0  0
   58.1305   30.3341   47.0275 H   0  0  0  0  0  0  0  0  0  0  0  0
   58.6130   32.4460   47.0330 C   0  0  0  0  0  0  0  0  0  0  0  0
   59.0383   32.4194   48.0471 H   0  0  0  0  0  0  0  0  0  0  0  0
   58.5760   33.6570   46.3220 C   0  0  0  0  0  0  0  0  0  0  0  0
   59.1450   34.9130   46.9250 C   0  0  0  0  0  0  0  0  0  0  0  0
   58.3938   35.3718   47.5847 H   0  0  0  0  0  0  0  0  0  0  0  0
   59.4115   35.6099   46.1167 H   0  0  0  0  0  0  0  0  0  0  0  0
   60.3790   34.5940   47.7240 C   0  0  0  0  0  0  0  0  0  0  0  0
   61.4490   34.3350   47.1110 O   0  0  0  0  0  0  0  0  0  0  0  0
   60.3800   34.5540   49.1570 N   0  0  0  0  0  0  0  0  0  0  0  0
   60.5160   33.3450   49.9620 C   0  0  0  0  0  0  0  0  0  0  0  0
   59.6237   32.7164   49.8258 H   0  0  0  0  0  0  0  0  0  0  0  0
   60.6194   33.6297   51.0195 H   0  0  0  0  0  0  0  0  0  0  0  0
   61.7590   32.5570   49.5350 C   0  0  0  0  0  0  0  0  0  0  0  0
   62.3586   32.3404   50.4314 H   0  0  0  0  0  0  0  0  0  0  0  0
   62.3025   33.1796   48.8091 H   0  0  0  0  0  0  0  0  0  0  0  0
   61.4330   31.2260   48.8340 C   0  0  0  0  0  0  0  0  0  0  0  0
   60.3496   31.0488   48.9029 H   0  0  0  0  0  0  0  0  0  0  0  0
   62.0088   30.4364   49.3389 H   0  0  0  0  0  0  0  0  0  0  0  0
   61.8370   31.2180   47.3570 C   0  0  0  0  0  0  0  0  0  0  0  0
   62.9339   31.1963   47.2770 H   0  0  0  0  0  0  0  0  0  0  0  0
   61.4159   30.3280   46.8665 H   0  0  0  0  0  0  0  0  0  0  0  0
   61.4515   32.1240   46.8665 H   0  0  0  0  0  0  0  0  0  0  0  0
   58.0330   33.6780   45.0270 C   0  0  0  0  0  0  0  0  0  0  0  0
   58.0065   34.6199   44.4595 H   0  0  0  0  0  0  0  0  0  0  0  0
   57.5260   32.5070   44.4560 C   0  0  0  0  0  0  0  0  0  0  0  0
   57.0784   32.5384   43.4517 H   0  0  0  0  0  0  0  0  0  0  0  0
   58.2820   28.2990   45.3400 C   0  0  0  0  0  0  0  0  0  0  0  0
   59.5100   28.9620   45.1350 C   0  0  0  0  0  0  0  0  0  0  0  0
   59.5186   29.9782   44.7139 H   0  0  0  0  0  0  0  0  0  0  0  0
   60.7150   28.3370   45.4630 C   0  0  0  0  0  0  0  0  0  0  0  0
   61.6676   28.8619   45.2986 H   0  0  0  0  0  0  0  0  0  0  0  0
   60.7140   27.0480   45.9990 C   0  0  0  0  0  0  0  0  0  0  0  0
   61.6660   26.5605   46.2561 H   0  0  0  0  0  0  0  0  0  0  0  0
   59.5080   26.3750   46.2100 C   0  0  0  0  0  0  0  0  0  0  0  0
   59.5155   25.3598   46.6335 H   0  0  0  0  0  0  0  0  0  0  0  0
   58.2830   26.9880   45.8840 C   0  0  0  0  0  0  0  0  0  0  0  0
  1  2  1  0
  2  3  1  0
  3  4  2  0
  4  5  1  0
  4  6  1  0
  6  7  1  0
  7  8  2  0
  8  9  1  0
  9 10  2  0
 10 11  1  0
 10 12  1  0
 12 13  1  0
 12 14  2  0
 14 15  1  0
 15 16  1  0
 15 17  1  0
 15 18  1  0
 18 19  2  0
 18 20  1  0
 20 21  1  0
 21 22  1  0
 21 23  1  0
 21 24  1  0
 24 25  1  0
 24 26  1  0
 24 27  1  0
 27 28  1  0
 27 29  1  0
 27 30  1  0
 30 31  1  0
 30 32  1  0
 30 33  1  0
 14 34  1  0
 34 35  1  0
 34 36  2  0
 36 37  1  0
  7 38  1  0
 38 39  2  0
 39 40  1  0
 39 41  1  0
 41 42  1  0
 41 43  2  0
 43 44  1  0
 43 45  1  0
 45 46  1  0
 45 47  2  0
 47  3  1  0
 36  9  1  0
 47 38  1  0
M  CHG  3   5  -1   6  -1  20  -1
M  END
>  <UniqueID>  (48) 
45

>  <SMILES>  (48) 
CCCC[N-]C(=O)Cc1ccc(/N=c2\[n-]c([O-])c(O)c3ccccc23)cc1

>  <Energy>  (48) 
53.05157502321004

>  <Genealogy>  (48) 
CCCC[N-]C(=O)Cc1ccc(N=c2[n-]c([O-])c(O)c3ccccc23)cc1 (protonated)
CCCC[N-]C(=O)Cc1ccc(/N=c2\[n-]c([O-])c(O)c3ccccc23)cc1 (cis-trans isomerization)
CCCC[N-]C(=O)Cc1ccc(/N=c2\[n-]c([O-])c(O)c3ccccc23)cc1 (3D coordinates assigned)
CCCC[N-]C(=O)Cc1ccc(/N=c2\[n-]c([O-])c(O)c3ccccc23)cc1 (optimized conformer: 53.05157502321004 kcal/mol)

>  <smiles>  (48) 
CCCCNC(=O)Cc1ccc(N=c2[nH]c(O)c(O)c3ccccc23)cc1

>  <score_type>  (48) 
oracle

>  <origin>  (48) 
adg

>  <m_score__min__energy>  (48) 
-14.19

>  <m_primary>  (48) 
energy

$$$$
48:0
     RDKit          3D

 45 47  0  0  0  0  0  0  0  0999 V2000
   61.0620   28.9190   44.8590 C   0  0  0  0  0  0  0  0  0  0  0  0
   59.8550   28.4570   45.1930 C   0  0  0  0  0  0  0  0  0  0  0  0
   59.6920   27.3670   45.9780 N   0  0  0  0  0  0  0  0  0  0  0  0
   58.3550   27.2350   46.1090 C   0  0  0  0  0  0  0  0  0  0  0  0
   57.7960   26.2650   46.8510 C   0  0  0  0  0  0  0  0  0  0  0  0
   56.8680   25.2450   46.3360 C   0  0  0  0  0  0  0  0  0  0  0  0
   57.2520   23.9930   46.0090 N   0  0  0  0  0  0  0  0  0  0  0  0
   56.1350   23.4420   45.4850 C   0  0  0  0  0  0  0  0  0  0  0  0
   56.0980   22.2590   45.0510 O   0  0  0  0  0  0  0  0  0  0  0  0
   55.0780   24.2810   45.4540 N   0  0  0  0  0  0  0  0  0  0  0  0
   53.7600   24.0400   44.8730 C   0  0  0  0  0  0  0  0  0  0  0  0
   55.5520   25.4310   45.9620 C   0  0  0  0  0  0  0  0  0  0  0  0
   54.8400   26.6260   46.0410 O   0  0  0  0  0  0  0  0  0  0  0  0
   57.7400   28.2630   45.4150 C   0  0  0  0  0  0  0  0  0  0  0  0
   56.5050   28.5140   45.3780 O   0  0  0  0  0  0  0  0  0  0  0  0
   58.6780   29.0210   44.8190 N   0  0  0  0  0  0  0  0  0  0  0  0
   58.4440   30.2440   44.0400 C   0  0  0  0  0  0  0  0  0  0  0  0
   57.7450   31.2890   44.8710 C   0  0  0  0  0  0  0  0  0  0  0  0
   56.4920   31.4060   44.7820 O   0  0  0  0  0  0  0  0  0  0  0  0
   58.4740   32.1280   45.7930 N   0  0  0  0  0  0  0  0  0  0  0  0
   59.8110   31.7440   46.2710 C   0  0  0  0  0  0  0  0  0  0  0  0
   59.9950   32.1350   47.7420 C   0  0  0  0  0  0  0  0  0  0  0  0
   59.5970   33.5960   48.0230 C   0  0  0  0  0  0  0  0  0  0  0  0
   60.5580   34.5010   47.5350 O   0  0  0  0  0  0  0  0  0  0  0  0
   58.1910   33.9090   47.4810 C   0  0  0  0  0  0  0  0  0  0  0  0
   58.0320   33.5120   46.0100 C   0  0  0  0  0  0  0  0  0  0  0  0
   61.1525   29.8086   44.2184 H   0  0  0  0  0  0  0  0  0  0  0  0
   61.9662   28.4101   45.2244 H   0  0  0  0  0  0  0  0  0  0  0  0
   58.0500   26.2303   47.9207 H   0  0  0  0  0  0  0  0  0  0  0  0
   53.0232   23.9053   45.6786 H   0  0  0  0  0  0  0  0  0  0  0  0
   53.4705   24.9001   44.2514 H   0  0  0  0  0  0  0  0  0  0  0  0
   53.7936   23.1331   44.2514 H   0  0  0  0  0  0  0  0  0  0  0  0
   55.1460   27.4570   45.5500 H   0  0  0  0  0  0  0  0  0  0  0  0
   59.4104   30.6433   43.6986 H   0  0  0  0  0  0  0  0  0  0  0  0
   57.8044   29.9947   43.1805 H   0  0  0  0  0  0  0  0  0  0  0  0
   59.9317   30.6554   46.1691 H   0  0  0  0  0  0  0  0  0  0  0  0
   60.5660   32.2704   45.6686 H   0  0  0  0  0  0  0  0  0  0  0  0
   59.3710   31.4748   48.3623 H   0  0  0  0  0  0  0  0  0  0  0  0
   61.0631   32.0295   47.9827 H   0  0  0  0  0  0  0  0  0  0  0  0
   59.5627   33.7227   49.1151 H   0  0  0  0  0  0  0  0  0  0  0  0
   61.0260   34.9090   48.3080 H   0  0  0  0  0  0  0  0  0  0  0  0
   57.4508   33.3564   48.0783 H   0  0  0  0  0  0  0  0  0  0  0  0
   58.0369   34.9957   47.5543 H   0  0  0  0  0  0  0  0  0  0  0  0
   56.9735   33.6016   45.7246 H   0  0  0  0  0  0  0  0  0  0  0  0
   58.6520   34.1809   45.3951 H   0  0  0  0  0  0  0  0  0  0  0  0
  1  2  2  0
  2  3  1  0
  3  4  1  0
  4  5  2  3
  5  6  1  0
  6  7  1  0
  7  8  1  0
  8  9  2  0
  8 10  1  0
 10 11  1  0
 10 12  1  0
 12 13  1  0
  4 14  1  0
 14 15  2  0
 14 16  1  0
 16 17  1  0
 17 18  1  0
 18 19  2  0
 18 20  1  0
 20 21  1  0
 21 22  1  0
 22 23  1  0
 23 24  1  0
 23 25  1  0
 25 26  1  0
 16  2  1  0
 26 20  1  0
 12  6  2  0
  1 27  1  0
  1 28  1  0
  5 29  1  0
 11 30  1  0
 11 31  1  0
 11 32  1  0
 13 33  1  0
 17 34  1  0
 17 35  1  0
 21 36  1  0
 21 37  1  0
 22 38  1  0
 22 39  1  0
 23 40  1  0
 24 41  1  0
 25 42  1  0
 25 43  1  0
 26 44  1  0
 26 45  1  0
M  CHG  2   3  -1   7  -1
M  END
>  <UniqueID>  (49) 
46

>  <SMILES>  (49) 
C=c1[n-]c(=Cc2[n-]c(=O)n(C)c2O)c(=O)n1CC(=O)N1CCC(O)CC1

>  <Energy>  (49) 
116.96773125958721

>  <Genealogy>  (49) 
C=c1[n-]c(=Cc2[n-]c(=O)n(C)c2O)c(=O)n1CC(=O)N1CCC(O)CC1 (protonated)
C=c1[n-]c(=Cc2[n-]c(=O)n(C)c2O)c(=O)n1CC(=O)N1CCC(O)CC1 (3D coordinates assigned)
C=c1[n-]c(=Cc2[n-]c(=O)n(C)c2O)c(=O)n1CC(=O)N1CCC(O)CC1 (nonaromatic ring conformer: 116.96773125958721 kcal/mol)

>  <smiles>  (49) 
C=c1[nH]c(=Cc2[nH]c(=O)n(C)c2O)c(=O)n1CC(=O)N1CCC(O)CC1

>  <score_type>  (49) 
oracle

>  <origin>  (49) 
adg

>  <m_score__min__energy>  (49) 
-11.58

>  <m_primary>  (49) 
energy

$$$$
49:0
     RDKit          3D

 50 53  0  0  0  0  0  0  0  0999 V2000
   62.8850   31.9130   48.7330 N   0  0  0  0  0  0  0  0  0  0  0  0
   62.4510   33.4210   48.0000 S   0  0  0  0  0  0  0  0  0  0  0  0
   63.4860   33.8020   46.9750 O   0  0  0  0  0  0  0  0  0  0  0  0
   62.4000   34.4920   49.0590 O   0  0  0  0  0  0  0  0  0  0  0  0
   60.8790   33.2710   47.2190 C   0  0  0  0  0  0  0  0  0  0  0  0
   60.6050   33.9600   46.0300 C   0  0  0  0  0  0  0  0  0  0  0  0
   59.3560   33.8360   45.4170 C   0  0  0  0  0  0  0  0  0  0  0  0
   58.3630   33.0250   45.9900 C   0  0  0  0  0  0  0  0  0  0  0  0
   57.0090   32.8970   45.3450 C   0  0  0  0  0  0  0  0  0  0  0  0
   57.0260   31.8380   44.3430 N   0  0  0  0  0  0  0  0  0  0  0  0
   56.7070   30.4690   44.6250 C   0  0  0  0  0  0  0  0  0  0  0  0
   55.5210   30.0630   44.4920 O   0  0  0  0  0  0  0  0  0  0  0  0
   57.7420   29.5650   45.0590 N   0  0  0  0  0  0  0  0  0  0  0  0
   59.1310   30.0440   45.1220 C   0  0  0  0  0  0  0  0  0  0  0  0
   60.1010   28.9360   45.5550 C   0  0  0  0  0  0  0  0  0  0  0  0
   59.6050   28.1940   46.8160 C   0  0  0  0  0  0  0  0  0  0  0  0
   59.9430   28.9830   48.0580 C   0  0  0  0  0  0  0  0  0  0  0  0
   59.0580   29.2880   49.0340 N   0  0  0  0  0  0  0  0  0  0  0  0
   59.8330   30.0130   49.8740 C   0  0  0  0  0  0  0  0  0  0  0  0
   59.3470   30.6420   51.1550 C   0  0  0  0  0  0  0  0  0  0  0  0
   58.9240   32.0930   50.9960 C   0  0  0  0  0  0  0  0  0  0  0  0
   57.8710   31.0180   51.2310 C   0  0  0  0  0  0  0  0  0  0  0  0
   61.1010   30.1410   49.4290 N   0  0  0  0  0  0  0  0  0  0  0  0
   61.1280   29.4910   48.3040 O   0  0  0  0  0  0  0  0  0  0  0  0
   58.0900   27.8340   46.7670 C   0  0  0  0  0  0  0  0  0  0  0  0
   57.4340   28.1740   45.4240 C   0  0  0  0  0  0  0  0  0  0  0  0
   58.6360   32.3460   47.1900 C   0  0  0  0  0  0  0  0  0  0  0  0
   59.8880   32.4680   47.8000 C   0  0  0  0  0  0  0  0  0  0  0  0
   62.3770   31.8610   49.6450 H   0  0  0  0  0  0  0  0  0  0  0  0
   62.5000   31.1520   48.1260 H   0  0  0  0  0  0  0  0  0  0  0  0
   61.3762   34.6008   45.5777 H   0  0  0  0  0  0  0  0  0  0  0  0
   59.1493   34.3760   44.4812 H   0  0  0  0  0  0  0  0  0  0  0  0
   56.2611   32.6565   46.1150 H   0  0  0  0  0  0  0  0  0  0  0  0
   56.7530   33.8488   44.8566 H   0  0  0  0  0  0  0  0  0  0  0  0
   59.4273   30.4067   44.1267 H   0  0  0  0  0  0  0  0  0  0  0  0
   59.1795   30.8498   45.8692 H   0  0  0  0  0  0  0  0  0  0  0  0
   60.2025   28.2116   44.7334 H   0  0  0  0  0  0  0  0  0  0  0  0
   61.0673   29.4041   45.7939 H   0  0  0  0  0  0  0  0  0  0  0  0
   60.1378   27.2321   46.8472 H   0  0  0  0  0  0  0  0  0  0  0  0
   60.0191   30.0716   51.8130 H   0  0  0  0  0  0  0  0  0  0  0  0
   59.1516   32.8217   51.7879 H   0  0  0  0  0  0  0  0  0  0  0  0
   59.0844   32.8700   50.2340 H   0  0  0  0  0  0  0  0  0  0  0  0
   57.3393   30.9691   52.1927 H   0  0  0  0  0  0  0  0  0  0  0  0
   56.9573   30.6956   50.7102 H   0  0  0  0  0  0  0  0  0  0  0  0
   57.9808   26.7542   46.9465 H   0  0  0  0  0  0  0  0  0  0  0  0
   57.5855   28.4331   47.5393 H   0  0  0  0  0  0  0  0  0  0  0  0
   57.8205   27.4981   44.6470 H   0  0  0  0  0  0  0  0  0  0  0  0
   56.3441   28.0533   45.5105 H   0  0  0  0  0  0  0  0  0  0  0  0
   57.8612   31.7159   47.6512 H   0  0  0  0  0  0  0  0  0  0  0  0
   60.0958   31.9325   48.7381 H   0  0  0  0  0  0  0  0  0  0  0  0
  1  2  1  0
  2  3  2  0
  2  4  2  0
  2  5  1  0
  5  6  2  0
  6  7  1  0
  7  8  2  0
  8  9  1  0
  9 10  1  0
 10 11  1  0
 11 12  2  0
 11 13  1  0
 13 14  1  0
 14 15  1  0
 15 16  1  0
 16 17  1  0
 17 18  2  0
 18 19  1  0
 19 20  1  0
 20 21  1  0
 21 22  1  0
 19 23  2  0
 23 24  1  0
 16 25  1  0
 25 26  1  0
  8 27  1  0
 27 28  2  0
 28  5  1  0
 26 13  1  0
 24 17  1  0
 22 20  1  0
  1 29  1  0
  1 30  1  0
  6 31  1  0
  7 32  1  0
  9 33  1  0
  9 34  1  0
 14 35  1  0
 14 36  1  0
 15 37  1  0
 15 38  1  0
 16 39  1  0
 20 40  1  0
 21 41  1  0
 21 42  1  0
 22 43  1  0
 22 44  1  0
 25 45  1  0
 25 46  1  0
 26 47  1  0
 26 48  1  0
 27 49  1  0
 28 50  1  0
M  CHG  1  10  -1
M  END
>  <UniqueID>  (50) 
47

>  <SMILES>  (50) 
NS(=O)(=O)c1ccc(C[N-]C(=O)N2CCC(c3nc(C4CC4)no3)CC2)cc1

>  <Energy>  (50) 
345.7023684685301

>  <Genealogy>  (50) 
NS(=O)(=O)c1ccc(C[N-]C(=O)N2CCC(c3nc(C4CC4)no3)CC2)cc1 (protonated)
NS(=O)(=O)c1ccc(C[N-]C(=O)N2CCC(c3nc(C4CC4)no3)CC2)cc1 (3D coordinates assigned)
NS(=O)(=O)c1ccc(C[N-]C(=O)N2CCC(c3nc(C4CC4)no3)CC2)cc1 (nonaromatic ring conformer: 345.7023684685301 kcal/mol)

>  <smiles>  (50) 
NS(=O)(=O)c1ccc(CNC(=O)N2CCC(c3nc(C4CC4)no3)CC2)cc1

>  <score_type>  (50) 
oracle

>  <origin>  (50) 
adg

>  <m_score__min__energy>  (50) 
-10.18

>  <m_primary>  (50) 
energy

$$$$
50:0
     RDKit          3D

 41 44  0  0  0  0  0  0  0  0999 V2000
   54.7150   27.1050   46.5810 H   0  0  0  0  0  0  0  0  0  0  0  0
   54.6810   26.2530   45.9770 N   0  0  0  0  0  0  0  0  0  0  0  0
   56.2620   25.5550   46.0020 S   0  0  0  0  0  0  0  0  0  0  0  0
   56.2620   24.2860   45.1970 O   0  0  0  0  0  0  0  0  0  0  0  0
   56.6470   25.2300   47.4180 O   0  0  0  0  0  0  0  0  0  0  0  0
   57.4140   26.6980   45.3190 C   0  0  0  0  0  0  0  0  0  0  0  0
   57.9050   26.5120   44.0210 C   0  0  0  0  0  0  0  0  0  0  0  0
   57.5784   25.6441   43.4293 H   0  0  0  0  0  0  0  0  0  0  0  0
   58.8080   27.4260   43.4770 C   0  0  0  0  0  0  0  0  0  0  0  0
   59.1922   27.2757   42.4573 H   0  0  0  0  0  0  0  0  0  0  0  0
   59.2260   28.5310   44.2220 C   0  0  0  0  0  0  0  0  0  0  0  0
   59.9348   29.2488   43.7834 H   0  0  0  0  0  0  0  0  0  0  0  0
   58.7460   28.7330   45.5320 C   0  0  0  0  0  0  0  0  0  0  0  0
   59.1680   29.9090   46.3350 C   0  0  0  0  0  0  0  0  0  0  0  0
   58.5060   31.0870   46.1880 N   0  0  0  0  0  0  0  0  0  0  0  0
   58.8100   32.2190   46.8790 C   0  0  0  0  0  0  0  0  0  0  0  0
   57.9170   33.1730   46.8310 N   0  0  0  0  0  0  0  0  0  0  0  0
   57.3030   33.8500   45.6930 C   0  0  0  0  0  0  0  0  0  0  0  0
   56.3178   34.0403   46.1439 H   0  0  0  0  0  0  0  0  0  0  0  0
   57.7570   33.3570   44.3280 C   0  0  0  0  0  0  0  0  0  0  0  0
   58.3858   32.4579   44.2494 H   0  0  0  0  0  0  0  0  0  0  0  0
   57.2485   33.0837   43.3917 H   0  0  0  0  0  0  0  0  0  0  0  0
   58.3340   34.6380   44.9000 C   0  0  0  0  0  0  0  0  0  0  0  0
   59.3810   34.6674   45.2361 H   0  0  0  0  0  0  0  0  0  0  0  0
   58.4169   35.6775   44.5499 H   0  0  0  0  0  0  0  0  0  0  0  0
   59.9720   32.2130   47.7210 C   0  0  0  0  0  0  0  0  0  0  0  0
   60.6420   33.3530   48.2330 C   0  0  0  0  0  0  0  0  0  0  0  0
   60.4110   34.4970   47.7630 O   0  0  0  0  0  0  0  0  0  0  0  0
   61.6320   33.2080   49.1710 N   0  0  0  0  0  0  0  0  0  0  0  0
   62.2830   34.3870   49.7570 C   0  0  0  0  0  0  0  0  0  0  0  0
   62.2455   34.3191   50.8543 H   0  0  0  0  0  0  0  0  0  0  0  0
   63.3318   34.4283   49.4278 H   0  0  0  0  0  0  0  0  0  0  0  0
   61.7593   35.2966   49.4278 H   0  0  0  0  0  0  0  0  0  0  0  0
   62.0960   31.9670   49.4910 C   0  0  0  0  0  0  0  0  0  0  0  0
   62.8775   31.8555   50.2571 H   0  0  0  0  0  0  0  0  0  0  0  0
   61.6000   30.8720   48.8710 N   0  0  0  0  0  0  0  0  0  0  0  0
   60.5810   30.9630   47.9830 C   0  0  0  0  0  0  0  0  0  0  0  0
   60.1760   29.8170   47.2980 C   0  0  0  0  0  0  0  0  0  0  0  0
   60.6474   28.8471   47.5148 H   0  0  0  0  0  0  0  0  0  0  0  0
   57.8270   27.8100   46.0650 C   0  0  0  0  0  0  0  0  0  0  0  0
   57.4284   27.9632   47.0787 H   0  0  0  0  0  0  0  0  0  0  0  0
  1  2  1  0
  2  3  1  0
  3  4  2  0
  3  5  2  0
  3  6  1  0
  6  7  2  0
  7  8  1  0
  7  9  1  0
  9 10  1  0
  9 11  2  0
 11 12  1  0
 11 13  1  0
 13 14  1  0
 14 15  1  0
 15 16  1  0
 16 17  2  0
 17 18  1  0
 18 19  1  0
 18 20  1  0
 20 21  1  0
 20 22  1  0
 20 23  1  0
 23 24  1  0
 23 25  1  0
 16 26  1  0
 26 27  1  0
 27 28  2  0
 27 29  1  0
 29 30  1  0
 30 31  1  0
 30 32  1  0
 30 33  1  0
 29 34  1  0
 34 35  1  0
 34 36  2  0
 36 37  1  0
 37 38  1  0
 38 39  1  0
 13 40  2  0
 40 41  1  0
 40  6  1  0
 38 14  2  0
 23 18  1  0
 37 26  2  0
M  CHG  2   2  -1  15  -1
M  END
>  <UniqueID>  (51) 
48

>  <SMILES>  (51) 
Cn1cnc2cc(-c3cccc(S([NH-])(=O)=O)c3)[n-]/c(=N/C3CC3)c2c1=O

>  <Energy>  (51) 
339.5767202317251

>  <Genealogy>  (51) 
Cn1cnc2cc(-c3cccc(S([NH-])(=O)=O)c3)[n-]c(=NC3CC3)c2c1=O (protonated)
Cn1cnc2cc(-c3cccc(S([NH-])(=O)=O)c3)[n-]/c(=N/C3CC3)c2c1=O (cis-trans isomerization)
Cn1cnc2cc(-c3cccc(S([NH-])(=O)=O)c3)[n-]/c(=N/C3CC3)c2c1=O (3D coordinates assigned)
Cn1cnc2cc(-c3cccc(S([NH-])(=O)=O)c3)[n-]/c(=N/C3CC3)c2c1=O (nonaromatic ring conformer: 339.5767202317251 kcal/mol)

>  <smiles>  (51) 
Cn1cnc2cc(-c3cccc(S(N)(=O)=O)c3)[nH]c(=NC3CC3)c2c1=O

>  <score_type>  (51) 
oracle

>  <origin>  (51) 
adg

>  <m_score__min__energy>  (51) 
-12

>  <m_primary>  (51) 
energy

$$$$
51:0
     RDKit          3D

 45 46  0  0  0  0  0  0  0  0999 V2000
   55.6210   29.5270   44.8710 C   0  0  0  0  0  0  0  0  0  0  0  0
   56.8460   28.8450   45.4390 C   0  0  0  0  0  0  0  0  0  0  0  0
   56.7660   27.4870   45.8340 C   0  0  0  0  0  0  0  0  0  0  0  0
   55.5360   26.7680   45.6390 N   0  0  0  0  0  0  0  0  0  0  0  0
   55.3220   25.0510   45.7480 S   0  0  0  0  0  0  0  0  0  0  0  0
   56.1700   24.2400   44.4080 C   0  0  0  0  0  0  0  0  0  0  0  0
   53.8550   24.7410   45.6460 O   0  0  0  0  0  0  0  0  0  0  0  0
   55.8300   24.5510   47.0710 O   0  0  0  0  0  0  0  0  0  0  0  0
   57.8870   26.8680   46.4130 C   0  0  0  0  0  0  0  0  0  0  0  0
   59.0760   27.5730   46.5880 C   0  0  0  0  0  0  0  0  0  0  0  0
   59.1730   28.8960   46.1680 C   0  0  0  0  0  0  0  0  0  0  0  0
   58.0800   29.5380   45.5670 C   0  0  0  0  0  0  0  0  0  0  0  0
   58.2670   30.9280   45.0980 C   0  0  0  0  0  0  0  0  0  0  0  0
   57.7110   31.3660   43.8870 C   0  0  0  0  0  0  0  0  0  0  0  0
   57.9340   32.6770   43.4670 C   0  0  0  0  0  0  0  0  0  0  0  0
   58.7170   33.5340   44.2410 C   0  0  0  0  0  0  0  0  0  0  0  0
   59.2800   33.0640   45.4390 C   0  0  0  0  0  0  0  0  0  0  0  0
   60.1250   33.9380   46.2800 C   0  0  0  0  0  0  0  0  0  0  0  0
   59.9160   35.1830   46.2970 O   0  0  0  0  0  0  0  0  0  0  0  0
   61.1840   33.3800   47.0770 N   0  0  0  0  0  0  0  0  0  0  0  0
   62.0920   34.2050   47.8820 C   0  0  1  0  0  0  0  0  0  0  0  0
   61.6460   34.1830   49.3460 C   0  0  0  0  0  0  0  0  0  0  0  0
   63.5310   33.6870   47.7450 C   0  0  0  0  0  0  0  0  0  0  0  0
   63.5650   32.5270   46.9560 O   0  0  0  0  0  0  0  0  0  0  0  0
   59.0420   31.7800   45.8250 N   0  0  0  0  0  0  0  0  0  0  0  0
   54.9838   29.8817   45.6945 H   0  0  0  0  0  0  0  0  0  0  0  0
   55.9311   30.3823   44.2527 H   0  0  0  0  0  0  0  0  0  0  0  0
   55.0573   28.8129   44.2527 H   0  0  0  0  0  0  0  0  0  0  0  0
   56.9084   23.5338   44.8154 H   0  0  0  0  0  0  0  0  0  0  0  0
   55.4419   23.6936   43.7905 H   0  0  0  0  0  0  0  0  0  0  0  0
   56.6834   24.9918   43.7905 H   0  0  0  0  0  0  0  0  0  0  0  0
   57.8251   25.8168   46.7311 H   0  0  0  0  0  0  0  0  0  0  0  0
   59.9403   27.0824   47.0594 H   0  0  0  0  0  0  0  0  0  0  0  0
   60.1163   29.4441   46.3087 H   0  0  0  0  0  0  0  0  0  0  0  0
   57.1050   30.6821   43.2746 H   0  0  0  0  0  0  0  0  0  0  0  0
   57.4925   33.0354   42.5254 H   0  0  0  0  0  0  0  0  0  0  0  0
   58.8921   34.5700   43.9155 H   0  0  0  0  0  0  0  0  0  0  0  0
   61.4050   32.3620   46.9860 H   0  0  0  0  0  0  0  0  0  0  0  0
   62.0614   35.2433   47.5200 H   0  0  0  0  0  0  0  0  0  0  0  0
   62.5299   34.2266   49.9993 H   0  0  0  0  0  0  0  0  0  0  0  0
   60.9995   35.0503   49.5454 H   0  0  0  0  0  0  0  0  0  0  0  0
   61.0880   33.2562   49.5454 H   0  0  0  0  0  0  0  0  0  0  0  0
   64.1514   34.4634   47.2734 H   0  0  0  0  0  0  0  0  0  0  0  0
   63.9184   33.4466   48.7461 H   0  0  0  0  0  0  0  0  0  0  0  0
   64.5220   32.3390   46.7710 H   0  0  0  0  0  0  0  0  0  0  0  0
  1  2  1  0
  2  3  2  0
  3  4  1  0
  4  5  1  0
  5  6  1  0
  5  7  2  0
  5  8  2  0
  3  9  1  0
  9 10  2  0
 10 11  1  0
 11 12  2  0
 12 13  1  0
 13 14  2  0
 14 15  1  0
 15 16  2  0
 16 17  1  0
 17 18  1  0
 18 19  2  0
 18 20  1  0
 20 21  1  0
 21 22  1  0
 21 23  1  0
 23 24  1  0
 17 25  2  0
 12  2  1  0
 25 13  1  0
  1 26  1  0
  1 27  1  0
  1 28  1  0
  6 29  1  0
  6 30  1  0
  6 31  1  0
  9 32  1  0
 10 33  1  0
 11 34  1  0
 14 35  1  0
 15 36  1  0
 16 37  1  0
 20 38  1  0
 21 39  1  6
 22 40  1  0
 22 41  1  0
 22 42  1  0
 23 43  1  0
 23 44  1  0
 24 45  1  0
M  CHG  1   4  -1
M  END
>  <UniqueID>  (52) 
49

>  <SMILES>  (52) 
Cc1c([N-]S(C)(=O)=O)cccc1-c1cccc(C(=O)N[C@@H](C)CO)n1

>  <Energy>  (52) 
47.64258502035989

>  <Genealogy>  (52) 
Cc1c([N-]S(C)(=O)=O)cccc1-c1cccc(C(=O)NC(C)CO)n1 (protonated)
Cc1c([N-]S(C)(=O)=O)cccc1-c1cccc(C(=O)N[C@@H](C)CO)n1 (chirality)
Cc1c([N-]S(C)(=O)=O)cccc1-c1cccc(C(=O)N[C@@H](C)CO)n1 (3D coordinates assigned)
Cc1c([N-]S(C)(=O)=O)cccc1-c1cccc(C(=O)N[C@@H](C)CO)n1 (optimized conformer: 47.64258502035989 kcal/mol)

>  <smiles>  (52) 
Cc1c(NS(C)(=O)=O)cccc1-c1cccc(C(=O)NC(C)CO)n1

>  <score_type>  (52) 
oracle

>  <origin>  (52) 
adg

>  <m_score__min__energy>  (52) 
-10.41

>  <m_primary>  (52) 
energy

$$$$
52:0
     RDKit          3D

 65 69  0  0  0  0  0  0  0  0999 V2000
   58.8220   23.1260   44.8830 C   0  0  0  0  0  0  0  0  0  0  0  0
   57.5980   23.5070   45.2620 C   0  0  0  0  0  0  0  0  0  0  0  0
   56.5140   22.4640   46.0120 S   0  0  0  0  0  0  0  0  0  0  0  0
   55.3000   23.6150   46.1620 C   0  0  0  0  0  0  0  0  0  0  0  0
   54.1160   23.3690   46.7460 C   0  0  0  0  0  0  0  0  0  0  0  0
   52.8270   23.3180   46.0340 C   0  0  0  0  0  0  0  0  0  0  0  0
   52.6680   24.0550   44.8510 C   0  0  0  0  0  0  0  0  0  0  0  0
   51.4410   24.0540   44.1800 C   0  0  0  0  0  0  0  0  0  0  0  0
   50.3620   23.3300   44.6950 C   0  0  0  0  0  0  0  0  0  0  0  0
   50.5040   22.6150   45.8870 C   0  0  0  0  0  0  0  0  0  0  0  0
   51.7290   22.6140   46.5640 C   0  0  0  0  0  0  0  0  0  0  0  0
   51.8380   21.9460   47.7390 F   0  0  0  0  0  0  0  0  0  0  0  0
   55.7890   24.8160   45.6260 C   0  0  0  0  0  0  0  0  0  0  0  0
   55.1300   25.8910   45.6360 O   0  0  0  0  0  0  0  0  0  0  0  0
   57.0570   24.7530   45.1130 N   0  0  0  0  0  0  0  0  0  0  0  0
   57.7380   25.9330   44.5520 C   0  0  0  0  0  0  0  0  0  0  0  0
   58.0940   26.9000   45.6500 C   0  0  0  0  0  0  0  0  0  0  0  0
   57.7540   28.2580   45.5360 C   0  0  0  0  0  0  0  0  0  0  0  0
   58.1260   29.1650   46.5310 C   0  0  0  0  0  0  0  0  0  0  0  0
   58.8530   28.7320   47.6510 C   0  0  0  0  0  0  0  0  0  0  0  0
   59.2360   29.7020   48.6990 C   0  0  0  0  0  0  0  0  0  0  0  0
   58.4920   29.8030   49.7130 O   0  0  0  0  0  0  0  0  0  0  0  0
   60.4110   30.5380   48.5910 N   0  0  0  0  0  0  0  0  0  0  0  0
   61.0290   31.0410   49.8260 C   0  0  0  0  0  0  0  0  0  0  0  0
   61.9660   32.2280   49.5680 C   0  0  0  0  0  0  0  0  0  0  0  0
   61.6150   32.9750   48.3480 N   0  0  0  0  0  0  0  0  0  0  0  0
   60.5350   33.9810   48.4690 C   0  0  0  0  0  0  0  0  0  0  0  0
   59.5170   33.9410   47.3510 C   0  0  0  0  0  0  0  0  0  0  0  0
   59.7340   34.6750   46.1710 C   0  0  0  0  0  0  0  0  0  0  0  0
   58.8100   34.6200   45.1240 C   0  0  0  0  0  0  0  0  0  0  0  0
   57.6670   33.8240   45.2390 C   0  0  0  0  0  0  0  0  0  0  0  0
   57.4520   33.0750   46.3970 C   0  0  0  0  0  0  0  0  0  0  0  0
   58.3760   33.1230   47.4450 C   0  0  0  0  0  0  0  0  0  0  0  0
   61.6230   32.1670   47.1150 C   0  0  0  0  0  0  0  0  0  0  0  0
   61.0990   30.7290   47.3050 C   0  0  0  0  0  0  0  0  0  0  0  0
   59.1690   27.3710   47.7780 C   0  0  0  0  0  0  0  0  0  0  0  0
   58.8030   26.4630   46.7800 C   0  0  0  0  0  0  0  0  0  0  0  0
   59.4958   23.8459   44.3953 H   0  0  0  0  0  0  0  0  0  0  0  0
   59.1554   22.0926   45.0588 H   0  0  0  0  0  0  0  0  0  0  0  0
   54.1079   23.1933   47.8318 H   0  0  0  0  0  0  0  0  0  0  0  0
   53.5115   24.6358   44.4497 H   0  0  0  0  0  0  0  0  0  0  0  0
   51.3250   24.6235   43.2461 H   0  0  0  0  0  0  0  0  0  0  0  0
   49.4001   23.3231   44.1614 H   0  0  0  0  0  0  0  0  0  0  0  0
   49.6514   22.0518   46.2942 H   0  0  0  0  0  0  0  0  0  0  0  0
   58.6564   25.6123   44.0386 H   0  0  0  0  0  0  0  0  0  0  0  0
   57.0637   26.4314   43.8400 H   0  0  0  0  0  0  0  0  0  0  0  0
   57.1917   28.6092   44.6583 H   0  0  0  0  0  0  0  0  0  0  0  0
   57.8476   30.2250   46.4363 H   0  0  0  0  0  0  0  0  0  0  0  0
   60.2332   31.3619   50.5142 H   0  0  0  0  0  0  0  0  0  0  0  0
   61.6295   30.2264   50.2571 H   0  0  0  0  0  0  0  0  0  0  0  0
   61.9117   32.9124   50.4275 H   0  0  0  0  0  0  0  0  0  0  0  0
   62.9808   31.8263   49.4311 H   0  0  0  0  0  0  0  0  0  0  0  0
   60.0091   33.8088   49.4197 H   0  0  0  0  0  0  0  0  0  0  0  0
   61.0179   34.9681   48.4193 H   0  0  0  0  0  0  0  0  0  0  0  0
   60.6364   35.2961   46.0717 H   0  0  0  0  0  0  0  0  0  0  0  0
   58.9826   35.2041   44.2080 H   0  0  0  0  0  0  0  0  0  0  0  0
   56.9369   33.7878   44.4170 H   0  0  0  0  0  0  0  0  0  0  0  0
   56.5540   32.4459   46.4851 H   0  0  0  0  0  0  0  0  0  0  0  0
   58.2101   32.5177   48.3484 H   0  0  0  0  0  0  0  0  0  0  0  0
   60.9913   32.6696   46.3678 H   0  0  0  0  0  0  0  0  0  0  0  0
   62.6722   32.0841   46.7951 H   0  0  0  0  0  0  0  0  0  0  0  0
   60.3937   30.5017   46.4920 H   0  0  0  0  0  0  0  0  0  0  0  0
   61.9685   30.0553   47.2914 H   0  0  0  0  0  0  0  0  0  0  0  0
   59.7082   27.0160   48.6686 H   0  0  0  0  0  0  0  0  0  0  0  0
   59.0719   25.4011   46.8807 H   0  0  0  0  0  0  0  0  0  0  0  0
  1  2  2  0
  2  3  1  0
  3  4  1  0
  4  5  2  3
  5  6  1  0
  6  7  2  0
  7  8  1  0
  8  9  2  0
  9 10  1  0
 10 11  2  0
 11 12  1  0
  4 13  1  0
 13 14  2  0
 13 15  1  0
 15 16  1  0
 16 17  1  0
 17 18  2  0
 18 19  1  0
 19 20  2  0
 20 21  1  0
 21 22  2  0
 21 23  1  0
 23 24  1  0
 24 25  1  0
 25 26  1  0
 26 27  1  0
 27 28  1  0
 28 29  2  0
 29 30  1  0
 30 31  2  0
 31 32  1  0
 32 33  2  0
 26 34  1  0
 34 35  1  0
 20 36  1  0
 36 37  2  0
 15  2  1  0
 37 17  1  0
 11  6  1  0
 35 23  1  0
 33 28  1  0
  1 38  1  0
  1 39  1  0
  5 40  1  0
  7 41  1  0
  8 42  1  0
  9 43  1  0
 10 44  1  0
 16 45  1  0
 16 46  1  0
 18 47  1  0
 19 48  1  0
 24 49  1  0
 24 50  1  0
 25 51  1  0
 25 52  1  0
 27 53  1  0
 27 54  1  0
 29 55  1  0
 30 56  1  0
 31 57  1  0
 32 58  1  0
 33 59  1  0
 34 60  1  0
 34 61  1  0
 35 62  1  0
 35 63  1  0
 36 64  1  0
 37 65  1  0
M  END
>  <UniqueID>  (53) 
50

>  <SMILES>  (53) 
C=c1sc(=Cc2ccccc2F)c(=O)n1Cc1ccc(C(=O)N2CCN(Cc3ccccc3)CC2)cc1

>  <Energy>  (53) 
128.1411926118015

>  <Genealogy>  (53) 
C=c1sc(=Cc2ccccc2F)c(=O)n1Cc1ccc(C(=O)N2CCN(Cc3ccccc3)CC2)cc1 (3D coordinates assigned)
C=c1sc(=Cc2ccccc2F)c(=O)n1Cc1ccc(C(=O)N2CCN(Cc3ccccc3)CC2)cc1 (nonaromatic ring conformer: 128.1411926118015 kcal/mol)

>  <smiles>  (53) 
C=c1sc(=Cc2ccccc2F)c(=O)n1Cc1ccc(C(=O)N2CCN(Cc3ccccc3)CC2)cc1

>  <score_type>  (53) 
oracle

>  <origin>  (53) 
adg

>  <m_score__min__energy>  (53) 
-10.51

>  <m_primary>  (53) 
energy

$$$$
53:0
     RDKit          3D

 73 76  0  0  1  0  0  0  0  0999 V2000
   61.2240   33.7000   46.5470 C   0  0  0  0  0  0  0  0  0  0  0  0
   60.1020   34.5060   46.9720 N   0  0  0  0  0  0  0  0  0  0  0  0
   59.7520   35.5210   46.0130 C   0  0  0  0  0  0  0  0  0  0  0  0
   58.8830   34.9880   44.8980 C   0  0  0  0  0  0  0  0  0  0  0  0
   58.3870   33.6600   45.1890 N   0  0  0  0  0  0  0  0  0  0  0  0
   57.5250   33.1490   44.1770 C   0  0  0  0  0  0  0  0  0  0  0  0
   58.2280   32.5740   42.9710 C   0  0  0  0  0  0  0  0  0  0  0  0
   57.2430   31.7720   42.1050 C   0  0  0  0  0  0  0  0  0  0  0  0
   57.3550   30.4020   42.5020 N   0  0  0  0  0  0  0  0  0  0  0  0
   56.0940   29.9260   42.9950 C   0  0  0  0  0  0  0  0  0  0  0  0
   56.0180   29.9170   44.4750 C   0  0  0  0  0  0  0  0  0  0  0  0
   55.1600   29.3310   45.1500 O   0  0  0  0  0  0  0  0  0  0  0  0
   57.0210   30.6510   45.1950 N   0  0  0  0  0  0  0  0  0  0  0  0
   57.9910   30.0650   45.8110 C   0  0  0  0  0  0  0  0  0  0  0  0
   57.8170   28.7170   46.0890 C   0  0  0  0  0  0  0  0  0  0  0  0
   58.8820   28.0980   46.7540 C   0  0  0  0  0  0  0  0  0  0  0  0
   58.7330   26.6720   47.0730 C   0  0  0  0  0  0  0  0  0  0  0  0
   57.8610   25.9150   46.1650 C   0  0  0  0  0  0  0  0  0  0  0  0
   58.1790   25.6040   44.8600 C   0  0  0  0  0  0  0  0  0  0  0  0
   57.2780   24.8710   44.0790 C   0  0  0  0  0  0  0  0  0  0  0  0
   56.0620   24.4660   44.6400 C   0  0  0  0  0  0  0  0  0  0  0  0
   55.7300   24.7700   45.9420 C   0  0  0  0  0  0  0  0  0  0  0  0
   56.6330   25.4910   46.6900 C   0  0  0  0  0  0  0  0  0  0  0  0
   59.9680   28.8190   47.0700 N   0  0  0  0  0  0  0  0  0  0  0  0
   60.1210   30.1180   46.7970 C   0  0  0  0  0  0  0  0  0  0  0  0
   61.1380   30.8280   47.0820 N   0  0  0  0  0  0  0  0  0  0  0  0
   61.7330   30.8020   48.3770 C   0  0  0  0  0  0  0  0  0  0  0  0
   60.9500   31.7090   49.2920 C   0  0  0  0  0  0  0  0  0  0  0  0
   61.4130   32.9440   49.6760 C   0  0  0  0  0  0  0  0  0  0  0  0
   60.6600   33.7500   50.5180 C   0  0  0  0  0  0  0  0  0  0  0  0
   59.4330   33.3490   50.9990 C   0  0  0  0  0  0  0  0  0  0  0  0
   58.9600   32.1200   50.6220 C   0  0  0  0  0  0  0  0  0  0  0  0
   57.3940   31.6280   51.2460 Cl  0  0  0  0  0  0  0  0  0  0  0  0
   59.7110   31.3190   49.7840 C   0  0  0  0  0  0  0  0  0  0  0  0
   59.0970   30.7490   46.1480 N   0  0  0  0  0  0  0  0  0  0  0  0
   57.8290   33.6830   46.5200 C   0  0  0  0  0  0  0  0  0  0  0  0
   59.0050   33.7410   47.4770 C   0  0  0  0  0  0  0  0  0  0  0  0
   61.7563   33.3176   47.4304 H   0  0  0  0  0  0  0  0  0  0  0  0
   60.8608   32.8550   45.9436 H   0  0  0  0  0  0  0  0  0  0  0  0
   61.9088   34.3139   45.9436 H   0  0  0  0  0  0  0  0  0  0  0  0
   59.2075   36.3237   46.5317 H   0  0  0  0  0  0  0  0  0  0  0  0
   60.6847   35.8910   45.5623 H   0  0  0  0  0  0  0  0  0  0  0  0
   58.0271   35.6650   44.7594 H   0  0  0  0  0  0  0  0  0  0  0  0
   59.4951   34.9313   43.9858 H   0  0  0  0  0  0  0  0  0  0  0  0
   56.9080   32.3551   44.6231 H   0  0  0  0  0  0  0  0  0  0  0  0
   56.9382   34.0048   43.8119 H   0  0  0  0  0  0  0  0  0  0  0  0
   58.6505   33.3948   42.3728 H   0  0  0  0  0  0  0  0  0  0  0  0
   59.0293   31.9024   43.3130 H   0  0  0  0  0  0  0  0  0  0  0  0
   56.2163   32.1304   42.2706 H   0  0  0  0  0  0  0  0  0  0  0  0
   57.4741   31.8907   41.0361 H   0  0  0  0  0  0  0  0  0  0  0  0
   58.0730   30.2680   43.2300 H   0  0  0  0  0  0  0  0  0  0  0  0
   55.2972   30.5775   42.6069 H   0  0  0  0  0  0  0  0  0  0  0  0
   55.9774   28.8871   42.6528 H   0  0  0  0  0  0  0  0  0  0  0  0
   56.9044   28.1718   45.8062 H   0  0  0  0  0  0  0  0  0  0  0  0
   59.7317   26.2117   47.0479 H   0  0  0  0  0  0  0  0  0  0  0  0
   58.2537   26.6293   48.0622 H   0  0  0  0  0  0  0  0  0  0  0  0
   59.1387   25.9312   44.4335 H   0  0  0  0  0  0  0  0  0  0  0  0
   57.5229   24.6166   43.0372 H   0  0  0  0  0  0  0  0  0  0  0  0
   55.3534   23.8905   44.0262 H   0  0  0  0  0  0  0  0  0  0  0  0
   54.7707   24.4458   46.3716 H   0  0  0  0  0  0  0  0  0  0  0  0
   56.3830   25.7419   47.7314 H   0  0  0  0  0  0  0  0  0  0  0  0
   60.7330   28.3200   47.5640 H   0  0  0  0  0  0  0  0  0  0  0  0
   61.7152   29.7752   48.7711 H   0  0  0  0  0  0  0  0  0  0  0  0
   62.7762   31.1453   48.3150 H   0  0  0  0  0  0  0  0  0  0  0  0
   62.3894   33.2972   49.3128 H   0  0  0  0  0  0  0  0  0  0  0  0
   61.0533   34.7352   50.8091 H   0  0  0  0  0  0  0  0  0  0  0  0
   58.8488   33.9982   51.6678 H   0  0  0  0  0  0  0  0  0  0  0  0
   59.3128   30.3351   49.4954 H   0  0  0  0  0  0  0  0  0  0  0  0
   59.1830   31.7620   45.9210 H   0  0  0  0  0  0  0  0  0  0  0  0
   57.1895   34.5687   46.6491 H   0  0  0  0  0  0  0  0  0  0  0  0
   57.2066   32.7955   46.7067 H   0  0  0  0  0  0  0  0  0  0  0  0
   58.6667   34.1947   48.4202 H   0  0  0  0  0  0  0  0  0  0  0  0
   59.3623   32.7106   47.6203 H   0  0  0  0  0  0  0  0  0  0  0  0
  1  2  1  0
  2  3  1  0
  3  4  1  0
  4  5  1  0
  5  6  1  0
  6  7  1  0
  7  8  1  0
  8  9  1  0
  9 10  1  0
 10 11  1  0
 11 12  2  0
 11 13  1  0
 13 14  2  0
 14 15  1  0
 15 16  2  0
 16 17  1  0
 17 18  1  0
 18 19  2  0
 19 20  1  0
 20 21  2  0
 21 22  1  0
 22 23  2  0
 16 24  1  0
 24 25  1  0
 25 26  2  0
 26 27  1  0
 27 28  1  0
 28 29  2  0
 29 30  1  0
 30 31  2  0
 31 32  1  0
 32 33  1  0
 32 34  2  0
 25 35  1  0
  5 36  1  0
 36 37  1  0
 37  2  1  0
 35 14  1  0
 23 18  1  0
 34 28  1  0
  1 38  1  0
  1 39  1  0
  1 40  1  0
  3 41  1  0
  3 42  1  0
  4 43  1  0
  4 44  1  0
  6 45  1  0
  6 46  1  0
  7 47  1  0
  7 48  1  0
  8 49  1  0
  8 50  1  0
  9 51  1  0
 10 52  1  0
 10 53  1  0
 15 54  1  0
 17 55  1  0
 17 56  1  0
 19 57  1  0
 20 58  1  0
 21 59  1  0
 22 60  1  0
 23 61  1  0
 24 62  1  0
 27 63  1  0
 27 64  1  0
 29 65  1  0
 30 66  1  0
 31 67  1  0
 34 68  1  0
 35 69  1  0
 36 70  1  0
 36 71  1  0
 37 72  1  0
 37 73  1  0
M  END
>  <smiles>  (54) 
CN1CCN(CCCNCC(=O)N=c2cc(Cc3ccccc3)[nH]c(=NCc3cccc(Cl)c3)[nH]2)CC1

>  <score_type>  (54) 
oracle

>  <origin>  (54) 
adg

>  <m_score__min__energy>  (54) 
-9.3100000000000005

>  <m_primary>  (54) 
energy

$$$$
54:0
     RDKit          3D

 73 77  0  0  0  0  0  0  0  0999 V2000
   60.1210   27.4410   45.6900 C   0  0  0  0  0  0  0  0  0  0  0  0
   59.1350   28.4800   45.2470 C   0  0  0  0  0  0  0  0  0  0  0  0
   59.4900   29.7410   44.8310 C   0  0  0  0  0  0  0  0  0  0  0  0
   58.3250   30.4090   44.5080 C   0  0  0  0  0  0  0  0  0  0  0  0
   58.3320   31.8200   44.0210 C   0  0  0  0  0  0  0  0  0  0  0  0
   58.3430   31.9990   42.7700 O   0  0  0  0  0  0  0  0  0  0  0  0
   58.3420   32.9750   44.8980 N   0  0  1  0  0  0  0  0  0  0  0  0
   57.2350   32.9220   45.9150 C   0  0  0  0  0  0  0  0  0  0  0  0
   57.7900   33.1690   47.3430 C   0  0  2  0  0  0  0  0  0  0  0  0
   58.5150   34.5410   47.3210 C   0  0  0  0  0  0  0  0  0  0  0  0
   59.6810   34.5060   46.2840 C   0  0  0  0  0  0  0  0  0  0  0  0
   59.6760   33.1320   45.5580 C   0  0  1  0  0  0  0  0  0  0  0  0
   59.8380   32.0810   46.6550 C   0  0  0  0  0  0  0  0  0  0  0  0
   61.1370   31.3130   46.7900 C   0  0  0  0  0  0  0  0  0  0  0  0
   62.2740   32.1700   46.9050 O   0  0  0  0  0  0  0  0  0  0  0  0
   62.7930   32.6970   48.0960 C   0  0  0  0  0  0  0  0  0  0  0  0
   63.7740   32.0350   48.8600 C   0  0  0  0  0  0  0  0  0  0  0  0
   64.2250   32.5920   50.0600 C   0  0  0  0  0  0  0  0  0  0  0  0
   63.7220   33.8240   50.4950 C   0  0  0  0  0  0  0  0  0  0  0  0
   64.1580   34.3650   51.6600 F   0  0  0  0  0  0  0  0  0  0  0  0
   62.7780   34.5060   49.7210 C   0  0  0  0  0  0  0  0  0  0  0  0
   62.3180   33.9460   48.5250 C   0  0  0  0  0  0  0  0  0  0  0  0
   58.8560   32.1160   47.5880 C   0  0  0  0  0  0  0  0  0  0  0  0
   58.9030   31.3860   48.8690 C   0  0  0  0  0  0  0  0  0  0  0  0
   58.5320   30.1800   48.8940 O   0  0  0  0  0  0  0  0  0  0  0  0
   59.3860   32.0170   50.0720 N   0  0  0  0  0  0  0  0  0  0  0  0
   59.5700   33.4690   50.1270 C   0  0  0  0  0  0  0  0  0  0  0  0
   59.6120   31.2030   51.2690 C   0  0  0  0  0  0  0  0  0  0  0  0
   57.2810   29.4930   44.7270 C   0  0  0  0  0  0  0  0  0  0  0  0
   55.8160   29.7560   44.4910 C   0  0  0  0  0  0  0  0  0  0  0  0
   57.7890   28.3200   45.2080 N   0  0  0  0  0  0  0  0  0  0  0  0
   57.0860   27.0630   45.5620 C   0  0  0  0  0  0  0  0  0  0  0  0
   57.3670   26.6220   46.9960 C   0  0  0  0  0  0  0  0  0  0  0  0
   57.3610   25.1020   46.9590 C   0  0  0  0  0  0  0  0  0  0  0  0
   57.7850   24.7100   45.5490 C   0  0  0  0  0  0  0  0  0  0  0  0
   57.4220   25.8820   44.6410 C   0  0  0  0  0  0  0  0  0  0  0  0
   60.1512   27.4092   46.7891 H   0  0  0  0  0  0  0  0  0  0  0  0
   59.8161   26.4575   45.3029 H   0  0  0  0  0  0  0  0  0  0  0  0
   61.1191   27.6940   45.3029 H   0  0  0  0  0  0  0  0  0  0  0  0
   60.5118   30.1433   44.7672 H   0  0  0  0  0  0  0  0  0  0  0  0
   58.1540   33.8220   44.3210 H   0  0  0  0  0  0  0  0  0  0  0  0
   56.4898   33.6958   45.6783 H   0  0  0  0  0  0  0  0  0  0  0  0
   56.7726   31.9244   45.8829 H   0  0  0  0  0  0  0  0  0  0  0  0
   56.9938   33.1382   48.1013 H   0  0  0  0  0  0  0  0  0  0  0  0
   57.7995   35.3277   47.0396 H   0  0  0  0  0  0  0  0  0  0  0  0
   58.9237   34.7520   48.3202 H   0  0  0  0  0  0  0  0  0  0  0  0
   59.5435   35.3118   45.5480 H   0  0  0  0  0  0  0  0  0  0  0  0
   60.6412   34.6477   46.8017 H   0  0  0  0  0  0  0  0  0  0  0  0
   60.4701   33.0393   44.8024 H   0  0  0  0  0  0  0  0  0  0  0  0
   61.0804   30.6808   47.6884 H   0  0  0  0  0  0  0  0  0  0  0  0
   61.2644   30.7121   45.8775 H   0  0  0  0  0  0  0  0  0  0  0  0
   64.1864   31.0768   48.5111 H   0  0  0  0  0  0  0  0  0  0  0  0
   64.9763   32.0616   50.6635 H   0  0  0  0  0  0  0  0  0  0  0  0
   62.3972   35.4831   50.0529 H   0  0  0  0  0  0  0  0  0  0  0  0
   61.5791   34.4880   47.9165 H   0  0  0  0  0  0  0  0  0  0  0  0
   59.6112   33.7939   51.1771 H   0  0  0  0  0  0  0  0  0  0  0  0
   60.5095   33.7389   49.6226 H   0  0  0  0  0  0  0  0  0  0  0  0
   58.7275   33.9647   49.6226 H   0  0  0  0  0  0  0  0  0  0  0  0
   59.4419   31.8157   52.1666 H   0  0  0  0  0  0  0  0  0  0  0  0
   58.9165   30.3508   51.2696 H   0  0  0  0  0  0  0  0  0  0  0  0
   60.6473   30.8313   51.2696 H   0  0  0  0  0  0  0  0  0  0  0  0
   55.2997   29.8487   45.4579 H   0  0  0  0  0  0  0  0  0  0  0  0
   55.6982   30.6897   43.9214 H   0  0  0  0  0  0  0  0  0  0  0  0
   55.3808   28.9216   43.9214 H   0  0  0  0  0  0  0  0  0  0  0  0
   56.0231   27.3185   45.4399 H   0  0  0  0  0  0  0  0  0  0  0  0
   58.3469   26.9951   47.3284 H   0  0  0  0  0  0  0  0  0  0  0  0
   56.6195   27.0172   47.6996 H   0  0  0  0  0  0  0  0  0  0  0  0
   58.0711   24.6997   47.6965 H   0  0  0  0  0  0  0  0  0  0  0  0
   56.3678   24.6987   47.2059 H   0  0  0  0  0  0  0  0  0  0  0  0
   58.8691   24.5264   45.5162 H   0  0  0  0  0  0  0  0  0  0  0  0
   57.2804   23.7875   45.2258 H   0  0  0  0  0  0  0  0  0  0  0  0
   58.2728   26.1370   43.9920 H   0  0  0  0  0  0  0  0  0  0  0  0
   56.5707   25.6313   43.9911 H   0  0  0  0  0  0  0  0  0  0  0  0
  1  2  1  0
  2  3  2  0
  3  4  1  0
  4  5  1  0
  5  6  2  0
  5  7  1  0
  7  8  1  0
  8  9  1  0
  9 10  1  0
 10 11  1  0
 11 12  1  0
 12 13  1  0
 13 14  1  0
 14 15  1  0
 15 16  1  0
 16 17  2  0
 17 18  1  0
 18 19  2  0
 19 20  1  0
 19 21  1  0
 21 22  2  0
 13 23  2  0
 23 24  1  0
 24 25  2  0
 24 26  1  0
 26 27  1  0
 26 28  1  0
  4 29  2  0
 29 30  1  0
 29 31  1  0
 31 32  1  0
 32 33  1  0
 33 34  1  0
 34 35  1  0
 35 36  1  0
 31  2  1  0
 36 32  1  0
 12  7  1  0
 22 16  1  0
 23  9  1  0
  1 37  1  0
  1 38  1  0
  1 39  1  0
  3 40  1  0
  7 41  1  6
  8 42  1  0
  8 43  1  0
  9 44  1  1
 10 45  1  0
 10 46  1  0
 11 47  1  0
 11 48  1  0
 12 49  1  6
 14 50  1  0
 14 51  1  0
 17 52  1  0
 18 53  1  0
 21 54  1  0
 22 55  1  0
 27 56  1  0
 27 57  1  0
 27 58  1  0
 28 59  1  0
 28 60  1  0
 28 61  1  0
 30 62  1  0
 30 63  1  0
 30 64  1  0
 32 65  1  0
 33 66  1  0
 33 67  1  0
 34 68  1  0
 34 69  1  0
 35 70  1  0
 35 71  1  0
 36 72  1  0
 36 73  1  0
M  CHG  1   7   1
M  END
>  <UniqueID>  (55) 
51

>  <SMILES>  (55) 
Cc1cc(C(=O)[N@H+]2C[C@@H]3CCC2C(COc2ccc(F)cc2)=C3C(=O)N(C)C)c(C)n1C1CCCC1

>  <Energy>  (55) 
137.04373696619678

>  <Genealogy>  (55) 
Cc1cc(C(=O)[NH+]2CC3CCC2C(COc2ccc(F)cc2)=C3C(=O)N(C)C)c(C)n1C1CCCC1 (protonated)
Cc1cc(C(=O)[N@H+]2C[C@@H]3CCC2C(COc2ccc(F)cc2)=C3C(=O)N(C)C)c(C)n1C1CCCC1 (chirality)
Cc1cc(C(=O)[N@H+]2C[C@@H]3CCC2C(COc2ccc(F)cc2)=C3C(=O)N(C)C)c(C)n1C1CCCC1 (3D coordinates assigned)
Cc1cc(C(=O)[N@H+]2C[C@@H]3CCC2C(COc2ccc(F)cc2)=C3C(=O)N(C)C)c(C)n1C1CCCC1 (nonaromatic ring conformer: 137.04373696619678 kcal/mol)

>  <smiles>  (55) 
Cc1cc(C(=O)N2CC3CCC2C(COc2ccc(F)cc2)=C3C(=O)N(C)C)c(C)n1C1CCCC1

>  <score_type>  (55) 
oracle

>  <origin>  (55) 
adg

>  <m_score__min__energy>  (55) 
-8.2599999999999998

>  <m_primary>  (55) 
energy

$$$$
55:0
     RDKit          3D

 50 52  0  0  0  0  0  0  0  0999 V2000
   57.2650   31.5570   42.2080 C   0  0  0  0  0  0  0  0  0  0  0  0
   57.1140   30.5130   43.0210 C   0  0  0  0  0  0  0  0  0  0  0  0
   56.3500   30.5900   44.2770 C   0  0  0  0  0  0  0  0  0  0  0  0
   55.4400   29.7520   44.5290 O   0  0  0  0  0  0  0  0  0  0  0  0
   56.6460   31.6110   45.1850 O   0  0  0  0  0  0  0  0  0  0  0  0
   57.9410   32.1900   45.3080 C   0  0  0  0  0  0  0  0  0  0  0  0
   58.5770   31.7050   46.5310 N   0  0  0  0  0  0  0  0  0  0  0  0
   59.8020   31.8540   46.9610 C   0  0  0  0  0  0  0  0  0  0  0  0
   60.5200   32.8810   46.4260 N   0  0  0  0  0  0  0  0  0  0  0  0
   61.7990   33.1560   46.7870 C   0  0  0  0  0  0  0  0  0  0  0  0
   62.4350   32.3750   47.7460 C   0  0  0  0  0  0  0  0  0  0  0  0
   61.7470   31.3110   48.3210 C   0  0  0  0  0  0  0  0  0  0  0  0
   60.4260   31.0270   47.9440 C   0  0  0  0  0  0  0  0  0  0  0  0
   59.7890   29.8750   48.5940 C   0  0  0  0  0  0  0  0  0  0  0  0
   59.1750   30.0380   49.6820 O   0  0  0  0  0  0  0  0  0  0  0  0
   59.8780   28.5840   47.9790 N   0  0  0  0  0  0  0  0  0  0  0  0
   59.2150   28.1650   46.7780 C   0  0  0  0  0  0  0  0  0  0  0  0
   59.7560   28.5480   45.5450 C   0  0  0  0  0  0  0  0  0  0  0  0
   59.1440   28.1540   44.3530 C   0  0  0  0  0  0  0  0  0  0  0  0
   57.9990   27.3550   44.3820 C   0  0  0  0  0  0  0  0  0  0  0  0
   57.4670   26.9230   45.6080 C   0  0  0  0  0  0  0  0  0  0  0  0
   56.2590   26.0670   45.6320 C   0  0  0  0  0  0  0  0  0  0  0  0
   55.1730   26.5580   46.0430 O   0  0  0  0  0  0  0  0  0  0  0  0
   56.2940   24.6960   45.1920 N   0  0  0  0  0  0  0  0  0  0  0  0
   55.5160   23.6690   45.8910 C   0  0  0  0  0  0  0  0  0  0  0  0
   54.8950   22.7120   44.8680 C   0  0  0  0  0  0  0  0  0  0  0  0
   55.8810   22.2080   43.9860 O   0  0  0  0  0  0  0  0  0  0  0  0
   56.4180   23.2640   43.2100 C   0  0  0  0  0  0  0  0  0  0  0  0
   57.1680   24.2630   44.0970 C   0  0  0  0  0  0  0  0  0  0  0  0
   58.0750   27.3410   46.8050 C   0  0  0  0  0  0  0  0  0  0  0  0
   57.8451   31.4516   41.2794 H   0  0  0  0  0  0  0  0  0  0  0  0
   56.8096   32.5247   42.4651 H   0  0  0  0  0  0  0  0  0  0  0  0
   57.5785   29.5554   42.7430 H   0  0  0  0  0  0  0  0  0  0  0  0
   58.5533   31.9069   44.4391 H   0  0  0  0  0  0  0  0  0  0  0  0
   57.8504   33.2854   45.3513 H   0  0  0  0  0  0  0  0  0  0  0  0
   62.3330   33.9971   46.3208 H   0  0  0  0  0  0  0  0  0  0  0  0
   63.4699   32.5958   48.0464 H   0  0  0  0  0  0  0  0  0  0  0  0
   62.2436   30.6867   49.0783 H   0  0  0  0  0  0  0  0  0  0  0  0
   60.6679   29.1625   45.5148 H   0  0  0  0  0  0  0  0  0  0  0  0
   59.5651   28.4740   43.3885 H   0  0  0  0  0  0  0  0  0  0  0  0
   57.5115   27.0626   43.4403 H   0  0  0  0  0  0  0  0  0  0  0  0
   56.1765   23.1053   46.5662 H   0  0  0  0  0  0  0  0  0  0  0  0
   54.7171   24.1493   46.4750 H   0  0  0  0  0  0  0  0  0  0  0  0
   54.4240   21.8722   45.3998 H   0  0  0  0  0  0  0  0  0  0  0  0
   54.1456   23.2627   44.2805 H   0  0  0  0  0  0  0  0  0  0  0  0
   57.1142   22.8478   42.4670 H   0  0  0  0  0  0  0  0  0  0  0  0
   55.5917   23.7887   42.7081 H   0  0  0  0  0  0  0  0  0  0  0  0
   58.0659   23.7823   44.5126 H   0  0  0  0  0  0  0  0  0  0  0  0
   57.4642   25.1360   43.4969 H   0  0  0  0  0  0  0  0  0  0  0  0
   57.6559   27.0211   47.7704 H   0  0  0  0  0  0  0  0  0  0  0  0
  1  2  2  0
  2  3  1  0
  3  4  2  0
  3  5  1  0
  5  6  1  0
  6  7  1  0
  7  8  2  3
  8  9  1  0
  9 10  1  0
 10 11  2  0
 11 12  1  0
 12 13  2  0
 13 14  1  0
 14 15  2  0
 14 16  1  0
 16 17  1  0
 17 18  2  0
 18 19  1  0
 19 20  2  0
 20 21  1  0
 21 22  1  0
 22 23  2  0
 22 24  1  0
 24 25  1  0
 25 26  1  0
 26 27  1  0
 27 28  1  0
 28 29  1  0
 21 30  2  0
 13  8  1  0
 30 17  1  0
 29 24  1  0
  1 31  1  0
  1 32  1  0
  2 33  1  0
  6 34  1  0
  6 35  1  0
 10 36  1  0
 11 37  1  0
 12 38  1  0
 18 39  1  0
 19 40  1  0
 20 41  1  0
 25 42  1  0
 25 43  1  0
 26 44  1  0
 26 45  1  0
 28 46  1  0
 28 47  1  0
 29 48  1  0
 29 49  1  0
 30 50  1  0
M  CHG  2   9  -1  16  -1
M  END
>  <UniqueID>  (56) 
52

>  <SMILES>  (56) 
C=CC(=O)OCN=c1[n-]cccc1C(=O)[N-]c1cccc(C(=O)N2CCOCC2)c1

>  <Energy>  (56) 
73.48958726577816

>  <Genealogy>  (56) 
C=CC(=O)OCN=c1[n-]cccc1C(=O)[N-]c1cccc(C(=O)N2CCOCC2)c1 (protonated)
C=CC(=O)OCN=c1[n-]cccc1C(=O)[N-]c1cccc(C(=O)N2CCOCC2)c1 (3D coordinates assigned)
C=CC(=O)OCN=c1[n-]cccc1C(=O)[N-]c1cccc(C(=O)N2CCOCC2)c1 (nonaromatic ring conformer: 73.48958726577816 kcal/mol)

>  <smiles>  (56) 
C=CC(=O)OCN=c1[nH]cccc1C(=O)Nc1cccc(C(=O)N2CCOCC2)c1

>  <score_type>  (56) 
oracle

>  <origin>  (56) 
adg

>  <m_score__min__energy>  (56) 
-12.279999999999999

>  <m_primary>  (56) 
energy

$$$$
56:0
     RDKit          3D

 47 49  0  0  0  0  0  0  0  0999 V2000
   55.4080   29.2340   44.8280 N   0  0  0  0  0  0  0  0  0  0  0  0
   57.1320   29.3540   44.8350 S   0  0  0  0  0  0  0  0  0  0  0  0
   57.6850   28.6590   43.6220 O   0  0  0  0  0  0  0  0  0  0  0  0
   57.6790   28.6850   46.0650 O   0  0  0  0  0  0  0  0  0  0  0  0
   57.6040   31.0490   44.8220 C   0  0  0  0  0  0  0  0  0  0  0  0
   57.7040   31.7490   43.6110 C   0  0  0  0  0  0  0  0  0  0  0  0
   58.0740   33.0960   43.6080 C   0  0  0  0  0  0  0  0  0  0  0  0
   58.3410   33.7540   44.8110 C   0  0  0  0  0  0  0  0  0  0  0  0
   58.2340   33.0680   46.0300 C   0  0  0  0  0  0  0  0  0  0  0  0
   58.5410   33.7770   47.3240 C   0  0  0  0  0  0  0  0  0  0  0  0
   59.9700   33.6420   47.6910 N   0  0  0  0  0  0  0  0  0  0  0  0
   60.3020   34.4240   48.9100 C   0  0  0  0  0  0  0  0  0  0  0  0
   60.3930   33.5800   50.2000 C   0  0  0  0  0  0  0  0  0  0  0  0
   59.5580   32.3750   50.1060 N   0  0  0  0  0  0  0  0  0  0  0  0
   58.6370   32.0210   51.1600 C   0  0  0  0  0  0  0  0  0  0  0  0
   58.3730   32.8540   52.0700 O   0  0  0  0  0  0  0  0  0  0  0  0
   58.0360   30.7140   51.1990 N   0  0  0  0  0  0  0  0  0  0  0  0
   56.8240   30.4150   51.9110 C   0  0  0  0  0  0  0  0  0  0  0  0
   55.6300   31.1150   51.6570 C   0  0  0  0  0  0  0  0  0  0  0  0
   54.4580   30.7860   52.3460 C   0  0  0  0  0  0  0  0  0  0  0  0
   54.4640   29.7510   53.2840 C   0  0  0  0  0  0  0  0  0  0  0  0
   55.6390   29.0370   53.5290 C   0  0  0  0  0  0  0  0  0  0  0  0
   55.6420   28.0260   54.4330 F   0  0  0  0  0  0  0  0  0  0  0  0
   56.8130   29.3620   52.8410 C   0  0  0  0  0  0  0  0  0  0  0  0
   59.7290   31.4950   48.9430 C   0  0  0  0  0  0  0  0  0  0  0  0
   60.4240   32.2360   47.7910 C   0  0  0  0  0  0  0  0  0  0  0  0
   57.8620   31.7130   46.0290 C   0  0  0  0  0  0  0  0  0  0  0  0
   55.1430   28.6100   45.6220 H   0  0  0  0  0  0  0  0  0  0  0  0
   57.4906   31.2363   42.6615 H   0  0  0  0  0  0  0  0  0  0  0  0
   58.1554   33.6402   42.6555 H   0  0  0  0  0  0  0  0  0  0  0  0
   58.6361   34.8136   44.8024 H   0  0  0  0  0  0  0  0  0  0  0  0
   58.2998   34.8444   47.2127 H   0  0  0  0  0  0  0  0  0  0  0  0
   57.9353   33.3198   48.1203 H   0  0  0  0  0  0  0  0  0  0  0  0
   61.2731   34.9154   48.7504 H   0  0  0  0  0  0  0  0  0  0  0  0
   59.4804   35.1401   49.0589 H   0  0  0  0  0  0  0  0  0  0  0  0
   61.4392   33.2801   50.3596 H   0  0  0  0  0  0  0  0  0  0  0  0
   60.0318   34.1895   51.0414 H   0  0  0  0  0  0  0  0  0  0  0  0
   58.5530   29.9190   50.7620 H   0  0  0  0  0  0  0  0  0  0  0  0
   55.6183   31.9250   50.9129 H   0  0  0  0  0  0  0  0  0  0  0  0
   53.5302   31.3432   52.1489 H   0  0  0  0  0  0  0  0  0  0  0  0
   53.5430   29.4982   53.8298 H   0  0  0  0  0  0  0  0  0  0  0  0
   57.7332   28.7895   53.0294 H   0  0  0  0  0  0  0  0  0  0  0  0
   60.3405   30.6283   49.2343 H   0  0  0  0  0  0  0  0  0  0  0  0
   58.7359   31.1679   48.6014 H   0  0  0  0  0  0  0  0  0  0  0  0
   61.5104   32.2236   47.9632 H   0  0  0  0  0  0  0  0  0  0  0  0
   60.1679   31.7254   46.8510 H   0  0  0  0  0  0  0  0  0  0  0  0
   57.7727   31.1700   46.9815 H   0  0  0  0  0  0  0  0  0  0  0  0
  1  2  1  0
  2  3  2  0
  2  4  2  0
  2  5  1  0
  5  6  2  0
  6  7  1  0
  7  8  2  0
  8  9  1  0
  9 10  1  0
 10 11  1  0
 11 12  1  0
 12 13  1  0
 13 14  1  0
 14 15  1  0
 15 16  2  0
 15 17  1  0
 17 18  1  0
 18 19  2  0
 19 20  1  0
 20 21  2  0
 21 22  1  0
 22 23  1  0
 22 24  2  0
 14 25  1  0
 25 26  1  0
  9 27  2  0
 27  5  1  0
 26 11  1  0
 24 18  1  0
  1 28  1  0
  6 29  1  0
  7 30  1  0
  8 31  1  0
 10 32  1  0
 10 33  1  0
 12 34  1  0
 12 35  1  0
 13 36  1  0
 13 37  1  0
 17 38  1  0
 19 39  1  0
 20 40  1  0
 21 41  1  0
 24 42  1  0
 25 43  1  0
 25 44  1  0
 26 45  1  0
 26 46  1  0
 27 47  1  0
M  CHG  1   1  -1
M  END
>  <UniqueID>  (57) 
53

>  <SMILES>  (57) 
[NH-]S(=O)(=O)c1cccc(CN2CCN(C(=O)Nc3cccc(F)c3)CC2)c1

>  <Energy>  (57) 
60.564140645293215

>  <Genealogy>  (57) 
[NH-]S(=O)(=O)c1cccc(CN2CCN(C(=O)Nc3cccc(F)c3)CC2)c1 (protonated)
[NH-]S(=O)(=O)c1cccc(CN2CCN(C(=O)Nc3cccc(F)c3)CC2)c1 (3D coordinates assigned)
[NH-]S(=O)(=O)c1cccc(CN2CCN(C(=O)Nc3cccc(F)c3)CC2)c1 (nonaromatic ring conformer: 60.564140645293215 kcal/mol)

>  <smiles>  (57) 
NS(=O)(=O)c1cccc(CN2CCN(C(=O)Nc3cccc(F)c3)CC2)c1

>  <score_type>  (57) 
oracle

>  <origin>  (57) 
adg

>  <m_score__min__energy>  (57) 
-11.18

>  <m_primary>  (57) 
energy

$$$$
57:0
     RDKit          3D

 49 51  0  0  0  0  0  0  0  0999 V2000
   57.7092   29.8384   46.5983 H   0  0  0  0  0  0  0  0  0  0  0  0
   57.8160   30.7520   45.9950 C   0  0  0  0  0  0  0  0  0  0  0  0
   58.4310   31.8430   46.5210 N   0  0  0  0  0  0  0  0  0  0  0  0
   58.5930   32.9990   45.8210 C   0  0  0  0  0  0  0  0  0  0  0  0
   59.1920   33.9980   46.4070 N   0  0  0  0  0  0  0  0  0  0  0  0
   60.2550   33.9420   47.3690 C   0  0  0  0  0  0  0  0  0  0  0  0
   60.4890   34.9580   48.0740 O   0  0  0  0  0  0  0  0  0  0  0  0
   60.9440   32.7080   47.6280 N   0  0  0  0  0  0  0  0  0  0  0  0
   60.4610   31.8200   47.3600 H   0  0  0  0  0  0  0  0  0  0  0  0
   62.2000   32.6170   48.3210 C   0  0  0  0  0  0  0  0  0  0  0  0
   63.2900   33.4350   47.9760 C   0  0  0  0  0  0  0  0  0  0  0  0
   63.1837   34.1780   47.1719 H   0  0  0  0  0  0  0  0  0  0  0  0
   64.5070   33.3090   48.6490 C   0  0  0  0  0  0  0  0  0  0  0  0
   65.3511   33.9608   48.3792 H   0  0  0  0  0  0  0  0  0  0  0  0
   64.6590   32.3590   49.6640 C   0  0  0  0  0  0  0  0  0  0  0  0
   66.2080   32.2300   50.4870 Cl  0  0  0  0  0  0  0  0  0  0  0  0
   63.5830   31.5220   50.0010 C   0  0  0  0  0  0  0  0  0  0  0  0
   63.7340   30.3050   51.2610 Cl  0  0  0  0  0  0  0  0  0  0  0  0
   62.3640   31.6500   49.3250 C   0  0  0  0  0  0  0  0  0  0  0  0
   61.5260   30.9859   49.5833 H   0  0  0  0  0  0  0  0  0  0  0  0
   58.0750   33.0800   44.5120 C   0  0  0  0  0  0  0  0  0  0  0  0
   58.1701   34.0120   43.9355 H   0  0  0  0  0  0  0  0  0  0  0  0
   57.4410   31.9700   43.9530 C   0  0  0  0  0  0  0  0  0  0  0  0
   57.0369   32.0257   42.9314 H   0  0  0  0  0  0  0  0  0  0  0  0
   57.3180   30.7870   44.6880 C   0  0  0  0  0  0  0  0  0  0  0  0
   56.5490   29.3650   43.9800 S   0  0  0  0  0  0  0  0  0  0  0  0
   55.1350   29.2630   44.4810 O   0  0  0  0  0  0  0  0  0  0  0  0
   56.5030   29.5180   42.4850 O   0  0  0  0  0  0  0  0  0  0  0  0
   57.4160   27.9000   44.3850 N   0  0  0  0  0  0  0  0  0  0  0  0
   58.8610   28.0220   44.0830 C   0  0  0  0  0  0  0  0  0  0  0  0
   59.0106   28.8815   43.4130 H   0  0  0  0  0  0  0  0  0  0  0  0
   59.1859   27.0826   43.6118 H   0  0  0  0  0  0  0  0  0  0  0  0
   59.7070   28.2290   45.3470 C   0  0  0  0  0  0  0  0  0  0  0  0
   59.3845   29.1544   45.8466 H   0  0  0  0  0  0  0  0  0  0  0  0
   60.7642   28.2953   45.0505 H   0  0  0  0  0  0  0  0  0  0  0  0
   59.5550   27.0950   46.2870 N   0  0  0  0  0  0  0  0  0  0  0  0
   60.0230   27.4730   47.6380 C   0  0  0  0  0  0  0  0  0  0  0  0
   60.9991   27.0025   47.8274 H   0  0  0  0  0  0  0  0  0  0  0  0
   59.2853   27.1295   48.3781 H   0  0  0  0  0  0  0  0  0  0  0  0
   60.1660   28.9890   47.7520 C   0  0  0  0  0  0  0  0  0  0  0  0
   60.1931   29.2759   48.8136 H   0  0  0  0  0  0  0  0  0  0  0  0
   61.0981   29.3072   47.2623 H   0  0  0  0  0  0  0  0  0  0  0  0
   59.3098   29.4759   47.2623 H   0  0  0  0  0  0  0  0  0  0  0  0
   58.1820   26.5210   46.3050 C   0  0  0  0  0  0  0  0  0  0  0  0
   57.9261   26.2506   47.3401 H   0  0  0  0  0  0  0  0  0  0  0  0
   58.1785   25.6411   45.6449 H   0  0  0  0  0  0  0  0  0  0  0  0
   57.1280   27.5040   45.7780 C   0  0  0  0  0  0  0  0  0  0  0  0
   57.1257   28.4021   46.4131 H   0  0  0  0  0  0  0  0  0  0  0  0
   56.1463   27.0085   45.8032 H   0  0  0  0  0  0  0  0  0  0  0  0
  1  2  1  0
  2  3  1  0
  3  4  1  0
  4  5  2  0
  5  6  1  0
  6  7  2  0
  6  8  1  0
  8  9  1  0
  8 10  1  0
 10 11  2  0
 11 12  1  0
 11 13  1  0
 13 14  1  0
 13 15  2  0
 15 16  1  0
 15 17  1  0
 17 18  1  0
 17 19  2  0
 19 20  1  0
  4 21  1  0
 21 22  1  0
 21 23  2  0
 23 24  1  0
 23 25  1  0
 25 26  1  0
 26 27  2  0
 26 28  2  0
 26 29  1  0
 29 30  1  0
 30 31  1  0
 30 32  1  0
 30 33  1  0
 33 34  1  0
 33 35  1  0
 33 36  1  0
 36 37  1  0
 37 38  1  0
 37 39  1  0
 37 40  1  0
 40 41  1  0
 40 42  1  0
 40 43  1  0
 36 44  1  0
 44 45  1  0
 44 46  1  0
 44 47  1  0
 47 48  1  0
 47 49  1  0
 25  2  2  0
 47 29  1  0
 19 10  1  0
M  CHG  1   3  -1
M  END
>  <UniqueID>  (58) 
54

>  <SMILES>  (58) 
CCN1CCN(S(=O)(=O)c2cc/c(=N\C(=O)Nc3ccc(Cl)c(Cl)c3)[n-]c2)CC1

>  <Energy>  (58) 
71.08990035597883

>  <Genealogy>  (58) 
CCN1CCN(S(=O)(=O)c2ccc(=NC(=O)Nc3ccc(Cl)c(Cl)c3)[n-]c2)CC1 (protonated)
CCN1CCN(S(=O)(=O)c2cc/c(=N\C(=O)Nc3ccc(Cl)c(Cl)c3)[n-]c2)CC1 (cis-trans isomerization)
CCN1CCN(S(=O)(=O)c2cc/c(=N\C(=O)Nc3ccc(Cl)c(Cl)c3)[n-]c2)CC1 (3D coordinates assigned)
CCN1CCN(S(=O)(=O)c2cc/c(=N\C(=O)Nc3ccc(Cl)c(Cl)c3)[n-]c2)CC1 (nonaromatic ring conformer: 71.08990035597883 kcal/mol)

>  <smiles>  (58) 
CCN1CCN(S(=O)(=O)c2ccc(=NC(=O)Nc3ccc(Cl)c(Cl)c3)[nH]c2)CC1

>  <score_type>  (58) 
oracle

>  <origin>  (58) 
adg

>  <m_score__min__energy>  (58) 
-10.289999999999999

>  <m_primary>  (58) 
energy

$$$$
58:0
     RDKit          3D

 65 69  0  0  0  0  0  0  0  0999 V2000
   57.1020   25.2400   45.1050 C   0  0  0  0  0  0  0  0  0  0  0  0
   57.4120   26.1530   46.2530 C   0  0  0  0  0  0  0  0  0  0  0  0
   57.3300   25.6900   47.4230 O   0  0  0  0  0  0  0  0  0  0  0  0
   57.7930   27.5330   46.0460 N   0  0  0  0  0  0  0  0  0  0  0  0
   57.3820   28.2500   44.8240 C   0  0  0  0  0  0  0  0  0  0  0  0
   58.4310   29.2940   44.4380 C   0  0  0  0  0  0  0  0  0  0  0  0
   58.7600   30.1100   45.6060 N   0  0  0  0  0  0  0  0  0  0  0  0
   58.2160   31.4350   45.7390 C   0  0  0  0  0  0  0  0  0  0  0  0
   57.0530   31.6680   45.3120 O   0  0  0  0  0  0  0  0  0  0  0  0
   58.9970   32.5320   46.3630 C   0  0  0  0  0  0  0  0  0  0  0  0
   58.3980   33.4080   47.2850 C   0  0  0  0  0  0  0  0  0  0  0  0
   59.1390   34.4410   47.8640 C   0  0  0  0  0  0  0  0  0  0  0  0
   60.4870   34.6060   47.5390 C   0  0  0  0  0  0  0  0  0  0  0  0
   61.1090   33.7280   46.6400 C   0  0  0  0  0  0  0  0  0  0  0  0
   62.5710   33.8700   46.3110 C   0  0  0  0  0  0  0  0  0  0  0  0
   63.3540   33.0420   47.1720 O   0  0  0  0  0  0  0  0  0  0  0  0
   62.8870   32.4160   48.3400 C   0  0  0  0  0  0  0  0  0  0  0  0
   63.0970   32.9490   49.6250 C   0  0  0  0  0  0  0  0  0  0  0  0
   62.6030   32.2870   50.7530 C   0  0  0  0  0  0  0  0  0  0  0  0
   61.9040   31.0790   50.6210 C   0  0  0  0  0  0  0  0  0  0  0  0
   61.3420   30.3840   51.8380 C   0  0  0  0  0  0  0  0  0  0  0  0
   59.8600   30.4560   51.8630 N   0  0  0  0  0  0  0  0  0  0  0  0
   59.1310   29.3170   51.6110 C   0  0  0  0  0  0  0  0  0  0  0  0
   59.7040   28.2190   51.3690 O   0  0  0  0  0  0  0  0  0  0  0  0
   57.7770   29.3480   51.6100 N   0  0  0  0  0  0  0  0  0  0  0  0
   57.0850   30.4840   51.8490 C   0  0  0  0  0  0  0  0  0  0  0  0
   55.8250   30.4520   51.8310 O   0  0  0  0  0  0  0  0  0  0  0  0
   57.7760   31.6720   52.1090 C   0  0  0  0  0  0  0  0  0  0  0  0
   57.0870   32.8750   52.3590 C   0  0  0  0  0  0  0  0  0  0  0  0
   57.7910   34.0500   52.6130 C   0  0  0  0  0  0  0  0  0  0  0  0
   59.1830   34.0410   52.6160 C   0  0  0  0  0  0  0  0  0  0  0  0
   59.8820   32.8580   52.3710 C   0  0  0  0  0  0  0  0  0  0  0  0
   59.1960   31.6450   52.1120 C   0  0  0  0  0  0  0  0  0  0  0  0
   61.6920   30.5500   49.3370 C   0  0  0  0  0  0  0  0  0  0  0  0
   62.1920   31.2090   48.2100 C   0  0  0  0  0  0  0  0  0  0  0  0
   60.3610   32.6940   46.0570 C   0  0  0  0  0  0  0  0  0  0  0  0
   59.2530   29.3900   46.7820 C   0  0  0  0  0  0  0  0  0  0  0  0
   58.2260   28.3370   47.2030 C   0  0  0  0  0  0  0  0  0  0  0  0
   56.7709   24.2647   45.4912 H   0  0  0  0  0  0  0  0  0  0  0  0
   56.3034   25.6815   44.4907 H   0  0  0  0  0  0  0  0  0  0  0  0
   58.0043   25.1039   44.4907 H   0  0  0  0  0  0  0  0  0  0  0  0
   57.2694   27.5285   44.0014 H   0  0  0  0  0  0  0  0  0  0  0  0
   56.4259   28.7595   45.0146 H   0  0  0  0  0  0  0  0  0  0  0  0
   59.3381   28.7865   44.0781 H   0  0  0  0  0  0  0  0  0  0  0  0
   58.0308   29.9386   43.6416 H   0  0  0  0  0  0  0  0  0  0  0  0
   57.3388   33.2792   47.5523 H   0  0  0  0  0  0  0  0  0  0  0  0
   58.6592   35.1265   48.5781 H   0  0  0  0  0  0  0  0  0  0  0  0
   61.0629   35.4276   47.9898 H   0  0  0  0  0  0  0  0  0  0  0  0
   62.7391   33.5691   45.2664 H   0  0  0  0  0  0  0  0  0  0  0  0
   62.8702   34.9190   46.4530 H   0  0  0  0  0  0  0  0  0  0  0  0
   63.6525   33.8911   49.7427 H   0  0  0  0  0  0  0  0  0  0  0  0
   62.7641   32.7176   51.7523 H   0  0  0  0  0  0  0  0  0  0  0  0
   61.6493   29.3279   51.8215 H   0  0  0  0  0  0  0  0  0  0  0  0
   61.7295   30.8878   52.7358 H   0  0  0  0  0  0  0  0  0  0  0  0
   55.9871   32.8867   52.3536 H   0  0  0  0  0  0  0  0  0  0  0  0
   57.2468   34.9851   52.8112 H   0  0  0  0  0  0  0  0  0  0  0  0
   59.7354   34.9717   52.8126 H   0  0  0  0  0  0  0  0  0  0  0  0
   60.9819   32.8672   52.3790 H   0  0  0  0  0  0  0  0  0  0  0  0
   61.1296   29.6122   49.2177 H   0  0  0  0  0  0  0  0  0  0  0  0
   62.0374   30.7742   47.2115 H   0  0  0  0  0  0  0  0  0  0  0  0
   60.8462   32.0022   45.3528 H   0  0  0  0  0  0  0  0  0  0  0  0
   60.2050   28.8963   46.5372 H   0  0  0  0  0  0  0  0  0  0  0  0
   59.4097   30.0999   47.6075 H   0  0  0  0  0  0  0  0  0  0  0  0
   58.6783   27.6728   47.9542 H   0  0  0  0  0  0  0  0  0  0  0  0
   57.3482   28.8501   47.6229 H   0  0  0  0  0  0  0  0  0  0  0  0
  1  2  1  0
  2  3  2  0
  2  4  1  0
  4  5  1  0
  5  6  1  0
  6  7  1  0
  7  8  1  0
  8  9  2  0
  8 10  1  0
 10 11  2  0
 11 12  1  0
 12 13  2  0
 13 14  1  0
 14 15  1  0
 15 16  1  0
 16 17  1  0
 17 18  2  0
 18 19  1  0
 19 20  2  0
 20 21  1  0
 21 22  1  0
 22 23  1  0
 23 24  2  0
 23 25  1  0
 25 26  1  0
 26 27  2  0
 26 28  1  0
 28 29  2  0
 29 30  1  0
 30 31  2  0
 31 32  1  0
 32 33  2  0
 20 34  1  0
 34 35  2  0
 14 36  2  0
  7 37  1  0
 37 38  1  0
 38  4  1  0
 36 10  1  0
 35 17  1  0
 33 22  1  0
 33 28  1  0
  1 39  1  0
  1 40  1  0
  1 41  1  0
  5 42  1  0
  5 43  1  0
  6 44  1  0
  6 45  1  0
 11 46  1  0
 12 47  1  0
 13 48  1  0
 15 49  1  0
 15 50  1  0
 18 51  1  0
 19 52  1  0
 21 53  1  0
 21 54  1  0
 29 55  1  0
 30 56  1  0
 31 57  1  0
 32 58  1  0
 34 59  1  0
 35 60  1  0
 36 61  1  0
 37 62  1  0
 37 63  1  0
 38 64  1  0
 38 65  1  0
M  CHG  1  25  -1
M  END
>  <UniqueID>  (59) 
55

>  <SMILES>  (59) 
CC(=O)N1CCN(C(=O)c2cccc(COc3ccc(Cn4c(=O)[n-]c(=O)c5ccccc54)cc3)c2)CC1

>  <Energy>  (59) 
86.68529972044972

>  <Genealogy>  (59) 
CC(=O)N1CCN(C(=O)c2cccc(COc3ccc(Cn4c(=O)[n-]c(=O)c5ccccc54)cc3)c2)CC1 (protonated)
CC(=O)N1CCN(C(=O)c2cccc(COc3ccc(Cn4c(=O)[n-]c(=O)c5ccccc54)cc3)c2)CC1 (3D coordinates assigned)
CC(=O)N1CCN(C(=O)c2cccc(COc3ccc(Cn4c(=O)[n-]c(=O)c5ccccc54)cc3)c2)CC1 (nonaromatic ring conformer: 86.68529972044972 kcal/mol)

>  <smiles>  (59) 
CC(=O)N1CCN(C(=O)c2cccc(COc3ccc(Cn4c(=O)[nH]c(=O)c5ccccc54)cc3)c2)CC1

>  <score_type>  (59) 
oracle

>  <origin>  (59) 
adg

>  <m_score__min__energy>  (59) 
-12.98

>  <m_primary>  (59) 
energy

$$$$
59:0
     RDKit          3D

 57 60  0  0  0  0  0  0  0  0999 V2000
   58.3780   30.0790   44.5460 C   0  0  0  0  0  0  0  0  0  0  0  0
   58.6430   29.4750   45.7130 C   0  0  0  0  0  0  0  0  0  0  0  0
   58.2480   28.1860   46.1070 C   0  0  0  0  0  0  0  0  0  0  0  0
   57.7350   27.1630   45.3950 C   0  0  0  0  0  0  0  0  0  0  0  0
   57.1250   25.9480   45.9600 C   0  0  0  0  0  0  0  0  0  0  0  0
   57.8120   24.8900   46.4270 N   0  0  0  0  0  0  0  0  0  0  0  0
   56.8520   24.1070   46.9660 C   0  0  0  0  0  0  0  0  0  0  0  0
   57.1040   22.9960   47.4990 O   0  0  0  0  0  0  0  0  0  0  0  0
   55.6030   24.6150   46.8960 N   0  0  0  0  0  0  0  0  0  0  0  0
   55.7970   25.7860   46.2700 C   0  0  0  0  0  0  0  0  0  0  0  0
   54.7810   26.6920   45.9930 O   0  0  0  0  0  0  0  0  0  0  0  0
   58.5050   28.0990   47.4650 C   0  0  0  0  0  0  0  0  0  0  0  0
   59.1080   29.2830   47.8350 C   0  0  0  0  0  0  0  0  0  0  0  0
   59.5950   29.5950   49.2170 C   0  0  0  0  0  0  0  0  0  0  0  0
   59.1950   30.1180   46.7750 N   0  0  0  0  0  0  0  0  0  0  0  0
   59.7400   31.4490   46.7950 C   0  0  0  0  0  0  0  0  0  0  0  0
   58.9220   32.5540   46.5220 C   0  0  0  0  0  0  0  0  0  0  0  0
   59.4610   33.8430   46.5200 C   0  0  0  0  0  0  0  0  0  0  0  0
   60.8180   34.0370   46.7900 C   0  0  0  0  0  0  0  0  0  0  0  0
   61.6470   32.9400   47.0690 C   0  0  0  0  0  0  0  0  0  0  0  0
   63.3800   33.1730   47.3240 S   0  0  0  0  0  0  0  0  0  0  0  0
   64.1170   32.2570   46.3870 O   0  0  0  0  0  0  0  0  0  0  0  0
   63.7420   34.5850   46.9560 O   0  0  0  0  0  0  0  0  0  0  0  0
   63.9110   32.8490   48.9640 N   0  0  0  0  0  0  0  0  0  0  0  0
   63.4180   31.5480   49.4790 C   0  0  0  0  0  0  0  0  0  0  0  0
   62.2780   31.6810   50.5020 C   0  0  0  0  0  0  0  0  0  0  0  0
   61.4170   32.8260   50.1680 N   0  0  0  0  0  0  0  0  0  0  0  0
   60.2170   32.8190   51.0330 C   0  0  0  0  0  0  0  0  0  0  0  0
   58.9270   32.7720   50.2150 C   0  0  0  0  0  0  0  0  0  0  0  0
   62.1680   34.0970   50.3040 C   0  0  0  0  0  0  0  0  0  0  0  0
   63.6480   33.9790   49.8770 C   0  0  0  0  0  0  0  0  0  0  0  0
   61.1030   31.6470   47.0610 C   0  0  0  0  0  0  0  0  0  0  0  0
   58.7468   31.0981   44.3579 H   0  0  0  0  0  0  0  0  0  0  0  0
   57.7917   29.5555   43.7764 H   0  0  0  0  0  0  0  0  0  0  0  0
   57.7755   27.2427   44.2986 H   0  0  0  0  0  0  0  0  0  0  0  0
   58.2727   27.2484   48.1227 H   0  0  0  0  0  0  0  0  0  0  0  0
   58.9086   29.1553   49.9556 H   0  0  0  0  0  0  0  0  0  0  0  0
   60.6015   29.1731   49.3551 H   0  0  0  0  0  0  0  0  0  0  0  0
   59.6325   30.6857   49.3551 H   0  0  0  0  0  0  0  0  0  0  0  0
   57.8531   32.4060   46.3088 H   0  0  0  0  0  0  0  0  0  0  0  0
   58.8153   34.7073   46.3053 H   0  0  0  0  0  0  0  0  0  0  0  0
   61.2380   35.0536   46.7838 H   0  0  0  0  0  0  0  0  0  0  0  0
   64.9530   32.7710   48.8900 H   0  0  0  0  0  0  0  0  0  0  0  0
   63.0538   30.9531   48.6284 H   0  0  0  0  0  0  0  0  0  0  0  0
   64.2607   31.0668   49.9970 H   0  0  0  0  0  0  0  0  0  0  0  0
   61.6755   30.7607   50.4943 H   0  0  0  0  0  0  0  0  0  0  0  0
   62.7123   31.8416   51.4998 H   0  0  0  0  0  0  0  0  0  0  0  0
   60.2555   31.9360   51.6879 H   0  0  0  0  0  0  0  0  0  0  0  0
   60.2147   33.7484   51.6214 H   0  0  0  0  0  0  0  0  0  0  0  0
   58.0627   32.7405   50.8948 H   0  0  0  0  0  0  0  0  0  0  0  0
   58.8622   33.6684   49.5807 H   0  0  0  0  0  0  0  0  0  0  0  0
   58.9276   31.8733   49.5807 H   0  0  0  0  0  0  0  0  0  0  0  0
   61.6827   34.8586   49.6759 H   0  0  0  0  0  0  0  0  0  0  0  0
   62.1563   34.3708   51.3693 H   0  0  0  0  0  0  0  0  0  0  0  0
   63.9391   34.9108   49.3701 H   0  0  0  0  0  0  0  0  0  0  0  0
   64.2341   33.7992   50.7903 H   0  0  0  0  0  0  0  0  0  0  0  0
   61.7504   30.7814   47.2650 H   0  0  0  0  0  0  0  0  0  0  0  0
  1  2  2  0
  2  3  1  0
  3  4  2  3
  4  5  1  0
  5  6  1  0
  6  7  1  0
  7  8  2  0
  7  9  1  0
  9 10  1  0
 10 11  1  0
  3 12  1  0
 12 13  2  0
 13 14  1  0
 13 15  1  0
 15 16  1  0
 16 17  2  0
 17 18  1  0
 18 19  2  0
 19 20  1  0
 20 21  1  0
 21 22  2  0
 21 23  2  0
 21 24  1  0
 24 25  1  0
 25 26  1  0
 26 27  1  0
 27 28  1  0
 28 29  1  0
 27 30  1  0
 30 31  1  0
 20 32  2  0
 15  2  1  0
 32 16  1  0
 10  5  2  0
 31 24  1  0
  1 33  1  0
  1 34  1  0
  4 35  1  0
 12 36  1  0
 14 37  1  0
 14 38  1  0
 14 39  1  0
 17 40  1  0
 18 41  1  0
 19 42  1  0
 24 43  1  0
 25 44  1  0
 25 45  1  0
 26 46  1  0
 26 47  1  0
 28 48  1  0
 28 49  1  0
 29 50  1  0
 29 51  1  0
 29 52  1  0
 30 53  1  0
 30 54  1  0
 31 55  1  0
 31 56  1  0
 32 57  1  0
M  CHG  4   6  -1   9  -1  11  -1  24   1
M  END
>  <UniqueID>  (60) 
56

>  <SMILES>  (60) 
C=c1c(=Cc2[n-]c(=O)[n-]c2[O-])cc(C)n1-c1cccc(S(=O)(=O)[NH+]2CCN(CC)CC2)c1

>  <Energy>  (60) 
140.3673890051856

>  <Genealogy>  (60) 
C=c1c(=Cc2[n-]c(=O)[n-]c2[O-])cc(C)n1-c1cccc(S(=O)(=O)[NH+]2CCN(CC)CC2)c1 (protonated)
C=c1c(=Cc2[n-]c(=O)[n-]c2[O-])cc(C)n1-c1cccc(S(=O)(=O)[NH+]2CCN(CC)CC2)c1 (3D coordinates assigned)
C=c1c(=Cc2[n-]c(=O)[n-]c2[O-])cc(C)n1-c1cccc(S(=O)(=O)[NH+]2CCN(CC)CC2)c1 (nonaromatic ring conformer: 140.3673890051856 kcal/mol)

>  <smiles>  (60) 
C=c1c(=Cc2[nH]c(=O)[nH]c2O)cc(C)n1-c1cccc(S(=O)(=O)N2CCN(CC)CC2)c1

>  <score_type>  (60) 
oracle

>  <origin>  (60) 
adg

>  <m_score__min__energy>  (60) 
-15.66

>  <m_primary>  (60) 
energy

$$$$
60:0
     RDKit          3D

 49 51  0  0  0  0  0  0  0  0999 V2000
   62.4004   33.9766   46.0674 H   0  0  0  0  0  0  0  0  0  0  0  0
   62.1620   33.5920   47.0700 C   0  0  0  0  0  0  0  0  0  0  0  0
   61.4530   34.3200   47.8750 N   0  0  0  0  0  0  0  0  0  0  0  0
   60.0240   34.2660   47.9870 C   0  0  0  0  0  0  0  0  0  0  0  0
   59.4660   34.9700   48.8720 O   0  0  0  0  0  0  0  0  0  0  0  0
   59.1810   33.4420   47.0880 C   0  0  0  0  0  0  0  0  0  0  0  0
   58.6000   33.9950   45.9350 C   0  0  0  0  0  0  0  0  0  0  0  0
   58.7879   35.0484   45.6799 H   0  0  0  0  0  0  0  0  0  0  0  0
   57.7850   33.2160   45.1100 C   0  0  0  0  0  0  0  0  0  0  0  0
   57.3553   33.6539   44.1970 H   0  0  0  0  0  0  0  0  0  0  0  0
   57.5110   31.8830   45.4360 C   0  0  0  0  0  0  0  0  0  0  0  0
   56.6780   31.1150   44.5550 N   0  0  0  0  0  0  0  0  0  0  0  0
   56.3960   29.7130   44.6540 C   0  0  0  0  0  0  0  0  0  0  0  0
   55.2040   29.3030   44.6840 O   0  0  0  0  0  0  0  0  0  0  0  0
   57.4840   28.7800   44.6220 N   0  0  0  0  0  0  0  0  0  0  0  0
   58.4160   29.1410   44.3120 H   0  0  0  0  0  0  0  0  0  0  0  0
   57.3500   27.3690   44.8710 C   0  0  0  0  0  0  0  0  0  0  0  0
   56.7270   26.9360   46.0520 C   0  0  0  0  0  0  0  0  0  0  0  0
   56.3559   27.6755   46.7769 H   0  0  0  0  0  0  0  0  0  0  0  0
   56.5750   25.5700   46.3130 C   0  0  0  0  0  0  0  0  0  0  0  0
   56.1013   25.2382   47.2487 H   0  0  0  0  0  0  0  0  0  0  0  0
   57.0250   24.6270   45.3850 C   0  0  0  0  0  0  0  0  0  0  0  0
   56.9068   23.5531   45.5915 H   0  0  0  0  0  0  0  0  0  0  0  0
   57.6250   25.0470   44.1950 C   0  0  0  0  0  0  0  0  0  0  0  0
   57.9742   24.3034   43.4635 H   0  0  0  0  0  0  0  0  0  0  0  0
   57.7820   26.4120   43.9330 C   0  0  0  0  0  0  0  0  0  0  0  0
   58.2449   26.7391   42.9903 H   0  0  0  0  0  0  0  0  0  0  0  0
   58.0970   31.3230   46.5850 C   0  0  0  0  0  0  0  0  0  0  0  0
   57.9120   30.2681   46.8357 H   0  0  0  0  0  0  0  0  0  0  0  0
   58.9140   32.1020   47.4100 C   0  0  0  0  0  0  0  0  0  0  0  0
   59.3509   31.6615   48.3183 H   0  0  0  0  0  0  0  0  0  0  0  0
   62.6570   32.2590   47.4670 C   0  0  0  0  0  0  0  0  0  0  0  0
   63.7890   31.9090   47.0370 O   0  0  0  0  0  0  0  0  0  0  0  0
   61.9180   31.3670   48.3370 N   0  0  0  0  0  0  0  0  0  0  0  0
   61.2450   30.2210   47.7820 C   0  0  0  0  0  0  0  0  0  0  0  0
   60.6370   29.2810   48.6320 C   0  0  0  0  0  0  0  0  0  0  0  0
   60.6852   29.4174   49.7224 H   0  0  0  0  0  0  0  0  0  0  0  0
   59.9710   28.1730   48.0980 C   0  0  0  0  0  0  0  0  0  0  0  0
   59.5031   27.4369   48.7683 H   0  0  0  0  0  0  0  0  0  0  0  0
   59.9000   28.0010   46.7120 C   0  0  0  0  0  0  0  0  0  0  0  0
   59.3784   27.1280   46.2927 H   0  0  0  0  0  0  0  0  0  0  0  0
   60.4910   28.9370   45.8590 C   0  0  0  0  0  0  0  0  0  0  0  0
   60.4310   28.8018   44.7690 H   0  0  0  0  0  0  0  0  0  0  0  0
   61.1590   30.0460   46.3900 C   0  0  0  0  0  0  0  0  0  0  0  0
   61.6185   30.7836   45.7156 H   0  0  0  0  0  0  0  0  0  0  0  0
   61.8890   31.5500   49.7920 C   0  0  0  0  0  0  0  0  0  0  0  0
   62.0428   30.5796   50.2867 H   0  0  0  0  0  0  0  0  0  0  0  0
   62.6883   32.2444   50.0902 H   0  0  0  0  0  0  0  0  0  0  0  0
   60.9142   31.9632   50.0902 H   0  0  0  0  0  0  0  0  0  0  0  0
  1  2  1  0
  2  3  2  0
  3  4  1  0
  4  5  2  0
  4  6  1  0
  6  7  2  0
  7  8  1  0
  7  9  1  0
  9 10  1  0
  9 11  2  0
 11 12  1  0
 12 13  1  0
 13 14  2  0
 13 15  1  0
 15 16  1  0
 15 17  1  0
 17 18  2  0
 18 19  1  0
 18 20  1  0
 20 21  1  0
 20 22  2  0
 22 23  1  0
 22 24  1  0
 24 25  1  0
 24 26  2  0
 26 27  1  0
 11 28  1  0
 28 29  1  0
 28 30  2  0
 30 31  1  0
  2 32  1  0
 32 33  2  0
 32 34  1  0
 34 35  1  0
 35 36  2  0
 36 37  1  0
 36 38  1  0
 38 39  1  0
 38 40  2  0
 40 41  1  0
 40 42  1  0
 42 43  1  0
 42 44  2  0
 44 45  1  0
 34 46  1  0
 46 47  1  0
 46 48  1  0
 46 49  1  0
 30  6  1  0
 44 35  1  0
 26 17  1  0
M  CHG  1  12  -1
M  END
>  <UniqueID>  (61) 
57

>  <SMILES>  (61) 
CN(C(=O)/C=N/C(=O)c1ccc([N-]C(=O)Nc2ccccc2)cc1)c1ccccc1

>  <Energy>  (61) 
71.73456808193262

>  <Genealogy>  (61) 
CN(C(=O)C=NC(=O)c1ccc([N-]C(=O)Nc2ccccc2)cc1)c1ccccc1 (protonated)
CN(C(=O)/C=N/C(=O)c1ccc([N-]C(=O)Nc2ccccc2)cc1)c1ccccc1 (cis-trans isomerization)
CN(C(=O)/C=N/C(=O)c1ccc([N-]C(=O)Nc2ccccc2)cc1)c1ccccc1 (3D coordinates assigned)
CN(C(=O)/C=N/C(=O)c1ccc([N-]C(=O)Nc2ccccc2)cc1)c1ccccc1 (optimized conformer: 71.73456808193262 kcal/mol)

>  <smiles>  (61) 
CN(C(=O)C=NC(=O)c1ccc(NC(=O)Nc2ccccc2)cc1)c1ccccc1

>  <score_type>  (61) 
oracle

>  <origin>  (61) 
adg

>  <m_score__min__energy>  (61) 
-11.039999999999999

>  <m_primary>  (61) 
energy

$$$$
61:0
     RDKit          3D

 52 55  0  0  0  0  0  0  0  0999 V2000
   60.1220   30.2190   46.8860 C   0  0  0  0  0  0  0  0  0  0  0  0
   59.6150   31.3340   46.3390 C   0  0  0  0  0  0  0  0  0  0  0  0
   58.4890   31.4330   45.5070 C   0  0  0  0  0  0  0  0  0  0  0  0
   57.8040   30.4850   44.8400 C   0  0  0  0  0  0  0  0  0  0  0  0
   57.5740   29.1100   45.3210 C   0  0  0  0  0  0  0  0  0  0  0  0
   58.5480   28.2600   45.7180 N   0  0  0  0  0  0  0  0  0  0  0  0
   57.8890   27.1010   45.9420 C   0  0  0  0  0  0  0  0  0  0  0  0
   58.4620   26.0610   46.3660 O   0  0  0  0  0  0  0  0  0  0  0  0
   56.5690   27.1680   45.6690 N   0  0  0  0  0  0  0  0  0  0  0  0
   55.5550   26.1350   45.8660 C   0  0  0  0  0  0  0  0  0  0  0  0
   56.3730   28.4370   45.2790 C   0  0  0  0  0  0  0  0  0  0  0  0
   55.1430   28.9700   44.9040 O   0  0  0  0  0  0  0  0  0  0  0  0
   58.1860   32.7830   45.4200 C   0  0  0  0  0  0  0  0  0  0  0  0
   59.1730   33.4570   46.1150 C   0  0  0  0  0  0  0  0  0  0  0  0
   59.2890   34.9460   46.2090 C   0  0  0  0  0  0  0  0  0  0  0  0
   60.0420   32.5800   46.6630 N   0  0  0  0  0  0  0  0  0  0  0  0
   61.2250   32.9260   47.4080 C   0  0  0  0  0  0  0  0  0  0  0  0
   62.4710   32.9210   46.7640 C   0  0  0  0  0  0  0  0  0  0  0  0
   63.6280   33.2700   47.4630 C   0  0  0  0  0  0  0  0  0  0  0  0
   63.5510   33.6230   48.8110 C   0  0  0  0  0  0  0  0  0  0  0  0
   62.3160   33.6260   49.4660 C   0  0  0  0  0  0  0  0  0  0  0  0
   61.1430   33.2850   48.7730 C   0  0  0  0  0  0  0  0  0  0  0  0
   59.8480   33.2570   49.4920 C   0  0  0  0  0  0  0  0  0  0  0  0
   59.2770   34.3520   49.7440 O   0  0  0  0  0  0  0  0  0  0  0  0
   59.2420   32.0220   49.9290 N   0  0  0  0  0  0  0  0  0  0  0  0
   57.7890   31.9430   50.1360 C   0  0  0  0  0  0  0  0  0  0  0  0
   57.4790   31.0170   51.3190 C   0  0  0  0  0  0  0  0  0  0  0  0
   58.1230   29.7680   51.1640 O   0  0  0  0  0  0  0  0  0  0  0  0
   59.5270   29.9460   51.2030 C   0  0  0  0  0  0  0  0  0  0  0  0
   60.0030   30.7690   50.0020 C   0  0  0  0  0  0  0  0  0  0  0  0
   61.0159   30.2770   47.5245 H   0  0  0  0  0  0  0  0  0  0  0  0
   59.6439   29.2467   46.6961 H   0  0  0  0  0  0  0  0  0  0  0  0
   57.3834   30.7571   43.8607 H   0  0  0  0  0  0  0  0  0  0  0  0
   55.3985   25.9755   46.9431 H   0  0  0  0  0  0  0  0  0  0  0  0
   54.6106   26.4550   45.4016 H   0  0  0  0  0  0  0  0  0  0  0  0
   55.8925   25.1967   45.4016 H   0  0  0  0  0  0  0  0  0  0  0  0
   57.3270   33.2310   44.8991 H   0  0  0  0  0  0  0  0  0  0  0  0
   59.3124   35.2459   47.2671 H   0  0  0  0  0  0  0  0  0  0  0  0
   60.2154   35.2736   45.7145 H   0  0  0  0  0  0  0  0  0  0  0  0
   58.4245   35.4131   45.7145 H   0  0  0  0  0  0  0  0  0  0  0  0
   62.5369   32.6406   45.7024 H   0  0  0  0  0  0  0  0  0  0  0  0
   64.6014   33.2667   46.9507 H   0  0  0  0  0  0  0  0  0  0  0  0
   64.4638   33.8994   49.3591 H   0  0  0  0  0  0  0  0  0  0  0  0
   62.2626   33.8971   50.5307 H   0  0  0  0  0  0  0  0  0  0  0  0
   57.3956   32.9483   50.3471 H   0  0  0  0  0  0  0  0  0  0  0  0
   57.3155   31.5411   49.2281 H   0  0  0  0  0  0  0  0  0  0  0  0
   57.8294   31.4901   52.2482 H   0  0  0  0  0  0  0  0  0  0  0  0
   56.3925   30.8497   51.3592 H   0  0  0  0  0  0  0  0  0  0  0  0
   59.7986   30.4710   52.1307 H   0  0  0  0  0  0  0  0  0  0  0  0
   60.0094   28.9581   51.1677 H   0  0  0  0  0  0  0  0  0  0  0  0
   61.0731   30.9970   50.1158 H   0  0  0  0  0  0  0  0  0  0  0  0
   59.8448   30.1920   49.0789 H   0  0  0  0  0  0  0  0  0  0  0  0
  1  2  2  0
  2  3  1  0
  3  4  2  3
  4  5  1  0
  5  6  1  0
  6  7  1  0
  7  8  2  0
  7  9  1  0
  9 10  1  0
  9 11  1  0
 11 12  1  0
  3 13  1  0
 13 14  2  0
 14 15  1  0
 14 16  1  0
 16 17  1  0
 17 18  2  0
 18 19  1  0
 19 20  2  0
 20 21  1  0
 21 22  2  0
 22 23  1  0
 23 24  2  0
 23 25  1  0
 25 26  1  0
 26 27  1  0
 27 28  1  0
 28 29  1  0
 29 30  1  0
 16  2  1  0
 22 17  1  0
 30 25  1  0
 11  5  2  0
  1 31  1  0
  1 32  1  0
  4 33  1  0
 10 34  1  0
 10 35  1  0
 10 36  1  0
 13 37  1  0
 15 38  1  0
 15 39  1  0
 15 40  1  0
 18 41  1  0
 19 42  1  0
 20 43  1  0
 21 44  1  0
 26 45  1  0
 26 46  1  0
 27 47  1  0
 27 48  1  0
 29 49  1  0
 29 50  1  0
 30 51  1  0
 30 52  1  0
M  CHG  2   6  -1  12  -1
M  END
>  <UniqueID>  (62) 
58

>  <SMILES>  (62) 
C=c1c(=Cc2[n-]c(=O)n(C)c2[O-])cc(C)n1-c1ccccc1C(=O)N1CCOCC1

>  <Energy>  (62) 
137.6683521772564

>  <Genealogy>  (62) 
C=c1c(=Cc2[n-]c(=O)n(C)c2[O-])cc(C)n1-c1ccccc1C(=O)N1CCOCC1 (protonated)
C=c1c(=Cc2[n-]c(=O)n(C)c2[O-])cc(C)n1-c1ccccc1C(=O)N1CCOCC1 (3D coordinates assigned)
C=c1c(=Cc2[n-]c(=O)n(C)c2[O-])cc(C)n1-c1ccccc1C(=O)N1CCOCC1 (nonaromatic ring conformer: 137.6683521772564 kcal/mol)

>  <smiles>  (62) 
C=c1c(=Cc2[nH]c(=O)n(C)c2O)cc(C)n1-c1ccccc1C(=O)N1CCOCC1

>  <score_type>  (62) 
oracle

>  <origin>  (62) 
adg

>  <m_score__min__energy>  (62) 
-13.69

>  <m_primary>  (62) 
energy

$$$$
62:0
     RDKit          3D

 47 51  0  0  0  0  0  0  0  0999 V2000
   49.9910   24.6110   44.1890 O   0  0  0  0  0  0  0  0  0  0  0  0
   50.9270   23.9860   44.7530 C   0  0  0  0  0  0  0  0  0  0  0  0
   50.6600   22.6560   45.4000 C   0  0  0  0  0  0  0  0  0  0  0  0
   51.8660   21.9040   45.5890 O   0  0  0  0  0  0  0  0  0  0  0  0
   53.1170   22.5030   45.7820 C   0  0  0  0  0  0  0  0  0  0  0  0
   54.1820   21.7560   46.2950 C   0  0  0  0  0  0  0  0  0  0  0  0
   55.4260   22.3580   46.4970 C   0  0  0  0  0  0  0  0  0  0  0  0
   55.6180   23.7080   46.1750 C   0  0  0  0  0  0  0  0  0  0  0  0
   57.1930   24.4500   46.4520 S   0  0  0  0  0  0  0  0  0  0  0  0
   57.7050   24.0900   47.8210 O   0  0  0  0  0  0  0  0  0  0  0  0
   58.1560   23.9350   45.4180 O   0  0  0  0  0  0  0  0  0  0  0  0
   57.0470   26.1850   46.3280 N   0  0  0  0  0  0  0  0  0  0  0  0
   57.3890   26.6100   44.9600 C   0  0  0  0  0  0  0  0  0  0  0  0
   57.2690   28.1290   44.8340 C   0  0  0  0  0  0  0  0  0  0  0  0
   58.0400   28.8010   45.8870 N   0  0  0  0  0  0  0  0  0  0  0  0
   58.2500   30.2230   45.8110 C   0  0  0  0  0  0  0  0  0  0  0  0
   59.3380   30.8410   46.3440 N   0  0  0  0  0  0  0  0  0  0  0  0
   59.0940   32.1290   46.0470 C   0  0  0  0  0  0  0  0  0  0  0  0
   59.8830   33.2400   46.3440 C   0  0  0  0  0  0  0  0  0  0  0  0
   59.4070   34.5040   45.9420 C   0  0  0  0  0  0  0  0  0  0  0  0
   58.1780   34.6220   45.2470 C   0  0  0  0  0  0  0  0  0  0  0  0
   57.4170   33.4730   44.9510 C   0  0  0  0  0  0  0  0  0  0  0  0
   57.9130   32.2440   45.3760 C   0  0  0  0  0  0  0  0  0  0  0  0
   57.3960   31.0540   45.2310 O   0  0  0  0  0  0  0  0  0  0  0  0
   58.7350   27.9980   46.8960 C   0  0  0  0  0  0  0  0  0  0  0  0
   57.8240   26.8630   47.4000 C   0  0  0  0  0  0  0  0  0  0  0  0
   54.5560   24.4530   45.6390 C   0  0  0  0  0  0  0  0  0  0  0  0
   53.3060   23.8530   45.4440 C   0  0  0  0  0  0  0  0  0  0  0  0
   52.2220   24.5890   44.8730 N   0  0  0  0  0  0  0  0  0  0  0  0
   50.1885   22.8248   46.3794 H   0  0  0  0  0  0  0  0  0  0  0  0
   49.9983   22.0798   44.7366 H   0  0  0  0  0  0  0  0  0  0  0  0
   54.0399   20.6930   46.5397 H   0  0  0  0  0  0  0  0  0  0  0  0
   56.2584   21.7698   46.9106 H   0  0  0  0  0  0  0  0  0  0  0  0
   58.4217   26.3069   44.7327 H   0  0  0  0  0  0  0  0  0  0  0  0
   56.6940   26.1349   44.2520 H   0  0  0  0  0  0  0  0  0  0  0  0
   57.6523   28.4409   43.8513 H   0  0  0  0  0  0  0  0  0  0  0  0
   56.2104   28.4093   44.9381 H   0  0  0  0  0  0  0  0  0  0  0  0
   60.8417   33.1335   46.8727 H   0  0  0  0  0  0  0  0  0  0  0  0
   59.9941   35.4060   46.1695 H   0  0  0  0  0  0  0  0  0  0  0  0
   57.8164   35.6137   44.9373 H   0  0  0  0  0  0  0  0  0  0  0  0
   56.4655   33.5451   44.4039 H   0  0  0  0  0  0  0  0  0  0  0  0
   59.6427   27.5638   46.4514 H   0  0  0  0  0  0  0  0  0  0  0  0
   59.0019   28.6448   47.7448 H   0  0  0  0  0  0  0  0  0  0  0  0
   58.4531   26.1110   47.8986 H   0  0  0  0  0  0  0  0  0  0  0  0
   57.0914   27.3230   48.0795 H   0  0  0  0  0  0  0  0  0  0  0  0
   54.7059   25.5095   45.3718 H   0  0  0  0  0  0  0  0  0  0  0  0
   52.3680   25.5640   44.5230 H   0  0  0  0  0  0  0  0  0  0  0  0
  1  2  2  0
  2  3  1  0
  3  4  1  0
  4  5  1  0
  5  6  2  0
  6  7  1  0
  7  8  2  0
  8  9  1  0
  9 10  2  0
  9 11  2  0
  9 12  1  0
 12 13  1  0
 13 14  1  0
 14 15  1  0
 15 16  1  0
 16 17  2  0
 17 18  1  0
 18 19  2  0
 19 20  1  0
 20 21  2  0
 21 22  1  0
 22 23  2  0
 23 24  1  0
 15 25  1  0
 25 26  1  0
  8 27  1  0
 27 28  2  0
 28 29  1  0
 29  2  1  0
 28  5  1  0
 26 12  1  0
 24 16  1  0
 23 18  1  0
  3 30  1  0
  3 31  1  0
  6 32  1  0
  7 33  1  0
 13 34  1  0
 13 35  1  0
 14 36  1  0
 14 37  1  0
 19 38  1  0
 20 39  1  0
 21 40  1  0
 22 41  1  0
 25 42  1  0
 25 43  1  0
 26 44  1  0
 26 45  1  0
 27 46  1  0
 29 47  1  0
M  END
>  <UniqueID>  (63) 
59

>  <SMILES>  (63) 
O=C1COc2ccc(S(=O)(=O)N3CCN(c4nc5ccccc5o4)CC3)cc2N1

>  <Energy>  (63) 
95.17682697644749

>  <Genealogy>  (63) 
O=C1COc2ccc(S(=O)(=O)N3CCN(c4nc5ccccc5o4)CC3)cc2N1 (3D coordinates assigned)
O=C1COc2ccc(S(=O)(=O)N3CCN(c4nc5ccccc5o4)CC3)cc2N1 (nonaromatic ring conformer: 95.17682697644749 kcal/mol)

>  <smiles>  (63) 
O=C1COc2ccc(S(=O)(=O)N3CCN(c4nc5ccccc5o4)CC3)cc2N1

>  <score_type>  (63) 
oracle

>  <origin>  (63) 
adg

>  <m_score__min__energy>  (63) 
-8.7400000000000002

>  <m_primary>  (63) 
energy

$$$$
63:0
     RDKit          3D

 42 45  0  0  0  0  0  0  0  0999 V2000
   56.2710   22.0260   43.5580 C   0  0  0  0  0  0  0  0  0  0  0  0
   56.1410   23.2220   44.4110 N   0  0  0  0  0  0  0  0  0  0  0  0
   57.2420   23.7350   45.0610 C   0  0  0  0  0  0  0  0  0  0  0  0
   57.1340   24.9370   45.8020 C   0  0  0  0  0  0  0  0  0  0  0  0
   55.8430   25.4640   45.9950 C   0  0  0  0  0  0  0  0  0  0  0  0
   55.6460   26.4510   46.7520 O   0  0  0  0  0  0  0  0  0  0  0  0
   54.7820   24.8970   45.3770 N   0  0  0  0  0  0  0  0  0  0  0  0
   54.9140   23.8070   44.5870 C   0  0  0  0  0  0  0  0  0  0  0  0
   53.8830   23.3360   44.0320 O   0  0  0  0  0  0  0  0  0  0  0  0
   58.3630   25.5220   46.5100 C   0  0  2  0  0  0  0  0  0  0  0  0
   58.3460   27.0320   46.5830 C   0  0  0  0  0  0  0  0  0  0  0  0
   58.4670   27.7150   47.7420 N   0  0  0  0  0  0  0  0  0  0  0  0
   58.4520   29.0070   47.3560 C   0  0  0  0  0  0  0  0  0  0  0  0
   58.5480   29.9620   48.1710 O   0  0  0  0  0  0  0  0  0  0  0  0
   58.3300   29.1730   46.0230 N   0  0  0  0  0  0  0  0  0  0  0  0
   58.3540   30.4340   45.2790 C   0  0  0  0  0  0  0  0  0  0  0  0
   59.0430   31.5000   46.0860 C   0  0  0  0  0  0  0  0  0  0  0  0
   60.4000   31.3680   46.4300 C   0  0  0  0  0  0  0  0  0  0  0  0
   61.0260   32.3450   47.2110 C   0  0  0  0  0  0  0  0  0  0  0  0
   60.3040   33.4560   47.6550 C   0  0  0  0  0  0  0  0  0  0  0  0
   58.9540   33.5910   47.3210 C   0  0  0  0  0  0  0  0  0  0  0  0
   58.3230   32.6170   46.5420 C   0  0  0  0  0  0  0  0  0  0  0  0
   58.2750   27.9250   45.5230 C   0  0  0  0  0  0  0  0  0  0  0  0
   58.1350   27.5260   43.8150 Cl  0  0  0  0  0  0  0  0  0  0  0  0
   59.6930   25.0910   45.8620 C   0  0  0  0  0  0  0  0  0  0  0  0
   59.6880   23.6340   45.5500 C   0  0  0  0  0  0  0  0  0  0  0  0
   60.7460   22.9570   45.6580 O   0  0  0  0  0  0  0  0  0  0  0  0
   58.4980   23.0280   45.0480 N   0  0  0  0  0  0  0  0  0  0  0  0
   56.3681   21.1323   44.1919 H   0  0  0  0  0  0  0  0  0  0  0  0
   55.3780   21.9298   42.9229 H   0  0  0  0  0  0  0  0  0  0  0  0
   57.1638   22.1239   42.9229 H   0  0  0  0  0  0  0  0  0  0  0  0
   58.3010   25.1096   47.5279 H   0  0  0  0  0  0  0  0  0  0  0  0
   58.8956   30.2874   44.3329 H   0  0  0  0  0  0  0  0  0  0  0  0
   57.3204   30.7501   45.0748 H   0  0  0  0  0  0  0  0  0  0  0  0
   60.9709   30.4938   46.0839 H   0  0  0  0  0  0  0  0  0  0  0  0
   62.0883   32.2386   47.4761 H   0  0  0  0  0  0  0  0  0  0  0  0
   60.7985   34.2243   48.2675 H   0  0  0  0  0  0  0  0  0  0  0  0
   58.3866   34.4656   47.6718 H   0  0  0  0  0  0  0  0  0  0  0  0
   57.2589   32.7254   46.2850 H   0  0  0  0  0  0  0  0  0  0  0  0
   59.8396   25.6577   44.9307 H   0  0  0  0  0  0  0  0  0  0  0  0
   60.5098   25.2948   46.5700 H   0  0  0  0  0  0  0  0  0  0  0  0
   58.5540   22.0290   44.7520 H   0  0  0  0  0  0  0  0  0  0  0  0
  1  2  1  0
  2  3  1  0
  3  4  2  0
  4  5  1  0
  5  6  2  0
  5  7  1  0
  7  8  1  0
  8  9  2  0
  4 10  1  0
 10 11  1  0
 11 12  1  0
 12 13  1  0
 13 14  2  0
 13 15  1  0
 15 16  1  0
 16 17  1  0
 17 18  2  0
 18 19  1  0
 19 20  2  0
 20 21  1  0
 21 22  2  0
 15 23  1  0
 23 24  1  0
 10 25  1  0
 25 26  1  0
 26 27  2  0
 26 28  1  0
  8  2  1  0
 23 11  2  0
 28  3  1  0
 22 17  1  0
  1 29  1  0
  1 30  1  0
  1 31  1  0
 10 32  1  1
 16 33  1  0
 16 34  1  0
 18 35  1  0
 19 36  1  0
 20 37  1  0
 21 38  1  0
 22 39  1  0
 25 40  1  0
 25 41  1  0
 28 42  1  0
M  CHG  2   7  -1  12  -1
M  END
>  <UniqueID>  (64) 
60

>  <SMILES>  (64) 
Cn1c2c(c(=O)[n-]c1=O)[C@H](c1[n-]c(=O)n(Cc3ccccc3)c1Cl)CC(=O)N2

>  <Energy>  (64) 
85.78173336232207

>  <Genealogy>  (64) 
Cn1c2c(c(=O)[n-]c1=O)C(c1[n-]c(=O)n(Cc3ccccc3)c1Cl)CC(=O)N2 (protonated)
Cn1c2c(c(=O)[n-]c1=O)[C@H](c1[n-]c(=O)n(Cc3ccccc3)c1Cl)CC(=O)N2 (chirality)
Cn1c2c(c(=O)[n-]c1=O)[C@H](c1[n-]c(=O)n(Cc3ccccc3)c1Cl)CC(=O)N2 (3D coordinates assigned)
Cn1c2c(c(=O)[n-]c1=O)[C@H](c1[n-]c(=O)n(Cc3ccccc3)c1Cl)CC(=O)N2 (nonaromatic ring conformer: 85.78173336232207 kcal/mol)

>  <smiles>  (64) 
Cn1c2c(c(=O)[nH]c1=O)C(c1[nH]c(=O)n(Cc3ccccc3)c1Cl)CC(=O)N2

>  <score_type>  (64) 
oracle

>  <origin>  (64) 
adg

>  <m_score__min__energy>  (64) 
-10.56

>  <m_primary>  (64) 
energy

$$$$
64:0
     RDKit          3D

 57 60  0  0  0  0  0  0  0  0999 V2000
   54.7290   26.2660   45.9800 N   0  0  0  0  0  0  0  0  0  0  0  0
   55.3660   25.0350   45.6380 C   0  0  0  0  0  0  0  0  0  0  0  0
   54.6620   24.0700   45.2330 O   0  0  0  0  0  0  0  0  0  0  0  0
   56.8370   24.8900   45.7620 C   0  0  0  0  0  0  0  0  0  0  0  0
   57.4500   23.6450   45.5410 C   0  0  0  0  0  0  0  0  0  0  0  0
   58.8360   23.5110   45.6440 C   0  0  0  0  0  0  0  0  0  0  0  0
   59.6300   24.6140   45.9640 C   0  0  0  0  0  0  0  0  0  0  0  0
   59.0410   25.8670   46.1990 C   0  0  0  0  0  0  0  0  0  0  0  0
   59.8840   27.0440   46.5180 C   0  0  0  0  0  0  0  0  0  0  0  0
   60.1990   27.8560   45.6060 O   0  0  0  0  0  0  0  0  0  0  0  0
   60.3720   27.2540   47.8500 N   0  0  0  0  0  0  0  0  0  0  0  0
   60.4710   28.5490   48.4690 C   0  0  0  0  0  0  0  0  0  0  0  0
   60.1470   28.6910   49.8270 C   0  0  0  0  0  0  0  0  0  0  0  0
   60.1550   29.9530   50.4300 C   0  0  0  0  0  0  0  0  0  0  0  0
   60.4660   31.0880   49.6770 C   0  0  0  0  0  0  0  0  0  0  0  0
   60.7830   30.9620   48.3190 C   0  0  0  0  0  0  0  0  0  0  0  0
   61.0220   32.1550   47.4930 C   0  0  0  0  0  0  0  0  0  0  0  0
   62.1580   32.2930   46.9590 O   0  0  0  0  0  0  0  0  0  0  0  0
   59.9610   33.1020   47.2240 N   0  0  0  0  0  0  0  0  0  0  0  0
   60.1820   34.2440   46.3220 C   0  0  0  0  0  0  0  0  0  0  0  0
   59.1380   34.2790   45.1840 C   0  0  0  0  0  0  0  0  0  0  0  0
   57.7850   33.5710   45.5230 C   0  0  0  0  0  0  0  0  0  0  0  0
   56.7530   34.2850   44.8830 O   0  0  0  0  0  0  0  0  0  0  0  0
   57.7120   32.0900   45.0860 C   0  0  0  0  0  0  0  0  0  0  0  0
   57.7760   31.0200   46.0110 C   0  0  0  0  0  0  0  0  0  0  0  0
   57.6710   29.6940   45.5820 C   0  0  0  0  0  0  0  0  0  0  0  0
   57.4840   29.4070   44.2310 C   0  0  0  0  0  0  0  0  0  0  0  0
   57.3910   30.4450   43.3060 C   0  0  0  0  0  0  0  0  0  0  0  0
   57.4990   31.7740   43.7230 C   0  0  0  0  0  0  0  0  0  0  0  0
   57.3860   32.7520   42.7880 F   0  0  0  0  0  0  0  0  0  0  0  0
   57.5420   33.6700   47.0460 C   0  0  0  0  0  0  0  0  0  0  0  0
   58.6310   32.9270   47.8340 C   0  0  0  0  0  0  0  0  0  0  0  0
   60.7940   29.6960   47.7210 C   0  0  0  0  0  0  0  0  0  0  0  0
   57.6420   25.9950   46.0970 C   0  0  0  0  0  0  0  0  0  0  0  0
   53.6870   26.3340   46.0420 H   0  0  0  0  0  0  0  0  0  0  0  0
   56.8340   22.7703   45.2852 H   0  0  0  0  0  0  0  0  0  0  0  0
   59.3050   22.5310   45.4721 H   0  0  0  0  0  0  0  0  0  0  0  0
   60.7220   24.5010   46.0324 H   0  0  0  0  0  0  0  0  0  0  0  0
   60.6550   26.4150   48.4030 H   0  0  0  0  0  0  0  0  0  0  0  0
   59.8848   27.8034   50.4215 H   0  0  0  0  0  0  0  0  0  0  0  0
   59.9160   30.0521   51.4991 H   0  0  0  0  0  0  0  0  0  0  0  0
   60.4618   32.0806   50.1510 H   0  0  0  0  0  0  0  0  0  0  0  0
   60.1098   35.1761   46.9016 H   0  0  0  0  0  0  0  0  0  0  0  0
   61.1797   34.1386   45.8710 H   0  0  0  0  0  0  0  0  0  0  0  0
   58.9247   35.3315   44.9456 H   0  0  0  0  0  0  0  0  0  0  0  0
   59.5769   33.7272   44.3397 H   0  0  0  0  0  0  0  0  0  0  0  0
   56.9020   34.2110   43.9030 H   0  0  0  0  0  0  0  0  0  0  0  0
   57.9101   31.2352   47.0814 H   0  0  0  0  0  0  0  0  0  0  0  0
   57.7361   28.8744   46.3128 H   0  0  0  0  0  0  0  0  0  0  0  0
   57.4099   28.3621   43.8953 H   0  0  0  0  0  0  0  0  0  0  0  0
   57.2317   30.2168   42.2418 H   0  0  0  0  0  0  0  0  0  0  0  0
   57.5458   34.7296   47.3414 H   0  0  0  0  0  0  0  0  0  0  0  0
   56.5709   33.2061   47.2737 H   0  0  0  0  0  0  0  0  0  0  0  0
   58.6562   33.3175   48.8620 H   0  0  0  0  0  0  0  0  0  0  0  0
   58.3885   31.8541   47.8255 H   0  0  0  0  0  0  0  0  0  0  0  0
   61.0574   29.5974   46.6576 H   0  0  0  0  0  0  0  0  0  0  0  0
   57.1720   26.9722   46.2817 H   0  0  0  0  0  0  0  0  0  0  0  0
  1  2  1  0
  2  3  2  0
  2  4  1  0
  4  5  2  0
  5  6  1  0
  6  7  2  0
  7  8  1  0
  8  9  1  0
  9 10  2  0
  9 11  1  0
 11 12  1  0
 12 13  2  0
 13 14  1  0
 14 15  2  0
 15 16  1  0
 16 17  1  0
 17 18  2  0
 17 19  1  0
 19 20  1  0
 20 21  1  0
 21 22  1  0
 22 23  1  0
 22 24  1  0
 24 25  2  0
 25 26  1  0
 26 27  2  0
 27 28  1  0
 28 29  2  0
 29 30  1  0
 22 31  1  0
 31 32  1  0
 16 33  2  0
  8 34  2  0
 34  4  1  0
 33 12  1  0
 32 19  1  0
 29 24  1  0
  1 35  1  0
  5 36  1  0
  6 37  1  0
  7 38  1  0
 11 39  1  0
 13 40  1  0
 14 41  1  0
 15 42  1  0
 20 43  1  0
 20 44  1  0
 21 45  1  0
 21 46  1  0
 23 47  1  0
 25 48  1  0
 26 49  1  0
 27 50  1  0
 28 51  1  0
 31 52  1  0
 31 53  1  0
 32 54  1  0
 32 55  1  0
 33 56  1  0
 34 57  1  0
M  CHG  1   1  -1
M  END
>  <UniqueID>  (65) 
61

>  <SMILES>  (65) 
[NH-]C(=O)c1cccc(C(=O)Nc2cccc(C(=O)N3CCC(O)(c4ccccc4F)CC3)c2)c1

>  <Energy>  (65) 
80.83546074163726

>  <Genealogy>  (65) 
[NH-]C(=O)c1cccc(C(=O)Nc2cccc(C(=O)N3CCC(O)(c4ccccc4F)CC3)c2)c1 (protonated)
[NH-]C(=O)c1cccc(C(=O)Nc2cccc(C(=O)N3CCC(O)(c4ccccc4F)CC3)c2)c1 (3D coordinates assigned)
[NH-]C(=O)c1cccc(C(=O)Nc2cccc(C(=O)N3CCC(O)(c4ccccc4F)CC3)c2)c1 (nonaromatic ring conformer: 80.83546074163726 kcal/mol)

>  <smiles>  (65) 
NC(=O)c1cccc(C(=O)Nc2cccc(C(=O)N3CCC(O)(c4ccccc4F)CC3)c2)c1

>  <score_type>  (65) 
oracle

>  <origin>  (65) 
adg

>  <m_score__min__energy>  (65) 
-13.98

>  <m_primary>  (65) 
energy

$$$$
65:0
     RDKit          3D

 30 31  0  0  0  0  0  0  0  0999 V2000
   58.5540   33.6910   47.1950 C   0  0  0  0  0  0  0  0  0  0  0  0
   58.5920   33.8680   45.7070 C   0  0  0  0  0  0  0  0  0  0  0  0
   59.0050   34.9660   45.2450 O   0  0  0  0  0  0  0  0  0  0  0  0
   58.1560   32.7920   44.7750 C   0  0  0  0  0  0  0  0  0  0  0  0
   58.1480   33.0260   43.3860 C   0  0  0  0  0  0  0  0  0  0  0  0
   57.7270   32.0320   42.5010 C   0  0  0  0  0  0  0  0  0  0  0  0
   57.3180   30.7900   42.9830 C   0  0  0  0  0  0  0  0  0  0  0  0
   57.3370   30.5230   44.3550 C   0  0  0  0  0  0  0  0  0  0  0  0
   56.9090   29.2600   44.7940 O   0  0  0  0  0  0  0  0  0  0  0  0
   57.7500   28.2200   45.2100 C   0  0  0  0  0  0  0  0  0  0  0  0
   58.4790   27.6020   44.3850 O   0  0  0  0  0  0  0  0  0  0  0  0
   57.6960   27.7650   46.6320 C   0  0  0  0  0  0  0  0  0  0  0  0
   57.2020   26.3530   46.6970 C   0  0  0  0  0  0  0  0  0  0  0  0
   57.9150   25.2540   47.1240 C   0  0  0  0  0  0  0  0  0  0  0  0
   57.0230   24.2010   47.0790 C   0  0  0  0  0  0  0  0  0  0  0  0
   57.3320   22.8940   47.4270 O   0  0  0  0  0  0  0  0  0  0  0  0
   55.7990   24.5840   46.6620 N   0  0  0  0  0  0  0  0  0  0  0  0
   55.9210   25.9070   46.4370 C   0  0  0  0  0  0  0  0  0  0  0  0
   54.8700   26.7060   46.0070 O   0  0  0  0  0  0  0  0  0  0  0  0
   57.7390   31.5320   45.2500 C   0  0  0  0  0  0  0  0  0  0  0  0
   58.7608   34.6543   47.6842 H   0  0  0  0  0  0  0  0  0  0  0  0
   57.5585   33.3329   47.4964 H   0  0  0  0  0  0  0  0  0  0  0  0
   59.3148   32.9559   47.4964 H   0  0  0  0  0  0  0  0  0  0  0  0
   58.4763   34.0005   42.9953 H   0  0  0  0  0  0  0  0  0  0  0  0
   57.7180   32.2298   41.4190 H   0  0  0  0  0  0  0  0  0  0  0  0
   56.9783   30.0154   42.2798 H   0  0  0  0  0  0  0  0  0  0  0  0
   58.7032   27.8196   47.0709 H   0  0  0  0  0  0  0  0  0  0  0  0
   57.0095   28.4150   47.1943 H   0  0  0  0  0  0  0  0  0  0  0  0
   58.9698   25.2223   47.4345 H   0  0  0  0  0  0  0  0  0  0  0  0
   57.7277   31.3352   46.3322 H   0  0  0  0  0  0  0  0  0  0  0  0
  1  2  1  0
  2  3  2  0
  2  4  1  0
  4  5  2  0
  5  6  1  0
  6  7  2  0
  7  8  1  0
  8  9  1  0
  9 10  1  0
 10 11  2  0
 10 12  1  0
 12 13  1  0
 13 14  1  0
 14 15  2  0
 15 16  1  0
 15 17  1  0
 17 18  1  0
 18 19  1  0
  8 20  2  0
 20  4  1  0
 18 13  2  0
  1 21  1  0
  1 22  1  0
  1 23  1  0
  5 24  1  0
  6 25  1  0
  7 26  1  0
 12 27  1  0
 12 28  1  0
 14 29  1  0
 20 30  1  0
M  CHG  3  16  -1  17  -1  19  -1
M  END
>  <UniqueID>  (66) 
62

>  <SMILES>  (66) 
CC(=O)c1cccc(OC(=O)Cc2cc([O-])[n-]c2[O-])c1

>  <Energy>  (66) 
59.183683890819225

>  <Genealogy>  (66) 
CC(=O)c1cccc(OC(=O)Cc2cc([O-])[n-]c2[O-])c1 (protonated)
CC(=O)c1cccc(OC(=O)Cc2cc([O-])[n-]c2[O-])c1 (3D coordinates assigned)
CC(=O)c1cccc(OC(=O)Cc2cc([O-])[n-]c2[O-])c1 (optimized conformer: 59.183683890819225 kcal/mol)

>  <smiles>  (66) 
CC(=O)c1cccc(OC(=O)Cc2cc(O)[nH]c2O)c1

>  <score_type>  (66) 
oracle

>  <origin>  (66) 
adg

>  <m_score__min__energy>  (66) 
-15.08

>  <m_primary>  (66) 
energy

$$$$
66:0
     RDKit          3D

 52 54  0  0  0  0  0  0  0  0999 V2000
   56.8040   34.1830   45.2300 C   0  0  0  0  0  0  0  0  0  0  0  0
   58.0920   33.5210   45.4580 N   0  0  0  0  0  0  0  0  0  0  0  0
   59.3270   34.1550   44.9840 C   0  0  0  0  0  0  0  0  0  0  0  0
   59.9150   35.0550   46.0750 C   0  0  0  0  0  0  0  0  0  0  0  0
   60.2620   34.2680   47.2690 N   0  0  0  0  0  0  0  0  0  0  0  0
   59.6400   34.5750   48.5610 C   0  0  0  0  0  0  0  0  0  0  0  0
   61.2950   33.2600   47.2230 C   0  0  0  0  0  0  0  0  0  0  0  0
   62.2890   33.4240   46.4640 O   0  0  0  0  0  0  0  0  0  0  0  0
   61.2160   32.0250   48.0290 C   0  0  0  0  0  0  0  0  0  0  0  0
   61.9740   31.8900   49.2020 C   0  0  0  0  0  0  0  0  0  0  0  0
   61.8920   30.7110   49.9430 C   0  0  0  0  0  0  0  0  0  0  0  0
   61.0680   29.6740   49.5050 C   0  0  0  0  0  0  0  0  0  0  0  0
   60.3430   29.8300   48.3230 C   0  0  0  0  0  0  0  0  0  0  0  0
   60.4350   30.9860   47.6110 N   0  0  0  0  0  0  0  0  0  0  0  0
   58.1260   32.2150   46.0670 C   0  0  0  0  0  0  0  0  0  0  0  0
   58.0770   32.0960   47.3200 O   0  0  0  0  0  0  0  0  0  0  0  0
   58.2760   31.0410   45.2640 N   0  0  0  0  0  0  0  0  0  0  0  0
   57.6260   29.9210   45.3960 C   0  0  0  0  0  0  0  0  0  0  0  0
   58.0990   28.8540   46.1260 C   0  0  0  0  0  0  0  0  0  0  0  0
   57.1140   27.8910   45.9880 C   0  0  0  0  0  0  0  0  0  0  0  0
   57.1110   26.5500   46.5960 C   0  0  0  0  0  0  0  0  0  0  0  0
   58.2040   26.0290   46.9400 O   0  0  0  0  0  0  0  0  0  0  0  0
   55.9040   25.7900   46.7430 N   0  0  0  0  0  0  0  0  0  0  0  0
   55.4450   24.9310   45.8810 C   0  0  0  0  0  0  0  0  0  0  0  0
   54.1310   24.6410   45.7870 N   0  0  0  0  0  0  0  0  0  0  0  0
   53.8840   23.7490   44.7910 C   0  0  0  0  0  0  0  0  0  0  0  0
   55.0020   23.3310   44.0780 C   0  0  0  0  0  0  0  0  0  0  0  0
   56.3500   24.1100   44.7160 S   0  0  0  0  0  0  0  0  0  0  0  0
   56.1010   28.3730   45.2380 N   0  0  0  0  0  0  0  0  0  0  0  0
   56.4120   29.6080   44.8730 N   0  0  0  0  0  0  0  0  0  0  0  0
   55.5030   30.4330   44.0820 C   0  0  0  0  0  0  0  0  0  0  0  0
   56.3384   34.4223   46.1974 H   0  0  0  0  0  0  0  0  0  0  0  0
   56.9641   35.1105   44.6607 H   0  0  0  0  0  0  0  0  0  0  0  0
   56.1430   33.5129   44.6607 H   0  0  0  0  0  0  0  0  0  0  0  0
   60.0582   33.3756   44.7234 H   0  0  0  0  0  0  0  0  0  0  0  0
   59.0981   34.7677   44.0996 H   0  0  0  0  0  0  0  0  0  0  0  0
   60.8215   35.5444   45.6894 H   0  0  0  0  0  0  0  0  0  0  0  0
   59.1635   35.8081   46.3545 H   0  0  0  0  0  0  0  0  0  0  0  0
   60.3038   34.2474   49.3746 H   0  0  0  0  0  0  0  0  0  0  0  0
   59.4723   35.6594   48.6388 H   0  0  0  0  0  0  0  0  0  0  0  0
   58.6773   34.0486   48.6388 H   0  0  0  0  0  0  0  0  0  0  0  0
   62.6288   32.7087   49.5352 H   0  0  0  0  0  0  0  0  0  0  0  0
   62.4749   30.5994   50.8692 H   0  0  0  0  0  0  0  0  0  0  0  0
   60.9906   28.7429   50.0855 H   0  0  0  0  0  0  0  0  0  0  0  0
   59.6951   29.0160   47.9657 H   0  0  0  0  0  0  0  0  0  0  0  0
   59.8760   31.0760   46.7320 H   0  0  0  0  0  0  0  0  0  0  0  0
   59.0415   28.7830   46.6887 H   0  0  0  0  0  0  0  0  0  0  0  0
   52.8712   23.3839   44.5653 H   0  0  0  0  0  0  0  0  0  0  0  0
   55.0048   22.6156   43.2424 H   0  0  0  0  0  0  0  0  0  0  0  0
   54.8588   31.0177   44.7552 H   0  0  0  0  0  0  0  0  0  0  0  0
   56.0864   31.1165   43.4475 H   0  0  0  0  0  0  0  0  0  0  0  0
   54.8791   29.7863   43.4475 H   0  0  0  0  0  0  0  0  0  0  0  0
  1  2  1  0
  2  3  1  0
  3  4  1  0
  4  5  1  0
  5  6  1  0
  5  7  1  0
  7  8  2  0
  7  9  1  0
  9 10  2  0
 10 11  1  0
 11 12  2  0
 12 13  1  0
 13 14  2  0
  2 15  1  0
 15 16  2  0
 15 17  1  0
 17 18  2  3
 18 19  1  0
 19 20  2  0
 20 21  1  0
 21 22  2  0
 21 23  1  0
 23 24  2  3
 24 25  1  0
 25 26  1  0
 26 27  2  0
 27 28  1  0
 20 29  1  0
 29 30  1  0
 30 31  1  0
 14  9  1  0
 30 18  1  0
 28 24  1  0
  1 32  1  0
  1 33  1  0
  1 34  1  0
  3 35  1  0
  3 36  1  0
  4 37  1  0
  4 38  1  0
  6 39  1  0
  6 40  1  0
  6 41  1  0
 10 42  1  0
 11 43  1  0
 12 44  1  0
 13 45  1  0
 14 46  1  0
 19 47  1  0
 26 48  1  0
 27 49  1  0
 31 50  1  0
 31 51  1  0
 31 52  1  0
M  CHG  3  14   1  25  -1  29  -1
M  END
>  <UniqueID>  (67) 
63

>  <SMILES>  (67) 
CN(CCN(C)C(=O)c1cccc[nH+]1)C(=O)N=c1cc(C(=O)N=c2[n-]ccs2)[n-]n1C

>  <Energy>  (67) 
131.23437216063357

>  <Genealogy>  (67) 
CN(CCN(C)C(=O)c1cccc[nH+]1)C(=O)N=c1cc(C(=O)N=c2[n-]ccs2)[n-]n1C (protonated)
CN(CCN(C)C(=O)c1cccc[nH+]1)C(=O)N=c1cc(C(=O)N=c2[n-]ccs2)[n-]n1C (3D coordinates assigned)
CN(CCN(C)C(=O)c1cccc[nH+]1)C(=O)N=c1cc(C(=O)N=c2[n-]ccs2)[n-]n1C (optimized conformer: 131.23437216063357 kcal/mol)

>  <smiles>  (67) 
CN(CCN(C)C(=O)c1ccccn1)C(=O)N=c1cc(C(=O)N=c2[nH]ccs2)[nH]n1C

>  <score_type>  (67) 
oracle

>  <origin>  (67) 
adg

>  <m_score__min__energy>  (67) 
-9.8699999999999992

>  <m_primary>  (67) 
energy

$$$$
67:0
     RDKit          3D

 35 37  0  0  0  0  0  0  0  0999 V2000
   55.3059   31.0225   43.1215 H   0  0  0  0  0  0  0  0  0  0  0  0
   55.1530   30.1210   43.7330 C   0  0  0  0  0  0  0  0  0  0  0  0
   54.1573   29.6570   43.7892 H   0  0  0  0  0  0  0  0  0  0  0  0
   56.1760   29.5900   44.4070 C   0  0  0  0  0  0  0  0  0  0  0  0
   57.4450   30.0740   44.4040 N   0  0  0  0  0  0  0  0  0  0  0  0
   57.9690   31.2760   43.7450 C   0  0  0  0  0  0  0  0  0  0  0  0
   58.9315   31.0380   43.2686 H   0  0  0  0  0  0  0  0  0  0  0  0
   57.2458   31.6121   42.9874 H   0  0  0  0  0  0  0  0  0  0  0  0
   58.1720   32.3790   44.7510 C   0  0  0  0  0  0  0  0  0  0  0  0
   58.7540   33.5950   44.3530 C   0  0  0  0  0  0  0  0  0  0  0  0
   59.0516   33.7432   43.3045 H   0  0  0  0  0  0  0  0  0  0  0  0
   58.9560   34.6180   45.2870 C   0  0  0  0  0  0  0  0  0  0  0  0
   59.4125   35.5676   44.9711 H   0  0  0  0  0  0  0  0  0  0  0  0
   58.5790   34.4350   46.6190 C   0  0  0  0  0  0  0  0  0  0  0  0
   58.7402   35.2394   47.3518 H   0  0  0  0  0  0  0  0  0  0  0  0
   57.9970   33.2300   47.0210 C   0  0  0  0  0  0  0  0  0  0  0  0
   57.6988   33.0874   48.0702 H   0  0  0  0  0  0  0  0  0  0  0  0
   57.7930   32.2050   46.0920 C   0  0  0  0  0  0  0  0  0  0  0  0
   57.3337   31.2584   46.4129 H   0  0  0  0  0  0  0  0  0  0  0  0
   58.1280   29.2350   45.2100 C   0  0  0  0  0  0  0  0  0  0  0  0
   59.3550   29.3470   45.4760 O   0  0  0  0  0  0  0  0  0  0  0  0
   57.2800   28.2590   45.6900 C   0  0  0  0  0  0  0  0  0  0  0  0
   57.6170   27.2430   46.4980 C   0  0  0  0  0  0  0  0  0  0  0  0
   58.3478   27.4344   47.2975 H   0  0  0  0  0  0  0  0  0  0  0  0
   57.0590   25.8790   46.3720 C   0  0  0  0  0  0  0  0  0  0  0  0
   55.6730   25.6530   46.2920 C   0  0  0  0  0  0  0  0  0  0  0  0
   54.7760   26.7140   46.3280 O   0  0  0  0  0  0  0  0  0  0  0  0
   55.1970   24.3840   46.2010 N   0  0  0  0  0  0  0  0  0  0  0  0
   56.0380   23.3180   46.2020 C   0  0  0  0  0  0  0  0  0  0  0  0
   55.5750   22.1530   46.1120 O   0  0  0  0  0  0  0  0  0  0  0  0
   57.3780   23.5090   46.3080 N   0  0  0  0  0  0  0  0  0  0  0  0
   57.9040   24.7580   46.4000 C   0  0  0  0  0  0  0  0  0  0  0  0
   59.1530   24.8960   46.5010 O   0  0  0  0  0  0  0  0  0  0  0  0
   56.0500   28.4820   45.1760 N   0  0  0  0  0  0  0  0  0  0  0  0
   55.1850   27.9130   45.3120 H   0  0  0  0  0  0  0  0  0  0  0  0
  1  2  1  0
  2  3  1  0
  2  4  2  0
  4  5  1  0
  5  6  1  0
  6  7  1  0
  6  8  1  0
  6  9  1  0
  9 10  2  0
 10 11  1  0
 10 12  1  0
 12 13  1  0
 12 14  2  0
 14 15  1  0
 14 16  1  0
 16 17  1  0
 16 18  2  0
 18 19  1  0
  5 20  1  0
 20 21  2  0
 20 22  1  0
 22 23  2  0
 23 24  1  0
 23 25  1  0
 25 26  2  0
 26 27  1  0
 26 28  1  0
 28 29  1  0
 29 30  2  0
 29 31  1  0
 31 32  1  0
 32 33  2  0
 22 34  1  0
 34 35  1  0
 34  4  1  0
 18  9  1  0
 32 25  1  0
M  CHG  3  27  -1  28  -1  31  -1
M  END
>  <UniqueID>  (68) 
64

>  <SMILES>  (68) 
C=c1[nH]/c(=C\c2c([O-])[n-]c(=O)[n-]c2=O)c(=O)n1Cc1ccccc1

>  <Energy>  (68) 
80.33911062512006

>  <Genealogy>  (68) 
C=c1[nH]c(=Cc2c([O-])[n-]c(=O)[n-]c2=O)c(=O)n1Cc1ccccc1 (protonated)
C=c1[nH]/c(=C\c2c([O-])[n-]c(=O)[n-]c2=O)c(=O)n1Cc1ccccc1 (cis-trans isomerization)
C=c1[nH]/c(=C\c2c([O-])[n-]c(=O)[n-]c2=O)c(=O)n1Cc1ccccc1 (3D coordinates assigned)
C=c1[nH]/c(=C\c2c([O-])[n-]c(=O)[n-]c2=O)c(=O)n1Cc1ccccc1 (optimized conformer: 80.33911062512006 kcal/mol)

>  <smiles>  (68) 
C=c1[nH]c(=Cc2c(O)[nH]c(=O)[nH]c2=O)c(=O)n1Cc1ccccc1

>  <score_type>  (68) 
oracle

>  <origin>  (68) 
adg

>  <m_score__min__energy>  (68) 
-15.81

>  <m_primary>  (68) 
energy

$$$$
68:0
     RDKit          3D

 67 70  0  0  0  0  0  0  0  0999 V2000
   62.5400   30.4690   51.7790 C   0  0  0  0  0  0  0  0  0  0  0  0
   62.1050   29.0310   51.8330 C   0  0  0  0  0  0  0  0  0  0  0  0
   62.8080   28.1740   51.2310 O   0  0  0  0  0  0  0  0  0  0  0  0
   60.9210   28.6160   52.5570 N   0  0  0  0  0  0  0  0  0  0  0  0
   60.3810   27.2590   52.3410 C   0  0  0  0  0  0  0  0  0  0  0  0
   59.7240   26.7190   53.6140 C   0  0  0  0  0  0  0  0  0  0  0  0
   58.8260   27.7270   54.1800 N   0  0  0  0  0  0  0  0  0  0  0  0
   57.5850   27.3370   54.7980 C   0  0  0  0  0  0  0  0  0  0  0  0
   57.5300   26.2700   55.4680 O   0  0  0  0  0  0  0  0  0  0  0  0
   56.3840   28.1960   54.6830 C   0  0  0  0  0  0  0  0  0  0  0  0
   55.3280   28.0610   55.6000 C   0  0  0  0  0  0  0  0  0  0  0  0
   54.1800   28.8480   55.4780 C   0  0  0  0  0  0  0  0  0  0  0  0
   54.0720   29.7680   54.4370 C   0  0  0  0  0  0  0  0  0  0  0  0
   55.1190   29.9230   53.5150 C   0  0  0  0  0  0  0  0  0  0  0  0
   54.9840   30.9160   52.3950 C   0  0  0  0  0  0  0  0  0  0  0  0
   56.0240   30.6850   51.3960 N   0  0  0  0  0  0  0  0  0  0  0  0
   57.3670   31.1700   51.5570 C   0  0  0  0  0  0  0  0  0  0  0  0
   57.7280   31.6760   52.6540 O   0  0  0  0  0  0  0  0  0  0  0  0
   58.3450   31.0440   50.4580 C   0  0  0  0  0  0  0  0  0  0  0  0
   59.1640   32.1240   50.1020 C   0  0  0  0  0  0  0  0  0  0  0  0
   60.0620   32.0100   49.0420 C   0  0  0  0  0  0  0  0  0  0  0  0
   60.1460   30.8230   48.2950 C   0  0  0  0  0  0  0  0  0  0  0  0
   61.0890   30.7730   47.1180 C   0  0  0  0  0  0  0  0  0  0  0  0
   59.3500   29.7120   48.6710 C   0  0  0  0  0  0  0  0  0  0  0  0
   59.3880   28.4270   47.9310 C   0  0  0  0  0  0  0  0  0  0  0  0
   60.6050   27.7630   47.6960 C   0  0  0  0  0  0  0  0  0  0  0  0
   60.6240   26.5460   47.0100 C   0  0  0  0  0  0  0  0  0  0  0  0
   59.4290   25.9750   46.5590 C   0  0  0  0  0  0  0  0  0  0  0  0
   58.2070   26.6190   46.7990 C   0  0  0  0  0  0  0  0  0  0  0  0
   56.7040   25.8780   46.2550 S   0  0  0  0  0  0  0  0  0  0  0  0
   55.6070   27.1110   45.7410 N   0  0  0  0  0  0  0  0  0  0  0  0
   56.0910   25.0940   47.3810 O   0  0  0  0  0  0  0  0  0  0  0  0
   56.9760   24.9460   45.1080 O   0  0  0  0  0  0  0  0  0  0  0  0
   58.1900   27.8390   47.4900 C   0  0  0  0  0  0  0  0  0  0  0  0
   58.4590   29.8360   49.7510 C   0  0  0  0  0  0  0  0  0  0  0  0
   56.2820   29.1460   53.6510 C   0  0  0  0  0  0  0  0  0  0  0  0
   59.3960   29.0500   54.4490 C   0  0  0  0  0  0  0  0  0  0  0  0
   60.0300   29.6120   53.1780 C   0  0  0  0  0  0  0  0  0  0  0  0
   62.6569   30.8554   52.8023 H   0  0  0  0  0  0  0  0  0  0  0  0
   63.5004   30.5419   51.2476 H   0  0  0  0  0  0  0  0  0  0  0  0
   61.7810   31.0620   51.2476 H   0  0  0  0  0  0  0  0  0  0  0  0
   59.6313   27.2943   51.5368 H   0  0  0  0  0  0  0  0  0  0  0  0
   61.2113   26.5919   52.0660 H   0  0  0  0  0  0  0  0  0  0  0  0
   59.1484   25.8136   53.3710 H   0  0  0  0  0  0  0  0  0  0  0  0
   60.5056   26.4779   54.3495 H   0  0  0  0  0  0  0  0  0  0  0  0
   55.4056   27.3310   56.4192 H   0  0  0  0  0  0  0  0  0  0  0  0
   53.3608   28.7413   56.2043 H   0  0  0  0  0  0  0  0  0  0  0  0
   53.1610   30.3763   54.3372 H   0  0  0  0  0  0  0  0  0  0  0  0
   53.9958   30.8033   51.9251 H   0  0  0  0  0  0  0  0  0  0  0  0
   55.0905   31.9335   52.7991 H   0  0  0  0  0  0  0  0  0  0  0  0
   55.7780   30.1210   50.5500 H   0  0  0  0  0  0  0  0  0  0  0  0
   59.0978   33.0680   50.6628 H   0  0  0  0  0  0  0  0  0  0  0  0
   60.7127   32.8595   48.7873 H   0  0  0  0  0  0  0  0  0  0  0  0
   62.1259   30.7180   47.4810 H   0  0  0  0  0  0  0  0  0  0  0  0
   60.8667   29.8854   46.5075 H   0  0  0  0  0  0  0  0  0  0  0  0
   60.9618   31.6792   46.5075 H   0  0  0  0  0  0  0  0  0  0  0  0
   61.5470   28.2040   48.0541 H   0  0  0  0  0  0  0  0  0  0  0  0
   61.5806   26.0357   46.8241 H   0  0  0  0  0  0  0  0  0  0  0  0
   59.4483   25.0191   46.0151 H   0  0  0  0  0  0  0  0  0  0  0  0
   54.7770   27.0620   46.3720 H   0  0  0  0  0  0  0  0  0  0  0  0
   57.2311   28.3400   47.6886 H   0  0  0  0  0  0  0  0  0  0  0  0
   57.8422   28.9745   50.0466 H   0  0  0  0  0  0  0  0  0  0  0  0
   57.1164   29.2814   52.9471 H   0  0  0  0  0  0  0  0  0  0  0  0
   58.5994   29.7278   54.7895 H   0  0  0  0  0  0  0  0  0  0  0  0
   60.1668   28.9602   55.2286 H   0  0  0  0  0  0  0  0  0  0  0  0
   59.2355   29.8797   52.4659 H   0  0  0  0  0  0  0  0  0  0  0  0
   60.6218   30.5012   53.4409 H   0  0  0  0  0  0  0  0  0  0  0  0
  1  2  1  0
  2  3  2  0
  2  4  1  0
  4  5  1  0
  5  6  1  0
  6  7  1  0
  7  8  1  0
  8  9  2  0
  8 10  1  0
 10 11  2  0
 11 12  1  0
 12 13  2  0
 13 14  1  0
 14 15  1  0
 15 16  1  0
 16 17  1  0
 17 18  2  0
 17 19  1  0
 19 20  2  0
 20 21  1  0
 21 22  2  0
 22 23  1  0
 22 24  1  0
 24 25  1  0
 25 26  2  0
 26 27  1  0
 27 28  2  0
 28 29  1  0
 29 30  1  0
 30 31  1  0
 30 32  2  0
 30 33  2  0
 29 34  2  0
 24 35  2  0
 14 36  2  0
  7 37  1  0
 37 38  1  0
 38  4  1  0
 36 10  1  0
 35 19  1  0
 34 25  1  0
  1 39  1  0
  1 40  1  0
  1 41  1  0
  5 42  1  0
  5 43  1  0
  6 44  1  0
  6 45  1  0
 11 46  1  0
 12 47  1  0
 13 48  1  0
 15 49  1  0
 15 50  1  0
 16 51  1  0
 20 52  1  0
 21 53  1  0
 23 54  1  0
 23 55  1  0
 23 56  1  0
 26 57  1  0
 27 58  1  0
 28 59  1  0
 31 60  1  0
 34 61  1  0
 35 62  1  0
 36 63  1  0
 37 64  1  0
 37 65  1  0
 38 66  1  0
 38 67  1  0
M  CHG  1  31  -1
M  END
>  <UniqueID>  (69) 
65

>  <SMILES>  (69) 
CC(=O)N1CCN(C(=O)c2cccc(CNC(=O)c3ccc(C)c(-c4cccc(S([NH-])(=O)=O)c4)c3)c2)CC1

>  <Energy>  (69) 
81.73016494252205

>  <Genealogy>  (69) 
CC(=O)N1CCN(C(=O)c2cccc(CNC(=O)c3ccc(C)c(-c4cccc(S([NH-])(=O)=O)c4)c3)c2)CC1 (protonated)
CC(=O)N1CCN(C(=O)c2cccc(CNC(=O)c3ccc(C)c(-c4cccc(S([NH-])(=O)=O)c4)c3)c2)CC1 (3D coordinates assigned)
CC(=O)N1CCN(C(=O)c2cccc(CNC(=O)c3ccc(C)c(-c4cccc(S([NH-])(=O)=O)c4)c3)c2)CC1 (nonaromatic ring conformer: 81.73016494252205 kcal/mol)

>  <smiles>  (69) 
CC(=O)N1CCN(C(=O)c2cccc(CNC(=O)c3ccc(C)c(-c4cccc(S(N)(=O)=O)c4)c3)c2)CC1

>  <score_type>  (69) 
oracle

>  <origin>  (69) 
adg

>  <m_score__min__energy>  (69) 
-13.4

>  <m_primary>  (69) 
energy

$$$$
69:0
     RDKit          3D

 59 62  0  0  0  0  0  0  0  0999 V2000
   57.5450   21.6140   44.8890 C   0  0  0  0  0  0  0  0  0  0  0  0
   58.0680   22.8310   45.0490 C   0  0  0  0  0  0  0  0  0  0  0  0
   59.2720   23.0000   45.5510 O   0  0  0  0  0  0  0  0  0  0  0  0
   59.4950   24.2810   45.7310 C   0  0  0  0  0  0  0  0  0  0  0  0
   58.3930   25.0010   45.3240 C   0  0  0  0  0  0  0  0  0  0  0  0
   58.2950   26.4760   45.3330 C   0  0  0  0  0  0  0  0  0  0  0  0
   58.1480   27.1780   44.1290 C   0  0  0  0  0  0  0  0  0  0  0  0
   58.1050   28.5750   44.1290 C   0  0  0  0  0  0  0  0  0  0  0  0
   58.1930   29.2900   45.3280 C   0  0  0  0  0  0  0  0  0  0  0  0
   58.1870   30.6930   45.2670 O   0  0  0  0  0  0  0  0  0  0  0  0
   57.8950   31.5620   46.3620 C   0  0  0  0  0  0  0  0  0  0  0  0
   57.3600   32.9070   45.8530 C   0  0  0  0  0  0  0  0  0  0  0  0
   57.9720   34.1390   46.5620 C   0  0  0  0  0  0  0  0  0  0  0  0
   59.3910   34.0270   46.9800 N   0  0  0  0  0  0  0  0  0  0  0  0
   59.6880   34.5970   48.2990 C   0  0  0  0  0  0  0  0  0  0  0  0
   61.0740   34.1430   48.7890 C   0  0  0  0  0  0  0  0  0  0  0  0
   62.0490   33.8610   47.7110 N   0  0  0  0  0  0  0  0  0  0  0  0
   63.3740   33.3810   48.0660 C   0  0  0  0  0  0  0  0  0  0  0  0
   64.2020   33.0970   47.1570 O   0  0  0  0  0  0  0  0  0  0  0  0
   63.7890   33.1570   49.4930 C   0  0  0  0  0  0  0  0  0  0  0  0
   65.1300   32.7410   49.5260 O   0  0  0  0  0  0  0  0  0  0  0  0
   61.7100   33.9040   46.2740 C   0  0  0  0  0  0  0  0  0  0  0  0
   60.3510   34.5330   45.9970 C   0  0  0  0  0  0  0  0  0  0  0  0
   58.2950   28.5810   46.5400 C   0  0  0  0  0  0  0  0  0  0  0  0
   58.3410   27.1860   46.5410 C   0  0  0  0  0  0  0  0  0  0  0  0
   57.4660   24.0790   44.8400 C   0  0  0  0  0  0  0  0  0  0  0  0
   56.2510   24.3950   44.3430 C   0  0  0  0  0  0  0  0  0  0  0  0
   54.9550   24.1030   44.9770 C   0  0  0  0  0  0  0  0  0  0  0  0
   54.2550   22.9650   44.8060 N   0  0  0  0  0  0  0  0  0  0  0  0
   53.0710   23.2360   45.3930 C   0  0  0  0  0  0  0  0  0  0  0  0
   52.1360   22.3940   45.4510 O   0  0  0  0  0  0  0  0  0  0  0  0
   52.9590   24.4820   45.8940 N   0  0  0  0  0  0  0  0  0  0  0  0
   54.1540   25.0210   45.6090 C   0  0  0  0  0  0  0  0  0  0  0  0
   54.5010   26.3340   45.9030 O   0  0  0  0  0  0  0  0  0  0  0  0
   56.5357   21.5003   44.4667 H   0  0  0  0  0  0  0  0  0  0  0  0
   58.1232   20.7244   45.1793 H   0  0  0  0  0  0  0  0  0  0  0  0
   60.4189   24.7129   46.1431 H   0  0  0  0  0  0  0  0  0  0  0  0
   58.0661   26.6274   43.1803 H   0  0  0  0  0  0  0  0  0  0  0  0
   58.0010   29.1171   43.1775 H   0  0  0  0  0  0  0  0  0  0  0  0
   57.1373   31.0912   47.0056 H   0  0  0  0  0  0  0  0  0  0  0  0
   58.8192   31.7394   46.9316 H   0  0  0  0  0  0  0  0  0  0  0  0
   57.5805   32.9821   44.7780 H   0  0  0  0  0  0  0  0  0  0  0  0
   56.2811   32.9210   46.0671 H   0  0  0  0  0  0  0  0  0  0  0  0
   57.8931   34.9936   45.8739 H   0  0  0  0  0  0  0  0  0  0  0  0
   57.4019   34.2493   47.4963 H   0  0  0  0  0  0  0  0  0  0  0  0
   59.6713   35.6947   48.2299 H   0  0  0  0  0  0  0  0  0  0  0  0
   58.9286   34.2476   49.0140 H   0  0  0  0  0  0  0  0  0  0  0  0
   61.4889   34.9370   49.4273 H   0  0  0  0  0  0  0  0  0  0  0  0
   60.9192   33.1945   49.3242 H   0  0  0  0  0  0  0  0  0  0  0  0
   63.6809   34.0942   50.0587 H   0  0  0  0  0  0  0  0  0  0  0  0
   63.1516   32.3829   49.9452 H   0  0  0  0  0  0  0  0  0  0  0  0
   65.4330   32.7050   48.5800 H   0  0  0  0  0  0  0  0  0  0  0  0
   62.4798   34.4901   45.7505 H   0  0  0  0  0  0  0  0  0  0  0  0
   61.6681   32.8645   45.9167 H   0  0  0  0  0  0  0  0  0  0  0  0
   60.4254   35.6272   46.0814 H   0  0  0  0  0  0  0  0  0  0  0  0
   60.0184   34.2749   44.9807 H   0  0  0  0  0  0  0  0  0  0  0  0
   58.3387   29.1299   47.4922 H   0  0  0  0  0  0  0  0  0  0  0  0
   58.4137   26.6412   47.4939 H   0  0  0  0  0  0  0  0  0  0  0  0
   56.2275   24.9185   43.3759 H   0  0  0  0  0  0  0  0  0  0  0  0
  1  2  2  0
  2  3  1  0
  3  4  1  0
  4  5  2  0
  5  6  1  0
  6  7  2  0
  7  8  1  0
  8  9  2  0
  9 10  1  0
 10 11  1  0
 11 12  1  0
 12 13  1  0
 13 14  1  0
 14 15  1  0
 15 16  1  0
 16 17  1  0
 17 18  1  0
 18 19  2  0
 18 20  1  0
 20 21  1  0
 17 22  1  0
 22 23  1  0
  9 24  1  0
 24 25  2  0
  5 26  1  0
 26 27  2  3
 27 28  1  0
 28 29  1  0
 29 30  1  0
 30 31  2  0
 30 32  1  0
 32 33  1  0
 33 34  1  0
 26  2  1  0
 33 28  2  0
 25  6  1  0
 23 14  1  0
  1 35  1  0
  1 36  1  0
  4 37  1  0
  7 38  1  0
  8 39  1  0
 11 40  1  0
 11 41  1  0
 12 42  1  0
 12 43  1  0
 13 44  1  0
 13 45  1  0
 15 46  1  0
 15 47  1  0
 16 48  1  0
 16 49  1  0
 20 50  1  0
 20 51  1  0
 21 52  1  0
 22 53  1  0
 22 54  1  0
 23 55  1  0
 23 56  1  0
 24 57  1  0
 25 58  1  0
 27 59  1  0
M  CHG  3  29  -1  32  -1  34  -1
M  END
>  <UniqueID>  (70) 
66

>  <SMILES>  (70) 
C=c1occ(-c2ccc(OCCCN3CCN(C(=O)CO)CC3)cc2)c1=Cc1[n-]c(=O)[n-]c1[O-]

>  <Energy>  (70) 
143.40554165212663

>  <Genealogy>  (70) 
C=c1occ(-c2ccc(OCCCN3CCN(C(=O)CO)CC3)cc2)c1=Cc1[n-]c(=O)[n-]c1[O-] (protonated)
C=c1occ(-c2ccc(OCCCN3CCN(C(=O)CO)CC3)cc2)c1=Cc1[n-]c(=O)[n-]c1[O-] (3D coordinates assigned)
C=c1occ(-c2ccc(OCCCN3CCN(C(=O)CO)CC3)cc2)c1=Cc1[n-]c(=O)[n-]c1[O-] (nonaromatic ring conformer: 143.40554165212663 kcal/mol)

>  <smiles>  (70) 
C=c1occ(-c2ccc(OCCCN3CCN(C(=O)CO)CC3)cc2)c1=Cc1[nH]c(=O)[nH]c1O

>  <score_type>  (70) 
oracle

>  <origin>  (70) 
adg

>  <m_score__min__energy>  (70) 
-18.890000000000001

>  <m_primary>  (70) 
energy

$$$$
70:0
     RDKit          3D

 34 36  0  0  0  0  0  0  0  0999 V2000
   53.1724   24.8052   45.1230 H   0  0  0  0  0  0  0  0  0  0  0  0
   54.1490   24.8780   45.6240 C   0  0  0  0  0  0  0  0  0  0  0  0
   54.7930   26.0630   45.8120 N   0  0  0  0  0  0  0  0  0  0  0  0
   55.9060   25.6770   46.4450 C   0  0  0  0  0  0  0  0  0  0  0  0
   56.9190   26.4750   46.8630 N   0  0  0  0  0  0  0  0  0  0  0  0
   57.9900   25.8940   47.4850 C   0  0  0  0  0  0  0  0  0  0  0  0
   58.9870   26.6400   47.8630 N   0  0  0  0  0  0  0  0  0  0  0  0
   60.4030   26.3390   47.6360 C   0  0  0  0  0  0  0  0  0  0  0  0
   60.5229   25.2530   47.5083 H   0  0  0  0  0  0  0  0  0  0  0  0
   60.9777   26.6936   48.5043 H   0  0  0  0  0  0  0  0  0  0  0  0
   60.9290   27.0520   46.3810 C   0  0  0  0  0  0  0  0  0  0  0  0
   61.2938   26.2964   45.6697 H   0  0  0  0  0  0  0  0  0  0  0  0
   61.7378   27.7308   46.6892 H   0  0  0  0  0  0  0  0  0  0  0  0
   59.8600   27.8750   45.7110 C   0  0  0  0  0  0  0  0  0  0  0  0
   59.5710   29.1700   46.1710 C   0  0  0  0  0  0  0  0  0  0  0  0
   60.1918   29.6235   46.9577 H   0  0  0  0  0  0  0  0  0  0  0  0
   58.4980   29.8840   45.6330 C   0  0  0  0  0  0  0  0  0  0  0  0
   58.2761   30.8972   45.9993 H   0  0  0  0  0  0  0  0  0  0  0  0
   57.7030   29.3160   44.6290 C   0  0  0  0  0  0  0  0  0  0  0  0
   56.3180   30.2050   44.0050 S   0  0  0  0  0  0  0  0  0  0  0  0
   55.0550   29.4690   44.3520 O   0  0  0  0  0  0  0  0  0  0  0  0
   56.2720   31.5810   44.6060 O   0  0  0  0  0  0  0  0  0  0  0  0
   56.4570   30.3460   42.2870 N   0  0  0  0  0  0  0  0  0  0  0  0
   57.4200   30.0310   42.0310 H   0  0  0  0  0  0  0  0  0  0  0  0
   55.7920   29.6580   41.8680 H   0  0  0  0  0  0  0  0  0  0  0  0
   58.0070   28.0350   44.1480 C   0  0  0  0  0  0  0  0  0  0  0  0
   57.4005   27.5934   43.3435 H   0  0  0  0  0  0  0  0  0  0  0  0
   59.0780   27.3170   44.6870 C   0  0  0  0  0  0  0  0  0  0  0  0
   59.3093   26.3108   44.3075 H   0  0  0  0  0  0  0  0  0  0  0  0
   58.0130   24.5320   47.6820 N   0  0  0  0  0  0  0  0  0  0  0  0
   56.9920   23.7330   47.2560 C   0  0  0  0  0  0  0  0  0  0  0  0
   57.0330   22.4880   47.4340 O   0  0  0  0  0  0  0  0  0  0  0  0
   55.9210   24.3400   46.6190 C   0  0  0  0  0  0  0  0  0  0  0  0
   54.8110   23.7910   46.1060 N   0  0  0  0  0  0  0  0  0  0  0  0
  1  2  1  0
  2  3  2  0
  3  4  1  0
  4  5  1  0
  5  6  1  0
  6  7  2  0
  7  8  1  0
  8  9  1  0
  8 10  1  0
  8 11  1  0
 11 12  1  0
 11 13  1  0
 11 14  1  0
 14 15  2  0
 15 16  1  0
 15 17  1  0
 17 18  1  0
 17 19  2  0
 19 20  1  0
 20 21  2  0
 20 22  2  0
 20 23  1  0
 23 24  1  0
 23 25  1  0
 19 26  1  0
 26 27  1  0
 26 28  2  0
 28 29  1  0
  6 30  1  0
 30 31  1  0
 31 32  2  0
 31 33  1  0
 33 34  1  0
 34  2  1  0
 33  4  2  0
 28 14  1  0
M  CHG  3   5  -1  30  -1  34  -1
M  END
>  <UniqueID>  (71) 
67

>  <SMILES>  (71) 
NS(=O)(=O)c1ccc(CC/N=c2\[n-]c(=O)c3[n-]cnc3[n-]2)cc1

>  <Energy>  (71) 
69.32043610339831

>  <Genealogy>  (71) 
NS(=O)(=O)c1ccc(CCN=c2[n-]c(=O)c3[n-]cnc3[n-]2)cc1 (protonated)
NS(=O)(=O)c1ccc(CC/N=c2\[n-]c(=O)c3[n-]cnc3[n-]2)cc1 (cis-trans isomerization)
NS(=O)(=O)c1ccc(CC/N=c2\[n-]c(=O)c3[n-]cnc3[n-]2)cc1 (3D coordinates assigned)
NS(=O)(=O)c1ccc(CC/N=c2\[n-]c(=O)c3[n-]cnc3[n-]2)cc1 (optimized conformer: 69.32043610339831 kcal/mol)

>  <smiles>  (71) 
NS(=O)(=O)c1ccc(CCN=c2[nH]c(=O)c3[nH]cnc3[nH]2)cc1

>  <score_type>  (71) 
oracle

>  <origin>  (71) 
adg

>  <m_score__min__energy>  (71) 
-12.56

>  <m_primary>  (71) 
energy

$$$$
71:0
     RDKit          3D

 53 55  0  0  0  0  0  0  0  0999 V2000
   59.4351   34.8602   44.3944 H   0  0  0  0  0  0  0  0  0  0  0  0
   59.3730   34.4860   45.4270 C   0  0  0  0  0  0  0  0  0  0  0  0
   59.9630   35.2680   46.7970 S   0  0  0  0  0  0  0  0  0  0  0  0
   59.4450   34.0590   47.8340 C   0  0  0  0  0  0  0  0  0  0  0  0
   59.6130   34.0970   49.1220 N   0  0  0  0  0  0  0  0  0  0  0  0
   60.8200   33.8120   49.8500 C   0  0  0  0  0  0  0  0  0  0  0  0
   60.8510   32.7870   50.5840 O   0  0  0  0  0  0  0  0  0  0  0  0
   62.0980   34.5880   49.6570 C   0  0  0  0  0  0  0  0  0  0  0  0
   61.9234   35.3985   48.9341 H   0  0  0  0  0  0  0  0  0  0  0  0
   62.4107   35.0042   50.6260 H   0  0  0  0  0  0  0  0  0  0  0  0
   63.4210   33.4980   49.0290 S   0  0  0  0  0  0  0  0  0  0  0  0
   62.4280   32.7340   47.7230 C   0  0  0  0  0  0  0  0  0  0  0  0
   62.4830   33.3670   46.4280 S   0  0  0  0  0  0  0  0  0  0  0  0
   61.4420   31.6780   47.9770 N   0  0  2  0  0  0  0  0  0  0  0  0
   60.5540   32.1580   48.2540 H   0  0  0  0  0  0  0  0  0  0  0  0
   61.8120   30.7730   49.0990 C   0  0  0  0  0  0  0  0  0  0  0  0
   62.8906   30.5666   49.0364 H   0  0  0  0  0  0  0  0  0  0  0  0
   61.5344   31.2885   50.0302 H   0  0  0  0  0  0  0  0  0  0  0  0
   61.0550   29.4210   49.0900 C   0  0  0  0  0  0  0  0  0  0  0  0
   61.7093   28.6624   48.6355 H   0  0  0  0  0  0  0  0  0  0  0  0
   60.8014   29.1940   50.1360 H   0  0  0  0  0  0  0  0  0  0  0  0
   59.7290   29.4450   48.3090 C   0  0  1  0  0  0  0  0  0  0  0  0
   59.4146   28.4018   48.1579 H   0  0  0  0  0  0  0  0  0  0  0  0
   58.6150   30.1340   49.1160 C   0  0  0  0  0  0  0  0  0  0  0  0
   58.8122   30.0121   50.1913 H   0  0  0  0  0  0  0  0  0  0  0  0
   58.5906   31.2051   48.8669 H   0  0  0  0  0  0  0  0  0  0  0  0
   57.6457   29.6774   48.8669 H   0  0  0  0  0  0  0  0  0  0  0  0
   59.9020   30.0560   46.8940 C   0  0  0  0  0  0  0  0  0  0  0  0
   59.9380   29.2363   46.1614 H   0  0  0  0  0  0  0  0  0  0  0  0
   59.0480   30.7275   46.7215 H   0  0  0  0  0  0  0  0  0  0  0  0
   61.1820   30.8980   46.7490 C   0  0  0  0  0  0  0  0  0  0  0  0
   62.0341   30.2284   46.5605 H   0  0  0  0  0  0  0  0  0  0  0  0
   61.0497   31.5970   45.9100 H   0  0  0  0  0  0  0  0  0  0  0  0
   58.8470   33.0480   47.1690 N   0  0  0  0  0  0  0  0  0  0  0  0
   58.7900   33.2780   45.8280 C   0  0  0  0  0  0  0  0  0  0  0  0
   58.0990   32.3260   44.9140 C   0  0  0  0  0  0  0  0  0  0  0  0
   58.1440   32.5400   43.5240 C   0  0  0  0  0  0  0  0  0  0  0  0
   58.6784   33.4141   43.1236 H   0  0  0  0  0  0  0  0  0  0  0  0
   57.5160   31.6520   42.6490 C   0  0  0  0  0  0  0  0  0  0  0  0
   57.5642   31.8264   41.5640 H   0  0  0  0  0  0  0  0  0  0  0  0
   56.8280   30.5450   43.1440 C   0  0  0  0  0  0  0  0  0  0  0  0
   56.3333   29.8507   42.4489 H   0  0  0  0  0  0  0  0  0  0  0  0
   56.7650   30.3140   44.5290 C   0  0  0  0  0  0  0  0  0  0  0  0
   56.0660   29.1920   45.0860 N   0  0  0  0  0  0  0  0  0  0  0  0
   56.7900   27.7090   45.6180 S   0  0  0  0  0  0  0  0  0  0  0  0
   55.6980   26.7240   45.9350 O   0  0  0  0  0  0  0  0  0  0  0  0
   57.6000   27.9480   46.8630 O   0  0  0  0  0  0  0  0  0  0  0  0
   57.8150   27.0300   44.3300 C   0  0  0  0  0  0  0  0  0  0  0  0
   58.6515   26.4759   44.7809 H   0  0  0  0  0  0  0  0  0  0  0  0
   57.2174   26.3486   43.7067 H   0  0  0  0  0  0  0  0  0  0  0  0
   58.2094   27.8461   43.7067 H   0  0  0  0  0  0  0  0  0  0  0  0
   57.4030   31.2020   45.4040 C   0  0  0  0  0  0  0  0  0  0  0  0
   57.3606   31.0201   46.4880 H   0  0  0  0  0  0  0  0  0  0  0  0
  1  2  1  0
  2  3  1  0
  3  4  1  0
  4  5  2  0
  5  6  1  0
  6  7  2  0
  6  8  1  0
  8  9  1  0
  8 10  1  0
  8 11  1  0
 11 12  1  0
 12 13  2  0
 12 14  1  0
 14 15  1  6
 14 16  1  0
 16 17  1  0
 16 18  1  0
 16 19  1  0
 19 20  1  0
 19 21  1  0
 19 22  1  0
 22 23  1  1
 22 24  1  0
 24 25  1  0
 24 26  1  0
 24 27  1  0
 22 28  1  0
 28 29  1  0
 28 30  1  0
 28 31  1  0
 31 32  1  0
 31 33  1  0
  4 34  1  0
 34 35  1  0
 35 36  1  0
 36 37  2  0
 37 38  1  0
 37 39  1  0
 39 40  1  0
 39 41  2  0
 41 42  1  0
 41 43  1  0
 43 44  1  0
 44 45  1  0
 45 46  2  0
 45 47  2  0
 45 48  1  0
 48 49  1  0
 48 50  1  0
 48 51  1  0
 43 52  2  0
 52 53  1  0
 35  2  2  0
 52 36  1  0
 31 14  1  0
M  CHG  3  14   1  34  -1  44  -1
M  END
>  <UniqueID>  (72) 
68

>  <SMILES>  (72) 
CC1CC[NH+](C(=S)SCC(=O)/N=c2\[n-]c(-c3cccc([N-]S(C)(=O)=O)c3)cs2)CC1

>  <Energy>  (72) 
95.51682752719698

>  <Genealogy>  (72) 
CC1CC[NH+](C(=S)SCC(=O)N=c2[n-]c(-c3cccc([N-]S(C)(=O)=O)c3)cs2)CC1 (protonated)
CC1CC[NH+](C(=S)SCC(=O)/N=c2\[n-]c(-c3cccc([N-]S(C)(=O)=O)c3)cs2)CC1 (cis-trans isomerization)
CC1CC[NH+](C(=S)SCC(=O)/N=c2\[n-]c(-c3cccc([N-]S(C)(=O)=O)c3)cs2)CC1 (3D coordinates assigned)
CC1CC[NH+](C(=S)SCC(=O)/N=c2\[n-]c(-c3cccc([N-]S(C)(=O)=O)c3)cs2)CC1 (nonaromatic ring conformer: 95.51682752719698 kcal/mol)

>  <smiles>  (72) 
CC1CCN(C(=S)SCC(=O)N=c2[nH]c(-c3cccc(NS(C)(=O)=O)c3)cs2)CC1

>  <score_type>  (72) 
oracle

>  <origin>  (72) 
adg

>  <m_score__min__energy>  (72) 
-10.92

>  <m_primary>  (72) 
energy

$$$$
72:0
     RDKit          3D

 52 54  0  0  0  0  0  0  0  0999 V2000
   58.5000   34.5360   52.3720 C   0  0  0  0  0  0  0  0  0  0  0  0
   58.9640   33.1390   52.3080 N   0  0  0  0  0  0  0  0  0  0  0  0
   58.0180   32.2760   51.5510 C   0  0  0  0  0  0  0  0  0  0  0  0
   58.5140   31.8880   50.1450 C   0  0  0  0  0  0  0  0  0  0  0  0
   59.3320   32.9640   49.5770 N   0  0  0  0  0  0  0  0  0  0  0  0
   59.1220   33.4510   48.2370 C   0  0  0  0  0  0  0  0  0  0  0  0
   58.2360   32.8020   47.3620 C   0  0  0  0  0  0  0  0  0  0  0  0
   58.0320   33.3150   46.0730 C   0  0  0  0  0  0  0  0  0  0  0  0
   57.0680   32.6380   45.1260 C   0  0  0  0  0  0  0  0  0  0  0  0
   57.0870   31.1710   45.2610 N   0  0  0  0  0  0  0  0  0  0  0  0
   58.0560   30.5250   44.3620 C   0  0  0  0  0  0  0  0  0  0  0  0
   58.4300   29.1570   44.8670 C   0  0  0  0  0  0  0  0  0  0  0  0
   59.7760   28.8160   45.0770 C   0  0  0  0  0  0  0  0  0  0  0  0
   60.1130   27.5510   45.5640 C   0  0  0  0  0  0  0  0  0  0  0  0
   59.1120   26.6150   45.8410 C   0  0  0  0  0  0  0  0  0  0  0  0
   57.7670   26.9400   45.6250 C   0  0  0  0  0  0  0  0  0  0  0  0
   56.5020   25.7720   45.9920 S   0  0  0  0  0  0  0  0  0  0  0  0
   56.5390   24.4650   44.7870 C   0  0  0  0  0  0  0  0  0  0  0  0
   56.7220   25.1990   47.3630 O   0  0  0  0  0  0  0  0  0  0  0  0
   55.1590   26.4450   45.9590 O   0  0  0  0  0  0  0  0  0  0  0  0
   57.4280   28.2120   45.1430 C   0  0  0  0  0  0  0  0  0  0  0  0
   58.7150   34.4760   45.6830 C   0  0  0  0  0  0  0  0  0  0  0  0
   59.5730   35.1040   46.5850 C   0  0  0  0  0  0  0  0  0  0  0  0
   59.7510   34.5870   47.8290 N   0  0  0  0  0  0  0  0  0  0  0  0
   60.4800   33.4510   50.3460 C   0  0  0  0  0  0  0  0  0  0  0  0
   60.3590   33.0450   51.8260 C   0  0  0  0  0  0  0  0  0  0  0  0
   58.3987   34.8409   53.4240 H   0  0  0  0  0  0  0  0  0  0  0  0
   59.2298   35.1881   51.8699 H   0  0  0  0  0  0  0  0  0  0  0  0
   57.5251   34.6219   51.8699 H   0  0  0  0  0  0  0  0  0  0  0  0
   57.8543   31.3534   52.1272 H   0  0  0  0  0  0  0  0  0  0  0  0
   57.0949   32.8584   51.4140 H   0  0  0  0  0  0  0  0  0  0  0  0
   59.1180   30.9712   50.2139 H   0  0  0  0  0  0  0  0  0  0  0  0
   57.6439   31.7192   49.4935 H   0  0  0  0  0  0  0  0  0  0  0  0
   57.7044   31.8952   47.6863 H   0  0  0  0  0  0  0  0  0  0  0  0
   56.0511   32.9994   45.3386 H   0  0  0  0  0  0  0  0  0  0  0  0
   57.3764   32.8849   44.0994 H   0  0  0  0  0  0  0  0  0  0  0  0
   56.1350   30.7930   45.0520 H   0  0  0  0  0  0  0  0  0  0  0  0
   57.6101   30.4296   43.3609 H   0  0  0  0  0  0  0  0  0  0  0  0
   58.9641   31.1444   44.3214 H   0  0  0  0  0  0  0  0  0  0  0  0
   60.5675   29.5475   44.8572 H   0  0  0  0  0  0  0  0  0  0  0  0
   61.1687   27.2905   45.7300 H   0  0  0  0  0  0  0  0  0  0  0  0
   59.3813   25.6217   46.2292 H   0  0  0  0  0  0  0  0  0  0  0  0
   56.5665   23.4929   45.3011 H   0  0  0  0  0  0  0  0  0  0  0  0
   55.6389   24.5213   44.1572 H   0  0  0  0  0  0  0  0  0  0  0  0
   57.4345   24.5722   44.1572 H   0  0  0  0  0  0  0  0  0  0  0  0
   56.3715   28.4715   44.9800 H   0  0  0  0  0  0  0  0  0  0  0  0
   58.5749   34.8883   44.6728 H   0  0  0  0  0  0  0  0  0  0  0  0
   60.1066   36.0193   46.2891 H   0  0  0  0  0  0  0  0  0  0  0  0
   61.4023   33.0210   49.9284 H   0  0  0  0  0  0  0  0  0  0  0  0
   60.5064   34.5489   50.2828 H   0  0  0  0  0  0  0  0  0  0  0  0
   60.7063   32.0075   51.9403 H   0  0  0  0  0  0  0  0  0  0  0  0
   60.9743   33.7353   52.4218 H   0  0  0  0  0  0  0  0  0  0  0  0
  1  2  1  0
  2  3  1  0
  3  4  1  0
  4  5  1  0
  5  6  1  0
  6  7  2  0
  7  8  1  0
  8  9  1  0
  9 10  1  0
 10 11  1  0
 11 12  1  0
 12 13  2  0
 13 14  1  0
 14 15  2  0
 15 16  1  0
 16 17  1  0
 17 18  1  0
 17 19  2  0
 17 20  2  0
 16 21  2  0
  8 22  2  0
 22 23  1  0
 23 24  2  0
  5 25  1  0
 25 26  1  0
 26  2  1  0
 24  6  1  0
 21 12  1  0
  1 27  1  0
  1 28  1  0
  1 29  1  0
  3 30  1  0
  3 31  1  0
  4 32  1  0
  4 33  1  0
  7 34  1  0
  9 35  1  0
  9 36  1  0
 10 37  1  0
 11 38  1  0
 11 39  1  0
 13 40  1  0
 14 41  1  0
 15 42  1  0
 18 43  1  0
 18 44  1  0
 18 45  1  0
 21 46  1  0
 22 47  1  0
 23 48  1  0
 25 49  1  0
 25 50  1  0
 26 51  1  0
 26 52  1  0
M  END
>  <UniqueID>  (73) 
69

>  <SMILES>  (73) 
CN1CCN(c2cc(CNCc3cccc(S(C)(=O)=O)c3)ccn2)CC1

>  <Energy>  (73) 
60.621965260228706

>  <Genealogy>  (73) 
CN1CCN(c2cc(CNCc3cccc(S(C)(=O)=O)c3)ccn2)CC1 (3D coordinates assigned)
CN1CCN(c2cc(CNCc3cccc(S(C)(=O)=O)c3)ccn2)CC1 (nonaromatic ring conformer: 60.621965260228706 kcal/mol)

>  <smiles>  (73) 
CN1CCN(c2cc(CNCc3cccc(S(C)(=O)=O)c3)ccn2)CC1

>  <score_type>  (73) 
oracle

>  <origin>  (73) 
adg

>  <m_score__min__energy>  (73) 
-9.1300000000000008

>  <m_primary>  (73) 
energy

$$$$
73:0
     RDKit          3D

 53 56  0  0  0  0  0  0  0  0999 V2000
   54.3440   26.7150   45.9680 H   0  0  0  0  0  0  0  0  0  0  0  0
   54.0410   25.8070   45.6350 O   0  0  0  0  0  0  0  0  0  0  0  0
   54.9550   24.8410   45.2120 C   0  0  0  0  0  0  0  0  0  0  0  0
   54.5980   23.9370   44.2010 C   0  0  0  0  0  0  0  0  0  0  0  0
   53.5967   23.9890   43.7486 H   0  0  0  0  0  0  0  0  0  0  0  0
   55.5080   22.9710   43.7660 C   0  0  0  0  0  0  0  0  0  0  0  0
   55.2220   22.2635   42.9738 H   0  0  0  0  0  0  0  0  0  0  0  0
   56.7800   22.9030   44.3360 C   0  0  0  0  0  0  0  0  0  0  0  0
   57.4963   22.1425   43.9916 H   0  0  0  0  0  0  0  0  0  0  0  0
   57.1450   23.8000   45.3440 C   0  0  0  0  0  0  0  0  0  0  0  0
   58.1512   23.7459   45.7852 H   0  0  0  0  0  0  0  0  0  0  0  0
   56.2350   24.7710   45.7980 C   0  0  0  0  0  0  0  0  0  0  0  0
   56.6570   25.7560   46.8570 C   0  0  0  0  0  0  0  0  0  0  0  0
   57.2917   25.2454   47.5962 H   0  0  0  0  0  0  0  0  0  0  0  0
   55.7604   26.1612   47.3489 H   0  0  0  0  0  0  0  0  0  0  0  0
   57.4080   26.8550   46.2520 N   0  0  0  0  0  0  0  0  0  0  0  0
   56.9250   27.9140   45.5830 C   0  0  0  0  0  0  0  0  0  0  0  0
   55.5740   28.1860   45.3990 O   0  0  0  0  0  0  0  0  0  0  0  0
   57.9770   28.6760   45.1260 C   0  0  0  0  0  0  0  0  0  0  0  0
   57.8610   29.9810   44.4580 C   0  0  0  0  0  0  0  0  0  0  0  0
   57.3615   30.0015   43.4782 H   0  0  0  0  0  0  0  0  0  0  0  0
   58.3140   31.1540   44.9430 C   0  0  0  0  0  0  0  0  0  0  0  0
   58.3770   32.3060   44.1760 C   0  0  0  0  0  0  0  0  0  0  0  0
   58.1335   32.3952   43.1070 H   0  0  0  0  0  0  0  0  0  0  0  0
   58.8030   33.3190   45.0080 C   0  0  0  0  0  0  0  0  0  0  0  0
   58.9820   34.7490   44.5950 C   0  0  0  0  0  0  0  0  0  0  0  0
   59.0613   35.3822   45.4910 H   0  0  0  0  0  0  0  0  0  0  0  0
   59.8992   34.8455   43.9955 H   0  0  0  0  0  0  0  0  0  0  0  0
   58.1168   35.0686   43.9955 H   0  0  0  0  0  0  0  0  0  0  0  0
   59.0390   32.8410   46.2470 N   0  0  0  0  0  0  0  0  0  0  0  0
   59.5370   33.6150   47.3520 C   0  0  0  0  0  0  0  0  0  0  0  0
   58.7170   34.1600   48.1380 O   0  0  0  0  0  0  0  0  0  0  0  0
   60.9530   33.7790   47.5640 N   0  0  0  0  0  0  0  0  0  0  0  0
   61.4300   34.1950   48.8880 C   0  0  0  0  0  0  0  0  0  0  0  0
   61.0607   35.2086   49.1029 H   0  0  0  0  0  0  0  0  0  0  0  0
   61.0537   33.4848   49.6390 H   0  0  0  0  0  0  0  0  0  0  0  0
   62.9560   34.1970   48.9350 C   0  0  0  0  0  0  0  0  0  0  0  0
   63.3378   35.1146   48.4635 H   0  0  0  0  0  0  0  0  0  0  0  0
   63.2944   34.1592   49.9810 H   0  0  0  0  0  0  0  0  0  0  0  0
   63.4410   33.0710   48.2380 O   0  0  0  0  0  0  0  0  0  0  0  0
   63.2940   33.2690   46.8430 C   0  0  0  0  0  0  0  0  0  0  0  0
   64.0281   34.0220   46.5205 H   0  0  0  0  0  0  0  0  0  0  0  0
   63.4533   32.2924   46.3626 H   0  0  0  0  0  0  0  0  0  0  0  0
   61.8840   33.7520   46.4250 C   0  0  0  0  0  0  0  0  0  0  0  0
   61.9649   34.7666   46.0077 H   0  0  0  0  0  0  0  0  0  0  0  0
   61.4894   33.0465   45.6789 H   0  0  0  0  0  0  0  0  0  0  0  0
   58.7710   31.5100   46.2240 C   0  0  0  0  0  0  0  0  0  0  0  0
   59.0250   30.6900   47.2560 C   0  0  0  0  0  0  0  0  0  0  0  0
   59.3811   31.1025   48.2115 H   0  0  0  0  0  0  0  0  0  0  0  0
   58.8771   29.6055   47.1461 H   0  0  0  0  0  0  0  0  0  0  0  0
   59.1400   28.1260   45.5400 N   0  0  0  0  0  0  0  0  0  0  0  0
   58.7490   27.0150   46.2030 C   0  0  0  0  0  0  0  0  0  0  0  0
   59.5640   26.2120   46.7300 O   0  0  0  0  0  0  0  0  0  0  0  0
  1  2  1  0
  2  3  1  0
  3  4  2  0
  4  5  1  0
  4  6  1  0
  6  7  1  0
  6  8  2  0
  8  9  1  0
  8 10  1  0
 10 11  1  0
 10 12  2  0
 12 13  1  0
 13 14  1  0
 13 15  1  0
 13 16  1  0
 16 17  1  0
 17 18  1  0
 17 19  2  0
 19 20  1  0
 20 21  1  0
 20 22  2  0
 22 23  1  0
 23 24  1  0
 23 25  2  0
 25 26  1  0
 26 27  1  0
 26 28  1  0
 26 29  1  0
 25 30  1  0
 30 31  1  0
 31 32  2  0
 31 33  1  0
 33 34  1  0
 34 35  1  0
 34 36  1  0
 34 37  1  0
 37 38  1  0
 37 39  1  0
 37 40  1  0
 40 41  1  0
 41 42  1  0
 41 43  1  0
 41 44  1  0
 44 45  1  0
 44 46  1  0
 30 47  1  0
 47 48  2  0
 48 49  1  0
 48 50  1  0
 19 51  1  0
 51 52  1  0
 52 53  2  0
 12  3  1  0
 52 16  1  0
 47 22  1  0
 44 33  1  0
M  CHG  2  18  -1  51  -1
M  END
>  <UniqueID>  (74) 
70

>  <SMILES>  (74) 
C=c1/c(=C\c2[n-]c(=O)n(Cc3ccccc3O)c2[O-])cc(C)n1C(=O)N1CCOCC1

>  <Energy>  (74) 
138.16227983223584

>  <Genealogy>  (74) 
C=c1c(=Cc2[n-]c(=O)n(Cc3ccccc3O)c2[O-])cc(C)n1C(=O)N1CCOCC1 (protonated)
C=c1/c(=C\c2[n-]c(=O)n(Cc3ccccc3O)c2[O-])cc(C)n1C(=O)N1CCOCC1 (cis-trans isomerization)
C=c1/c(=C\c2[n-]c(=O)n(Cc3ccccc3O)c2[O-])cc(C)n1C(=O)N1CCOCC1 (3D coordinates assigned)
C=c1/c(=C\c2[n-]c(=O)n(Cc3ccccc3O)c2[O-])cc(C)n1C(=O)N1CCOCC1 (nonaromatic ring conformer: 138.16227983223584 kcal/mol)

>  <smiles>  (74) 
C=c1c(=Cc2[nH]c(=O)n(Cc3ccccc3O)c2O)cc(C)n1C(=O)N1CCOCC1

>  <score_type>  (74) 
oracle

>  <origin>  (74) 
adg

>  <m_score__min__energy>  (74) 
-14.18

>  <m_primary>  (74) 
energy

$$$$
74:0
     RDKit          3D

 79 83  0  0  0  0  0  0  0  0999 V2000
   65.6500   32.3580   49.8610 C   0  0  0  0  0  0  0  0  0  0  0  0
   64.7090   33.4520   50.3500 C   0  0  0  0  0  0  0  0  0  0  0  0
   63.4300   33.3970   49.6330 N   0  0  0  0  0  0  0  0  0  0  0  0
   62.1500   33.3880   50.3670 C   0  0  0  0  0  0  0  0  0  0  0  0
   61.7970   31.9920   50.8180 C   0  0  0  0  0  0  0  0  0  0  0  0
   62.7000   30.9340   50.6300 C   0  0  0  0  0  0  0  0  0  0  0  0
   62.3080   29.6140   50.8830 C   0  0  0  0  0  0  0  0  0  0  0  0
   61.0080   29.3440   51.3200 C   0  0  0  0  0  0  0  0  0  0  0  0
   60.1040   30.4000   51.5280 C   0  0  0  0  0  0  0  0  0  0  0  0
   58.7140   30.1490   51.9490 C   0  0  0  0  0  0  0  0  0  0  0  0
   58.0150   29.3610   51.2470 O   0  0  0  0  0  0  0  0  0  0  0  0
   58.2260   30.6410   53.2250 N   0  0  1  0  0  0  0  0  0  0  0  0
   57.6580   32.0050   53.1510 C   0  0  0  0  0  0  0  0  0  0  0  0
   56.3300   32.0890   52.3630 C   0  0  0  0  0  0  0  0  0  0  0  0
   55.4510   30.8760   52.5330 C   0  0  0  0  0  0  0  0  0  0  0  0
   54.1660   30.8850   51.9760 C   0  0  0  0  0  0  0  0  0  0  0  0
   53.3390   29.7650   52.0760 C   0  0  0  0  0  0  0  0  0  0  0  0
   53.7970   28.6180   52.7250 C   0  0  0  0  0  0  0  0  0  0  0  0
   55.0830   28.5850   53.2680 C   0  0  0  0  0  0  0  0  0  0  0  0
   55.9260   29.7070   53.1680 C   0  0  0  0  0  0  0  0  0  0  0  0
   57.2790   29.6810   53.8340 C   0  0  0  0  0  0  0  0  0  0  0  0
   60.5090   31.7160   51.2880 C   0  0  0  0  0  0  0  0  0  0  0  0
   63.4420   33.2620   48.2040 C   0  0  0  0  0  0  0  0  0  0  0  0
   64.0260   34.1290   47.5040 O   0  0  0  0  0  0  0  0  0  0  0  0
   62.8440   32.0510   47.5530 C   0  0  0  0  0  0  0  0  0  0  0  0
   61.4310   32.3020   47.1060 C   0  0  0  0  0  0  0  0  0  0  0  0
   60.4040   31.4080   47.4460 C   0  0  0  0  0  0  0  0  0  0  0  0
   59.0890   31.6610   47.0410 C   0  0  0  0  0  0  0  0  0  0  0  0
   58.7890   32.7710   46.2520 C   0  0  0  0  0  0  0  0  0  0  0  0
   57.4230   33.0180   45.7770 C   0  0  0  0  0  0  0  0  0  0  0  0
   57.0150   34.2100   45.6900 O   0  0  0  0  0  0  0  0  0  0  0  0
   56.6330   31.9560   45.2170 N   0  0  0  0  0  0  0  0  0  0  0  0
   57.2530   30.8000   44.0750 S   0  0  0  0  0  0  0  0  0  0  0  0
   58.1010   31.5220   43.0700 O   0  0  0  0  0  0  0  0  0  0  0  0
   56.0990   30.1780   43.3390 O   0  0  0  0  0  0  0  0  0  0  0  0
   58.1870   29.5290   44.8560 C   0  0  0  0  0  0  0  0  0  0  0  0
   59.5630   29.3850   44.6100 C   0  0  0  0  0  0  0  0  0  0  0  0
   60.2860   28.3730   45.2480 C   0  0  0  0  0  0  0  0  0  0  0  0
   59.6460   27.5010   46.1390 C   0  0  0  0  0  0  0  0  0  0  0  0
   60.4120   26.4070   46.8220 C   0  0  0  0  0  0  0  0  0  0  0  0
   58.2700   27.6450   46.3810 C   0  0  0  0  0  0  0  0  0  0  0  0
   57.5490   28.6560   45.7440 C   0  0  0  0  0  0  0  0  0  0  0  0
   59.8040   33.6920   45.9460 C   0  0  0  0  0  0  0  0  0  0  0  0
   61.1140   33.4690   46.3870 C   0  0  0  0  0  0  0  0  0  0  0  0
   66.0935   31.8424   50.7255 H   0  0  0  0  0  0  0  0  0  0  0  0
   65.0870   31.6352   49.2522 H   0  0  0  0  0  0  0  0  0  0  0  0
   66.4488   32.8066   49.2522 H   0  0  0  0  0  0  0  0  0  0  0  0
   64.5255   33.3157   51.4260 H   0  0  0  0  0  0  0  0  0  0  0  0
   65.1769   34.4297   50.1626 H   0  0  0  0  0  0  0  0  0  0  0  0
   62.2359   34.0402   51.2486 H   0  0  0  0  0  0  0  0  0  0  0  0
   61.3577   33.7511   49.6958 H   0  0  0  0  0  0  0  0  0  0  0  0
   63.7222   31.1433   50.2817 H   0  0  0  0  0  0  0  0  0  0  0  0
   63.0223   28.7902   50.7380 H   0  0  0  0  0  0  0  0  0  0  0  0
   60.6927   28.3058   51.5010 H   0  0  0  0  0  0  0  0  0  0  0  0
   59.0450   30.7170   53.8810 H   0  0  0  0  0  0  0  0  0  0  0  0
   57.4756   32.3603   54.1759 H   0  0  0  0  0  0  0  0  0  0  0  0
   58.3887   32.6263   52.6124 H   0  0  0  0  0  0  0  0  0  0  0  0
   55.7746   32.9727   52.7103 H   0  0  0  0  0  0  0  0  0  0  0  0
   56.5907   32.1522   51.2962 H   0  0  0  0  0  0  0  0  0  0  0  0
   53.8049   31.7837   51.4545 H   0  0  0  0  0  0  0  0  0  0  0  0
   52.3277   29.7867   51.6438 H   0  0  0  0  0  0  0  0  0  0  0  0
   53.1433   27.7373   52.8091 H   0  0  0  0  0  0  0  0  0  0  0  0
   55.4389   27.6769   53.7767 H   0  0  0  0  0  0  0  0  0  0  0  0
   57.1543   29.9340   54.8972 H   0  0  0  0  0  0  0  0  0  0  0  0
   57.6964   28.6713   53.7062 H   0  0  0  0  0  0  0  0  0  0  0  0
   59.8074   32.5433   51.4707 H   0  0  0  0  0  0  0  0  0  0  0  0
   63.4522   31.7797   46.6775 H   0  0  0  0  0  0  0  0  0  0  0  0
   62.8309   31.2356   48.2912 H   0  0  0  0  0  0  0  0  0  0  0  0
   60.6335   30.5061   48.0324 H   0  0  0  0  0  0  0  0  0  0  0  0
   58.2837   30.9775   47.3480 H   0  0  0  0  0  0  0  0  0  0  0  0
   60.0716   30.0692   43.9148 H   0  0  0  0  0  0  0  0  0  0  0  0
   61.3621   28.2606   45.0498 H   0  0  0  0  0  0  0  0  0  0  0  0
   60.3284   26.5264   47.9123 H   0  0  0  0  0  0  0  0  0  0  0  0
   59.9989   25.4310   46.5273 H   0  0  0  0  0  0  0  0  0  0  0  0
   61.4704   26.4613   46.5273 H   0  0  0  0  0  0  0  0  0  0  0  0
   57.7597   26.9597   47.0738 H   0  0  0  0  0  0  0  0  0  0  0  0
   56.4726   28.7672   45.9413 H   0  0  0  0  0  0  0  0  0  0  0  0
   59.5691   34.5915   45.3580 H   0  0  0  0  0  0  0  0  0  0  0  0
   61.8984   34.2091   46.1705 H   0  0  0  0  0  0  0  0  0  0  0  0
  1  2  1  0
  2  3  1  0
  3  4  1  0
  4  5  1  0
  5  6  2  0
  6  7  1  0
  7  8  2  0
  8  9  1  0
  9 10  1  0
 10 11  2  0
 10 12  1  0
 12 13  1  0
 13 14  1  0
 14 15  1  0
 15 16  2  0
 16 17  1  0
 17 18  2  0
 18 19  1  0
 19 20  2  0
 20 21  1  0
  9 22  2  0
  3 23  1  0
 23 24  2  0
 23 25  1  0
 25 26  1  0
 26 27  2  0
 27 28  1  0
 28 29  2  0
 29 30  1  0
 30 31  2  0
 30 32  1  0
 32 33  1  0
 33 34  2  0
 33 35  2  0
 33 36  1  0
 36 37  2  0
 37 38  1  0
 38 39  2  0
 39 40  1  0
 39 41  1  0
 41 42  2  0
 29 43  1  0
 43 44  2  0
 22  5  1  0
 44 26  1  0
 21 12  1  0
 42 36  1  0
 20 15  1  0
  1 45  1  0
  1 46  1  0
  1 47  1  0
  2 48  1  0
  2 49  1  0
  4 50  1  0
  4 51  1  0
  6 52  1  0
  7 53  1  0
  8 54  1  0
 12 55  1  1
 13 56  1  0
 13 57  1  0
 14 58  1  0
 14 59  1  0
 16 60  1  0
 17 61  1  0
 18 62  1  0
 19 63  1  0
 21 64  1  0
 21 65  1  0
 22 66  1  0
 25 67  1  0
 25 68  1  0
 27 69  1  0
 28 70  1  0
 37 71  1  0
 38 72  1  0
 40 73  1  0
 40 74  1  0
 40 75  1  0
 41 76  1  0
 42 77  1  0
 43 78  1  0
 44 79  1  0
M  CHG  2  12   1  32  -1
M  END
>  <UniqueID>  (75) 
71

>  <SMILES>  (75) 
CCN(Cc1cccc(C(=O)[N@H+]2CCc3ccccc3C2)c1)C(=O)Cc1ccc(C(=O)[N-]S(=O)(=O)c2ccc(C)cc2)cc1

>  <Energy>  (75) 
108.39469653708659

>  <Genealogy>  (75) 
CCN(Cc1cccc(C(=O)[NH+]2CCc3ccccc3C2)c1)C(=O)Cc1ccc(C(=O)[N-]S(=O)(=O)c2ccc(C)cc2)cc1 (protonated)
CCN(Cc1cccc(C(=O)[N@H+]2CCc3ccccc3C2)c1)C(=O)Cc1ccc(C(=O)[N-]S(=O)(=O)c2ccc(C)cc2)cc1 (chirality)
CCN(Cc1cccc(C(=O)[N@H+]2CCc3ccccc3C2)c1)C(=O)Cc1ccc(C(=O)[N-]S(=O)(=O)c2ccc(C)cc2)cc1 (3D coordinates assigned)
CCN(Cc1cccc(C(=O)[N@H+]2CCc3ccccc3C2)c1)C(=O)Cc1ccc(C(=O)[N-]S(=O)(=O)c2ccc(C)cc2)cc1 (nonaromatic ring conformer: 108.39469653708659 kcal/mol)

>  <smiles>  (75) 
CCN(Cc1cccc(C(=O)N2CCc3ccccc3C2)c1)C(=O)Cc1ccc(C(=O)NS(=O)(=O)c2ccc(C)cc2)cc1

>  <score_type>  (75) 
oracle

>  <origin>  (75) 
adg

>  <m_score__min__energy>  (75) 
-11.23

>  <m_primary>  (75) 
energy

$$$$
75:0
     RDKit          3D

 48 50  0  0  0  0  0  0  0  0999 V2000
   63.4070   33.8760   46.2510 C   0  0  0  0  0  0  0  0  0  0  0  0
   63.0230   33.5120   47.6480 C   0  0  0  0  0  0  0  0  0  0  0  0
   63.8540   32.9090   48.5210 N   0  0  0  0  0  0  0  0  0  0  0  0
   63.2140   32.8090   49.6770 N   0  0  0  0  0  0  0  0  0  0  0  0
   63.8080   32.2520   50.8840 C   0  0  0  0  0  0  0  0  0  0  0  0
   61.9900   33.3630   49.5710 C   0  0  0  0  0  0  0  0  0  0  0  0
   60.8360   33.5160   50.8890 Cl  0  0  0  0  0  0  0  0  0  0  0  0
   61.8280   33.8220   48.2790 C   0  0  0  0  0  0  0  0  0  0  0  0
   60.6610   34.5750   47.7080 C   0  0  0  0  0  0  0  0  0  0  0  0
   59.8530   33.6920   46.8450 N   0  0  0  0  0  0  0  0  0  0  0  0
   59.6150   34.3080   45.5220 C   0  0  0  0  0  0  0  0  0  0  0  0
   58.8890   33.3180   44.5890 C   0  0  0  0  0  0  0  0  0  0  0  0
   58.3350   32.1780   45.3460 N   0  0  0  0  0  0  0  0  0  0  0  0
   57.5540   31.2460   44.5040 C   0  0  0  0  0  0  0  0  0  0  0  0
   57.6420   29.8060   44.9530 C   0  0  0  0  0  0  0  0  0  0  0  0
   58.8440   29.2920   45.2070 O   0  0  0  0  0  0  0  0  0  0  0  0
   59.0270   28.0400   45.6190 C   0  0  0  0  0  0  0  0  0  0  0  0
   60.4150   27.5630   45.9080 C   0  0  0  0  0  0  0  0  0  0  0  0
   60.6110   27.3300   47.6610 Cl  0  0  0  0  0  0  0  0  0  0  0  0
   57.9280   27.1970   45.8120 C   0  0  0  0  0  0  0  0  0  0  0  0
   56.6490   27.6880   45.5520 C   0  0  0  0  0  0  0  0  0  0  0  0
   55.6460   26.9420   45.7160 O   0  0  0  0  0  0  0  0  0  0  0  0
   56.4910   29.0100   45.1140 C   0  0  0  0  0  0  0  0  0  0  0  0
   55.2250   29.5360   44.8450 O   0  0  0  0  0  0  0  0  0  0  0  0
   57.6040   32.6400   46.5400 C   0  0  0  0  0  0  0  0  0  0  0  0
   58.5670   33.3680   47.5000 C   0  0  0  0  0  0  0  0  0  0  0  0
   64.2051   34.6326   46.2754 H   0  0  0  0  0  0  0  0  0  0  0  0
   63.7672   32.9799   45.7244 H   0  0  0  0  0  0  0  0  0  0  0  0
   62.5314   34.2836   45.7244 H   0  0  0  0  0  0  0  0  0  0  0  0
   63.3304   32.6998   51.7680 H   0  0  0  0  0  0  0  0  0  0  0  0
   63.6568   31.1625   50.8980 H   0  0  0  0  0  0  0  0  0  0  0  0
   64.8855   32.4729   50.8980 H   0  0  0  0  0  0  0  0  0  0  0  0
   60.0344   34.9507   48.5303 H   0  0  0  0  0  0  0  0  0  0  0  0
   61.0378   35.4153   47.1064 H   0  0  0  0  0  0  0  0  0  0  0  0
   58.9952   35.2080   45.6478 H   0  0  0  0  0  0  0  0  0  0  0  0
   60.5836   34.5747   45.0739 H   0  0  0  0  0  0  0  0  0  0  0  0
   58.0678   33.8426   44.0786 H   0  0  0  0  0  0  0  0  0  0  0  0
   59.6155   32.9310   43.8593 H   0  0  0  0  0  0  0  0  0  0  0  0
   56.4985   31.5546   44.5307 H   0  0  0  0  0  0  0  0  0  0  0  0
   57.9787   31.2942   43.4904 H   0  0  0  0  0  0  0  0  0  0  0  0
   60.5898   26.6086   45.3897 H   0  0  0  0  0  0  0  0  0  0  0  0
   61.1401   28.3110   45.5548 H   0  0  0  0  0  0  0  0  0  0  0  0
   58.0701   26.1642   46.1629 H   0  0  0  0  0  0  0  0  0  0  0  0
   54.3950   28.9560   44.8210 H   0  0  0  0  0  0  0  0  0  0  0  0
   56.8047   33.3306   46.2331 H   0  0  0  0  0  0  0  0  0  0  0  0
   57.1691   31.7710   47.0555 H   0  0  0  0  0  0  0  0  0  0  0  0
   58.0943   34.3018   47.8384 H   0  0  0  0  0  0  0  0  0  0  0  0
   58.7739   32.7000   48.3491 H   0  0  0  0  0  0  0  0  0  0  0  0
  1  2  1  0
  2  3  2  0
  3  4  1  0
  4  5  1  0
  4  6  1  0
  6  7  1  0
  6  8  2  0
  8  9  1  0
  9 10  1  0
 10 11  1  0
 11 12  1  0
 12 13  1  0
 13 14  1  0
 14 15  1  0
 15 16  1  0
 16 17  1  0
 17 18  1  0
 18 19  1  0
 17 20  2  0
 20 21  1  0
 21 22  2  0
 21 23  1  0
 23 24  1  0
 13 25  1  0
 25 26  1  0
  8  2  1  0
 26 10  1  0
 23 15  2  0
  1 27  1  0
  1 28  1  0
  1 29  1  0
  5 30  1  0
  5 31  1  0
  5 32  1  0
  9 33  1  0
  9 34  1  0
 11 35  1  0
 11 36  1  0
 12 37  1  0
 12 38  1  0
 14 39  1  0
 14 40  1  0
 18 41  1  0
 18 42  1  0
 20 43  1  0
 24 44  1  0
 25 45  1  0
 25 46  1  0
 26 47  1  0
 26 48  1  0
M  END
>  <UniqueID>  (76) 
72

>  <SMILES>  (76) 
Cc1nn(C)c(Cl)c1CN1CCN(Cc2oc(CCl)cc(=O)c2O)CC1

>  <Energy>  (76) 
86.86778330939131

>  <Genealogy>  (76) 
Cc1nn(C)c(Cl)c1CN1CCN(Cc2oc(CCl)cc(=O)c2O)CC1 (3D coordinates assigned)
Cc1nn(C)c(Cl)c1CN1CCN(Cc2oc(CCl)cc(=O)c2O)CC1 (nonaromatic ring conformer: 86.86778330939131 kcal/mol)

>  <smiles>  (76) 
Cc1nn(C)c(Cl)c1CN1CCN(Cc2oc(CCl)cc(=O)c2O)CC1

>  <score_type>  (76) 
oracle

>  <origin>  (76) 
adg

>  <m_score__min__energy>  (76) 
-9.0199999999999996

>  <m_primary>  (76) 
energy

$$$$
76:0
     RDKit          3D

 51 54  0  0  0  0  0  0  0  0999 V2000
   55.5010   29.2070   44.9400 N   0  0  0  0  0  0  0  0  0  0  0  0
   56.6280   29.4290   43.6480 S   0  0  0  0  0  0  0  0  0  0  0  0
   55.9260   29.2580   42.3300 O   0  0  0  0  0  0  0  0  0  0  0  0
   57.7210   28.4030   43.7550 O   0  0  0  0  0  0  0  0  0  0  0  0
   57.3180   31.0370   43.7390 C   0  0  0  0  0  0  0  0  0  0  0  0
   58.0400   31.6630   42.7330 C   0  0  0  0  0  0  0  0  0  0  0  0
   58.4630   32.9510   43.0820 C   0  0  0  0  0  0  0  0  0  0  0  0
   58.0800   33.3280   44.3660 C   0  0  0  0  0  0  0  0  0  0  0  0
   58.3760   34.6560   45.0090 C   0  0  0  0  0  0  0  0  0  0  0  0
   58.9400   34.5420   46.3720 N   0  0  0  0  0  0  0  0  0  0  0  0
   58.0620   33.8670   47.3600 C   0  0  0  0  0  0  0  0  0  0  0  0
   58.7440   32.6970   48.0780 C   0  0  0  0  0  0  0  0  0  0  0  0
   59.5840   31.9610   47.1310 N   0  0  0  0  0  0  0  0  0  0  0  0
   59.3460   30.5730   46.8340 C   0  0  0  0  0  0  0  0  0  0  0  0
   58.1310   29.9860   47.0090 N   0  0  0  0  0  0  0  0  0  0  0  0
   58.3780   28.7080   46.6900 C   0  0  0  0  0  0  0  0  0  0  0  0
   57.4900   27.6380   46.7190 C   0  0  0  0  0  0  0  0  0  0  0  0
   57.9790   26.3570   46.3940 C   0  0  0  0  0  0  0  0  0  0  0  0
   57.0840   25.2770   46.4490 O   0  0  0  0  0  0  0  0  0  0  0  0
   56.3870   24.7210   45.3340 C   0  0  0  0  0  0  0  0  0  0  0  0
   54.8960   25.0560   45.3930 C   0  0  0  0  0  0  0  0  0  0  0  0
   54.7030   26.3350   45.9310 O   0  0  0  0  0  0  0  0  0  0  0  0
   59.3470   26.2040   46.0260 C   0  0  0  0  0  0  0  0  0  0  0  0
   60.2100   27.3140   46.0030 C   0  0  0  0  0  0  0  0  0  0  0  0
   59.6820   28.5530   46.3470 C   0  0  0  0  0  0  0  0  0  0  0  0
   60.3280   29.7240   46.4300 N   0  0  0  0  0  0  0  0  0  0  0  0
   60.6420   32.6920   46.4270 C   0  0  0  0  0  0  0  0  0  0  0  0
   60.3810   34.2090   46.4390 C   0  0  0  0  0  0  0  0  0  0  0  0
   57.1890   32.0740   45.0560 S   0  0  0  0  0  0  0  0  0  0  0  0
   56.0390   29.2800   45.8310 H   0  0  0  0  0  0  0  0  0  0  0  0
   55.1560   28.2230   44.8760 H   0  0  0  0  0  0  0  0  0  0  0  0
   58.2576   31.1954   41.7614 H   0  0  0  0  0  0  0  0  0  0  0  0
   59.0408   33.6008   42.4083 H   0  0  0  0  0  0  0  0  0  0  0  0
   59.0982   35.1946   44.3778 H   0  0  0  0  0  0  0  0  0  0  0  0
   57.4190   35.1907   45.0998 H   0  0  0  0  0  0  0  0  0  0  0  0
   57.7518   34.6059   48.1135 H   0  0  0  0  0  0  0  0  0  0  0  0
   57.2056   33.4547   46.8064 H   0  0  0  0  0  0  0  0  0  0  0  0
   59.3683   33.0840   48.8968 H   0  0  0  0  0  0  0  0  0  0  0  0
   57.9771   32.0224   48.4864 H   0  0  0  0  0  0  0  0  0  0  0  0
   56.4341   27.7877   46.9885 H   0  0  0  0  0  0  0  0  0  0  0  0
   56.8106   25.1306   44.4051 H   0  0  0  0  0  0  0  0  0  0  0  0
   56.5003   23.6272   45.3617 H   0  0  0  0  0  0  0  0  0  0  0  0
   54.4769   25.0235   44.3765 H   0  0  0  0  0  0  0  0  0  0  0  0
   54.3902   24.3194   46.0346 H   0  0  0  0  0  0  0  0  0  0  0  0
   55.1440   26.3380   46.8210 H   0  0  0  0  0  0  0  0  0  0  0  0
   59.7314   25.2089   45.7576 H   0  0  0  0  0  0  0  0  0  0  0  0
   61.2680   27.2054   45.7221 H   0  0  0  0  0  0  0  0  0  0  0  0
   61.6047   32.4907   46.9197 H   0  0  0  0  0  0  0  0  0  0  0  0
   60.6599   32.3523   45.3809 H   0  0  0  0  0  0  0  0  0  0  0  0
   60.7966   34.6301   47.3663 H   0  0  0  0  0  0  0  0  0  0  0  0
   60.8622   34.6357   45.5466 H   0  0  0  0  0  0  0  0  0  0  0  0
  1  2  1  0
  2  3  2  0
  2  4  2  0
  2  5  1  0
  5  6  2  0
  6  7  1  0
  7  8  2  0
  8  9  1  0
  9 10  1  0
 10 11  1  0
 11 12  1  0
 12 13  1  0
 13 14  1  0
 14 15  2  0
 15 16  1  0
 16 17  2  0
 17 18  1  0
 18 19  1  0
 19 20  1  0
 20 21  1  0
 21 22  1  0
 18 23  2  0
 23 24  1  0
 24 25  2  0
 25 26  1  0
 13 27  1  0
 27 28  1  0
  8 29  1  0
 29  5  1  0
 28 10  1  0
 26 14  1  0
 25 16  1  0
  1 30  1  0
  1 31  1  0
  6 32  1  0
  7 33  1  0
  9 34  1  0
  9 35  1  0
 11 36  1  0
 11 37  1  0
 12 38  1  0
 12 39  1  0
 17 40  1  0
 20 41  1  0
 20 42  1  0
 21 43  1  0
 21 44  1  0
 22 45  1  0
 23 46  1  0
 24 47  1  0
 27 48  1  0
 27 49  1  0
 28 50  1  0
 28 51  1  0
M  CHG  1  26  -1
M  END
>  <UniqueID>  (77) 
73

>  <SMILES>  (77) 
NS(=O)(=O)c1ccc(CN2CCN(c3nc4cc(OCCO)ccc4[n-]3)CC2)s1

>  <Energy>  (77) 
117.31946832247526

>  <Genealogy>  (77) 
NS(=O)(=O)c1ccc(CN2CCN(c3nc4cc(OCCO)ccc4[n-]3)CC2)s1 (protonated)
NS(=O)(=O)c1ccc(CN2CCN(c3nc4cc(OCCO)ccc4[n-]3)CC2)s1 (3D coordinates assigned)
NS(=O)(=O)c1ccc(CN2CCN(c3nc4cc(OCCO)ccc4[n-]3)CC2)s1 (nonaromatic ring conformer: 117.31946832247526 kcal/mol)

>  <smiles>  (77) 
NS(=O)(=O)c1ccc(CN2CCN(c3nc4cc(OCCO)ccc4[nH]3)CC2)s1

>  <score_type>  (77) 
oracle

>  <origin>  (77) 
adg

>  <m_score__min__energy>  (77) 
-10.800000000000001

>  <m_primary>  (77) 
energy

$$$$
77:0
     RDKit          3D

 41 44  0  0  0  0  0  0  0  0999 V2000
   57.4560   24.8820   47.8150 C   0  0  0  0  0  0  0  0  0  0  0  0
   57.8990   25.9390   47.1330 C   0  0  0  0  0  0  0  0  0  0  0  0
   58.6210   26.8750   47.7080 O   0  0  0  0  0  0  0  0  0  0  0  0
   58.9830   27.7580   46.8050 C   0  0  0  0  0  0  0  0  0  0  0  0
   59.8100   28.9370   47.1190 C   0  0  0  0  0  0  0  0  0  0  0  0
   60.7220   29.2670   46.3150 O   0  0  0  0  0  0  0  0  0  0  0  0
   59.5950   29.7030   48.3140 N   0  0  0  0  0  0  0  0  0  0  0  0
   60.3340   30.9320   48.5940 C   0  0  0  0  0  0  0  0  0  0  0  0
   59.8710   32.0370   47.6870 C   0  0  0  0  0  0  0  0  0  0  0  0
   60.7410   33.1070   47.3520 C   0  0  0  0  0  0  0  0  0  0  0  0
   60.3150   34.1290   46.4840 C   0  0  0  0  0  0  0  0  0  0  0  0
   59.0250   34.0480   45.9690 C   0  0  0  0  0  0  0  0  0  0  0  0
   58.1900   33.0250   46.2810 C   0  0  0  0  0  0  0  0  0  0  0  0
   58.5700   31.9950   47.1350 C   0  0  0  0  0  0  0  0  0  0  0  0
   56.9840   33.2000   45.6290 O   0  0  0  0  0  0  0  0  0  0  0  0
   57.0680   34.4080   44.8600 C   0  0  0  0  0  0  0  0  0  0  0  0
   58.3860   34.9170   45.1050 O   0  0  0  0  0  0  0  0  0  0  0  0
   58.4810   27.3980   45.5680 C   0  0  0  0  0  0  0  0  0  0  0  0
   57.7560   26.2370   45.7710 C   0  0  0  0  0  0  0  0  0  0  0  0
   57.0840   25.6070   44.7880 C   0  0  0  0  0  0  0  0  0  0  0  0
   55.8460   24.8250   44.9650 C   0  0  0  0  0  0  0  0  0  0  0  0
   54.7390   25.3880   45.6140 C   0  0  0  0  0  0  0  0  0  0  0  0
   54.7710   26.7060   46.0550 O   0  0  0  0  0  0  0  0  0  0  0  0
   53.6190   24.6450   45.8110 N   0  0  0  0  0  0  0  0  0  0  0  0
   53.5540   23.3530   45.4010 C   0  0  0  0  0  0  0  0  0  0  0  0
   52.5040   22.6860   45.5900 O   0  0  0  0  0  0  0  0  0  0  0  0
   54.6220   22.7770   44.7920 N   0  0  0  0  0  0  0  0  0  0  0  0
   55.7660   23.4770   44.5730 C   0  0  0  0  0  0  0  0  0  0  0  0
   56.7440   22.9070   44.0220 O   0  0  0  0  0  0  0  0  0  0  0  0
   56.8536   24.1136   47.3083 H   0  0  0  0  0  0  0  0  0  0  0  0
   57.6930   24.7786   48.8842 H   0  0  0  0  0  0  0  0  0  0  0  0
   58.9000   29.3830   49.0230 H   0  0  0  0  0  0  0  0  0  0  0  0
   60.1652   31.2266   49.6403 H   0  0  0  0  0  0  0  0  0  0  0  0
   61.4054   30.7525   48.4213 H   0  0  0  0  0  0  0  0  0  0  0  0
   61.7563   33.1375   47.7743 H   0  0  0  0  0  0  0  0  0  0  0  0
   60.9801   34.9648   46.2211 H   0  0  0  0  0  0  0  0  0  0  0  0
   57.8794   31.1728   47.3737 H   0  0  0  0  0  0  0  0  0  0  0  0
   56.9293   34.1947   43.7898 H   0  0  0  0  0  0  0  0  0  0  0  0
   56.2884   35.1309   45.1423 H   0  0  0  0  0  0  0  0  0  0  0  0
   58.6282   27.9275   44.6151 H   0  0  0  0  0  0  0  0  0  0  0  0
   57.4922   25.6820   43.7693 H   0  0  0  0  0  0  0  0  0  0  0  0
  1  2  2  0
  2  3  1  0
  3  4  1  0
  4  5  1  0
  5  6  2  0
  5  7  1  0
  7  8  1  0
  8  9  1  0
  9 10  2  0
 10 11  1  0
 11 12  2  0
 12 13  1  0
 13 14  2  0
 13 15  1  0
 15 16  1  0
 16 17  1  0
  4 18  2  0
 18 19  1  0
 19 20  2  3
 20 21  1  0
 21 22  2  0
 22 23  1  0
 22 24  1  0
 24 25  1  0
 25 26  2  0
 25 27  1  0
 27 28  1  0
 28 29  2  0
 19  2  1  0
 28 21  1  0
 14  9  1  0
 17 12  1  0
  1 30  1  0
  1 31  1  0
  7 32  1  0
  8 33  1  0
  8 34  1  0
 10 35  1  0
 11 36  1  0
 14 37  1  0
 16 38  1  0
 16 39  1  0
 18 40  1  0
 20 41  1  0
M  CHG  3  23  -1  24  -1  27  -1
M  END
>  <UniqueID>  (78) 
74

>  <SMILES>  (78) 
C=c1oc(C(=O)NCc2ccc3c(c2)OCO3)cc1=Cc1c([O-])[n-]c(=O)[n-]c1=O

>  <Energy>  (78) 
111.83294674386248

>  <Genealogy>  (78) 
C=c1oc(C(=O)NCc2ccc3c(c2)OCO3)cc1=Cc1c([O-])[n-]c(=O)[n-]c1=O (protonated)
C=c1oc(C(=O)NCc2ccc3c(c2)OCO3)cc1=Cc1c([O-])[n-]c(=O)[n-]c1=O (3D coordinates assigned)
C=c1oc(C(=O)NCc2ccc3c(c2)OCO3)cc1=Cc1c([O-])[n-]c(=O)[n-]c1=O (nonaromatic ring conformer: 111.83294674386248 kcal/mol)

>  <smiles>  (78) 
C=c1oc(C(=O)NCc2ccc3c(c2)OCO3)cc1=Cc1c(O)[nH]c(=O)[nH]c1=O

>  <score_type>  (78) 
oracle

>  <origin>  (78) 
adg

>  <m_score__min__energy>  (78) 
-15.460000000000001

>  <m_primary>  (78) 
energy

$$$$
78:0
     RDKit          3D

 60 64  0  0  0  0  0  0  0  0999 V2000
   59.2360   28.6730   46.7770 C   0  0  0  0  0  0  0  0  0  0  0  0
   58.1260   28.6620   46.0260 C   0  0  0  0  0  0  0  0  0  0  0  0
   57.2960   27.5700   45.7420 C   0  0  0  0  0  0  0  0  0  0  0  0
   57.5280   26.2510   45.8720 C   0  0  0  0  0  0  0  0  0  0  0  0
   56.6410   25.1720   45.3960 C   0  0  0  0  0  0  0  0  0  0  0  0
   57.0560   24.0730   44.7290 N   0  0  0  0  0  0  0  0  0  0  0  0
   55.9050   23.4510   44.3870 C   0  0  0  0  0  0  0  0  0  0  0  0
   55.8810   22.3560   43.7640 O   0  0  0  0  0  0  0  0  0  0  0  0
   54.7960   24.1170   44.7650 N   0  0  0  0  0  0  0  0  0  0  0  0
   53.4020   23.7160   44.5930 C   0  0  0  0  0  0  0  0  0  0  0  0
   55.2640   25.2060   45.4010 C   0  0  0  0  0  0  0  0  0  0  0  0
   54.4760   26.2040   45.9710 O   0  0  0  0  0  0  0  0  0  0  0  0
   56.1290   28.0240   45.2320 N   0  0  0  0  0  0  0  0  0  0  0  0
   56.2930   29.3590   45.1560 C   0  0  0  0  0  0  0  0  0  0  0  0
   55.4080   30.1290   44.6940 O   0  0  0  0  0  0  0  0  0  0  0  0
   57.4950   29.7840   45.6020 N   0  0  0  0  0  0  0  0  0  0  0  0
   57.9890   31.1370   45.5880 C   0  0  0  0  0  0  0  0  0  0  0  0
   57.9050   31.9180   44.4250 C   0  0  0  0  0  0  0  0  0  0  0  0
   58.4090   33.2200   44.4170 C   0  0  0  0  0  0  0  0  0  0  0  0
   58.9980   33.7550   45.5670 C   0  0  0  0  0  0  0  0  0  0  0  0
   59.0740   32.9930   46.7440 C   0  0  0  0  0  0  0  0  0  0  0  0
   59.6850   33.5650   47.9640 C   0  0  0  0  0  0  0  0  0  0  0  0
   58.9880   34.3140   48.7020 O   0  0  0  0  0  0  0  0  0  0  0  0
   61.0570   33.2990   48.3190 N   0  0  0  0  0  0  0  0  0  0  0  0
   61.6960   32.0200   47.9700 C   0  0  0  0  0  0  0  0  0  0  0  0
   62.6180   31.5620   49.1010 C   0  0  0  0  0  0  0  0  0  0  0  0
   63.5720   32.6190   49.4730 N   0  0  0  0  0  0  0  0  0  0  0  0
   64.8200   32.2620   50.1080 C   0  0  0  0  0  0  0  0  0  0  0  0
   65.9750   33.0440   49.9160 C   0  0  0  0  0  0  0  0  0  0  0  0
   67.1860   32.6840   50.5150 C   0  0  0  0  0  0  0  0  0  0  0  0
   67.2630   31.5340   51.3050 C   0  0  0  0  0  0  0  0  0  0  0  0
   66.1250   30.7520   51.5070 C   0  0  0  0  0  0  0  0  0  0  0  0
   64.9100   31.1100   50.9130 C   0  0  0  0  0  0  0  0  0  0  0  0
   63.3110   34.0140   49.0840 C   0  0  0  0  0  0  0  0  0  0  0  0
   61.8060   34.3110   49.0760 C   0  0  0  0  0  0  0  0  0  0  0  0
   58.5930   31.6760   46.7360 C   0  0  0  0  0  0  0  0  0  0  0  0
   59.7958   29.6094   46.9174 H   0  0  0  0  0  0  0  0  0  0  0  0
   59.5872   27.7456   47.2530 H   0  0  0  0  0  0  0  0  0  0  0  0
   58.4585   25.9514   46.3763 H   0  0  0  0  0  0  0  0  0  0  0  0
   52.9347   23.5816   45.5797 H   0  0  0  0  0  0  0  0  0  0  0  0
   52.8625   24.4954   44.0349 H   0  0  0  0  0  0  0  0  0  0  0  0
   53.3590   22.7691   44.0349 H   0  0  0  0  0  0  0  0  0  0  0  0
   54.7800   27.1690   45.9890 H   0  0  0  0  0  0  0  0  0  0  0  0
   57.4411   31.5035   43.5178 H   0  0  0  0  0  0  0  0  0  0  0  0
   58.3425   33.8275   43.5024 H   0  0  0  0  0  0  0  0  0  0  0  0
   59.4036   34.7773   45.5495 H   0  0  0  0  0  0  0  0  0  0  0  0
   60.9189   31.2592   47.8046 H   0  0  0  0  0  0  0  0  0  0  0  0
   62.2915   32.1551   47.0551 H   0  0  0  0  0  0  0  0  0  0  0  0
   62.0076   31.3047   49.9792 H   0  0  0  0  0  0  0  0  0  0  0  0
   63.1868   30.6871   48.7531 H   0  0  0  0  0  0  0  0  0  0  0  0
   65.9242   33.9464   49.2890 H   0  0  0  0  0  0  0  0  0  0  0  0
   68.0798   33.3072   50.3641 H   0  0  0  0  0  0  0  0  0  0  0  0
   68.2188   31.2457   51.7668 H   0  0  0  0  0  0  0  0  0  0  0  0
   66.1835   29.8511   52.1354 H   0  0  0  0  0  0  0  0  0  0  0  0
   64.0182   30.4869   51.0760 H   0  0  0  0  0  0  0  0  0  0  0  0
   63.8063   34.6858   49.8005 H   0  0  0  0  0  0  0  0  0  0  0  0
   63.7048   34.1741   48.0695 H   0  0  0  0  0  0  0  0  0  0  0  0
   61.4396   34.3240   50.1131 H   0  0  0  0  0  0  0  0  0  0  0  0
   61.6513   35.2862   48.5913 H   0  0  0  0  0  0  0  0  0  0  0  0
   58.6898   31.0570   47.6401 H   0  0  0  0  0  0  0  0  0  0  0  0
  1  2  2  0
  2  3  1  0
  3  4  2  3
  4  5  1  0
  5  6  1  0
  6  7  1  0
  7  8  2  0
  7  9  1  0
  9 10  1  0
  9 11  1  0
 11 12  1  0
  3 13  1  0
 13 14  1  0
 14 15  2  0
 14 16  1  0
 16 17  1  0
 17 18  2  0
 18 19  1  0
 19 20  2  0
 20 21  1  0
 21 22  1  0
 22 23  2  0
 22 24  1  0
 24 25  1  0
 25 26  1  0
 26 27  1  0
 27 28  1  0
 28 29  2  0
 29 30  1  0
 30 31  2  0
 31 32  1  0
 32 33  2  0
 27 34  1  0
 34 35  1  0
 21 36  2  0
 16  2  1  0
 36 17  1  0
 11  5  2  0
 35 24  1  0
 33 28  1  0
  1 37  1  0
  1 38  1  0
  4 39  1  0
 10 40  1  0
 10 41  1  0
 10 42  1  0
 12 43  1  0
 18 44  1  0
 19 45  1  0
 20 46  1  0
 25 47  1  0
 25 48  1  0
 26 49  1  0
 26 50  1  0
 29 51  1  0
 30 52  1  0
 31 53  1  0
 32 54  1  0
 33 55  1  0
 34 56  1  0
 34 57  1  0
 35 58  1  0
 35 59  1  0
 36 60  1  0
M  CHG  2   6  -1  13  -1
M  END
>  <UniqueID>  (79) 
75

>  <SMILES>  (79) 
C=c1c(=Cc2[n-]c(=O)n(C)c2O)[n-]c(=O)n1-c1cccc(C(=O)N2CCN(c3ccccc3)CC2)c1

>  <Energy>  (79) 
154.01734645207304

>  <Genealogy>  (79) 
C=c1c(=Cc2[n-]c(=O)n(C)c2O)[n-]c(=O)n1-c1cccc(C(=O)N2CCN(c3ccccc3)CC2)c1 (protonated)
C=c1c(=Cc2[n-]c(=O)n(C)c2O)[n-]c(=O)n1-c1cccc(C(=O)N2CCN(c3ccccc3)CC2)c1 (3D coordinates assigned)
C=c1c(=Cc2[n-]c(=O)n(C)c2O)[n-]c(=O)n1-c1cccc(C(=O)N2CCN(c3ccccc3)CC2)c1 (nonaromatic ring conformer: 154.01734645207304 kcal/mol)

>  <smiles>  (79) 
C=c1c(=Cc2[nH]c(=O)n(C)c2O)[nH]c(=O)n1-c1cccc(C(=O)N2CCN(c3ccccc3)CC2)c1

>  <score_type>  (79) 
oracle

>  <origin>  (79) 
adg

>  <m_score__min__energy>  (79) 
-15.18

>  <m_primary>  (79) 
energy

$$$$
79:0
     RDKit          3D

 43 44  0  0  0  0  0  0  0  0999 V2000
   62.9220   33.3810   47.0930 C   0  0  0  0  0  0  0  0  0  0  0  0
   61.8090   32.8010   48.4090 S   0  0  0  0  0  0  0  0  0  0  0  0
   60.3100   33.1770   47.4800 C   0  0  0  0  0  0  0  0  0  0  0  0
   60.4200   34.0040   46.3530 C   0  0  0  0  0  0  0  0  0  0  0  0
   59.2850   34.3690   45.6280 C   0  0  0  0  0  0  0  0  0  0  0  0
   58.0270   33.9160   46.0260 C   0  0  0  0  0  0  0  0  0  0  0  0
   57.9000   33.0960   47.1490 C   0  0  0  0  0  0  0  0  0  0  0  0
   59.0360   32.7050   47.8790 C   0  0  0  0  0  0  0  0  0  0  0  0
   58.8570   31.8440   49.0650 C   0  0  0  0  0  0  0  0  0  0  0  0
   57.8980   32.0660   49.8500 O   0  0  0  0  0  0  0  0  0  0  0  0
   59.7390   30.7370   49.3080 N   0  0  0  0  0  0  0  0  0  0  0  0
   59.8360   30.0940   50.6170 C   0  0  0  0  0  0  0  0  0  0  0  0
   60.2060   28.6250   50.4510 C   0  0  0  0  0  0  0  0  0  0  0  0
   61.0680   28.4540   49.2870 N   0  0  0  0  0  0  0  0  0  0  0  0
   60.6800   27.7650   48.0920 C   0  0  0  0  0  0  0  0  0  0  0  0
   61.1440   26.6140   47.8740 O   0  0  0  0  0  0  0  0  0  0  0  0
   59.7020   28.3360   47.1460 C   0  0  0  0  0  0  0  0  0  0  0  0
   58.4810   27.6810   46.9280 C   0  0  0  0  0  0  0  0  0  0  0  0
   57.5260   28.2390   46.0740 C   0  0  0  0  0  0  0  0  0  0  0  0
   57.7920   29.4400   45.4050 C   0  0  0  0  0  0  0  0  0  0  0  0
   56.5740   30.1530   44.3510 S   0  0  0  0  0  0  0  0  0  0  0  0
   55.0940   29.2710   44.4890 N   0  0  0  0  0  0  0  0  0  0  0  0
   57.0540   30.1110   42.9280 O   0  0  0  0  0  0  0  0  0  0  0  0
   56.3370   31.5840   44.7340 O   0  0  0  0  0  0  0  0  0  0  0  0
   59.0190   30.0850   45.6030 C   0  0  0  0  0  0  0  0  0  0  0  0
   59.9710   29.5310   46.4630 C   0  0  0  0  0  0  0  0  0  0  0  0
   63.8120   33.8448   47.5434 H   0  0  0  0  0  0  0  0  0  0  0  0
   63.2287   32.5280   46.4698 H   0  0  0  0  0  0  0  0  0  0  0  0
   62.3986   34.1210   46.4698 H   0  0  0  0  0  0  0  0  0  0  0  0
   61.4090   34.3680   46.0379 H   0  0  0  0  0  0  0  0  0  0  0  0
   59.3822   35.0141   44.7424 H   0  0  0  0  0  0  0  0  0  0  0  0
   57.1332   34.2054   45.4539 H   0  0  0  0  0  0  0  0  0  0  0  0
   56.9036   32.7534   47.4649 H   0  0  0  0  0  0  0  0  0  0  0  0
   60.3320   30.3750   48.5280 H   0  0  0  0  0  0  0  0  0  0  0  0
   60.6094   30.5990   51.2143 H   0  0  0  0  0  0  0  0  0  0  0  0
   58.8640   30.1657   51.1270 H   0  0  0  0  0  0  0  0  0  0  0  0
   60.7365   28.2795   51.3506 H   0  0  0  0  0  0  0  0  0  0  0  0
   59.2878   28.0362   50.3088 H   0  0  0  0  0  0  0  0  0  0  0  0
   58.2745   26.7248   47.4310 H   0  0  0  0  0  0  0  0  0  0  0  0
   56.5608   27.7324   45.9266 H   0  0  0  0  0  0  0  0  0  0  0  0
   54.7800   29.3610   45.4820 H   0  0  0  0  0  0  0  0  0  0  0  0
   59.2338   31.0291   45.0809 H   0  0  0  0  0  0  0  0  0  0  0  0
   60.9380   30.0357   46.6052 H   0  0  0  0  0  0  0  0  0  0  0  0
  1  2  1  0
  2  3  1  0
  3  4  2  0
  4  5  1  0
  5  6  2  0
  6  7  1  0
  7  8  2  0
  8  9  1  0
  9 10  2  0
  9 11  1  0
 11 12  1  0
 12 13  1  0
 13 14  1  0
 14 15  1  0
 15 16  2  0
 15 17  1  0
 17 18  2  0
 18 19  1  0
 19 20  2  0
 20 21  1  0
 21 22  1  0
 21 23  2  0
 21 24  2  0
 20 25  1  0
 25 26  2  0
  8  3  1  0
 26 17  1  0
  1 27  1  0
  1 28  1  0
  1 29  1  0
  4 30  1  0
  5 31  1  0
  6 32  1  0
  7 33  1  0
 11 34  1  0
 12 35  1  0
 12 36  1  0
 13 37  1  0
 13 38  1  0
 18 39  1  0
 19 40  1  0
 22 41  1  0
 25 42  1  0
 26 43  1  0
M  CHG  2  14  -1  22  -1
M  END
>  <UniqueID>  (80) 
76

>  <SMILES>  (80) 
CSc1ccccc1C(=O)NCC[N-]C(=O)c1ccc(S([NH-])(=O)=O)cc1

>  <Energy>  (80) 
41.97574088978554

>  <Genealogy>  (80) 
CSc1ccccc1C(=O)NCC[N-]C(=O)c1ccc(S([NH-])(=O)=O)cc1 (protonated)
CSc1ccccc1C(=O)NCC[N-]C(=O)c1ccc(S([NH-])(=O)=O)cc1 (3D coordinates assigned)
CSc1ccccc1C(=O)NCC[N-]C(=O)c1ccc(S([NH-])(=O)=O)cc1 (optimized conformer: 41.97574088978554 kcal/mol)

>  <smiles>  (80) 
CSc1ccccc1C(=O)NCCNC(=O)c1ccc(S(N)(=O)=O)cc1

>  <score_type>  (80) 
oracle

>  <origin>  (80) 
adg

>  <m_score__min__energy>  (80) 
-11.57

>  <m_primary>  (80) 
energy

$$$$
80:0
     RDKit          3D

 57 60  0  0  0  0  0  0  0  0999 V2000
   55.1370   29.4800   44.6970 O   0  0  0  0  0  0  0  0  0  0  0  0
   56.0830   28.6630   44.8730 C   0  0  0  0  0  0  0  0  0  0  0  0
   57.4240   28.9320   44.2650 C   0  0  0  0  0  0  0  0  0  0  0  0
   57.9360   30.2700   44.7260 C   0  0  0  0  0  0  0  0  0  0  0  0
   57.6080   31.4370   44.0230 C   0  0  0  0  0  0  0  0  0  0  0  0
   58.0330   32.6840   44.4860 C   0  0  0  0  0  0  0  0  0  0  0  0
   58.7830   32.7830   45.6660 C   0  0  0  0  0  0  0  0  0  0  0  0
   59.1830   34.1340   46.1950 C   0  0  0  0  0  0  0  0  0  0  0  0
   60.1250   33.9870   47.3650 C   0  0  0  0  0  0  0  0  0  0  0  0
   59.6270   33.9450   48.6720 C   0  0  0  0  0  0  0  0  0  0  0  0
   60.4690   33.8050   49.7390 N   0  0  0  0  0  0  0  0  0  0  0  0
   59.9110   33.8440   51.0990 C   0  0  0  0  0  0  0  0  0  0  0  0
   58.8930   32.7500   51.2730 C   0  0  0  0  0  0  0  0  0  0  0  0
   57.7760   32.9530   52.0990 C   0  0  0  0  0  0  0  0  0  0  0  0
   56.8480   31.9240   52.2950 C   0  0  0  0  0  0  0  0  0  0  0  0
   57.0370   30.6840   51.6780 C   0  0  0  0  0  0  0  0  0  0  0  0
   58.1510   30.4730   50.8630 C   0  0  0  0  0  0  0  0  0  0  0  0
   59.0760   31.5040   50.6560 C   0  0  0  0  0  0  0  0  0  0  0  0
   61.8190   33.7140   49.5310 C   0  0  0  0  0  0  0  0  0  0  0  0
   62.6170   33.6200   50.5010 O   0  0  0  0  0  0  0  0  0  0  0  0
   62.3150   33.7300   48.2700 N   0  0  0  0  0  0  0  0  0  0  0  0
   61.5080   33.8550   47.1880 C   0  0  0  0  0  0  0  0  0  0  0  0
   62.0120   33.8530   46.0360 O   0  0  0  0  0  0  0  0  0  0  0  0
   59.1060   31.6160   46.3720 C   0  0  0  0  0  0  0  0  0  0  0  0
   58.6870   30.3690   45.9060 C   0  0  0  0  0  0  0  0  0  0  0  0
   55.8720   27.4650   45.6250 N   0  0  0  0  0  0  0  0  0  0  0  0
   56.9420   26.5310   45.9370 C   0  0  0  0  0  0  0  0  0  0  0  0
   56.6850   25.2150   45.2550 C   0  0  0  0  0  0  0  0  0  0  0  0
   57.6610   24.6580   44.4140 C   0  0  0  0  0  0  0  0  0  0  0  0
   57.4180   23.4520   43.7500 C   0  0  0  0  0  0  0  0  0  0  0  0
   56.1900   22.7960   43.9100 C   0  0  0  0  0  0  0  0  0  0  0  0
   55.9340   21.5980   43.2510 O   0  0  0  0  0  0  0  0  0  0  0  0
   55.2110   23.3510   44.7470 C   0  0  0  0  0  0  0  0  0  0  0  0
   53.9870   22.7170   44.9010 O   0  0  0  0  0  0  0  0  0  0  0  0
   55.4600   24.5510   45.4200 C   0  0  0  0  0  0  0  0  0  0  0  0
   58.1287   28.1457   44.5735 H   0  0  0  0  0  0  0  0  0  0  0  0
   57.3302   28.9380   43.1690 H   0  0  0  0  0  0  0  0  0  0  0  0
   57.0121   31.3704   43.1008 H   0  0  0  0  0  0  0  0  0  0  0  0
   57.7779   33.5932   43.9218 H   0  0  0  0  0  0  0  0  0  0  0  0
   59.6835   34.7015   45.3966 H   0  0  0  0  0  0  0  0  0  0  0  0
   58.2803   34.6658   46.5303 H   0  0  0  0  0  0  0  0  0  0  0  0
   58.5433   34.0258   48.8427 H   0  0  0  0  0  0  0  0  0  0  0  0
   60.7221   33.7053   51.8289 H   0  0  0  0  0  0  0  0  0  0  0  0
   59.4241   34.8171   51.2600 H   0  0  0  0  0  0  0  0  0  0  0  0
   57.6297   33.9244   52.5939 H   0  0  0  0  0  0  0  0  0  0  0  0
   55.9692   32.0911   52.9351 H   0  0  0  0  0  0  0  0  0  0  0  0
   56.3085   29.8748   51.8344 H   0  0  0  0  0  0  0  0  0  0  0  0
   58.3024   29.4951   50.3826 H   0  0  0  0  0  0  0  0  0  0  0  0
   59.9486   31.3360   50.0076 H   0  0  0  0  0  0  0  0  0  0  0  0
   59.6936   31.6835   47.2995 H   0  0  0  0  0  0  0  0  0  0  0  0
   58.9472   29.4594   46.4671 H   0  0  0  0  0  0  0  0  0  0  0  0
   57.8999   26.9429   45.5866 H   0  0  0  0  0  0  0  0  0  0  0  0
   56.9815   26.3744   47.0251 H   0  0  0  0  0  0  0  0  0  0  0  0
   58.6229   25.1735   44.2765 H   0  0  0  0  0  0  0  0  0  0  0  0
   58.1922   23.0172   43.1007 H   0  0  0  0  0  0  0  0  0  0  0  0
   55.4710   20.8250   43.7150 H   0  0  0  0  0  0  0  0  0  0  0  0
   54.6917   24.9767   46.0822 H   0  0  0  0  0  0  0  0  0  0  0  0
  1  2  2  0
  2  3  1  0
  3  4  1  0
  4  5  2  0
  5  6  1  0
  6  7  2  0
  7  8  1  0
  8  9  1  0
  9 10  2  0
 10 11  1  0
 11 12  1  0
 12 13  1  0
 13 14  2  0
 14 15  1  0
 15 16  2  0
 16 17  1  0
 17 18  2  0
 11 19  1  0
 19 20  2  0
 19 21  1  0
 21 22  1  0
 22 23  2  0
  7 24  1  0
 24 25  2  0
  2 26  1  0
 26 27  1  0
 27 28  1  0
 28 29  2  0
 29 30  1  0
 30 31  2  0
 31 32  1  0
 31 33  1  0
 33 34  1  0
 33 35  2  0
 25  4  1  0
 35 28  1  0
 22  9  1  0
 18 13  1  0
  3 36  1  0
  3 37  1  0
  5 38  1  0
  6 39  1  0
  8 40  1  0
  8 41  1  0
 10 42  1  0
 12 43  1  0
 12 44  1  0
 14 45  1  0
 15 46  1  0
 16 47  1  0
 17 48  1  0
 18 49  1  0
 24 50  1  0
 25 51  1  0
 27 52  1  0
 27 53  1  0
 29 54  1  0
 30 55  1  0
 32 56  1  0
 35 57  1  0
M  CHG  3  21  -1  26  -1  34  -1
M  END
>  <UniqueID>  (81) 
77

>  <SMILES>  (81) 
O=C(Cc1ccc(Cc2cn(Cc3ccccc3)c(=O)[n-]c2=O)cc1)[N-]Cc1ccc(O)c([O-])c1

>  <Energy>  (81) 
57.7924926407813

>  <Genealogy>  (81) 
O=C(Cc1ccc(Cc2cn(Cc3ccccc3)c(=O)[n-]c2=O)cc1)[N-]Cc1ccc(O)c([O-])c1 (protonated)
O=C(Cc1ccc(Cc2cn(Cc3ccccc3)c(=O)[n-]c2=O)cc1)[N-]Cc1ccc(O)c([O-])c1 (3D coordinates assigned)
O=C(Cc1ccc(Cc2cn(Cc3ccccc3)c(=O)[n-]c2=O)cc1)[N-]Cc1ccc(O)c([O-])c1 (optimized conformer: 57.7924926407813 kcal/mol)

>  <smiles>  (81) 
O=C(Cc1ccc(Cc2cn(Cc3ccccc3)c(=O)[nH]c2=O)cc1)NCc1ccc(O)c(O)c1

>  <score_type>  (81) 
oracle

>  <origin>  (81) 
adg

>  <m_score__min__energy>  (81) 
-16.739999999999998

>  <m_primary>  (81) 
energy

$$$$
81:0
     RDKit          3D

 38 40  0  0  0  0  0  0  0  0999 V2000
   59.2605   32.1263   48.2433 H   0  0  0  0  0  0  0  0  0  0  0  0
   58.7950   32.3540   47.2730 C   0  0  0  0  0  0  0  0  0  0  0  0
   57.8200   31.5810   46.7280 N   0  0  0  0  0  0  0  0  0  0  0  0
   57.4120   32.0660   45.5330 C   0  0  0  0  0  0  0  0  0  0  0  0
   56.4340   31.5650   44.8380 N   0  0  0  0  0  0  0  0  0  0  0  0
   56.3440   30.2040   44.3930 C   0  0  0  0  0  0  0  0  0  0  0  0
   55.4790   29.4220   44.8720 O   0  0  0  0  0  0  0  0  0  0  0  0
   57.2970   29.7000   43.3540 C   0  0  0  0  0  0  0  0  0  0  0  0
   56.8152   29.7674   42.3674 H   0  0  0  0  0  0  0  0  0  0  0  0
   58.2050   30.3196   43.3962 H   0  0  0  0  0  0  0  0  0  0  0  0
   57.7840   27.9600   43.6570 S   0  0  0  0  0  0  0  0  0  0  0  0
   58.4740   28.2410   45.2980 C   0  0  0  0  0  0  0  0  0  0  0  0
   59.5250   29.1560   45.4420 C   0  0  0  0  0  0  0  0  0  0  0  0
   59.8962   29.7042   44.5636 H   0  0  0  0  0  0  0  0  0  0  0  0
   60.1050   29.3770   46.6940 C   0  0  0  0  0  0  0  0  0  0  0  0
   61.4440   30.5000   46.8510 Cl  0  0  0  0  0  0  0  0  0  0  0  0
   59.6160   28.7050   47.8160 C   0  0  0  0  0  0  0  0  0  0  0  0
   60.0724   28.8771   48.8020 H   0  0  0  0  0  0  0  0  0  0  0  0
   58.5460   27.8130   47.6870 C   0  0  0  0  0  0  0  0  0  0  0  0
   58.1552   27.2946   48.5750 H   0  0  0  0  0  0  0  0  0  0  0  0
   57.9700   27.5770   46.4320 C   0  0  0  0  0  0  0  0  0  0  0  0
   56.6290   26.4450   46.3160 Cl  0  0  0  0  0  0  0  0  0  0  0  0
   58.2190   33.4750   45.1070 S   0  0  0  0  0  0  0  0  0  0  0  0
   59.1580   33.4570   46.5060 C   0  0  0  0  0  0  0  0  0  0  0  0
   60.0740   34.5560   46.9420 C   0  0  0  0  0  0  0  0  0  0  0  0
   60.1987   35.2761   46.1199 H   0  0  0  0  0  0  0  0  0  0  0  0
   59.6424   35.0654   47.8162 H   0  0  0  0  0  0  0  0  0  0  0  0
   61.4140   33.9810   47.3110 C   0  0  0  0  0  0  0  0  0  0  0  0
   62.4160   33.8380   46.3420 C   0  0  0  0  0  0  0  0  0  0  0  0
   62.2124   34.0970   45.2925 H   0  0  0  0  0  0  0  0  0  0  0  0
   63.6760   33.3640   46.7180 C   0  0  0  0  0  0  0  0  0  0  0  0
   64.4653   33.2444   45.9612 H   0  0  0  0  0  0  0  0  0  0  0  0
   63.9290   33.0500   48.0180 N   0  0  0  0  0  0  0  0  0  0  0  0
   64.8760   32.7030   48.2840 H   0  0  0  0  0  0  0  0  0  0  0  0
   62.9760   33.1890   48.9790 C   0  0  0  0  0  0  0  0  0  0  0  0
   63.2074   32.9291   50.0225 H   0  0  0  0  0  0  0  0  0  0  0  0
   61.7040   33.6610   48.6440 C   0  0  0  0  0  0  0  0  0  0  0  0
   60.9354   33.7805   49.4218 H   0  0  0  0  0  0  0  0  0  0  0  0
  1  2  1  0
  2  3  1  0
  3  4  1  0
  4  5  2  0
  5  6  1  0
  6  7  2  0
  6  8  1  0
  8  9  1  0
  8 10  1  0
  8 11  1  0
 11 12  1  0
 12 13  2  0
 13 14  1  0
 13 15  1  0
 15 16  1  0
 15 17  2  0
 17 18  1  0
 17 19  1  0
 19 20  1  0
 19 21  2  0
 21 22  1  0
  4 23  1  0
 23 24  1  0
 24 25  1  0
 25 26  1  0
 25 27  1  0
 25 28  1  0
 28 29  2  0
 29 30  1  0
 29 31  1  0
 31 32  1  0
 31 33  2  0
 33 34  1  0
 33 35  1  0
 35 36  1  0
 35 37  2  0
 37 38  1  0
 24  2  2  0
 37 28  1  0
 21 12  1  0
M  CHG  2   3  -1  33   1
M  END
>  <UniqueID>  (82) 
78

>  <SMILES>  (82) 
O=C(CSc1cc(Cl)ccc1Cl)/N=c1\[n-]cc(Cc2cc[nH+]cc2)s1

>  <Energy>  (82) 
65.209467061524

>  <Genealogy>  (82) 
O=C(CSc1cc(Cl)ccc1Cl)N=c1[n-]cc(Cc2cc[nH+]cc2)s1 (protonated)
O=C(CSc1cc(Cl)ccc1Cl)/N=c1\[n-]cc(Cc2cc[nH+]cc2)s1 (cis-trans isomerization)
O=C(CSc1cc(Cl)ccc1Cl)/N=c1\[n-]cc(Cc2cc[nH+]cc2)s1 (3D coordinates assigned)
O=C(CSc1cc(Cl)ccc1Cl)/N=c1\[n-]cc(Cc2cc[nH+]cc2)s1 (optimized conformer: 65.209467061524 kcal/mol)

>  <smiles>  (82) 
O=C(CSc1cc(Cl)ccc1Cl)N=c1[nH]cc(Cc2ccncc2)s1

>  <score_type>  (82) 
oracle

>  <origin>  (82) 
adg

>  <m_score__min__energy>  (82) 
-9.5099999999999998

>  <m_primary>  (82) 
energy

$$$$
82:0
     RDKit          3D

 56 59  0  0  0  0  0  0  0  0999 V2000
   59.7960   29.9100   47.0560 C   0  0  0  0  0  0  0  0  0  0  0  0
   59.0810   30.7130   46.2510 C   0  0  0  0  0  0  0  0  0  0  0  0
   58.5070   30.3810   45.0130 C   0  0  0  0  0  0  0  0  0  0  0  0
   58.3500   29.1900   44.4000 C   0  0  0  0  0  0  0  0  0  0  0  0
   57.6030   28.0350   44.9390 C   0  0  0  0  0  0  0  0  0  0  0  0
   56.2290   28.1360   45.2340 C   0  0  0  0  0  0  0  0  0  0  0  0
   55.5010   29.2940   44.9580 O   0  0  0  0  0  0  0  0  0  0  0  0
   55.5840   27.0810   45.7940 N   0  0  0  0  0  0  0  0  0  0  0  0
   56.2360   25.9270   46.0870 C   0  0  0  0  0  0  0  0  0  0  0  0
   55.6110   24.9640   46.5990 O   0  0  0  0  0  0  0  0  0  0  0  0
   57.5640   25.8140   45.8330 N   0  0  0  0  0  0  0  0  0  0  0  0
   58.2620   26.8380   45.2790 C   0  0  0  0  0  0  0  0  0  0  0  0
   59.5000   26.7070   45.0880 O   0  0  0  0  0  0  0  0  0  0  0  0
   58.0590   31.5710   44.4630 C   0  0  0  0  0  0  0  0  0  0  0  0
   58.3040   32.5590   45.3910 C   0  0  0  0  0  0  0  0  0  0  0  0
   57.9680   34.0060   45.1920 C   0  0  0  0  0  0  0  0  0  0  0  0
   58.9240   32.0430   46.4760 N   0  0  0  0  0  0  0  0  0  0  0  0
   59.3330   32.7830   47.6420 C   0  0  0  0  0  0  0  0  0  0  0  0
   58.8860   32.3990   48.9160 C   0  0  0  0  0  0  0  0  0  0  0  0
   59.2850   33.1100   50.0660 C   0  0  0  0  0  0  0  0  0  0  0  0
   58.8350   32.7010   51.3820 N   0  0  0  0  0  0  0  0  0  0  0  0
   58.9120   33.6550   52.5030 C   0  0  0  0  0  0  0  0  0  0  0  0
   58.5420   33.0370   53.8590 C   0  0  0  0  0  0  0  0  0  0  0  0
   59.4960   31.9160   54.3000 C   0  0  0  0  0  0  0  0  0  0  0  0
   59.1470   30.5650   53.8050 N   0  0  0  0  0  0  0  0  0  0  0  0
   59.7440   29.4560   54.5660 C   0  0  0  0  0  0  0  0  0  0  0  0
   59.0690   30.3740   52.3400 C   0  0  0  0  0  0  0  0  0  0  0  0
   58.1890   31.3920   51.5710 C   0  0  0  0  0  0  0  0  0  0  0  0
   60.1500   34.2110   49.9110 C   0  0  0  0  0  0  0  0  0  0  0  0
   60.6010   34.5900   48.6450 C   0  0  0  0  0  0  0  0  0  0  0  0
   60.1980   33.8810   47.5130 C   0  0  0  0  0  0  0  0  0  0  0  0
   60.6620   34.2500   46.2930 F   0  0  0  0  0  0  0  0  0  0  0  0
   60.1927   30.2962   48.0065 H   0  0  0  0  0  0  0  0  0  0  0  0
   59.9849   28.8662   46.7647 H   0  0  0  0  0  0  0  0  0  0  0  0
   58.8191   29.0679   43.4125 H   0  0  0  0  0  0  0  0  0  0  0  0
   55.4400   30.0710   45.6040 H   0  0  0  0  0  0  0  0  0  0  0  0
   57.5959   31.7019   43.4738 H   0  0  0  0  0  0  0  0  0  0  0  0
   57.8547   34.4941   46.1712 H   0  0  0  0  0  0  0  0  0  0  0  0
   58.7762   34.4961   44.6294 H   0  0  0  0  0  0  0  0  0  0  0  0
   57.0265   34.0898   44.6294 H   0  0  0  0  0  0  0  0  0  0  0  0
   58.2161   31.5325   49.0183 H   0  0  0  0  0  0  0  0  0  0  0  0
   59.9413   34.0382   52.5641 H   0  0  0  0  0  0  0  0  0  0  0  0
   58.1817   34.4522   52.3004 H   0  0  0  0  0  0  0  0  0  0  0  0
   58.5609   33.8305   54.6205 H   0  0  0  0  0  0  0  0  0  0  0  0
   57.5433   32.5890   53.7498 H   0  0  0  0  0  0  0  0  0  0  0  0
   60.5040   32.1629   53.9353 H   0  0  0  0  0  0  0  0  0  0  0  0
   59.4272   31.8682   55.3968 H   0  0  0  0  0  0  0  0  0  0  0  0
   59.6385   29.6519   55.6433 H   0  0  0  0  0  0  0  0  0  0  0  0
   59.2290   28.5178   54.3118 H   0  0  0  0  0  0  0  0  0  0  0  0
   60.8107   29.3693   54.3118 H   0  0  0  0  0  0  0  0  0  0  0  0
   60.0903   30.4390   51.9367 H   0  0  0  0  0  0  0  0  0  0  0  0
   58.5900   29.3949   52.1923 H   0  0  0  0  0  0  0  0  0  0  0  0
   57.9556   30.9727   50.5812 H   0  0  0  0  0  0  0  0  0  0  0  0
   57.2859   31.5610   52.1758 H   0  0  0  0  0  0  0  0  0  0  0  0
   60.4735   34.7780   50.7964 H   0  0  0  0  0  0  0  0  0  0  0  0
   61.2770   35.4514   48.5397 H   0  0  0  0  0  0  0  0  0  0  0  0
  1  2  2  0
  2  3  1  0
  3  4  2  3
  4  5  1  0
  5  6  2  0
  6  7  1  0
  6  8  1  0
  8  9  1  0
  9 10  2  0
  9 11  1  0
 11 12  1  0
 12 13  2  0
  3 14  1  0
 14 15  2  0
 15 16  1  0
 15 17  1  0
 17 18  1  0
 18 19  2  0
 19 20  1  0
 20 21  1  0
 21 22  1  0
 22 23  1  0
 23 24  1  0
 24 25  1  0
 25 26  1  0
 25 27  1  0
 27 28  1  0
 20 29  2  0
 29 30  1  0
 30 31  2  0
 31 32  1  0
 17  2  1  0
 31 18  1  0
 12  5  1  0
 28 21  1  0
  1 33  1  0
  1 34  1  0
  4 35  1  0
  7 36  1  0
 14 37  1  0
 16 38  1  0
 16 39  1  0
 16 40  1  0
 19 41  1  0
 22 42  1  0
 22 43  1  0
 23 44  1  0
 23 45  1  0
 24 46  1  0
 24 47  1  0
 26 48  1  0
 26 49  1  0
 26 50  1  0
 27 51  1  0
 27 52  1  0
 28 53  1  0
 28 54  1  0
 29 55  1  0
 30 56  1  0
M  CHG  2   8  -1  11  -1
M  END
>  <UniqueID>  (83) 
79

>  <SMILES>  (83) 
C=c1c(=Cc2c(O)[n-]c(=O)[n-]c2=O)cc(C)n1-c1cc(N2CCCN(C)CC2)ccc1F

>  <Energy>  (83) 
127.38653493784287

>  <Genealogy>  (83) 
C=c1c(=Cc2c(O)[n-]c(=O)[n-]c2=O)cc(C)n1-c1cc(N2CCCN(C)CC2)ccc1F (protonated)
C=c1c(=Cc2c(O)[n-]c(=O)[n-]c2=O)cc(C)n1-c1cc(N2CCCN(C)CC2)ccc1F (3D coordinates assigned)
C=c1c(=Cc2c(O)[n-]c(=O)[n-]c2=O)cc(C)n1-c1cc(N2CCCN(C)CC2)ccc1F (nonaromatic ring conformer: 127.38653493784287 kcal/mol)

>  <smiles>  (83) 
C=c1c(=Cc2c(O)[nH]c(=O)[nH]c2=O)cc(C)n1-c1cc(N2CCCN(C)CC2)ccc1F

>  <score_type>  (83) 
oracle

>  <origin>  (83) 
adg

>  <m_score__min__energy>  (83) 
-11.970000000000001

>  <m_primary>  (83) 
energy

$$$$
83:0
     RDKit          3D

 44 46  0  0  0  0  0  0  0  0999 V2000
   57.6000   31.4100   44.1510 C   0  0  0  0  0  0  0  0  0  0  0  0
   58.3900   30.9150   45.3410 C   0  0  0  0  0  0  0  0  0  0  0  0
   58.4600   29.5270   45.6330 C   0  0  0  0  0  0  0  0  0  0  0  0
   57.6430   28.5540   44.9630 N   0  0  0  0  0  0  0  0  0  0  0  0
   56.2610   28.2810   45.2460 C   0  0  0  0  0  0  0  0  0  0  0  0
   55.3950   29.1330   44.9210 O   0  0  0  0  0  0  0  0  0  0  0  0
   55.8400   27.0870   45.9220 N   0  0  0  0  0  0  0  0  0  0  0  0
   56.2560   25.7530   45.6010 C   0  0  0  0  0  0  0  0  0  0  0  0
   57.6060   25.4480   45.3590 C   0  0  0  0  0  0  0  0  0  0  0  0
   57.9910   24.1290   45.0970 C   0  0  0  0  0  0  0  0  0  0  0  0
   57.0300   23.1140   45.0550 C   0  0  0  0  0  0  0  0  0  0  0  0
   57.5170   21.4570   44.7460 Cl  0  0  0  0  0  0  0  0  0  0  0  0
   55.6800   23.4210   45.2560 C   0  0  0  0  0  0  0  0  0  0  0  0
   55.2940   24.7390   45.5160 C   0  0  0  0  0  0  0  0  0  0  0  0
   59.3180   29.0700   46.6370 C   0  0  0  0  0  0  0  0  0  0  0  0
   60.0090   29.9710   47.4400 C   0  0  0  0  0  0  0  0  0  0  0  0
   59.8590   31.3410   47.2410 C   0  0  0  0  0  0  0  0  0  0  0  0
   59.0670   31.8320   46.1910 C   0  0  0  0  0  0  0  0  0  0  0  0
   58.8710   33.5900   46.0170 S   0  0  0  0  0  0  0  0  0  0  0  0
   57.5910   33.9880   46.7000 O   0  0  0  0  0  0  0  0  0  0  0  0
   58.7920   33.9590   44.5610 O   0  0  0  0  0  0  0  0  0  0  0  0
   60.2000   34.4570   46.7560 N   0  0  0  0  0  0  0  0  0  0  0  0
   60.0770   34.4880   48.2240 C   0  0  0  0  0  0  0  0  0  0  0  0
   61.2500   33.7270   48.8130 C   0  0  0  0  0  0  0  0  0  0  0  0
   62.2940   33.7650   47.7270 C   0  0  0  0  0  0  0  0  0  0  0  0
   61.4840   33.8060   46.4480 C   0  0  0  0  0  0  0  0  0  0  0  0
   56.7166   31.9635   44.5019 H   0  0  0  0  0  0  0  0  0  0  0  0
   58.2312   32.0744   43.5426 H   0  0  0  0  0  0  0  0  0  0  0  0
   57.2774   30.5522   43.5426 H   0  0  0  0  0  0  0  0  0  0  0  0
   58.3612   26.2476   45.3756 H   0  0  0  0  0  0  0  0  0  0  0  0
   59.0507   23.8899   44.9238 H   0  0  0  0  0  0  0  0  0  0  0  0
   54.9222   22.6250   45.2094 H   0  0  0  0  0  0  0  0  0  0  0  0
   54.2299   24.9808   45.6544 H   0  0  0  0  0  0  0  0  0  0  0  0
   59.4478   27.9889   46.7934 H   0  0  0  0  0  0  0  0  0  0  0  0
   60.6750   29.6009   48.2334 H   0  0  0  0  0  0  0  0  0  0  0  0
   60.3671   32.0469   47.9145 H   0  0  0  0  0  0  0  0  0  0  0  0
   60.0934   35.5296   48.5773 H   0  0  0  0  0  0  0  0  0  0  0  0
   59.1286   34.0263   48.5362 H   0  0  0  0  0  0  0  0  0  0  0  0
   61.6171   34.2200   49.7252 H   0  0  0  0  0  0  0  0  0  0  0  0
   60.9834   32.7012   49.1072 H   0  0  0  0  0  0  0  0  0  0  0  0
   62.9242   34.6617   47.8206 H   0  0  0  0  0  0  0  0  0  0  0  0
   62.9814   32.9072   47.7677 H   0  0  0  0  0  0  0  0  0  0  0  0
   62.0224   34.3822   45.6811 H   0  0  0  0  0  0  0  0  0  0  0  0
   61.3192   32.7893   46.0619 H   0  0  0  0  0  0  0  0  0  0  0  0
  1  2  1  0
  2  3  2  0
  3  4  1  0
  4  5  1  0
  5  6  2  0
  5  7  1  0
  7  8  1  0
  8  9  2  0
  9 10  1  0
 10 11  2  0
 11 12  1  0
 11 13  1  0
 13 14  2  0
  3 15  1  0
 15 16  2  0
 16 17  1  0
 17 18  2  0
 18 19  1  0
 19 20  2  0
 19 21  2  0
 19 22  1  0
 22 23  1  0
 23 24  1  0
 24 25  1  0
 25 26  1  0
 18  2  1  0
 26 22  1  0
 14  8  1  0
  1 27  1  0
  1 28  1  0
  1 29  1  0
  9 30  1  0
 10 31  1  0
 13 32  1  0
 14 33  1  0
 15 34  1  0
 16 35  1  0
 17 36  1  0
 23 37  1  0
 23 38  1  0
 24 39  1  0
 24 40  1  0
 25 41  1  0
 25 42  1  0
 26 43  1  0
 26 44  1  0
M  CHG  2   4  -1   7  -1
M  END
>  <UniqueID>  (84) 
80

>  <SMILES>  (84) 
Cc1c([N-]C(=O)[N-]c2ccc(Cl)cc2)cccc1S(=O)(=O)N1CCCC1

>  <Energy>  (84) 
59.18974757364128

>  <Genealogy>  (84) 
Cc1c([N-]C(=O)[N-]c2ccc(Cl)cc2)cccc1S(=O)(=O)N1CCCC1 (protonated)
Cc1c([N-]C(=O)[N-]c2ccc(Cl)cc2)cccc1S(=O)(=O)N1CCCC1 (3D coordinates assigned)
Cc1c([N-]C(=O)[N-]c2ccc(Cl)cc2)cccc1S(=O)(=O)N1CCCC1 (nonaromatic ring conformer: 59.18974757364128 kcal/mol)

>  <smiles>  (84) 
Cc1c(NC(=O)Nc2ccc(Cl)cc2)cccc1S(=O)(=O)N1CCCC1

>  <score_type>  (84) 
oracle

>  <origin>  (84) 
adg

>  <m_score__min__energy>  (84) 
-12.050000000000001

>  <m_primary>  (84) 
energy

$$$$
84:0
     RDKit          3D

 59 61  0  0  0  0  0  0  0  0999 V2000
   57.4500   32.3090   41.4910 C   0  0  0  0  0  0  0  0  0  0  0  0
   57.8260   31.5210   42.6650 N   0  0  0  0  0  0  0  0  0  0  0  0
   56.6410   31.2200   43.4780 C   0  0  0  0  0  0  0  0  0  0  0  0
   56.8260   29.9170   44.1960 C   0  0  0  0  0  0  0  0  0  0  0  0
   56.1010   29.6480   45.1920 O   0  0  0  0  0  0  0  0  0  0  0  0
   57.8400   28.9970   43.7690 N   0  0  0  0  0  0  0  0  0  0  0  0
   58.1610   27.7790   44.5090 C   0  0  0  0  0  0  0  0  0  0  0  0
   58.8190   28.1320   45.8130 C   0  0  0  0  0  0  0  0  0  0  0  0
   58.2600   27.7160   47.0300 C   0  0  0  0  0  0  0  0  0  0  0  0
   58.8570   28.0820   48.2400 C   0  0  0  0  0  0  0  0  0  0  0  0
   60.0140   28.8740   48.2500 C   0  0  0  0  0  0  0  0  0  0  0  0
   60.6330   29.2880   49.5570 C   0  0  0  0  0  0  0  0  0  0  0  0
   59.7930   30.3030   50.2290 N   0  0  0  0  0  0  0  0  0  0  0  0
   60.5940   31.3440   50.9020 C   0  0  0  0  0  0  0  0  0  0  0  0
   61.4150   32.1830   49.9100 C   0  0  0  0  0  0  0  0  0  0  0  0
   60.6250   32.5710   48.6830 C   0  0  0  0  0  0  0  0  0  0  0  0
   59.4130   31.9160   48.3690 C   0  0  0  0  0  0  0  0  0  0  0  0
   58.7230   32.2570   47.1980 C   0  0  0  0  0  0  0  0  0  0  0  0
   59.2480   33.2060   46.3220 C   0  0  0  0  0  0  0  0  0  0  0  0
   60.4590   33.8330   46.6120 C   0  0  0  0  0  0  0  0  0  0  0  0
   61.1490   33.5260   47.7890 C   0  0  0  0  0  0  0  0  0  0  0  0
   62.3710   34.1500   48.0540 O   0  0  0  0  0  0  0  0  0  0  0  0
   63.6240   33.5490   47.7310 C   0  0  0  0  0  0  0  0  0  0  0  0
   64.4620   33.4490   49.0040 C   0  0  0  0  0  0  0  0  0  0  0  0
   63.4140   32.1620   47.1180 C   0  0  0  0  0  0  0  0  0  0  0  0
   58.8000   30.9160   49.3220 C   0  0  0  0  0  0  0  0  0  0  0  0
   60.5650   29.3020   47.0320 C   0  0  0  0  0  0  0  0  0  0  0  0
   59.9690   28.9340   45.8230 C   0  0  0  0  0  0  0  0  0  0  0  0
   56.9974   33.2575   41.8157 H   0  0  0  0  0  0  0  0  0  0  0  0
   58.3456   32.5177   40.8873 H   0  0  0  0  0  0  0  0  0  0  0  0
   56.7244   31.7442   40.8873 H   0  0  0  0  0  0  0  0  0  0  0  0
   58.2280   30.6160   42.3230 H   0  0  0  0  0  0  0  0  0  0  0  0
   56.4916   32.0232   44.2146 H   0  0  0  0  0  0  0  0  0  0  0  0
   55.7623   31.1470   42.8203 H   0  0  0  0  0  0  0  0  0  0  0  0
   58.4390   29.2460   42.9500 H   0  0  0  0  0  0  0  0  0  0  0  0
   57.2358   27.2180   44.7073 H   0  0  0  0  0  0  0  0  0  0  0  0
   58.8485   27.1624   43.9114 H   0  0  0  0  0  0  0  0  0  0  0  0
   57.3488   27.0997   47.0325 H   0  0  0  0  0  0  0  0  0  0  0  0
   58.4162   27.7465   49.1903 H   0  0  0  0  0  0  0  0  0  0  0  0
   60.7267   28.4067   50.2085 H   0  0  0  0  0  0  0  0  0  0  0  0
   61.6249   29.7208   49.3598 H   0  0  0  0  0  0  0  0  0  0  0  0
   59.9149   32.0118   51.4523 H   0  0  0  0  0  0  0  0  0  0  0  0
   61.2991   30.8397   51.5792 H   0  0  0  0  0  0  0  0  0  0  0  0
   61.7503   33.0996   50.4173 H   0  0  0  0  0  0  0  0  0  0  0  0
   62.2647   31.5684   49.5780 H   0  0  0  0  0  0  0  0  0  0  0  0
   57.7620   31.7733   46.9687 H   0  0  0  0  0  0  0  0  0  0  0  0
   58.7054   33.4607   45.3997 H   0  0  0  0  0  0  0  0  0  0  0  0
   60.8738   34.5728   45.9116 H   0  0  0  0  0  0  0  0  0  0  0  0
   64.1492   34.1682   46.9889 H   0  0  0  0  0  0  0  0  0  0  0  0
   63.8049   33.5274   49.8827 H   0  0  0  0  0  0  0  0  0  0  0  0
   64.9859   32.4820   49.0231 H   0  0  0  0  0  0  0  0  0  0  0  0
   65.1987   34.2656   49.0231 H   0  0  0  0  0  0  0  0  0  0  0  0
   63.3015   31.4192   47.9215 H   0  0  0  0  0  0  0  0  0  0  0  0
   62.5068   32.1695   46.4960 H   0  0  0  0  0  0  0  0  0  0  0  0
   64.2828   31.9006   46.4960 H   0  0  0  0  0  0  0  0  0  0  0  0
   58.0401   31.4298   49.9291 H   0  0  0  0  0  0  0  0  0  0  0  0
   58.3626   30.1083   48.7168 H   0  0  0  0  0  0  0  0  0  0  0  0
   61.4688   29.9290   47.0293 H   0  0  0  0  0  0  0  0  0  0  0  0
   60.4050   29.2758   44.8727 H   0  0  0  0  0  0  0  0  0  0  0  0
  1  2  1  0
  2  3  1  0
  3  4  1  0
  4  5  2  0
  4  6  1  0
  6  7  1  0
  7  8  1  0
  8  9  2  0
  9 10  1  0
 10 11  2  0
 11 12  1  0
 12 13  1  0
 13 14  1  0
 14 15  1  0
 15 16  1  0
 16 17  2  0
 17 18  1  0
 18 19  2  0
 19 20  1  0
 20 21  2  0
 21 22  1  0
 22 23  1  0
 23 24  1  0
 23 25  1  0
 17 26  1  0
 11 27  1  0
 27 28  2  0
 28  8  1  0
 26 13  1  0
 21 16  1  0
  1 29  1  0
  1 30  1  0
  1 31  1  0
  2 32  1  0
  3 33  1  0
  3 34  1  0
  6 35  1  0
  7 36  1  0
  7 37  1  0
  9 38  1  0
 10 39  1  0
 12 40  1  0
 12 41  1  0
 14 42  1  0
 14 43  1  0
 15 44  1  0
 15 45  1  0
 18 46  1  0
 19 47  1  0
 20 48  1  0
 23 49  1  0
 24 50  1  0
 24 51  1  0
 24 52  1  0
 25 53  1  0
 25 54  1  0
 25 55  1  0
 26 56  1  0
 26 57  1  0
 27 58  1  0
 28 59  1  0
M  END
>  <UniqueID>  (85) 
81

>  <SMILES>  (85) 
CNCC(=O)NCc1ccc(CN2CCc3c(cccc3OC(C)C)C2)cc1

>  <Energy>  (85) 
61.61798546650212

>  <Genealogy>  (85) 
CNCC(=O)NCc1ccc(CN2CCc3c(cccc3OC(C)C)C2)cc1 (3D coordinates assigned)
CNCC(=O)NCc1ccc(CN2CCc3c(cccc3OC(C)C)C2)cc1 (nonaromatic ring conformer: 61.61798546650212 kcal/mol)

>  <smiles>  (85) 
CNCC(=O)NCc1ccc(CN2CCc3c(cccc3OC(C)C)C2)cc1

>  <score_type>  (85) 
oracle

>  <origin>  (85) 
adg

>  <m_score__min__energy>  (85) 
-8.5

>  <m_primary>  (85) 
energy

$$$$
85:0
     RDKit          3D

 40 42  0  0  0  0  0  0  0  0999 V2000
   56.7140   33.5690   44.9020 O   0  0  0  0  0  0  0  0  0  0  0  0
   57.8280   33.0500   45.1830 C   0  0  0  0  0  0  0  0  0  0  0  0
   58.4670   32.1950   44.2290 N   0  0  0  0  0  0  0  0  0  0  0  0
   57.7290   31.4260   43.2380 C   0  0  0  0  0  0  0  0  0  0  0  0
   56.8890   30.3890   43.9170 C   0  0  0  0  0  0  0  0  0  0  0  0
   55.5400   30.4670   44.1840 C   0  0  0  0  0  0  0  0  0  0  0  0
   55.1620   29.3720   44.8710 N   0  0  0  0  0  0  0  0  0  0  0  0
   56.2230   28.6000   45.0610 N   0  0  0  0  0  0  0  0  0  0  0  0
   57.2920   29.2010   44.5040 C   0  0  0  0  0  0  0  0  0  0  0  0
   58.6650   28.5940   44.4810 C   0  0  0  0  0  0  0  0  0  0  0  0
   59.3620   28.8160   45.7630 N   0  0  0  0  0  0  0  0  0  0  0  0
   58.4240   28.6760   46.8940 C   0  0  0  0  0  0  0  0  0  0  0  0
   59.0620   29.1640   48.2080 C   0  0  0  0  0  0  0  0  0  0  0  0
   60.4630   29.2940   48.0690 O   0  0  0  0  0  0  0  0  0  0  0  0
   60.7570   30.3240   47.1410 C   0  0  0  0  0  0  0  0  0  0  0  0
   60.0080   30.1410   45.8040 C   0  0  0  0  0  0  0  0  0  0  0  0
   58.4710   33.3110   46.4950 C   0  0  0  0  0  0  0  0  0  0  0  0
   58.1930   32.4740   47.5940 C   0  0  0  0  0  0  0  0  0  0  0  0
   58.7870   32.7100   48.8360 C   0  0  0  0  0  0  0  0  0  0  0  0
   59.6620   33.7830   49.0020 C   0  0  0  0  0  0  0  0  0  0  0  0
   59.9500   34.6210   47.9250 C   0  0  0  0  0  0  0  0  0  0  0  0
   59.3630   34.3920   46.6740 C   0  0  0  0  0  0  0  0  0  0  0  0
   59.6750   35.2250   45.6510 F   0  0  0  0  0  0  0  0  0  0  0  0
   57.0792   32.1017   42.6625 H   0  0  0  0  0  0  0  0  0  0  0  0
   58.4411   30.9289   42.5629 H   0  0  0  0  0  0  0  0  0  0  0  0
   54.8772   31.2920   43.8840 H   0  0  0  0  0  0  0  0  0  0  0  0
   58.5773   27.5123   44.3016 H   0  0  0  0  0  0  0  0  0  0  0  0
   59.2463   29.0714   43.6783 H   0  0  0  0  0  0  0  0  0  0  0  0
   57.5228   29.2725   46.6891 H   0  0  0  0  0  0  0  0  0  0  0  0
   58.1670   27.6122   47.0047 H   0  0  0  0  0  0  0  0  0  0  0  0
   58.6341   30.1415   48.4752 H   0  0  0  0  0  0  0  0  0  0  0  0
   58.8533   28.4257   48.9963 H   0  0  0  0  0  0  0  0  0  0  0  0
   60.4654   31.2894   47.5803 H   0  0  0  0  0  0  0  0  0  0  0  0
   61.8358   30.2876   46.9294 H   0  0  0  0  0  0  0  0  0  0  0  0
   59.2407   30.9232   45.7067 H   0  0  0  0  0  0  0  0  0  0  0  0
   60.7269   30.2172   44.9749 H   0  0  0  0  0  0  0  0  0  0  0  0
   57.5018   31.6269   47.4727 H   0  0  0  0  0  0  0  0  0  0  0  0
   58.5639   32.0476   49.6854 H   0  0  0  0  0  0  0  0  0  0  0  0
   60.1251   33.9685   49.9824 H   0  0  0  0  0  0  0  0  0  0  0  0
   60.6415   35.4659   48.0586 H   0  0  0  0  0  0  0  0  0  0  0  0
  1  2  2  0
  2  3  1  0
  3  4  1  0
  4  5  1  0
  5  6  2  0
  6  7  1  0
  7  8  1  0
  8  9  2  0
  9 10  1  0
 10 11  1  0
 11 12  1  0
 12 13  1  0
 13 14  1  0
 14 15  1  0
 15 16  1  0
  2 17  1  0
 17 18  2  0
 18 19  1  0
 19 20  2  0
 20 21  1  0
 21 22  2  0
 22 23  1  0
  9  5  1  0
 16 11  1  0
 22 17  1  0
  4 24  1  0
  4 25  1  0
  6 26  1  0
 10 27  1  0
 10 28  1  0
 12 29  1  0
 12 30  1  0
 13 31  1  0
 13 32  1  0
 15 33  1  0
 15 34  1  0
 16 35  1  0
 16 36  1  0
 18 37  1  0
 19 38  1  0
 20 39  1  0
 21 40  1  0
M  CHG  2   3  -1   7  -1
M  END
>  <UniqueID>  (86) 
82

>  <SMILES>  (86) 
O=C([N-]Cc1c[n-]nc1CN1CCOCC1)c1ccccc1F

>  <Energy>  (86) 
76.29476167677531

>  <Genealogy>  (86) 
O=C([N-]Cc1c[n-]nc1CN1CCOCC1)c1ccccc1F (protonated)
O=C([N-]Cc1c[n-]nc1CN1CCOCC1)c1ccccc1F (3D coordinates assigned)
O=C([N-]Cc1c[n-]nc1CN1CCOCC1)c1ccccc1F (nonaromatic ring conformer: 76.29476167677531 kcal/mol)

>  <smiles>  (86) 
O=C(NCc1c[nH]nc1CN1CCOCC1)c1ccccc1F

>  <score_type>  (86) 
oracle

>  <origin>  (86) 
adg

>  <m_score__min__energy>  (86) 
-10.98

>  <m_primary>  (86) 
energy

$$$$
86:0
     RDKit          3D

 45 47  0  0  0  0  0  0  0  0999 V2000
   54.0060   28.3290   53.0390 C   0  0  0  0  0  0  0  0  0  0  0  0
   54.6680   29.4900   52.8970 C   0  0  0  0  0  0  0  0  0  0  0  0
   54.3140   30.5680   52.0690 C   0  0  0  0  0  0  0  0  0  0  0  0
   53.1750   30.8390   51.4040 C   0  0  0  0  0  0  0  0  0  0  0  0
   51.9660   31.4530   51.9760 C   0  0  0  0  0  0  0  0  0  0  0  0
   51.6230   31.4010   53.2780 N   0  0  0  0  0  0  0  0  0  0  0  0
   50.5620   32.2350   53.3530 C   0  0  0  0  0  0  0  0  0  0  0  0
   49.9410   32.4460   54.4260 O   0  0  0  0  0  0  0  0  0  0  0  0
   50.2320   32.8380   52.1910 N   0  0  0  0  0  0  0  0  0  0  0  0
   51.1400   32.3430   51.3350 C   0  0  0  0  0  0  0  0  0  0  0  0
   51.2140   32.7000   49.9910 O   0  0  0  0  0  0  0  0  0  0  0  0
   55.4100   31.4120   52.0470 C   0  0  0  0  0  0  0  0  0  0  0  0
   56.3560   30.8680   52.8910 C   0  0  0  0  0  0  0  0  0  0  0  0
   57.6880   31.5080   53.1920 C   0  0  0  0  0  0  0  0  0  0  0  0
   58.1450   32.4290   52.0840 C   0  0  0  0  0  0  0  0  0  0  0  0
   58.1450   33.6770   52.2730 O   0  0  0  0  0  0  0  0  0  0  0  0
   58.6180   31.8970   50.8250 N   0  0  0  0  0  0  0  0  0  0  0  0
   58.9190   32.8000   49.7030 C   0  0  0  0  0  0  0  0  0  0  0  0
   58.4900   32.1630   48.3700 C   0  0  0  0  0  0  0  0  0  0  0  0
   58.8630   30.7250   48.2320 N   0  0  0  0  0  0  0  0  0  0  0  0
   59.5620   30.4730   46.9620 C   0  0  0  0  0  0  0  0  0  0  0  0
   59.6520   30.1920   49.3610 C   0  0  0  0  0  0  0  0  0  0  0  0
   58.9390   30.4700   50.6880 C   0  0  0  0  0  0  0  0  0  0  0  0
   55.8940   29.7190   53.4380 N   0  0  0  0  0  0  0  0  0  0  0  0
   56.6300   28.8340   54.3500 C   0  0  0  0  0  0  0  0  0  0  0  0
   54.3885   27.5580   53.7241 H   0  0  0  0  0  0  0  0  0  0  0  0
   53.0817   28.1497   52.4701 H   0  0  0  0  0  0  0  0  0  0  0  0
   53.1455   30.5777   50.3359 H   0  0  0  0  0  0  0  0  0  0  0  0
   55.5085   32.3411   51.4664 H   0  0  0  0  0  0  0  0  0  0  0  0
   57.5991   32.0896   54.1214 H   0  0  0  0  0  0  0  0  0  0  0  0
   58.4329   30.7046   53.2907 H   0  0  0  0  0  0  0  0  0  0  0  0
   58.3757   33.7461   49.8437 H   0  0  0  0  0  0  0  0  0  0  0  0
   60.0028   32.9860   49.6764 H   0  0  0  0  0  0  0  0  0  0  0  0
   57.3965   32.2456   48.2842 H   0  0  0  0  0  0  0  0  0  0  0  0
   59.0218   32.7055   47.5745 H   0  0  0  0  0  0  0  0  0  0  0  0
   60.5783   30.1066   47.1692 H   0  0  0  0  0  0  0  0  0  0  0  0
   59.0105   29.7171   46.3837 H   0  0  0  0  0  0  0  0  0  0  0  0
   59.6198   31.4069   46.3837 H   0  0  0  0  0  0  0  0  0  0  0  0
   59.7756   29.1061   49.2363 H   0  0  0  0  0  0  0  0  0  0  0  0
   60.6353   30.6849   49.3738 H   0  0  0  0  0  0  0  0  0  0  0  0
   58.0071   29.8867   50.7246 H   0  0  0  0  0  0  0  0  0  0  0  0
   59.6077   30.1808   51.5121 H   0  0  0  0  0  0  0  0  0  0  0  0
   56.4019   29.1082   55.3906 H   0  0  0  0  0  0  0  0  0  0  0  0
   56.3291   27.7912   54.1713 H   0  0  0  0  0  0  0  0  0  0  0  0
   57.7102   28.9397   54.1713 H   0  0  0  0  0  0  0  0  0  0  0  0
  1  2  2  0
  2  3  1  0
  3  4  2  3
  4  5  1  0
  5  6  1  0
  6  7  1  0
  7  8  2  0
  7  9  1  0
  9 10  1  0
 10 11  1  0
  3 12  1  0
 12 13  2  0
 13 14  1  0
 14 15  1  0
 15 16  2  0
 15 17  1  0
 17 18  1  0
 18 19  1  0
 19 20  1  0
 20 21  1  0
 20 22  1  0
 22 23  1  0
 13 24  1  0
 24 25  1  0
 24  2  1  0
 10  5  2  0
 23 17  1  0
  1 26  1  0
  1 27  1  0
  4 28  1  0
 12 29  1  0
 14 30  1  0
 14 31  1  0
 18 32  1  0
 18 33  1  0
 19 34  1  0
 19 35  1  0
 21 36  1  0
 21 37  1  0
 21 38  1  0
 22 39  1  0
 22 40  1  0
 23 41  1  0
 23 42  1  0
 25 43  1  0
 25 44  1  0
 25 45  1  0
M  CHG  3   6  -1   9  -1  11  -1
M  END
>  <UniqueID>  (87) 
83

>  <SMILES>  (87) 
C=c1c(=Cc2[n-]c(=O)[n-]c2[O-])cc(CC(=O)N2CCN(C)CC2)n1C

>  <Energy>  (87) 
120.85708345163665

>  <Genealogy>  (87) 
C=c1c(=Cc2[n-]c(=O)[n-]c2[O-])cc(CC(=O)N2CCN(C)CC2)n1C (protonated)
C=c1c(=Cc2[n-]c(=O)[n-]c2[O-])cc(CC(=O)N2CCN(C)CC2)n1C (3D coordinates assigned)
C=c1c(=Cc2[n-]c(=O)[n-]c2[O-])cc(CC(=O)N2CCN(C)CC2)n1C (nonaromatic ring conformer: 120.85708345163665 kcal/mol)

>  <smiles>  (87) 
C=c1c(=Cc2[nH]c(=O)[nH]c2O)cc(CC(=O)N2CCN(C)CC2)n1C

>  <score_type>  (87) 
oracle

>  <origin>  (87) 
adg

>  <m_score__min__energy>  (87) 
-16.870000000000001

>  <m_primary>  (87) 
energy

$$$$
87:0
     RDKit          3D

 63 66  0  0  0  0  0  0  0  0999 V2000
   56.5451   29.4578   43.5983 H   0  0  0  0  0  0  0  0  0  0  0  0
   56.7590   28.7790   44.4370 C   0  0  0  0  0  0  0  0  0  0  0  0
   56.1787   27.8521   44.5561 H   0  0  0  0  0  0  0  0  0  0  0  0
   57.7290   29.0820   45.3160 C   0  0  0  0  0  0  0  0  0  0  0  0
   58.1290   28.3300   46.4370 C   0  0  0  0  0  0  0  0  0  0  0  0
   57.6330   27.1980   46.9730 C   0  0  0  0  0  0  0  0  0  0  0  0
   57.5737   27.1419   48.0700 H   0  0  0  0  0  0  0  0  0  0  0  0
   57.1660   26.0350   46.2130 C   0  0  0  0  0  0  0  0  0  0  0  0
   57.9540   25.0000   45.8430 N   0  0  0  0  0  0  0  0  0  0  0  0
   57.1000   24.1680   45.2050 C   0  0  0  0  0  0  0  0  0  0  0  0
   57.4580   23.0580   44.7280 O   0  0  0  0  0  0  0  0  0  0  0  0
   55.8320   24.6310   45.1470 N   0  0  0  0  0  0  0  0  0  0  0  0
   54.6390   23.9240   44.6760 C   0  0  0  0  0  0  0  0  0  0  0  0
   54.0752   24.5824   43.9988 H   0  0  0  0  0  0  0  0  0  0  0  0
   54.9581   23.0115   44.1512 H   0  0  0  0  0  0  0  0  0  0  0  0
   53.7500   23.5270   45.8320 C   0  0  0  0  0  0  0  0  0  0  0  0
   52.5370   23.8860   45.8280 O   0  0  0  0  0  0  0  0  0  0  0  0
   54.2580   22.7270   46.9270 N   0  0  0  0  0  0  0  0  0  0  0  0
   53.3800   22.4580   48.0810 C   0  0  0  0  0  0  0  0  0  0  0  0
   52.7240   23.3283   48.2300 H   0  0  0  0  0  0  0  0  0  0  0  0
   52.8133   21.5437   47.8508 H   0  0  0  0  0  0  0  0  0  0  0  0
   54.1540   22.1960   49.3970 C   0  0  0  0  0  0  0  0  0  0  0  0
   53.9682   23.0355   50.0831 H   0  0  0  0  0  0  0  0  0  0  0  0
   53.7913   21.2390   49.8002 H   0  0  0  0  0  0  0  0  0  0  0  0
   55.6120   22.0620   49.2070 N   0  0  0  0  0  0  0  0  0  0  0  0
   56.2260   21.4730   50.4070 C   0  0  0  0  0  0  0  0  0  0  0  0
   55.7685   21.9119   51.3060 H   0  0  0  0  0  0  0  0  0  0  0  0
   56.0626   20.3852   50.4062 H   0  0  0  0  0  0  0  0  0  0  0  0
   57.3061   21.6815   50.4062 H   0  0  0  0  0  0  0  0  0  0  0  0
   55.8990   21.2320   48.0290 C   0  0  0  0  0  0  0  0  0  0  0  0
   56.9669   20.9688   48.0115 H   0  0  0  0  0  0  0  0  0  0  0  0
   55.3064   20.3060   48.0662 H   0  0  0  0  0  0  0  0  0  0  0  0
   55.5450   22.0300   46.7790 C   0  0  0  0  0  0  0  0  0  0  0  0
   56.3344   22.7736   46.5949 H   0  0  0  0  0  0  0  0  0  0  0  0
   55.4611   21.3286   45.9358 H   0  0  0  0  0  0  0  0  0  0  0  0
   55.8780   25.8120   45.7840 C   0  0  0  0  0  0  0  0  0  0  0  0
   54.7800   26.6360   46.0060 O   0  0  0  0  0  0  0  0  0  0  0  0
   59.2300   28.9800   46.9640 C   0  0  0  0  0  0  0  0  0  0  0  0
   59.8251   28.6594   47.8318 H   0  0  0  0  0  0  0  0  0  0  0  0
   59.4410   30.1050   46.1970 C   0  0  0  0  0  0  0  0  0  0  0  0
   60.5570   31.0820   46.4210 C   0  0  0  0  0  0  0  0  0  0  0  0
   60.7133   31.2188   47.5012 H   0  0  0  0  0  0  0  0  0  0  0  0
   61.4797   30.6961   45.9630 H   0  0  0  0  0  0  0  0  0  0  0  0
   60.2964   32.0476   45.9630 H   0  0  0  0  0  0  0  0  0  0  0  0
   58.5450   30.1640   45.1850 N   0  0  0  0  0  0  0  0  0  0  0  0
   58.4910   31.2110   44.1510 C   0  0  0  0  0  0  0  0  0  0  0  0
   59.3658   31.8694   44.2571 H   0  0  0  0  0  0  0  0  0  0  0  0
   58.4933   30.7322   43.1607 H   0  0  0  0  0  0  0  0  0  0  0  0
   57.2150   32.0430   44.2940 C   0  0  0  0  0  0  0  0  0  0  0  0
   57.2925   32.9366   43.6573 H   0  0  0  0  0  0  0  0  0  0  0  0
   56.3550   31.4304   43.9856 H   0  0  0  0  0  0  0  0  0  0  0  0
   57.0300   32.4480   45.6520 O   0  0  0  0  0  0  0  0  0  0  0  0
   57.9650   33.1490   46.4320 C   0  0  0  0  0  0  0  0  0  0  0  0
   58.6610   34.2090   45.8340 C   0  0  0  0  0  0  0  0  0  0  0  0
   58.4638   34.4675   44.7831 H   0  0  0  0  0  0  0  0  0  0  0  0
   59.6050   34.9410   46.5640 C   0  0  0  0  0  0  0  0  0  0  0  0
   60.1446   35.7724   46.0869 H   0  0  0  0  0  0  0  0  0  0  0  0
   59.8620   34.6160   47.8980 C   0  0  0  0  0  0  0  0  0  0  0  0
   60.6022   35.1930   48.4717 H   0  0  0  0  0  0  0  0  0  0  0  0
   59.1790   33.5580   48.5040 C   0  0  0  0  0  0  0  0  0  0  0  0
   59.3835   33.3016   49.5540 H   0  0  0  0  0  0  0  0  0  0  0  0
   58.2360   32.8250   47.7770 C   0  0  0  0  0  0  0  0  0  0  0  0
   57.7028   31.9912   48.2570 H   0  0  0  0  0  0  0  0  0  0  0  0
  1  2  1  0
  2  3  1  0
  2  4  2  0
  4  5  1  0
  5  6  2  0
  6  7  1  0
  6  8  1  0
  8  9  1  0
  9 10  1  0
 10 11  2  0
 10 12  1  0
 12 13  1  0
 13 14  1  0
 13 15  1  0
 13 16  1  0
 16 17  2  0
 16 18  1  0
 18 19  1  0
 19 20  1  0
 19 21  1  0
 19 22  1  0
 22 23  1  0
 22 24  1  0
 22 25  1  0
 25 26  1  0
 26 27  1  0
 26 28  1  0
 26 29  1  0
 25 30  1  0
 30 31  1  0
 30 32  1  0
 30 33  1  0
 33 34  1  0
 33 35  1  0
 12 36  1  0
 36 37  1  0
  5 38  1  0
 38 39  1  0
 38 40  2  0
 40 41  1  0
 41 42  1  0
 41 43  1  0
 41 44  1  0
 40 45  1  0
 45 46  1  0
 46 47  1  0
 46 48  1  0
 46 49  1  0
 49 50  1  0
 49 51  1  0
 49 52  1  0
 52 53  1  0
 53 54  2  0
 54 55  1  0
 54 56  1  0
 56 57  1  0
 56 58  2  0
 58 59  1  0
 58 60  1  0
 60 61  1  0
 60 62  2  0
 62 63  1  0
 45  4  1  0
 62 53  1  0
 36  8  2  0
 33 18  1  0
M  CHG  2   9  -1  37  -1
M  END
>  <UniqueID>  (88) 
84

>  <SMILES>  (88) 
C=c1/c(=C\c2[n-]c(=O)n(CC(=O)N3CCN(C)CC3)c2[O-])cc(C)n1CCOc1ccccc1

>  <Energy>  (88) 
141.44920039142661

>  <Genealogy>  (88) 
C=c1c(=Cc2[n-]c(=O)n(CC(=O)N3CCN(C)CC3)c2[O-])cc(C)n1CCOc1ccccc1 (protonated)
C=c1/c(=C\c2[n-]c(=O)n(CC(=O)N3CCN(C)CC3)c2[O-])cc(C)n1CCOc1ccccc1 (cis-trans isomerization)
C=c1/c(=C\c2[n-]c(=O)n(CC(=O)N3CCN(C)CC3)c2[O-])cc(C)n1CCOc1ccccc1 (3D coordinates assigned)
C=c1/c(=C\c2[n-]c(=O)n(CC(=O)N3CCN(C)CC3)c2[O-])cc(C)n1CCOc1ccccc1 (nonaromatic ring conformer: 141.44920039142661 kcal/mol)

>  <smiles>  (88) 
C=c1c(=Cc2[nH]c(=O)n(CC(=O)N3CCN(C)CC3)c2O)cc(C)n1CCOc1ccccc1

>  <score_type>  (88) 
oracle

>  <origin>  (88) 
adg

>  <m_score__min__energy>  (88) 
-13.07

>  <m_primary>  (88) 
energy

$$$$
