0:0
     RDKit          3D

 45 47  0  0  0  0  0  0  0  0999 V2000
   60.9380   33.4210   53.0930 C   0  0  0  0  0  0  0  0  0  0  0  0
   59.6140   33.2460   51.9160 S   0  0  0  0  0  0  0  0  0  0  0  0
   59.4280   31.7860   51.6130 O   0  0  0  0  0  0  0  0  0  0  0  0
   58.3330   33.7880   52.4860 O   0  0  0  0  0  0  0  0  0  0  0  0
   60.0070   34.0740   50.4430 N   0  0  0  0  0  0  0  0  0  0  0  0
   59.5930   33.6840   49.1250 C   0  0  0  0  0  0  0  0  0  0  0  0
   58.5920   32.7140   48.9990 C   0  0  0  0  0  0  0  0  0  0  0  0
   58.1540   32.3050   47.7350 C   0  0  0  0  0  0  0  0  0  0  0  0
   58.7120   32.8630   46.5730 C   0  0  0  0  0  0  0  0  0  0  0  0
   58.2720   32.4280   45.2290 C   0  0  0  0  0  0  0  0  0  0  0  0
   57.5570   31.3020   45.0140 N   0  0  0  0  0  0  0  0  0  0  0  0
   57.2220   31.1360   43.7060 C   0  0  0  0  0  0  0  0  0  0  0  0
   56.3230   30.0160   43.2710 C   0  0  0  0  0  0  0  0  0  0  0  0
   55.3460   29.6100   44.3850 C   0  0  0  0  0  0  0  0  0  0  0  0
   55.9170   28.5780   45.2460 N   0  0  0  0  0  0  0  0  0  0  0  0
   57.2520   28.0750   45.1220 C   0  0  0  0  0  0  0  0  0  0  0  0
   57.5010   27.1580   44.2930 O   0  0  0  0  0  0  0  0  0  0  0  0
   58.3410   28.6630   45.9360 C   0  0  0  0  0  0  0  0  0  0  0  0
   59.5700   29.0040   45.3400 C   0  0  0  0  0  0  0  0  0  0  0  0
   60.6130   29.5210   46.1120 C   0  0  0  0  0  0  0  0  0  0  0  0
   60.4460   29.7010   47.4850 C   0  0  0  0  0  0  0  0  0  0  0  0
   59.2330   29.3570   48.0950 C   0  0  0  0  0  0  0  0  0  0  0  0
   59.0600   29.5180   49.4660 O   0  0  0  0  0  0  0  0  0  0  0  0
   58.1850   28.8450   47.3220 C   0  0  0  0  0  0  0  0  0  0  0  0
   57.6630   32.1440   42.8530 C   0  0  0  0  0  0  0  0  0  0  0  0
   58.5060   33.2630   43.7840 S   0  0  0  0  0  0  0  0  0  0  0  0
   59.7150   33.8390   46.7030 C   0  0  0  0  0  0  0  0  0  0  0  0
   60.1540   34.2450   47.9660 C   0  0  0  0  0  0  0  0  0  0  0  0
   60.5309   33.3672   54.1135 H   0  0  0  0  0  0  0  0  0  0  0  0
   61.6683   32.6116   52.9464 H   0  0  0  0  0  0  0  0  0  0  0  0
   61.4329   34.3924   52.9464 H   0  0  0  0  0  0  0  0  0  0  0  0
   58.1461   32.2697   49.9011 H   0  0  0  0  0  0  0  0  0  0  0  0
   57.3671   31.5411   47.6505 H   0  0  0  0  0  0  0  0  0  0  0  0
   55.7471   30.3413   42.3921 H   0  0  0  0  0  0  0  0  0  0  0  0
   56.9503   29.1453   43.0292 H   0  0  0  0  0  0  0  0  0  0  0  0
   55.1111   30.4949   44.9948 H   0  0  0  0  0  0  0  0  0  0  0  0
   54.4366   29.2053   43.9167 H   0  0  0  0  0  0  0  0  0  0  0  0
   59.7100   28.8622   44.2582 H   0  0  0  0  0  0  0  0  0  0  0  0
   61.5684   29.7868   45.6360 H   0  0  0  0  0  0  0  0  0  0  0  0
   61.2675   30.1134   48.0892 H   0  0  0  0  0  0  0  0  0  0  0  0
   59.2850   30.3890   49.9300 H   0  0  0  0  0  0  0  0  0  0  0  0
   57.2309   28.5826   47.8024 H   0  0  0  0  0  0  0  0  0  0  0  0
   57.4914   32.1987   41.7678 H   0  0  0  0  0  0  0  0  0  0  0  0
   60.1587   34.2876   45.8019 H   0  0  0  0  0  0  0  0  0  0  0  0
   60.9423   35.0072   48.0529 H   0  0  0  0  0  0  0  0  0  0  0  0
  1  2  1  0
  2  3  2  0
  2  4  2  0
  2  5  1  0
  5  6  1  0
  6  7  2  0
  7  8  1  0
  8  9  2  0
  9 10  1  0
 10 11  2  0
 11 12  1  0
 12 13  1  0
 13 14  1  0
 14 15  1  0
 15 16  1  0
 16 17  2  0
 16 18  1  0
 18 19  2  0
 19 20  1  0
 20 21  2  0
 21 22  1  0
 22 23  1  0
 22 24  2  0
 12 25  2  0
 25 26  1  0
  9 27  1  0
 27 28  2  0
 28  6  1  0
 26 10  1  0
 24 18  1  0
  1 29  1  0
  1 30  1  0
  1 31  1  0
  7 32  1  0
  8 33  1  0
 13 34  1  0
 13 35  1  0
 14 36  1  0
 14 37  1  0
 19 38  1  0
 20 39  1  0
 21 40  1  0
 23 41  1  0
 24 42  1  0
 25 43  1  0
 27 44  1  0
 28 45  1  0
M  CHG  2   5  -1  15  -1
M  END
>  <UniqueID>  (1) 
1

>  <SMILES>  (1) 
CS(=O)(=O)[N-]c1ccc(-c2nc(CC[N-]C(=O)c3cccc(O)c3)cs2)cc1

>  <Energy>  (1) 
68.49697502313356

>  <Genealogy>  (1) 
CS(=O)(=O)[N-]c1ccc(-c2nc(CC[N-]C(=O)c3cccc(O)c3)cs2)cc1 (protonated)
CS(=O)(=O)[N-]c1ccc(-c2nc(CC[N-]C(=O)c3cccc(O)c3)cs2)cc1 (3D coordinates assigned)
CS(=O)(=O)[N-]c1ccc(-c2nc(CC[N-]C(=O)c3cccc(O)c3)cs2)cc1 (optimized conformer: 68.49697502313356 kcal/mol)

>  <smiles>  (1) 
CS(=O)(=O)Nc1ccc(-c2nc(CCNC(=O)c3cccc(O)c3)cs2)cc1

>  <score_type>  (1) 
oracle

>  <origin>  (1) 
adg

>  <m_score__min__energy>  (1) 
-11.85

>  <m_primary>  (1) 
energy

$$$$
1:0
     RDKit          3D

 52 54  0  0  0  0  0  0  0  0999 V2000
   59.6820   35.2260   46.2100 C   0  0  0  0  0  0  0  0  0  0  0  0
   58.9450   34.0110   45.7100 C   0  0  0  0  0  0  0  0  0  0  0  0
   58.7590   33.8460   44.3270 C   0  0  0  0  0  0  0  0  0  0  0  0
   58.1320   32.7040   43.8260 C   0  0  0  0  0  0  0  0  0  0  0  0
   57.6780   31.7090   44.7010 C   0  0  0  0  0  0  0  0  0  0  0  0
   56.9160   30.2490   44.0750 S   0  0  0  0  0  0  0  0  0  0  0  0
   55.6040   30.0470   44.7800 O   0  0  0  0  0  0  0  0  0  0  0  0
   56.6680   30.3950   42.5980 O   0  0  0  0  0  0  0  0  0  0  0  0
   57.9580   28.8730   44.3540 N   0  0  0  0  0  0  0  0  0  0  0  0
   57.4860   28.0660   45.5040 C   0  0  0  0  0  0  0  0  0  0  0  0
   58.3960   28.2150   46.7350 C   0  0  0  0  0  0  0  0  0  0  0  0
   59.7450   27.8570   46.4750 O   0  0  0  0  0  0  0  0  0  0  0  0
   60.2010   28.2360   45.1820 C   0  0  0  0  0  0  0  0  0  0  0  0
   59.3530   29.3240   44.5000 C   0  0  0  0  0  0  0  0  0  0  0  0
   57.8320   31.8770   46.0820 C   0  0  0  0  0  0  0  0  0  0  0  0
   58.4360   33.0300   46.5970 C   0  0  0  0  0  0  0  0  0  0  0  0
   58.5790   33.1520   48.0160 N   0  0  0  0  0  0  0  0  0  0  0  0
   58.9610   32.0720   48.8730 C   0  0  0  0  0  0  0  0  0  0  0  0
   58.5360   30.9030   48.6570 O   0  0  0  0  0  0  0  0  0  0  0  0
   59.8680   32.3270   50.0300 C   0  0  0  0  0  0  0  0  0  0  0  0
   61.1660   32.7860   49.5450 N   0  0  0  0  0  0  0  0  0  0  0  0
   62.3140   32.8210   50.2570 C   0  0  0  0  0  0  0  0  0  0  0  0
   63.3340   33.2180   49.4100 C   0  0  0  0  0  0  0  0  0  0  0  0
   64.7680   33.4490   49.7770 C   0  0  0  0  0  0  0  0  0  0  0  0
   65.5490   32.3580   49.3710 O   0  0  0  0  0  0  0  0  0  0  0  0
   62.7250   33.4260   48.1800 C   0  0  0  0  0  0  0  0  0  0  0  0
   63.3930   33.8510   46.9100 C   0  0  0  0  0  0  0  0  0  0  0  0
   61.4140   33.1360   48.2910 N   0  0  0  0  0  0  0  0  0  0  0  0
   59.6829   35.2274   47.3100 H   0  0  0  0  0  0  0  0  0  0  0  0
   60.7186   35.2031   45.8425 H   0  0  0  0  0  0  0  0  0  0  0  0
   59.1827   36.1347   45.8425 H   0  0  0  0  0  0  0  0  0  0  0  0
   59.1106   34.6237   43.6330 H   0  0  0  0  0  0  0  0  0  0  0  0
   57.9941   32.5851   42.7412 H   0  0  0  0  0  0  0  0  0  0  0  0
   56.4709   28.3935   45.7729 H   0  0  0  0  0  0  0  0  0  0  0  0
   57.5003   27.0086   45.2012 H   0  0  0  0  0  0  0  0  0  0  0  0
   58.3693   29.2638   47.0656 H   0  0  0  0  0  0  0  0  0  0  0  0
   58.0175   27.5305   47.5084 H   0  0  0  0  0  0  0  0  0  0  0  0
   61.2303   28.6120   45.2772 H   0  0  0  0  0  0  0  0  0  0  0  0
   60.1275   27.3394   44.5490 H   0  0  0  0  0  0  0  0  0  0  0  0
   59.3761   30.2379   45.1118 H   0  0  0  0  0  0  0  0  0  0  0  0
   59.7685   29.5262   43.5018 H   0  0  0  0  0  0  0  0  0  0  0  0
   57.4750   31.0956   46.7691 H   0  0  0  0  0  0  0  0  0  0  0  0
   59.4261   33.0982   50.6781 H   0  0  0  0  0  0  0  0  0  0  0  0
   60.0006   31.3964   50.6013 H   0  0  0  0  0  0  0  0  0  0  0  0
   62.4195   32.5765   51.3243 H   0  0  0  0  0  0  0  0  0  0  0  0
   65.1291   34.3608   49.2788 H   0  0  0  0  0  0  0  0  0  0  0  0
   64.8473   33.5634   50.8682 H   0  0  0  0  0  0  0  0  0  0  0  0
   66.1550   32.6940   48.6580 H   0  0  0  0  0  0  0  0  0  0  0  0
   64.2992   34.4275   47.1475 H   0  0  0  0  0  0  0  0  0  0  0  0
   63.6675   32.9611   46.3245 H   0  0  0  0  0  0  0  0  0  0  0  0
   62.7033   34.4767   46.3245 H   0  0  0  0  0  0  0  0  0  0  0  0
   60.7010   33.1680   47.5270 H   0  0  0  0  0  0  0  0  0  0  0  0
  1  2  1  0
  2  3  2  0
  3  4  1  0
  4  5  2  0
  5  6  1  0
  6  7  2  0
  6  8  2  0
  6  9  1  0
  9 10  1  0
 10 11  1  0
 11 12  1  0
 12 13  1  0
 13 14  1  0
  5 15  1  0
 15 16  2  0
 16 17  1  0
 17 18  1  0
 18 19  2  0
 18 20  1  0
 20 21  1  0
 21 22  1  0
 22 23  2  0
 23 24  1  0
 24 25  1  0
 23 26  1  0
 26 27  1  0
 26 28  2  0
 16  2  1  0
 28 21  1  0
 14  9  1  0
  1 29  1  0
  1 30  1  0
  1 31  1  0
  3 32  1  0
  4 33  1  0
 10 34  1  0
 10 35  1  0
 11 36  1  0
 11 37  1  0
 13 38  1  0
 13 39  1  0
 14 40  1  0
 14 41  1  0
 15 42  1  0
 20 43  1  0
 20 44  1  0
 22 45  1  0
 24 46  1  0
 24 47  1  0
 25 48  1  0
 27 49  1  0
 27 50  1  0
 27 51  1  0
 28 52  1  0
M  CHG  2  17  -1  28   1
M  END
>  <UniqueID>  (2) 
2

>  <SMILES>  (2) 
Cc1ccc(S(=O)(=O)N2CCOCC2)cc1[N-]C(=O)Cn1cc(CO)c(C)[nH+]1

>  <Energy>  (2) 
96.75145711484242

>  <Genealogy>  (2) 
Cc1ccc(S(=O)(=O)N2CCOCC2)cc1[N-]C(=O)Cn1cc(CO)c(C)[nH+]1 (protonated)
Cc1ccc(S(=O)(=O)N2CCOCC2)cc1[N-]C(=O)Cn1cc(CO)c(C)[nH+]1 (3D coordinates assigned)
Cc1ccc(S(=O)(=O)N2CCOCC2)cc1[N-]C(=O)Cn1cc(CO)c(C)[nH+]1 (nonaromatic ring conformer: 96.75145711484242 kcal/mol)

>  <smiles>  (2) 
Cc1ccc(S(=O)(=O)N2CCOCC2)cc1NC(=O)Cn1cc(CO)c(C)n1

>  <score_type>  (2) 
oracle

>  <origin>  (2) 
adg

>  <m_score__min__energy>  (2) 
-10.050000000000001

>  <m_primary>  (2) 
energy

$$$$
2:0
     RDKit          3D

 69 74  0  0  0  0  0  0  0  0999 V2000
   60.5600   26.2420   46.8470 O   0  0  0  0  0  0  0  0  0  0  0  0
   59.6340   27.0820   46.9950 C   0  0  0  0  0  0  0  0  0  0  0  0
   58.2150   26.5940   47.0820 C   0  0  0  0  0  0  0  0  0  0  0  0
   57.3860   27.0140   45.8490 C   0  0  2  0  0  0  0  0  0  0  0  0
   57.2780   25.8660   44.8220 C   0  0  0  0  0  0  0  0  0  0  0  0
   56.6370   24.6390   45.4040 C   0  0  0  0  0  0  0  0  0  0  0  0
   55.9150   24.5720   46.5910 C   0  0  0  0  0  0  0  0  0  0  0  0
   55.4780   23.3080   46.8060 N   0  0  0  0  0  0  0  0  0  0  0  0
   55.9330   22.5760   45.7760 C   0  0  0  0  0  0  0  0  0  0  0  0
   55.7530   21.2100   45.5660 C   0  0  0  0  0  0  0  0  0  0  0  0
   56.3090   20.6470   44.4040 C   0  0  0  0  0  0  0  0  0  0  0  0
   57.0170   21.4500   43.4860 C   0  0  0  0  0  0  0  0  0  0  0  0
   57.1840   22.8230   43.7200 C   0  0  0  0  0  0  0  0  0  0  0  0
   56.6360   23.3540   44.8890 C   0  0  0  0  0  0  0  0  0  0  0  0
   58.0130   28.1880   45.2300 N   0  0  0  0  0  0  0  0  0  0  0  0
   57.3110   29.4210   45.0140 C   0  0  0  0  0  0  0  0  0  0  0  0
   56.0480   29.4440   45.0010 O   0  0  0  0  0  0  0  0  0  0  0  0
   58.0860   30.6810   44.7370 C   0  0  2  0  0  0  0  0  0  0  0  0
   59.4310   30.5260   45.1360 O   0  0  0  0  0  0  0  0  0  0  0  0
   57.4620   31.8240   45.4210 N   0  0  0  0  0  0  0  0  0  0  0  0
   58.1930   33.0140   45.7800 C   0  0  0  0  0  0  0  0  0  0  0  0
   58.4780   33.9810   44.7950 C   0  0  0  0  0  0  0  0  0  0  0  0
   59.2190   35.1190   45.1010 C   0  0  0  0  0  0  0  0  0  0  0  0
   59.7200   35.3050   46.3850 C   0  0  0  0  0  0  0  0  0  0  0  0
   59.4570   34.3650   47.3910 C   0  0  0  0  0  0  0  0  0  0  0  0
   59.9370   34.5790   48.6910 C   0  0  0  0  0  0  0  0  0  0  0  0
   59.6430   33.6740   49.7100 C   0  0  0  0  0  0  0  0  0  0  0  0
   58.8590   32.5520   49.4420 C   0  0  0  0  0  0  0  0  0  0  0  0
   58.3730   32.3230   48.1520 C   0  0  0  0  0  0  0  0  0  0  0  0
   58.6740   33.2140   47.1010 C   0  0  0  0  0  0  0  0  0  0  0  0
   59.9820   28.4730   47.0800 N   0  0  0  0  0  0  0  0  0  0  0  0
   59.9790   29.2810   48.2980 C   0  0  0  0  0  0  0  0  0  0  0  0
   61.0080   30.3560   48.2000 C   0  0  0  0  0  0  0  0  0  0  0  0
   61.1170   31.1760   47.1230 N   0  0  0  0  0  0  0  0  0  0  0  0
   62.1090   32.0060   47.4890 C   0  0  0  0  0  0  0  0  0  0  0  0
   62.6460   33.0690   46.7690 C   0  0  0  0  0  0  0  0  0  0  0  0
   63.6780   33.8150   47.3780 C   0  0  0  0  0  0  0  0  0  0  0  0
   64.1390   33.4720   48.6700 C   0  0  0  0  0  0  0  0  0  0  0  0
   63.5670   32.3920   49.3670 C   0  0  0  0  0  0  0  0  0  0  0  0
   62.5490   31.6880   48.7400 C   0  0  0  0  0  0  0  0  0  0  0  0
   61.8650   30.6400   49.2160 N   0  0  0  0  0  0  0  0  0  0  0  0
   58.2199   25.4961   47.1503 H   0  0  0  0  0  0  0  0  0  0  0  0
   57.7533   27.0442   47.9731 H   0  0  0  0  0  0  0  0  0  0  0  0
   56.3656   27.2601   46.1779 H   0  0  0  0  0  0  0  0  0  0  0  0
   56.6742   26.2099   43.9693 H   0  0  0  0  0  0  0  0  0  0  0  0
   58.2978   25.5969   44.5096 H   0  0  0  0  0  0  0  0  0  0  0  0
   55.7258   25.4244   47.2601 H   0  0  0  0  0  0  0  0  0  0  0  0
   54.8980   22.9760   47.6100 H   0  0  0  0  0  0  0  0  0  0  0  0
   55.1946   20.5930   46.2854 H   0  0  0  0  0  0  0  0  0  0  0  0
   56.1908   19.5709   44.2091 H   0  0  0  0  0  0  0  0  0  0  0  0
   57.4419   20.9958   42.5787 H   0  0  0  0  0  0  0  0  0  0  0  0
   57.7282   23.4595   43.0067 H   0  0  0  0  0  0  0  0  0  0  0  0
   59.0490   28.1900   45.1330 H   0  0  0  0  0  0  0  0  0  0  0  0
   58.0700   30.8784   43.6550 H   0  0  0  0  0  0  0  0  0  0  0  0
   59.4490   30.2820   46.0960 H   0  0  0  0  0  0  0  0  0  0  0  0
   56.4320   31.8010   45.6040 H   0  0  0  0  0  0  0  0  0  0  0  0
   58.1094   33.8342   43.7691 H   0  0  0  0  0  0  0  0  0  0  0  0
   59.4091   35.8742   44.3241 H   0  0  0  0  0  0  0  0  0  0  0  0
   60.3259   36.1945   46.6123 H   0  0  0  0  0  0  0  0  0  0  0  0
   60.5494   35.4666   48.9082 H   0  0  0  0  0  0  0  0  0  0  0  0
   60.0295   33.8449   50.7256 H   0  0  0  0  0  0  0  0  0  0  0  0
   58.6221   31.8440   50.2499 H   0  0  0  0  0  0  0  0  0  0  0  0
   57.7493   31.4388   47.9542 H   0  0  0  0  0  0  0  0  0  0  0  0
   58.9869   29.7374   48.4298 H   0  0  0  0  0  0  0  0  0  0  0  0
   60.2109   28.6368   49.1590 H   0  0  0  0  0  0  0  0  0  0  0  0
   62.2797   33.3187   45.7623 H   0  0  0  0  0  0  0  0  0  0  0  0
   64.1256   34.6669   46.8452 H   0  0  0  0  0  0  0  0  0  0  0  0
   64.9500   34.0533   49.1331 H   0  0  0  0  0  0  0  0  0  0  0  0
   63.9145   32.1155   50.3734 H   0  0  0  0  0  0  0  0  0  0  0  0
  1  2  2  0
  2  3  1  0
  3  4  1  0
  4  5  1  0
  5  6  1  0
  6  7  2  0
  7  8  1  0
  8  9  1  0
  9 10  2  0
 10 11  1  0
 11 12  2  0
 12 13  1  0
 13 14  2  0
  4 15  1  0
 15 16  1  0
 16 17  2  0
 16 18  1  0
 18 19  1  0
 18 20  1  0
 20 21  1  0
 21 22  2  0
 22 23  1  0
 23 24  2  0
 24 25  1  0
 25 26  2  0
 26 27  1  0
 27 28  2  0
 28 29  1  0
 29 30  2  0
  2 31  1  0
 31 32  1  0
 32 33  1  0
 33 34  2  0
 34 35  1  0
 35 36  2  0
 36 37  1  0
 37 38  2  0
 38 39  1  0
 39 40  2  0
 40 41  1  0
 14  6  1  0
 30 21  1  0
 41 33  1  0
 14  9  1  0
 30 25  1  0
 40 35  1  0
  3 42  1  0
  3 43  1  0
  4 44  1  1
  5 45  1  0
  5 46  1  0
  7 47  1  0
  8 48  1  0
 10 49  1  0
 11 50  1  0
 12 51  1  0
 13 52  1  0
 15 53  1  0
 18 54  1  6
 19 55  1  0
 20 56  1  0
 22 57  1  0
 23 58  1  0
 24 59  1  0
 26 60  1  0
 27 61  1  0
 28 62  1  0
 29 63  1  0
 32 64  1  0
 32 65  1  0
 36 66  1  0
 37 67  1  0
 38 68  1  0
 39 69  1  0
M  CHG  2  31  -1  41  -1
M  END
>  <UniqueID>  (3) 
3

>  <SMILES>  (3) 
O=C(C[C@H](Cc1c[nH]c2ccccc12)NC(=O)[C@H](O)Nc1cccc2ccccc12)[N-]Cc1nc2ccccc2[n-]1

>  <Energy>  (3) 
139.84541676816627

>  <Genealogy>  (3) 
O=C(CC(Cc1c[nH]c2ccccc12)NC(=O)C(O)Nc1cccc2ccccc12)[N-]Cc1nc2ccccc2[n-]1 (protonated)
O=C(C[C@H](Cc1c[nH]c2ccccc12)NC(=O)[C@H](O)Nc1cccc2ccccc12)[N-]Cc1nc2ccccc2[n-]1 (chirality)
O=C(C[C@H](Cc1c[nH]c2ccccc12)NC(=O)[C@H](O)Nc1cccc2ccccc12)[N-]Cc1nc2ccccc2[n-]1 (3D coordinates assigned)
O=C(C[C@H](Cc1c[nH]c2ccccc12)NC(=O)[C@H](O)Nc1cccc2ccccc12)[N-]Cc1nc2ccccc2[n-]1 (optimized conformer: 139.84541676816627 kcal/mol)

>  <smiles>  (3) 
O=C(CC(Cc1c[nH]c2ccccc12)NC(=O)C(O)Nc1cccc2ccccc12)NCc1nc2ccccc2[nH]1

>  <score_type>  (3) 
oracle

>  <origin>  (3) 
adg

>  <m_score__min__energy>  (3) 
-13.92

>  <m_primary>  (3) 
energy

$$$$
3:0
     RDKit          3D

 35 36  0  0  0  0  0  0  0  0999 V2000
   59.3528   33.8510   47.6416 H   0  0  0  0  0  0  0  0  0  0  0  0
   60.2450   33.2150   47.5440 C   0  0  0  0  0  0  0  0  0  0  0  0
   60.1150   31.8620   47.5120 N   0  0  0  0  0  0  0  0  0  0  0  0
   61.1860   31.0310   47.3930 C   0  0  0  0  0  0  0  0  0  0  0  0
   60.9740   29.7440   47.3670 N   0  0  0  0  0  0  0  0  0  0  0  0
   60.6950   28.9150   46.1930 C   0  0  0  0  0  0  0  0  0  0  0  0
   60.9951   27.8781   46.4047 H   0  0  0  0  0  0  0  0  0  0  0  0
   61.2630   29.3125   45.3390 H   0  0  0  0  0  0  0  0  0  0  0  0
   59.2280   28.9440   45.8510 C   0  0  0  0  0  0  0  0  0  0  0  0
   58.4790   27.7590   45.8630 C   0  0  0  0  0  0  0  0  0  0  0  0
   58.9634   26.8087   46.1318 H   0  0  0  0  0  0  0  0  0  0  0  0
   57.1230   27.7780   45.5360 C   0  0  0  0  0  0  0  0  0  0  0  0
   56.5427   26.8437   45.5537 H   0  0  0  0  0  0  0  0  0  0  0  0
   56.4980   28.9780   45.1860 C   0  0  0  0  0  0  0  0  0  0  0  0
   55.1440   28.9680   44.8670 O   0  0  0  0  0  0  0  0  0  0  0  0
   57.2350   30.1800   45.1590 C   0  0  0  0  0  0  0  0  0  0  0  0
   56.6190   31.4260   44.7690 N   0  0  0  0  0  0  0  0  0  0  0  0
   55.8490   31.2600   44.0810 H   0  0  0  0  0  0  0  0  0  0  0  0
   56.1820   31.8860   45.6030 H   0  0  0  0  0  0  0  0  0  0  0  0
   57.6060   32.2970   44.1900 C   0  0  0  0  0  0  0  0  0  0  0  0
   57.8450   32.2860   42.5610 S   0  0  0  0  0  0  0  0  0  0  0  0
   58.3260   33.2150   45.0310 N   0  0  0  0  0  0  0  0  0  0  0  0
   58.1640   33.1880   46.0630 H   0  0  0  0  0  0  0  0  0  0  0  0
   59.2860   34.1880   44.5160 C   0  0  0  0  0  0  0  0  0  0  0  0
   59.7838   34.6925   45.3572 H   0  0  0  0  0  0  0  0  0  0  0  0
   60.0379   33.6713   43.9015 H   0  0  0  0  0  0  0  0  0  0  0  0
   58.7592   34.9329   43.9015 H   0  0  0  0  0  0  0  0  0  0  0  0
   58.6040   30.1480   45.4870 C   0  0  0  0  0  0  0  0  0  0  0  0
   59.1917   31.0774   45.4577 H   0  0  0  0  0  0  0  0  0  0  0  0
   62.4780   31.5880   47.3020 C   0  0  0  0  0  0  0  0  0  0  0  0
   63.3585   30.9352   47.2090 H   0  0  0  0  0  0  0  0  0  0  0  0
   62.6300   32.9770   47.3310 C   0  0  0  0  0  0  0  0  0  0  0  0
   63.6330   33.4226   47.2576 H   0  0  0  0  0  0  0  0  0  0  0  0
   61.5100   33.7970   47.4530 C   0  0  0  0  0  0  0  0  0  0  0  0
   61.6218   34.8910   47.4773 H   0  0  0  0  0  0  0  0  0  0  0  0
  1  2  1  0
  2  3  1  0
  3  4  1  0
  4  5  2  0
  5  6  1  0
  6  7  1  0
  6  8  1  0
  6  9  1  0
  9 10  2  0
 10 11  1  0
 10 12  1  0
 12 13  1  0
 12 14  2  0
 14 15  1  0
 14 16  1  0
 16 17  1  0
 17 18  1  0
 17 19  1  0
 17 20  1  0
 20 21  2  0
 20 22  1  0
 22 23  1  0
 22 24  1  0
 24 25  1  0
 24 26  1  0
 24 27  1  0
 16 28  2  0
 28 29  1  0
  4 30  1  0
 30 31  1  0
 30 32  2  0
 32 33  1  0
 32 34  1  0
 34 35  1  0
 34  2  2  0
 28  9  1  0
M  CHG  3   3  -1  15  -1  17   1
M  END
>  <UniqueID>  (4) 
4

>  <SMILES>  (4) 
CNC(=S)[NH2+]c1cc(C/N=c2\cccc[n-]2)ccc1[O-]

>  <Energy>  (4) 
37.27609431870784

>  <Genealogy>  (4) 
CNC(=S)[NH2+]c1cc(CN=c2cccc[n-]2)ccc1[O-] (protonated)
CNC(=S)[NH2+]c1cc(C/N=c2\cccc[n-]2)ccc1[O-] (cis-trans isomerization)
CNC(=S)[NH2+]c1cc(C/N=c2\cccc[n-]2)ccc1[O-] (3D coordinates assigned)
CNC(=S)[NH2+]c1cc(C/N=c2\cccc[n-]2)ccc1[O-] (optimized conformer: 37.27609431870784 kcal/mol)

>  <smiles>  (4) 
CNC(=S)Nc1cc(CN=c2cccc[nH]2)ccc1O

>  <score_type>  (4) 
oracle

>  <origin>  (4) 
adg

>  <m_score__min__energy>  (4) 
-9.1899999999999995

>  <m_primary>  (4) 
energy

$$$$
4:0
     RDKit          3D

 36 38  0  0  0  0  0  0  0  0999 V2000
   55.6955   25.4613   46.2759 H   0  0  0  0  0  0  0  0  0  0  0  0
   56.3520   26.3400   46.1930 C   0  0  0  0  0  0  0  0  0  0  0  0
   55.8880   27.4820   45.6240 N   0  0  0  0  0  0  0  0  0  0  0  0
   56.6480   28.6050   45.5020 C   0  0  0  0  0  0  0  0  0  0  0  0
   56.0880   29.6500   44.9520 N   0  0  0  0  0  0  0  0  0  0  0  0
   56.7020   30.8390   44.4380 C   0  0  0  0  0  0  0  0  0  0  0  0
   57.2900   30.8130   43.3240 O   0  0  0  0  0  0  0  0  0  0  0  0
   56.6480   32.0380   45.2270 N   0  0  0  0  0  0  0  0  0  0  0  0
   57.5620   32.9490   45.4370 C   0  0  0  0  0  0  0  0  0  0  0  0
   57.7050   33.6290   46.6680 C   0  0  0  0  0  0  0  0  0  0  0  0
   57.0321   33.4010   47.5078 H   0  0  0  0  0  0  0  0  0  0  0  0
   58.7060   34.5920   46.8110 C   0  0  0  0  0  0  0  0  0  0  0  0
   58.8281   35.1202   47.7681 H   0  0  0  0  0  0  0  0  0  0  0  0
   59.5500   34.8840   45.7420 C   0  0  0  0  0  0  0  0  0  0  0  0
   60.3457   35.6357   45.8508 H   0  0  0  0  0  0  0  0  0  0  0  0
   59.3750   34.2130   44.5330 C   0  0  0  0  0  0  0  0  0  0  0  0
   60.0308   34.4405   43.6797 H   0  0  0  0  0  0  0  0  0  0  0  0
   58.3950   33.2770   44.4050 N   0  0  0  0  0  0  0  0  0  0  0  0
   58.2910   32.7940   43.4840 H   0  0  0  0  0  0  0  0  0  0  0  0
   57.9980   28.5730   45.9450 C   0  0  0  0  0  0  0  0  0  0  0  0
   58.8690   29.6470   45.7030 O   0  0  0  0  0  0  0  0  0  0  0  0
   59.4940   30.4270   46.6870 C   0  0  0  0  0  0  0  0  0  0  0  0
   58.8240   30.6460   47.8970 C   0  0  0  0  0  0  0  0  0  0  0  0
   57.8216   30.2203   48.0518 H   0  0  0  0  0  0  0  0  0  0  0  0
   59.4220   31.4030   48.9100 C   0  0  0  0  0  0  0  0  0  0  0  0
   58.8860   31.5781   49.8545 H   0  0  0  0  0  0  0  0  0  0  0  0
   60.7000   31.9370   48.7230 C   0  0  0  0  0  0  0  0  0  0  0  0
   61.1670   32.5369   49.5180 H   0  0  0  0  0  0  0  0  0  0  0  0
   61.3850   31.7090   47.5260 C   0  0  0  0  0  0  0  0  0  0  0  0
   62.3930   32.1250   47.3815 H   0  0  0  0  0  0  0  0  0  0  0  0
   60.7890   30.9520   46.5120 C   0  0  0  0  0  0  0  0  0  0  0  0
   61.3337   30.7661   45.5746 H   0  0  0  0  0  0  0  0  0  0  0  0
   58.4820   27.3940   46.5380 C   0  0  0  0  0  0  0  0  0  0  0  0
   59.5200   27.3507   46.8995 H   0  0  0  0  0  0  0  0  0  0  0  0
   57.6560   26.2800   46.6710 C   0  0  0  0  0  0  0  0  0  0  0  0
   58.0315   25.3632   47.1489 H   0  0  0  0  0  0  0  0  0  0  0  0
  1  2  1  0
  2  3  1  0
  3  4  1  0
  4  5  2  0
  5  6  1  0
  6  7  2  0
  6  8  1  0
  8  9  2  3
  9 10  1  0
 10 11  1  0
 10 12  2  0
 12 13  1  0
 12 14  1  0
 14 15  1  0
 14 16  2  0
 16 17  1  0
 16 18  1  0
 18 19  1  0
  4 20  1  0
 20 21  1  0
 21 22  1  0
 22 23  2  0
 23 24  1  0
 23 25  1  0
 25 26  1  0
 25 27  2  0
 27 28  1  0
 27 29  1  0
 29 30  1  0
 29 31  2  0
 31 32  1  0
 20 33  2  0
 33 34  1  0
 33 35  1  0
 35 36  1  0
 35  2  2  0
 18  9  1  0
 31 22  1  0
M  CHG  1   3  -1
M  END
>  <UniqueID>  (5) 
5

>  <SMILES>  (5) 
O=C(N=c1cccc[nH]1)/N=c1/[n-]cccc1Oc1ccccc1

>  <Energy>  (5) 
66.02774994670452

>  <Genealogy>  (5) 
O=C(N=c1cccc[nH]1)N=c1[n-]cccc1Oc1ccccc1 (protonated)
O=C(N=c1cccc[nH]1)/N=c1/[n-]cccc1Oc1ccccc1 (cis-trans isomerization)
O=C(N=c1cccc[nH]1)/N=c1/[n-]cccc1Oc1ccccc1 (3D coordinates assigned)
O=C(N=c1cccc[nH]1)/N=c1/[n-]cccc1Oc1ccccc1 (optimized conformer: 66.02774994670452 kcal/mol)

>  <smiles>  (5) 
O=C(N=c1cccc[nH]1)N=c1[nH]cccc1Oc1ccccc1

>  <score_type>  (5) 
oracle

>  <origin>  (5) 
adg

>  <m_score__min__energy>  (5) 
-8.2599999999999998

>  <m_primary>  (5) 
energy

$$$$
5:0
     RDKit          3D

 54 57  0  0  0  0  0  0  0  0999 V2000
   64.5440   32.3880   49.3580 C   0  0  0  0  0  0  0  0  0  0  0  0
   63.7850   33.1800   48.3760 N   0  0  0  0  0  0  0  0  0  0  0  0
   62.9820   32.2880   47.5080 C   0  0  0  0  0  0  0  0  0  0  0  0
   61.8400   33.0510   46.8260 C   0  0  0  0  0  0  0  0  0  0  0  0
   60.9160   33.6600   47.8120 N   0  0  0  0  0  0  0  0  0  0  0  0
   59.5670   33.0470   47.8510 C   0  0  0  0  0  0  0  0  0  0  0  0
   58.9350   32.8710   46.4850 C   0  0  0  0  0  0  0  0  0  0  0  0
   59.1000   33.8430   45.4860 C   0  0  0  0  0  0  0  0  0  0  0  0
   58.5390   33.6570   44.2200 C   0  0  0  0  0  0  0  0  0  0  0  0
   57.7980   32.5070   43.9410 C   0  0  0  0  0  0  0  0  0  0  0  0
   57.5920   31.5350   44.9350 C   0  0  0  0  0  0  0  0  0  0  0  0
   56.8000   30.3160   44.6460 C   0  0  0  0  0  0  0  0  0  0  0  0
   55.5490   30.3990   44.5090 O   0  0  0  0  0  0  0  0  0  0  0  0
   57.4600   29.0530   44.4750 N   0  0  0  0  0  0  0  0  0  0  0  0
   57.8900   28.1630   45.5160 C   0  0  0  0  0  0  0  0  0  0  0  0
   58.8950   28.5930   46.3910 C   0  0  0  0  0  0  0  0  0  0  0  0
   59.3440   27.7570   47.4170 C   0  0  0  0  0  0  0  0  0  0  0  0
   58.7740   26.4940   47.5940 C   0  0  0  0  0  0  0  0  0  0  0  0
   57.7290   26.0680   46.7610 C   0  0  0  0  0  0  0  0  0  0  0  0
   57.1370   24.7280   46.9520 C   0  0  0  0  0  0  0  0  0  0  0  0
   57.7650   23.7440   47.6260 N   0  0  0  0  0  0  0  0  0  0  0  0
   57.0250   22.6480   47.5630 N   0  0  0  0  0  0  0  0  0  0  0  0
   55.9170   22.9170   46.8470 C   0  0  0  0  0  0  0  0  0  0  0  0
   55.9440   24.2370   46.4440 C   0  0  0  0  0  0  0  0  0  0  0  0
   54.8620   24.9450   45.7370 C   0  0  0  0  0  0  0  0  0  0  0  0
   54.6110   26.3250   45.9840 N   0  0  0  0  0  0  0  0  0  0  0  0
   54.1250   24.3170   44.9310 O   0  0  0  0  0  0  0  0  0  0  0  0
   57.2980   26.9020   45.7150 C   0  0  0  0  0  0  0  0  0  0  0  0
   58.1590   31.7320   46.2080 C   0  0  0  0  0  0  0  0  0  0  0  0
   61.5050   33.8880   49.1500 C   0  0  0  0  0  0  0  0  0  0  0  0
   62.9930   34.2490   49.0380 C   0  0  0  0  0  0  0  0  0  0  0  0
   64.2544   32.6902   50.3753 H   0  0  0  0  0  0  0  0  0  0  0  0
   64.3239   31.3196   49.2162 H   0  0  0  0  0  0  0  0  0  0  0  0
   65.6208   32.5625   49.2162 H   0  0  0  0  0  0  0  0  0  0  0  0
   63.6358   31.8567   46.7356 H   0  0  0  0  0  0  0  0  0  0  0  0
   62.5442   31.4971   48.1348 H   0  0  0  0  0  0  0  0  0  0  0  0
   62.2685   33.8481   46.2006 H   0  0  0  0  0  0  0  0  0  0  0  0
   61.2668   32.3352   46.2184 H   0  0  0  0  0  0  0  0  0  0  0  0
   59.6492   32.0578   48.3250 H   0  0  0  0  0  0  0  0  0  0  0  0
   58.9198   33.7330   48.4172 H   0  0  0  0  0  0  0  0  0  0  0  0
   59.6742   34.7563   45.7010 H   0  0  0  0  0  0  0  0  0  0  0  0
   58.6817   34.4195   43.4401 H   0  0  0  0  0  0  0  0  0  0  0  0
   57.3728   32.3608   42.9371 H   0  0  0  0  0  0  0  0  0  0  0  0
   59.3336   29.5945   46.2702 H   0  0  0  0  0  0  0  0  0  0  0  0
   60.1485   28.0945   48.0870 H   0  0  0  0  0  0  0  0  0  0  0  0
   59.1459   25.8313   48.3893 H   0  0  0  0  0  0  0  0  0  0  0  0
   55.1163   22.1981   46.6190 H   0  0  0  0  0  0  0  0  0  0  0  0
   55.1410   27.0670   45.4730 H   0  0  0  0  0  0  0  0  0  0  0  0
   56.4915   26.5663   45.0466 H   0  0  0  0  0  0  0  0  0  0  0  0
   57.9926   30.9842   46.9973 H   0  0  0  0  0  0  0  0  0  0  0  0
   60.9702   34.7130   49.6433 H   0  0  0  0  0  0  0  0  0  0  0  0
   61.4105   32.9634   49.7383 H   0  0  0  0  0  0  0  0  0  0  0  0
   63.0891   35.1748   48.4518 H   0  0  0  0  0  0  0  0  0  0  0  0
   63.3858   34.3761   50.0576 H   0  0  0  0  0  0  0  0  0  0  0  0
  1  2  1  0
  2  3  1  0
  3  4  1  0
  4  5  1  0
  5  6  1  0
  6  7  1  0
  7  8  2  0
  8  9  1  0
  9 10  2  0
 10 11  1  0
 11 12  1  0
 12 13  2  0
 12 14  1  0
 14 15  1  0
 15 16  2  0
 16 17  1  0
 17 18  2  0
 18 19  1  0
 19 20  1  0
 20 21  2  0
 21 22  1  0
 22 23  1  0
 23 24  2  0
 24 25  1  0
 25 26  1  0
 25 27  2  0
 19 28  2  0
 11 29  2  0
  5 30  1  0
 30 31  1  0
 31  2  1  0
 29  7  1  0
 28 15  1  0
 24 20  1  0
  1 32  1  0
  1 33  1  0
  1 34  1  0
  3 35  1  0
  3 36  1  0
  4 37  1  0
  4 38  1  0
  6 39  1  0
  6 40  1  0
  8 41  1  0
  9 42  1  0
 10 43  1  0
 16 44  1  0
 17 45  1  0
 18 46  1  0
 23 47  1  0
 26 48  1  0
 28 49  1  0
 29 50  1  0
 30 51  1  0
 30 52  1  0
 31 53  1  0
 31 54  1  0
M  CHG  3  14  -1  22  -1  26  -1
M  END
>  <UniqueID>  (6) 
6

>  <SMILES>  (6) 
CN1CCN(Cc2cccc(C(=O)[N-]c3cccc(-c4n[n-]cc4C([NH-])=O)c3)c2)CC1

>  <Energy>  (6) 
110.93123611312339

>  <Genealogy>  (6) 
CN1CCN(Cc2cccc(C(=O)[N-]c3cccc(-c4n[n-]cc4C([NH-])=O)c3)c2)CC1 (protonated)
CN1CCN(Cc2cccc(C(=O)[N-]c3cccc(-c4n[n-]cc4C([NH-])=O)c3)c2)CC1 (3D coordinates assigned)
CN1CCN(Cc2cccc(C(=O)[N-]c3cccc(-c4n[n-]cc4C([NH-])=O)c3)c2)CC1 (nonaromatic ring conformer: 110.93123611312339 kcal/mol)

>  <smiles>  (6) 
CN1CCN(Cc2cccc(C(=O)Nc3cccc(-c4n[nH]cc4C(N)=O)c3)c2)CC1

>  <score_type>  (6) 
oracle

>  <origin>  (6) 
adg

>  <m_score__min__energy>  (6) 
-16.170000000000002

>  <m_primary>  (6) 
energy

$$$$
6:0
     RDKit          3D

 69 72  0  0  1  0  0  0  0  0999 V2000
   62.5990   24.7130   52.7490 C   0  0  0  0  0  0  0  0  0  0  0  0
   62.2390   26.0320   52.1410 C   0  0  0  0  0  0  0  0  0  0  0  0
   61.1690   26.1360   51.2390 C   0  0  0  0  0  0  0  0  0  0  0  0
   60.8730   27.3780   50.7020 C   0  0  0  0  0  0  0  0  0  0  0  0
   61.5940   28.5170   51.0240 C   0  0  0  0  0  0  0  0  0  0  0  0
   61.2220   29.7950   50.4160 C   0  0  0  0  0  0  0  0  0  0  0  0
   60.0110   30.1370   50.5680 O   0  0  0  0  0  0  0  0  0  0  0  0
   62.1220   30.6150   49.7020 N   0  0  0  0  0  0  0  0  0  0  0  0
   61.7890   31.8740   49.0850 C   0  0  0  0  0  0  0  0  0  0  0  0
   61.9280   31.7970   47.6080 C   0  0  0  0  0  0  0  0  0  0  0  0
   63.0330   32.2680   47.1530 O   0  0  0  0  0  0  0  0  0  0  0  0
   56.5990   30.8570   44.7120 N   0  0  0  0  0  0  0  0  0  0  0  0
   57.0530   29.7330   44.5200 C   0  0  0  0  0  0  0  0  0  0  0  0
   60.8910   29.2190   45.6610 C   0  0  0  0  0  0  0  0  0  0  0  0
   60.4690   27.9170   45.7030 C   0  0  0  0  0  0  0  0  0  0  0  0
   59.7410   27.4290   46.7750 C   0  0  0  0  0  0  0  0  0  0  0  0
   59.2800   26.0260   46.8590 C   0  0  0  0  0  0  0  0  0  0  0  0
   57.7960   25.9530   47.1210 C   0  0  0  0  0  0  0  0  0  0  0  0
   57.1090   25.3860   45.9020 C   0  0  0  0  0  0  0  0  0  0  0  0
   57.8690   25.7070   44.6390 C   0  0  0  0  0  0  0  0  0  0  0  0
   57.7710   27.1620   44.3930 C   0  0  0  0  0  0  0  0  0  0  0  0
   58.2450   28.0360   43.7250 N   0  0  0  0  0  0  0  0  0  0  0  0
   59.8580   29.6010   47.7860 N   0  0  0  0  0  0  0  0  0  0  0  0
   60.5700   30.0380   46.7170 C   0  0  0  0  0  0  0  0  0  0  0  0
   60.9530   31.2580   46.7430 N   0  0  0  0  0  0  0  0  0  0  0  0
   57.3370   32.0410   44.5110 C   0  0  0  0  0  0  0  0  0  0  0  0
   58.3790   31.9560   43.8070 O   0  0  0  0  0  0  0  0  0  0  0  0
   56.9980   33.3750   45.0500 C   0  0  0  0  0  0  0  0  0  0  0  0
   58.0740   33.7780   46.0300 C   0  0  0  0  0  0  0  0  0  0  0  0
   58.0710   33.2170   47.2940 C   0  0  0  0  0  0  0  0  0  0  0  0
   58.9940   33.5090   48.2640 C   0  0  0  0  0  0  0  0  0  0  0  0
   59.9810   34.4210   47.9430 C   0  0  0  0  0  0  0  0  0  0  0  0
   60.0100   35.0050   46.6700 C   0  0  0  0  0  0  0  0  0  0  0  0
   59.0530   34.6810   45.7150 C   0  0  0  0  0  0  0  0  0  0  0  0
   56.5240   28.1890   45.3940 S   0  0  0  0  0  0  0  0  0  0  0  0
   59.4520   28.3180   47.8110 C   0  0  0  0  0  0  0  0  0  0  0  0
   57.9850   29.2840   43.6990 N   0  0  0  0  0  0  0  0  0  0  0  0
   62.6330   28.3730   51.9110 C   0  0  0  0  0  0  0  0  0  0  0  0
   62.9560   27.1420   52.4660 C   0  0  0  0  0  0  0  0  0  0  0  0
   62.5763   24.7963   53.8456 H   0  0  0  0  0  0  0  0  0  0  0  0
   61.8762   23.9500   52.4242 H   0  0  0  0  0  0  0  0  0  0  0  0
   63.6091   24.4230   52.4242 H   0  0  0  0  0  0  0  0  0  0  0  0
   60.5779   25.2500   50.9642 H   0  0  0  0  0  0  0  0  0  0  0  0
   60.0353   27.4634   49.9943 H   0  0  0  0  0  0  0  0  0  0  0  0
   63.1140   30.2660   49.6220 H   0  0  0  0  0  0  0  0  0  0  0  0
   60.7498   32.1334   49.3353 H   0  0  0  0  0  0  0  0  0  0  0  0
   62.4799   32.6424   49.4622 H   0  0  0  0  0  0  0  0  0  0  0  0
   61.4704   29.5986   44.8065 H   0  0  0  0  0  0  0  0  0  0  0  0
   60.7135   27.2446   44.8675 H   0  0  0  0  0  0  0  0  0  0  0  0
   59.5018   25.5181   45.9088 H   0  0  0  0  0  0  0  0  0  0  0  0
   59.8049   25.5367   47.6927 H   0  0  0  0  0  0  0  0  0  0  0  0
   57.6060   25.3025   47.9874 H   0  0  0  0  0  0  0  0  0  0  0  0
   57.4061   26.9595   47.3329 H   0  0  0  0  0  0  0  0  0  0  0  0
   57.0373   24.2935   46.0080 H   0  0  0  0  0  0  0  0  0  0  0  0
   56.1093   25.8389   45.8275 H   0  0  0  0  0  0  0  0  0  0  0  0
   58.9244   25.4204   44.7573 H   0  0  0  0  0  0  0  0  0  0  0  0
   57.4445   25.1505   43.7904 H   0  0  0  0  0  0  0  0  0  0  0  0
   59.6390   30.2700   48.5700 H   0  0  0  0  0  0  0  0  0  0  0  0
   56.9493   34.1062   44.2297 H   0  0  0  0  0  0  0  0  0  0  0  0
   56.0201   33.3433   45.5528 H   0  0  0  0  0  0  0  0  0  0  0  0
   57.2796   32.4922   47.5355 H   0  0  0  0  0  0  0  0  0  0  0  0
   58.9509   33.0370   49.2567 H   0  0  0  0  0  0  0  0  0  0  0  0
   60.7449   34.6888   48.6878 H   0  0  0  0  0  0  0  0  0  0  0  0
   60.8002   35.7293   46.4228 H   0  0  0  0  0  0  0  0  0  0  0  0
   59.0823   35.1449   44.7180 H   0  0  0  0  0  0  0  0  0  0  0  0
   58.8741   27.9589   48.6754 H   0  0  0  0  0  0  0  0  0  0  0  0
   58.4980   29.9640   43.0370 H   0  0  0  0  0  0  0  0  0  0  0  0
   63.2253   29.2572   52.1892 H   0  0  0  0  0  0  0  0  0  0  0  0
   63.7958   27.0636   53.1721 H   0  0  0  0  0  0  0  0  0  0  0  0
  1  2  1  0
  2  3  2  0
  3  4  1  0
  4  5  2  0
  5  6  1  0
  6  7  2  0
  6  8  1  0
  8  9  1  0
  9 10  1  0
 10 11  2  0
 10 12  1  0
 12 13  2  0
 13 14  1  0
 14 15  2  0
 15 16  1  0
 16 17  1  0
 17 18  1  0
 18 19  1  0
 19 20  1  0
 20 21  1  0
 21 22  2  0
 22 23  1  0
 23 24  1  0
 24 25  2  0
 25 26  1  0
 26 27  2  0
 26 28  1  0
 28 29  1  0
 29 30  2  0
 30 31  1  0
 31 32  2  0
 32 33  1  0
 33 34  2  0
 24 35  1  0
 16 36  2  0
 36 37  1  0
  5 38  1  0
 38 39  2  0
 39  2  1  0
 37 13  1  0
 35 21  1  0
 34 29  1  0
  1 40  1  0
  1 41  1  0
  1 42  1  0
  3 43  1  0
  4 44  1  0
  8 45  1  0
  9 46  1  0
  9 47  1  0
 14 48  1  0
 15 49  1  0
 17 50  1  0
 17 51  1  0
 18 52  1  0
 18 53  1  0
 19 54  1  0
 19 55  1  0
 20 56  1  0
 20 57  1  0
 23 58  1  0
 28 59  1  0
 28 60  1  0
 30 61  1  0
 31 62  1  0
 32 63  1  0
 33 64  1  0
 34 65  1  0
 36 66  1  0
 37 67  1  0
 38 68  1  0
 39 69  1  0
M  END
>  <smiles>  (7) 
Cc1ccc(C(=O)NCC(=O)N=c2ccc(CCCCc3n[nH]c(=NC(=O)Cc4ccccc4)s3)c[nH]2)cc1

>  <score_type>  (7) 
oracle

>  <origin>  (7) 
adg

>  <m_score__min__energy>  (7) 
-10.380000000000001

>  <m_primary>  (7) 
energy

$$$$
7:0
     RDKit          3D

 43 45  0  0  0  0  0  0  0  0999 V2000
   60.3010   27.4540   48.6430 C   0  0  0  0  0  0  0  0  0  0  0  0
   59.2890   27.2890   47.5480 C   0  0  0  0  0  0  0  0  0  0  0  0
   58.7980   26.0150   47.2270 C   0  0  0  0  0  0  0  0  0  0  0  0
   57.8830   25.8580   46.1830 C   0  0  0  0  0  0  0  0  0  0  0  0
   57.4650   26.9660   45.4430 C   0  0  0  0  0  0  0  0  0  0  0  0
   57.9670   28.2470   45.7330 C   0  0  0  0  0  0  0  0  0  0  0  0
   57.5410   29.3930   44.9720 N   0  0  0  0  0  0  0  0  0  0  0  0
   58.3450   30.3460   44.4540 C   0  0  0  0  0  0  0  0  0  0  0  0
   57.5810   31.2860   43.7840 C   0  0  0  0  0  0  0  0  0  0  0  0
   58.0820   32.4820   43.0910 C   0  0  0  0  0  0  0  0  0  0  0  0
   57.8010   32.6670   41.8770 O   0  0  0  0  0  0  0  0  0  0  0  0
   58.8890   33.4280   43.7990 N   0  0  0  0  0  0  0  0  0  0  0  0
   58.3430   34.4600   44.6750 C   0  0  0  0  0  0  0  0  0  0  0  0
   58.5520   34.0840   46.1160 C   0  0  0  0  0  0  0  0  0  0  0  0
   57.9400   32.9400   46.6530 C   0  0  0  0  0  0  0  0  0  0  0  0
   58.1590   32.5850   47.9870 C   0  0  0  0  0  0  0  0  0  0  0  0
   58.9960   33.3630   48.7980 C   0  0  0  0  0  0  0  0  0  0  0  0
   59.2560   32.9210   50.4820 S   0  0  0  0  0  0  0  0  0  0  0  0
   57.7920   32.2860   51.1430 N   0  0  0  0  0  0  0  0  0  0  0  0
   59.6740   34.1310   51.2700 O   0  0  0  0  0  0  0  0  0  0  0  0
   60.3410   31.8870   50.5750 O   0  0  0  0  0  0  0  0  0  0  0  0
   59.6070   34.5080   48.2640 C   0  0  0  0  0  0  0  0  0  0  0  0
   59.3890   34.8630   46.9300 C   0  0  0  0  0  0  0  0  0  0  0  0
   56.2590   30.8930   43.8880 C   0  0  0  0  0  0  0  0  0  0  0  0
   56.2800   29.7260   44.6210 C   0  0  0  0  0  0  0  0  0  0  0  0
   55.1530   28.9700   44.9250 O   0  0  0  0  0  0  0  0  0  0  0  0
   58.8810   28.3980   46.7910 C   0  0  0  0  0  0  0  0  0  0  0  0
   59.8012   27.3725   49.6195 H   0  0  0  0  0  0  0  0  0  0  0  0
   61.0665   26.6688   48.5562 H   0  0  0  0  0  0  0  0  0  0  0  0
   60.7774   28.4417   48.5562 H   0  0  0  0  0  0  0  0  0  0  0  0
   59.1342   25.1374   47.7986 H   0  0  0  0  0  0  0  0  0  0  0  0
   57.4907   24.8587   45.9432 H   0  0  0  0  0  0  0  0  0  0  0  0
   56.7381   26.8358   44.6277 H   0  0  0  0  0  0  0  0  0  0  0  0
   59.4405   30.3716   44.5498 H   0  0  0  0  0  0  0  0  0  0  0  0
   58.8503   35.4146   44.4716 H   0  0  0  0  0  0  0  0  0  0  0  0
   57.2643   34.5588   44.4833 H   0  0  0  0  0  0  0  0  0  0  0  0
   57.2858   32.3209   46.0215 H   0  0  0  0  0  0  0  0  0  0  0  0
   57.6719   31.6904   48.4023 H   0  0  0  0  0  0  0  0  0  0  0  0
   57.0090   32.6420   50.5490 H   0  0  0  0  0  0  0  0  0  0  0  0
   60.2592   35.1276   48.8970 H   0  0  0  0  0  0  0  0  0  0  0  0
   59.8761   35.7580   46.5156 H   0  0  0  0  0  0  0  0  0  0  0  0
   55.3774   31.4038   43.4734 H   0  0  0  0  0  0  0  0  0  0  0  0
   59.2801   29.3954   47.0276 H   0  0  0  0  0  0  0  0  0  0  0  0
  1  2  1  0
  2  3  2  0
  3  4  1  0
  4  5  2  0
  5  6  1  0
  6  7  1  0
  7  8  1  0
  8  9  2  0
  9 10  1  0
 10 11  2  0
 10 12  1  0
 12 13  1  0
 13 14  1  0
 14 15  2  0
 15 16  1  0
 16 17  2  0
 17 18  1  0
 18 19  1  0
 18 20  2  0
 18 21  2  0
 17 22  1  0
 22 23  2  0
  9 24  1  0
 24 25  2  0
 25 26  1  0
  6 27  2  0
 27  2  1  0
 25  7  1  0
 23 14  1  0
  1 28  1  0
  1 29  1  0
  1 30  1  0
  3 31  1  0
  4 32  1  0
  5 33  1  0
  8 34  1  0
 13 35  1  0
 13 36  1  0
 15 37  1  0
 16 38  1  0
 19 39  1  0
 22 40  1  0
 23 41  1  0
 24 42  1  0
 27 43  1  0
M  CHG  3  12  -1  19  -1  26  -1
M  END
>  <UniqueID>  (8) 
7

>  <SMILES>  (8) 
Cc1cccc(-n2cc(C(=O)[N-]Cc3ccc(S([NH-])(=O)=O)cc3)cc2[O-])c1

>  <Energy>  (8) 
72.97974207457032

>  <Genealogy>  (8) 
Cc1cccc(-n2cc(C(=O)[N-]Cc3ccc(S([NH-])(=O)=O)cc3)cc2[O-])c1 (protonated)
Cc1cccc(-n2cc(C(=O)[N-]Cc3ccc(S([NH-])(=O)=O)cc3)cc2[O-])c1 (3D coordinates assigned)
Cc1cccc(-n2cc(C(=O)[N-]Cc3ccc(S([NH-])(=O)=O)cc3)cc2[O-])c1 (optimized conformer: 72.97974207457032 kcal/mol)

>  <smiles>  (8) 
Cc1cccc(-n2cc(C(=O)NCc3ccc(S(N)(=O)=O)cc3)cc2O)c1

>  <score_type>  (8) 
oracle

>  <origin>  (8) 
adg

>  <m_score__min__energy>  (8) 
-15.35

>  <m_primary>  (8) 
energy

$$$$
8:0
     RDKit          3D

 41 43  0  0  0  0  0  0  0  0999 V2000
   55.0000   26.3220   46.0880 N   0  0  0  0  0  0  0  0  0  0  0  0
   56.7120   26.1040   46.1690 S   0  0  0  0  0  0  0  0  0  0  0  0
   57.1480   25.1370   45.1030 O   0  0  0  0  0  0  0  0  0  0  0  0
   57.0820   25.5390   47.5110 O   0  0  0  0  0  0  0  0  0  0  0  0
   57.5140   27.6530   45.9330 C   0  0  0  0  0  0  0  0  0  0  0  0
   58.8240   27.8590   46.4370 C   0  0  0  0  0  0  0  0  0  0  0  0
   59.4700   29.0980   46.2640 C   0  0  0  0  0  0  0  0  0  0  0  0
   58.7740   30.0960   45.5910 C   0  0  0  0  0  0  0  0  0  0  0  0
   59.1540   31.3120   45.3080 O   0  0  0  0  0  0  0  0  0  0  0  0
   58.1380   31.8620   44.6640 C   0  0  0  0  0  0  0  0  0  0  0  0
   58.1650   33.2560   44.1290 C   0  0  0  0  0  0  0  0  0  0  0  0
   58.5800   34.2040   45.2090 C   0  0  0  0  0  0  0  0  0  0  0  0
   58.8860   35.3900   44.9110 O   0  0  0  0  0  0  0  0  0  0  0  0
   58.6780   33.7490   46.5670 N   0  0  0  0  0  0  0  0  0  0  0  0
   59.0920   34.6230   47.6610 C   0  0  0  0  0  0  0  0  0  0  0  0
   59.8270   33.8210   48.7400 C   0  0  0  0  0  0  0  0  0  0  0  0
   61.2910   33.7100   48.4120 C   0  0  0  0  0  0  0  0  0  0  0  0
   62.2430   33.6010   49.4390 C   0  0  0  0  0  0  0  0  0  0  0  0
   63.6000   33.4660   49.1300 C   0  0  0  0  0  0  0  0  0  0  0  0
   64.0150   33.4280   47.7960 C   0  0  0  0  0  0  0  0  0  0  0  0
   63.0720   33.5220   46.7680 C   0  0  0  0  0  0  0  0  0  0  0  0
   61.7140   33.6570   47.0720 C   0  0  0  0  0  0  0  0  0  0  0  0
   57.0770   31.0250   44.5050 N   0  0  0  0  0  0  0  0  0  0  0  0
   57.5150   29.9080   45.1100 C   0  0  0  0  0  0  0  0  0  0  0  0
   56.8430   28.6970   45.2600 C   0  0  0  0  0  0  0  0  0  0  0  0
   54.7880   26.7170   45.1450 H   0  0  0  0  0  0  0  0  0  0  0  0
   59.3391   27.0443   46.9671 H   0  0  0  0  0  0  0  0  0  0  0  0
   60.4868   29.2700   46.6468 H   0  0  0  0  0  0  0  0  0  0  0  0
   58.8817   33.3141   43.2966 H   0  0  0  0  0  0  0  0  0  0  0  0
   57.1607   33.5282   43.7723 H   0  0  0  0  0  0  0  0  0  0  0  0
   58.5040   32.7390   46.7750 H   0  0  0  0  0  0  0  0  0  0  0  0
   59.7629   35.4013   47.2684 H   0  0  0  0  0  0  0  0  0  0  0  0
   58.1977   35.0828   48.1069 H   0  0  0  0  0  0  0  0  0  0  0  0
   59.7111   34.3281   49.7092 H   0  0  0  0  0  0  0  0  0  0  0  0
   59.3961   32.8099   48.7857 H   0  0  0  0  0  0  0  0  0  0  0  0
   61.9198   33.6219   50.4902 H   0  0  0  0  0  0  0  0  0  0  0  0
   64.3422   33.3896   49.9383 H   0  0  0  0  0  0  0  0  0  0  0  0
   65.0832   33.3242   47.5549 H   0  0  0  0  0  0  0  0  0  0  0  0
   63.3991   33.4897   45.7183 H   0  0  0  0  0  0  0  0  0  0  0  0
   60.9742   33.7220   46.2605 H   0  0  0  0  0  0  0  0  0  0  0  0
   55.8247   28.5590   44.8676 H   0  0  0  0  0  0  0  0  0  0  0  0
  1  2  1  0
  2  3  2  0
  2  4  2  0
  2  5  1  0
  5  6  2  0
  6  7  1  0
  7  8  2  0
  8  9  1  0
  9 10  1  0
 10 11  1  0
 11 12  1  0
 12 13  2  0
 12 14  1  0
 14 15  1  0
 15 16  1  0
 16 17  1  0
 17 18  2  0
 18 19  1  0
 19 20  2  0
 20 21  1  0
 21 22  2  0
 10 23  2  0
 23 24  1  0
 24 25  2  0
 25  5  1  0
 24  8  1  0
 22 17  1  0
  1 26  1  0
  6 27  1  0
  7 28  1  0
 11 29  1  0
 11 30  1  0
 14 31  1  0
 15 32  1  0
 15 33  1  0
 16 34  1  0
 16 35  1  0
 18 36  1  0
 19 37  1  0
 20 38  1  0
 21 39  1  0
 22 40  1  0
 25 41  1  0
M  CHG  1   1  -1
M  END
>  <UniqueID>  (9) 
8

>  <SMILES>  (9) 
[NH-]S(=O)(=O)c1ccc2oc(CC(=O)NCCc3ccccc3)nc2c1

>  <Energy>  (9) 
72.4057466764955

>  <Genealogy>  (9) 
[NH-]S(=O)(=O)c1ccc2oc(CC(=O)NCCc3ccccc3)nc2c1 (protonated)
[NH-]S(=O)(=O)c1ccc2oc(CC(=O)NCCc3ccccc3)nc2c1 (3D coordinates assigned)
[NH-]S(=O)(=O)c1ccc2oc(CC(=O)NCCc3ccccc3)nc2c1 (optimized conformer: 72.4057466764955 kcal/mol)

>  <smiles>  (9) 
NS(=O)(=O)c1ccc2oc(CC(=O)NCCc3ccccc3)nc2c1

>  <score_type>  (9) 
oracle

>  <origin>  (9) 
adg

>  <m_score__min__energy>  (9) 
-11.58

>  <m_primary>  (9) 
energy

$$$$
9:0
     RDKit          3D

 31 33  0  0  0  0  0  0  0  0999 V2000
   56.6620   19.2320   44.4140 H   0  0  0  0  0  0  0  0  0  0  0  0
   55.9070   19.8670   44.7580 N   0  0  0  0  0  0  0  0  0  0  0  0
   55.9160   21.1330   44.4930 C   0  0  0  0  0  0  0  0  0  0  0  0
   55.6120   22.0390   45.4620 N   0  0  0  0  0  0  0  0  0  0  0  0
   55.6160   23.3760   45.2070 C   0  0  0  0  0  0  0  0  0  0  0  0
   55.2800   24.3210   46.2890 C   0  0  0  0  0  0  0  0  0  0  0  0
   55.1330   23.8840   47.4640 O   0  0  0  0  0  0  0  0  0  0  0  0
   55.1230   25.7200   46.0020 N   0  0  0  0  0  0  0  0  0  0  0  0
   56.0650   26.6180   46.0010 C   0  0  0  0  0  0  0  0  0  0  0  0
   57.2800   26.3770   46.5300 N   0  0  0  0  0  0  0  0  0  0  0  0
   57.9490   27.5270   46.3350 C   0  0  0  0  0  0  0  0  0  0  0  0
   58.9898   27.7173   46.6357 H   0  0  0  0  0  0  0  0  0  0  0  0
   57.1220   28.4320   45.6970 C   0  0  0  0  0  0  0  0  0  0  0  0
   57.4510   29.8210   45.2910 C   0  0  0  0  0  0  0  0  0  0  0  0
   58.1370   30.6950   46.1570 C   0  0  0  0  0  0  0  0  0  0  0  0
   58.4380   30.3484   47.1566 H   0  0  0  0  0  0  0  0  0  0  0  0
   58.4380   32.0000   45.7550 C   0  0  0  0  0  0  0  0  0  0  0  0
   58.9745   32.6741   46.4390 H   0  0  0  0  0  0  0  0  0  0  0  0
   58.0590   32.4520   44.4850 C   0  0  0  0  0  0  0  0  0  0  0  0
   58.3540   33.7490   44.0740 O   0  0  0  0  0  0  0  0  0  0  0  0
   59.3110   34.0670   43.9720 H   0  0  0  0  0  0  0  0  0  0  0  0
   57.3790   31.5920   43.6190 C   0  0  0  0  0  0  0  0  0  0  0  0
   57.0815   31.9434   42.6200 H   0  0  0  0  0  0  0  0  0  0  0  0
   57.0750   30.2860   44.0170 C   0  0  0  0  0  0  0  0  0  0  0  0
   56.5377   29.6170   43.3287 H   0  0  0  0  0  0  0  0  0  0  0  0
   55.9240   27.8570   45.4840 N   0  0  0  0  0  0  0  0  0  0  0  0
   55.9390   23.8260   43.9190 C   0  0  0  0  0  0  0  0  0  0  0  0
   55.9485   24.9009   43.6856 H   0  0  0  0  0  0  0  0  0  0  0  0
   56.2480   22.8820   42.9400 C   0  0  0  0  0  0  0  0  0  0  0  0
   56.5057   23.2101   41.9222 H   0  0  0  0  0  0  0  0  0  0  0  0
   56.2310   21.5590   43.2420 N   0  0  0  0  0  0  0  0  0  0  0  0
  1  2  1  0
  2  3  2  3
  3  4  1  0
  4  5  2  0
  5  6  1  0
  6  7  2  0
  6  8  1  0
  8  9  2  0
  9 10  1  0
 10 11  1  0
 11 12  1  0
 11 13  2  0
 13 14  1  0
 14 15  2  0
 15 16  1  0
 15 17  1  0
 17 18  1  0
 17 19  2  0
 19 20  1  0
 20 21  1  0
 19 22  1  0
 22 23  1  0
 22 24  2  0
 24 25  1  0
 13 26  1  0
  5 27  1  0
 27 28  1  0
 27 29  2  0
 29 30  1  0
 29 31  1  0
 31  3  1  0
 26  9  1  0
 24 14  1  0
M  CHG  3  10  -1  26  -1  31  -1
M  END
>  <UniqueID>  (10) 
9

>  <SMILES>  (10) 
N=c1nc(C(=O)/N=c2/[n-]cc(-c3ccc(O)cc3)[n-]2)cc[n-]1

>  <Energy>  (10) 
65.33004622774591

>  <Genealogy>  (10) 
N=c1nc(C(=O)N=c2[n-]cc(-c3ccc(O)cc3)[n-]2)cc[n-]1 (protonated)
N=c1nc(C(=O)/N=c2/[n-]cc(-c3ccc(O)cc3)[n-]2)cc[n-]1 (cis-trans isomerization)
N=c1nc(C(=O)/N=c2/[n-]cc(-c3ccc(O)cc3)[n-]2)cc[n-]1 (3D coordinates assigned)
N=c1nc(C(=O)/N=c2/[n-]cc(-c3ccc(O)cc3)[n-]2)cc[n-]1 (optimized conformer: 65.33004622774591 kcal/mol)

>  <smiles>  (10) 
N=c1nc(C(=O)N=c2[nH]cc(-c3ccc(O)cc3)[nH]2)cc[nH]1

>  <score_type>  (10) 
oracle

>  <origin>  (10) 
adg

>  <m_score__min__energy>  (10) 
-11.539999999999999

>  <m_primary>  (10) 
energy

$$$$
10:0
     RDKit          3D

 44 46  0  0  0  0  0  0  0  0999 V2000
   60.4630   28.1610   45.2380 C   0  0  0  0  0  0  0  0  0  0  0  0
   59.0180   27.7910   45.4350 C   0  0  0  0  0  0  0  0  0  0  0  0
   58.6900   26.5910   46.0870 C   0  0  0  0  0  0  0  0  0  0  0  0
   57.3540   26.2180   46.2630 C   0  0  0  0  0  0  0  0  0  0  0  0
   56.9700   24.6650   47.0800 S   0  0  0  0  0  0  0  0  0  0  0  0
   56.9440   23.7510   45.5370 C   0  0  0  0  0  0  0  0  0  0  0  0
   57.8800   22.7340   45.3090 C   0  0  0  0  0  0  0  0  0  0  0  0
   57.8640   22.0260   44.1030 C   0  0  0  0  0  0  0  0  0  0  0  0
   56.9110   22.3290   43.1250 C   0  0  0  0  0  0  0  0  0  0  0  0
   55.9720   23.3390   43.3530 C   0  0  0  0  0  0  0  0  0  0  0  0
   55.9870   24.0500   44.5580 C   0  0  0  0  0  0  0  0  0  0  0  0
   56.3300   27.0580   45.8070 C   0  0  0  0  0  0  0  0  0  0  0  0
   54.9960   26.7090   45.9930 O   0  0  0  0  0  0  0  0  0  0  0  0
   56.6440   28.2580   45.1660 C   0  0  0  0  0  0  0  0  0  0  0  0
   57.9830   28.6330   44.9690 C   0  0  0  0  0  0  0  0  0  0  0  0
   58.2930   29.8820   44.3310 N   0  0  0  0  0  0  0  0  0  0  0  0
   57.3460   30.9550   44.2200 C   0  0  0  0  0  0  0  0  0  0  0  0
   56.2380   30.8970   44.8180 O   0  0  0  0  0  0  0  0  0  0  0  0
   57.6630   32.1590   43.3810 C   0  0  0  0  0  0  0  0  0  0  0  0
   58.7810   32.8740   43.9110 O   0  0  0  0  0  0  0  0  0  0  0  0
   58.9440   33.2400   45.2580 C   0  0  0  0  0  0  0  0  0  0  0  0
   58.9070   32.3010   46.3080 C   0  0  0  0  0  0  0  0  0  0  0  0
   59.0520   32.7220   47.6340 C   0  0  0  0  0  0  0  0  0  0  0  0
   59.2420   34.0760   47.9230 C   0  0  0  0  0  0  0  0  0  0  0  0
   59.2900   35.0100   46.8870 C   0  0  0  0  0  0  0  0  0  0  0  0
   59.1440   34.5950   45.5590 C   0  0  0  0  0  0  0  0  0  0  0  0
   59.1840   35.5130   44.5620 F   0  0  0  0  0  0  0  0  0  0  0  0
   60.9467   28.2849   46.2182 H   0  0  0  0  0  0  0  0  0  0  0  0
   60.9722   27.3643   44.6759 H   0  0  0  0  0  0  0  0  0  0  0  0
   60.5266   29.1044   44.6759 H   0  0  0  0  0  0  0  0  0  0  0  0
   59.4918   25.9384   46.4628 H   0  0  0  0  0  0  0  0  0  0  0  0
   58.6277   22.4922   46.0787 H   0  0  0  0  0  0  0  0  0  0  0  0
   58.6017   21.2300   43.9234 H   0  0  0  0  0  0  0  0  0  0  0  0
   56.9005   21.7724   42.1763 H   0  0  0  0  0  0  0  0  0  0  0  0
   55.2209   23.5750   42.5848 H   0  0  0  0  0  0  0  0  0  0  0  0
   55.2472   24.8441   44.7369 H   0  0  0  0  0  0  0  0  0  0  0  0
   55.8359   28.9152   44.8124 H   0  0  0  0  0  0  0  0  0  0  0  0
   59.1860   29.9520   43.7940 H   0  0  0  0  0  0  0  0  0  0  0  0
   57.8979   31.8321   42.3573 H   0  0  0  0  0  0  0  0  0  0  0  0
   56.7885   32.8263   43.3820 H   0  0  0  0  0  0  0  0  0  0  0  0
   58.7636   31.2336   46.0842 H   0  0  0  0  0  0  0  0  0  0  0  0
   59.0164   31.9860   48.4507 H   0  0  0  0  0  0  0  0  0  0  0  0
   59.3537   34.4055   48.9665 H   0  0  0  0  0  0  0  0  0  0  0  0
   59.4430   36.0751   47.1153 H   0  0  0  0  0  0  0  0  0  0  0  0
  1  2  1  0
  2  3  2  0
  3  4  1  0
  4  5  1  0
  5  6  1  0
  6  7  2  0
  7  8  1  0
  8  9  2  0
  9 10  1  0
 10 11  2  0
  4 12  2  0
 12 13  1  0
 12 14  1  0
 14 15  2  0
 15 16  1  0
 16 17  1  0
 17 18  2  0
 17 19  1  0
 19 20  1  0
 20 21  1  0
 21 22  2  0
 22 23  1  0
 23 24  2  0
 24 25  1  0
 25 26  2  0
 26 27  1  0
 15  2  1  0
 26 21  1  0
 11  6  1  0
  1 28  1  0
  1 29  1  0
  1 30  1  0
  3 31  1  0
  7 32  1  0
  8 33  1  0
  9 34  1  0
 10 35  1  0
 11 36  1  0
 14 37  1  0
 16 38  1  0
 19 39  1  0
 19 40  1  0
 22 41  1  0
 23 42  1  0
 24 43  1  0
 25 44  1  0
M  CHG  1  13  -1
M  END
>  <UniqueID>  (11) 
10

>  <SMILES>  (11) 
Cc1cc(Sc2ccccc2)c([O-])cc1NC(=O)COc1ccccc1F

>  <Energy>  (11) 
44.95045373591467

>  <Genealogy>  (11) 
Cc1cc(Sc2ccccc2)c([O-])cc1NC(=O)COc1ccccc1F (protonated)
Cc1cc(Sc2ccccc2)c([O-])cc1NC(=O)COc1ccccc1F (3D coordinates assigned)
Cc1cc(Sc2ccccc2)c([O-])cc1NC(=O)COc1ccccc1F (optimized conformer: 44.95045373591467 kcal/mol)

>  <smiles>  (11) 
Cc1cc(Sc2ccccc2)c(O)cc1NC(=O)COc1ccccc1F

>  <score_type>  (11) 
oracle

>  <origin>  (11) 
adg

>  <m_score__min__energy>  (11) 
-13.199999999999999

>  <m_primary>  (11) 
energy

$$$$
11:0
     RDKit          3D

 48 49  0  0  0  0  0  0  0  0999 V2000
   58.7660   33.8940   52.1310 C   0  0  0  0  0  0  0  0  0  0  0  0
   59.2630   33.8310   50.7980 O   0  0  0  0  0  0  0  0  0  0  0  0
   60.6210   33.7240   50.4540 C   0  0  0  0  0  0  0  0  0  0  0  0
   61.6160   33.5560   51.4340 C   0  0  0  0  0  0  0  0  0  0  0  0
   62.9620   33.5000   51.0750 C   0  0  0  0  0  0  0  0  0  0  0  0
   63.9340   33.3370   52.0530 O   0  0  0  0  0  0  0  0  0  0  0  0
   63.3360   33.6130   49.7360 C   0  0  0  0  0  0  0  0  0  0  0  0
   62.3610   33.7740   48.7340 C   0  0  0  0  0  0  0  0  0  0  0  0
   62.7130   33.8830   47.3770 O   0  0  0  0  0  0  0  0  0  0  0  0
   63.7300   33.1180   46.7400 C   0  0  0  0  0  0  0  0  0  0  0  0
   60.9950   33.8150   49.0940 C   0  0  0  0  0  0  0  0  0  0  0  0
   59.9640   33.9570   48.0400 C   0  0  0  0  0  0  0  0  0  0  0  0
   58.7590   33.7060   48.3180 O   0  0  0  0  0  0  0  0  0  0  0  0
   60.3160   34.4180   46.7260 N   0  0  0  0  0  0  0  0  0  0  0  0
   59.3130   34.8350   45.7450 C   0  0  0  0  0  0  0  0  0  0  0  0
   59.3810   33.9560   44.4920 C   0  0  0  0  0  0  0  0  0  0  0  0
   58.5170   32.7260   44.6240 C   0  0  0  0  0  0  0  0  0  0  0  0
   58.4360   32.0480   45.8490 C   0  0  0  0  0  0  0  0  0  0  0  0
   57.6570   30.8970   45.9670 C   0  0  0  0  0  0  0  0  0  0  0  0
   56.9500   30.4020   44.8660 C   0  0  0  0  0  0  0  0  0  0  0  0
   56.1440   29.2350   45.0420 N   0  0  0  0  0  0  0  0  0  0  0  0
   56.7970   27.7320   45.6030 S   0  0  0  0  0  0  0  0  0  0  0  0
   55.5150   26.6530   46.0320 N   0  0  0  0  0  0  0  0  0  0  0  0
   57.6480   27.1090   44.5310 O   0  0  0  0  0  0  0  0  0  0  0  0
   57.6380   27.9890   46.8200 O   0  0  0  0  0  0  0  0  0  0  0  0
   57.0780   31.0370   43.6100 C   0  0  0  0  0  0  0  0  0  0  0  0
   56.4080   30.4900   42.3800 C   0  0  0  0  0  0  0  0  0  0  0  0
   57.8440   32.2100   43.5070 C   0  0  0  0  0  0  0  0  0  0  0  0
   59.6011   33.7881   52.8391 H   0  0  0  0  0  0  0  0  0  0  0  0
   58.2694   34.8623   52.2918 H   0  0  0  0  0  0  0  0  0  0  0  0
   58.0435   33.0802   52.2918 H   0  0  0  0  0  0  0  0  0  0  0  0
   61.3297   33.4681   52.4924 H   0  0  0  0  0  0  0  0  0  0  0  0
   64.4005   33.5760   49.4613 H   0  0  0  0  0  0  0  0  0  0  0  0
   64.3630   32.6419   47.5033 H   0  0  0  0  0  0  0  0  0  0  0  0
   63.2666   32.3427   46.1122 H   0  0  0  0  0  0  0  0  0  0  0  0
   64.3464   33.7782   46.1122 H   0  0  0  0  0  0  0  0  0  0  0  0
   61.3110   34.6720   46.5270 H   0  0  0  0  0  0  0  0  0  0  0  0
   58.3121   34.7480   46.1929 H   0  0  0  0  0  0  0  0  0  0  0  0
   59.5134   35.8774   45.4564 H   0  0  0  0  0  0  0  0  0  0  0  0
   59.0370   34.5418   43.6268 H   0  0  0  0  0  0  0  0  0  0  0  0
   60.4230   33.6297   44.3589 H   0  0  0  0  0  0  0  0  0  0  0  0
   58.9896   32.4258   46.7212 H   0  0  0  0  0  0  0  0  0  0  0  0
   57.5981   30.3745   46.9332 H   0  0  0  0  0  0  0  0  0  0  0  0
   54.7950   26.7110   45.2800 H   0  0  0  0  0  0  0  0  0  0  0  0
   55.5875   29.8201   42.6766 H   0  0  0  0  0  0  0  0  0  0  0  0
   56.0052   31.3206   41.7818 H   0  0  0  0  0  0  0  0  0  0  0  0
   57.1412   29.9291   41.7818 H   0  0  0  0  0  0  0  0  0  0  0  0
   57.9167   32.7293   42.5400 H   0  0  0  0  0  0  0  0  0  0  0  0
  1  2  1  0
  2  3  1  0
  3  4  2  0
  4  5  1  0
  5  6  1  0
  5  7  2  0
  7  8  1  0
  8  9  1  0
  9 10  1  0
  8 11  2  0
 11 12  1  0
 12 13  2  0
 12 14  1  0
 14 15  1  0
 15 16  1  0
 16 17  1  0
 17 18  2  0
 18 19  1  0
 19 20  2  0
 20 21  1  0
 21 22  1  0
 22 23  1  0
 22 24  2  0
 22 25  2  0
 20 26  1  0
 26 27  1  0
 26 28  2  0
 11  3  1  0
 28 17  1  0
  1 29  1  0
  1 30  1  0
  1 31  1  0
  4 32  1  0
  7 33  1  0
 10 34  1  0
 10 35  1  0
 10 36  1  0
 14 37  1  0
 15 38  1  0
 15 39  1  0
 16 40  1  0
 16 41  1  0
 18 42  1  0
 19 43  1  0
 23 44  1  0
 27 45  1  0
 27 46  1  0
 27 47  1  0
 28 48  1  0
M  CHG  3   6  -1  21  -1  23  -1
M  END
>  <UniqueID>  (12) 
11

>  <SMILES>  (12) 
COc1cc([O-])cc(OC)c1C(=O)NCCc1ccc([N-]S([NH-])(=O)=O)c(C)c1

>  <Energy>  (12) 
52.42567143309539

>  <Genealogy>  (12) 
COc1cc([O-])cc(OC)c1C(=O)NCCc1ccc([N-]S([NH-])(=O)=O)c(C)c1 (protonated)
COc1cc([O-])cc(OC)c1C(=O)NCCc1ccc([N-]S([NH-])(=O)=O)c(C)c1 (3D coordinates assigned)
COc1cc([O-])cc(OC)c1C(=O)NCCc1ccc([N-]S([NH-])(=O)=O)c(C)c1 (optimized conformer: 52.42567143309539 kcal/mol)

>  <smiles>  (12) 
COc1cc(O)cc(OC)c1C(=O)NCCc1ccc(NS(N)(=O)=O)c(C)c1

>  <score_type>  (12) 
oracle

>  <origin>  (12) 
adg

>  <m_score__min__energy>  (12) 
-12.23

>  <m_primary>  (12) 
energy

$$$$
12:0
     RDKit          3D

 26 27  0  0  0  0  0  0  0  0999 V2000
   55.0540   26.3190   45.9630 N   0  0  0  0  0  0  0  0  0  0  0  0
   56.7720   26.3930   45.8050 S   0  0  0  0  0  0  0  0  0  0  0  0
   57.4170   25.7050   46.9750 O   0  0  0  0  0  0  0  0  0  0  0  0
   57.1920   25.6940   44.5420 O   0  0  0  0  0  0  0  0  0  0  0  0
   57.2800   28.0780   45.7500 C   0  0  0  0  0  0  0  0  0  0  0  0
   56.6010   28.9920   44.9350 C   0  0  0  0  0  0  0  0  0  0  0  0
   56.9970   30.3330   44.9000 C   0  0  0  0  0  0  0  0  0  0  0  0
   58.0800   30.7730   45.6770 C   0  0  0  0  0  0  0  0  0  0  0  0
   58.4920   32.1950   45.6580 C   0  0  0  0  0  0  0  0  0  0  0  0
   58.8730   32.8140   46.8610 C   0  0  0  0  0  0  0  0  0  0  0  0
   59.2530   34.1580   46.8780 C   0  0  0  0  0  0  0  0  0  0  0  0
   59.2610   34.8980   45.6940 C   0  0  0  0  0  0  0  0  0  0  0  0
   58.8960   34.2930   44.4900 C   0  0  0  0  0  0  0  0  0  0  0  0
   58.5130   32.9470   44.4600 C   0  0  0  0  0  0  0  0  0  0  0  0
   58.1330   32.2240   42.9000 Cl  0  0  0  0  0  0  0  0  0  0  0  0
   58.7450   29.8580   46.5090 C   0  0  0  0  0  0  0  0  0  0  0  0
   58.3480   28.5180   46.5430 C   0  0  0  0  0  0  0  0  0  0  0  0
   54.7740   27.0850   46.6170 H   0  0  0  0  0  0  0  0  0  0  0  0
   55.7535   28.6543   44.3204 H   0  0  0  0  0  0  0  0  0  0  0  0
   56.4569   31.0465   44.2603 H   0  0  0  0  0  0  0  0  0  0  0  0
   58.8719   32.2354   47.7965 H   0  0  0  0  0  0  0  0  0  0  0  0
   59.5463   34.6340   47.8253 H   0  0  0  0  0  0  0  0  0  0  0  0
   59.5550   35.9579   45.7099 H   0  0  0  0  0  0  0  0  0  0  0  0
   58.9095   34.8780   43.5586 H   0  0  0  0  0  0  0  0  0  0  0  0
   59.5821   30.1971   47.1369 H   0  0  0  0  0  0  0  0  0  0  0  0
   58.8761   27.8064   47.1948 H   0  0  0  0  0  0  0  0  0  0  0  0
  1  2  1  0
  2  3  2  0
  2  4  2  0
  2  5  1  0
  5  6  2  0
  6  7  1  0
  7  8  2  0
  8  9  1  0
  9 10  2  0
 10 11  1  0
 11 12  2  0
 12 13  1  0
 13 14  2  0
 14 15  1  0
  8 16  1  0
 16 17  2  0
 17  5  1  0
 14  9  1  0
  1 18  1  0
  6 19  1  0
  7 20  1  0
 10 21  1  0
 11 22  1  0
 12 23  1  0
 13 24  1  0
 16 25  1  0
 17 26  1  0
M  CHG  1   1  -1
M  END
>  <UniqueID>  (13) 
12

>  <SMILES>  (13) 
[NH-]S(=O)(=O)c1ccc(-c2ccccc2Cl)cc1

>  <Energy>  (13) 
34.189208945005696

>  <Genealogy>  (13) 
[NH-]S(=O)(=O)c1ccc(-c2ccccc2Cl)cc1 (protonated)
[NH-]S(=O)(=O)c1ccc(-c2ccccc2Cl)cc1 (3D coordinates assigned)
[NH-]S(=O)(=O)c1ccc(-c2ccccc2Cl)cc1 (optimized conformer: 34.189208945005696 kcal/mol)

>  <smiles>  (13) 
NS(=O)(=O)c1ccc(-c2ccccc2Cl)cc1

>  <score_type>  (13) 
oracle

>  <origin>  (13) 
adg

>  <m_score__min__energy>  (13) 
-10.32

>  <m_primary>  (13) 
energy

$$$$
13:0
     RDKit          3D

 37 40  0  0  0  0  0  0  0  0999 V2000
   56.6360   31.6800   44.5360 O   0  0  0  0  0  0  0  0  0  0  0  0
   57.7760   32.0870   44.8150 C   0  0  0  0  0  0  0  0  0  0  0  0
   58.1060   33.4980   44.4680 C   0  0  0  0  0  0  0  0  0  0  0  0
   58.3350   34.5040   45.9510 S   0  0  0  0  0  0  0  0  0  0  0  0
   59.8880   34.1370   46.7560 C   0  0  0  0  0  0  0  0  0  0  0  0
   60.8900   33.4000   46.1960 N   0  0  0  0  0  0  0  0  0  0  0  0
   61.8770   33.3630   47.1380 C   0  0  0  0  0  0  0  0  0  0  0  0
   63.1360   32.7640   47.1450 C   0  0  0  0  0  0  0  0  0  0  0  0
   63.9590   32.8860   48.2620 C   0  0  0  0  0  0  0  0  0  0  0  0
   63.5450   33.5970   49.3750 C   0  0  0  0  0  0  0  0  0  0  0  0
   62.2870   34.2000   49.3790 C   0  0  0  0  0  0  0  0  0  0  0  0
   61.4930   34.0620   48.2540 C   0  0  0  0  0  0  0  0  0  0  0  0
   60.2520   34.5310   47.9890 N   0  0  0  0  0  0  0  0  0  0  0  0
   58.7250   31.2630   45.4300 N   0  0  0  0  0  0  0  0  0  0  0  0
   58.5700   29.9250   45.8160 C   0  0  0  0  0  0  0  0  0  0  0  0
   59.4980   29.1490   46.4490 C   0  0  0  0  0  0  0  0  0  0  0  0
   59.2700   27.8200   46.8080 C   0  0  0  0  0  0  0  0  0  0  0  0
   58.0610   27.2230   46.5300 C   0  0  0  0  0  0  0  0  0  0  0  0
   57.5570   25.9870   46.7470 N   0  0  0  0  0  0  0  0  0  0  0  0
   56.2920   25.9790   46.2470 C   0  0  0  0  0  0  0  0  0  0  0  0
   55.4750   25.0030   46.2520 O   0  0  0  0  0  0  0  0  0  0  0  0
   56.0370   27.2070   45.7300 N   0  0  0  0  0  0  0  0  0  0  0  0
   57.1150   27.9940   45.8920 C   0  0  0  0  0  0  0  0  0  0  0  0
   57.3460   29.2950   45.5430 C   0  0  0  0  0  0  0  0  0  0  0  0
   59.0341   33.5139   43.8777 H   0  0  0  0  0  0  0  0  0  0  0  0
   57.2693   33.9177   43.8903 H   0  0  0  0  0  0  0  0  0  0  0  0
   63.4793   32.1951   46.2684 H   0  0  0  0  0  0  0  0  0  0  0  0
   64.9512   32.4110   48.2596 H   0  0  0  0  0  0  0  0  0  0  0  0
   64.2040   33.6861   50.2512 H   0  0  0  0  0  0  0  0  0  0  0  0
   61.9359   34.7694   50.2522 H   0  0  0  0  0  0  0  0  0  0  0  0
   59.6760   35.1030   48.6320 H   0  0  0  0  0  0  0  0  0  0  0  0
   59.6720   31.7190   45.6220 H   0  0  0  0  0  0  0  0  0  0  0  0
   60.4751   29.5941   46.6882 H   0  0  0  0  0  0  0  0  0  0  0  0
   60.0599   27.2467   47.3154 H   0  0  0  0  0  0  0  0  0  0  0  0
   58.0580   25.1820   47.2190 H   0  0  0  0  0  0  0  0  0  0  0  0
   55.1430   27.4900   45.2790 H   0  0  0  0  0  0  0  0  0  0  0  0
   56.5524   29.8628   45.0352 H   0  0  0  0  0  0  0  0  0  0  0  0
  1  2  2  0
  2  3  1  0
  3  4  1  0
  4  5  1  0
  5  6  2  0
  6  7  1  0
  7  8  2  0
  8  9  1  0
  9 10  2  0
 10 11  1  0
 11 12  2  0
 12 13  1  0
  2 14  1  0
 14 15  1  0
 15 16  2  0
 16 17  1  0
 17 18  2  0
 18 19  1  0
 19 20  1  0
 20 21  2  0
 20 22  1  0
 22 23  1  0
 23 24  2  0
 13  5  1  0
 24 15  1  0
 12  7  1  0
 23 18  1  0
  3 25  1  0
  3 26  1  0
  8 27  1  0
  9 28  1  0
 10 29  1  0
 11 30  1  0
 13 31  1  0
 14 32  1  0
 16 33  1  0
 17 34  1  0
 19 35  1  0
 22 36  1  0
 24 37  1  0
M  END
>  <smiles>  (14) 
O=C(CSc1nc2ccccc2[nH]1)Nc1ccc2[nH]c(=O)[nH]c2c1

>  <score_type>  (14) 
oracle

>  <origin>  (14) 
adg

>  <m_score__min__energy>  (14) 
-8.6799999999999997

>  <m_primary>  (14) 
energy

$$$$
14:0
     RDKit          3D

 37 39  0  0  0  0  0  0  0  0999 V2000
   63.3170   33.8070   47.3420 C   0  0  0  0  0  0  0  0  0  0  0  0
   62.7140   33.0270   48.5080 C   0  0  0  0  0  0  0  0  0  0  0  0
   61.5330   32.2540   48.0620 N   0  0  0  0  0  0  0  0  0  0  0  0
   60.2560   32.5940   48.4630 C   0  0  0  0  0  0  0  0  0  0  0  0
   59.9690   33.8760   49.4610 S   0  0  0  0  0  0  0  0  0  0  0  0
   59.1850   31.8730   48.0290 N   0  0  0  0  0  0  0  0  0  0  0  0
   59.3310   30.8220   47.1820 C   0  0  0  0  0  0  0  0  0  0  0  0
   58.2080   30.1030   46.7410 C   0  0  0  0  0  0  0  0  0  0  0  0
   58.3560   29.0370   45.8410 C   0  0  0  0  0  0  0  0  0  0  0  0
   57.1770   28.3150   45.3310 C   0  0  0  0  0  0  0  0  0  0  0  0
   57.3170   27.1350   44.9130 O   0  0  0  0  0  0  0  0  0  0  0  0
   55.8840   28.9310   45.2450 N   0  0  0  0  0  0  0  0  0  0  0  0
   55.4310   29.8250   44.1820 C   0  0  0  0  0  0  0  0  0  0  0  0
   56.4860   30.8360   43.8490 C   0  0  0  0  0  0  0  0  0  0  0  0
   57.1810   30.9230   42.6490 C   0  0  0  0  0  0  0  0  0  0  0  0
   58.0790   31.9960   42.6100 C   0  0  0  0  0  0  0  0  0  0  0  0
   58.0960   32.7510   43.7760 C   0  0  0  0  0  0  0  0  0  0  0  0
   56.9900   32.0850   44.8550 S   0  0  0  0  0  0  0  0  0  0  0  0
   59.6370   28.6650   45.4160 C   0  0  0  0  0  0  0  0  0  0  0  0
   60.7590   29.3730   45.8540 C   0  0  0  0  0  0  0  0  0  0  0  0
   60.6130   30.4610   46.7350 C   0  0  0  0  0  0  0  0  0  0  0  0
   61.7130   31.2070   47.1880 C   0  0  0  0  0  0  0  0  0  0  0  0
   62.8720   30.9090   46.7820 O   0  0  0  0  0  0  0  0  0  0  0  0
   63.9462   34.6208   47.7316 H   0  0  0  0  0  0  0  0  0  0  0  0
   63.9302   33.1317   46.7272 H   0  0  0  0  0  0  0  0  0  0  0  0
   62.5090   34.2304   46.7272 H   0  0  0  0  0  0  0  0  0  0  0  0
   63.4690   32.3347   48.9088 H   0  0  0  0  0  0  0  0  0  0  0  0
   62.3993   33.7384   49.2857 H   0  0  0  0  0  0  0  0  0  0  0  0
   58.2240   32.1440   48.3470 H   0  0  0  0  0  0  0  0  0  0  0  0
   57.2063   30.3774   47.1035 H   0  0  0  0  0  0  0  0  0  0  0  0
   55.2046   29.2314   43.2840 H   0  0  0  0  0  0  0  0  0  0  0  0
   54.5318   30.3557   44.5280 H   0  0  0  0  0  0  0  0  0  0  0  0
   57.0399   30.2202   41.8146 H   0  0  0  0  0  0  0  0  0  0  0  0
   58.7115   32.2202   41.7384 H   0  0  0  0  0  0  0  0  0  0  0  0
   58.7253   33.6338   43.9621 H   0  0  0  0  0  0  0  0  0  0  0  0
   59.7608   27.8110   44.7338 H   0  0  0  0  0  0  0  0  0  0  0  0
   61.7611   29.0788   45.5088 H   0  0  0  0  0  0  0  0  0  0  0  0
  1  2  1  0
  2  3  1  0
  3  4  1  0
  4  5  2  0
  4  6  1  0
  6  7  1  0
  7  8  2  0
  8  9  1  0
  9 10  1  0
 10 11  2  0
 10 12  1  0
 12 13  1  0
 13 14  1  0
 14 15  2  0
 15 16  1  0
 16 17  2  0
 17 18  1  0
  9 19  2  0
 19 20  1  0
 20 21  2  0
 21 22  1  0
 22 23  2  0
 22  3  1  0
 21  7  1  0
 18 14  1  0
  1 24  1  0
  1 25  1  0
  1 26  1  0
  2 27  1  0
  2 28  1  0
  6 29  1  0
  8 30  1  0
 13 31  1  0
 13 32  1  0
 15 33  1  0
 16 34  1  0
 17 35  1  0
 19 36  1  0
 20 37  1  0
M  CHG  1  12  -1
M  END
>  <UniqueID>  (15) 
13

>  <SMILES>  (15) 
CCn1c(=S)[nH]c2cc(C(=O)[N-]Cc3cccs3)ccc2c1=O

>  <Energy>  (15) 
74.67971813842135

>  <Genealogy>  (15) 
CCn1c(=S)[nH]c2cc(C(=O)[N-]Cc3cccs3)ccc2c1=O (protonated)
CCn1c(=S)[nH]c2cc(C(=O)[N-]Cc3cccs3)ccc2c1=O (3D coordinates assigned)
CCn1c(=S)[nH]c2cc(C(=O)[N-]Cc3cccs3)ccc2c1=O (optimized conformer: 74.67971813842135 kcal/mol)

>  <smiles>  (15) 
CCn1c(=S)[nH]c2cc(C(=O)NCc3cccs3)ccc2c1=O

>  <score_type>  (15) 
oracle

>  <origin>  (15) 
adg

>  <m_score__min__energy>  (15) 
-8.8699999999999992

>  <m_primary>  (15) 
energy

$$$$
15:0
     RDKit          3D

 30 31  0  0  0  0  0  0  0  0999 V2000
   59.3830   34.6580   45.0670 C   0  0  0  0  0  0  0  0  0  0  0  0
   57.7680   33.9070   45.0900 S   0  0  0  0  0  0  0  0  0  0  0  0
   57.3760   33.5410   46.4930 O   0  0  0  0  0  0  0  0  0  0  0  0
   56.7740   34.8990   44.5550 O   0  0  0  0  0  0  0  0  0  0  0  0
   57.7490   32.4960   44.0780 N   0  0  0  0  0  0  0  0  0  0  0  0
   57.2510   31.2060   44.4810 C   0  0  0  0  0  0  0  0  0  0  0  0
   55.9600   30.8230   44.0870 C   0  0  0  0  0  0  0  0  0  0  0  0
   55.4410   29.5830   44.4600 C   0  0  0  0  0  0  0  0  0  0  0  0
   56.2010   28.7050   45.2360 C   0  0  0  0  0  0  0  0  0  0  0  0
   55.6460   27.4880   45.6190 O   0  0  0  0  0  0  0  0  0  0  0  0
   57.5020   29.0640   45.6390 C   0  0  0  0  0  0  0  0  0  0  0  0
   58.3350   28.1460   46.4540 C   0  0  0  0  0  0  0  0  0  0  0  0
   58.9170   28.5850   47.6570 C   0  0  0  0  0  0  0  0  0  0  0  0
   59.6910   27.7110   48.4270 C   0  0  0  0  0  0  0  0  0  0  0  0
   59.8880   26.3930   48.0070 C   0  0  0  0  0  0  0  0  0  0  0  0
   59.3080   25.9450   46.8170 C   0  0  0  0  0  0  0  0  0  0  0  0
   58.5330   26.8150   46.0440 C   0  0  0  0  0  0  0  0  0  0  0  0
   58.0130   30.3190   45.2650 C   0  0  0  0  0  0  0  0  0  0  0  0
   59.7276   34.8182   46.0993 H   0  0  0  0  0  0  0  0  0  0  0  0
   60.0881   33.9954   44.5438 H   0  0  0  0  0  0  0  0  0  0  0  0
   59.3307   35.6242   44.5438 H   0  0  0  0  0  0  0  0  0  0  0  0
   58.1810   32.5950   43.1320 H   0  0  0  0  0  0  0  0  0  0  0  0
   55.3511   31.5073   43.4780 H   0  0  0  0  0  0  0  0  0  0  0  0
   54.4282   29.2953   44.1414 H   0  0  0  0  0  0  0  0  0  0  0  0
   58.7626   29.6207   47.9937 H   0  0  0  0  0  0  0  0  0  0  0  0
   60.1456   28.0619   49.3652 H   0  0  0  0  0  0  0  0  0  0  0  0
   60.4995   25.7081   48.6129 H   0  0  0  0  0  0  0  0  0  0  0  0
   59.4614   24.9066   46.4881 H   0  0  0  0  0  0  0  0  0  0  0  0
   58.0756   26.4566   45.1100 H   0  0  0  0  0  0  0  0  0  0  0  0
   59.0224   30.6121   45.5894 H   0  0  0  0  0  0  0  0  0  0  0  0
  1  2  1  0
  2  3  2  0
  2  4  2  0
  2  5  1  0
  5  6  1  0
  6  7  2  0
  7  8  1  0
  8  9  2  0
  9 10  1  0
  9 11  1  0
 11 12  1  0
 12 13  2  0
 13 14  1  0
 14 15  2  0
 15 16  1  0
 16 17  2  0
 11 18  2  0
 18  6  1  0
 17 12  1  0
  1 19  1  0
  1 20  1  0
  1 21  1  0
  5 22  1  0
  7 23  1  0
  8 24  1  0
 13 25  1  0
 14 26  1  0
 15 27  1  0
 16 28  1  0
 17 29  1  0
 18 30  1  0
M  CHG  1  10  -1
M  END
>  <UniqueID>  (16) 
14

>  <SMILES>  (16) 
CS(=O)(=O)Nc1ccc([O-])c(-c2ccccc2)c1

>  <Energy>  (16) 
35.890075620421676

>  <Genealogy>  (16) 
CS(=O)(=O)Nc1ccc([O-])c(-c2ccccc2)c1 (protonated)
CS(=O)(=O)Nc1ccc([O-])c(-c2ccccc2)c1 (3D coordinates assigned)
CS(=O)(=O)Nc1ccc([O-])c(-c2ccccc2)c1 (optimized conformer: 35.890075620421676 kcal/mol)

>  <smiles>  (16) 
CS(=O)(=O)Nc1ccc(O)c(-c2ccccc2)c1

>  <score_type>  (16) 
oracle

>  <origin>  (16) 
adg

>  <m_score__min__energy>  (16) 
-9.4199999999999999

>  <m_primary>  (16) 
energy

$$$$
16:0
     RDKit          3D

 66 68  0  0  0  0  0  0  0  0999 V2000
   62.0540   33.8720   50.3800 C   0  0  0  0  0  0  0  0  0  0  0  0
   63.2660   33.1540   49.8010 C   0  0  0  0  0  0  0  0  0  0  0  0
   63.7570   33.8670   48.6190 N   0  0  0  0  0  0  0  0  0  0  0  0
   63.1720   33.1330   47.1520 S   0  0  0  0  0  0  0  0  0  0  0  0
   63.7740   33.8440   45.9720 O   0  0  0  0  0  0  0  0  0  0  0  0
   63.5810   31.6860   47.0940 O   0  0  0  0  0  0  0  0  0  0  0  0
   61.4170   33.2640   47.0800 C   0  0  0  0  0  0  0  0  0  0  0  0
   60.8090   34.3830   46.4870 C   0  0  0  0  0  0  0  0  0  0  0  0
   59.4170   34.4510   46.3730 C   0  0  0  0  0  0  0  0  0  0  0  0
   58.6160   33.4110   46.8700 C   0  0  0  0  0  0  0  0  0  0  0  0
   57.1210   33.4470   46.6990 C   0  0  0  0  0  0  0  0  0  0  0  0
   56.7400   33.1690   45.2440 C   0  0  0  0  0  0  0  0  0  0  0  0
   57.5960   32.1240   44.6890 N   0  0  0  0  0  0  0  0  0  0  0  0
   57.1870   30.7530   44.6030 C   0  0  0  0  0  0  0  0  0  0  0  0
   55.9930   30.4280   44.8450 O   0  0  0  0  0  0  0  0  0  0  0  0
   58.1860   29.6930   44.2130 C   0  0  0  0  0  0  0  0  0  0  0  0
   58.1820   28.5190   45.1100 N   0  0  0  0  0  0  0  0  0  0  0  0
   58.5800   28.8340   46.4910 C   0  0  0  0  0  0  0  0  0  0  0  0
   58.1580   27.6760   47.4180 C   0  0  0  0  0  0  0  0  0  0  0  0
   58.1560   26.3500   46.7440 N   0  0  0  0  0  0  0  0  0  0  0  0
   56.8150   25.9440   46.2690 C   0  0  0  0  0  0  0  0  0  0  0  0
   56.8960   24.6510   45.4950 C   0  0  0  0  0  0  0  0  0  0  0  0
   56.6910   24.6750   44.1050 C   0  0  0  0  0  0  0  0  0  0  0  0
   56.7630   23.4980   43.3590 C   0  0  0  0  0  0  0  0  0  0  0  0
   57.0500   22.2870   43.9900 C   0  0  0  0  0  0  0  0  0  0  0  0
   57.2620   22.2450   45.3690 C   0  0  0  0  0  0  0  0  0  0  0  0
   57.1850   23.4240   46.1380 C   0  0  0  0  0  0  0  0  0  0  0  0
   57.3900   23.4090   47.5280 O   0  0  0  0  0  0  0  0  0  0  0  0
   56.4160   23.0100   48.4860 C   0  0  0  0  0  0  0  0  0  0  0  0
   59.1600   26.2810   45.6610 C   0  0  0  0  0  0  0  0  0  0  0  0
   58.9250   27.3580   44.5740 C   0  0  0  0  0  0  0  0  0  0  0  0
   59.2270   32.2980   47.4700 C   0  0  0  0  0  0  0  0  0  0  0  0
   60.6200   32.2230   47.5710 C   0  0  0  0  0  0  0  0  0  0  0  0
   62.1014   33.8439   51.4786 H   0  0  0  0  0  0  0  0  0  0  0  0
   62.0504   34.9181   50.0398 H   0  0  0  0  0  0  0  0  0  0  0  0
   61.1348   33.3726   50.0398 H   0  0  0  0  0  0  0  0  0  0  0  0
   64.0621   33.1150   50.5591 H   0  0  0  0  0  0  0  0  0  0  0  0
   62.9750   32.1337   49.5107 H   0  0  0  0  0  0  0  0  0  0  0  0
   61.4304   35.2090   46.1108 H   0  0  0  0  0  0  0  0  0  0  0  0
   58.9482   35.3223   45.8923 H   0  0  0  0  0  0  0  0  0  0  0  0
   56.6645   32.6825   47.3449 H   0  0  0  0  0  0  0  0  0  0  0  0
   56.7557   34.4466   46.9770 H   0  0  0  0  0  0  0  0  0  0  0  0
   55.6910   32.8411   45.1995 H   0  0  0  0  0  0  0  0  0  0  0  0
   56.8711   34.0897   44.6566 H   0  0  0  0  0  0  0  0  0  0  0  0
   58.5500   32.3960   44.3560 H   0  0  0  0  0  0  0  0  0  0  0  0
   57.9520   29.3527   43.1935 H   0  0  0  0  0  0  0  0  0  0  0  0
   59.1846   30.1491   44.2825 H   0  0  0  0  0  0  0  0  0  0  0  0
   59.6712   28.9642   46.5386 H   0  0  0  0  0  0  0  0  0  0  0  0
   58.0883   29.7634   46.8140 H   0  0  0  0  0  0  0  0  0  0  0  0
   58.8579   27.6352   48.2656 H   0  0  0  0  0  0  0  0  0  0  0  0
   57.1258   27.8779   47.7402 H   0  0  0  0  0  0  0  0  0  0  0  0
   56.1509   25.8062   47.1350 H   0  0  0  0  0  0  0  0  0  0  0  0
   56.4195   26.7294   45.6081 H   0  0  0  0  0  0  0  0  0  0  0  0
   56.4723   25.6282   43.6015 H   0  0  0  0  0  0  0  0  0  0  0  0
   56.5934   23.5248   42.2725 H   0  0  0  0  0  0  0  0  0  0  0  0
   57.1094   21.3616   43.3983 H   0  0  0  0  0  0  0  0  0  0  0  0
   57.4904   21.2867   45.8584 H   0  0  0  0  0  0  0  0  0  0  0  0
   56.8110   23.1718   49.4998 H   0  0  0  0  0  0  0  0  0  0  0  0
   55.5016   23.6060   48.3493 H   0  0  0  0  0  0  0  0  0  0  0  0
   56.1826   21.9438   48.3493 H   0  0  0  0  0  0  0  0  0  0  0  0
   60.1598   26.4287   46.0953 H   0  0  0  0  0  0  0  0  0  0  0  0
   59.0722   25.2944   45.1825 H   0  0  0  0  0  0  0  0  0  0  0  0
   59.8989   27.7014   44.1952 H   0  0  0  0  0  0  0  0  0  0  0  0
   58.3264   26.9086   43.7679 H   0  0  0  0  0  0  0  0  0  0  0  0
   58.6059   31.4797   47.8632 H   0  0  0  0  0  0  0  0  0  0  0  0
   61.0902   31.3445   48.0370 H   0  0  0  0  0  0  0  0  0  0  0  0
  1  2  1  0
  2  3  1  0
  3  4  1  0
  4  5  2  0
  4  6  2  0
  4  7  1  0
  7  8  2  0
  8  9  1  0
  9 10  2  0
 10 11  1  0
 11 12  1  0
 12 13  1  0
 13 14  1  0
 14 15  2  0
 14 16  1  0
 16 17  1  0
 17 18  1  0
 18 19  1  0
 19 20  1  0
 20 21  1  0
 21 22  1  0
 22 23  2  0
 23 24  1  0
 24 25  2  0
 25 26  1  0
 26 27  2  0
 27 28  1  0
 28 29  1  0
 20 30  1  0
 30 31  1  0
 10 32  1  0
 32 33  2  0
 33  7  1  0
 31 17  1  0
 27 22  1  0
  1 34  1  0
  1 35  1  0
  1 36  1  0
  2 37  1  0
  2 38  1  0
  8 39  1  0
  9 40  1  0
 11 41  1  0
 11 42  1  0
 12 43  1  0
 12 44  1  0
 13 45  1  0
 16 46  1  0
 16 47  1  0
 18 48  1  0
 18 49  1  0
 19 50  1  0
 19 51  1  0
 21 52  1  0
 21 53  1  0
 23 54  1  0
 24 55  1  0
 25 56  1  0
 26 57  1  0
 29 58  1  0
 29 59  1  0
 29 60  1  0
 30 61  1  0
 30 62  1  0
 31 63  1  0
 31 64  1  0
 32 65  1  0
 33 66  1  0
M  CHG  1   3  -1
M  END
>  <UniqueID>  (17) 
15

>  <SMILES>  (17) 
CC[N-]S(=O)(=O)c1ccc(CCNC(=O)CN2CCN(Cc3ccccc3OC)CC2)cc1

>  <Energy>  (17) 
72.12694944370429

>  <Genealogy>  (17) 
CC[N-]S(=O)(=O)c1ccc(CCNC(=O)CN2CCN(Cc3ccccc3OC)CC2)cc1 (protonated)
CC[N-]S(=O)(=O)c1ccc(CCNC(=O)CN2CCN(Cc3ccccc3OC)CC2)cc1 (3D coordinates assigned)
CC[N-]S(=O)(=O)c1ccc(CCNC(=O)CN2CCN(Cc3ccccc3OC)CC2)cc1 (nonaromatic ring conformer: 72.12694944370429 kcal/mol)

>  <smiles>  (17) 
CCNS(=O)(=O)c1ccc(CCNC(=O)CN2CCN(Cc3ccccc3OC)CC2)cc1

>  <score_type>  (17) 
oracle

>  <origin>  (17) 
adg

>  <m_score__min__energy>  (17) 
-10.58

>  <m_primary>  (17) 
energy

$$$$
17:0
     RDKit          3D

 71 74  0  0  0  0  0  0  0  0999 V2000
   60.8779   32.3329   51.8822 H   0  0  0  0  0  0  0  0  0  0  0  0
   60.3230   31.9810   51.0000 C   0  0  0  0  0  0  0  0  0  0  0  0
   60.9360   30.9120   50.1950 C   0  0  0  0  0  0  0  0  0  0  0  0
   62.1570   30.9940   49.8980 O   0  0  0  0  0  0  0  0  0  0  0  0
   60.1290   29.8670   49.6400 N   0  0  0  0  0  0  0  0  0  0  0  0
   60.2890   29.2840   48.3400 C   0  0  0  0  0  0  0  0  0  0  0  0
   60.6370   30.1130   47.2670 C   0  0  0  0  0  0  0  0  0  0  0  0
   60.8098   31.1858   47.4381 H   0  0  0  0  0  0  0  0  0  0  0  0
   60.7660   29.5850   45.9800 C   0  0  0  0  0  0  0  0  0  0  0  0
   61.0499   30.2406   45.1436 H   0  0  0  0  0  0  0  0  0  0  0  0
   60.5350   28.2250   45.7530 C   0  0  0  0  0  0  0  0  0  0  0  0
   60.6445   27.8116   44.7396 H   0  0  0  0  0  0  0  0  0  0  0  0
   60.1620   27.3820   46.8200 C   0  0  0  0  0  0  0  0  0  0  0  0
   59.8970   26.0130   46.6510 O   0  0  0  0  0  0  0  0  0  0  0  0
   58.9900   25.4520   45.7020 C   0  0  0  0  0  0  0  0  0  0  0  0
   59.5604   25.0375   44.8577 H   0  0  0  0  0  0  0  0  0  0  0  0
   58.4078   24.6583   46.1931 H   0  0  0  0  0  0  0  0  0  0  0  0
   58.0250   26.5240   45.1810 C   0  0  0  0  0  0  0  0  0  0  0  0
   58.5970   27.4327   44.9423 H   0  0  0  0  0  0  0  0  0  0  0  0
   57.5230   26.1274   44.2862 H   0  0  0  0  0  0  0  0  0  0  0  0
   56.9520   26.8710   46.2150 C   0  0  0  0  0  0  0  0  0  0  0  0
   56.5033   25.9428   46.5986 H   0  0  0  0  0  0  0  0  0  0  0  0
   57.4159   27.4323   47.0394 H   0  0  0  0  0  0  0  0  0  0  0  0
   55.9120   27.6930   45.6050 N   0  0  0  0  0  0  0  0  0  0  0  0
   56.1440   28.9940   45.0560 C   0  0  0  0  0  0  0  0  0  0  0  0
   55.1840   29.6260   44.5430 O   0  0  0  0  0  0  0  0  0  0  0  0
   57.4610   29.5570   45.0020 N   0  0  0  0  0  0  0  0  0  0  0  0
   57.7600   30.8250   45.0390 C   0  0  0  0  0  0  0  0  0  0  0  0
   57.8180   31.5120   43.8660 N   0  0  0  0  0  0  0  0  0  0  0  0
   58.1260   32.8340   43.8140 C   0  0  0  0  0  0  0  0  0  0  0  0
   58.1673   33.3498   42.8433 H   0  0  0  0  0  0  0  0  0  0  0  0
   58.3900   33.5390   44.9880 C   0  0  0  0  0  0  0  0  0  0  0  0
   58.6547   34.6059   44.9469 H   0  0  0  0  0  0  0  0  0  0  0  0
   58.3150   32.8760   46.2210 C   0  0  0  0  0  0  0  0  0  0  0  0
   58.5730   33.6160   47.5060 C   0  0  0  0  0  0  0  0  0  0  0  0
   57.7013   34.2437   47.7427 H   0  0  0  0  0  0  0  0  0  0  0  0
   58.7441   32.8833   48.3084 H   0  0  0  0  0  0  0  0  0  0  0  0
   59.7320   34.4470   47.3860 O   0  0  0  0  0  0  0  0  0  0  0  0
   61.0520   34.0360   47.6310 C   0  0  0  0  0  0  0  0  0  0  0  0
   61.8580   33.4330   46.6440 C   0  0  0  0  0  0  0  0  0  0  0  0
   61.4514   33.2566   45.6372 H   0  0  0  0  0  0  0  0  0  0  0  0
   63.1730   33.0580   46.9400 C   0  0  0  0  0  0  0  0  0  0  0  0
   63.7988   32.5903   46.1657 H   0  0  0  0  0  0  0  0  0  0  0  0
   63.6910   33.2770   48.2170 C   0  0  0  0  0  0  0  0  0  0  0  0
   64.7274   32.9881   48.4461 H   0  0  0  0  0  0  0  0  0  0  0  0
   62.8950   33.8630   49.2060 C   0  0  0  0  0  0  0  0  0  0  0  0
   63.4010   34.0700   50.4480 F   0  0  0  0  0  0  0  0  0  0  0  0
   61.5810   34.2380   48.9140 C   0  0  0  0  0  0  0  0  0  0  0  0
   60.9570   34.6950   49.6962 H   0  0  0  0  0  0  0  0  0  0  0  0
   57.9980   31.5110   46.2470 C   0  0  0  0  0  0  0  0  0  0  0  0
   57.9352   30.9771   47.2067 H   0  0  0  0  0  0  0  0  0  0  0  0
   60.0340   27.9220   48.1050 C   0  0  0  0  0  0  0  0  0  0  0  0
   59.7305   27.2734   48.9400 H   0  0  0  0  0  0  0  0  0  0  0  0
   59.1400   32.5600   50.7420 C   0  0  0  0  0  0  0  0  0  0  0  0
   59.1511   33.6185   50.4430 H   0  0  0  0  0  0  0  0  0  0  0  0
   57.7970   31.8800   50.8280 C   0  0  0  0  0  0  0  0  0  0  0  0
   57.0580   32.4648   50.2607 H   0  0  0  0  0  0  0  0  0  0  0  0
   57.8829   30.8675   50.4068 H   0  0  0  0  0  0  0  0  0  0  0  0
   57.3590   31.7770   52.2360 N   0  0  0  0  0  0  0  0  0  0  0  0
   57.9850   30.6220   52.8940 C   0  0  0  0  0  0  0  0  0  0  0  0
   58.9653   30.4175   52.4387 H   0  0  0  0  0  0  0  0  0  0  0  0
   58.1361   30.8242   53.9646 H   0  0  0  0  0  0  0  0  0  0  0  0
   57.0660   29.4260   52.7030 C   0  0  0  0  0  0  0  0  0  0  0  0
   57.4007   28.8142   51.8523 H   0  0  0  0  0  0  0  0  0  0  0  0
   57.0596   28.7674   53.5840 H   0  0  0  0  0  0  0  0  0  0  0  0
   55.6970   30.0170   52.4270 C   0  0  0  0  0  0  0  0  0  0  0  0
   55.2955   29.6297   51.4790 H   0  0  0  0  0  0  0  0  0  0  0  0
   54.9740   29.7545   53.2133 H   0  0  0  0  0  0  0  0  0  0  0  0
   55.9120   31.5240   52.3380 C   0  0  0  0  0  0  0  0  0  0  0  0
   55.4009   31.9212   51.4486 H   0  0  0  0  0  0  0  0  0  0  0  0
   55.5015   32.0197   53.2301 H   0  0  0  0  0  0  0  0  0  0  0  0
  1  2  1  0
  2  3  1  0
  3  4  2  0
  3  5  1  0
  5  6  1  0
  6  7  2  0
  7  8  1  0
  7  9  1  0
  9 10  1  0
  9 11  2  0
 11 12  1  0
 11 13  1  0
 13 14  1  0
 14 15  1  0
 15 16  1  0
 15 17  1  0
 15 18  1  0
 18 19  1  0
 18 20  1  0
 18 21  1  0
 21 22  1  0
 21 23  1  0
 21 24  1  0
 24 25  1  0
 25 26  2  0
 25 27  1  0
 27 28  2  3
 28 29  1  0
 29 30  1  0
 30 31  1  0
 30 32  2  0
 32 33  1  0
 32 34  1  0
 34 35  1  0
 35 36  1  0
 35 37  1  0
 35 38  1  0
 38 39  1  0
 39 40  2  0
 40 41  1  0
 40 42  1  0
 42 43  1  0
 42 44  2  0
 44 45  1  0
 44 46  1  0
 46 47  1  0
 46 48  2  0
 48 49  1  0
 34 50  2  0
 50 51  1  0
 13 52  2  0
 52 53  1  0
  2 54  2  0
 54 55  1  0
 54 56  1  0
 56 57  1  0
 56 58  1  0
 56 59  1  0
 59 60  1  0
 60 61  1  0
 60 62  1  0
 60 63  1  0
 63 64  1  0
 63 65  1  0
 63 66  1  0
 66 67  1  0
 66 68  1  0
 66 69  1  0
 69 70  1  0
 69 71  1  0
 52  6  1  0
 69 59  1  0
 50 28  1  0
 48 39  1  0
M  CHG  3   5  -1  24  -1  29  -1
M  END
>  <UniqueID>  (18) 
16

>  <SMILES>  (18) 
O=C(/C=C\CN1CCCC1)[N-]c1cccc(OCCC[N-]C(=O)N=c2cc(COc3cccc(F)c3)cc[n-]2)c1

>  <Energy>  (18) 
88.08970517133682

>  <Genealogy>  (18) 
O=C(C=CCN1CCCC1)[N-]c1cccc(OCCC[N-]C(=O)N=c2cc(COc3cccc(F)c3)cc[n-]2)c1 (protonated)
O=C(/C=C\CN1CCCC1)[N-]c1cccc(OCCC[N-]C(=O)N=c2cc(COc3cccc(F)c3)cc[n-]2)c1 (cis-trans isomerization)
O=C(/C=C\CN1CCCC1)[N-]c1cccc(OCCC[N-]C(=O)N=c2cc(COc3cccc(F)c3)cc[n-]2)c1 (3D coordinates assigned)
O=C(/C=C\CN1CCCC1)[N-]c1cccc(OCCC[N-]C(=O)N=c2cc(COc3cccc(F)c3)cc[n-]2)c1 (nonaromatic ring conformer: 88.08970517133682 kcal/mol)

>  <smiles>  (18) 
O=C(C=CCN1CCCC1)Nc1cccc(OCCCNC(=O)N=c2cc(COc3cccc(F)c3)cc[nH]2)c1

>  <score_type>  (18) 
oracle

>  <origin>  (18) 
adg

>  <m_score__min__energy>  (18) 
-12.289999999999999

>  <m_primary>  (18) 
energy

$$$$
18:0
     RDKit          3D

 37 39  0  0  0  0  0  0  0  0999 V2000
   56.6730   34.5620   45.1740 N   0  0  0  0  0  0  0  0  0  0  0  0
   57.7340   34.2020   45.4520 C   0  0  0  0  0  0  0  0  0  0  0  0
   59.0330   33.7510   45.8170 C   0  0  0  0  0  0  0  0  0  0  0  0
   59.3460   32.4220   45.9600 C   0  0  0  0  0  0  0  0  0  0  0  0
   58.4390   31.3160   45.7550 C   0  0  0  0  0  0  0  0  0  0  0  0
   58.5700   30.2250   46.6060 C   0  0  0  0  0  0  0  0  0  0  0  0
   57.7780   29.0790   46.4470 C   0  0  0  0  0  0  0  0  0  0  0  0
   56.8410   28.9780   45.4500 C   0  0  0  0  0  0  0  0  0  0  0  0
   56.0310   27.8730   45.2470 O   0  0  0  0  0  0  0  0  0  0  0  0
   56.7060   30.0540   44.6020 C   0  0  0  0  0  0  0  0  0  0  0  0
   57.5010   31.1950   44.7680 C   0  0  0  0  0  0  0  0  0  0  0  0
   60.6160   32.1560   46.3820 N   0  0  0  0  0  0  0  0  0  0  0  0
   61.5110   33.1340   46.6420 C   0  0  0  0  0  0  0  0  0  0  0  0
   63.1720   32.7250   47.1950 S   0  0  0  0  0  0  0  0  0  0  0  0
   62.9760   31.8510   48.7770 C   0  0  0  0  0  0  0  0  0  0  0  0
   61.6610   32.1070   49.3840 C   0  0  0  0  0  0  0  0  0  0  0  0
   60.7010   31.1180   49.3240 C   0  0  0  0  0  0  0  0  0  0  0  0
   60.9230   29.9160   48.7250 F   0  0  0  0  0  0  0  0  0  0  0  0
   59.4440   31.3100   49.8800 C   0  0  0  0  0  0  0  0  0  0  0  0
   59.1450   32.5150   50.5090 C   0  0  0  0  0  0  0  0  0  0  0  0
   60.1050   33.5230   50.5770 C   0  0  0  0  0  0  0  0  0  0  0  0
   61.3580   33.3120   50.0140 C   0  0  0  0  0  0  0  0  0  0  0  0
   62.6040   34.5630   50.0770 Cl  0  0  0  0  0  0  0  0  0  0  0  0
   61.2030   34.4430   46.4990 N   0  0  0  0  0  0  0  0  0  0  0  0
   59.9630   34.7690   46.0860 C   0  0  0  0  0  0  0  0  0  0  0  0
   59.6760   35.9830   45.9530 O   0  0  0  0  0  0  0  0  0  0  0  0
   59.3092   30.2613   47.4198 H   0  0  0  0  0  0  0  0  0  0  0  0
   57.9118   28.2366   47.1416 H   0  0  0  0  0  0  0  0  0  0  0  0
   56.2650   27.2030   44.5270 H   0  0  0  0  0  0  0  0  0  0  0  0
   55.9677   30.0173   43.7874 H   0  0  0  0  0  0  0  0  0  0  0  0
   57.3640   32.0344   44.0704 H   0  0  0  0  0  0  0  0  0  0  0  0
   60.9750   31.1860   46.5180 H   0  0  0  0  0  0  0  0  0  0  0  0
   63.0830   30.7703   48.6022 H   0  0  0  0  0  0  0  0  0  0  0  0
   63.7487   32.2185   49.4683 H   0  0  0  0  0  0  0  0  0  0  0  0
   58.6875   30.5134   49.8238 H   0  0  0  0  0  0  0  0  0  0  0  0
   58.1507   32.6718   50.9526 H   0  0  0  0  0  0  0  0  0  0  0  0
   59.8730   34.4775   51.0721 H   0  0  0  0  0  0  0  0  0  0  0  0
  1  2  3  0
  2  3  1  0
  3  4  2  0
  4  5  1  0
  5  6  2  0
  6  7  1  0
  7  8  2  0
  8  9  1  0
  8 10  1  0
 10 11  2  0
  4 12  1  0
 12 13  1  0
 13 14  1  0
 14 15  1  0
 15 16  1  0
 16 17  2  0
 17 18  1  0
 17 19  1  0
 19 20  2  0
 20 21  1  0
 21 22  2  0
 22 23  1  0
 13 24  2  0
 24 25  1  0
 25 26  2  0
 25  3  1  0
 11  5  1  0
 22 16  1  0
  6 27  1  0
  7 28  1  0
  9 29  1  0
 10 30  1  0
 11 31  1  0
 12 32  1  0
 15 33  1  0
 15 34  1  0
 19 35  1  0
 20 36  1  0
 21 37  1  0
M  END
>  <smiles>  (19) 
N#Cc1c(-c2ccc(O)cc2)[nH]c(SCc2c(F)cccc2Cl)nc1=O

>  <score_type>  (19) 
oracle

>  <origin>  (19) 
adg

>  <m_score__min__energy>  (19) 
-7.8200000000000003

>  <m_primary>  (19) 
energy

$$$$
19:0
     RDKit          3D

 52 55  0  0  0  0  0  0  0  0999 V2000
   61.4600   32.8980   51.8850 N   0  0  0  0  0  0  0  0  0  0  0  0
   61.0700   33.4710   50.6320 C   0  0  0  0  0  0  0  0  0  0  0  0
   59.9750   34.0900   50.5610 O   0  0  0  0  0  0  0  0  0  0  0  0
   61.9330   33.3470   49.4300 C   0  0  0  0  0  0  0  0  0  0  0  0
   63.2610   32.9090   49.5810 C   0  0  0  0  0  0  0  0  0  0  0  0
   64.1070   32.8190   48.4780 C   0  0  0  0  0  0  0  0  0  0  0  0
   63.6440   33.1480   47.2030 C   0  0  0  0  0  0  0  0  0  0  0  0
   62.3320   33.5800   47.0330 C   0  0  0  0  0  0  0  0  0  0  0  0
   61.4650   33.6970   48.1390 C   0  0  0  0  0  0  0  0  0  0  0  0
   60.0950   34.0730   47.9240 N   0  0  0  0  0  0  0  0  0  0  0  0
   59.3460   33.6830   46.7590 C   0  0  0  0  0  0  0  0  0  0  0  0
   59.3330   34.5180   45.6240 C   0  0  0  0  0  0  0  0  0  0  0  0
   58.6100   34.1570   44.4910 C   0  0  0  0  0  0  0  0  0  0  0  0
   57.8780   32.9680   44.4760 C   0  0  0  0  0  0  0  0  0  0  0  0
   57.8690   32.1200   45.5980 C   0  0  0  0  0  0  0  0  0  0  0  0
   57.0600   30.9310   45.6130 N   0  0  0  0  0  0  0  0  0  0  0  0
   56.7770   30.1060   44.4760 C   0  0  0  0  0  0  0  0  0  0  0  0
   56.2820   30.6250   43.4320 O   0  0  0  0  0  0  0  0  0  0  0  0
   57.0980   28.6660   44.5090 C   0  0  0  0  0  0  0  0  0  0  0  0
   56.7370   27.8810   45.6160 C   0  0  0  0  0  0  0  0  0  0  0  0
   57.0750   26.5200   45.6610 C   0  0  0  0  0  0  0  0  0  0  0  0
   57.7690   25.9350   44.6000 C   0  0  0  0  0  0  0  0  0  0  0  0
   58.1230   26.7050   43.4900 C   0  0  0  0  0  0  0  0  0  0  0  0
   57.7880   28.0600   43.4410 C   0  0  0  0  0  0  0  0  0  0  0  0
   58.6030   32.4800   46.7450 C   0  0  0  0  0  0  0  0  0  0  0  0
   58.6390   31.3570   48.1610 S   0  0  0  0  0  0  0  0  0  0  0  0
   59.3890   30.0370   47.2060 C   0  0  0  0  0  0  0  0  0  0  0  0
   59.2340   28.7040   47.6040 C   0  0  0  0  0  0  0  0  0  0  0  0
   59.8640   27.6800   46.8930 C   0  0  0  0  0  0  0  0  0  0  0  0
   60.6410   27.9850   45.7740 C   0  0  0  0  0  0  0  0  0  0  0  0
   60.7830   29.3170   45.3630 C   0  0  0  0  0  0  0  0  0  0  0  0
   60.1550   30.3420   46.0720 C   0  0  0  0  0  0  0  0  0  0  0  0
   60.8440   32.9980   52.7220 H   0  0  0  0  0  0  0  0  0  0  0  0
   62.3270   32.3240   51.9740 H   0  0  0  0  0  0  0  0  0  0  0  0
   63.6348   32.6352   50.5787 H   0  0  0  0  0  0  0  0  0  0  0  0
   65.1468   32.4864   48.6127 H   0  0  0  0  0  0  0  0  0  0  0  0
   64.3144   33.0660   46.3348 H   0  0  0  0  0  0  0  0  0  0  0  0
   61.9678   33.8326   46.0262 H   0  0  0  0  0  0  0  0  0  0  0  0
   59.6150   34.6170   48.6760 H   0  0  0  0  0  0  0  0  0  0  0  0
   59.8982   35.4616   45.6336 H   0  0  0  0  0  0  0  0  0  0  0  0
   58.6152   34.8096   43.6055 H   0  0  0  0  0  0  0  0  0  0  0  0
   57.3037   32.6923   43.5793 H   0  0  0  0  0  0  0  0  0  0  0  0
   56.1861   28.3357   46.4526 H   0  0  0  0  0  0  0  0  0  0  0  0
   56.7928   25.9128   46.5337 H   0  0  0  0  0  0  0  0  0  0  0  0
   58.0366   24.8687   44.6384 H   0  0  0  0  0  0  0  0  0  0  0  0
   58.6668   26.2434   42.6526 H   0  0  0  0  0  0  0  0  0  0  0  0
   58.0653   28.6589   42.5610 H   0  0  0  0  0  0  0  0  0  0  0  0
   58.6139   28.4620   48.4797 H   0  0  0  0  0  0  0  0  0  0  0  0
   59.7480   26.6344   47.2144 H   0  0  0  0  0  0  0  0  0  0  0  0
   61.1414   27.1803   45.2154 H   0  0  0  0  0  0  0  0  0  0  0  0
   61.3916   29.5556   44.4784 H   0  0  0  0  0  0  0  0  0  0  0  0
   60.2607   31.3860   45.7421 H   0  0  0  0  0  0  0  0  0  0  0  0
  1  2  1  0
  2  3  2  0
  2  4  1  0
  4  5  2  0
  5  6  1  0
  6  7  2  0
  7  8  1  0
  8  9  2  0
  9 10  1  0
 10 11  1  0
 11 12  2  0
 12 13  1  0
 13 14  2  0
 14 15  1  0
 15 16  1  0
 16 17  1  0
 17 18  2  0
 17 19  1  0
 19 20  2  0
 20 21  1  0
 21 22  2  0
 22 23  1  0
 23 24  2  0
 15 25  2  0
 25 26  1  0
 26 27  1  0
 27 28  2  0
 28 29  1  0
 29 30  2  0
 30 31  1  0
 31 32  2  0
  9  4  1  0
 25 11  1  0
 32 27  1  0
 24 19  1  0
  1 33  1  0
  1 34  1  0
  5 35  1  0
  6 36  1  0
  7 37  1  0
  8 38  1  0
 10 39  1  0
 12 40  1  0
 13 41  1  0
 14 42  1  0
 20 43  1  0
 21 44  1  0
 22 45  1  0
 23 46  1  0
 24 47  1  0
 28 48  1  0
 29 49  1  0
 30 50  1  0
 31 51  1  0
 32 52  1  0
M  CHG  1  16  -1
M  END
>  <UniqueID>  (20) 
17

>  <SMILES>  (20) 
NC(=O)c1ccccc1Nc1cccc([N-]C(=O)c2ccccc2)c1Sc1ccccc1

>  <Energy>  (20) 
66.14827527847021

>  <Genealogy>  (20) 
NC(=O)c1ccccc1Nc1cccc([N-]C(=O)c2ccccc2)c1Sc1ccccc1 (protonated)
NC(=O)c1ccccc1Nc1cccc([N-]C(=O)c2ccccc2)c1Sc1ccccc1 (3D coordinates assigned)
NC(=O)c1ccccc1Nc1cccc([N-]C(=O)c2ccccc2)c1Sc1ccccc1 (optimized conformer: 66.14827527847021 kcal/mol)

>  <smiles>  (20) 
NC(=O)c1ccccc1Nc1cccc(NC(=O)c2ccccc2)c1Sc1ccccc1

>  <score_type>  (20) 
oracle

>  <origin>  (20) 
adg

>  <m_score__min__energy>  (20) 
-10.75

>  <m_primary>  (20) 
energy

$$$$
20:0
     RDKit          3D

 37 38  0  0  0  0  0  0  0  0999 V2000
   56.2620   29.8320   42.8250 C   0  0  0  0  0  0  0  0  0  0  0  0
   56.0950   29.9770   44.3070 C   0  0  0  0  0  0  0  0  0  0  0  0
   55.1510   29.3720   44.8770 O   0  0  0  0  0  0  0  0  0  0  0  0
   57.0040   30.7500   45.1010 N   0  0  0  0  0  0  0  0  0  0  0  0
   58.3370   30.3730   45.4840 C   0  0  0  0  0  0  0  0  0  0  0  0
   58.9950   29.3470   44.7880 C   0  0  0  0  0  0  0  0  0  0  0  0
   60.2980   29.0030   45.1270 C   0  0  0  0  0  0  0  0  0  0  0  0
   60.9510   29.6920   46.1410 C   0  0  0  0  0  0  0  0  0  0  0  0
   60.2920   30.7280   46.8080 C   0  0  0  0  0  0  0  0  0  0  0  0
   60.9080   31.3500   47.7170 O   0  0  0  0  0  0  0  0  0  0  0  0
   58.9980   31.0630   46.4780 N   0  0  0  0  0  0  0  0  0  0  0  0
   58.3170   32.1430   47.2250 C   0  0  0  0  0  0  0  0  0  0  0  0
   58.1410   33.4080   46.3680 C   0  0  0  0  0  0  0  0  0  0  0  0
   58.9230   34.6170   46.8980 C   0  0  0  0  0  0  0  0  0  0  0  0
   60.2470   34.6540   46.3700 O   0  0  0  0  0  0  0  0  0  0  0  0
   61.3710   34.1770   47.0520 C   0  0  0  0  0  0  0  0  0  0  0  0
   61.3850   34.2020   48.4500 C   0  0  0  0  0  0  0  0  0  0  0  0
   62.5060   33.7250   49.1340 C   0  0  0  0  0  0  0  0  0  0  0  0
   63.5960   33.2290   48.4170 C   0  0  0  0  0  0  0  0  0  0  0  0
   64.6910   32.7640   49.0690 F   0  0  0  0  0  0  0  0  0  0  0  0
   63.5480   33.2170   47.0200 C   0  0  0  0  0  0  0  0  0  0  0  0
   62.4480   33.6860   46.3740 N   0  0  0  0  0  0  0  0  0  0  0  0
   57.0774   29.1240   42.6154 H   0  0  0  0  0  0  0  0  0  0  0  0
   55.3268   29.4546   42.3858 H   0  0  0  0  0  0  0  0  0  0  0  0
   56.5044   30.8109   42.3858 H   0  0  0  0  0  0  0  0  0  0  0  0
   58.4795   28.8155   43.9746 H   0  0  0  0  0  0  0  0  0  0  0  0
   60.8103   28.1882   44.5944 H   0  0  0  0  0  0  0  0  0  0  0  0
   61.9813   29.4235   46.4174 H   0  0  0  0  0  0  0  0  0  0  0  0
   57.3256   31.7866   47.5413 H   0  0  0  0  0  0  0  0  0  0  0  0
   58.9398   32.4028   48.0937 H   0  0  0  0  0  0  0  0  0  0  0  0
   58.4877   33.1887   45.3474 H   0  0  0  0  0  0  0  0  0  0  0  0
   57.0739   33.6737   46.3966 H   0  0  0  0  0  0  0  0  0  0  0  0
   58.3966   35.5384   46.6083 H   0  0  0  0  0  0  0  0  0  0  0  0
   58.9898   34.5325   47.9927 H   0  0  0  0  0  0  0  0  0  0  0  0
   60.5208   34.5939   49.0065 H   0  0  0  0  0  0  0  0  0  0  0  0
   62.5295   33.7403   50.2336 H   0  0  0  0  0  0  0  0  0  0  0  0
   64.4003   32.8280   46.4436 H   0  0  0  0  0  0  0  0  0  0  0  0
  1  2  1  0
  2  3  2  0
  2  4  1  0
  4  5  1  0
  5  6  2  0
  6  7  1  0
  7  8  2  0
  8  9  1  0
  9 10  2  0
  9 11  1  0
 11 12  1  0
 12 13  1  0
 13 14  1  0
 14 15  1  0
 15 16  1  0
 16 17  2  0
 17 18  1  0
 18 19  2  0
 19 20  1  0
 19 21  1  0
 21 22  2  0
 11  5  1  0
 22 16  1  0
  1 23  1  0
  1 24  1  0
  1 25  1  0
  6 26  1  0
  7 27  1  0
  8 28  1  0
 12 29  1  0
 12 30  1  0
 13 31  1  0
 13 32  1  0
 14 33  1  0
 14 34  1  0
 17 35  1  0
 18 36  1  0
 21 37  1  0
M  CHG  1   4  -1
M  END
>  <UniqueID>  (21) 
18

>  <SMILES>  (21) 
CC(=O)[N-]c1cccc(=O)n1CCCOc1ccc(F)cn1

>  <Energy>  (21) 
39.48857287794623

>  <Genealogy>  (21) 
CC(=O)[N-]c1cccc(=O)n1CCCOc1ccc(F)cn1 (protonated)
CC(=O)[N-]c1cccc(=O)n1CCCOc1ccc(F)cn1 (3D coordinates assigned)
CC(=O)[N-]c1cccc(=O)n1CCCOc1ccc(F)cn1 (optimized conformer: 39.48857287794623 kcal/mol)

>  <smiles>  (21) 
CC(=O)Nc1cccc(=O)n1CCCOc1ccc(F)cn1

>  <score_type>  (21) 
oracle

>  <origin>  (21) 
adg

>  <m_score__min__energy>  (21) 
-8.7599999999999998

>  <m_primary>  (21) 
energy

$$$$
21:0
     RDKit          3D

 40 41  0  0  0  0  0  0  0  0999 V2000
   59.2410   34.8790   45.4990 C   0  0  0  0  0  0  0  0  0  0  0  0
   60.2930   34.8390   46.4580 O   0  0  0  0  0  0  0  0  0  0  0  0
   60.9860   33.6750   46.8250 C   0  0  0  0  0  0  0  0  0  0  0  0
   62.3420   33.7890   47.1560 C   0  0  0  0  0  0  0  0  0  0  0  0
   63.0800   32.6590   47.5120 C   0  0  0  0  0  0  0  0  0  0  0  0
   62.4680   31.4050   47.5510 C   0  0  0  0  0  0  0  0  0  0  0  0
   61.1060   31.2710   47.2490 C   0  0  0  0  0  0  0  0  0  0  0  0
   60.5040   29.9640   47.2780 N   0  0  0  0  0  0  0  0  0  0  0  0
   60.4830   29.1130   48.4340 C   0  0  0  0  0  0  0  0  0  0  0  0
   61.2030   29.3730   49.4360 O   0  0  0  0  0  0  0  0  0  0  0  0
   59.6720   27.8530   48.4200 C   0  0  0  0  0  0  0  0  0  0  0  0
   60.4360   26.7320   47.7030 C   0  0  0  0  0  0  0  0  0  0  0  0
   59.7830   26.3430   46.3710 C   0  0  0  0  0  0  0  0  0  0  0  0
   59.2560   27.5420   45.6380 C   0  0  0  0  0  0  0  0  0  0  0  0
   60.0420   28.4990   45.1040 N   0  0  0  0  0  0  0  0  0  0  0  0
   59.2660   29.4380   44.5800 N   0  0  0  0  0  0  0  0  0  0  0  0
   57.9810   29.0880   44.7830 C   0  0  0  0  0  0  0  0  0  0  0  0
   56.6090   30.0540   44.2690 S   0  0  0  0  0  0  0  0  0  0  0  0
   55.1440   29.3270   44.8300 N   0  0  0  0  0  0  0  0  0  0  0  0
   56.5810   30.1270   42.7690 O   0  0  0  0  0  0  0  0  0  0  0  0
   56.7330   31.4420   44.8300 O   0  0  0  0  0  0  0  0  0  0  0  0
   57.9320   27.8890   45.4560 C   0  0  0  0  0  0  0  0  0  0  0  0
   56.7620   27.1750   45.8970 C   0  0  0  0  0  0  0  0  0  0  0  0
   55.8230   26.6000   46.2520 N   0  0  0  0  0  0  0  0  0  0  0  0
   60.3710   32.4090   46.8660 C   0  0  0  0  0  0  0  0  0  0  0  0
   58.2722   34.9158   46.0188 H   0  0  0  0  0  0  0  0  0  0  0  0
   59.3532   35.7735   44.8687 H   0  0  0  0  0  0  0  0  0  0  0  0
   59.2850   33.9785   44.8687 H   0  0  0  0  0  0  0  0  0  0  0  0
   62.8286   34.7753   47.1353 H   0  0  0  0  0  0  0  0  0  0  0  0
   64.1466   32.7569   47.7625 H   0  0  0  0  0  0  0  0  0  0  0  0
   63.0582   30.5167   47.8204 H   0  0  0  0  0  0  0  0  0  0  0  0
   60.1350   29.5740   46.3800 H   0  0  0  0  0  0  0  0  0  0  0  0
   59.4636   27.5448   49.4552 H   0  0  0  0  0  0  0  0  0  0  0  0
   58.7299   28.0414   47.8843 H   0  0  0  0  0  0  0  0  0  0  0  0
   61.4633   27.0731   47.5072 H   0  0  0  0  0  0  0  0  0  0  0  0
   60.4245   25.8462   48.3551 H   0  0  0  0  0  0  0  0  0  0  0  0
   60.5316   25.8408   45.7406 H   0  0  0  0  0  0  0  0  0  0  0  0
   58.9364   25.6748   46.5873 H   0  0  0  0  0  0  0  0  0  0  0  0
   55.3990   28.7020   45.6280 H   0  0  0  0  0  0  0  0  0  0  0  0
   59.3092   32.3085   46.5970 H   0  0  0  0  0  0  0  0  0  0  0  0
  1  2  1  0
  2  3  1  0
  3  4  2  0
  4  5  1  0
  5  6  2  0
  6  7  1  0
  7  8  1  0
  8  9  1  0
  9 10  2  0
  9 11  1  0
 11 12  1  0
 12 13  1  0
 13 14  1  0
 14 15  2  0
 15 16  1  0
 16 17  1  0
 17 18  1  0
 18 19  1  0
 18 20  2  0
 18 21  2  0
 17 22  2  0
 22 23  1  0
 23 24  3  0
  7 25  2  0
 25  3  1  0
 22 14  1  0
  1 26  1  0
  1 27  1  0
  1 28  1  0
  4 29  1  0
  5 30  1  0
  6 31  1  0
  8 32  1  0
 11 33  1  0
 11 34  1  0
 12 35  1  0
 12 36  1  0
 13 37  1  0
 13 38  1  0
 19 39  1  0
 25 40  1  0
M  CHG  2  16  -1  19  -1
M  END
>  <UniqueID>  (22) 
19

>  <SMILES>  (22) 
COc1cccc(NC(=O)CCCc2n[n-]c(S([NH-])(=O)=O)c2C#N)c1

>  <Energy>  (22) 
65.68627910037982

>  <Genealogy>  (22) 
COc1cccc(NC(=O)CCCc2n[n-]c(S([NH-])(=O)=O)c2C#N)c1 (protonated)
COc1cccc(NC(=O)CCCc2n[n-]c(S([NH-])(=O)=O)c2C#N)c1 (3D coordinates assigned)
COc1cccc(NC(=O)CCCc2n[n-]c(S([NH-])(=O)=O)c2C#N)c1 (optimized conformer: 65.68627910037982 kcal/mol)

>  <smiles>  (22) 
COc1cccc(NC(=O)CCCc2n[nH]c(S(N)(=O)=O)c2C#N)c1

>  <score_type>  (22) 
oracle

>  <origin>  (22) 
adg

>  <m_score__min__energy>  (22) 
-13.49

>  <m_primary>  (22) 
energy

$$$$
22:0
     RDKit          3D

 66 69  0  0  0  0  0  0  0  0999 V2000
   60.4000   29.1850   47.5660 C   0  0  0  0  0  0  0  0  0  0  0  0
   58.8970   28.9490   47.6180 C   0  0  0  0  0  0  0  0  0  0  0  0
   58.3840   28.4880   46.2780 C   0  0  0  0  0  0  0  0  0  0  0  0
   58.4870   27.2060   45.7240 C   0  0  0  0  0  0  0  0  0  0  0  0
   59.1400   26.0150   46.3720 C   0  0  0  0  0  0  0  0  0  0  0  0
   57.9890   27.1980   44.4590 N   0  0  0  0  0  0  0  0  0  0  0  0
   57.9260   26.0570   43.5360 C   0  0  0  0  0  0  0  0  0  0  0  0
   57.0310   24.9710   44.0760 C   0  0  0  0  0  0  0  0  0  0  0  0
   56.5020   25.1110   45.1730 O   0  0  0  0  0  0  0  0  0  0  0  0
   56.8380   23.7450   43.3270 N   0  0  0  0  0  0  0  0  0  0  0  0
   57.7090   22.6810   43.8520 C   0  0  0  0  0  0  0  0  0  0  0  0
   55.4250   23.3350   43.3730 C   0  0  0  0  0  0  0  0  0  0  0  0
   57.5480   28.4510   44.2190 C   0  0  0  0  0  0  0  0  0  0  0  0
   56.9380   28.9310   43.0570 C   0  0  0  0  0  0  0  0  0  0  0  0
   56.5940   30.2910   43.0030 C   0  0  0  0  0  0  0  0  0  0  0  0
   56.8630   31.1400   44.0930 C   0  0  0  0  0  0  0  0  0  0  0  0
   57.4620   30.6350   45.2690 C   0  0  0  0  0  0  0  0  0  0  0  0
   57.7820   31.4620   46.3550 O   0  0  0  0  0  0  0  0  0  0  0  0
   58.6700   32.5440   46.3260 C   0  0  0  0  0  0  0  0  0  0  0  0
   58.2020   33.7820   45.8690 C   0  0  0  0  0  0  0  0  0  0  0  0
   59.0570   34.8850   45.8150 C   0  0  0  0  0  0  0  0  0  0  0  0
   60.3920   34.7550   46.2060 C   0  0  0  0  0  0  0  0  0  0  0  0
   60.8830   33.5180   46.6440 C   0  0  0  0  0  0  0  0  0  0  0  0
   62.5740   33.3640   47.1080 S   0  0  0  0  0  0  0  0  0  0  0  0
   62.9940   31.9270   46.9440 O   0  0  0  0  0  0  0  0  0  0  0  0
   63.4200   34.2080   46.1930 O   0  0  0  0  0  0  0  0  0  0  0  0
   62.7440   33.8900   48.7770 N   0  0  0  0  0  0  0  0  0  0  0  0
   63.5180   32.9340   49.5860 C   0  0  0  0  0  0  0  0  0  0  0  0
   62.7190   31.6410   49.8750 C   0  0  0  0  0  0  0  0  0  0  0  0
   61.3550   31.7460   49.5090 O   0  0  0  0  0  0  0  0  0  0  0  0
   60.8020   32.9300   50.0470 C   0  0  0  0  0  0  0  0  0  0  0  0
   61.4370   34.1800   49.4030 C   0  0  0  0  0  0  0  0  0  0  0  0
   60.0220   32.4120   46.6950 C   0  0  0  0  0  0  0  0  0  0  0  0
   57.7900   29.2720   45.2960 C   0  0  0  0  0  0  0  0  0  0  0  0
   60.7970   29.2473   48.5900 H   0  0  0  0  0  0  0  0  0  0  0  0
   60.8838   28.3518   47.0352 H   0  0  0  0  0  0  0  0  0  0  0  0
   60.6052   30.1264   47.0352 H   0  0  0  0  0  0  0  0  0  0  0  0
   58.6781   28.1793   48.3728 H   0  0  0  0  0  0  0  0  0  0  0  0
   58.3993   29.8939   47.8814 H   0  0  0  0  0  0  0  0  0  0  0  0
   59.0844   26.1164   47.4659 H   0  0  0  0  0  0  0  0  0  0  0  0
   58.6189   25.0972   46.0619 H   0  0  0  0  0  0  0  0  0  0  0  0
   60.1940   25.9608   46.0619 H   0  0  0  0  0  0  0  0  0  0  0  0
   57.5315   26.3994   42.5679 H   0  0  0  0  0  0  0  0  0  0  0  0
   58.9399   25.6473   43.4172 H   0  0  0  0  0  0  0  0  0  0  0  0
   57.0960   23.9010   42.3220 H   0  0  0  0  0  0  0  0  0  0  0  0
   57.6917   22.7022   44.9517 H   0  0  0  0  0  0  0  0  0  0  0  0
   57.3482   21.7039   43.4984 H   0  0  0  0  0  0  0  0  0  0  0  0
   58.7381   22.8417   43.4984 H   0  0  0  0  0  0  0  0  0  0  0  0
   55.1042   23.2419   44.4210 H   0  0  0  0  0  0  0  0  0  0  0  0
   54.8072   24.0909   42.8662 H   0  0  0  0  0  0  0  0  0  0  0  0
   55.3077   22.3658   42.8662 H   0  0  0  0  0  0  0  0  0  0  0  0
   56.7331   28.2619   42.2083 H   0  0  0  0  0  0  0  0  0  0  0  0
   56.1105   30.6963   42.1019 H   0  0  0  0  0  0  0  0  0  0  0  0
   56.6044   32.2072   44.0287 H   0  0  0  0  0  0  0  0  0  0  0  0
   57.1543   33.8865   45.5505 H   0  0  0  0  0  0  0  0  0  0  0  0
   58.6791   35.8567   45.4644 H   0  0  0  0  0  0  0  0  0  0  0  0
   61.0606   35.6277   46.1698 H   0  0  0  0  0  0  0  0  0  0  0  0
   64.4367   32.6699   49.0417 H   0  0  0  0  0  0  0  0  0  0  0  0
   63.7504   33.4128   50.5487 H   0  0  0  0  0  0  0  0  0  0  0  0
   63.1722   30.8138   49.3090 H   0  0  0  0  0  0  0  0  0  0  0  0
   62.7583   31.4626   50.9597 H   0  0  0  0  0  0  0  0  0  0  0  0
   59.7184   32.9391   49.8577 H   0  0  0  0  0  0  0  0  0  0  0  0
   61.0050   32.9516   51.1279 H   0  0  0  0  0  0  0  0  0  0  0  0
   60.7539   34.5655   48.6318 H   0  0  0  0  0  0  0  0  0  0  0  0
   61.6041   34.9193   50.2002 H   0  0  0  0  0  0  0  0  0  0  0  0
   60.4056   31.4354   47.0254 H   0  0  0  0  0  0  0  0  0  0  0  0
  1  2  1  0
  2  3  1  0
  3  4  2  0
  4  5  1  0
  4  6  1  0
  6  7  1  0
  7  8  1  0
  8  9  2  0
  8 10  1  0
 10 11  1  0
 10 12  1  0
  6 13  1  0
 13 14  2  0
 14 15  1  0
 15 16  2  0
 16 17  1  0
 17 18  1  0
 18 19  1  0
 19 20  2  0
 20 21  1  0
 21 22  2  0
 22 23  1  0
 23 24  1  0
 24 25  2  0
 24 26  2  0
 24 27  1  0
 27 28  1  0
 28 29  1  0
 29 30  1  0
 30 31  1  0
 31 32  1  0
 23 33  2  0
 17 34  2  0
 34  3  1  0
 34 13  1  0
 33 19  1  0
 32 27  1  0
  1 35  1  0
  1 36  1  0
  1 37  1  0
  2 38  1  0
  2 39  1  0
  5 40  1  0
  5 41  1  0
  5 42  1  0
  7 43  1  0
  7 44  1  0
 10 45  1  0
 11 46  1  0
 11 47  1  0
 11 48  1  0
 12 49  1  0
 12 50  1  0
 12 51  1  0
 14 52  1  0
 15 53  1  0
 16 54  1  0
 20 55  1  0
 21 56  1  0
 22 57  1  0
 28 58  1  0
 28 59  1  0
 29 60  1  0
 29 61  1  0
 31 62  1  0
 31 63  1  0
 32 64  1  0
 32 65  1  0
 33 66  1  0
M  CHG  1  10   1
M  END
>  <UniqueID>  (23) 
20

>  <SMILES>  (23) 
CCc1c(C)n(CC(=O)[NH+](C)C)c2cccc(Oc3cccc(S(=O)(=O)N4CCOCC4)c3)c12

>  <Energy>  (23) 
115.9020725001179

>  <Genealogy>  (23) 
CCc1c(C)n(CC(=O)[NH+](C)C)c2cccc(Oc3cccc(S(=O)(=O)N4CCOCC4)c3)c12 (protonated)
CCc1c(C)n(CC(=O)[NH+](C)C)c2cccc(Oc3cccc(S(=O)(=O)N4CCOCC4)c3)c12 (3D coordinates assigned)
CCc1c(C)n(CC(=O)[NH+](C)C)c2cccc(Oc3cccc(S(=O)(=O)N4CCOCC4)c3)c12 (nonaromatic ring conformer: 115.9020725001179 kcal/mol)

>  <smiles>  (23) 
CCc1c(C)n(CC(=O)N(C)C)c2cccc(Oc3cccc(S(=O)(=O)N4CCOCC4)c3)c12

>  <score_type>  (23) 
oracle

>  <origin>  (23) 
adg

>  <m_score__min__energy>  (23) 
-9.0899999999999999

>  <m_primary>  (23) 
energy

$$$$
23:0
     RDKit          3D

 56 59  0  0  0  0  0  0  0  0999 V2000
   59.1980   35.3280   44.8990 C   0  0  0  0  0  0  0  0  0  0  0  0
   58.2960   34.3670   45.4440 O   0  0  0  0  0  0  0  0  0  0  0  0
   58.5150   32.9790   45.4570 C   0  0  0  0  0  0  0  0  0  0  0  0
   58.0870   32.1580   44.3980 C   0  0  0  0  0  0  0  0  0  0  0  0
   58.2700   30.7770   44.4480 C   0  0  0  0  0  0  0  0  0  0  0  0
   58.9140   30.1870   45.5470 C   0  0  0  0  0  0  0  0  0  0  0  0
   59.0650   28.7650   45.6690 N   0  0  0  0  0  0  0  0  0  0  0  0
   59.0370   28.0010   46.8800 C   0  0  0  0  0  0  0  0  0  0  0  0
   60.0630   27.9180   47.6090 O   0  0  0  0  0  0  0  0  0  0  0  0
   57.7620   27.3190   47.2780 C   0  0  0  0  0  0  0  0  0  0  0  0
   57.4440   26.2090   46.3800 N   0  0  0  0  0  0  0  0  0  0  0  0
   58.2650   25.1990   46.0150 C   0  0  0  0  0  0  0  0  0  0  0  0
   59.5920   25.0860   46.4150 O   0  0  0  0  0  0  0  0  0  0  0  0
   57.5950   24.3010   45.2100 C   0  0  0  0  0  0  0  0  0  0  0  0
   56.3090   24.7660   45.0930 C   0  0  0  0  0  0  0  0  0  0  0  0
   56.2440   25.9330   45.8270 C   0  0  0  0  0  0  0  0  0  0  0  0
   55.1070   26.7140   45.9990 O   0  0  0  0  0  0  0  0  0  0  0  0
   55.2320   24.0710   44.3250 C   0  0  0  0  0  0  0  0  0  0  0  0
   55.7600   22.8440   43.6050 C   0  0  0  0  0  0  0  0  0  0  0  0
   57.0280   22.3880   43.7200 C   0  0  0  0  0  0  0  0  0  0  0  0
   58.0890   23.0370   44.5880 C   0  0  0  0  0  0  0  0  0  0  0  0
   59.3490   31.0010   46.6000 C   0  0  0  0  0  0  0  0  0  0  0  0
   59.1610   32.3900   46.5650 C   0  0  0  0  0  0  0  0  0  0  0  0
   59.6850   33.3550   47.9590 S   0  0  0  0  0  0  0  0  0  0  0  0
   58.9530   32.9220   49.1970 O   0  0  0  0  0  0  0  0  0  0  0  0
   59.3290   34.7940   47.7010 O   0  0  0  0  0  0  0  0  0  0  0  0
   61.4070   33.1960   48.2520 N   0  0  0  0  0  0  0  0  0  0  0  0
   62.1790   33.5850   47.0580 C   0  0  0  0  0  0  0  0  0  0  0  0
   63.6660   33.2230   47.2270 C   0  0  0  0  0  0  0  0  0  0  0  0
   64.0680   33.0590   48.7000 C   0  0  0  0  0  0  0  0  0  0  0  0
   63.3480   34.0820   49.5840 C   0  0  0  0  0  0  0  0  0  0  0  0
   61.8110   34.0000   49.4260 C   0  0  0  0  0  0  0  0  0  0  0  0
   59.7011   35.8640   45.7173 H   0  0  0  0  0  0  0  0  0  0  0  0
   59.9492   34.8159   44.2797 H   0  0  0  0  0  0  0  0  0  0  0  0
   58.6394   36.0452   44.2797 H   0  0  0  0  0  0  0  0  0  0  0  0
   57.6024   32.6109   43.5205 H   0  0  0  0  0  0  0  0  0  0  0  0
   57.9081   30.1466   43.6224 H   0  0  0  0  0  0  0  0  0  0  0  0
   57.8688   26.9310   48.3017 H   0  0  0  0  0  0  0  0  0  0  0  0
   56.9454   28.0538   47.2205 H   0  0  0  0  0  0  0  0  0  0  0  0
   54.4394   23.7619   45.0223 H   0  0  0  0  0  0  0  0  0  0  0  0
   54.8421   24.7704   43.5708 H   0  0  0  0  0  0  0  0  0  0  0  0
   55.0697   22.2922   42.9500 H   0  0  0  0  0  0  0  0  0  0  0  0
   57.3072   21.4906   43.1485 H   0  0  0  0  0  0  0  0  0  0  0  0
   58.3757   22.3355   45.3853 H   0  0  0  0  0  0  0  0  0  0  0  0
   58.9513   23.2822   43.9505 H   0  0  0  0  0  0  0  0  0  0  0  0
   59.8460   30.5436   47.4682 H   0  0  0  0  0  0  0  0  0  0  0  0
   61.7767   33.0573   46.1807 H   0  0  0  0  0  0  0  0  0  0  0  0
   62.0941   34.6733   46.9221 H   0  0  0  0  0  0  0  0  0  0  0  0
   63.8607   32.2768   46.7008 H   0  0  0  0  0  0  0  0  0  0  0  0
   64.2604   34.0485   46.8084 H   0  0  0  0  0  0  0  0  0  0  0  0
   63.8027   32.0452   49.0343 H   0  0  0  0  0  0  0  0  0  0  0  0
   65.1522   33.2228   48.7871 H   0  0  0  0  0  0  0  0  0  0  0  0
   63.6083   33.8894   50.6353 H   0  0  0  0  0  0  0  0  0  0  0  0
   63.6696   35.0872   49.2738 H   0  0  0  0  0  0  0  0  0  0  0  0
   61.3868   33.5412   50.3313 H   0  0  0  0  0  0  0  0  0  0  0  0
   61.4340   35.0227   49.2779 H   0  0  0  0  0  0  0  0  0  0  0  0
  1  2  1  0
  2  3  1  0
  3  4  2  0
  4  5  1  0
  5  6  2  0
  6  7  1  0
  7  8  1  0
  8  9  2  0
  8 10  1  0
 10 11  1  0
 11 12  1  0
 12 13  1  0
 12 14  2  0
 14 15  1  0
 15 16  2  0
 16 17  1  0
 15 18  1  0
 18 19  1  0
 19 20  2  0
 20 21  1  0
  6 22  1  0
 22 23  2  0
 23 24  1  0
 24 25  2  0
 24 26  2  0
 24 27  1  0
 27 28  1  0
 28 29  1  0
 29 30  1  0
 30 31  1  0
 31 32  1  0
 23  3  1  0
 32 27  1  0
 16 11  1  0
 21 14  1  0
  1 33  1  0
  1 34  1  0
  1 35  1  0
  4 36  1  0
  5 37  1  0
 10 38  1  0
 10 39  1  0
 18 40  1  0
 18 41  1  0
 19 42  1  0
 20 43  1  0
 21 44  1  0
 21 45  1  0
 22 46  1  0
 28 47  1  0
 28 48  1  0
 29 49  1  0
 29 50  1  0
 30 51  1  0
 30 52  1  0
 31 53  1  0
 31 54  1  0
 32 55  1  0
 32 56  1  0
M  CHG  3   7  -1  13  -1  17  -1
M  END
>  <UniqueID>  (24) 
21

>  <SMILES>  (24) 
COc1ccc([N-]C(=O)Cn2c([O-])c3c(c2[O-])CC=CC3)cc1S(=O)(=O)N1CCCCC1

>  <Energy>  (24) 
98.66774864316135

>  <Genealogy>  (24) 
COc1ccc([N-]C(=O)Cn2c([O-])c3c(c2[O-])CC=CC3)cc1S(=O)(=O)N1CCCCC1 (protonated)
COc1ccc([N-]C(=O)Cn2c([O-])c3c(c2[O-])CC=CC3)cc1S(=O)(=O)N1CCCCC1 (3D coordinates assigned)
COc1ccc([N-]C(=O)Cn2c([O-])c3c(c2[O-])CC=CC3)cc1S(=O)(=O)N1CCCCC1 (nonaromatic ring conformer: 98.66774864316135 kcal/mol)

>  <smiles>  (24) 
COc1ccc(NC(=O)Cn2c(O)c3c(c2O)CC=CC3)cc1S(=O)(=O)N1CCCCC1

>  <score_type>  (24) 
oracle

>  <origin>  (24) 
adg

>  <m_score__min__energy>  (24) 
-15.26

>  <m_primary>  (24) 
energy

$$$$
24:0
     RDKit          3D

 37 38  0  0  0  0  0  0  0  0999 V2000
   59.7141   35.3108   48.1990 H   0  0  0  0  0  0  0  0  0  0  0  0
   59.3200   34.7830   47.3180 C   0  0  0  0  0  0  0  0  0  0  0  0
   59.6220   35.2450   46.0330 C   0  0  0  0  0  0  0  0  0  0  0  0
   60.2567   36.1341   45.9039 H   0  0  0  0  0  0  0  0  0  0  0  0
   59.1180   34.5780   44.9120 C   0  0  0  0  0  0  0  0  0  0  0  0
   59.3625   34.9403   43.9026 H   0  0  0  0  0  0  0  0  0  0  0  0
   58.3000   33.4460   45.0710 C   0  0  0  0  0  0  0  0  0  0  0  0
   57.7790   32.7070   43.8660 C   0  0  0  0  0  0  0  0  0  0  0  0
   58.6200   32.4621   43.2006 H   0  0  0  0  0  0  0  0  0  0  0  0
   57.0541   33.3480   43.3429 H   0  0  0  0  0  0  0  0  0  0  0  0
   57.0900   31.4340   44.2820 C   0  0  0  0  0  0  0  0  0  0  0  0
   55.9670   31.4990   44.8490 O   0  0  0  0  0  0  0  0  0  0  0  0
   57.6420   30.1440   43.9870 N   0  0  0  0  0  0  0  0  0  0  0  0
   57.3440   29.0220   44.5770 C   0  0  0  0  0  0  0  0  0  0  0  0
   57.8920   27.7740   44.3410 C   0  0  0  0  0  0  0  0  0  0  0  0
   58.6502   27.4921   43.5956 H   0  0  0  0  0  0  0  0  0  0  0  0
   57.2560   26.9630   45.2700 C   0  0  0  0  0  0  0  0  0  0  0  0
   57.4760   25.4760   45.4680 C   0  0  0  0  0  0  0  0  0  0  0  0
   57.3060   24.7320   44.1290 C   0  0  0  0  0  0  0  0  0  0  0  0
   57.0648   23.6766   44.3240 H   0  0  0  0  0  0  0  0  0  0  0  0
   56.4903   25.1943   43.5537 H   0  0  0  0  0  0  0  0  0  0  0  0
   58.2415   24.7941   43.5537 H   0  0  0  0  0  0  0  0  0  0  0  0
   58.9030   25.2360   45.9990 C   0  0  0  0  0  0  0  0  0  0  0  0
   58.8901   25.2382   47.0989 H   0  0  0  0  0  0  0  0  0  0  0  0
   59.2697   24.2636   45.6385 H   0  0  0  0  0  0  0  0  0  0  0  0
   59.5676   26.0350   45.6385 H   0  0  0  0  0  0  0  0  0  0  0  0
   56.4480   24.9370   46.4800 C   0  0  0  0  0  0  0  0  0  0  0  0
   56.8068   25.1251   47.5027 H   0  0  0  0  0  0  0  0  0  0  0  0
   55.4844   25.4459   46.3301 H   0  0  0  0  0  0  0  0  0  0  0  0
   56.3185   23.8550   46.3301 H   0  0  0  0  0  0  0  0  0  0  0  0
   56.4250   27.7010   45.9790 O   0  0  0  0  0  0  0  0  0  0  0  0
   56.4610   28.9390   45.5860 N   0  0  0  0  0  0  0  0  0  0  0  0
   55.9000   29.7160   45.9990 H   0  0  0  0  0  0  0  0  0  0  0  0
   58.0110   32.9810   46.3640 C   0  0  0  0  0  0  0  0  0  0  0  0
   57.3841   32.0870   46.4973 H   0  0  0  0  0  0  0  0  0  0  0  0
   58.5170   33.6500   47.4830 C   0  0  0  0  0  0  0  0  0  0  0  0
   58.2832   33.2847   48.4939 H   0  0  0  0  0  0  0  0  0  0  0  0
  1  2  1  0
  2  3  2  0
  3  4  1  0
  3  5  1  0
  5  6  1  0
  5  7  2  0
  7  8  1  0
  8  9  1  0
  8 10  1  0
  8 11  1  0
 11 12  2  0
 11 13  1  0
 13 14  2  0
 14 15  1  0
 15 16  1  0
 15 17  2  0
 17 18  1  0
 18 19  1  0
 19 20  1  0
 19 21  1  0
 19 22  1  0
 18 23  1  0
 23 24  1  0
 23 25  1  0
 23 26  1  0
 18 27  1  0
 27 28  1  0
 27 29  1  0
 27 30  1  0
 17 31  1  0
 31 32  1  0
 32 33  1  0
  7 34  1  0
 34 35  1  0
 34 36  2  0
 36 37  1  0
 36  2  1  0
 32 14  1  0
M  END
>  <UniqueID>  (25) 
22

>  <SMILES>  (25) 
CC(C)(C)c1c/c(=N\C(=O)Cc2ccccc2)[nH]o1

>  <Energy>  (25) 
69.61123164705093

>  <Genealogy>  (25) 
CC(C)(C)c1c/c(=N\C(=O)Cc2ccccc2)[nH]o1 (cis-trans isomerization)
CC(C)(C)c1c/c(=N\C(=O)Cc2ccccc2)[nH]o1 (3D coordinates assigned)
CC(C)(C)c1c/c(=N\C(=O)Cc2ccccc2)[nH]o1 (optimized conformer: 69.61123164705093 kcal/mol)

>  <smiles>  (25) 
CC(C)(C)c1cc(=NC(=O)Cc2ccccc2)[nH]o1

>  <score_type>  (25) 
oracle

>  <origin>  (25) 
adg

>  <m_score__min__energy>  (25) 
-7.8499999999999996

>  <m_primary>  (25) 
energy

$$$$
25:0
     RDKit          3D

 36 37  0  0  0  0  0  0  0  0999 V2000
   62.9140   33.8420   48.2810 C   0  0  0  0  0  0  0  0  0  0  0  0
   61.5740   34.2130   48.5880 O   0  0  0  0  0  0  0  0  0  0  0  0
   60.4780   34.0010   47.7390 C   0  0  0  0  0  0  0  0  0  0  0  0
   60.6260   34.2890   46.3780 C   0  0  0  0  0  0  0  0  0  0  0  0
   59.5630   34.0950   45.4910 C   0  0  0  0  0  0  0  0  0  0  0  0
   58.3280   33.6190   45.9590 C   0  0  0  0  0  0  0  0  0  0  0  0
   57.1990   33.3750   45.0010 C   0  0  0  0  0  0  0  0  0  0  0  0
   56.6660   32.0360   45.2160 N   0  0  0  0  0  0  0  0  0  0  0  0
   57.0530   30.8520   44.5050 C   0  0  0  0  0  0  0  0  0  0  0  0
   57.9910   30.9460   43.6700 O   0  0  0  0  0  0  0  0  0  0  0  0
   56.4010   29.5360   44.7290 C   0  0  0  0  0  0  0  0  0  0  0  0
   55.1480   29.4740   44.8300 O   0  0  0  0  0  0  0  0  0  0  0  0
   57.1470   28.3180   44.8540 N   0  0  0  0  0  0  0  0  0  0  0  0
   57.3180   27.5410   46.0750 C   0  0  0  0  0  0  0  0  0  0  0  0
   56.4380   26.3390   46.0200 C   0  0  0  0  0  0  0  0  0  0  0  0
   56.8940   25.0740   45.9450 N   0  0  0  0  0  0  0  0  0  0  0  0
   55.7370   24.3840   45.8840 C   0  0  0  0  0  0  0  0  0  0  0  0
   55.6650   22.8950   45.8470 C   0  0  0  0  0  0  0  0  0  0  0  0
   54.6510   25.1810   45.9330 N   0  0  0  0  0  0  0  0  0  0  0  0
   55.1280   26.3850   46.0080 O   0  0  0  0  0  0  0  0  0  0  0  0
   58.1810   33.3140   47.3210 C   0  0  0  0  0  0  0  0  0  0  0  0
   59.2450   33.5080   48.2070 C   0  0  0  0  0  0  0  0  0  0  0  0
   63.4746   33.6868   49.2146 H   0  0  0  0  0  0  0  0  0  0  0  0
   62.9117   32.9107   47.6956 H   0  0  0  0  0  0  0  0  0  0  0  0
   63.3910   34.6419   47.6956 H   0  0  0  0  0  0  0  0  0  0  0  0
   61.5867   34.6713   46.0027 H   0  0  0  0  0  0  0  0  0  0  0  0
   59.6949   34.3163   44.4216 H   0  0  0  0  0  0  0  0  0  0  0  0
   56.4058   34.1179   45.1710 H   0  0  0  0  0  0  0  0  0  0  0  0
   57.5665   33.4639   43.9680 H   0  0  0  0  0  0  0  0  0  0  0  0
   58.3676   27.2244   46.1654 H   0  0  0  0  0  0  0  0  0  0  0  0
   57.0473   28.1569   46.9453 H   0  0  0  0  0  0  0  0  0  0  0  0
   55.6461   22.5032   46.8747 H   0  0  0  0  0  0  0  0  0  0  0  0
   54.7508   22.5851   45.3195 H   0  0  0  0  0  0  0  0  0  0  0  0
   56.5450   22.4983   45.3195 H   0  0  0  0  0  0  0  0  0  0  0  0
   57.2237   32.9203   47.6933 H   0  0  0  0  0  0  0  0  0  0  0  0
   59.1183   33.2744   49.2744 H   0  0  0  0  0  0  0  0  0  0  0  0
  1  2  1  0
  2  3  1  0
  3  4  2  0
  4  5  1  0
  5  6  2  0
  6  7  1  0
  7  8  1  0
  8  9  1  0
  9 10  2  0
  9 11  1  0
 11 12  2  0
 11 13  1  0
 13 14  1  0
 14 15  1  0
 15 16  2  0
 16 17  1  0
 17 18  1  0
 17 19  2  0
 19 20  1  0
  6 21  1  0
 21 22  2  0
 22  3  1  0
 20 15  1  0
  1 23  1  0
  1 24  1  0
  1 25  1  0
  4 26  1  0
  5 27  1  0
  7 28  1  0
  7 29  1  0
 14 30  1  0
 14 31  1  0
 18 32  1  0
 18 33  1  0
 18 34  1  0
 21 35  1  0
 22 36  1  0
M  CHG  2   8  -1  13  -1
M  END
>  <UniqueID>  (26) 
23

>  <SMILES>  (26) 
COc1ccc(C[N-]C(=O)C(=O)[N-]Cc2nc(C)no2)cc1

>  <Energy>  (26) 
64.84346981163432

>  <Genealogy>  (26) 
COc1ccc(C[N-]C(=O)C(=O)[N-]Cc2nc(C)no2)cc1 (protonated)
COc1ccc(C[N-]C(=O)C(=O)[N-]Cc2nc(C)no2)cc1 (3D coordinates assigned)
COc1ccc(C[N-]C(=O)C(=O)[N-]Cc2nc(C)no2)cc1 (optimized conformer: 64.84346981163432 kcal/mol)

>  <smiles>  (26) 
COc1ccc(CNC(=O)C(=O)NCc2nc(C)no2)cc1

>  <score_type>  (26) 
oracle

>  <origin>  (26) 
adg

>  <m_score__min__energy>  (26) 
-10.789999999999999

>  <m_primary>  (26) 
energy

$$$$
26:0
     RDKit          3D

 53 54  0  0  0  0  0  0  0  0999 V2000
   56.1740   29.7640   43.4280 C   0  0  0  0  0  0  0  0  0  0  0  0
   56.6480   29.3360   44.8180 C   0  0  0  0  0  0  0  0  0  0  0  0
   57.9340   28.4980   44.7630 C   0  0  0  0  0  0  0  0  0  0  0  0
   58.5010   28.1720   46.1630 C   0  0  0  0  0  0  0  0  0  0  0  0
   57.6240   27.1830   46.9450 C   0  0  0  0  0  0  0  0  0  0  0  0
   57.1300   26.1180   46.0680 N   0  0  0  0  0  0  0  0  0  0  0  0
   55.8590   25.8900   45.6830 C   0  0  0  0  0  0  0  0  0  0  0  0
   54.7780   26.7030   46.0050 O   0  0  0  0  0  0  0  0  0  0  0  0
   55.8010   24.7220   44.9480 C   0  0  0  0  0  0  0  0  0  0  0  0
   54.5440   24.0470   44.4800 C   0  0  0  0  0  0  0  0  0  0  0  0
   53.8890   23.3540   45.6320 C   0  0  0  0  0  0  0  0  0  0  0  0
   52.8950   22.6080   45.4260 O   0  0  0  0  0  0  0  0  0  0  0  0
   54.3320   23.6390   46.9640 N   0  0  0  0  0  0  0  0  0  0  0  0
   54.8510   22.7000   47.9160 C   0  0  0  0  0  0  0  0  0  0  0  0
   54.1690   21.5160   48.2470 C   0  0  0  0  0  0  0  0  0  0  0  0
   54.7170   20.6250   49.1760 C   0  0  0  0  0  0  0  0  0  0  0  0
   55.9510   20.9010   49.7840 C   0  0  0  0  0  0  0  0  0  0  0  0
   56.5500   19.9330   50.7610 C   0  0  0  0  0  0  0  0  0  0  0  0
   56.6490   22.0670   49.4240 C   0  0  0  0  0  0  0  0  0  0  0  0
   57.8600   22.3410   49.9720 F   0  0  0  0  0  0  0  0  0  0  0  0
   56.1010   22.9540   48.4930 C   0  0  0  0  0  0  0  0  0  0  0  0
   57.0510   24.2030   44.8880 N   0  0  0  0  0  0  0  0  0  0  0  0
   57.4880   22.9680   44.2280 C   0  0  0  0  0  0  0  0  0  0  0  0
   58.0870   21.9810   45.2360 C   0  0  0  0  0  0  0  0  0  0  0  0
   57.1490   20.8070   45.5230 C   0  0  0  0  0  0  0  0  0  0  0  0
   57.7340   19.8890   46.9330 Cl  0  0  0  0  0  0  0  0  0  0  0  0
   57.8280   25.0760   45.5680 C   0  0  0  0  0  0  0  0  0  0  0  0
   59.0690   24.9260   45.7340 O   0  0  0  0  0  0  0  0  0  0  0  0
   55.3609   30.4982   43.5278 H   0  0  0  0  0  0  0  0  0  0  0  0
   57.0120   30.2174   42.8783 H   0  0  0  0  0  0  0  0  0  0  0  0
   55.8082   28.8842   42.8783 H   0  0  0  0  0  0  0  0  0  0  0  0
   56.8383   30.2369   45.4198 H   0  0  0  0  0  0  0  0  0  0  0  0
   55.8594   28.7132   45.2654 H   0  0  0  0  0  0  0  0  0  0  0  0
   57.7149   27.5529   44.2445 H   0  0  0  0  0  0  0  0  0  0  0  0
   58.6917   29.0916   44.2306 H   0  0  0  0  0  0  0  0  0  0  0  0
   59.5031   27.7344   46.0431 H   0  0  0  0  0  0  0  0  0  0  0  0
   58.5315   29.1112   46.7348 H   0  0  0  0  0  0  0  0  0  0  0  0
   58.2191   26.7360   47.7549 H   0  0  0  0  0  0  0  0  0  0  0  0
   56.7619   27.7272   47.3581 H   0  0  0  0  0  0  0  0  0  0  0  0
   53.8565   24.7994   44.0663 H   0  0  0  0  0  0  0  0  0  0  0  0
   54.7927   23.3093   43.7029 H   0  0  0  0  0  0  0  0  0  0  0  0
   53.2019   21.2896   47.7743 H   0  0  0  0  0  0  0  0  0  0  0  0
   54.1766   19.7016   49.4316 H   0  0  0  0  0  0  0  0  0  0  0  0
   56.3410   20.2708   51.7868 H   0  0  0  0  0  0  0  0  0  0  0  0
   56.1104   18.9366   50.6063 H   0  0  0  0  0  0  0  0  0  0  0  0
   57.6379   19.8818   50.6063 H   0  0  0  0  0  0  0  0  0  0  0  0
   56.6572   23.8602   48.2110 H   0  0  0  0  0  0  0  0  0  0  0  0
   56.6228   22.4984   43.7372 H   0  0  0  0  0  0  0  0  0  0  0  0
   58.2623   23.2237   43.4897 H   0  0  0  0  0  0  0  0  0  0  0  0
   59.0310   21.5890   44.8297 H   0  0  0  0  0  0  0  0  0  0  0  0
   58.2509   22.5208   46.1803 H   0  0  0  0  0  0  0  0  0  0  0  0
   56.1392   21.1903   45.7315 H   0  0  0  0  0  0  0  0  0  0  0  0
   57.1230   20.1434   44.6461 H   0  0  0  0  0  0  0  0  0  0  0  0
  1  2  1  0
  2  3  1  0
  3  4  1  0
  4  5  1  0
  5  6  1  0
  6  7  1  0
  7  8  1  0
  7  9  2  0
  9 10  1  0
 10 11  1  0
 11 12  2  0
 11 13  1  0
 13 14  1  0
 14 15  2  0
 15 16  1  0
 16 17  2  0
 17 18  1  0
 17 19  1  0
 19 20  1  0
 19 21  2  0
  9 22  1  0
 22 23  1  0
 23 24  1  0
 24 25  1  0
 25 26  1  0
 22 27  1  0
 27 28  2  0
 27  6  1  0
 21 14  1  0
  1 29  1  0
  1 30  1  0
  1 31  1  0
  2 32  1  0
  2 33  1  0
  3 34  1  0
  3 35  1  0
  4 36  1  0
  4 37  1  0
  5 38  1  0
  5 39  1  0
 10 40  1  0
 10 41  1  0
 15 42  1  0
 16 43  1  0
 18 44  1  0
 18 45  1  0
 18 46  1  0
 21 47  1  0
 23 48  1  0
 23 49  1  0
 24 50  1  0
 24 51  1  0
 25 52  1  0
 25 53  1  0
M  CHG  2   8  -1  13  -1
M  END
>  <UniqueID>  (27) 
24

>  <SMILES>  (27) 
CCCCCn1c([O-])c(CC(=O)[N-]c2ccc(C)c(F)c2)n(CCCCl)c1=O

>  <Energy>  (27) 
73.9148072233904

>  <Genealogy>  (27) 
CCCCCn1c([O-])c(CC(=O)[N-]c2ccc(C)c(F)c2)n(CCCCl)c1=O (protonated)
CCCCCn1c([O-])c(CC(=O)[N-]c2ccc(C)c(F)c2)n(CCCCl)c1=O (3D coordinates assigned)
CCCCCn1c([O-])c(CC(=O)[N-]c2ccc(C)c(F)c2)n(CCCCl)c1=O (optimized conformer: 73.9148072233904 kcal/mol)

>  <smiles>  (27) 
CCCCCn1c(O)c(CC(=O)Nc2ccc(C)c(F)c2)n(CCCCl)c1=O

>  <score_type>  (27) 
oracle

>  <origin>  (27) 
adg

>  <m_score__min__energy>  (27) 
-12.699999999999999

>  <m_primary>  (27) 
energy

$$$$
27:0
     RDKit          3D

 71 75  0  0  0  0  0  0  0  0999 V2000
   59.9100   35.7240   46.2660 C   0  0  0  0  0  0  0  0  0  0  0  0
   59.9800   34.3260   46.8250 C   0  0  0  0  0  0  0  0  0  0  0  0
   61.2320   33.7840   47.1550 C   0  0  0  0  0  0  0  0  0  0  0  0
   61.3370   32.4920   47.6670 C   0  0  0  0  0  0  0  0  0  0  0  0
   60.1920   31.7040   47.8510 C   0  0  0  0  0  0  0  0  0  0  0  0
   60.3010   30.2950   48.4000 C   0  0  0  0  0  0  0  0  0  0  0  0
   59.7370   29.2590   47.5040 N   0  0  0  0  0  0  0  0  0  0  0  0
   59.3560   27.9960   48.1830 C   0  0  0  0  0  0  0  0  0  0  0  0
   60.2790   26.8250   47.8150 C   0  0  0  0  0  0  0  0  0  0  0  0
   60.3230   26.5810   46.2870 C   0  0  0  0  0  0  0  0  0  0  0  0
   59.4180   25.4940   45.8880 N   0  0  0  0  0  0  0  0  0  0  0  0
   59.8060   24.1030   45.6200 C   0  0  0  0  0  0  0  0  0  0  0  0
   58.4940   23.3820   45.5340 C   0  0  0  0  0  0  0  0  0  0  0  0
   58.2950   22.0200   45.3150 C   0  0  0  0  0  0  0  0  0  0  0  0
   56.9840   21.5250   45.3130 C   0  0  0  0  0  0  0  0  0  0  0  0
   55.8950   22.3890   45.5280 C   0  0  0  0  0  0  0  0  0  0  0  0
   56.0970   23.7680   45.7480 C   0  0  0  0  0  0  0  0  0  0  0  0
   54.9370   24.6670   45.9330 C   0  0  0  0  0  0  0  0  0  0  0  0
   55.0520   26.0690   45.6790 N   0  0  0  0  0  0  0  0  0  0  0  0
   53.8410   24.2050   46.3460 O   0  0  0  0  0  0  0  0  0  0  0  0
   57.4270   24.2340   45.7470 C   0  0  0  0  0  0  0  0  0  0  0  0
   57.9970   25.5440   46.0050 C   0  0  0  0  0  0  0  0  0  0  0  0
   57.3580   26.5740   46.3480 O   0  0  0  0  0  0  0  0  0  0  0  0
   60.0200   27.8580   45.4720 C   0  0  0  0  0  0  0  0  0  0  0  0
   60.4850   29.1010   46.2340 C   0  0  0  0  0  0  0  0  0  0  0  0
   58.9340   32.2490   47.5510 C   0  0  0  0  0  0  0  0  0  0  0  0
   58.8120   33.5490   47.0290 C   0  0  0  0  0  0  0  0  0  0  0  0
   57.4330   34.0910   46.7310 C   0  0  0  0  0  0  0  0  0  0  0  0
   57.0770   33.8500   45.3380 N   0  0  0  0  0  0  0  0  0  0  0  0
   57.8690   33.0750   44.4320 C   0  0  0  0  0  0  0  0  0  0  0  0
   58.9040   33.5810   43.9170 O   0  0  0  0  0  0  0  0  0  0  0  0
   57.5180   31.6630   44.1380 C   0  0  0  0  0  0  0  0  0  0  0  0
   57.4790   30.7510   45.2100 C   0  0  0  0  0  0  0  0  0  0  0  0
   57.1110   29.4200   45.0040 C   0  0  0  0  0  0  0  0  0  0  0  0
   56.7790   28.9760   43.7260 C   0  0  0  0  0  0  0  0  0  0  0  0
   56.8260   29.8580   42.6450 C   0  0  0  0  0  0  0  0  0  0  0  0
   57.2090   31.2000   42.8290 C   0  0  0  0  0  0  0  0  0  0  0  0
   57.2830   32.0940   41.6180 C   0  0  0  0  0  0  0  0  0  0  0  0
   59.8737   36.4482   47.0931 H   0  0  0  0  0  0  0  0  0  0  0  0
   60.7996   35.9169   45.6484 H   0  0  0  0  0  0  0  0  0  0  0  0
   59.0056   35.8271   45.6484 H   0  0  0  0  0  0  0  0  0  0  0  0
   62.1408   34.3859   47.0078 H   0  0  0  0  0  0  0  0  0  0  0  0
   62.3258   32.0874   47.9288 H   0  0  0  0  0  0  0  0  0  0  0  0
   61.3646   30.0686   48.5656 H   0  0  0  0  0  0  0  0  0  0  0  0
   59.7149   30.2675   49.3304 H   0  0  0  0  0  0  0  0  0  0  0  0
   59.4029   28.1530   49.2707 H   0  0  0  0  0  0  0  0  0  0  0  0
   58.3395   27.7347   47.8538 H   0  0  0  0  0  0  0  0  0  0  0  0
   61.2962   27.0496   48.1684 H   0  0  0  0  0  0  0  0  0  0  0  0
   59.8837   25.9168   48.2934 H   0  0  0  0  0  0  0  0  0  0  0  0
   61.3556   26.2805   46.0559 H   0  0  0  0  0  0  0  0  0  0  0  0
   60.3599   24.0252   44.6728 H   0  0  0  0  0  0  0  0  0  0  0  0
   60.4720   23.6886   46.3912 H   0  0  0  0  0  0  0  0  0  0  0  0
   59.1493   21.3476   45.1472 H   0  0  0  0  0  0  0  0  0  0  0  0
   56.8052   20.4532   45.1421 H   0  0  0  0  0  0  0  0  0  0  0  0
   54.8722   21.9842   45.5246 H   0  0  0  0  0  0  0  0  0  0  0  0
   55.9160   26.4720   45.2560 H   0  0  0  0  0  0  0  0  0  0  0  0
   54.2420   26.7010   45.8640 H   0  0  0  0  0  0  0  0  0  0  0  0
   60.5469   27.8059   44.5078 H   0  0  0  0  0  0  0  0  0  0  0  0
   58.9346   27.9264   45.3069 H   0  0  0  0  0  0  0  0  0  0  0  0
   61.5576   29.0046   46.4583 H   0  0  0  0  0  0  0  0  0  0  0  0
   60.2993   29.9853   45.6067 H   0  0  0  0  0  0  0  0  0  0  0  0
   58.0287   31.6495   47.7271 H   0  0  0  0  0  0  0  0  0  0  0  0
   56.7002   33.5929   47.3828 H   0  0  0  0  0  0  0  0  0  0  0  0
   57.4308   35.1755   46.9151 H   0  0  0  0  0  0  0  0  0  0  0  0
   57.7417   31.0914   46.2225 H   0  0  0  0  0  0  0  0  0  0  0  0
   57.0832   28.7206   45.8525 H   0  0  0  0  0  0  0  0  0  0  0  0
   56.4795   27.9293   43.5685 H   0  0  0  0  0  0  0  0  0  0  0  0
   56.5610   29.5006   41.6390 H   0  0  0  0  0  0  0  0  0  0  0  0
   57.3698   33.1420   41.9407 H   0  0  0  0  0  0  0  0  0  0  0  0
   58.1617   31.8222   41.0147 H   0  0  0  0  0  0  0  0  0  0  0  0
   56.3715   31.9703   41.0147 H   0  0  0  0  0  0  0  0  0  0  0  0
  1  2  1  0
  2  3  2  0
  3  4  1  0
  4  5  2  0
  5  6  1  0
  6  7  1  0
  7  8  1  0
  8  9  1  0
  9 10  1  0
 10 11  1  0
 11 12  1  0
 12 13  1  0
 13 14  2  0
 14 15  1  0
 15 16  2  0
 16 17  1  0
 17 18  1  0
 18 19  1  0
 18 20  2  0
 17 21  2  0
 21 22  1  0
 22 23  2  0
 10 24  1  0
 24 25  1  0
  5 26  1  0
 26 27  2  0
 27 28  1  0
 28 29  1  0
 29 30  1  0
 30 31  2  0
 30 32  1  0
 32 33  2  0
 33 34  1  0
 34 35  2  0
 35 36  1  0
 36 37  2  0
 37 38  1  0
 27  2  1  0
 37 32  1  0
 25  7  1  0
 22 11  1  0
 21 13  1  0
  1 39  1  0
  1 40  1  0
  1 41  1  0
  3 42  1  0
  4 43  1  0
  6 44  1  0
  6 45  1  0
  8 46  1  0
  8 47  1  0
  9 48  1  0
  9 49  1  0
 10 50  1  0
 12 51  1  0
 12 52  1  0
 14 53  1  0
 15 54  1  0
 16 55  1  0
 19 56  1  0
 19 57  1  0
 24 58  1  0
 24 59  1  0
 25 60  1  0
 25 61  1  0
 26 62  1  0
 28 63  1  0
 28 64  1  0
 33 65  1  0
 34 66  1  0
 35 67  1  0
 36 68  1  0
 38 69  1  0
 38 70  1  0
 38 71  1  0
M  CHG  1  29  -1
M  END
>  <UniqueID>  (28) 
25

>  <SMILES>  (28) 
Cc1ccc(CN2CCC(N3Cc4cccc(C(N)=O)c4C3=O)CC2)cc1C[N-]C(=O)c1ccccc1C

>  <Energy>  (28) 
113.77113827522538

>  <Genealogy>  (28) 
Cc1ccc(CN2CCC(N3Cc4cccc(C(N)=O)c4C3=O)CC2)cc1C[N-]C(=O)c1ccccc1C (protonated)
Cc1ccc(CN2CCC(N3Cc4cccc(C(N)=O)c4C3=O)CC2)cc1C[N-]C(=O)c1ccccc1C (3D coordinates assigned)
Cc1ccc(CN2CCC(N3Cc4cccc(C(N)=O)c4C3=O)CC2)cc1C[N-]C(=O)c1ccccc1C (nonaromatic ring conformer: 113.77113827522538 kcal/mol)

>  <smiles>  (28) 
Cc1ccc(CN2CCC(N3Cc4cccc(C(N)=O)c4C3=O)CC2)cc1CNC(=O)c1ccccc1C

>  <score_type>  (28) 
oracle

>  <origin>  (28) 
adg

>  <m_score__min__energy>  (28) 
-11.960000000000001

>  <m_primary>  (28) 
energy

$$$$
28:0
     RDKit          3D

 43 45  0  0  0  0  0  0  0  0999 V2000
   54.3790   22.7207   45.1103 H   0  0  0  0  0  0  0  0  0  0  0  0
   55.1130   23.5400   45.1090 C   0  0  0  0  0  0  0  0  0  0  0  0
   55.0020   24.5530   46.0080 N   0  0  0  0  0  0  0  0  0  0  0  0
   55.8900   25.5820   46.0420 C   0  0  0  0  0  0  0  0  0  0  0  0
   55.7700   26.3841   46.7851 H   0  0  0  0  0  0  0  0  0  0  0  0
   56.9620   25.6260   45.1310 C   0  0  0  0  0  0  0  0  0  0  0  0
   57.9360   26.7450   45.1600 C   0  0  0  0  0  0  0  0  0  0  0  0
   59.2160   26.6340   45.7110 C   0  0  0  0  0  0  0  0  0  0  0  0
   59.6429   25.7318   46.1734 H   0  0  0  0  0  0  0  0  0  0  0  0
   59.9910   28.1180   45.5450 S   0  0  0  0  0  0  0  0  0  0  0  0
   58.6820   28.8440   44.7710 C   0  0  0  0  0  0  0  0  0  0  0  0
   58.5920   30.0870   44.3950 N   0  0  0  0  0  0  0  0  0  0  0  0
   57.4030   30.8740   44.2340 C   0  0  0  0  0  0  0  0  0  0  0  0
   56.2940   30.3460   44.5140 O   0  0  0  0  0  0  0  0  0  0  0  0
   57.4160   32.2070   43.5290 C   0  0  0  0  0  0  0  0  0  0  0  0
   58.3092   32.2525   42.8886 H   0  0  0  0  0  0  0  0  0  0  0  0
   56.4820   32.2746   42.9518 H   0  0  0  0  0  0  0  0  0  0  0  0
   57.4420   33.4140   44.4870 C   0  0  0  0  0  0  0  0  0  0  0  0
   57.5922   34.3256   43.8900 H   0  0  0  0  0  0  0  0  0  0  0  0
   56.4829   33.4120   45.0257 H   0  0  0  0  0  0  0  0  0  0  0  0
   58.5580   33.3460   45.5610 C   0  0  0  0  0  0  0  0  0  0  0  0
   59.2422   32.5361   45.2679 H   0  0  0  0  0  0  0  0  0  0  0  0
   59.3390   34.6740   45.6140 C   0  0  0  0  0  0  0  0  0  0  0  0
   59.6993   34.9157   44.6032 H   0  0  0  0  0  0  0  0  0  0  0  0
   58.6609   35.4546   45.9893 H   0  0  0  0  0  0  0  0  0  0  0  0
   60.5490   34.5900   46.5690 C   0  0  0  0  0  0  0  0  0  0  0  0
   61.4302   34.2802   45.9881 H   0  0  0  0  0  0  0  0  0  0  0  0
   60.6754   35.5855   47.0196 H   0  0  0  0  0  0  0  0  0  0  0  0
   60.3510   33.5910   47.7250 C   0  0  0  0  0  0  0  0  0  0  0  0
   60.7015   32.5988   47.4046 H   0  0  0  0  0  0  0  0  0  0  0  0
   60.9263   33.9467   48.5925 H   0  0  0  0  0  0  0  0  0  0  0  0
   58.8790   33.4920   48.1310 C   0  0  0  0  0  0  0  0  0  0  0  0
   58.7882   32.7882   48.9715 H   0  0  0  0  0  0  0  0  0  0  0  0
   58.5354   34.4970   48.4173 H   0  0  0  0  0  0  0  0  0  0  0  0
   57.9950   32.9970   46.9680 C   0  0  0  0  0  0  0  0  0  0  0  0
   57.9026   31.9035   47.0434 H   0  0  0  0  0  0  0  0  0  0  0  0
   57.0255   33.5082   47.0616 H   0  0  0  0  0  0  0  0  0  0  0  0
   57.6530   27.9790   44.6480 N   0  0  0  0  0  0  0  0  0  0  0  0
   56.7350   28.2470   44.2310 H   0  0  0  0  0  0  0  0  0  0  0  0
   57.0820   24.5840   44.1960 C   0  0  0  0  0  0  0  0  0  0  0  0
   57.9082   24.5920   43.4699 H   0  0  0  0  0  0  0  0  0  0  0  0
   56.1570   23.5390   44.1850 C   0  0  0  0  0  0  0  0  0  0  0  0
   56.2508   22.7222   43.4542 H   0  0  0  0  0  0  0  0  0  0  0  0
  1  2  1  0
  2  3  2  0
  3  4  1  0
  4  5  1  0
  4  6  2  0
  6  7  1  0
  7  8  2  0
  8  9  1  0
  8 10  1  0
 10 11  1  0
 11 12  2  0
 12 13  1  0
 13 14  2  0
 13 15  1  0
 15 16  1  0
 15 17  1  0
 15 18  1  0
 18 19  1  0
 18 20  1  0
 18 21  1  0
 21 22  1  0
 21 23  1  0
 23 24  1  0
 23 25  1  0
 23 26  1  0
 26 27  1  0
 26 28  1  0
 26 29  1  0
 29 30  1  0
 29 31  1  0
 29 32  1  0
 32 33  1  0
 32 34  1  0
 32 35  1  0
 35 36  1  0
 35 37  1  0
 11 38  1  0
 38 39  1  0
  6 40  1  0
 40 41  1  0
 40 42  2  0
 42 43  1  0
 42  2  1  0
 38  7  1  0
 35 21  1  0
M  END
>  <UniqueID>  (29) 
26

>  <SMILES>  (29) 
O=C(CCC1CCCCC1)/N=c1/[nH]c(-c2cccnc2)cs1

>  <Energy>  (29) 
84.93456975119435

>  <Genealogy>  (29) 
O=C(CCC1CCCCC1)/N=c1/[nH]c(-c2cccnc2)cs1 (cis-trans isomerization)
O=C(CCC1CCCCC1)/N=c1/[nH]c(-c2cccnc2)cs1 (3D coordinates assigned)
O=C(CCC1CCCCC1)/N=c1/[nH]c(-c2cccnc2)cs1 (nonaromatic ring conformer: 84.93456975119435 kcal/mol)

>  <smiles>  (29) 
O=C(CCC1CCCCC1)N=c1[nH]c(-c2cccnc2)cs1

>  <score_type>  (29) 
oracle

>  <origin>  (29) 
adg

>  <m_score__min__energy>  (29) 
-8.9399999999999995

>  <m_primary>  (29) 
energy

$$$$
29:0
     RDKit          3D

 48 50  0  0  0  0  0  0  0  0999 V2000
   59.6750   26.7740   47.7240 C   0  0  0  0  0  0  0  0  0  0  0  0
   58.9490   27.7020   46.7860 C   0  0  0  0  0  0  0  0  0  0  0  0
   59.4960   28.9720   46.5400 C   0  0  0  0  0  0  0  0  0  0  0  0
   58.8400   29.8800   45.7060 C   0  0  0  0  0  0  0  0  0  0  0  0
   57.6330   29.5290   45.0950 C   0  0  0  0  0  0  0  0  0  0  0  0
   56.7940   30.6850   44.0610 S   0  0  0  0  0  0  0  0  0  0  0  0
   55.3570   30.8030   44.4870 O   0  0  0  0  0  0  0  0  0  0  0  0
   56.8270   30.1940   42.6420 O   0  0  0  0  0  0  0  0  0  0  0  0
   57.5580   32.2440   44.1380 N   0  0  0  0  0  0  0  0  0  0  0  0
   57.0010   33.0170   45.2440 C   0  0  0  0  0  0  0  0  0  0  0  0
   58.1210   33.5280   46.1040 C   0  0  0  0  0  0  0  0  0  0  0  0
   58.2780   33.0620   47.4200 C   0  0  0  0  0  0  0  0  0  0  0  0
   59.3050   33.5620   48.2260 C   0  0  0  0  0  0  0  0  0  0  0  0
   60.1750   34.5370   47.7290 C   0  0  0  0  0  0  0  0  0  0  0  0
   60.0170   35.0160   46.4250 C   0  0  0  0  0  0  0  0  0  0  0  0
   58.9910   34.5170   45.6150 C   0  0  0  0  0  0  0  0  0  0  0  0
   57.0840   28.2620   45.3230 C   0  0  0  0  0  0  0  0  0  0  0  0
   57.7400   27.3330   46.1470 C   0  0  0  0  0  0  0  0  0  0  0  0
   57.1250   26.0030   46.3270 C   0  0  0  0  0  0  0  0  0  0  0  0
   55.8690   25.9110   46.4090 O   0  0  0  0  0  0  0  0  0  0  0  0
   57.9370   24.8200   46.3530 N   0  0  0  0  0  0  0  0  0  0  0  0
   57.3690   23.4840   46.5090 C   0  0  0  0  0  0  0  0  0  0  0  0
   57.0940   22.8780   45.1640 C   0  0  0  0  0  0  0  0  0  0  0  0
   57.6820   21.6590   44.7960 C   0  0  0  0  0  0  0  0  0  0  0  0
   57.4380   21.1360   43.5250 C   0  0  0  0  0  0  0  0  0  0  0  0
   56.6180   21.8310   42.6330 C   0  0  0  0  0  0  0  0  0  0  0  0
   56.0510   23.0440   43.0310 C   0  0  0  0  0  0  0  0  0  0  0  0
   56.3020   23.5370   44.2740 N   0  0  0  0  0  0  0  0  0  0  0  0
   59.4537   27.0568   48.7637 H   0  0  0  0  0  0  0  0  0  0  0  0
   59.3434   25.7403   47.5467 H   0  0  0  0  0  0  0  0  0  0  0  0
   60.7582   26.8471   47.5467 H   0  0  0  0  0  0  0  0  0  0  0  0
   60.4503   29.2542   47.0087 H   0  0  0  0  0  0  0  0  0  0  0  0
   59.2748   30.8749   45.5294 H   0  0  0  0  0  0  0  0  0  0  0  0
   56.4259   33.8662   44.8462 H   0  0  0  0  0  0  0  0  0  0  0  0
   56.3372   32.3772   45.8441 H   0  0  0  0  0  0  0  0  0  0  0  0
   57.5904   32.3010   47.8176 H   0  0  0  0  0  0  0  0  0  0  0  0
   59.4288   33.1877   49.2529 H   0  0  0  0  0  0  0  0  0  0  0  0
   60.9840   34.9273   48.3640 H   0  0  0  0  0  0  0  0  0  0  0  0
   60.6997   35.7856   46.0356 H   0  0  0  0  0  0  0  0  0  0  0  0
   58.8651   34.9004   44.5917 H   0  0  0  0  0  0  0  0  0  0  0  0
   56.1279   27.9907   44.8515 H   0  0  0  0  0  0  0  0  0  0  0  0
   58.9670   24.9050   46.2040 H   0  0  0  0  0  0  0  0  0  0  0  0
   58.0809   22.8480   47.0555 H   0  0  0  0  0  0  0  0  0  0  0  0
   56.4253   23.5582   47.0692 H   0  0  0  0  0  0  0  0  0  0  0  0
   58.3298   21.1198   45.5028 H   0  0  0  0  0  0  0  0  0  0  0  0
   57.8904   20.1788   43.2266 H   0  0  0  0  0  0  0  0  0  0  0  0
   56.4210   21.4278   41.6287 H   0  0  0  0  0  0  0  0  0  0  0  0
   55.4015   23.6007   42.3394 H   0  0  0  0  0  0  0  0  0  0  0  0
  1  2  1  0
  2  3  2  0
  3  4  1  0
  4  5  2  0
  5  6  1  0
  6  7  2  0
  6  8  2  0
  6  9  1  0
  9 10  1  0
 10 11  1  0
 11 12  2  0
 12 13  1  0
 13 14  2  0
 14 15  1  0
 15 16  2  0
  5 17  1  0
 17 18  2  0
 18 19  1  0
 19 20  2  0
 19 21  1  0
 21 22  1  0
 22 23  1  0
 23 24  2  0
 24 25  1  0
 25 26  2  0
 26 27  1  0
 27 28  2  0
 18  2  1  0
 28 23  1  0
 16 11  1  0
  1 29  1  0
  1 30  1  0
  1 31  1  0
  3 32  1  0
  4 33  1  0
 10 34  1  0
 10 35  1  0
 12 36  1  0
 13 37  1  0
 14 38  1  0
 15 39  1  0
 16 40  1  0
 17 41  1  0
 21 42  1  0
 22 43  1  0
 22 44  1  0
 24 45  1  0
 25 46  1  0
 26 47  1  0
 27 48  1  0
M  CHG  1   9  -1
M  END
>  <UniqueID>  (30) 
27

>  <SMILES>  (30) 
Cc1ccc(S(=O)(=O)[N-]Cc2ccccc2)cc1C(=O)NCc1ccccn1

>  <Energy>  (30) 
51.73299168720809

>  <Genealogy>  (30) 
Cc1ccc(S(=O)(=O)[N-]Cc2ccccc2)cc1C(=O)NCc1ccccn1 (protonated)
Cc1ccc(S(=O)(=O)[N-]Cc2ccccc2)cc1C(=O)NCc1ccccn1 (3D coordinates assigned)
Cc1ccc(S(=O)(=O)[N-]Cc2ccccc2)cc1C(=O)NCc1ccccn1 (optimized conformer: 51.73299168720809 kcal/mol)

>  <smiles>  (30) 
Cc1ccc(S(=O)(=O)NCc2ccccc2)cc1C(=O)NCc1ccccn1

>  <score_type>  (30) 
oracle

>  <origin>  (30) 
adg

>  <m_score__min__energy>  (30) 
-10.67

>  <m_primary>  (30) 
energy

$$$$
30:0
     RDKit          3D

 50 54  0  0  0  0  0  0  0  0999 V2000
   50.7240   23.0350   46.7600 C   0  0  0  0  0  0  0  0  0  0  0  0
   52.1860   22.8570   45.7580 S   0  0  0  0  0  0  0  0  0  0  0  0
   51.9300   23.3390   44.3590 O   0  0  0  0  0  0  0  0  0  0  0  0
   52.5430   21.3990   45.7120 O   0  0  0  0  0  0  0  0  0  0  0  0
   53.5120   23.7280   46.4620 N   0  0  0  0  0  0  0  0  0  0  0  0
   54.8150   23.9080   45.8860 C   0  0  0  0  0  0  0  0  0  0  0  0
   55.5360   22.7610   45.5360 C   0  0  0  0  0  0  0  0  0  0  0  0
   56.8160   22.8650   44.9920 C   0  0  0  0  0  0  0  0  0  0  0  0
   57.3840   24.1200   44.7730 C   0  0  0  0  0  0  0  0  0  0  0  0
   56.6610   25.2890   45.0680 C   0  0  0  0  0  0  0  0  0  0  0  0
   57.2410   26.5880   44.8500 N   0  0  0  0  0  0  0  0  0  0  0  0
   57.9240   27.3330   45.8720 C   0  0  0  0  0  0  0  0  0  0  0  0
   58.3930   26.7300   46.8770 O   0  0  0  0  0  0  0  0  0  0  0  0
   58.1280   28.7960   45.7390 C   0  0  0  0  0  0  0  0  0  0  0  0
   57.9370   29.4270   44.4790 C   0  0  0  0  0  0  0  0  0  0  0  0
   58.1330   30.8110   44.3220 C   0  0  0  0  0  0  0  0  0  0  0  0
   58.5220   31.5400   45.4400 C   0  0  0  0  0  0  0  0  0  0  0  0
   58.8210   32.8790   45.6030 C   0  0  0  0  0  0  0  0  0  0  0  0
   58.8450   33.9670   44.7310 C   0  0  0  0  0  0  0  0  0  0  0  0
   59.2570   35.2130   45.2540 C   0  0  0  0  0  0  0  0  0  0  0  0
   59.6360   35.3390   46.6150 C   0  0  0  0  0  0  0  0  0  0  0  0
   59.5860   34.2180   47.4690 C   0  0  0  0  0  0  0  0  0  0  0  0
   59.1820   33.0150   46.9180 C   0  0  0  0  0  0  0  0  0  0  0  0
   59.1090   31.8560   47.5910 N   0  0  0  0  0  0  0  0  0  0  0  0
   58.7180   30.9410   46.6720 C   0  0  0  0  0  0  0  0  0  0  0  0
   58.5370   29.5710   46.8520 C   0  0  0  0  0  0  0  0  0  0  0  0
   59.5200   31.7030   48.9870 C   0  0  0  0  0  0  0  0  0  0  0  0
   59.4200   33.0650   49.7170 C   0  0  0  0  0  0  0  0  0  0  0  0
   60.0510   34.2280   48.9050 C   0  0  0  0  0  0  0  0  0  0  0  0
   55.3710   25.1810   45.6250 C   0  0  0  0  0  0  0  0  0  0  0  0
   54.6420   26.3380   45.8690 O   0  0  0  0  0  0  0  0  0  0  0  0
   51.0022   23.0011   47.8237 H   0  0  0  0  0  0  0  0  0  0  0  0
   50.2421   23.9985   46.5375 H   0  0  0  0  0  0  0  0  0  0  0  0
   50.0250   22.2153   46.5375 H   0  0  0  0  0  0  0  0  0  0  0  0
   55.0891   21.7680   45.6914 H   0  0  0  0  0  0  0  0  0  0  0  0
   57.3788   21.9554   44.7351 H   0  0  0  0  0  0  0  0  0  0  0  0
   58.4036   24.1955   44.3671 H   0  0  0  0  0  0  0  0  0  0  0  0
   57.2550   26.9650   43.8750 H   0  0  0  0  0  0  0  0  0  0  0  0
   57.6308   28.8225   43.6125 H   0  0  0  0  0  0  0  0  0  0  0  0
   57.9836   31.2998   43.3479 H   0  0  0  0  0  0  0  0  0  0  0  0
   58.5541   33.8591   43.6757 H   0  0  0  0  0  0  0  0  0  0  0  0
   59.2842   36.0957   44.5982 H   0  0  0  0  0  0  0  0  0  0  0  0
   59.9693   36.3122   47.0047 H   0  0  0  0  0  0  0  0  0  0  0  0
   58.7073   29.1035   47.8330 H   0  0  0  0  0  0  0  0  0  0  0  0
   58.8626   30.9739   49.4832 H   0  0  0  0  0  0  0  0  0  0  0  0
   60.5607   31.3485   49.0218 H   0  0  0  0  0  0  0  0  0  0  0  0
   58.3583   33.2934   49.8918 H   0  0  0  0  0  0  0  0  0  0  0  0
   59.9782   32.9777   50.6608 H   0  0  0  0  0  0  0  0  0  0  0  0
   59.7628   35.1837   49.3671 H   0  0  0  0  0  0  0  0  0  0  0  0
   61.1437   34.1015   48.9142 H   0  0  0  0  0  0  0  0  0  0  0  0
  1  2  1  0
  2  3  2  0
  2  4  2  0
  2  5  1  0
  5  6  1  0
  6  7  2  0
  7  8  1  0
  8  9  2  0
  9 10  1  0
 10 11  1  0
 11 12  1  0
 12 13  2  0
 12 14  1  0
 14 15  2  0
 15 16  1  0
 16 17  2  0
 17 18  1  0
 18 19  2  0
 19 20  1  0
 20 21  2  0
 21 22  1  0
 22 23  2  0
 23 24  1  0
 24 25  1  0
 25 26  2  0
 24 27  1  0
 27 28  1  0
 28 29  1  0
 10 30  2  0
 30 31  1  0
 30  6  1  0
 26 14  1  0
 25 17  1  0
 23 18  1  0
 29 22  1  0
  1 32  1  0
  1 33  1  0
  1 34  1  0
  7 35  1  0
  8 36  1  0
  9 37  1  0
 11 38  1  0
 15 39  1  0
 16 40  1  0
 19 41  1  0
 20 42  1  0
 21 43  1  0
 26 44  1  0
 27 45  1  0
 27 46  1  0
 28 47  1  0
 28 48  1  0
 29 49  1  0
 29 50  1  0
M  CHG  2   5  -1  31  -1
M  END
>  <UniqueID>  (31) 
28

>  <SMILES>  (31) 
CS(=O)(=O)[N-]c1cccc(NC(=O)c2ccc3c4cccc5c4n(c3c2)CCC5)c1[O-]

>  <Energy>  (31) 
109.5562005377832

>  <Genealogy>  (31) 
CS(=O)(=O)[N-]c1cccc(NC(=O)c2ccc3c4cccc5c4n(c3c2)CCC5)c1[O-] (protonated)
CS(=O)(=O)[N-]c1cccc(NC(=O)c2ccc3c4cccc5c4n(c3c2)CCC5)c1[O-] (3D coordinates assigned)
CS(=O)(=O)[N-]c1cccc(NC(=O)c2ccc3c4cccc5c4n(c3c2)CCC5)c1[O-] (nonaromatic ring conformer: 109.5562005377832 kcal/mol)

>  <smiles>  (31) 
CS(=O)(=O)Nc1cccc(NC(=O)c2ccc3c4cccc5c4n(c3c2)CCC5)c1O

>  <score_type>  (31) 
oracle

>  <origin>  (31) 
adg

>  <m_score__min__energy>  (31) 
-15.65

>  <m_primary>  (31) 
energy

$$$$
31:0
     RDKit          3D

 44 46  0  0  0  0  0  0  0  0999 V2000
   57.5390   22.9720   44.2380 C   0  0  0  0  0  0  0  0  0  0  0  0
   56.3210   23.6940   44.7320 C   0  0  0  0  0  0  0  0  0  0  0  0
   55.1250   23.0520   44.6420 N   0  0  0  0  0  0  0  0  0  0  0  0
   53.9750   23.6240   45.0750 C   0  0  0  0  0  0  0  0  0  0  0  0
   52.8860   23.0040   44.9740 O   0  0  0  0  0  0  0  0  0  0  0  0
   54.0010   24.8620   45.6250 N   0  0  0  0  0  0  0  0  0  0  0  0
   55.1610   25.5560   45.7380 C   0  0  0  0  0  0  0  0  0  0  0  0
   55.1400   26.7000   46.2660 O   0  0  0  0  0  0  0  0  0  0  0  0
   56.3690   25.0010   45.2730 C   0  0  0  0  0  0  0  0  0  0  0  0
   57.8650   25.9590   45.3950 S   0  0  0  0  0  0  0  0  0  0  0  0
   58.9650   25.0600   45.8860 O   0  0  0  0  0  0  0  0  0  0  0  0
   58.2830   26.5620   44.0840 O   0  0  0  0  0  0  0  0  0  0  0  0
   57.6310   27.2480   46.5340 N   0  0  0  0  0  0  0  0  0  0  0  0
   58.6010   28.2830   46.7640 C   0  0  0  0  0  0  0  0  0  0  0  0
   59.0370   29.1320   45.7290 C   0  0  0  0  0  0  0  0  0  0  0  0
   59.9590   30.1480   45.9870 C   0  0  0  0  0  0  0  0  0  0  0  0
   60.4560   30.3390   47.2840 C   0  0  0  0  0  0  0  0  0  0  0  0
   61.4030   31.4320   47.5720 C   0  0  0  0  0  0  0  0  0  0  0  0
   62.5770   31.3580   47.1250 O   0  0  0  0  0  0  0  0  0  0  0  0
   61.0370   32.5630   48.3750 N   0  0  0  0  0  0  0  0  0  0  0  0
   59.6740   33.0470   48.5890 C   0  0  0  0  0  0  0  0  0  0  0  0
   59.0500   33.4770   47.2870 C   0  0  0  0  0  0  0  0  0  0  0  0
   57.7970   32.9680   46.9070 C   0  0  0  0  0  0  0  0  0  0  0  0
   57.2240   33.3450   45.6880 C   0  0  0  0  0  0  0  0  0  0  0  0
   57.8960   34.2320   44.8430 C   0  0  0  0  0  0  0  0  0  0  0  0
   59.1400   34.7460   45.2160 C   0  0  0  0  0  0  0  0  0  0  0  0
   59.7170   34.3740   46.4350 C   0  0  0  0  0  0  0  0  0  0  0  0
   60.0560   29.4710   48.3090 C   0  0  0  0  0  0  0  0  0  0  0  0
   59.1330   28.4540   48.0510 C   0  0  0  0  0  0  0  0  0  0  0  0
   58.1307   22.6213   45.0964 H   0  0  0  0  0  0  0  0  0  0  0  0
   57.2319   22.1100   43.6276 H   0  0  0  0  0  0  0  0  0  0  0  0
   58.1479   23.6552   43.6276 H   0  0  0  0  0  0  0  0  0  0  0  0
   56.6870   27.3280   46.9740 H   0  0  0  0  0  0  0  0  0  0  0  0
   58.6482   28.9937   44.7093 H   0  0  0  0  0  0  0  0  0  0  0  0
   60.2970   30.8015   45.1692 H   0  0  0  0  0  0  0  0  0  0  0  0
   59.0697   32.2405   49.0299 H   0  0  0  0  0  0  0  0  0  0  0  0
   59.7089   33.9126   49.2669 H   0  0  0  0  0  0  0  0  0  0  0  0
   57.2646   32.2705   47.5704 H   0  0  0  0  0  0  0  0  0  0  0  0
   56.2432   32.9427   45.3942 H   0  0  0  0  0  0  0  0  0  0  0  0
   57.4451   34.5256   43.8836 H   0  0  0  0  0  0  0  0  0  0  0  0
   59.6672   35.4448   44.5499 H   0  0  0  0  0  0  0  0  0  0  0  0
   60.6948   34.7844   46.7273 H   0  0  0  0  0  0  0  0  0  0  0  0
   60.4704   29.5908   49.3209 H   0  0  0  0  0  0  0  0  0  0  0  0
   58.8209   27.7818   48.8638 H   0  0  0  0  0  0  0  0  0  0  0  0
  1  2  1  0
  2  3  1  0
  3  4  1  0
  4  5  2  0
  4  6  1  0
  6  7  1  0
  7  8  2  0
  7  9  1  0
  9 10  1  0
 10 11  2  0
 10 12  2  0
 10 13  1  0
 13 14  1  0
 14 15  2  0
 15 16  1  0
 16 17  2  0
 17 18  1  0
 18 19  2  0
 18 20  1  0
 20 21  1  0
 21 22  1  0
 22 23  2  0
 23 24  1  0
 24 25  2  0
 25 26  1  0
 26 27  2  0
 17 28  1  0
 28 29  2  0
  9  2  2  0
 29 14  1  0
 27 22  1  0
  1 30  1  0
  1 31  1  0
  1 32  1  0
 13 33  1  0
 15 34  1  0
 16 35  1  0
 21 36  1  0
 21 37  1  0
 23 38  1  0
 24 39  1  0
 25 40  1  0
 26 41  1  0
 27 42  1  0
 28 43  1  0
 29 44  1  0
M  CHG  3   3  -1   6  -1  20  -1
M  END
>  <UniqueID>  (32) 
29

>  <SMILES>  (32) 
Cc1[n-]c(=O)[n-]c(=O)c1S(=O)(=O)Nc1ccc(C(=O)[N-]Cc2ccccc2)cc1

>  <Energy>  (32) 
53.74717170142543

>  <Genealogy>  (32) 
Cc1[n-]c(=O)[n-]c(=O)c1S(=O)(=O)Nc1ccc(C(=O)[N-]Cc2ccccc2)cc1 (protonated)
Cc1[n-]c(=O)[n-]c(=O)c1S(=O)(=O)Nc1ccc(C(=O)[N-]Cc2ccccc2)cc1 (3D coordinates assigned)
Cc1[n-]c(=O)[n-]c(=O)c1S(=O)(=O)Nc1ccc(C(=O)[N-]Cc2ccccc2)cc1 (optimized conformer: 53.74717170142543 kcal/mol)

>  <smiles>  (32) 
Cc1[nH]c(=O)[nH]c(=O)c1S(=O)(=O)Nc1ccc(C(=O)NCc2ccccc2)cc1

>  <score_type>  (32) 
oracle

>  <origin>  (32) 
adg

>  <m_score__min__energy>  (32) 
-13.710000000000001

>  <m_primary>  (32) 
energy

$$$$
32:0
     RDKit          3D

 62 65  0  0  0  0  0  0  0  0999 V2000
   62.2640   33.3360   49.1410 C   0  0  0  0  0  0  0  0  0  0  0  0
   60.9610   33.4100   48.4960 N   0  0  0  0  0  0  0  0  0  0  0  0
   60.8300   33.4240   47.0600 C   0  0  0  0  0  0  0  0  0  0  0  0
   61.8410   33.6580   46.3450 O   0  0  0  0  0  0  0  0  0  0  0  0
   59.5190   33.1860   46.4060 C   0  0  0  0  0  0  0  0  0  0  0  0
   58.5520   34.2030   46.3650 C   0  0  0  0  0  0  0  0  0  0  0  0
   57.3170   33.9800   45.7460 C   0  0  0  0  0  0  0  0  0  0  0  0
   57.0310   32.7350   45.1790 C   0  0  0  0  0  0  0  0  0  0  0  0
   57.9720   31.7000   45.2340 C   0  0  0  0  0  0  0  0  0  0  0  0
   57.6560   30.4560   44.6650 O   0  0  0  0  0  0  0  0  0  0  0  0
   57.6810   29.2450   45.3690 C   0  0  0  0  0  0  0  0  0  0  0  0
   56.6590   28.2910   45.2140 C   0  0  0  0  0  0  0  0  0  0  0  0
   56.6420   27.1340   45.9990 C   0  0  0  0  0  0  0  0  0  0  0  0
   55.5290   26.2350   45.8810 N   0  0  0  0  0  0  0  0  0  0  0  0
   55.5280   24.5890   46.4330 S   0  0  0  0  0  0  0  0  0  0  0  0
   55.9400   24.5570   47.8760 O   0  0  0  0  0  0  0  0  0  0  0  0
   54.1300   24.0520   46.3060 O   0  0  0  0  0  0  0  0  0  0  0  0
   56.6610   23.6120   45.4770 C   0  0  0  0  0  0  0  0  0  0  0  0
   57.9290   23.3190   46.0160 C   0  0  0  0  0  0  0  0  0  0  0  0
   58.8690   22.6010   45.2750 C   0  0  0  0  0  0  0  0  0  0  0  0
   58.5430   22.1200   44.0060 C   0  0  0  0  0  0  0  0  0  0  0  0
   57.2770   22.3660   43.4700 C   0  0  0  0  0  0  0  0  0  0  0  0
   56.3230   23.1140   44.1910 C   0  0  0  0  0  0  0  0  0  0  0  0
   54.9690   23.3560   43.5790 C   0  0  0  0  0  0  0  0  0  0  0  0
   57.6710   26.9240   46.9330 C   0  0  0  0  0  0  0  0  0  0  0  0
   58.7070   27.8510   47.0650 C   0  0  0  0  0  0  0  0  0  0  0  0
   59.6900   27.6340   48.0320 O   0  0  0  0  0  0  0  0  0  0  0  0
   59.9620   28.5740   49.0340 C   0  0  0  0  0  0  0  0  0  0  0  0
   61.0550   28.3640   49.8840 C   0  0  0  0  0  0  0  0  0  0  0  0
   61.3200   29.2590   50.9220 C   0  0  0  0  0  0  0  0  0  0  0  0
   60.5210   30.3940   51.0920 C   0  0  0  0  0  0  0  0  0  0  0  0
   59.4410   30.6330   50.2270 C   0  0  0  0  0  0  0  0  0  0  0  0
   58.4870   32.1090   50.3660 S   0  0  0  0  0  0  0  0  0  0  0  0
   57.0510   31.7680   51.2710 N   0  0  0  0  0  0  0  0  0  0  0  0
   58.1070   32.6140   49.0030 O   0  0  0  0  0  0  0  0  0  0  0  0
   59.2910   33.1700   51.0680 O   0  0  0  0  0  0  0  0  0  0  0  0
   59.1580   29.7170   49.2060 C   0  0  0  0  0  0  0  0  0  0  0  0
   58.7340   28.9910   46.2540 C   0  0  0  0  0  0  0  0  0  0  0  0
   59.2250   31.9400   45.8270 C   0  0  0  0  0  0  0  0  0  0  0  0
   62.1334   33.3434   50.2332 H   0  0  0  0  0  0  0  0  0  0  0  0
   62.7706   32.4076   48.8386 H   0  0  0  0  0  0  0  0  0  0  0  0
   62.8725   34.2010   48.8386 H   0  0  0  0  0  0  0  0  0  0  0  0
   60.1060   33.3260   49.0960 H   0  0  0  0  0  0  0  0  0  0  0  0
   58.7663   35.1804   46.8219 H   0  0  0  0  0  0  0  0  0  0  0  0
   56.5698   34.7862   45.7056 H   0  0  0  0  0  0  0  0  0  0  0  0
   56.0615   32.5675   44.6870 H   0  0  0  0  0  0  0  0  0  0  0  0
   55.8667   28.4565   44.4691 H   0  0  0  0  0  0  0  0  0  0  0  0
   58.1809   23.6595   47.0312 H   0  0  0  0  0  0  0  0  0  0  0  0
   59.8694   22.4137   45.6923 H   0  0  0  0  0  0  0  0  0  0  0  0
   59.2832   21.5472   43.4280 H   0  0  0  0  0  0  0  0  0  0  0  0
   57.0212   21.9723   42.4752 H   0  0  0  0  0  0  0  0  0  0  0  0
   54.2242   23.4891   44.3775 H   0  0  0  0  0  0  0  0  0  0  0  0
   55.0048   24.2620   42.9562 H   0  0  0  0  0  0  0  0  0  0  0  0
   54.6887   22.4937   42.9562 H   0  0  0  0  0  0  0  0  0  0  0  0
   57.6602   26.0233   47.5643 H   0  0  0  0  0  0  0  0  0  0  0  0
   61.7069   27.4909   49.7332 H   0  0  0  0  0  0  0  0  0  0  0  0
   62.1593   29.0710   51.6078 H   0  0  0  0  0  0  0  0  0  0  0  0
   60.7391   31.1015   51.9055 H   0  0  0  0  0  0  0  0  0  0  0  0
   56.2400   31.9380   50.6340 H   0  0  0  0  0  0  0  0  0  0  0  0
   58.3037   29.8914   48.5354 H   0  0  0  0  0  0  0  0  0  0  0  0
   59.5834   29.6875   46.3124 H   0  0  0  0  0  0  0  0  0  0  0  0
   59.9832   31.1431   45.8375 H   0  0  0  0  0  0  0  0  0  0  0  0
  1  2  1  0
  2  3  1  0
  3  4  2  0
  3  5  1  0
  5  6  2  0
  6  7  1  0
  7  8  2  0
  8  9  1  0
  9 10  1  0
 10 11  1  0
 11 12  2  0
 12 13  1  0
 13 14  1  0
 14 15  1  0
 15 16  2  0
 15 17  2  0
 15 18  1  0
 18 19  2  0
 19 20  1  0
 20 21  2  0
 21 22  1  0
 22 23  2  0
 23 24  1  0
 13 25  2  0
 25 26  1  0
 26 27  1  0
 27 28  1  0
 28 29  2  0
 29 30  1  0
 30 31  2  0
 31 32  1  0
 32 33  1  0
 33 34  1  0
 33 35  2  0
 33 36  2  0
 32 37  2  0
 26 38  2  0
  9 39  2  0
 39  5  1  0
 38 11  1  0
 23 18  1  0
 37 28  1  0
  1 40  1  0
  1 41  1  0
  1 42  1  0
  2 43  1  0
  6 44  1  0
  7 45  1  0
  8 46  1  0
 12 47  1  0
 19 48  1  0
 20 49  1  0
 21 50  1  0
 22 51  1  0
 24 52  1  0
 24 53  1  0
 24 54  1  0
 25 55  1  0
 29 56  1  0
 30 57  1  0
 31 58  1  0
 34 59  1  0
 37 60  1  0
 38 61  1  0
 39 62  1  0
M  CHG  2  14  -1  34  -1
M  END
>  <UniqueID>  (33) 
30

>  <SMILES>  (33) 
CNC(=O)c1cccc(Oc2cc([N-]S(=O)(=O)c3ccccc3C)cc(Oc3cccc(S([NH-])(=O)=O)c3)c2)c1

>  <Energy>  (33) 
89.1051196184277

>  <Genealogy>  (33) 
CNC(=O)c1cccc(Oc2cc([N-]S(=O)(=O)c3ccccc3C)cc(Oc3cccc(S([NH-])(=O)=O)c3)c2)c1 (protonated)
CNC(=O)c1cccc(Oc2cc([N-]S(=O)(=O)c3ccccc3C)cc(Oc3cccc(S([NH-])(=O)=O)c3)c2)c1 (3D coordinates assigned)
CNC(=O)c1cccc(Oc2cc([N-]S(=O)(=O)c3ccccc3C)cc(Oc3cccc(S([NH-])(=O)=O)c3)c2)c1 (optimized conformer: 89.1051196184277 kcal/mol)

>  <smiles>  (33) 
CNC(=O)c1cccc(Oc2cc(NS(=O)(=O)c3ccccc3C)cc(Oc3cccc(S(N)(=O)=O)c3)c2)c1

>  <score_type>  (33) 
oracle

>  <origin>  (33) 
adg

>  <m_score__min__energy>  (33) 
-15.52

>  <m_primary>  (33) 
energy

$$$$
33:0
     RDKit          3D

 35 36  0  0  0  0  0  0  0  0999 V2000
   55.3680   29.8500   42.5230 H   0  0  0  0  0  0  0  0  0  0  0  0
   56.2260   30.3550   42.7120 O   0  0  0  0  0  0  0  0  0  0  0  0
   57.0350   30.0340   43.8000 C   0  0  0  0  0  0  0  0  0  0  0  0
   58.3830   30.4190   43.8220 C   0  0  0  0  0  0  0  0  0  0  0  0
   58.8073   30.9798   42.9761 H   0  0  0  0  0  0  0  0  0  0  0  0
   59.1890   30.0920   44.9160 C   0  0  0  0  0  0  0  0  0  0  0  0
   60.2422   30.4090   44.9335 H   0  0  0  0  0  0  0  0  0  0  0  0
   58.6620   29.3610   45.9930 C   0  0  0  0  0  0  0  0  0  0  0  0
   59.5240   29.0280   47.1460 C   0  0  0  0  0  0  0  0  0  0  0  0
   60.5790   29.6910   47.3310 O   0  0  0  0  0  0  0  0  0  0  0  0
   59.2290   27.9460   48.0390 N   0  0  0  0  0  0  0  0  0  0  0  0
   59.9710   26.6920   48.1130 C   0  0  0  0  0  0  0  0  0  0  0  0
   59.3491   25.9268   48.6006 H   0  0  0  0  0  0  0  0  0  0  0  0
   60.8907   26.8455   48.6966 H   0  0  0  0  0  0  0  0  0  0  0  0
   60.3290   26.2370   46.7290 C   0  0  0  0  0  0  0  0  0  0  0  0
   61.5410   26.2140   46.3860 O   0  0  0  0  0  0  0  0  0  0  0  0
   59.3450   25.6930   45.8350 N   0  0  0  0  0  0  0  0  0  0  0  0
   58.2060   25.1340   46.1380 C   0  0  0  0  0  0  0  0  0  0  0  0
   58.2270   23.9480   46.8030 N   0  0  0  0  0  0  0  0  0  0  0  0
   57.0910   23.2910   47.1550 C   0  0  0  0  0  0  0  0  0  0  0  0
   57.1547   22.3352   47.6958 H   0  0  0  0  0  0  0  0  0  0  0  0
   55.8450   23.8260   46.8320 C   0  0  0  0  0  0  0  0  0  0  0  0
   54.9246   23.3006   47.1267 H   0  0  0  0  0  0  0  0  0  0  0  0
   55.7710   25.0330   46.1320 C   0  0  0  0  0  0  0  0  0  0  0  0
   54.5030   25.5420   45.8120 O   0  0  0  0  0  0  0  0  0  0  0  0
   53.4150   24.7520   45.3430 C   0  0  0  0  0  0  0  0  0  0  0  0
   52.8585   24.3479   46.2015 H   0  0  0  0  0  0  0  0  0  0  0  0
   52.7453   25.3757   44.7326 H   0  0  0  0  0  0  0  0  0  0  0  0
   53.8008   23.9222   44.7326 H   0  0  0  0  0  0  0  0  0  0  0  0
   56.9610   25.6890   45.7710 C   0  0  0  0  0  0  0  0  0  0  0  0
   56.9220   26.6312   45.2047 H   0  0  0  0  0  0  0  0  0  0  0  0
   57.3050   29.0000   45.9780 C   0  0  0  0  0  0  0  0  0  0  0  0
   56.8744   28.4557   46.8314 H   0  0  0  0  0  0  0  0  0  0  0  0
   56.4970   29.3290   44.8830 C   0  0  0  0  0  0  0  0  0  0  0  0
   55.1570   28.9590   44.8790 O   0  0  0  0  0  0  0  0  0  0  0  0
  1  2  1  0
  2  3  1  0
  3  4  2  0
  4  5  1  0
  4  6  1  0
  6  7  1  0
  6  8  2  0
  8  9  1  0
  9 10  2  0
  9 11  1  0
 11 12  1  0
 12 13  1  0
 12 14  1  0
 12 15  1  0
 15 16  2  0
 15 17  1  0
 17 18  2  0
 18 19  1  0
 19 20  1  0
 20 21  1  0
 20 22  2  0
 22 23  1  0
 22 24  1  0
 24 25  1  0
 25 26  1  0
 26 27  1  0
 26 28  1  0
 26 29  1  0
 24 30  2  0
 30 31  1  0
  8 32  1  0
 32 33  1  0
 32 34  2  0
 34 35  1  0
 34  3  1  0
 30 18  1  0
M  CHG  3  11  -1  19  -1  35  -1
M  END
>  <UniqueID>  (34) 
31

>  <SMILES>  (34) 
COc1cc[n-]/c(=N/C(=O)C[N-]C(=O)c2ccc(O)c([O-])c2)c1

>  <Energy>  (34) 
46.34415486714244

>  <Genealogy>  (34) 
COc1cc[n-]c(=NC(=O)C[N-]C(=O)c2ccc(O)c([O-])c2)c1 (protonated)
COc1cc[n-]/c(=N/C(=O)C[N-]C(=O)c2ccc(O)c([O-])c2)c1 (cis-trans isomerization)
COc1cc[n-]/c(=N/C(=O)C[N-]C(=O)c2ccc(O)c([O-])c2)c1 (3D coordinates assigned)
COc1cc[n-]/c(=N/C(=O)C[N-]C(=O)c2ccc(O)c([O-])c2)c1 (optimized conformer: 46.34415486714244 kcal/mol)

>  <smiles>  (34) 
COc1cc[nH]c(=NC(=O)CNC(=O)c2ccc(O)c(O)c2)c1

>  <score_type>  (34) 
oracle

>  <origin>  (34) 
adg

>  <m_score__min__energy>  (34) 
-12.66

>  <m_primary>  (34) 
energy

$$$$
34:0
     RDKit          3D

 34 36  0  0  0  0  0  0  0  0999 V2000
   56.4340   29.4300   42.4010 O   0  0  0  0  0  0  0  0  0  0  0  0
   56.5090   29.6360   43.8890 S   0  0  0  0  0  0  0  0  0  0  0  0
   55.1150   29.7350   44.4430 O   0  0  0  0  0  0  0  0  0  0  0  0
   57.3230   28.2860   44.6200 N   0  0  0  0  0  0  0  0  0  0  0  0
   58.7710   28.4260   44.4520 C   0  0  0  0  0  0  0  0  0  0  0  0
   59.3820   28.8850   45.7450 C   0  0  0  0  0  0  0  0  0  0  0  0
   60.5040   29.7260   45.7440 C   0  0  0  0  0  0  0  0  0  0  0  0
   61.0750   30.1100   46.9590 C   0  0  0  0  0  0  0  0  0  0  0  0
   60.5530   29.6610   48.1320 N   0  0  0  0  0  0  0  0  0  0  0  0
   59.4740   28.8330   48.1600 C   0  0  0  0  0  0  0  0  0  0  0  0
   58.8720   28.4250   46.9670 C   0  0  0  0  0  0  0  0  0  0  0  0
   57.3740   31.1270   44.2480 C   0  0  0  0  0  0  0  0  0  0  0  0
   57.8460   31.9440   43.2130 C   0  0  0  0  0  0  0  0  0  0  0  0
   58.5180   33.0910   43.4980 N   0  0  0  0  0  0  0  0  0  0  0  0
   58.7540   33.4840   44.7780 C   0  0  0  0  0  0  0  0  0  0  0  0
   59.4530   34.6700   45.0340 C   0  0  0  0  0  0  0  0  0  0  0  0
   59.6930   35.0690   46.3520 C   0  0  0  0  0  0  0  0  0  0  0  0
   59.2370   34.2880   47.4190 C   0  0  0  0  0  0  0  0  0  0  0  0
   58.5370   33.1010   47.1740 C   0  0  0  0  0  0  0  0  0  0  0  0
   58.2920   32.6930   45.8540 C   0  0  0  0  0  0  0  0  0  0  0  0
   57.5940   31.5120   45.5760 C   0  0  0  0  0  0  0  0  0  0  0  0
   57.0170   27.4280   44.1060 H   0  0  0  0  0  0  0  0  0  0  0  0
   59.2027   27.4554   44.1664 H   0  0  0  0  0  0  0  0  0  0  0  0
   58.9794   29.1654   43.6647 H   0  0  0  0  0  0  0  0  0  0  0  0
   60.9308   30.0803   44.7941 H   0  0  0  0  0  0  0  0  0  0  0  0
   61.9493   30.7774   46.9675 H   0  0  0  0  0  0  0  0  0  0  0  0
   59.0747   28.4840   49.1237 H   0  0  0  0  0  0  0  0  0  0  0  0
   58.0050   27.7484   46.9865 H   0  0  0  0  0  0  0  0  0  0  0  0
   57.6724   31.6566   42.1655 H   0  0  0  0  0  0  0  0  0  0  0  0
   59.8132   35.2876   44.1980 H   0  0  0  0  0  0  0  0  0  0  0  0
   60.2426   36.0009   46.5508 H   0  0  0  0  0  0  0  0  0  0  0  0
   59.4291   34.6076   48.4538 H   0  0  0  0  0  0  0  0  0  0  0  0
   58.1794   32.4888   48.0151 H   0  0  0  0  0  0  0  0  0  0  0  0
   57.2188   30.8872   46.3999 H   0  0  0  0  0  0  0  0  0  0  0  0
  1  2  2  0
  2  3  2  0
  2  4  1  0
  4  5  1  0
  5  6  1  0
  6  7  2  0
  7  8  1  0
  8  9  2  0
  9 10  1  0
 10 11  2  0
  2 12  1  0
 12 13  2  0
 13 14  1  0
 14 15  2  0
 15 16  1  0
 16 17  2  0
 17 18  1  0
 18 19  2  0
 19 20  1  0
 20 21  2  0
 11  6  1  0
 21 12  1  0
 20 15  1  0
  4 22  1  0
  5 23  1  0
  5 24  1  0
  7 25  1  0
  8 26  1  0
 10 27  1  0
 11 28  1  0
 13 29  1  0
 16 30  1  0
 17 31  1  0
 18 32  1  0
 19 33  1  0
 21 34  1  0
M  END
>  <UniqueID>  (35) 
32

>  <SMILES>  (35) 
O=S(=O)(NCc1ccncc1)c1cnc2ccccc2c1

>  <Energy>  (35) 
37.50048955334862

>  <Genealogy>  (35) 
O=S(=O)(NCc1ccncc1)c1cnc2ccccc2c1 (3D coordinates assigned)
O=S(=O)(NCc1ccncc1)c1cnc2ccccc2c1 (optimized conformer: 37.50048955334862 kcal/mol)

>  <smiles>  (35) 
O=S(=O)(NCc1ccncc1)c1cnc2ccccc2c1

>  <score_type>  (35) 
oracle

>  <origin>  (35) 
adg

>  <m_score__min__energy>  (35) 
-8.1500000000000004

>  <m_primary>  (35) 
energy

$$$$
35:0
     RDKit          3D

 53 56  0  0  0  0  0  0  0  0999 V2000
   56.3260   32.0460   50.5030 H   0  0  0  0  0  0  0  0  0  0  0  0
   57.1150   32.3120   51.0440 O   0  0  0  0  0  0  0  0  0  0  0  0
   57.8980   31.1640   51.2540 C   0  0  0  0  0  0  0  0  0  0  0  0
   58.5136   31.3271   52.1509 H   0  0  0  0  0  0  0  0  0  0  0  0
   57.0840   30.0410   51.4860 O   0  0  0  0  0  0  0  0  0  0  0  0
   57.3980   29.3100   50.8920 H   0  0  0  0  0  0  0  0  0  0  0  0
   58.8300   30.9290   50.0900 C   0  0  0  0  0  0  0  0  0  0  0  0
   59.2250   29.6890   49.8100 O   0  0  0  0  0  0  0  0  0  0  0  0
   60.0270   29.4000   48.7910 C   0  0  0  0  0  0  0  0  0  0  0  0
   60.3900   27.9740   48.5270 C   0  0  0  0  0  0  0  0  0  0  0  0
   60.5242   27.4468   49.4830 H   0  0  0  0  0  0  0  0  0  0  0  0
   59.5861   27.4914   47.9519 H   0  0  0  0  0  0  0  0  0  0  0  0
   61.3268   27.9346   47.9519 H   0  0  0  0  0  0  0  0  0  0  0  0
   60.4910   30.4210   47.9520 C   0  0  0  0  0  0  0  0  0  0  0  0
   61.1531   30.1845   47.1060 H   0  0  0  0  0  0  0  0  0  0  0  0
   60.1070   31.7430   48.1970 C   0  0  0  0  0  0  0  0  0  0  0  0
   60.5120   32.6650   47.3680 N   0  0  0  0  0  0  0  0  0  0  0  0
   59.8120   33.8170   46.8680 C   0  0  0  0  0  0  0  0  0  0  0  0
   59.6130   34.8300   47.5900 O   0  0  0  0  0  0  0  0  0  0  0  0
   59.3450   33.8170   45.4450 C   0  0  0  0  0  0  0  0  0  0  0  0
   59.9175   33.0647   44.8826 H   0  0  0  0  0  0  0  0  0  0  0  0
   59.5040   34.8247   45.0335 H   0  0  0  0  0  0  0  0  0  0  0  0
   57.5600   33.4240   45.3130 S   0  0  0  0  0  0  0  0  0  0  0  0
   57.7790   31.6440   45.3430 C   0  0  0  0  0  0  0  0  0  0  0  0
   56.6880   30.8220   45.2220 N   0  0  0  0  0  0  0  0  0  0  0  0
   56.8270   29.4680   45.1180 C   0  0  0  0  0  0  0  0  0  0  0  0
   55.8090   28.7340   45.0310 O   0  0  0  0  0  0  0  0  0  0  0  0
   58.1170   28.9380   45.1210 C   0  0  0  0  0  0  0  0  0  0  0  0
   58.6350   27.6590   44.9830 C   0  0  0  0  0  0  0  0  0  0  0  0
   57.9290   26.4060   44.6530 C   0  0  0  0  0  0  0  0  0  0  0  0
   57.7810   25.9970   43.3180 C   0  0  0  0  0  0  0  0  0  0  0  0
   58.1673   26.6306   42.5060 H   0  0  0  0  0  0  0  0  0  0  0  0
   57.1460   24.7900   43.0150 C   0  0  0  0  0  0  0  0  0  0  0  0
   57.0281   24.4817   41.9657 H   0  0  0  0  0  0  0  0  0  0  0  0
   56.6560   23.9660   44.0470 C   0  0  0  0  0  0  0  0  0  0  0  0
   56.0070   22.7490   43.7940 O   0  0  0  0  0  0  0  0  0  0  0  0
   56.6640   21.5620   43.3590 C   0  0  0  0  0  0  0  0  0  0  0  0
   56.9864   20.9795   44.2346 H   0  0  0  0  0  0  0  0  0  0  0  0
   55.9706   20.9601   42.7533 H   0  0  0  0  0  0  0  0  0  0  0  0
   57.5422   21.8300   42.7533 H   0  0  0  0  0  0  0  0  0  0  0  0
   56.8240   24.3670   45.3770 C   0  0  0  0  0  0  0  0  0  0  0  0
   56.4507   23.7276   46.1905 H   0  0  0  0  0  0  0  0  0  0  0  0
   57.4620   25.5730   45.6810 C   0  0  0  0  0  0  0  0  0  0  0  0
   57.5986   25.8704   46.7312 H   0  0  0  0  0  0  0  0  0  0  0  0
   60.0160   27.8010   45.1140 C   0  0  0  0  0  0  0  0  0  0  0  0
   60.7379   26.9723   45.0676 H   0  0  0  0  0  0  0  0  0  0  0  0
   60.3450   29.0990   45.3060 N   0  0  0  0  0  0  0  0  0  0  0  0
   61.3030   29.4970   45.4110 H   0  0  0  0  0  0  0  0  0  0  0  0
   59.1820   29.7700   45.3030 C   0  0  0  0  0  0  0  0  0  0  0  0
   59.0380   31.1150   45.4030 N   0  0  0  0  0  0  0  0  0  0  0  0
   59.8750   31.7340   45.4920 H   0  0  0  0  0  0  0  0  0  0  0  0
   59.2440   31.9970   49.2810 C   0  0  0  0  0  0  0  0  0  0  0  0
   58.8991   33.0204   49.4903 H   0  0  0  0  0  0  0  0  0  0  0  0
  1  2  1  0
  2  3  1  0
  3  4  1  0
  3  5  1  0
  5  6  1  0
  3  7  1  0
  7  8  1  0
  8  9  1  0
  9 10  1  0
 10 11  1  0
 10 12  1  0
 10 13  1  0
  9 14  2  0
 14 15  1  0
 14 16  1  0
 16 17  2  0
 17 18  1  0
 18 19  2  0
 18 20  1  0
 20 21  1  0
 20 22  1  0
 20 23  1  0
 23 24  1  0
 24 25  2  0
 25 26  1  0
 26 27  2  0
 26 28  1  0
 28 29  1  0
 29 30  1  0
 30 31  2  0
 31 32  1  0
 31 33  1  0
 33 34  1  0
 33 35  2  0
 35 36  1  0
 36 37  1  0
 37 38  1  0
 37 39  1  0
 37 40  1  0
 35 41  1  0
 41 42  1  0
 41 43  2  0
 43 44  1  0
 29 45  2  0
 45 46  1  0
 45 47  1  0
 47 48  1  0
 47 49  1  0
 49 50  1  0
 50 51  1  0
 16 52  1  0
 52 53  1  0
 52  7  2  0
 50 24  1  0
 49 28  2  0
 43 30  1  0
M  END
>  <UniqueID>  (36) 
33

>  <SMILES>  (36) 
COc1ccc(-c2c[nH]c3[nH]c(SCC(=O)/N=c4/cc(C)oc(C(O)O)c4)nc(=O)c23)cc1

>  <Energy>  (36) 
95.24141215971797

>  <Genealogy>  (36) 
COc1ccc(-c2c[nH]c3[nH]c(SCC(=O)/N=c4/cc(C)oc(C(O)O)c4)nc(=O)c23)cc1 (cis-trans isomerization)
COc1ccc(-c2c[nH]c3[nH]c(SCC(=O)/N=c4/cc(C)oc(C(O)O)c4)nc(=O)c23)cc1 (3D coordinates assigned)
COc1ccc(-c2c[nH]c3[nH]c(SCC(=O)/N=c4/cc(C)oc(C(O)O)c4)nc(=O)c23)cc1 (optimized conformer: 95.24141215971797 kcal/mol)

>  <smiles>  (36) 
COc1ccc(-c2c[nH]c3[nH]c(SCC(=O)N=c4cc(C)oc(C(O)O)c4)nc(=O)c23)cc1

>  <score_type>  (36) 
oracle

>  <origin>  (36) 
adg

>  <m_score__min__energy>  (36) 
-9.1199999999999992

>  <m_primary>  (36) 
energy

$$$$
36:0
     RDKit          3D

 34 36  0  0  0  0  0  0  0  0999 V2000
   55.1590   29.3410   44.8720 O   0  0  0  0  0  0  0  0  0  0  0  0
   56.3070   29.8450   44.7630 C   0  0  0  0  0  0  0  0  0  0  0  0
   56.4230   31.2670   44.6400 N   0  0  0  0  0  0  0  0  0  0  0  0
   57.4250   32.0840   45.2600 C   0  0  0  0  0  0  0  0  0  0  0  0
   58.2940   31.5670   46.2360 C   0  0  0  0  0  0  0  0  0  0  0  0
   59.2820   32.3790   46.8010 C   0  0  0  0  0  0  0  0  0  0  0  0
   59.4350   33.7080   46.3770 C   0  0  0  0  0  0  0  0  0  0  0  0
   60.4730   34.5920   47.0100 C   0  0  0  0  0  0  0  0  0  0  0  0
   61.7650   33.8540   47.1400 C   0  0  0  0  0  0  0  0  0  0  0  0
   62.8220   34.0250   46.3250 N   0  0  0  0  0  0  0  0  0  0  0  0
   63.7600   33.2390   46.8270 N   0  0  0  0  0  0  0  0  0  0  0  0
   63.2990   32.6250   47.9060 N   0  0  0  0  0  0  0  0  0  0  0  0
   62.0500   32.9950   48.1340 N   0  0  0  0  0  0  0  0  0  0  0  0
   58.5750   34.2190   45.3910 C   0  0  0  0  0  0  0  0  0  0  0  0
   57.5870   33.4050   44.8280 C   0  0  0  0  0  0  0  0  0  0  0  0
   57.4790   29.0100   44.7940 N   0  0  0  0  0  0  0  0  0  0  0  0
   57.4440   27.5750   44.8830 C   0  0  0  0  0  0  0  0  0  0  0  0
   56.9860   26.9730   46.0640 C   0  0  0  0  0  0  0  0  0  0  0  0
   56.9190   25.5800   46.1700 C   0  0  0  0  0  0  0  0  0  0  0  0
   57.2950   24.7770   45.0880 C   0  0  0  0  0  0  0  0  0  0  0  0
   57.2070   23.0300   45.2190 Cl  0  0  0  0  0  0  0  0  0  0  0  0
   57.7280   25.3690   43.8970 C   0  0  0  0  0  0  0  0  0  0  0  0
   57.7980   26.7620   43.7900 C   0  0  0  0  0  0  0  0  0  0  0  0
   58.1965   30.5193   46.5567 H   0  0  0  0  0  0  0  0  0  0  0  0
   59.9427   31.9741   47.5817 H   0  0  0  0  0  0  0  0  0  0  0  0
   60.6242   35.4826   46.3824 H   0  0  0  0  0  0  0  0  0  0  0  0
   60.1281   34.8933   48.0101 H   0  0  0  0  0  0  0  0  0  0  0  0
   58.6790   35.2630   45.0605 H   0  0  0  0  0  0  0  0  0  0  0  0
   56.9326   33.8060   44.0400 H   0  0  0  0  0  0  0  0  0  0  0  0
   58.4140   29.4580   44.6740 H   0  0  0  0  0  0  0  0  0  0  0  0
   56.6773   27.6008   46.9129 H   0  0  0  0  0  0  0  0  0  0  0  0
   56.5706   25.1158   47.1044 H   0  0  0  0  0  0  0  0  0  0  0  0
   58.0141   24.7378   43.0427 H   0  0  0  0  0  0  0  0  0  0  0  0
   58.1308   27.2235   42.8486 H   0  0  0  0  0  0  0  0  0  0  0  0
  1  2  2  0
  2  3  1  0
  3  4  1  0
  4  5  2  0
  5  6  1  0
  6  7  2  0
  7  8  1  0
  8  9  1  0
  9 10  1  0
 10 11  2  0
 11 12  1  0
 12 13  1  0
  7 14  1  0
 14 15  2  0
  2 16  1  0
 16 17  1  0
 17 18  2  0
 18 19  1  0
 19 20  2  0
 20 21  1  0
 20 22  1  0
 22 23  2  0
 15  4  1  0
 23 17  1  0
 13  9  2  0
  5 24  1  0
  6 25  1  0
  8 26  1  0
  8 27  1  0
 14 28  1  0
 15 29  1  0
 16 30  1  0
 18 31  1  0
 19 32  1  0
 22 33  1  0
 23 34  1  0
M  CHG  2   3  -1  12  -1
M  END
>  <UniqueID>  (37) 
34

>  <SMILES>  (37) 
O=C([N-]c1ccc(Cc2nn[n-]n2)cc1)Nc1ccc(Cl)cc1

>  <Energy>  (37) 
81.07026383678814

>  <Genealogy>  (37) 
O=C([N-]c1ccc(Cc2nn[n-]n2)cc1)Nc1ccc(Cl)cc1 (protonated)
O=C([N-]c1ccc(Cc2nn[n-]n2)cc1)Nc1ccc(Cl)cc1 (3D coordinates assigned)
O=C([N-]c1ccc(Cc2nn[n-]n2)cc1)Nc1ccc(Cl)cc1 (optimized conformer: 81.07026383678814 kcal/mol)

>  <smiles>  (37) 
O=C(Nc1ccc(Cl)cc1)Nc1ccc(Cc2nn[nH]n2)cc1

>  <score_type>  (37) 
oracle

>  <origin>  (37) 
adg

>  <m_score__min__energy>  (37) 
-10.58

>  <m_primary>  (37) 
energy

$$$$
37:0
     RDKit          3D

 49 51  0  0  0  0  0  0  0  0999 V2000
   60.7510   29.5230   49.4650 N   0  0  0  0  0  0  0  0  0  0  0  0
   60.6870   31.2050   49.8560 S   0  0  0  0  0  0  0  0  0  0  0  0
   59.3470   31.7630   49.4680 O   0  0  0  0  0  0  0  0  0  0  0  0
   60.8580   31.3740   51.3400 O   0  0  0  0  0  0  0  0  0  0  0  0
   61.9780   32.0670   49.0000 C   0  0  0  0  0  0  0  0  0  0  0  0
   63.2460   32.1460   49.5980 C   0  0  0  0  0  0  0  0  0  0  0  0
   64.2790   32.8530   48.9810 C   0  0  0  0  0  0  0  0  0  0  0  0
   64.0600   33.4900   47.7600 C   0  0  0  0  0  0  0  0  0  0  0  0
   62.8090   33.4130   47.1460 C   0  0  0  0  0  0  0  0  0  0  0  0
   61.7620   32.6940   47.7480 C   0  0  0  0  0  0  0  0  0  0  0  0
   60.4690   32.6170   47.0410 C   0  0  0  0  0  0  0  0  0  0  0  0
   60.0140   31.3940   46.5270 C   0  0  0  0  0  0  0  0  0  0  0  0
   58.7920   31.3250   45.8520 C   0  0  0  0  0  0  0  0  0  0  0  0
   58.0140   32.4800   45.6760 C   0  0  0  0  0  0  0  0  0  0  0  0
   56.7090   32.4170   44.9270 C   0  0  0  0  0  0  0  0  0  0  0  0
   56.4260   31.0410   44.4980 N   0  0  0  0  0  0  0  0  0  0  0  0
   57.1480   30.7090   43.2620 C   0  0  0  0  0  0  0  0  0  0  0  0
   56.6150   29.3960   42.6820 C   0  0  0  0  0  0  0  0  0  0  0  0
   57.4700   28.2270   43.0990 C   0  0  0  0  0  0  0  0  0  0  0  0
   57.7930   27.3720   42.2300 O   0  0  0  0  0  0  0  0  0  0  0  0
   57.9630   28.0890   44.4480 N   0  0  0  0  0  0  0  0  0  0  0  0
   59.2940   27.8350   44.6300 C   0  0  0  0  0  0  0  0  0  0  0  0
   59.8230   27.7090   45.9130 C   0  0  0  0  0  0  0  0  0  0  0  0
   58.9660   27.8390   47.0010 C   0  0  0  0  0  0  0  0  0  0  0  0
   59.4100   27.7360   48.1740 O   0  0  0  0  0  0  0  0  0  0  0  0
   57.6470   28.0720   46.7950 N   0  0  0  0  0  0  0  0  0  0  0  0
   57.1380   28.1930   45.5410 C   0  0  0  0  0  0  0  0  0  0  0  0
   55.8990   28.3790   45.4020 O   0  0  0  0  0  0  0  0  0  0  0  0
   58.4800   33.7060   46.1730 C   0  0  0  0  0  0  0  0  0  0  0  0
   59.7010   33.7750   46.8490 C   0  0  0  0  0  0  0  0  0  0  0  0
   59.8770   29.0890   49.8380 H   0  0  0  0  0  0  0  0  0  0  0  0
   60.7070   29.4470   48.4250 H   0  0  0  0  0  0  0  0  0  0  0  0
   63.4267   31.6463   50.5611 H   0  0  0  0  0  0  0  0  0  0  0  0
   65.2682   32.9079   49.4589 H   0  0  0  0  0  0  0  0  0  0  0  0
   64.8738   34.0536   47.2804 H   0  0  0  0  0  0  0  0  0  0  0  0
   62.6412   33.9188   46.1837 H   0  0  0  0  0  0  0  0  0  0  0  0
   60.6211   30.4857   46.6555 H   0  0  0  0  0  0  0  0  0  0  0  0
   58.4384   30.3612   45.4569 H   0  0  0  0  0  0  0  0  0  0  0  0
   55.8980   32.7652   45.5835 H   0  0  0  0  0  0  0  0  0  0  0  0
   56.7794   33.0591   44.0366 H   0  0  0  0  0  0  0  0  0  0  0  0
   56.7750   30.4010   45.2510 H   0  0  0  0  0  0  0  0  0  0  0  0
   57.0050   31.5161   42.5284 H   0  0  0  0  0  0  0  0  0  0  0  0
   58.2186   30.5962   43.4879 H   0  0  0  0  0  0  0  0  0  0  0  0
   55.5881   29.2356   43.0423 H   0  0  0  0  0  0  0  0  0  0  0  0
   56.6352   29.4673   41.5845 H   0  0  0  0  0  0  0  0  0  0  0  0
   59.9532   27.7291   43.7558 H   0  0  0  0  0  0  0  0  0  0  0  0
   60.8947   27.5111   46.0622 H   0  0  0  0  0  0  0  0  0  0  0  0
   57.8813   34.6177   46.0299 H   0  0  0  0  0  0  0  0  0  0  0  0
   60.0613   34.7411   47.2321 H   0  0  0  0  0  0  0  0  0  0  0  0
  1  2  1  0
  2  3  2  0
  2  4  2  0
  2  5  1  0
  5  6  2  0
  6  7  1  0
  7  8  2  0
  8  9  1  0
  9 10  2  0
 10 11  1  0
 11 12  2  0
 12 13  1  0
 13 14  2  0
 14 15  1  0
 15 16  1  0
 16 17  1  0
 17 18  1  0
 18 19  1  0
 19 20  2  0
 19 21  1  0
 21 22  1  0
 22 23  2  0
 23 24  1  0
 24 25  2  0
 24 26  1  0
 26 27  1  0
 27 28  2  0
 14 29  1  0
 29 30  2  0
 10  5  1  0
 30 11  1  0
 27 21  1  0
  1 31  1  0
  1 32  1  0
  6 33  1  0
  7 34  1  0
  8 35  1  0
  9 36  1  0
 12 37  1  0
 13 38  1  0
 15 39  1  0
 15 40  1  0
 16 41  1  0
 17 42  1  0
 17 43  1  0
 18 44  1  0
 18 45  1  0
 22 46  1  0
 23 47  1  0
 29 48  1  0
 30 49  1  0
M  CHG  1  26  -1
M  END
>  <UniqueID>  (38) 
35

>  <SMILES>  (38) 
NS(=O)(=O)c1ccccc1-c1ccc(CNCCC(=O)n2ccc(=O)[n-]c2=O)cc1

>  <Energy>  (38) 
62.300565370993645

>  <Genealogy>  (38) 
NS(=O)(=O)c1ccccc1-c1ccc(CNCCC(=O)n2ccc(=O)[n-]c2=O)cc1 (protonated)
NS(=O)(=O)c1ccccc1-c1ccc(CNCCC(=O)n2ccc(=O)[n-]c2=O)cc1 (3D coordinates assigned)
NS(=O)(=O)c1ccccc1-c1ccc(CNCCC(=O)n2ccc(=O)[n-]c2=O)cc1 (optimized conformer: 62.300565370993645 kcal/mol)

>  <smiles>  (38) 
NS(=O)(=O)c1ccccc1-c1ccc(CNCCC(=O)n2ccc(=O)[nH]c2=O)cc1

>  <score_type>  (38) 
oracle

>  <origin>  (38) 
adg

>  <m_score__min__energy>  (38) 
-11.279999999999999

>  <m_primary>  (38) 
energy

$$$$
38:0
     RDKit          3D

 58 61  0  0  0  0  0  0  0  0999 V2000
   57.4470   24.0260   44.8450 C   0  0  0  0  0  0  0  0  0  0  0  0
   57.2790   24.5380   46.5440 S   0  0  0  0  0  0  0  0  0  0  0  0
   57.4700   23.3660   47.4650 O   0  0  0  0  0  0  0  0  0  0  0  0
   55.8950   25.0880   46.7490 O   0  0  0  0  0  0  0  0  0  0  0  0
   58.4370   25.7810   46.9100 N   0  0  0  0  0  0  0  0  0  0  0  0
   58.6080   26.9910   46.1460 C   0  0  0  0  0  0  0  0  0  0  0  0
   59.8670   27.3760   45.6500 C   0  0  0  0  0  0  0  0  0  0  0  0
   60.0070   28.5480   44.9110 C   0  0  0  0  0  0  0  0  0  0  0  0
   58.8970   29.3480   44.6460 C   0  0  0  0  0  0  0  0  0  0  0  0
   57.6200   28.9830   45.1170 C   0  0  0  0  0  0  0  0  0  0  0  0
   56.4490   29.8520   44.8220 C   0  0  0  0  0  0  0  0  0  0  0  0
   55.2840   29.3730   44.8370 O   0  0  0  0  0  0  0  0  0  0  0  0
   56.6540   31.2280   44.4660 N   0  0  0  0  0  0  0  0  0  0  0  0
   57.3390   32.2320   45.2300 C   0  0  0  0  0  0  0  0  0  0  0  0
   57.3990   33.5320   44.7150 C   0  0  0  0  0  0  0  0  0  0  0  0
   58.1020   34.5270   45.3900 C   0  0  0  0  0  0  0  0  0  0  0  0
   58.7550   34.2350   46.5890 C   0  0  0  0  0  0  0  0  0  0  0  0
   58.6980   32.9380   47.1300 C   0  0  0  0  0  0  0  0  0  0  0  0
   59.3540   32.5890   48.3230 O   0  0  0  0  0  0  0  0  0  0  0  0
   59.6860   31.2870   48.7270 C   0  0  0  0  0  0  0  0  0  0  0  0
   59.3260   30.8580   50.0060 C   0  0  0  0  0  0  0  0  0  0  0  0
   59.6670   29.5680   50.4200 C   0  0  0  0  0  0  0  0  0  0  0  0
   60.3510   28.7090   49.5500 C   0  0  0  0  0  0  0  0  0  0  0  0
   60.6960   27.3350   49.9700 C   0  0  0  0  0  0  0  0  0  0  0  0
   60.4710   26.3760   49.1790 O   0  0  0  0  0  0  0  0  0  0  0  0
   61.2930   27.0760   51.2550 N   0  0  0  0  0  0  0  0  0  0  0  0
   61.0820   25.7710   51.8940 C   0  0  0  0  0  0  0  0  0  0  0  0
   61.2870   25.8420   53.4290 C   0  0  0  0  0  0  0  0  0  0  0  0
   61.9810   27.0070   53.8910 O   0  0  0  0  0  0  0  0  0  0  0  0
   63.0070   27.3590   52.9880 C   0  0  0  0  0  0  0  0  0  0  0  0
   62.3730   27.9510   51.7320 C   0  0  0  0  0  0  0  0  0  0  0  0
   60.7150   29.1870   48.2860 C   0  0  0  0  0  0  0  0  0  0  0  0
   60.3820   30.4500   47.9110 N   0  0  0  0  0  0  0  0  0  0  0  0
   58.0120   31.9360   46.4300 C   0  0  0  0  0  0  0  0  0  0  0  0
   57.4870   27.8010   45.8760 C   0  0  0  0  0  0  0  0  0  0  0  0
   56.2720   27.4280   46.3570 F   0  0  0  0  0  0  0  0  0  0  0  0
   57.7898   22.9814   44.8090 H   0  0  0  0  0  0  0  0  0  0  0  0
   56.4741   24.1103   44.3387 H   0  0  0  0  0  0  0  0  0  0  0  0
   58.1808   24.6703   44.3387 H   0  0  0  0  0  0  0  0  0  0  0  0
   59.0660   25.5990   47.7220 H   0  0  0  0  0  0  0  0  0  0  0  0
   60.7473   26.7466   45.8474 H   0  0  0  0  0  0  0  0  0  0  0  0
   60.9976   28.8435   44.5349 H   0  0  0  0  0  0  0  0  0  0  0  0
   59.0189   30.2732   44.0636 H   0  0  0  0  0  0  0  0  0  0  0  0
   56.8874   33.7695   43.7706 H   0  0  0  0  0  0  0  0  0  0  0  0
   58.1429   35.5458   44.9773 H   0  0  0  0  0  0  0  0  0  0  0  0
   59.3164   35.0227   47.1128 H   0  0  0  0  0  0  0  0  0  0  0  0
   58.7781   31.5305   50.6824 H   0  0  0  0  0  0  0  0  0  0  0  0
   59.3981   29.2263   51.4304 H   0  0  0  0  0  0  0  0  0  0  0  0
   60.0552   25.4350   51.6870 H   0  0  0  0  0  0  0  0  0  0  0  0
   61.8191   25.0656   51.4828 H   0  0  0  0  0  0  0  0  0  0  0  0
   60.2967   25.8219   53.9074 H   0  0  0  0  0  0  0  0  0  0  0  0
   61.9170   24.9809   53.6965 H   0  0  0  0  0  0  0  0  0  0  0  0
   63.6704   28.1029   53.4534 H   0  0  0  0  0  0  0  0  0  0  0  0
   63.5966   26.4682   52.7255 H   0  0  0  0  0  0  0  0  0  0  0  0
   61.9614   28.9441   51.9650 H   0  0  0  0  0  0  0  0  0  0  0  0
   63.1392   28.0398   50.9478 H   0  0  0  0  0  0  0  0  0  0  0  0
   61.2723   28.5384   47.5940 H   0  0  0  0  0  0  0  0  0  0  0  0
   57.9995   30.9084   46.8224 H   0  0  0  0  0  0  0  0  0  0  0  0
  1  2  1  0
  2  3  2  0
  2  4  2  0
  2  5  1  0
  5  6  1  0
  6  7  2  0
  7  8  1  0
  8  9  2  0
  9 10  1  0
 10 11  1  0
 11 12  2  0
 11 13  1  0
 13 14  1  0
 14 15  2  0
 15 16  1  0
 16 17  2  0
 17 18  1  0
 18 19  1  0
 19 20  1  0
 20 21  2  0
 21 22  1  0
 22 23  2  0
 23 24  1  0
 24 25  2  0
 24 26  1  0
 26 27  1  0
 27 28  1  0
 28 29  1  0
 29 30  1  0
 30 31  1  0
 23 32  1  0
 32 33  2  0
 18 34  2  0
 10 35  2  0
 35 36  1  0
 35  6  1  0
 34 14  1  0
 33 20  1  0
 31 26  1  0
  1 37  1  0
  1 38  1  0
  1 39  1  0
  5 40  1  0
  7 41  1  0
  8 42  1  0
  9 43  1  0
 15 44  1  0
 16 45  1  0
 17 46  1  0
 21 47  1  0
 22 48  1  0
 27 49  1  0
 27 50  1  0
 28 51  1  0
 28 52  1  0
 30 53  1  0
 30 54  1  0
 31 55  1  0
 31 56  1  0
 32 57  1  0
 34 58  1  0
M  CHG  1  13  -1
M  END
>  <UniqueID>  (39) 
36

>  <SMILES>  (39) 
CS(=O)(=O)Nc1cccc(C(=O)[N-]c2cccc(Oc3ccc(C(=O)N4CCOCC4)cn3)c2)c1F

>  <Energy>  (39) 
84.26436316035668

>  <Genealogy>  (39) 
CS(=O)(=O)Nc1cccc(C(=O)[N-]c2cccc(Oc3ccc(C(=O)N4CCOCC4)cn3)c2)c1F (protonated)
CS(=O)(=O)Nc1cccc(C(=O)[N-]c2cccc(Oc3ccc(C(=O)N4CCOCC4)cn3)c2)c1F (3D coordinates assigned)
CS(=O)(=O)Nc1cccc(C(=O)[N-]c2cccc(Oc3ccc(C(=O)N4CCOCC4)cn3)c2)c1F (nonaromatic ring conformer: 84.26436316035668 kcal/mol)

>  <smiles>  (39) 
CS(=O)(=O)Nc1cccc(C(=O)Nc2cccc(Oc3ccc(C(=O)N4CCOCC4)cn3)c2)c1F

>  <score_type>  (39) 
oracle

>  <origin>  (39) 
adg

>  <m_score__min__energy>  (39) 
-11.57

>  <m_primary>  (39) 
energy

$$$$
39:0
     RDKit          3D

 29 30  0  0  0  0  0  0  0  0999 V2000
   54.7710   22.5920   48.7500 C   0  0  0  0  0  0  0  0  0  0  0  0
   55.8910   22.8560   47.7830 C   0  0  0  0  0  0  0  0  0  0  0  0
   57.0280   22.5290   48.0890 O   0  0  0  0  0  0  0  0  0  0  0  0
   55.6630   23.5120   46.4430 C   0  0  0  0  0  0  0  0  0  0  0  0
   56.4860   24.7090   46.2650 N   0  0  0  0  0  0  0  0  0  0  0  0
   56.0480   25.9660   46.0340 C   0  0  0  0  0  0  0  0  0  0  0  0
   54.7070   26.3290   45.9810 O   0  0  0  0  0  0  0  0  0  0  0  0
   57.1150   26.8220   45.8500 C   0  0  0  0  0  0  0  0  0  0  0  0
   58.2560   26.0650   46.0050 C   0  0  0  0  0  0  0  0  0  0  0  0
   57.8370   24.7660   46.2310 C   0  0  0  0  0  0  0  0  0  0  0  0
   58.6640   23.6570   46.3850 O   0  0  0  0  0  0  0  0  0  0  0  0
   59.6430   26.5960   45.8030 C   0  0  0  0  0  0  0  0  0  0  0  0
   59.6480   28.1350   45.8960 C   0  0  0  0  0  0  0  0  0  0  0  0
   58.4870   28.7620   45.0950 C   0  0  0  0  0  0  0  0  0  0  0  0
   57.1130   28.3020   45.6230 C   0  0  0  0  0  0  0  0  0  0  0  0
   55.1472   22.6807   49.7799 H   0  0  0  0  0  0  0  0  0  0  0  0
   53.9670   23.3252   48.5889 H   0  0  0  0  0  0  0  0  0  0  0  0
   54.3791   21.5769   48.5889 H   0  0  0  0  0  0  0  0  0  0  0  0
   55.9099   22.7914   45.6495 H   0  0  0  0  0  0  0  0  0  0  0  0
   54.6076   23.8179   46.3926 H   0  0  0  0  0  0  0  0  0  0  0  0
   58.4930   22.9710   47.1100 H   0  0  0  0  0  0  0  0  0  0  0  0
   60.3054   26.1839   46.5785 H   0  0  0  0  0  0  0  0  0  0  0  0
   59.9976   26.2976   44.8054 H   0  0  0  0  0  0  0  0  0  0  0  0
   59.5511   28.4281   46.9518 H   0  0  0  0  0  0  0  0  0  0  0  0
   60.5938   28.5000   45.4692 H   0  0  0  0  0  0  0  0  0  0  0  0
   58.5504   29.8573   45.1743 H   0  0  0  0  0  0  0  0  0  0  0  0
   58.5780   28.4355   44.0485 H   0  0  0  0  0  0  0  0  0  0  0  0
   56.8983   28.8148   46.5722 H   0  0  0  0  0  0  0  0  0  0  0  0
   56.3415   28.5499   44.8792 H   0  0  0  0  0  0  0  0  0  0  0  0
  1  2  1  0
  2  3  2  0
  2  4  1  0
  4  5  1  0
  5  6  1  0
  6  7  1  0
  6  8  2  0
  8  9  1  0
  9 10  2  0
 10 11  1  0
  9 12  1  0
 12 13  1  0
 13 14  1  0
 14 15  1  0
 10  5  1  0
 15  8  1  0
  1 16  1  0
  1 17  1  0
  1 18  1  0
  4 19  1  0
  4 20  1  0
 11 21  1  0
 12 22  1  0
 12 23  1  0
 13 24  1  0
 13 25  1  0
 14 26  1  0
 14 27  1  0
 15 28  1  0
 15 29  1  0
M  CHG  1   7  -1
M  END
>  <UniqueID>  (40) 
37

>  <SMILES>  (40) 
CC(=O)Cn1c([O-])c2c(c1O)CCCC2

>  <Energy>  (40) 
53.35908980973486

>  <Genealogy>  (40) 
CC(=O)Cn1c([O-])c2c(c1O)CCCC2 (protonated)
CC(=O)Cn1c([O-])c2c(c1O)CCCC2 (3D coordinates assigned)
CC(=O)Cn1c([O-])c2c(c1O)CCCC2 (nonaromatic ring conformer: 53.35908980973486 kcal/mol)

>  <smiles>  (40) 
CC(=O)Cn1c(O)c2c(c1O)CCCC2

>  <score_type>  (40) 
oracle

>  <origin>  (40) 
adg

>  <m_score__min__energy>  (40) 
-8.7200000000000006

>  <m_primary>  (40) 
energy

$$$$
40:0
     RDKit          3D

 45 47  0  0  0  0  0  0  0  0999 V2000
   61.1180   28.5270   45.0370 C   0  0  0  0  0  0  0  0  0  0  0  0
   59.6480   28.2860   45.2150 C   0  0  0  0  0  0  0  0  0  0  0  0
   59.1960   27.1430   45.8870 C   0  0  0  0  0  0  0  0  0  0  0  0
   57.8270   26.8970   46.0210 C   0  0  0  0  0  0  0  0  0  0  0  0
   57.2880   25.4640   46.8840 Cl  0  0  0  0  0  0  0  0  0  0  0  0
   56.8960   27.7860   45.4650 C   0  0  0  0  0  0  0  0  0  0  0  0
   55.5340   27.5380   45.6140 O   0  0  0  0  0  0  0  0  0  0  0  0
   57.3400   28.9180   44.7610 C   0  0  0  0  0  0  0  0  0  0  0  0
   56.1860   30.0300   44.0160 S   0  0  0  0  0  0  0  0  0  0  0  0
   56.5430   30.2790   42.5770 O   0  0  0  0  0  0  0  0  0  0  0  0
   54.8130   29.4230   44.0840 O   0  0  0  0  0  0  0  0  0  0  0  0
   56.1720   31.5480   44.8560 N   0  0  0  0  0  0  0  0  0  0  0  0
   57.3320   32.3350   45.1590 C   0  0  0  0  0  0  0  0  0  0  0  0
   57.7500   33.2970   44.2310 C   0  0  0  0  0  0  0  0  0  0  0  0
   58.8570   34.1040   44.5000 C   0  0  0  0  0  0  0  0  0  0  0  0
   59.5620   33.9520   45.6950 C   0  0  0  0  0  0  0  0  0  0  0  0
   59.1740   32.9710   46.6250 C   0  0  0  0  0  0  0  0  0  0  0  0
   59.8500   32.7920   47.8420 O   0  0  0  0  0  0  0  0  0  0  0  0
   59.7930   31.6430   48.6440 C   0  0  0  0  0  0  0  0  0  0  0  0
   60.3060   30.4080   48.2100 C   0  0  0  0  0  0  0  0  0  0  0  0
   60.2300   29.2850   49.0380 C   0  0  0  0  0  0  0  0  0  0  0  0
   59.6290   29.3800   50.2950 C   0  0  0  0  0  0  0  0  0  0  0  0
   59.0810   30.5980   50.7270 C   0  0  0  0  0  0  0  0  0  0  0  0
   58.4480   30.7110   52.0880 C   0  0  0  0  0  0  0  0  0  0  0  0
   57.0060   30.3220   52.0210 C   0  0  0  0  0  0  0  0  0  0  0  0
   56.1460   31.1440   51.6090 O   0  0  0  0  0  0  0  0  0  0  0  0
   56.6170   29.0340   52.3680 O   0  0  0  0  0  0  0  0  0  0  0  0
   59.1660   31.7250   49.8930 C   0  0  0  0  0  0  0  0  0  0  0  0
   58.0520   32.1780   46.3590 C   0  0  0  0  0  0  0  0  0  0  0  0
   58.7160   29.1650   44.6470 C   0  0  0  0  0  0  0  0  0  0  0  0
   61.5987   28.6058   46.0233 H   0  0  0  0  0  0  0  0  0  0  0  0
   61.5619   27.6896   44.4786 H   0  0  0  0  0  0  0  0  0  0  0  0
   61.2713   29.4623   44.4786 H   0  0  0  0  0  0  0  0  0  0  0  0
   59.9229   26.4350   46.3117 H   0  0  0  0  0  0  0  0  0  0  0  0
   57.2028   33.4175   43.2844 H   0  0  0  0  0  0  0  0  0  0  0  0
   59.1744   34.8616   43.7683 H   0  0  0  0  0  0  0  0  0  0  0  0
   60.4235   34.6013   45.9100 H   0  0  0  0  0  0  0  0  0  0  0  0
   60.7687   30.3256   47.2154 H   0  0  0  0  0  0  0  0  0  0  0  0
   60.6444   28.3241   48.6990 H   0  0  0  0  0  0  0  0  0  0  0  0
   59.5849   28.4968   50.9492 H   0  0  0  0  0  0  0  0  0  0  0  0
   58.9719   30.0444   52.7888 H   0  0  0  0  0  0  0  0  0  0  0  0
   58.5229   31.7528   52.4332 H   0  0  0  0  0  0  0  0  0  0  0  0
   58.7356   32.6815   50.2245 H   0  0  0  0  0  0  0  0  0  0  0  0
   57.7297   31.4255   47.0937 H   0  0  0  0  0  0  0  0  0  0  0  0
   59.0667   30.0568   44.1069 H   0  0  0  0  0  0  0  0  0  0  0  0
  1  2  1  0
  2  3  2  0
  3  4  1  0
  4  5  1  0
  4  6  2  0
  6  7  1  0
  6  8  1  0
  8  9  1  0
  9 10  2  0
  9 11  2  0
  9 12  1  0
 12 13  1  0
 13 14  2  0
 14 15  1  0
 15 16  2  0
 16 17  1  0
 17 18  1  0
 18 19  1  0
 19 20  2  0
 20 21  1  0
 21 22  2  0
 22 23  1  0
 23 24  1  0
 24 25  1  0
 25 26  2  0
 25 27  1  0
 23 28  2  0
 17 29  2  0
  8 30  2  0
 30  2  1  0
 29 13  1  0
 28 19  1  0
  1 31  1  0
  1 32  1  0
  1 33  1  0
  3 34  1  0
 14 35  1  0
 15 36  1  0
 16 37  1  0
 20 38  1  0
 21 39  1  0
 22 40  1  0
 24 41  1  0
 24 42  1  0
 28 43  1  0
 29 44  1  0
 30 45  1  0
M  CHG  3   7  -1  12  -1  27  -1
M  END
>  <UniqueID>  (41) 
38

>  <SMILES>  (41) 
Cc1cc(Cl)c([O-])c(S(=O)(=O)[N-]c2cccc(Oc3cccc(CC(=O)[O-])c3)c2)c1

>  <Energy>  (41) 
55.80122528062287

>  <Genealogy>  (41) 
Cc1cc(Cl)c([O-])c(S(=O)(=O)[N-]c2cccc(Oc3cccc(CC(=O)[O-])c3)c2)c1 (protonated)
Cc1cc(Cl)c([O-])c(S(=O)(=O)[N-]c2cccc(Oc3cccc(CC(=O)[O-])c3)c2)c1 (3D coordinates assigned)
Cc1cc(Cl)c([O-])c(S(=O)(=O)[N-]c2cccc(Oc3cccc(CC(=O)[O-])c3)c2)c1 (optimized conformer: 55.80122528062287 kcal/mol)

>  <smiles>  (41) 
Cc1cc(Cl)c(O)c(S(=O)(=O)Nc2cccc(Oc3cccc(CC(=O)O)c3)c2)c1

>  <score_type>  (41) 
oracle

>  <origin>  (41) 
adg

>  <m_score__min__energy>  (41) 
-15.449999999999999

>  <m_primary>  (41) 
energy

$$$$
41:0
     RDKit          3D

 61 64  0  0  0  0  0  0  0  0999 V2000
   62.8560   31.7140   47.4440 C   0  0  0  0  0  0  0  0  0  0  0  0
   61.4340   31.6540   47.3770 O   0  0  0  0  0  0  0  0  0  0  0  0
   60.6170   32.7690   47.5940 C   0  0  0  0  0  0  0  0  0  0  0  0
   60.8800   33.5880   48.5200 O   0  0  0  0  0  0  0  0  0  0  0  0
   59.4720   32.9580   46.7550 N   0  0  0  0  0  0  0  0  0  0  0  0
   58.6860   34.1960   46.7100 C   0  0  1  0  0  0  0  0  0  0  0  0
   59.5390   35.3250   46.1270 C   0  0  0  0  0  0  0  0  0  0  0  0
   57.3840   33.9740   45.9160 C   0  0  0  0  0  0  0  0  0  0  0  0
   57.5630   32.9890   44.8460 N   0  0  0  0  0  0  0  0  0  0  0  0
   57.2720   31.7240   44.9210 C   0  0  0  0  0  0  0  0  0  0  0  0
   57.9780   30.8850   45.7290 N   0  0  0  0  0  0  0  0  0  0  0  0
   57.6610   29.5670   45.8310 C   0  0  0  0  0  0  0  0  0  0  0  0
   58.4550   28.7050   46.7310 C   0  0  0  0  0  0  0  0  0  0  0  0
   59.0720   29.1660   47.8330 N   0  0  0  0  0  0  0  0  0  0  0  0
   59.6960   28.0790   48.3360 C   0  0  0  0  0  0  0  0  0  0  0  0
   60.5120   28.1320   49.5930 C   0  0  0  0  0  0  0  0  0  0  0  0
   59.9740   28.9960   50.7250 C   0  0  0  0  0  0  0  0  0  0  0  0
   61.1070   29.5080   49.8530 C   0  0  0  0  0  0  0  0  0  0  0  0
   59.5010   26.9520   47.6160 N   0  0  0  0  0  0  0  0  0  0  0  0
   58.7050   27.3480   46.6090 C   0  0  0  0  0  0  0  0  0  0  0  0
   58.1340   26.4180   45.6170 C   0  0  0  0  0  0  0  0  0  0  0  0
   58.3620   26.6750   44.2590 C   0  0  0  0  0  0  0  0  0  0  0  0
   57.7610   25.8840   43.2800 C   0  0  0  0  0  0  0  0  0  0  0  0
   56.9220   24.8330   43.6460 C   0  0  0  0  0  0  0  0  0  0  0  0
   56.6910   24.5480   44.9990 C   0  0  0  0  0  0  0  0  0  0  0  0
   55.8160   23.4750   45.3680 N   0  0  0  0  0  0  0  0  0  0  0  0
   54.1690   23.7280   45.8370 S   0  0  0  0  0  0  0  0  0  0  0  0
   53.8940   22.9580   47.4160 C   0  0  0  0  0  0  0  0  0  0  0  0
   53.2660   23.1020   44.8130 O   0  0  0  0  0  0  0  0  0  0  0  0
   53.8620   25.1980   45.9260 O   0  0  0  0  0  0  0  0  0  0  0  0
   57.3360   25.3090   46.0000 C   0  0  0  0  0  0  0  0  0  0  0  0
   57.1100   24.9670   47.4550 C   0  0  0  0  0  0  0  0  0  0  0  0
   56.6010   29.0560   45.0690 C   0  0  0  0  0  0  0  0  0  0  0  0
   55.8940   29.9260   44.2430 C   0  0  0  0  0  0  0  0  0  0  0  0
   56.2390   31.2380   44.1850 N   0  0  0  0  0  0  0  0  0  0  0  0
   63.1732   31.7274   48.4972 H   0  0  0  0  0  0  0  0  0  0  0  0
   63.2842   30.8331   46.9433 H   0  0  0  0  0  0  0  0  0  0  0  0
   63.2084   32.6278   46.9433 H   0  0  0  0  0  0  0  0  0  0  0  0
   59.2290   32.1880   46.0910 H   0  0  0  0  0  0  0  0  0  0  0  0
   58.3938   34.4905   47.7288 H   0  0  0  0  0  0  0  0  0  0  0  0
   59.9815   35.9107   46.9462 H   0  0  0  0  0  0  0  0  0  0  0  0
   60.3409   34.8965   45.5079 H   0  0  0  0  0  0  0  0  0  0  0  0
   58.9077   35.9793   45.5079 H   0  0  0  0  0  0  0  0  0  0  0  0
   56.6038   33.6156   46.6036 H   0  0  0  0  0  0  0  0  0  0  0  0
   57.0952   34.9308   45.4565 H   0  0  0  0  0  0  0  0  0  0  0  0
   60.8773   27.0959   49.5380 H   0  0  0  0  0  0  0  0  0  0  0  0
   58.9730   29.4452   50.6458 H   0  0  0  0  0  0  0  0  0  0  0  0
   59.8265   28.8575   51.8062 H   0  0  0  0  0  0  0  0  0  0  0  0
   60.9264   30.3282   49.1426 H   0  0  0  0  0  0  0  0  0  0  0  0
   62.1197   29.8939   50.0417 H   0  0  0  0  0  0  0  0  0  0  0  0
   59.0192   27.5059   43.9628 H   0  0  0  0  0  0  0  0  0  0  0  0
   57.9497   26.0902   42.2161 H   0  0  0  0  0  0  0  0  0  0  0  0
   56.4382   24.2235   42.8686 H   0  0  0  0  0  0  0  0  0  0  0  0
   54.1470   23.6665   48.2185 H   0  0  0  0  0  0  0  0  0  0  0  0
   52.8366   22.6676   47.5032 H   0  0  0  0  0  0  0  0  0  0  0  0
   54.5282   22.0635   47.5032 H   0  0  0  0  0  0  0  0  0  0  0  0
   57.6055   25.7169   48.0892 H   0  0  0  0  0  0  0  0  0  0  0  0
   56.0307   24.9628   47.6673 H   0  0  0  0  0  0  0  0  0  0  0  0
   57.5293   23.9725   47.6673 H   0  0  0  0  0  0  0  0  0  0  0  0
   56.3335   27.9904   45.1225 H   0  0  0  0  0  0  0  0  0  0  0  0
   55.0560   29.5504   43.6375 H   0  0  0  0  0  0  0  0  0  0  0  0
  1  2  1  0
  2  3  1  0
  3  4  2  0
  3  5  1  0
  5  6  1  0
  6  7  1  0
  6  8  1  0
  8  9  1  0
  9 10  2  3
 10 11  1  0
 11 12  2  0
 12 13  1  0
 13 14  1  0
 14 15  1  0
 15 16  1  0
 16 17  1  0
 17 18  1  0
 15 19  2  0
 19 20  1  0
 20 21  1  0
 21 22  2  0
 22 23  1  0
 23 24  2  0
 24 25  1  0
 25 26  1  0
 26 27  1  0
 27 28  1  0
 27 29  2  0
 27 30  2  0
 25 31  2  0
 31 32  1  0
 12 33  1  0
 33 34  2  0
 34 35  1  0
 35 10  1  0
 20 13  2  0
 31 21  1  0
 18 16  1  0
  1 36  1  0
  1 37  1  0
  1 38  1  0
  5 39  1  0
  6 40  1  1
  7 41  1  0
  7 42  1  0
  7 43  1  0
  8 44  1  0
  8 45  1  0
 16 46  1  0
 17 47  1  0
 17 48  1  0
 18 49  1  0
 18 50  1  0
 22 51  1  0
 23 52  1  0
 24 53  1  0
 28 54  1  0
 28 55  1  0
 28 56  1  0
 32 57  1  0
 32 58  1  0
 32 59  1  0
 33 60  1  0
 34 61  1  0
M  CHG  3  14  -1  26  -1  35  -1
M  END
>  <UniqueID>  (42) 
39

>  <SMILES>  (42) 
COC(=O)N[C@@H](C)CN=c1nc(-c2[n-]c(C3CC3)nc2-c2cccc([N-]S(C)(=O)=O)c2C)cc[n-]1

>  <Energy>  (42) 
362.1674807515933

>  <Genealogy>  (42) 
COC(=O)NC(C)CN=c1nc(-c2[n-]c(C3CC3)nc2-c2cccc([N-]S(C)(=O)=O)c2C)cc[n-]1 (protonated)
COC(=O)N[C@@H](C)CN=c1nc(-c2[n-]c(C3CC3)nc2-c2cccc([N-]S(C)(=O)=O)c2C)cc[n-]1 (chirality)
COC(=O)N[C@@H](C)CN=c1nc(-c2[n-]c(C3CC3)nc2-c2cccc([N-]S(C)(=O)=O)c2C)cc[n-]1 (3D coordinates assigned)
COC(=O)N[C@@H](C)CN=c1nc(-c2[n-]c(C3CC3)nc2-c2cccc([N-]S(C)(=O)=O)c2C)cc[n-]1 (nonaromatic ring conformer: 362.1674807515933 kcal/mol)

>  <smiles>  (42) 
COC(=O)NC(C)CN=c1nc(-c2[nH]c(C3CC3)nc2-c2cccc(NS(C)(=O)=O)c2C)cc[nH]1

>  <score_type>  (42) 
oracle

>  <origin>  (42) 
adg

>  <m_score__min__energy>  (42) 
-12.050000000000001

>  <m_primary>  (42) 
energy

$$$$
42:0
     RDKit          3D

 54 57  0  0  0  0  0  0  0  0999 V2000
   55.9290   31.3760   51.9710 N   0  0  0  0  0  0  0  0  0  0  0  0
   57.0060   30.4720   51.7030 C   0  0  0  0  0  0  0  0  0  0  0  0
   56.9670   29.3140   52.2020 O   0  0  0  0  0  0  0  0  0  0  0  0
   58.1500   30.8610   50.8400 C   0  0  0  0  0  0  0  0  0  0  0  0
   58.5940   32.1940   50.7700 C   0  0  0  0  0  0  0  0  0  0  0  0
   59.6630   32.5420   49.9410 C   0  0  0  0  0  0  0  0  0  0  0  0
   60.3190   31.5670   49.1740 C   0  0  0  0  0  0  0  0  0  0  0  0
   61.3990   31.9480   48.3040 N   0  0  0  0  0  0  0  0  0  0  0  0
   61.1070   32.5810   47.0130 C   0  0  0  0  0  0  0  0  0  0  0  0
   61.9190   33.8640   46.8700 C   0  0  0  0  0  0  0  0  0  0  0  0
   63.7340   33.5860   46.8830 S   0  0  0  0  0  0  0  0  0  0  0  0
   63.7740   31.8950   47.5870 C   0  0  0  0  0  0  0  0  0  0  0  0
   62.7820   31.7250   48.7390 C   0  0  0  0  0  0  0  0  0  0  0  0
   59.9210   30.2210   49.2760 C   0  0  0  0  0  0  0  0  0  0  0  0
   60.6080   29.2180   48.5100 N   0  0  0  0  0  0  0  0  0  0  0  0
   60.4530   28.9850   47.1020 C   0  0  0  0  0  0  0  0  0  0  0  0
   60.6860   29.9270   46.3000 O   0  0  0  0  0  0  0  0  0  0  0  0
   60.1020   27.6230   46.5600 C   0  0  0  0  0  0  0  0  0  0  0  0
   58.5910   27.4600   46.3650 C   0  0  0  0  0  0  0  0  0  0  0  0
   58.0830   28.3810   45.3440 N   0  0  0  0  0  0  0  0  0  0  0  0
   57.7830   28.0120   43.9980 C   0  0  0  0  0  0  0  0  0  0  0  0
   58.0520   26.8700   43.5380 O   0  0  0  0  0  0  0  0  0  0  0  0
   57.0200   29.2860   42.9910 S   0  0  0  0  0  0  0  0  0  0  0  0
   57.2920   30.4340   44.3470 C   0  0  0  0  0  0  0  0  0  0  0  0
   57.0340   31.7430   44.2000 C   0  0  0  0  0  0  0  0  0  0  0  0
   57.6200   32.8190   45.0150 C   0  0  0  0  0  0  0  0  0  0  0  0
   57.3870   33.0660   46.3650 C   0  0  0  0  0  0  0  0  0  0  0  0
   58.1870   34.0890   46.8850 C   0  0  0  0  0  0  0  0  0  0  0  0
   59.0710   34.6310   45.9610 C   0  0  0  0  0  0  0  0  0  0  0  0
   58.8600   33.8290   44.5000 S   0  0  0  0  0  0  0  0  0  0  0  0
   57.7760   29.7530   45.5550 C   0  0  0  0  0  0  0  0  0  0  0  0
   57.8430   30.2870   46.6950 O   0  0  0  0  0  0  0  0  0  0  0  0
   58.8250   29.8800   50.0880 C   0  0  0  0  0  0  0  0  0  0  0  0
   55.1670   31.0960   52.6290 H   0  0  0  0  0  0  0  0  0  0  0  0
   55.8300   32.2800   51.4590 H   0  0  0  0  0  0  0  0  0  0  0  0
   58.0958   32.9678   51.3724 H   0  0  0  0  0  0  0  0  0  0  0  0
   59.9936   33.5898   49.8889 H   0  0  0  0  0  0  0  0  0  0  0  0
   61.3710   31.8894   46.1994 H   0  0  0  0  0  0  0  0  0  0  0  0
   60.0351   32.8226   46.9617 H   0  0  0  0  0  0  0  0  0  0  0  0
   61.6469   34.3442   45.9185 H   0  0  0  0  0  0  0  0  0  0  0  0
   61.6818   34.4960   47.7385 H   0  0  0  0  0  0  0  0  0  0  0  0
   63.5228   31.1752   46.7941 H   0  0  0  0  0  0  0  0  0  0  0  0
   64.7849   31.7179   47.9830 H   0  0  0  0  0  0  0  0  0  0  0  0
   62.8698   30.7032   49.1367 H   0  0  0  0  0  0  0  0  0  0  0  0
   63.0225   32.4714   49.5104 H   0  0  0  0  0  0  0  0  0  0  0  0
   60.6030   27.4858   45.5904 H   0  0  0  0  0  0  0  0  0  0  0  0
   60.4360   26.8690   47.2879 H   0  0  0  0  0  0  0  0  0  0  0  0
   58.3795   26.4267   46.0525 H   0  0  0  0  0  0  0  0  0  0  0  0
   58.0914   27.6886   47.3180 H   0  0  0  0  0  0  0  0  0  0  0  0
   56.3288   32.0344   43.4077 H   0  0  0  0  0  0  0  0  0  0  0  0
   56.6480   32.5124   46.9628 H   0  0  0  0  0  0  0  0  0  0  0  0
   58.1220   34.4321   47.9281 H   0  0  0  0  0  0  0  0  0  0  0  0
   59.7858   35.4448   46.1527 H   0  0  0  0  0  0  0  0  0  0  0  0
   58.4903   28.8333   50.1366 H   0  0  0  0  0  0  0  0  0  0  0  0
  1  2  1  0
  2  3  2  0
  2  4  1  0
  4  5  2  0
  5  6  1  0
  6  7  2  0
  7  8  1  0
  8  9  1  0
  9 10  1  0
 10 11  1  0
 11 12  1  0
 12 13  1  0
  7 14  1  0
 14 15  1  0
 15 16  1  0
 16 17  2  0
 16 18  1  0
 18 19  1  0
 19 20  1  0
 20 21  1  0
 21 22  2  0
 21 23  1  0
 23 24  1  0
 24 25  2  3
 25 26  1  0
 26 27  2  0
 27 28  1  0
 28 29  2  0
 29 30  1  0
 24 31  1  0
 31 32  2  0
 14 33  2  0
 33  4  1  0
 13  8  1  0
 31 20  1  0
 30 26  1  0
  1 34  1  0
  1 35  1  0
  5 36  1  0
  6 37  1  0
  9 38  1  0
  9 39  1  0
 10 40  1  0
 10 41  1  0
 12 42  1  0
 12 43  1  0
 13 44  1  0
 13 45  1  0
 18 46  1  0
 18 47  1  0
 19 48  1  0
 19 49  1  0
 25 50  1  0
 27 51  1  0
 28 52  1  0
 29 53  1  0
 33 54  1  0
M  CHG  1  15  -1
M  END
>  <UniqueID>  (43) 
40

>  <SMILES>  (43) 
NC(=O)c1ccc(N2CCSCC2)c([N-]C(=O)CCN2C(=O)SC(=Cc3cccs3)C2=O)c1

>  <Energy>  (43) 
117.19189134577574

>  <Genealogy>  (43) 
NC(=O)c1ccc(N2CCSCC2)c([N-]C(=O)CCN2C(=O)SC(=Cc3cccs3)C2=O)c1 (protonated)
NC(=O)c1ccc(N2CCSCC2)c([N-]C(=O)CCN2C(=O)SC(=Cc3cccs3)C2=O)c1 (3D coordinates assigned)
NC(=O)c1ccc(N2CCSCC2)c([N-]C(=O)CCN2C(=O)SC(=Cc3cccs3)C2=O)c1 (nonaromatic ring conformer: 117.19189134577574 kcal/mol)

>  <smiles>  (43) 
NC(=O)c1ccc(N2CCSCC2)c(NC(=O)CCN2C(=O)SC(=Cc3cccs3)C2=O)c1

>  <score_type>  (43) 
oracle

>  <origin>  (43) 
adg

>  <m_score__min__energy>  (43) 
-11.16

>  <m_primary>  (43) 
energy

$$$$
43:0
     RDKit          3D

 58 60  0  0  0  0  0  0  0  0999 V2000
   60.6920   26.6680   47.6990 C   0  0  0  0  0  0  0  0  0  0  0  0
   59.9860   27.5190   46.6690 C   0  0  0  0  0  0  0  0  0  0  0  0
   60.7490   28.4320   45.9310 C   0  0  0  0  0  0  0  0  0  0  0  0
   60.1420   29.2310   44.9780 C   0  0  0  0  0  0  0  0  0  0  0  0
   58.7680   29.1210   44.7340 C   0  0  0  0  0  0  0  0  0  0  0  0
   58.1180   29.9380   43.7420 N   0  0  0  0  0  0  0  0  0  0  0  0
   57.3180   31.4400   44.0980 S   0  0  0  0  0  0  0  0  0  0  0  0
   57.3910   32.3430   42.8950 O   0  0  0  0  0  0  0  0  0  0  0  0
   55.8700   31.1740   44.4110 O   0  0  0  0  0  0  0  0  0  0  0  0
   58.1210   32.2350   45.4490 C   0  0  0  0  0  0  0  0  0  0  0  0
   58.2160   31.6050   46.6980 C   0  0  0  0  0  0  0  0  0  0  0  0
   58.8950   32.2270   47.7500 C   0  0  0  0  0  0  0  0  0  0  0  0
   59.4760   33.4960   47.5680 C   0  0  0  0  0  0  0  0  0  0  0  0
   60.2080   34.1530   48.6710 C   0  0  0  0  0  0  0  0  0  0  0  0
   61.3770   34.5870   48.4800 O   0  0  0  0  0  0  0  0  0  0  0  0
   59.5950   34.3040   49.9230 O   0  0  0  0  0  0  0  0  0  0  0  0
   59.9960   33.5810   51.0860 C   0  0  0  0  0  0  0  0  0  0  0  0
   59.5850   32.1470   50.9730 C   0  0  0  0  0  0  0  0  0  0  0  0
   58.4090   31.8570   50.6340 O   0  0  0  0  0  0  0  0  0  0  0  0
   60.5340   31.1090   51.2140 N   0  0  0  0  0  0  0  0  0  0  0  0
   61.1630   30.3340   50.1470 C   0  0  1  0  0  0  0  0  0  0  0  0
   60.0850   29.6860   49.2830 C   0  0  0  0  0  0  0  0  0  0  0  0
   62.0420   31.2300   49.3050 C   0  0  0  0  0  0  0  0  0  0  0  0
   62.9850   32.0760   49.9180 C   0  0  0  0  0  0  0  0  0  0  0  0
   63.8170   32.8930   49.1400 C   0  0  0  0  0  0  0  0  0  0  0  0
   63.7180   32.8660   47.7470 C   0  0  0  0  0  0  0  0  0  0  0  0
   62.7760   32.0310   47.1280 C   0  0  0  0  0  0  0  0  0  0  0  0
   61.9450   31.2120   47.9010 C   0  0  0  0  0  0  0  0  0  0  0  0
   59.3690   34.1260   46.3150 C   0  0  0  0  0  0  0  0  0  0  0  0
   58.6990   33.4970   45.2620 C   0  0  0  0  0  0  0  0  0  0  0  0
   58.0210   28.2020   45.4960 C   0  0  0  0  0  0  0  0  0  0  0  0
   56.7860   28.0830   45.2690 O   0  0  0  0  0  0  0  0  0  0  0  0
   58.6250   27.4390   46.4690 N   0  0  0  0  0  0  0  0  0  0  0  0
   57.8230   26.4800   47.2590 C   0  0  0  0  0  0  0  0  0  0  0  0
   60.4120   27.0056   48.7078 H   0  0  0  0  0  0  0  0  0  0  0  0
   60.3977   25.6160   47.5695 H   0  0  0  0  0  0  0  0  0  0  0  0
   61.7802   26.7629   47.5695 H   0  0  0  0  0  0  0  0  0  0  0  0
   61.8314   28.5142   46.1088 H   0  0  0  0  0  0  0  0  0  0  0  0
   60.7423   29.9563   44.4093 H   0  0  0  0  0  0  0  0  0  0  0  0
   58.1730   29.6690   42.7350 H   0  0  0  0  0  0  0  0  0  0  0  0
   57.7548   30.6181   46.8507 H   0  0  0  0  0  0  0  0  0  0  0  0
   58.9755   31.7225   48.7241 H   0  0  0  0  0  0  0  0  0  0  0  0
   61.0896   33.6380   51.1896 H   0  0  0  0  0  0  0  0  0  0  0  0
   59.5104   34.0241   51.9680 H   0  0  0  0  0  0  0  0  0  0  0  0
   61.7895   29.5460   50.5903 H   0  0  0  0  0  0  0  0  0  0  0  0
   59.3227   29.2278   49.9302 H   0  0  0  0  0  0  0  0  0  0  0  0
   59.6149   30.4513   48.6480 H   0  0  0  0  0  0  0  0  0  0  0  0
   60.5403   28.9118   48.6480 H   0  0  0  0  0  0  0  0  0  0  0  0
   63.0697   32.0962   51.0145 H   0  0  0  0  0  0  0  0  0  0  0  0
   64.5480   33.5555   49.6266 H   0  0  0  0  0  0  0  0  0  0  0  0
   64.3782   33.4990   47.1359 H   0  0  0  0  0  0  0  0  0  0  0  0
   62.6902   32.0199   46.0314 H   0  0  0  0  0  0  0  0  0  0  0  0
   61.2142   30.5526   47.4100 H   0  0  0  0  0  0  0  0  0  0  0  0
   59.8154   35.1198   46.1629 H   0  0  0  0  0  0  0  0  0  0  0  0
   58.6254   33.9945   44.2837 H   0  0  0  0  0  0  0  0  0  0  0  0
   57.9796   26.6672   48.3316 H   0  0  0  0  0  0  0  0  0  0  0  0
   56.7575   26.6059   47.0165 H   0  0  0  0  0  0  0  0  0  0  0  0
   58.1354   25.4536   47.0165 H   0  0  0  0  0  0  0  0  0  0  0  0
  1  2  1  0
  2  3  2  0
  3  4  1  0
  4  5  2  0
  5  6  1  0
  6  7  1  0
  7  8  2  0
  7  9  2  0
  7 10  1  0
 10 11  2  0
 11 12  1  0
 12 13  2  0
 13 14  1  0
 14 15  2  0
 14 16  1  0
 16 17  1  0
 17 18  1  0
 18 19  2  0
 18 20  1  0
 20 21  1  0
 21 22  1  0
 21 23  1  0
 23 24  2  0
 24 25  1  0
 25 26  2  0
 26 27  1  0
 27 28  2  0
 13 29  1  0
 29 30  2  0
  5 31  1  0
 31 32  2  0
 31 33  1  0
 33 34  1  0
 33  2  1  0
 30 10  1  0
 28 23  1  0
  1 35  1  0
  1 36  1  0
  1 37  1  0
  3 38  1  0
  4 39  1  0
  6 40  1  0
 11 41  1  0
 12 42  1  0
 17 43  1  0
 17 44  1  0
 21 45  1  1
 22 46  1  0
 22 47  1  0
 22 48  1  0
 24 49  1  0
 25 50  1  0
 26 51  1  0
 27 52  1  0
 28 53  1  0
 29 54  1  0
 30 55  1  0
 34 56  1  0
 34 57  1  0
 34 58  1  0
M  CHG  1  20  -1
M  END
>  <UniqueID>  (44) 
41

>  <SMILES>  (44) 
Cc1ccc(NS(=O)(=O)c2ccc(C(=O)OCC(=O)[N-][C@@H](C)c3ccccc3)cc2)c(=O)n1C

>  <Energy>  (44) 
61.83760057088665

>  <Genealogy>  (44) 
Cc1ccc(NS(=O)(=O)c2ccc(C(=O)OCC(=O)[N-]C(C)c3ccccc3)cc2)c(=O)n1C (protonated)
Cc1ccc(NS(=O)(=O)c2ccc(C(=O)OCC(=O)[N-][C@@H](C)c3ccccc3)cc2)c(=O)n1C (chirality)
Cc1ccc(NS(=O)(=O)c2ccc(C(=O)OCC(=O)[N-][C@@H](C)c3ccccc3)cc2)c(=O)n1C (3D coordinates assigned)
Cc1ccc(NS(=O)(=O)c2ccc(C(=O)OCC(=O)[N-][C@@H](C)c3ccccc3)cc2)c(=O)n1C (optimized conformer: 61.83760057088665 kcal/mol)

>  <smiles>  (44) 
Cc1ccc(NS(=O)(=O)c2ccc(C(=O)OCC(=O)NC(C)c3ccccc3)cc2)c(=O)n1C

>  <score_type>  (44) 
oracle

>  <origin>  (44) 
adg

>  <m_score__min__energy>  (44) 
-11.5

>  <m_primary>  (44) 
energy

$$$$
44:0
     RDKit          3D

 39 41  0  0  1  0  0  0  0  0999 V2000
   60.2990   28.7280   45.0030 C   0  0  0  0  0  0  0  0  0  0  0  0
   58.9980   28.7950   45.5370 O   0  0  0  0  0  0  0  0  0  0  0  0
   58.3890   27.5990   45.9040 C   0  0  0  0  0  0  0  0  0  0  0  0
   59.1030   26.5240   46.4040 C   0  0  0  0  0  0  0  0  0  0  0  0
   58.4990   25.3370   46.7680 C   0  0  0  0  0  0  0  0  0  0  0  0
   57.1310   25.2160   46.6300 C   0  0  0  0  0  0  0  0  0  0  0  0
   56.4270   26.2860   46.1320 C   0  0  0  0  0  0  0  0  0  0  0  0
   57.0260   27.4690   45.7690 C   0  0  0  0  0  0  0  0  0  0  0  0
   56.1840   28.5000   45.2680 N   0  0  0  0  0  0  0  0  0  0  0  0
   56.6620   29.4440   44.5390 C   0  0  0  0  0  0  0  0  0  0  0  0
   57.0200   30.6420   45.0630 N   0  0  0  0  0  0  0  0  0  0  0  0
   57.4780   31.3980   44.0330 C   0  0  0  0  0  0  0  0  0  0  0  0
   58.0630   33.0600   44.2480 S   0  0  0  0  0  0  0  0  0  0  0  0
   58.4840   33.4510   45.9140 C   0  0  0  0  0  0  0  0  0  0  0  0
   57.7060   33.9820   46.7350 O   0  0  0  0  0  0  0  0  0  0  0  0
   59.8450   33.1370   46.3870 C   0  0  0  0  0  0  0  0  0  0  0  0
   60.8620   34.0790   46.3470 C   0  0  0  0  0  0  0  0  0  0  0  0
   62.1440   33.8150   46.7820 C   0  0  0  0  0  0  0  0  0  0  0  0
   62.4510   32.5780   47.2790 C   0  0  0  0  0  0  0  0  0  0  0  0
   63.7430   32.3100   47.7180 O   0  0  0  0  0  0  0  0  0  0  0  0
   61.4510   31.6280   47.3260 C   0  0  0  0  0  0  0  0  0  0  0  0
   60.1580   31.8810   46.8920 C   0  0  0  0  0  0  0  0  0  0  0  0
   59.1820   30.9060   46.9540 O   0  0  0  0  0  0  0  0  0  0  0  0
   57.3890   30.6510   42.9220 N   0  0  0  0  0  0  0  0  0  0  0  0
   56.8890   29.4460   43.2130 N   0  0  0  0  0  0  0  0  0  0  0  0
   61.0306   28.6903   45.8235 H   0  0  0  0  0  0  0  0  0  0  0  0
   60.3952   27.8237   44.3841 H   0  0  0  0  0  0  0  0  0  0  0  0
   60.4876   29.6176   44.3841 H   0  0  0  0  0  0  0  0  0  0  0  0
   60.1932   26.6189   46.5156 H   0  0  0  0  0  0  0  0  0  0  0  0
   59.0977   24.5022   47.1612 H   0  0  0  0  0  0  0  0  0  0  0  0
   56.6166   24.2854   46.9119 H   0  0  0  0  0  0  0  0  0  0  0  0
   55.3369   26.1918   46.0189 H   0  0  0  0  0  0  0  0  0  0  0  0
   60.6365   35.0802   45.9512 H   0  0  0  0  0  0  0  0  0  0  0  0
   62.9167   34.5962   46.7295 H   0  0  0  0  0  0  0  0  0  0  0  0
   64.5050   32.3320   47.0760 H   0  0  0  0  0  0  0  0  0  0  0  0
   61.6888   30.6303   47.7235 H   0  0  0  0  0  0  0  0  0  0  0  0
   58.8280   30.3510   46.2110 H   0  0  0  0  0  0  0  0  0  0  0  0
   57.6760   30.9850   41.9690 H   0  0  0  0  0  0  0  0  0  0  0  0
   56.6990   28.6460   42.5730 H   0  0  0  0  0  0  0  0  0  0  0  0
  1  2  1  0
  2  3  1  0
  3  4  2  0
  4  5  1  0
  5  6  2  0
  6  7  1  0
  7  8  2  0
  8  9  1  0
  9 10  2  0
 10 11  1  0
 11 12  2  0
 12 13  1  0
 13 14  1  0
 14 15  2  0
 14 16  1  0
 16 17  2  0
 17 18  1  0
 18 19  2  0
 19 20  1  0
 19 21  1  0
 21 22  2  0
 22 23  1  0
 12 24  1  0
 24 25  1  0
  8  3  1  0
 25 10  1  0
 22 16  1  0
  1 26  1  0
  1 27  1  0
  1 28  1  0
  4 29  1  0
  5 30  1  0
  6 31  1  0
  7 32  1  0
 17 33  1  0
 18 34  1  0
 20 35  1  0
 21 36  1  0
 23 37  1  0
 24 38  1  0
 25 39  1  0
M  END
>  <smiles>  (45) 
COc1ccccc1N=c1nc(SC(=O)c2ccc(O)cc2O)[nH][nH]1

>  <score_type>  (45) 
oracle

>  <origin>  (45) 
adg

>  <m_score__min__energy>  (45) 
-9.2400000000000002

>  <m_primary>  (45) 
energy

$$$$
45:0
     RDKit          3D

 66 69  0  0  0  0  0  0  0  0999 V2000
   51.0920   23.8160   44.0970 C   0  0  0  0  0  0  0  0  0  0  0  0
   52.2140   22.9760   44.4860 N   0  0  0  0  0  0  0  0  0  0  0  0
   53.0280   23.2160   45.6390 C   0  0  0  0  0  0  0  0  0  0  0  0
   52.5190   23.1070   46.7860 O   0  0  0  0  0  0  0  0  0  0  0  0
   54.4370   23.6330   45.5130 C   0  0  0  0  0  0  0  0  0  0  0  0
   55.4250   22.6620   45.2940 C   0  0  0  0  0  0  0  0  0  0  0  0
   56.7630   23.0360   45.1760 C   0  0  0  0  0  0  0  0  0  0  0  0
   57.1280   24.3780   45.2890 C   0  0  0  0  0  0  0  0  0  0  0  0
   56.1590   25.3620   45.5180 C   0  0  0  0  0  0  0  0  0  0  0  0
   56.5860   26.7250   45.6100 N   0  0  0  0  0  0  0  0  0  0  0  0
   58.1770   27.2490   46.0680 S   0  0  0  0  0  0  0  0  0  0  0  0
   59.2240   26.5480   45.2460 O   0  0  0  0  0  0  0  0  0  0  0  0
   58.3730   26.9280   47.5240 O   0  0  0  0  0  0  0  0  0  0  0  0
   58.3180   28.9860   45.7750 C   0  0  0  0  0  0  0  0  0  0  0  0
   59.4930   29.6360   46.1850 C   0  0  0  0  0  0  0  0  0  0  0  0
   59.6410   31.0200   46.0270 C   0  0  0  0  0  0  0  0  0  0  0  0
   60.7730   31.6940   46.5910 N   0  0  0  0  0  0  0  0  0  0  0  0
   60.6910   33.1520   46.6950 C   0  0  0  0  0  0  0  0  0  0  0  0
   62.0840   33.7560   46.8430 C   0  0  0  0  0  0  0  0  0  0  0  0
   62.7970   33.1080   47.9610 N   0  0  0  0  0  0  0  0  0  0  0  0
   64.0720   33.7970   48.2480 C   0  0  0  0  0  0  0  0  0  0  0  0
   64.5200   33.4120   49.6200 C   0  0  0  0  0  0  0  0  0  0  0  0
   65.7500   33.4040   49.9080 O   0  0  0  0  0  0  0  0  0  0  0  0
   63.5520   32.9850   50.5840 N   0  0  0  0  0  0  0  0  0  0  0  0
   62.3240   33.7230   50.8570 C   0  0  0  0  0  0  0  0  0  0  0  0
   61.1290   32.8820   50.4930 C   0  0  0  0  0  0  0  0  0  0  0  0
   60.0100   33.4600   49.8700 C   0  0  0  0  0  0  0  0  0  0  0  0
   58.8880   32.6790   49.5720 C   0  0  0  0  0  0  0  0  0  0  0  0
   58.8750   31.3190   49.8960 C   0  0  0  0  0  0  0  0  0  0  0  0
   59.9880   30.7350   50.5070 C   0  0  0  0  0  0  0  0  0  0  0  0
   61.1130   31.5100   50.8020 C   0  0  0  0  0  0  0  0  0  0  0  0
   62.9990   31.6780   47.6620 C   0  0  0  0  0  0  0  0  0  0  0  0
   61.6430   30.9720   47.5260 C   0  0  0  0  0  0  0  0  0  0  0  0
   58.6170   31.7590   45.4260 C   0  0  0  0  0  0  0  0  0  0  0  0
   57.4430   31.1250   45.0170 C   0  0  0  0  0  0  0  0  0  0  0  0
   57.2650   29.7510   45.2170 C   0  0  0  0  0  0  0  0  0  0  0  0
   56.0280   29.1960   44.8810 O   0  0  0  0  0  0  0  0  0  0  0  0
   54.7990   24.9930   45.5870 C   0  0  0  0  0  0  0  0  0  0  0  0
   53.8110   25.9690   45.6690 O   0  0  0  0  0  0  0  0  0  0  0  0
   50.5871   24.1940   44.9983 H   0  0  0  0  0  0  0  0  0  0  0  0
   51.4584   24.6636   43.4993 H   0  0  0  0  0  0  0  0  0  0  0  0
   50.3819   23.2257   43.4993 H   0  0  0  0  0  0  0  0  0  0  0  0
   55.1433   21.6016   45.2150 H   0  0  0  0  0  0  0  0  0  0  0  0
   57.5325   22.2715   44.9934 H   0  0  0  0  0  0  0  0  0  0  0  0
   58.1859   24.6651   45.1974 H   0  0  0  0  0  0  0  0  0  0  0  0
   60.3079   29.0509   46.6361 H   0  0  0  0  0  0  0  0  0  0  0  0
   60.2168   33.5536   45.7873 H   0  0  0  0  0  0  0  0  0  0  0  0
   60.0941   33.4125   47.5815 H   0  0  0  0  0  0  0  0  0  0  0  0
   62.6491   33.6018   45.9119 H   0  0  0  0  0  0  0  0  0  0  0  0
   61.9916   34.8327   47.0483 H   0  0  0  0  0  0  0  0  0  0  0  0
   64.8310   33.4950   47.5114 H   0  0  0  0  0  0  0  0  0  0  0  0
   63.9335   34.8866   48.1885 H   0  0  0  0  0  0  0  0  0  0  0  0
   62.2802   33.9753   51.9268 H   0  0  0  0  0  0  0  0  0  0  0  0
   62.3144   34.6448   50.2569 H   0  0  0  0  0  0  0  0  0  0  0  0
   60.0161   34.5302   49.6157 H   0  0  0  0  0  0  0  0  0  0  0  0
   58.0152   33.1355   49.0823 H   0  0  0  0  0  0  0  0  0  0  0  0
   57.9884   30.7084   49.6699 H   0  0  0  0  0  0  0  0  0  0  0  0
   59.9786   29.6636   50.7561 H   0  0  0  0  0  0  0  0  0  0  0  0
   61.9892   31.0452   51.2776 H   0  0  0  0  0  0  0  0  0  0  0  0
   63.5573   31.5785   46.7195 H   0  0  0  0  0  0  0  0  0  0  0  0
   63.5659   31.2147   48.4829 H   0  0  0  0  0  0  0  0  0  0  0  0
   61.8041   29.9498   47.1531 H   0  0  0  0  0  0  0  0  0  0  0  0
   61.1574   30.9467   48.5127 H   0  0  0  0  0  0  0  0  0  0  0  0
   58.7372   32.8420   45.2754 H   0  0  0  0  0  0  0  0  0  0  0  0
   56.6487   31.7115   44.5321 H   0  0  0  0  0  0  0  0  0  0  0  0
   55.9240   28.2730   44.4840 H   0  0  0  0  0  0  0  0  0  0  0  0
  1  2  1  0
  2  3  1  0
  3  4  2  0
  3  5  1  0
  5  6  2  0
  6  7  1  0
  7  8  2  0
  8  9  1  0
  9 10  1  0
 10 11  1  0
 11 12  2  0
 11 13  2  0
 11 14  1  0
 14 15  2  0
 15 16  1  0
 16 17  1  0
 17 18  1  0
 18 19  1  0
 19 20  1  0
 20 21  1  0
 21 22  1  0
 22 23  2  0
 22 24  1  0
 24 25  1  0
 25 26  1  0
 26 27  2  0
 27 28  1  0
 28 29  2  0
 29 30  1  0
 30 31  2  0
 20 32  1  0
 32 33  1  0
 16 34  2  0
 34 35  1  0
 35 36  2  0
 36 37  1  0
  9 38  2  0
 38 39  1  0
 38  5  1  0
 36 14  1  0
 33 17  1  0
 31 26  1  0
  1 40  1  0
  1 41  1  0
  1 42  1  0
  6 43  1  0
  7 44  1  0
  8 45  1  0
 15 46  1  0
 18 47  1  0
 18 48  1  0
 19 49  1  0
 19 50  1  0
 21 51  1  0
 21 52  1  0
 25 53  1  0
 25 54  1  0
 27 55  1  0
 28 56  1  0
 29 57  1  0
 30 58  1  0
 31 59  1  0
 32 60  1  0
 32 61  1  0
 33 62  1  0
 33 63  1  0
 34 64  1  0
 35 65  1  0
 37 66  1  0
M  CHG  4   2  -1  10  -1  24  -1  39  -1
M  END
>  <UniqueID>  (46) 
42

>  <SMILES>  (46) 
C[N-]C(=O)c1cccc([N-]S(=O)(=O)c2cc(N3CCN(CC(=O)[N-]Cc4ccccc4)CC3)ccc2O)c1[O-]

>  <Energy>  (46) 
87.01242414267026

>  <Genealogy>  (46) 
C[N-]C(=O)c1cccc([N-]S(=O)(=O)c2cc(N3CCN(CC(=O)[N-]Cc4ccccc4)CC3)ccc2O)c1[O-] (protonated)
C[N-]C(=O)c1cccc([N-]S(=O)(=O)c2cc(N3CCN(CC(=O)[N-]Cc4ccccc4)CC3)ccc2O)c1[O-] (3D coordinates assigned)
C[N-]C(=O)c1cccc([N-]S(=O)(=O)c2cc(N3CCN(CC(=O)[N-]Cc4ccccc4)CC3)ccc2O)c1[O-] (nonaromatic ring conformer: 87.01242414267026 kcal/mol)

>  <smiles>  (46) 
CNC(=O)c1cccc(NS(=O)(=O)c2cc(N3CCN(CC(=O)NCc4ccccc4)CC3)ccc2O)c1O

>  <score_type>  (46) 
oracle

>  <origin>  (46) 
adg

>  <m_score__min__energy>  (46) 
-17.170000000000002

>  <m_primary>  (46) 
energy

$$$$
46:0
     RDKit          3D

 70 73  0  0  0  0  0  0  0  0999 V2000
   51.3930   23.9410   43.6620 C   0  0  0  0  0  0  0  0  0  0  0  0
   51.2870   23.6570   45.1570 C   0  0  0  0  0  0  0  0  0  0  0  0
   52.2530   22.5650   45.6300 C   0  0  0  0  0  0  0  0  0  0  0  0
   53.4730   22.5930   44.8860 O   0  0  0  0  0  0  0  0  0  0  0  0
   54.5060   23.5420   44.9950 C   0  0  0  0  0  0  0  0  0  0  0  0
   54.4360   24.6490   45.8620 C   0  0  0  0  0  0  0  0  0  0  0  0
   55.4880   25.5630   45.9340 C   0  0  0  0  0  0  0  0  0  0  0  0
   56.6420   25.3910   45.1500 C   0  0  0  0  0  0  0  0  0  0  0  0
   57.7850   26.3420   45.2090 C   0  0  0  0  0  0  0  0  0  0  0  0
   58.9220   25.9080   45.5440 O   0  0  0  0  0  0  0  0  0  0  0  0
   57.6280   27.7410   44.8980 N   0  0  0  0  0  0  0  0  0  0  0  0
   58.5540   28.7550   45.3220 C   0  0  0  0  0  0  0  0  0  0  0  0
   58.0700   30.0190   45.6930 C   0  0  0  0  0  0  0  0  0  0  0  0
   58.9460   31.0090   46.1480 C   0  0  0  0  0  0  0  0  0  0  0  0
   60.3220   30.7490   46.2470 C   0  0  0  0  0  0  0  0  0  0  0  0
   61.2210   31.7600   46.7390 N   0  0  0  0  0  0  0  0  0  0  0  0
   62.5890   31.3870   47.1360 C   0  0  0  0  0  0  0  0  0  0  0  0
   63.3570   32.5970   47.6750 C   0  0  0  0  0  0  0  0  0  0  0  0
   62.4850   33.3680   48.5700 N   0  0  0  0  0  0  0  0  0  0  0  0
   62.8420   33.6160   49.9400 C   0  0  0  0  0  0  0  0  0  0  0  0
   62.5710   34.7310   50.4600 O   0  0  0  0  0  0  0  0  0  0  0  0
   63.4620   32.5470   50.7950 C   0  0  0  0  0  0  0  0  0  0  0  0
   62.4470   31.7500   51.4070 O   0  0  0  0  0  0  0  0  0  0  0  0
   61.3850   31.1310   50.7270 C   0  0  0  0  0  0  0  0  0  0  0  0
   60.1570   31.8040   50.6610 C   0  0  0  0  0  0  0  0  0  0  0  0
   59.0700   31.2340   49.9920 C   0  0  0  0  0  0  0  0  0  0  0  0
   59.2000   29.9840   49.3830 C   0  0  0  0  0  0  0  0  0  0  0  0
   60.4170   29.3010   49.4440 C   0  0  0  0  0  0  0  0  0  0  0  0
   61.5050   29.8660   50.1150 C   0  0  0  0  0  0  0  0  0  0  0  0
   61.1710   33.8170   48.0920 C   0  0  0  0  0  0  0  0  0  0  0  0
   60.8090   33.1710   46.7480 C   0  0  0  0  0  0  0  0  0  0  0  0
   60.8050   29.4800   45.8900 C   0  0  0  0  0  0  0  0  0  0  0  0
   59.9300   28.4900   45.4410 C   0  0  0  0  0  0  0  0  0  0  0  0
   56.7070   24.2860   44.2820 C   0  0  0  0  0  0  0  0  0  0  0  0
   55.6490   23.3610   44.2050 C   0  0  0  0  0  0  0  0  0  0  0  0
   55.6970   22.2450   43.3540 O   0  0  0  0  0  0  0  0  0  0  0  0
   56.8870   21.5510   42.9960 C   0  0  0  0  0  0  0  0  0  0  0  0
   51.7739   24.9615   43.5087 H   0  0  0  0  0  0  0  0  0  0  0  0
   52.0822   23.2191   43.1996 H   0  0  0  0  0  0  0  0  0  0  0  0
   50.3993   23.8472   43.1996 H   0  0  0  0  0  0  0  0  0  0  0  0
   51.5096   24.5837   45.7063 H   0  0  0  0  0  0  0  0  0  0  0  0
   50.2653   23.2989   45.3519 H   0  0  0  0  0  0  0  0  0  0  0  0
   52.4790   22.7232   46.6948 H   0  0  0  0  0  0  0  0  0  0  0  0
   51.7741   21.5869   45.4749 H   0  0  0  0  0  0  0  0  0  0  0  0
   53.5437   24.7948   46.4885 H   0  0  0  0  0  0  0  0  0  0  0  0
   55.4135   26.4267   46.6110 H   0  0  0  0  0  0  0  0  0  0  0  0
   56.8320   28.0510   44.3000 H   0  0  0  0  0  0  0  0  0  0  0  0
   56.9930   30.2324   45.6253 H   0  0  0  0  0  0  0  0  0  0  0  0
   58.5547   31.9976   46.4301 H   0  0  0  0  0  0  0  0  0  0  0  0
   62.5380   30.6162   47.9191 H   0  0  0  0  0  0  0  0  0  0  0  0
   63.1174   31.0047   46.2502 H   0  0  0  0  0  0  0  0  0  0  0  0
   64.2414   32.2525   48.2311 H   0  0  0  0  0  0  0  0  0  0  0  0
   63.6774   33.2326   46.8363 H   0  0  0  0  0  0  0  0  0  0  0  0
   64.0986   31.9051   50.1683 H   0  0  0  0  0  0  0  0  0  0  0  0
   64.0652   33.0236   51.5818 H   0  0  0  0  0  0  0  0  0  0  0  0
   60.0479   32.7885   51.1395 H   0  0  0  0  0  0  0  0  0  0  0  0
   58.1110   31.7707   49.9452 H   0  0  0  0  0  0  0  0  0  0  0  0
   58.3443   29.5374   48.8554 H   0  0  0  0  0  0  0  0  0  0  0  0
   60.5192   28.3169   48.9632 H   0  0  0  0  0  0  0  0  0  0  0  0
   62.4594   29.3215   50.1661 H   0  0  0  0  0  0  0  0  0  0  0  0
   60.4081   33.5447   48.8362 H   0  0  0  0  0  0  0  0  0  0  0  0
   61.2099   34.9072   47.9508 H   0  0  0  0  0  0  0  0  0  0  0  0
   59.7214   33.2335   46.5954 H   0  0  0  0  0  0  0  0  0  0  0  0
   61.3314   33.7040   45.9399 H   0  0  0  0  0  0  0  0  0  0  0  0
   61.8811   29.2645   45.9648 H   0  0  0  0  0  0  0  0  0  0  0  0
   60.3193   27.4953   45.1783 H   0  0  0  0  0  0  0  0  0  0  0  0
   57.5985   24.1426   43.6537 H   0  0  0  0  0  0  0  0  0  0  0  0
   57.4189   21.2408   43.9075 H   0  0  0  0  0  0  0  0  0  0  0  0
   56.6284   20.6621   42.4019 H   0  0  0  0  0  0  0  0  0  0  0  0
   57.5334   22.2138   42.4019 H   0  0  0  0  0  0  0  0  0  0  0  0
  1  2  1  0
  2  3  1  0
  3  4  1  0
  4  5  1  0
  5  6  2  0
  6  7  1  0
  7  8  2  0
  8  9  1  0
  9 10  2  0
  9 11  1  0
 11 12  1  0
 12 13  2  0
 13 14  1  0
 14 15  2  0
 15 16  1  0
 16 17  1  0
 17 18  1  0
 18 19  1  0
 19 20  1  0
 20 21  2  0
 20 22  1  0
 22 23  1  0
 23 24  1  0
 24 25  2  0
 25 26  1  0
 26 27  2  0
 27 28  1  0
 28 29  2  0
 19 30  1  0
 30 31  1  0
 15 32  1  0
 32 33  2  0
  8 34  1  0
 34 35  2  0
 35 36  1  0
 36 37  1  0
 35  5  1  0
 33 12  1  0
 31 16  1  0
 29 24  1  0
  1 38  1  0
  1 39  1  0
  1 40  1  0
  2 41  1  0
  2 42  1  0
  3 43  1  0
  3 44  1  0
  6 45  1  0
  7 46  1  0
 11 47  1  0
 13 48  1  0
 14 49  1  0
 17 50  1  0
 17 51  1  0
 18 52  1  0
 18 53  1  0
 22 54  1  0
 22 55  1  0
 25 56  1  0
 26 57  1  0
 27 58  1  0
 28 59  1  0
 29 60  1  0
 30 61  1  0
 30 62  1  0
 31 63  1  0
 31 64  1  0
 32 65  1  0
 33 66  1  0
 34 67  1  0
 37 68  1  0
 37 69  1  0
 37 70  1  0
M  END
>  <UniqueID>  (47) 
43

>  <SMILES>  (47) 
CCCOc1ccc(C(=O)Nc2ccc(N3CCN(C(=O)COc4ccccc4)CC3)cc2)cc1OC

>  <Energy>  (47) 
82.32834838694676

>  <Genealogy>  (47) 
CCCOc1ccc(C(=O)Nc2ccc(N3CCN(C(=O)COc4ccccc4)CC3)cc2)cc1OC (3D coordinates assigned)
CCCOc1ccc(C(=O)Nc2ccc(N3CCN(C(=O)COc4ccccc4)CC3)cc2)cc1OC (nonaromatic ring conformer: 82.32834838694676 kcal/mol)

>  <smiles>  (47) 
CCCOc1ccc(C(=O)Nc2ccc(N3CCN(C(=O)COc4ccccc4)CC3)cc2)cc1OC

>  <score_type>  (47) 
oracle

>  <origin>  (47) 
adg

>  <m_score__min__energy>  (47) 
-6.9900000000000002

>  <m_primary>  (47) 
energy

$$$$
47:0
     RDKit          3D

 45 48  0  0  0  0  0  0  0  0999 V2000
   57.8110   27.8240   44.3670 C   0  0  0  0  0  0  0  0  0  0  0  0
   56.5960   28.8820   45.2120 S   0  0  0  0  0  0  0  0  0  0  0  0
   57.0710   30.3470   44.3030 C   0  0  0  0  0  0  0  0  0  0  0  0
   56.7320   30.4740   42.9940 N   0  0  0  0  0  0  0  0  0  0  0  0
   57.0850   31.5800   42.2890 C   0  0  0  0  0  0  0  0  0  0  0  0
   57.8020   32.6030   42.9080 C   0  0  0  0  0  0  0  0  0  0  0  0
   58.1480   32.4600   44.2600 C   0  0  0  0  0  0  0  0  0  0  0  0
   58.9060   33.5130   44.9710 C   0  0  0  0  0  0  0  0  0  0  0  0
   58.9520   34.6800   44.4940 O   0  0  0  0  0  0  0  0  0  0  0  0
   59.5870   33.2160   46.2010 N   0  0  0  0  0  0  0  0  0  0  0  0
   60.2860   34.2480   46.9740 C   0  0  1  0  0  0  0  0  0  0  0  0
   59.5310   34.5380   48.2930 C   0  0  0  0  0  0  0  0  0  0  0  0
   59.7370   33.4170   49.3350 C   0  0  0  0  0  0  0  0  0  0  0  0
   61.2240   33.2480   49.7100 C   0  0  0  0  0  0  0  0  0  0  0  0
   62.0830   33.2460   48.4750 C   0  0  0  0  0  0  0  0  0  0  0  0
   61.6830   33.7940   47.2820 C   0  0  0  0  0  0  0  0  0  0  0  0
   62.8050   33.7980   46.4800 C   0  0  0  0  0  0  0  0  0  0  0  0
   63.8450   33.3070   47.1870 N   0  0  0  0  0  0  0  0  0  0  0  0
   63.4050   32.9780   48.3950 N   0  0  0  0  0  0  0  0  0  0  0  0
   64.2550   32.4690   49.4320 C   0  0  0  0  0  0  0  0  0  0  0  0
   65.4740   33.1000   49.7290 C   0  0  0  0  0  0  0  0  0  0  0  0
   66.2900   32.6110   50.7530 C   0  0  0  0  0  0  0  0  0  0  0  0
   65.8900   31.4970   51.4950 C   0  0  0  0  0  0  0  0  0  0  0  0
   64.6700   30.8740   51.2200 C   0  0  0  0  0  0  0  0  0  0  0  0
   63.8490   31.3600   50.1960 C   0  0  0  0  0  0  0  0  0  0  0  0
   62.6710   30.7400   49.9350 F   0  0  0  0  0  0  0  0  0  0  0  0
   57.7720   31.3320   44.9230 N   0  0  0  0  0  0  0  0  0  0  0  0
   58.4192   27.2944   45.1151 H   0  0  0  0  0  0  0  0  0  0  0  0
   57.2844   27.0916   43.7375 H   0  0  0  0  0  0  0  0  0  0  0  0
   58.4641   28.4463   43.7375 H   0  0  0  0  0  0  0  0  0  0  0  0
   56.8050   31.6686   41.2289 H   0  0  0  0  0  0  0  0  0  0  0  0
   58.0907   33.5043   42.3474 H   0  0  0  0  0  0  0  0  0  0  0  0
   59.5290   32.2500   46.5940 H   0  0  0  0  0  0  0  0  0  0  0  0
   60.3240   35.1705   46.3760 H   0  0  0  0  0  0  0  0  0  0  0  0
   59.9001   35.4854   48.7127 H   0  0  0  0  0  0  0  0  0  0  0  0
   58.4567   34.5964   48.0642 H   0  0  0  0  0  0  0  0  0  0  0  0
   59.1672   33.6656   50.2425 H   0  0  0  0  0  0  0  0  0  0  0  0
   59.3866   32.4722   48.8939 H   0  0  0  0  0  0  0  0  0  0  0  0
   61.5295   34.0797   50.3619 H   0  0  0  0  0  0  0  0  0  0  0  0
   61.3517   32.2888   50.2331 H   0  0  0  0  0  0  0  0  0  0  0  0
   62.8458   34.1441   45.4367 H   0  0  0  0  0  0  0  0  0  0  0  0
   65.7880   33.9831   49.1531 H   0  0  0  0  0  0  0  0  0  0  0  0
   67.2481   33.1038   50.9748 H   0  0  0  0  0  0  0  0  0  0  0  0
   66.5362   31.1099   52.2966 H   0  0  0  0  0  0  0  0  0  0  0  0
   64.3543   30.0003   51.8091 H   0  0  0  0  0  0  0  0  0  0  0  0
  1  2  1  0
  2  3  1  0
  3  4  2  0
  4  5  1  0
  5  6  2  0
  6  7  1  0
  7  8  1  0
  8  9  2  0
  8 10  1  0
 10 11  1  0
 11 12  1  0
 12 13  1  0
 13 14  1  0
 14 15  1  0
 15 16  2  0
 16 17  1  0
 17 18  2  0
 18 19  1  0
 19 20  1  0
 20 21  2  0
 21 22  1  0
 22 23  2  0
 23 24  1  0
 24 25  2  0
 25 26  1  0
  7 27  2  0
 27  3  1  0
 16 11  1  0
 25 20  1  0
 19 15  1  0
  1 28  1  0
  1 29  1  0
  1 30  1  0
  5 31  1  0
  6 32  1  0
 10 33  1  0
 11 34  1  6
 12 35  1  0
 12 36  1  0
 13 37  1  0
 13 38  1  0
 14 39  1  0
 14 40  1  0
 17 41  1  0
 21 42  1  0
 22 43  1  0
 23 44  1  0
 24 45  1  0
M  END
>  <UniqueID>  (48) 
44

>  <SMILES>  (48) 
CSc1nccc(C(=O)N[C@H]2CCCc3c2cnn3-c2ccccc2F)n1

>  <Energy>  (48) 
81.1908223731785

>  <Genealogy>  (48) 
CSc1nccc(C(=O)N[C@H]2CCCc3c2cnn3-c2ccccc2F)n1 (chirality)
CSc1nccc(C(=O)N[C@H]2CCCc3c2cnn3-c2ccccc2F)n1 (3D coordinates assigned)
CSc1nccc(C(=O)N[C@H]2CCCc3c2cnn3-c2ccccc2F)n1 (nonaromatic ring conformer: 81.1908223731785 kcal/mol)

>  <smiles>  (48) 
CSc1nccc(C(=O)NC2CCCc3c2cnn3-c2ccccc2F)n1

>  <score_type>  (48) 
oracle

>  <origin>  (48) 
adg

>  <m_score__min__energy>  (48) 
-8.75

>  <m_primary>  (48) 
energy

$$$$
48:0
     RDKit          3D

 48 51  0  0  0  0  0  0  0  0999 V2000
   57.0230   26.6240   44.4840 O   0  0  0  0  0  0  0  0  0  0  0  0
   58.0530   26.4570   45.1930 C   0  0  0  0  0  0  0  0  0  0  0  0
   58.6650   27.5760   45.8540 N   0  0  0  0  0  0  0  0  0  0  0  0
   58.0860   28.8910   45.8920 C   0  0  0  0  0  0  0  0  0  0  0  0
   56.8640   29.0500   45.6240 O   0  0  0  0  0  0  0  0  0  0  0  0
   58.8820   30.0680   46.3040 C   0  0  0  0  0  0  0  0  0  0  0  0
   58.4770   31.3020   45.8970 N   0  0  0  0  0  0  0  0  0  0  0  0
   59.1510   32.4310   46.2370 C   0  0  0  0  0  0  0  0  0  0  0  0
   58.5860   33.9770   45.6250 Cl  0  0  0  0  0  0  0  0  0  0  0  0
   60.3060   32.3280   47.0280 C   0  0  0  0  0  0  0  0  0  0  0  0
   61.0470   33.4920   47.4250 N   0  0  0  0  0  0  0  0  0  0  0  0
   60.4550   34.4430   48.3660 C   0  0  0  0  0  0  0  0  0  0  0  0
   60.9280   34.1040   49.7810 C   0  0  0  0  0  0  0  0  0  0  0  0
   62.4140   33.8230   49.8380 C   0  0  0  0  0  0  0  0  0  0  0  0
   63.0570   33.8220   51.0860 C   0  0  0  0  0  0  0  0  0  0  0  0
   64.4160   33.5080   51.1830 C   0  0  0  0  0  0  0  0  0  0  0  0
   65.0440   33.5160   52.4210 O   0  0  0  0  0  0  0  0  0  0  0  0
   65.1420   33.1840   50.0350 C   0  0  0  0  0  0  0  0  0  0  0  0
   64.5130   33.1680   48.7880 C   0  0  0  0  0  0  0  0  0  0  0  0
   63.1470   33.4680   48.6780 C   0  0  0  0  0  0  0  0  0  0  0  0
   62.5070   33.5030   47.3120 C   0  0  0  0  0  0  0  0  0  0  0  0
   60.7350   31.0950   47.4070 N   0  0  0  0  0  0  0  0  0  0  0  0
   60.0620   29.9650   47.0660 C   0  0  0  0  0  0  0  0  0  0  0  0
   60.5240   28.8450   47.4130 O   0  0  0  0  0  0  0  0  0  0  0  0
   58.6570   25.1590   45.2970 N   0  0  0  0  0  0  0  0  0  0  0  0
   58.0330   23.9390   44.8570 C   0  0  0  0  0  0  0  0  0  0  0  0
   58.3320   22.7030   45.4580 C   0  0  0  0  0  0  0  0  0  0  0  0
   57.7290   21.5300   44.9960 C   0  0  0  0  0  0  0  0  0  0  0  0
   56.8310   21.5750   43.9210 C   0  0  0  0  0  0  0  0  0  0  0  0
   56.2230   20.4130   43.4520 O   0  0  0  0  0  0  0  0  0  0  0  0
   56.5470   22.7990   43.3070 C   0  0  0  0  0  0  0  0  0  0  0  0
   57.1510   23.9730   43.7670 C   0  0  0  0  0  0  0  0  0  0  0  0
   59.5520   27.4040   46.3790 H   0  0  0  0  0  0  0  0  0  0  0  0
   60.7711   35.4641   48.1062 H   0  0  0  0  0  0  0  0  0  0  0  0
   59.3579   34.3809   48.3161 H   0  0  0  0  0  0  0  0  0  0  0  0
   60.7031   34.9538   50.4423 H   0  0  0  0  0  0  0  0  0  0  0  0
   60.4008   33.1938   50.1030 H   0  0  0  0  0  0  0  0  0  0  0  0
   62.4876   34.0700   51.9939 H   0  0  0  0  0  0  0  0  0  0  0  0
   66.2119   32.9408   50.1129 H   0  0  0  0  0  0  0  0  0  0  0  0
   65.0922   32.9187   47.8867 H   0  0  0  0  0  0  0  0  0  0  0  0
   62.8220   34.4179   46.7888 H   0  0  0  0  0  0  0  0  0  0  0  0
   62.8253   32.6132   46.7490 H   0  0  0  0  0  0  0  0  0  0  0  0
   59.6440   25.1090   45.6370 H   0  0  0  0  0  0  0  0  0  0  0  0
   59.0438   22.6595   46.2956 H   0  0  0  0  0  0  0  0  0  0  0  0
   57.9599   20.5684   45.4776 H   0  0  0  0  0  0  0  0  0  0  0  0
   56.7260   19.5330   43.4090 H   0  0  0  0  0  0  0  0  0  0  0  0
   55.8465   22.8382   42.4598 H   0  0  0  0  0  0  0  0  0  0  0  0
   56.9329   24.9301   43.2706 H   0  0  0  0  0  0  0  0  0  0  0  0
  1  2  2  0
  2  3  1  0
  3  4  1  0
  4  5  2  0
  4  6  1  0
  6  7  2  0
  7  8  1  0
  8  9  1  0
  8 10  2  0
 10 11  1  0
 11 12  1  0
 12 13  1  0
 13 14  1  0
 14 15  2  0
 15 16  1  0
 16 17  1  0
 16 18  2  0
 18 19  1  0
 19 20  2  0
 20 21  1  0
 10 22  1  0
 22 23  1  0
 23 24  2  0
  2 25  1  0
 25 26  1  0
 26 27  2  0
 27 28  1  0
 28 29  2  0
 29 30  1  0
 29 31  1  0
 31 32  2  0
 23  6  1  0
 32 26  1  0
 21 11  1  0
 20 14  1  0
  3 33  1  0
 12 34  1  0
 12 35  1  0
 13 36  1  0
 13 37  1  0
 15 38  1  0
 18 39  1  0
 19 40  1  0
 21 41  1  0
 21 42  1  0
 25 43  1  0
 27 44  1  0
 28 45  1  0
 30 46  1  0
 31 47  1  0
 32 48  1  0
M  CHG  2  17  -1  22  -1
M  END
>  <UniqueID>  (49) 
45

>  <SMILES>  (49) 
O=C(NC(=O)c1nc(Cl)c(N2CCc3cc([O-])ccc3C2)[n-]c1=O)Nc1ccc(O)cc1

>  <Energy>  (49) 
68.49777638910369

>  <Genealogy>  (49) 
O=C(NC(=O)c1nc(Cl)c(N2CCc3cc([O-])ccc3C2)[n-]c1=O)Nc1ccc(O)cc1 (protonated)
O=C(NC(=O)c1nc(Cl)c(N2CCc3cc([O-])ccc3C2)[n-]c1=O)Nc1ccc(O)cc1 (3D coordinates assigned)
O=C(NC(=O)c1nc(Cl)c(N2CCc3cc([O-])ccc3C2)[n-]c1=O)Nc1ccc(O)cc1 (nonaromatic ring conformer: 68.49777638910369 kcal/mol)

>  <smiles>  (49) 
O=C(NC(=O)c1nc(Cl)c(N2CCc3cc(O)ccc3C2)[nH]c1=O)Nc1ccc(O)cc1

>  <score_type>  (49) 
oracle

>  <origin>  (49) 
adg

>  <m_score__min__energy>  (49) 
-10.73

>  <m_primary>  (49) 
energy

$$$$
49:0
     RDKit          3D

 47 50  0  0  0  0  0  0  0  0999 V2000
   57.5410   29.6980   45.8280 O   0  0  0  0  0  0  0  0  0  0  0  0
   58.4590   30.3170   46.4280 C   0  0  0  0  0  0  0  0  0  0  0  0
   59.8350   29.7310   46.4710 C   0  0  0  0  0  0  0  0  0  0  0  0
   60.4170   29.8740   47.8240 N   0  0  0  0  0  0  0  0  0  0  0  0
   59.9360   29.0800   48.8410 C   0  0  0  0  0  0  0  0  0  0  0  0
   58.9990   28.2600   48.6380 O   0  0  0  0  0  0  0  0  0  0  0  0
   60.4780   29.1670   50.1230 C   0  0  0  0  0  0  0  0  0  0  0  0
   61.4710   30.0480   50.3820 N   0  0  0  0  0  0  0  0  0  0  0  0
   61.9490   30.8700   49.4110 C   0  0  0  0  0  0  0  0  0  0  0  0
   62.9700   31.7840   49.7120 C   0  0  0  0  0  0  0  0  0  0  0  0
   63.4590   32.6440   48.7300 C   0  0  0  0  0  0  0  0  0  0  0  0
   62.9310   32.6010   47.4400 C   0  0  0  0  0  0  0  0  0  0  0  0
   61.9170   31.6920   47.1220 C   0  0  0  0  0  0  0  0  0  0  0  0
   61.4100   30.7980   48.0990 C   0  0  0  0  0  0  0  0  0  0  0  0
   58.1960   31.5410   47.1180 N   0  0  0  0  0  0  0  0  0  0  0  0
   58.6890   32.8560   46.8130 C   0  0  0  0  0  0  0  0  0  0  0  0
   58.7120   33.3560   45.4960 C   0  0  0  0  0  0  0  0  0  0  0  0
   59.1850   34.6450   45.2380 C   0  0  0  0  0  0  0  0  0  0  0  0
   59.6540   35.4420   46.2840 C   0  0  0  0  0  0  0  0  0  0  0  0
   59.6570   34.9490   47.5920 C   0  0  0  0  0  0  0  0  0  0  0  0
   59.1900   33.6550   47.8620 C   0  0  0  0  0  0  0  0  0  0  0  0
   59.2290   33.1630   49.2110 N   0  0  0  0  0  0  0  0  0  0  0  0
   58.3160   32.1030   49.6380 C   0  0  0  0  0  0  0  0  0  0  0  0
   57.8990   32.3490   51.0900 C   0  0  0  0  0  0  0  0  0  0  0  0
   59.0340   32.5220   51.9180 O   0  0  0  0  0  0  0  0  0  0  0  0
   59.7310   33.6950   51.5420 C   0  0  0  0  0  0  0  0  0  0  0  0
   60.2990   33.5590   50.1260 C   0  0  0  0  0  0  0  0  0  0  0  0
   59.7822   28.6636   46.2106 H   0  0  0  0  0  0  0  0  0  0  0  0
   60.4721   30.2658   45.7512 H   0  0  0  0  0  0  0  0  0  0  0  0
   60.0971   28.5178   50.9252 H   0  0  0  0  0  0  0  0  0  0  0  0
   61.8610   30.0880   51.3520 H   0  0  0  0  0  0  0  0  0  0  0  0
   63.3871   31.8222   50.7291 H   0  0  0  0  0  0  0  0  0  0  0  0
   64.2612   33.3565   48.9726 H   0  0  0  0  0  0  0  0  0  0  0  0
   63.3140   33.2855   46.6688 H   0  0  0  0  0  0  0  0  0  0  0  0
   61.5076   31.6702   46.1013 H   0  0  0  0  0  0  0  0  0  0  0  0
   58.3555   32.7279   44.6662 H   0  0  0  0  0  0  0  0  0  0  0  0
   59.1879   35.0328   44.2086 H   0  0  0  0  0  0  0  0  0  0  0  0
   60.0213   36.4583   46.0787 H   0  0  0  0  0  0  0  0  0  0  0  0
   60.0277   35.5795   48.4136 H   0  0  0  0  0  0  0  0  0  0  0  0
   57.4241   32.1049   48.9942 H   0  0  0  0  0  0  0  0  0  0  0  0
   58.8203   31.1286   49.5595 H   0  0  0  0  0  0  0  0  0  0  0  0
   57.2767   33.2548   51.1377 H   0  0  0  0  0  0  0  0  0  0  0  0
   57.3332   31.4756   51.4464 H   0  0  0  0  0  0  0  0  0  0  0  0
   59.0404   34.5506   51.5730 H   0  0  0  0  0  0  0  0  0  0  0  0
   60.5643   33.8504   52.2431 H   0  0  0  0  0  0  0  0  0  0  0  0
   60.7190   34.5235   49.8045 H   0  0  0  0  0  0  0  0  0  0  0  0
   61.0909   32.7955   50.1188 H   0  0  0  0  0  0  0  0  0  0  0  0
  1  2  2  0
  2  3  1  0
  3  4  1  0
  4  5  1  0
  5  6  2  0
  5  7  1  0
  7  8  2  0
  8  9  1  0
  9 10  2  0
 10 11  1  0
 11 12  2  0
 12 13  1  0
 13 14  2  0
  2 15  1  0
 15 16  1  0
 16 17  2  0
 17 18  1  0
 18 19  2  0
 19 20  1  0
 20 21  2  0
 21 22  1  0
 22 23  1  0
 23 24  1  0
 24 25  1  0
 25 26  1  0
 26 27  1  0
 14  4  1  0
 21 16  1  0
 27 22  1  0
 14  9  1  0
  3 28  1  0
  3 29  1  0
  7 30  1  0
  8 31  1  0
 10 32  1  0
 11 33  1  0
 12 34  1  0
 13 35  1  0
 17 36  1  0
 18 37  1  0
 19 38  1  0
 20 39  1  0
 23 40  1  0
 23 41  1  0
 24 42  1  0
 24 43  1  0
 26 44  1  0
 26 45  1  0
 27 46  1  0
 27 47  1  0
M  CHG  2   8   1  15  -1
M  END
>  <UniqueID>  (50) 
46

>  <SMILES>  (50) 
O=C(Cn1c(=O)c[nH+]c2ccccc21)[N-]c1ccccc1N1CCOCC1

>  <Energy>  (50) 
68.58646571796298

>  <Genealogy>  (50) 
O=C(Cn1c(=O)c[nH+]c2ccccc21)[N-]c1ccccc1N1CCOCC1 (protonated)
O=C(Cn1c(=O)c[nH+]c2ccccc21)[N-]c1ccccc1N1CCOCC1 (3D coordinates assigned)
O=C(Cn1c(=O)c[nH+]c2ccccc21)[N-]c1ccccc1N1CCOCC1 (nonaromatic ring conformer: 68.58646571796298 kcal/mol)

>  <smiles>  (50) 
O=C(Cn1c(=O)cnc2ccccc21)Nc1ccccc1N1CCOCC1

>  <score_type>  (50) 
oracle

>  <origin>  (50) 
adg

>  <m_score__min__energy>  (50) 
-7.7800000000000002

>  <m_primary>  (50) 
energy

$$$$
50:0
     RDKit          3D

 28 30  0  0  0  0  0  0  0  0999 V2000
   59.4810   27.4800   44.8620 O   0  0  0  0  0  0  0  0  0  0  0  0
   58.6720   28.0780   45.6220 C   0  0  0  0  0  0  0  0  0  0  0  0
   58.7740   27.8640   47.1040 C   0  0  0  0  0  0  0  0  0  0  0  0
   58.8330   26.0820   47.5030 S   0  0  0  0  0  0  0  0  0  0  0  0
   57.3420   25.6800   46.5900 C   0  0  0  0  0  0  0  0  0  0  0  0
   56.1610   26.3180   46.7460 N   0  0  0  0  0  0  0  0  0  0  0  0
   55.2920   25.7560   45.9080 N   0  0  0  0  0  0  0  0  0  0  0  0
   55.9660   24.7870   45.2630 C   0  0  0  0  0  0  0  0  0  0  0  0
   55.4690   23.9300   44.2850 C   0  0  0  0  0  0  0  0  0  0  0  0
   56.3590   22.9890   43.7380 C   0  0  0  0  0  0  0  0  0  0  0  0
   57.6980   22.9320   44.1780 C   0  0  0  0  0  0  0  0  0  0  0  0
   58.1390   23.8250   45.1690 C   0  0  0  0  0  0  0  0  0  0  0  0
   57.2410   24.7130   45.6640 N   0  0  0  0  0  0  0  0  0  0  0  0
   57.6350   28.9500   45.0370 C   0  0  0  0  0  0  0  0  0  0  0  0
   57.8380   30.2460   44.6000 C   0  0  0  0  0  0  0  0  0  0  0  0
   56.6190   30.6910   44.1260 C   0  0  0  0  0  0  0  0  0  0  0  0
   55.7280   29.6500   44.2920 C   0  0  0  0  0  0  0  0  0  0  0  0
   56.3490   28.5930   44.8470 N   0  0  0  0  0  0  0  0  0  0  0  0
   59.6900   28.3467   47.4754 H   0  0  0  0  0  0  0  0  0  0  0  0
   57.8868   28.3025   47.5842 H   0  0  0  0  0  0  0  0  0  0  0  0
   54.4217   23.9868   43.9534 H   0  0  0  0  0  0  0  0  0  0  0  0
   56.0088   22.2926   42.9618 H   0  0  0  0  0  0  0  0  0  0  0  0
   58.3916   22.1941   43.7486 H   0  0  0  0  0  0  0  0  0  0  0  0
   59.1774   23.8047   45.5312 H   0  0  0  0  0  0  0  0  0  0  0  0
   58.7819   30.8103   44.6248 H   0  0  0  0  0  0  0  0  0  0  0  0
   56.4011   31.6813   43.6997 H   0  0  0  0  0  0  0  0  0  0  0  0
   54.6648   29.6800   44.0114 H   0  0  0  0  0  0  0  0  0  0  0  0
   55.9040   27.6780   45.0780 H   0  0  0  0  0  0  0  0  0  0  0  0
  1  2  2  0
  2  3  1  0
  3  4  1  0
  4  5  1  0
  5  6  2  0
  6  7  1  0
  7  8  2  0
  8  9  1  0
  9 10  2  0
 10 11  1  0
 11 12  2  0
 12 13  1  0
  2 14  1  0
 14 15  2  0
 15 16  1  0
 16 17  2  0
 17 18  1  0
 13  5  1  0
 18 14  1  0
 13  8  1  0
  3 19  1  0
  3 20  1  0
  9 21  1  0
 10 22  1  0
 11 23  1  0
 12 24  1  0
 15 25  1  0
 16 26  1  0
 17 27  1  0
 18 28  1  0
M  END
>  <UniqueID>  (51) 
47

>  <SMILES>  (51) 
O=C(CSc1nnc2ccccn12)c1ccc[nH]1

>  <Energy>  (51) 
91.617407966026

>  <Genealogy>  (51) 
O=C(CSc1nnc2ccccn12)c1ccc[nH]1 (3D coordinates assigned)
O=C(CSc1nnc2ccccn12)c1ccc[nH]1 (optimized conformer: 91.617407966026 kcal/mol)

>  <smiles>  (51) 
O=C(CSc1nnc2ccccn12)c1ccc[nH]1

>  <score_type>  (51) 
oracle

>  <origin>  (51) 
adg

>  <m_score__min__energy>  (51) 
-6.4000000000000004

>  <m_primary>  (51) 
energy

$$$$
51:0
     RDKit          3D

 33 33  0  0  0  0  0  0  0  0999 V2000
   59.2940   31.0210   46.0650 C   0  0  0  0  0  0  0  0  0  0  0  0
   58.6750   29.6150   46.0300 C   0  0  0  0  0  0  0  0  0  0  0  0
   58.1570   29.2100   44.7060 N   0  0  0  0  0  0  0  0  0  0  0  0
   58.1800   27.7490   44.4750 C   0  0  0  0  0  0  0  0  0  0  0  0
   58.0830   27.0120   45.8150 C   0  0  0  0  0  0  0  0  0  0  0  0
   57.3560   25.6960   45.6720 C   0  0  0  0  0  0  0  0  0  0  0  0
   58.1070   24.5310   45.4270 C   0  0  0  0  0  0  0  0  0  0  0  0
   57.4740   23.2990   45.2560 C   0  0  0  0  0  0  0  0  0  0  0  0
   56.0830   23.2120   45.3210 C   0  0  0  0  0  0  0  0  0  0  0  0
   55.3220   24.3590   45.5530 C   0  0  0  0  0  0  0  0  0  0  0  0
   55.9410   25.6040   45.7200 C   0  0  0  0  0  0  0  0  0  0  0  0
   55.1240   26.7180   45.9250 O   0  0  0  0  0  0  0  0  0  0  0  0
   56.6110   29.9270   44.3020 S   0  0  0  0  0  0  0  0  0  0  0  0
   56.3160   29.8490   42.5480 C   0  0  0  0  0  0  0  0  0  0  0  0
   56.5610   31.3590   44.7580 O   0  0  0  0  0  0  0  0  0  0  0  0
   55.5200   29.1600   44.9940 O   0  0  0  0  0  0  0  0  0  0  0  0
   59.4322   31.3349   47.1102 H   0  0  0  0  0  0  0  0  0  0  0  0
   60.2685   31.0054   45.5549 H   0  0  0  0  0  0  0  0  0  0  0  0
   58.6245   31.7292   45.5549 H   0  0  0  0  0  0  0  0  0  0  0  0
   59.4460   28.8917   46.3340 H   0  0  0  0  0  0  0  0  0  0  0  0
   57.8127   29.6339   46.7127 H   0  0  0  0  0  0  0  0  0  0  0  0
   57.3278   27.4659   43.8396 H   0  0  0  0  0  0  0  0  0  0  0  0
   59.1208   27.4742   43.9757 H   0  0  0  0  0  0  0  0  0  0  0  0
   59.0985   26.8202   46.1917 H   0  0  0  0  0  0  0  0  0  0  0  0
   57.5179   27.6438   46.5161 H   0  0  0  0  0  0  0  0  0  0  0  0
   59.2038   24.5922   45.3697 H   0  0  0  0  0  0  0  0  0  0  0  0
   58.0727   22.3952   45.0697 H   0  0  0  0  0  0  0  0  0  0  0  0
   55.5860   22.2395   45.1894 H   0  0  0  0  0  0  0  0  0  0  0  0
   54.2258   24.2842   45.6051 H   0  0  0  0  0  0  0  0  0  0  0  0
   55.1430   27.5410   45.3380 H   0  0  0  0  0  0  0  0  0  0  0  0
   55.2674   29.5718   42.3645 H   0  0  0  0  0  0  0  0  0  0  0  0
   56.5196   30.8318   42.0979 H   0  0  0  0  0  0  0  0  0  0  0  0
   56.9787   29.0952   42.0979 H   0  0  0  0  0  0  0  0  0  0  0  0
  1  2  1  0
  2  3  1  0
  3  4  1  0
  4  5  1  0
  5  6  1  0
  6  7  2  0
  7  8  1  0
  8  9  2  0
  9 10  1  0
 10 11  2  0
 11 12  1  0
  3 13  1  0
 13 14  1  0
 13 15  2  0
 13 16  2  0
 11  6  1  0
  1 17  1  0
  1 18  1  0
  1 19  1  0
  2 20  1  0
  2 21  1  0
  4 22  1  0
  4 23  1  0
  5 24  1  0
  5 25  1  0
  7 26  1  0
  8 27  1  0
  9 28  1  0
 10 29  1  0
 12 30  1  0
 14 31  1  0
 14 32  1  0
 14 33  1  0
M  END
>  <UniqueID>  (52) 
48

>  <SMILES>  (52) 
CCN(CCc1ccccc1O)S(C)(=O)=O

>  <Energy>  (52) 
27.89439086962731

>  <Genealogy>  (52) 
CCN(CCc1ccccc1O)S(C)(=O)=O (3D coordinates assigned)
CCN(CCc1ccccc1O)S(C)(=O)=O (optimized conformer: 27.89439086962731 kcal/mol)

>  <smiles>  (52) 
CCN(CCc1ccccc1O)S(C)(=O)=O

>  <score_type>  (52) 
oracle

>  <origin>  (52) 
adg

>  <m_score__min__energy>  (52) 
-7.8799999999999999

>  <m_primary>  (52) 
energy

$$$$
52:0
     RDKit          3D

 30 31  0  0  0  0  0  0  0  0999 V2000
   59.4958   26.1882   47.2634 H   0  0  0  0  0  0  0  0  0  0  0  0
   58.7280   26.7250   46.6870 C   0  0  0  0  0  0  0  0  0  0  0  0
   57.4430   26.2860   46.6960 N   0  0  0  0  0  0  0  0  0  0  0  0
   56.4620   26.9220   45.9950 C   0  0  0  0  0  0  0  0  0  0  0  0
   55.1460   26.4510   46.0200 O   0  0  0  0  0  0  0  0  0  0  0  0
   54.7900   25.1370   45.6050 C   0  0  0  0  0  0  0  0  0  0  0  0
   54.6192   24.5066   46.4901 H   0  0  0  0  0  0  0  0  0  0  0  0
   53.8709   25.1793   45.0021 H   0  0  0  0  0  0  0  0  0  0  0  0
   55.6047   24.7095   45.0021 H   0  0  0  0  0  0  0  0  0  0  0  0
   56.7710   28.0580   45.2430 C   0  0  0  0  0  0  0  0  0  0  0  0
   55.9836   28.5760   44.6759 H   0  0  0  0  0  0  0  0  0  0  0  0
   58.0970   28.5380   45.2140 C   0  0  0  0  0  0  0  0  0  0  0  0
   58.4510   29.5900   44.5330 N   0  0  0  0  0  0  0  0  0  0  0  0
   57.4950   31.0150   44.2600 S   0  0  0  0  0  0  0  0  0  0  0  0
   57.3660   31.2500   42.7800 O   0  0  0  0  0  0  0  0  0  0  0  0
   56.1290   30.8480   44.8630 O   0  0  0  0  0  0  0  0  0  0  0  0
   58.2960   32.3920   45.0270 C   0  0  0  0  0  0  0  0  0  0  0  0
   58.4590   33.5890   44.3090 C   0  0  0  0  0  0  0  0  0  0  0  0
   58.0866   33.6609   43.2764 H   0  0  0  0  0  0  0  0  0  0  0  0
   59.0900   34.6880   44.8960 C   0  0  0  0  0  0  0  0  0  0  0  0
   59.2142   35.6199   44.3250 H   0  0  0  0  0  0  0  0  0  0  0  0
   59.5630   34.6050   46.2060 C   0  0  0  0  0  0  0  0  0  0  0  0
   60.0590   35.4722   46.6664 H   0  0  0  0  0  0  0  0  0  0  0  0
   59.4080   33.4230   46.9340 C   0  0  0  0  0  0  0  0  0  0  0  0
   59.7823   33.3621   47.9666 H   0  0  0  0  0  0  0  0  0  0  0  0
   58.7770   32.3140   46.3530 C   0  0  0  0  0  0  0  0  0  0  0  0
   58.6330   31.1110   47.1370 C   0  0  0  0  0  0  0  0  0  0  0  0
   58.5180   30.1460   47.7670 N   0  0  0  0  0  0  0  0  0  0  0  0
   59.0760   27.8570   45.9470 C   0  0  0  0  0  0  0  0  0  0  0  0
   60.1169   28.2127   45.9401 H   0  0  0  0  0  0  0  0  0  0  0  0
  1  2  1  0
  2  3  1  0
  3  4  1  0
  4  5  1  0
  5  6  1  0
  6  7  1  0
  6  8  1  0
  6  9  1  0
  4 10  2  0
 10 11  1  0
 10 12  1  0
 12 13  2  0
 13 14  1  0
 14 15  2  0
 14 16  2  0
 14 17  1  0
 17 18  2  0
 18 19  1  0
 18 20  1  0
 20 21  1  0
 20 22  2  0
 22 23  1  0
 22 24  1  0
 24 25  1  0
 24 26  2  0
 26 27  1  0
 27 28  3  0
 12 29  1  0
 29 30  1  0
 29  2  2  0
 26 17  1  0
M  CHG  1   3  -1
M  END
>  <UniqueID>  (53) 
49

>  <SMILES>  (53) 
COc1c/c(=N\S(=O)(=O)c2ccccc2C#N)cc[n-]1

>  <Energy>  (53) 
36.21351353964478

>  <Genealogy>  (53) 
COc1cc(=NS(=O)(=O)c2ccccc2C#N)cc[n-]1 (protonated)
COc1c/c(=N\S(=O)(=O)c2ccccc2C#N)cc[n-]1 (cis-trans isomerization)
COc1c/c(=N\S(=O)(=O)c2ccccc2C#N)cc[n-]1 (3D coordinates assigned)
COc1c/c(=N\S(=O)(=O)c2ccccc2C#N)cc[n-]1 (optimized conformer: 36.21351353964478 kcal/mol)

>  <smiles>  (53) 
COc1cc(=NS(=O)(=O)c2ccccc2C#N)cc[nH]1

>  <score_type>  (53) 
oracle

>  <origin>  (53) 
adg

>  <m_score__min__energy>  (53) 
-9.1600000000000001

>  <m_primary>  (53) 
energy

$$$$
53:0
     RDKit          3D

 50 52  0  0  1  0  0  0  0  0999 V2000
   60.0900   30.2070   45.9860 C   0  0  0  0  0  0  0  0  0  0  0  0
   58.7660   30.3090   45.3250 C   0  0  0  0  0  0  0  0  0  0  0  0
   58.2160   29.1410   44.8390 C   0  0  0  0  0  0  0  0  0  0  0  0
   57.0020   29.1560   44.1940 C   0  0  0  0  0  0  0  0  0  0  0  0
   56.3710   30.3660   44.0580 C   0  0  0  0  0  0  0  0  0  0  0  0
   56.9120   31.5380   44.5410 C   0  0  0  0  0  0  0  0  0  0  0  0
   58.1610   31.5420   45.2070 C   0  0  0  0  0  0  0  0  0  0  0  0
   58.7450   32.7910   45.6360 C   0  0  0  0  0  0  0  0  0  0  0  0
   58.7620   33.8140   44.6740 C   0  0  0  0  0  0  0  0  0  0  0  0
   59.2590   35.0330   44.9600 N   0  0  0  0  0  0  0  0  0  0  0  0
   59.7590   35.3190   46.1890 C   0  0  0  0  0  0  0  0  0  0  0  0
   59.7430   34.3400   47.1070 N   0  0  0  0  0  0  0  0  0  0  0  0
   59.2510   33.0980   46.8520 C   0  0  0  0  0  0  0  0  0  0  0  0
   59.3110   32.2510   47.7860 N   0  0  0  0  0  0  0  0  0  0  0  0
   58.5120   32.3020   48.9500 C   0  0  0  0  0  0  0  0  0  0  0  0
   59.4460   33.1040   49.8920 C   0  0  0  0  0  0  0  0  0  0  0  0
   59.3080   34.3220   49.8010 O   0  0  0  0  0  0  0  0  0  0  0  0
   60.3130   32.3680   50.7110 N   0  0  0  0  0  0  0  0  0  0  0  0
   60.1830   30.8900   50.7430 C   0  0  0  0  0  0  0  0  0  0  0  0
   61.3760   32.8950   51.5220 C   0  0  0  0  0  0  0  0  0  0  0  0
   62.4500   33.6300   50.8390 C   0  0  0  0  0  0  0  0  0  0  0  0
   62.6870   33.4430   49.4150 C   0  0  0  0  0  0  0  0  0  0  0  0
   63.4100   32.2840   49.0690 C   0  0  0  0  0  0  0  0  0  0  0  0
   63.7180   31.9580   47.7790 C   0  0  0  0  0  0  0  0  0  0  0  0
   63.3100   32.7930   46.7610 C   0  0  0  0  0  0  0  0  0  0  0  0
   62.6050   33.9180   47.1450 C   0  0  0  0  0  0  0  0  0  0  0  0
   62.3140   34.2180   48.4110 N   0  0  0  0  0  0  0  0  0  0  0  0
   59.9565   30.2173   47.0778 H   0  0  0  0  0  0  0  0  0  0  0  0
   60.5787   29.2685   45.6852 H   0  0  0  0  0  0  0  0  0  0  0  0
   60.7167   31.0595   45.6852 H   0  0  0  0  0  0  0  0  0  0  0  0
   58.7532   28.1899   44.9686 H   0  0  0  0  0  0  0  0  0  0  0  0
   56.5533   28.2315   43.8015 H   0  0  0  0  0  0  0  0  0  0  0  0
   55.3985   30.4024   43.5452 H   0  0  0  0  0  0  0  0  0  0  0  0
   56.3656   32.4833   44.4071 H   0  0  0  0  0  0  0  0  0  0  0  0
   58.3622   33.6163   43.6685 H   0  0  0  0  0  0  0  0  0  0  0  0
   60.1620   36.3152   46.4237 H   0  0  0  0  0  0  0  0  0  0  0  0
   60.1360   34.5710   48.0640 H   0  0  0  0  0  0  0  0  0  0  0  0
   57.5641   32.8304   48.7702 H   0  0  0  0  0  0  0  0  0  0  0  0
   58.1995   31.3210   49.3373 H   0  0  0  0  0  0  0  0  0  0  0  0
   60.1528   30.5471   51.7878 H   0  0  0  0  0  0  0  0  0  0  0  0
   59.2552   30.5924   50.2325 H   0  0  0  0  0  0  0  0  0  0  0  0
   61.0446   30.4350   50.2325 H   0  0  0  0  0  0  0  0  0  0  0  0
   60.9232   33.5789   52.2550 H   0  0  0  0  0  0  0  0  0  0  0  0
   61.8696   32.0088   51.9476 H   0  0  0  0  0  0  0  0  0  0  0  0
   62.2412   34.7001   50.9853 H   0  0  0  0  0  0  0  0  0  0  0  0
   63.3608   33.2162   51.2964 H   0  0  0  0  0  0  0  0  0  0  0  0
   63.7412   31.6116   49.8741 H   0  0  0  0  0  0  0  0  0  0  0  0
   64.2839   31.0416   47.5554 H   0  0  0  0  0  0  0  0  0  0  0  0
   63.5323   32.5768   45.7056 H   0  0  0  0  0  0  0  0  0  0  0  0
   62.2634   34.6073   46.3588 H   0  0  0  0  0  0  0  0  0  0  0  0
  1  2  1  0
  2  3  2  0
  3  4  1  0
  4  5  2  0
  5  6  1  0
  6  7  2  0
  7  8  1  0
  8  9  2  0
  9 10  1  0
 10 11  2  0
 11 12  1  0
 12 13  1  0
 13 14  2  0
 14 15  1  0
 15 16  1  0
 16 17  2  0
 16 18  1  0
 18 19  1  0
 18 20  1  0
 20 21  1  0
 21 22  1  0
 22 23  2  0
 23 24  1  0
 24 25  2  0
 25 26  1  0
 26 27  2  0
  7  2  1  0
 13  8  1  0
 27 22  1  0
  1 28  1  0
  1 29  1  0
  1 30  1  0
  3 31  1  0
  4 32  1  0
  5 33  1  0
  6 34  1  0
  9 35  1  0
 11 36  1  0
 12 37  1  0
 15 38  1  0
 15 39  1  0
 19 40  1  0
 19 41  1  0
 19 42  1  0
 20 43  1  0
 20 44  1  0
 21 45  1  0
 21 46  1  0
 23 47  1  0
 24 48  1  0
 25 49  1  0
 26 50  1  0
M  END
>  <smiles>  (54) 
Cc1ccccc1-c1cnc[nH]c1=NCC(=O)N(C)CCc1ccccn1

>  <score_type>  (54) 
oracle

>  <origin>  (54) 
adg

>  <m_score__min__energy>  (54) 
-8.25

>  <m_primary>  (54) 
energy

$$$$
54:0
     RDKit          3D

 37 38  0  0  0  0  0  0  0  0999 V2000
   55.3580   26.2970   45.9610 O   0  0  0  0  0  0  0  0  0  0  0  0
   56.2430   27.1890   45.8980 C   0  0  0  0  0  0  0  0  0  0  0  0
   55.9350   28.4280   45.2490 N   0  0  0  0  0  0  0  0  0  0  0  0
   56.6980   28.9890   44.1400 C   0  0  0  0  0  0  0  0  0  0  0  0
   56.2260   30.4180   43.8040 C   0  0  0  0  0  0  0  0  0  0  0  0
   56.9060   31.5070   44.5470 N   0  0  0  0  0  0  0  0  0  0  0  0
   57.7850   31.0540   45.6400 C   0  0  0  0  0  0  0  0  0  0  0  0
   58.0780   32.2150   46.6080 C   0  0  0  0  0  0  0  0  0  0  0  0
   58.0030   33.5910   45.9210 C   0  0  0  0  0  0  0  0  0  0  0  0
   58.4330   33.5030   44.4550 C   0  0  0  0  0  0  0  0  0  0  0  0
   57.5450   32.5150   43.6690 C   0  0  0  0  0  0  0  0  0  0  0  0
   57.5490   26.9120   46.4130 N   0  0  0  0  0  0  0  0  0  0  0  0
   58.5720   27.8910   46.6360 C   0  0  0  0  0  0  0  0  0  0  0  0
   58.5920   28.5870   47.8520 C   0  0  0  0  0  0  0  0  0  0  0  0
   59.5630   29.5660   48.0880 C   0  0  0  0  0  0  0  0  0  0  0  0
   60.5120   29.8640   47.1040 C   0  0  0  0  0  0  0  0  0  0  0  0
   61.8370   31.2000   47.4280 Br  0  0  0  0  0  0  0  0  0  0  0  0
   60.4840   29.1880   45.8800 C   0  0  0  0  0  0  0  0  0  0  0  0
   59.5140   28.2100   45.6430 C   0  0  0  0  0  0  0  0  0  0  0  0
   57.7625   29.0184   44.4156 H   0  0  0  0  0  0  0  0  0  0  0  0
   56.5435   28.3543   43.2550 H   0  0  0  0  0  0  0  0  0  0  0  0
   56.3921   30.5858   42.7296 H   0  0  0  0  0  0  0  0  0  0  0  0
   55.1681   30.4642   44.1020 H   0  0  0  0  0  0  0  0  0  0  0  0
   57.2901   30.2398   46.1896 H   0  0  0  0  0  0  0  0  0  0  0  0
   58.7335   30.6982   45.2114 H   0  0  0  0  0  0  0  0  0  0  0  0
   57.3410   32.1879   47.4242 H   0  0  0  0  0  0  0  0  0  0  0  0
   59.1037   32.0853   46.9836 H   0  0  0  0  0  0  0  0  0  0  0  0
   56.9679   33.9601   45.9696 H   0  0  0  0  0  0  0  0  0  0  0  0
   58.6853   34.2781   46.4430 H   0  0  0  0  0  0  0  0  0  0  0  0
   58.3520   34.4999   43.9973 H   0  0  0  0  0  0  0  0  0  0  0  0
   59.4713   33.1416   44.4186 H   0  0  0  0  0  0  0  0  0  0  0  0
   56.7575   33.0827   43.1518 H   0  0  0  0  0  0  0  0  0  0  0  0
   58.1896   31.9786   42.9571 H   0  0  0  0  0  0  0  0  0  0  0  0
   57.8412   28.3627   48.6240 H   0  0  0  0  0  0  0  0  0  0  0  0
   59.5804   30.1022   49.0483 H   0  0  0  0  0  0  0  0  0  0  0  0
   61.2258   29.4261   45.1034 H   0  0  0  0  0  0  0  0  0  0  0  0
   59.4878   27.6878   44.6752 H   0  0  0  0  0  0  0  0  0  0  0  0
  1  2  2  0
  2  3  1  0
  3  4  1  0
  4  5  1  0
  5  6  1  0
  6  7  1  0
  7  8  1  0
  8  9  1  0
  9 10  1  0
 10 11  1  0
  2 12  1  0
 12 13  1  0
 13 14  2  0
 14 15  1  0
 15 16  2  0
 16 17  1  0
 16 18  1  0
 18 19  2  0
 11  6  1  0
 19 13  1  0
  4 20  1  0
  4 21  1  0
  5 22  1  0
  5 23  1  0
  7 24  1  0
  7 25  1  0
  8 26  1  0
  8 27  1  0
  9 28  1  0
  9 29  1  0
 10 30  1  0
 10 31  1  0
 11 32  1  0
 11 33  1  0
 14 34  1  0
 15 35  1  0
 18 36  1  0
 19 37  1  0
M  CHG  2   3  -1  12  -1
M  END
>  <UniqueID>  (55) 
50

>  <SMILES>  (55) 
O=C([N-]CCN1CCCCC1)[N-]c1ccc(Br)cc1

>  <Energy>  (55) 
48.68535943445751

>  <Genealogy>  (55) 
O=C([N-]CCN1CCCCC1)[N-]c1ccc(Br)cc1 (protonated)
O=C([N-]CCN1CCCCC1)[N-]c1ccc(Br)cc1 (3D coordinates assigned)
O=C([N-]CCN1CCCCC1)[N-]c1ccc(Br)cc1 (nonaromatic ring conformer: 48.68535943445751 kcal/mol)

>  <smiles>  (55) 
O=C(NCCN1CCCCC1)Nc1ccc(Br)cc1

>  <score_type>  (55) 
oracle

>  <origin>  (55) 
adg

>  <m_score__min__energy>  (55) 
-11.210000000000001

>  <m_primary>  (55) 
energy

$$$$
55:0
     RDKit          3D

 58 60  0  0  0  0  0  0  0  0999 V2000
   63.7380   32.1430   47.7480 C   0  0  0  0  0  0  0  0  0  0  0  0
   62.3490   32.6840   47.6000 C   0  0  0  0  0  0  0  0  0  0  0  0
   62.0950   33.7900   46.7760 C   0  0  0  0  0  0  0  0  0  0  0  0
   60.7860   34.2480   46.6280 C   0  0  0  0  0  0  0  0  0  0  0  0
   59.7340   33.5880   47.2790 C   0  0  0  0  0  0  0  0  0  0  0  0
   58.3250   34.1010   47.1620 C   0  0  0  0  0  0  0  0  0  0  0  0
   57.6030   33.3290   46.1530 N   0  0  0  0  0  0  0  0  0  0  0  0
   57.9910   33.3190   44.7710 C   0  0  0  0  0  0  0  0  0  0  0  0
   58.8020   34.1780   44.3340 O   0  0  0  0  0  0  0  0  0  0  0  0
   57.4220   32.2970   43.8320 C   0  0  0  0  0  0  0  0  0  0  0  0
   56.3520   31.5500   44.4900 N   0  0  0  0  0  0  0  0  0  0  0  0
   56.6850   29.8390   44.4880 S   0  0  0  0  0  0  0  0  0  0  0  0
   55.6300   29.0680   45.2360 O   0  0  0  0  0  0  0  0  0  0  0  0
   56.7290   29.3510   43.0670 O   0  0  0  0  0  0  0  0  0  0  0  0
   58.2350   29.5800   45.2760 C   0  0  0  0  0  0  0  0  0  0  0  0
   59.4250   29.5410   44.5350 C   0  0  0  0  0  0  0  0  0  0  0  0
   60.6430   29.3210   45.1800 C   0  0  0  0  0  0  0  0  0  0  0  0
   60.6860   29.1480   46.5660 C   0  0  0  0  0  0  0  0  0  0  0  0
   59.5070   29.2270   47.3240 C   0  0  0  0  0  0  0  0  0  0  0  0
   59.5870   29.0280   48.7420 N   0  0  0  0  0  0  0  0  0  0  0  0
   60.2570   27.9490   49.4090 C   0  0  0  0  0  0  0  0  0  0  0  0
   60.8510   28.1410   50.5030 O   0  0  0  0  0  0  0  0  0  0  0  0
   60.2940   26.6490   48.8170 N   0  0  0  0  0  0  0  0  0  0  0  0
   59.8080   26.3590   47.4730 C   0  0  0  0  0  0  0  0  0  0  0  0
   58.2930   26.1350   47.4930 C   0  0  0  0  0  0  0  0  0  0  0  0
   57.8160   25.5850   46.1760 C   0  0  0  0  0  0  0  0  0  0  0  0
   57.0570   24.4030   46.1330 C   0  0  0  0  0  0  0  0  0  0  0  0
   56.6390   23.8790   44.9060 C   0  0  0  0  0  0  0  0  0  0  0  0
   56.9810   24.5240   43.7130 C   0  0  0  0  0  0  0  0  0  0  0  0
   57.7450   25.6970   43.7470 C   0  0  0  0  0  0  0  0  0  0  0  0
   58.1680   26.2220   44.9730 C   0  0  0  0  0  0  0  0  0  0  0  0
   58.2780   29.4240   46.6690 C   0  0  0  0  0  0  0  0  0  0  0  0
   60.0290   32.4840   48.0920 C   0  0  0  0  0  0  0  0  0  0  0  0
   61.3130   32.0590   48.2260 N   0  0  0  0  0  0  0  0  0  0  0  0
   63.9825   32.0478   48.8162 H   0  0  0  0  0  0  0  0  0  0  0  0
   63.7998   31.1551   47.2682 H   0  0  0  0  0  0  0  0  0  0  0  0
   64.4517   32.8289   47.2682 H   0  0  0  0  0  0  0  0  0  0  0  0
   62.9211   34.2920   46.2509 H   0  0  0  0  0  0  0  0  0  0  0  0
   60.5788   35.1273   46.0004 H   0  0  0  0  0  0  0  0  0  0  0  0
   57.8171   34.0000   48.1325 H   0  0  0  0  0  0  0  0  0  0  0  0
   58.3459   35.1599   46.8650 H   0  0  0  0  0  0  0  0  0  0  0  0
   56.8680   32.6610   46.4800 H   0  0  0  0  0  0  0  0  0  0  0  0
   57.0181   32.8044   42.9435 H   0  0  0  0  0  0  0  0  0  0  0  0
   58.2183   31.5986   43.5350 H   0  0  0  0  0  0  0  0  0  0  0  0
   59.3984   29.6839   43.4446 H   0  0  0  0  0  0  0  0  0  0  0  0
   61.5735   29.2836   44.5946 H   0  0  0  0  0  0  0  0  0  0  0  0
   61.6463   28.9494   47.0644 H   0  0  0  0  0  0  0  0  0  0  0  0
   60.0409   27.2069   46.8120 H   0  0  0  0  0  0  0  0  0  0  0  0
   60.2999   25.4472   47.1034 H   0  0  0  0  0  0  0  0  0  0  0  0
   58.0446   25.4218   48.2927 H   0  0  0  0  0  0  0  0  0  0  0  0
   57.7965   27.1001   47.6723 H   0  0  0  0  0  0  0  0  0  0  0  0
   56.7908   23.8883   47.0680 H   0  0  0  0  0  0  0  0  0  0  0  0
   56.0396   22.9571   44.8788 H   0  0  0  0  0  0  0  0  0  0  0  0
   56.6501   24.1102   42.7490 H   0  0  0  0  0  0  0  0  0  0  0  0
   58.0128   26.2060   42.8093 H   0  0  0  0  0  0  0  0  0  0  0  0
   58.7784   27.1368   44.9958 H   0  0  0  0  0  0  0  0  0  0  0  0
   57.3459   29.4559   47.2523 H   0  0  0  0  0  0  0  0  0  0  0  0
   59.2195   31.9610   48.6223 H   0  0  0  0  0  0  0  0  0  0  0  0
  1  2  1  0
  2  3  2  0
  3  4  1  0
  4  5  2  0
  5  6  1  0
  6  7  1  0
  7  8  1  0
  8  9  2  0
  8 10  1  0
 10 11  1  0
 11 12  1  0
 12 13  2  0
 12 14  2  0
 12 15  1  0
 15 16  2  0
 16 17  1  0
 17 18  2  0
 18 19  1  0
 19 20  1  0
 20 21  1  0
 21 22  2  0
 21 23  1  0
 23 24  1  0
 24 25  1  0
 25 26  1  0
 26 27  2  0
 27 28  1  0
 28 29  2  0
 29 30  1  0
 30 31  2  0
 19 32  2  0
  5 33  1  0
 33 34  2  0
 34  2  1  0
 32 15  1  0
 31 26  1  0
  1 35  1  0
  1 36  1  0
  1 37  1  0
  3 38  1  0
  4 39  1  0
  6 40  1  0
  6 41  1  0
  7 42  1  0
 10 43  1  0
 10 44  1  0
 16 45  1  0
 17 46  1  0
 18 47  1  0
 24 48  1  0
 24 49  1  0
 25 50  1  0
 25 51  1  0
 27 52  1  0
 28 53  1  0
 29 54  1  0
 30 55  1  0
 31 56  1  0
 32 57  1  0
 33 58  1  0
M  CHG  3  11  -1  20  -1  23  -1
M  END
>  <UniqueID>  (56) 
51

>  <SMILES>  (56) 
Cc1ccc(CNC(=O)C[N-]S(=O)(=O)c2cccc([N-]C(=O)[N-]CCc3ccccc3)c2)cn1

>  <Energy>  (56) 
49.263815361419546

>  <Genealogy>  (56) 
Cc1ccc(CNC(=O)C[N-]S(=O)(=O)c2cccc([N-]C(=O)[N-]CCc3ccccc3)c2)cn1 (protonated)
Cc1ccc(CNC(=O)C[N-]S(=O)(=O)c2cccc([N-]C(=O)[N-]CCc3ccccc3)c2)cn1 (3D coordinates assigned)
Cc1ccc(CNC(=O)C[N-]S(=O)(=O)c2cccc([N-]C(=O)[N-]CCc3ccccc3)c2)cn1 (optimized conformer: 49.263815361419546 kcal/mol)

>  <smiles>  (56) 
Cc1ccc(CNC(=O)CNS(=O)(=O)c2cccc(NC(=O)NCCc3ccccc3)c2)cn1

>  <score_type>  (56) 
oracle

>  <origin>  (56) 
adg

>  <m_score__min__energy>  (56) 
-13.57

>  <m_primary>  (56) 
energy

$$$$
56:0
     RDKit          3D

 32 34  0  0  0  0  0  0  0  0999 V2000
   56.6580   30.4880   43.6650 C   0  0  0  0  0  0  0  0  0  0  0  0
   56.7310   31.2180   44.8800 O   0  0  0  0  0  0  0  0  0  0  0  0
   57.9420   31.4990   45.4900 C   0  0  0  0  0  0  0  0  0  0  0  0
   58.4030   32.8030   45.4930 C   0  0  0  0  0  0  0  0  0  0  0  0
   57.6590   33.9270   44.8680 C   0  0  0  0  0  0  0  0  0  0  0  0
   59.5900   33.0100   46.1060 N   0  0  0  0  0  0  0  0  0  0  0  0
   60.2870   32.0150   46.6780 C   0  0  0  0  0  0  0  0  0  0  0  0
   61.5570   32.3880   47.3050 C   0  0  0  0  0  0  0  0  0  0  0  0
   62.4420   33.3430   46.9970 C   0  0  0  0  0  0  0  0  0  0  0  0
   63.5480   33.4660   47.7570 C   0  0  0  0  0  0  0  0  0  0  0  0
   63.6870   32.5960   48.7990 C   0  0  0  0  0  0  0  0  0  0  0  0
   64.7750   32.5070   49.7720 C   0  0  0  0  0  0  0  0  0  0  0  0
   64.6480   32.1390   51.0580 N   0  0  0  0  0  0  0  0  0  0  0  0
   65.8490   32.1670   51.6650 C   0  0  0  0  0  0  0  0  0  0  0  0
   66.7300   32.5790   50.6650 C   0  0  0  0  0  0  0  0  0  0  0  0
   66.0400   32.7790   49.5140 N   0  0  0  0  0  0  0  0  0  0  0  0
   62.2600   31.5940   48.7220 S   0  0  0  0  0  0  0  0  0  0  0  0
   59.8720   30.7380   46.6960 N   0  0  0  0  0  0  0  0  0  0  0  0
   58.6780   30.4940   46.0870 C   0  0  0  0  0  0  0  0  0  0  0  0
   58.2160   29.3260   46.0580 O   0  0  0  0  0  0  0  0  0  0  0  0
   56.5508   29.4160   43.8872 H   0  0  0  0  0  0  0  0  0  0  0  0
   55.7896   30.8305   43.0831 H   0  0  0  0  0  0  0  0  0  0  0  0
   57.5770   30.6517   43.0831 H   0  0  0  0  0  0  0  0  0  0  0  0
   57.2346   34.5682   45.6546 H   0  0  0  0  0  0  0  0  0  0  0  0
   58.3447   34.5182   44.2433 H   0  0  0  0  0  0  0  0  0  0  0  0
   56.8469   33.5268   44.2433 H   0  0  0  0  0  0  0  0  0  0  0  0
   62.2705   34.0133   46.1418 H   0  0  0  0  0  0  0  0  0  0  0  0
   64.3062   34.2347   47.5464 H   0  0  0  0  0  0  0  0  0  0  0  0
   66.0826   31.9210   52.7114 H   0  0  0  0  0  0  0  0  0  0  0  0
   67.8138   32.7196   50.7900 H   0  0  0  0  0  0  0  0  0  0  0  0
   66.4100   33.0900   48.5870 H   0  0  0  0  0  0  0  0  0  0  0  0
   60.4300   29.9790   47.1480 H   0  0  0  0  0  0  0  0  0  0  0  0
  1  2  1  0
  2  3  1  0
  3  4  2  0
  4  5  1  0
  4  6  1  0
  6  7  2  0
  7  8  1  0
  8  9  2  0
  9 10  1  0
 10 11  2  0
 11 12  1  0
 12 13  2  0
 13 14  1  0
 14 15  2  0
 15 16  1  0
 11 17  1  0
  7 18  1  0
 18 19  1  0
 19 20  2  0
 19  3  1  0
 17  8  1  0
 16 12  1  0
  1 21  1  0
  1 22  1  0
  1 23  1  0
  5 24  1  0
  5 25  1  0
  5 26  1  0
  9 27  1  0
 10 28  1  0
 14 29  1  0
 15 30  1  0
 16 31  1  0
 18 32  1  0
M  END
>  <smiles>  (57) 
COc1c(C)nc(-c2ccc(-c3ncc[nH]3)s2)[nH]c1=O

>  <score_type>  (57) 
oracle

>  <origin>  (57) 
adg

>  <m_score__min__energy>  (57) 
-6.4900000000000002

>  <m_primary>  (57) 
energy

$$$$
57:0
     RDKit          3D

 42 44  0  0  0  0  0  0  0  0999 V2000
   57.7660   34.1090   44.8780 C   0  0  0  0  0  0  0  0  0  0  0  0
   58.8550   34.2770   45.8940 C   0  0  0  0  0  0  0  0  0  0  0  0
   59.5400   35.3360   45.8680 O   0  0  0  0  0  0  0  0  0  0  0  0
   59.1440   33.2370   46.9180 C   0  0  0  0  0  0  0  0  0  0  0  0
   60.2870   32.4180   46.8280 C   0  0  0  0  0  0  0  0  0  0  0  0
   60.5350   31.4380   47.7920 C   0  0  0  0  0  0  0  0  0  0  0  0
   59.6560   31.2650   48.8610 C   0  0  0  0  0  0  0  0  0  0  0  0
   58.5270   32.0790   48.9850 C   0  0  0  0  0  0  0  0  0  0  0  0
   57.6610   31.8650   50.0660 O   0  0  0  0  0  0  0  0  0  0  0  0
   57.9430   32.1760   51.4040 C   0  0  0  0  0  0  0  0  0  0  0  0
   58.8420   33.1560   51.7250 N   0  0  0  0  0  0  0  0  0  0  0  0
   59.1100   33.4840   53.0180 C   0  0  0  0  0  0  0  0  0  0  0  0
   58.4690   32.8150   54.0590 C   0  0  0  0  0  0  0  0  0  0  0  0
   57.5660   31.7950   53.7630 C   0  0  0  0  0  0  0  0  0  0  0  0
   57.3140   31.4490   52.4290 C   0  0  0  0  0  0  0  0  0  0  0  0
   56.3820   30.3480   52.1260 C   0  0  0  0  0  0  0  0  0  0  0  0
   56.6550   29.1880   52.5300 O   0  0  0  0  0  0  0  0  0  0  0  0
   55.1940   30.5530   51.3500 N   0  0  0  0  0  0  0  0  0  0  0  0
   53.9040   29.9080   51.5900 C   0  0  0  0  0  0  0  0  0  0  0  0
   52.8350   30.9350   51.8730 C   0  0  0  0  0  0  0  0  0  0  0  0
   52.3710   31.7820   50.8570 C   0  0  0  0  0  0  0  0  0  0  0  0
   51.3930   32.6860   51.1170 N   0  0  0  0  0  0  0  0  0  0  0  0
   50.8500   32.7930   52.3560 C   0  0  0  0  0  0  0  0  0  0  0  0
   49.9450   33.6370   52.5750 O   0  0  0  0  0  0  0  0  0  0  0  0
   51.2860   31.9900   53.3610 N   0  0  0  0  0  0  0  0  0  0  0  0
   52.2620   31.0680   53.1500 C   0  0  0  0  0  0  0  0  0  0  0  0
   52.6420   30.3390   54.1050 O   0  0  0  0  0  0  0  0  0  0  0  0
   58.2640   33.0520   48.0020 C   0  0  0  0  0  0  0  0  0  0  0  0
   56.8048   33.9607   45.3919 H   0  0  0  0  0  0  0  0  0  0  0  0
   57.7100   35.0091   44.2482 H   0  0  0  0  0  0  0  0  0  0  0  0
   57.9839   33.2339   44.2482 H   0  0  0  0  0  0  0  0  0  0  0  0
   60.9895   32.5514   45.9921 H   0  0  0  0  0  0  0  0  0  0  0  0
   61.4272   30.8001   47.7077 H   0  0  0  0  0  0  0  0  0  0  0  0
   59.8525   30.4839   49.6102 H   0  0  0  0  0  0  0  0  0  0  0  0
   59.3610   33.6590   50.9720 H   0  0  0  0  0  0  0  0  0  0  0  0
   59.8352   34.2801   53.2425 H   0  0  0  0  0  0  0  0  0  0  0  0
   58.6736   33.0892   55.1044 H   0  0  0  0  0  0  0  0  0  0  0  0
   57.0517   31.2622   54.5763 H   0  0  0  0  0  0  0  0  0  0  0  0
   53.6199   29.3278   50.6997 H   0  0  0  0  0  0  0  0  0  0  0  0
   53.9978   29.2471   52.4643 H   0  0  0  0  0  0  0  0  0  0  0  0
   52.8007   31.7137   49.8467 H   0  0  0  0  0  0  0  0  0  0  0  0
   57.3608   33.6749   48.0815 H   0  0  0  0  0  0  0  0  0  0  0  0
  1  2  1  0
  2  3  2  0
  2  4  1  0
  4  5  2  0
  5  6  1  0
  6  7  2  0
  7  8  1  0
  8  9  1  0
  9 10  1  0
 10 11  2  0
 11 12  1  0
 12 13  2  0
 13 14  1  0
 14 15  2  0
 15 16  1  0
 16 17  2  0
 16 18  1  0
 18 19  1  0
 19 20  1  0
 20 21  2  0
 21 22  1  0
 22 23  1  0
 23 24  2  0
 23 25  1  0
 25 26  1  0
 26 27  2  0
  8 28  2  0
 28  4  1  0
 15 10  1  0
 26 20  1  0
  1 29  1  0
  1 30  1  0
  1 31  1  0
  5 32  1  0
  6 33  1  0
  7 34  1  0
 11 35  1  0
 12 36  1  0
 13 37  1  0
 14 38  1  0
 19 39  1  0
 19 40  1  0
 21 41  1  0
 28 42  1  0
M  CHG  4  11   1  18  -1  22  -1  25  -1
M  END
>  <UniqueID>  (58) 
52

>  <SMILES>  (58) 
CC(=O)c1cccc(Oc2[nH+]cccc2C(=O)[N-]Cc2c[n-]c(=O)[n-]c2=O)c1

>  <Energy>  (58) 
55.93770574855303

>  <Genealogy>  (58) 
CC(=O)c1cccc(Oc2[nH+]cccc2C(=O)[N-]Cc2c[n-]c(=O)[n-]c2=O)c1 (protonated)
CC(=O)c1cccc(Oc2[nH+]cccc2C(=O)[N-]Cc2c[n-]c(=O)[n-]c2=O)c1 (3D coordinates assigned)
CC(=O)c1cccc(Oc2[nH+]cccc2C(=O)[N-]Cc2c[n-]c(=O)[n-]c2=O)c1 (optimized conformer: 55.93770574855303 kcal/mol)

>  <smiles>  (58) 
CC(=O)c1cccc(Oc2ncccc2C(=O)NCc2c[nH]c(=O)[nH]c2=O)c1

>  <score_type>  (58) 
oracle

>  <origin>  (58) 
adg

>  <m_score__min__energy>  (58) 
-12.33

>  <m_primary>  (58) 
energy

$$$$
58:0
     RDKit          3D

 54 56  0  0  0  0  0  0  0  0999 V2000
   52.6402   23.9322   44.1547 H   0  0  0  0  0  0  0  0  0  0  0  0
   53.7120   24.0120   44.3890 C   0  0  0  0  0  0  0  0  0  0  0  0
   54.0830   24.7200   45.6290 C   0  0  0  0  0  0  0  0  0  0  0  0
   54.0130   25.9760   45.6620 O   0  0  0  0  0  0  0  0  0  0  0  0
   54.4590   24.0350   46.7800 O   0  0  0  0  0  0  0  0  0  0  0  0
   54.5750   23.4570   43.5230 C   0  0  0  0  0  0  0  0  0  0  0  0
   54.1906   23.1798   42.5304 H   0  0  0  0  0  0  0  0  0  0  0  0
   56.0070   23.1890   43.8020 C   0  0  0  0  0  0  0  0  0  0  0  0
   56.3790   22.1020   44.5210 C   0  0  0  0  0  0  0  0  0  0  0  0
   56.6650   22.1170   45.9200 N   0  0  0  0  0  0  0  0  0  0  0  0
   57.3670   23.1740   46.6020 C   0  0  0  0  0  0  0  0  0  0  0  0
   57.0200   23.5050   47.7690 O   0  0  0  0  0  0  0  0  0  0  0  0
   58.5590   23.8280   45.9590 C   0  0  0  0  0  0  0  0  0  0  0  0
   59.4383   23.6812   46.6035 H   0  0  0  0  0  0  0  0  0  0  0  0
   58.7154   23.3671   44.9725 H   0  0  0  0  0  0  0  0  0  0  0  0
   58.3380   25.3060   45.7610 C   0  0  0  0  0  0  0  0  0  0  0  0
   57.0430   25.8450   45.8290 C   0  0  0  0  0  0  0  0  0  0  0  0
   56.1820   25.1825   46.0016 H   0  0  0  0  0  0  0  0  0  0  0  0
   56.8440   27.2220   45.6780 C   0  0  0  0  0  0  0  0  0  0  0  0
   55.8268   27.6373   45.7323 H   0  0  0  0  0  0  0  0  0  0  0  0
   57.9390   28.0780   45.4570 C   0  0  0  0  0  0  0  0  0  0  0  0
   57.7700   29.5000   45.3380 N   0  0  0  0  0  0  0  0  0  0  0  0
   58.5930   30.0990   45.5720 H   0  0  0  0  0  0  0  0  0  0  0  0
   56.5870   30.1350   44.8210 C   0  0  0  0  0  0  0  0  0  0  0  0
   55.5910   29.4470   44.4730 O   0  0  0  0  0  0  0  0  0  0  0  0
   56.5120   31.5610   44.7090 N   0  0  0  0  0  0  0  0  0  0  0  0
   57.5080   32.4830   45.1740 C   0  0  0  0  0  0  0  0  0  0  0  0
   57.6510   32.6880   46.5520 C   0  0  0  0  0  0  0  0  0  0  0  0
   57.0105   32.1368   47.2563 H   0  0  0  0  0  0  0  0  0  0  0  0
   58.6040   33.5900   47.0380 C   0  0  0  0  0  0  0  0  0  0  0  0
   58.7224   33.7329   48.1222 H   0  0  0  0  0  0  0  0  0  0  0  0
   59.4060   34.3100   46.1470 C   0  0  0  0  0  0  0  0  0  0  0  0
   60.1606   35.0127   46.5302 H   0  0  0  0  0  0  0  0  0  0  0  0
   59.2480   34.1360   44.7680 C   0  0  0  0  0  0  0  0  0  0  0  0
   59.8717   34.7108   44.0675 H   0  0  0  0  0  0  0  0  0  0  0  0
   58.2980   33.2320   44.2770 C   0  0  0  0  0  0  0  0  0  0  0  0
   58.1250   33.1200   42.9340 F   0  0  0  0  0  0  0  0  0  0  0  0
   59.2340   27.5390   45.4270 C   0  0  0  0  0  0  0  0  0  0  0  0
   60.0988   28.2044   45.2882 H   0  0  0  0  0  0  0  0  0  0  0  0
   59.4340   26.1640   45.5720 C   0  0  0  0  0  0  0  0  0  0  0  0
   60.4533   25.7518   45.5380 H   0  0  0  0  0  0  0  0  0  0  0  0
   56.6700   20.7550   46.4300 C   0  0  0  0  0  0  0  0  0  0  0  0
   55.7696   20.5717   47.0347 H   0  0  0  0  0  0  0  0  0  0  0  0
   57.5430   20.5732   47.0741 H   0  0  0  0  0  0  0  0  0  0  0  0
   56.6820   19.8340   45.2030 C   0  0  0  0  0  0  0  0  0  0  0  0
   55.9091   19.0580   45.3055 H   0  0  0  0  0  0  0  0  0  0  0  0
   57.6543   19.3301   45.0997 H   0  0  0  0  0  0  0  0  0  0  0  0
   56.3880   20.7120   43.9810 C   0  0  0  0  0  0  0  0  0  0  0  0
   55.4113   20.4573   43.5438 H   0  0  0  0  0  0  0  0  0  0  0  0
   57.1280   20.5773   43.1783 H   0  0  0  0  0  0  0  0  0  0  0  0
   57.0370   23.9990   43.0530 C   0  0  0  0  0  0  0  0  0  0  0  0
   57.6918   24.5139   43.7714 H   0  0  0  0  0  0  0  0  0  0  0  0
   57.6401   23.3307   42.4209 H   0  0  0  0  0  0  0  0  0  0  0  0
   56.5298   24.7427   42.4209 H   0  0  0  0  0  0  0  0  0  0  0  0
  1  2  1  0
  2  3  1  0
  3  4  2  0
  3  5  1  0
  2  6  2  0
  6  7  1  0
  6  8  1  0
  8  9  2  0
  9 10  1  0
 10 11  1  0
 11 12  2  0
 11 13  1  0
 13 14  1  0
 13 15  1  0
 13 16  1  0
 16 17  2  0
 17 18  1  0
 17 19  1  0
 19 20  1  0
 19 21  2  0
 21 22  1  0
 22 23  1  0
 22 24  1  0
 24 25  2  0
 24 26  1  0
 26 27  1  0
 27 28  2  0
 28 29  1  0
 28 30  1  0
 30 31  1  0
 30 32  2  0
 32 33  1  0
 32 34  1  0
 34 35  1  0
 34 36  2  0
 36 37  1  0
 21 38  1  0
 38 39  1  0
 38 40  2  0
 40 41  1  0
 10 42  1  0
 42 43  1  0
 42 44  1  0
 42 45  1  0
 45 46  1  0
 45 47  1  0
 45 48  1  0
 48 49  1  0
 48 50  1  0
  8 51  1  0
 51 52  1  0
 51 53  1  0
 51 54  1  0
 48  9  1  0
 40 16  1  0
 36 27  1  0
M  CHG  2   5  -1  26  -1
M  END
>  <UniqueID>  (59) 
53

>  <SMILES>  (59) 
C/C(C=CC(=O)[O-])=C1\CCCN1C(=O)Cc1ccc(NC(=O)[N-]c2ccccc2F)cc1

>  <Energy>  (59) 
83.88829313092862

>  <Genealogy>  (59) 
CC(C=CC(=O)[O-])=C1CCCN1C(=O)Cc1ccc(NC(=O)[N-]c2ccccc2F)cc1 (protonated)
C/C(C=CC(=O)[O-])=C1\CCCN1C(=O)Cc1ccc(NC(=O)[N-]c2ccccc2F)cc1 (cis-trans isomerization)
C/C(C=CC(=O)[O-])=C1\CCCN1C(=O)Cc1ccc(NC(=O)[N-]c2ccccc2F)cc1 (3D coordinates assigned)
C/C(C=CC(=O)[O-])=C1\CCCN1C(=O)Cc1ccc(NC(=O)[N-]c2ccccc2F)cc1 (nonaromatic ring conformer: 83.88829313092862 kcal/mol)

>  <smiles>  (59) 
CC(C=CC(=O)O)=C1CCCN1C(=O)Cc1ccc(NC(=O)Nc2ccccc2F)cc1

>  <score_type>  (59) 
oracle

>  <origin>  (59) 
adg

>  <m_score__min__energy>  (59) 
-13.140000000000001

>  <m_primary>  (59) 
energy

$$$$
59:0
     RDKit          3D

 58 62  0  0  0  0  0  0  0  0999 V2000
   60.4830   29.1880   46.6420 C   0  0  0  0  0  0  0  0  0  0  0  0
   59.3360   29.8620   45.9390 C   0  0  0  0  0  0  0  0  0  0  0  0
   59.2730   31.2630   45.8900 C   0  0  0  0  0  0  0  0  0  0  0  0
   58.1910   31.9050   45.2720 C   0  0  0  0  0  0  0  0  0  0  0  0
   58.0640   33.6610   45.2780 S   0  0  0  0  0  0  0  0  0  0  0  0
   56.6220   34.0450   45.1070 O   0  0  0  0  0  0  0  0  0  0  0  0
   58.8560   34.2580   44.1460 O   0  0  0  0  0  0  0  0  0  0  0  0
   58.6530   34.2930   46.7830 N   0  0  0  0  0  0  0  0  0  0  0  0
   59.9780   34.0370   47.2800 C   0  0  0  0  0  0  0  0  0  0  0  0
   61.0500   33.9710   46.3760 C   0  0  0  0  0  0  0  0  0  0  0  0
   62.3410   33.6800   46.8280 C   0  0  0  0  0  0  0  0  0  0  0  0
   62.5740   33.4590   48.1880 C   0  0  0  0  0  0  0  0  0  0  0  0
   61.5170   33.5360   49.0990 C   0  0  0  0  0  0  0  0  0  0  0  0
   61.8100   33.2260   50.8400 S   0  0  0  0  0  0  0  0  0  0  0  0
   60.1280   32.6710   51.1200 C   0  0  0  0  0  0  0  0  0  0  0  0
   59.2340   33.4760   51.8370 C   0  0  0  0  0  0  0  0  0  0  0  0
   57.9220   33.0420   52.0530 C   0  0  0  0  0  0  0  0  0  0  0  0
   57.5040   31.8030   51.5540 C   0  0  0  0  0  0  0  0  0  0  0  0
   58.3970   30.9990   50.8390 C   0  0  0  0  0  0  0  0  0  0  0  0
   59.7070   31.4340   50.6190 C   0  0  0  0  0  0  0  0  0  0  0  0
   60.2260   33.8390   48.6490 C   0  0  0  0  0  0  0  0  0  0  0  0
   57.1880   31.1440   44.6670 C   0  0  0  0  0  0  0  0  0  0  0  0
   57.2470   29.7510   44.7010 C   0  0  0  0  0  0  0  0  0  0  0  0
   58.2970   29.0990   45.3670 C   0  0  0  0  0  0  0  0  0  0  0  0
   58.3280   27.6660   45.4760 N   0  0  0  0  0  0  0  0  0  0  0  0
   57.5230   26.8600   46.3500 C   0  0  0  0  0  0  0  0  0  0  0  0
   57.7380   26.9110   47.5890 O   0  0  0  0  0  0  0  0  0  0  0  0
   56.4600   25.9610   45.8480 C   0  0  0  0  0  0  0  0  0  0  0  0
   55.1730   26.3680   45.9930 N   0  0  0  0  0  0  0  0  0  0  0  0
   54.1420   25.5880   45.6700 N   0  0  0  0  0  0  0  0  0  0  0  0
   54.3170   24.3340   45.1910 C   0  0  0  0  0  0  0  0  0  0  0  0
   53.3070   23.6280   44.9230 O   0  0  0  0  0  0  0  0  0  0  0  0
   55.6190   23.8450   44.9910 C   0  0  0  0  0  0  0  0  0  0  0  0
   55.8480   22.5480   44.4960 C   0  0  0  0  0  0  0  0  0  0  0  0
   57.1510   22.1060   44.2590 C   0  0  0  0  0  0  0  0  0  0  0  0
   58.2290   22.9600   44.4800 C   0  0  0  0  0  0  0  0  0  0  0  0
   58.0190   24.2450   44.9790 C   0  0  0  0  0  0  0  0  0  0  0  0
   56.7170   24.6900   45.2850 C   0  0  0  0  0  0  0  0  0  0  0  0
   60.3448   29.2692   47.7302 H   0  0  0  0  0  0  0  0  0  0  0  0
   60.5164   28.1267   46.3548 H   0  0  0  0  0  0  0  0  0  0  0  0
   61.4264   29.6754   46.3548 H   0  0  0  0  0  0  0  0  0  0  0  0
   60.0786   31.8618   46.3399 H   0  0  0  0  0  0  0  0  0  0  0  0
   58.0720   35.0260   47.2490 H   0  0  0  0  0  0  0  0  0  0  0  0
   60.8733   34.1494   45.3050 H   0  0  0  0  0  0  0  0  0  0  0  0
   63.1742   33.6250   46.1120 H   0  0  0  0  0  0  0  0  0  0  0  0
   63.5890   33.2245   48.5414 H   0  0  0  0  0  0  0  0  0  0  0  0
   59.5635   34.4491   52.2301 H   0  0  0  0  0  0  0  0  0  0  0  0
   57.2189   33.6743   52.6149 H   0  0  0  0  0  0  0  0  0  0  0  0
   56.4723   31.4615   51.7244 H   0  0  0  0  0  0  0  0  0  0  0  0
   58.0686   30.0241   50.4496 H   0  0  0  0  0  0  0  0  0  0  0  0
   60.4075   30.8036   50.0517 H   0  0  0  0  0  0  0  0  0  0  0  0
   59.4009   33.9226   49.3716 H   0  0  0  0  0  0  0  0  0  0  0  0
   56.3489   31.6450   44.1621 H   0  0  0  0  0  0  0  0  0  0  0  0
   56.4654   29.1590   44.2025 H   0  0  0  0  0  0  0  0  0  0  0  0
   54.9975   21.8799   44.2950 H   0  0  0  0  0  0  0  0  0  0  0  0
   57.3265   21.0821   43.8973 H   0  0  0  0  0  0  0  0  0  0  0  0
   59.2513   22.6189   44.2597 H   0  0  0  0  0  0  0  0  0  0  0  0
   58.8761   24.9166   45.1351 H   0  0  0  0  0  0  0  0  0  0  0  0
  1  2  1  0
  2  3  2  0
  3  4  1  0
  4  5  1  0
  5  6  2  0
  5  7  2  0
  5  8  1  0
  8  9  1  0
  9 10  2  0
 10 11  1  0
 11 12  2  0
 12 13  1  0
 13 14  1  0
 14 15  1  0
 15 16  2  0
 16 17  1  0
 17 18  2  0
 18 19  1  0
 19 20  2  0
 13 21  2  0
  4 22  2  0
 22 23  1  0
 23 24  2  0
 24 25  1  0
 25 26  1  0
 26 27  2  0
 26 28  1  0
 28 29  2  0
 29 30  1  0
 30 31  1  0
 31 32  2  0
 31 33  1  0
 33 34  2  0
 34 35  1  0
 35 36  2  0
 36 37  1  0
 37 38  2  0
 24  2  1  0
 38 28  1  0
 21  9  1  0
 38 33  1  0
 20 15  1  0
  1 39  1  0
  1 40  1  0
  1 41  1  0
  3 42  1  0
  8 43  1  0
 10 44  1  0
 11 45  1  0
 12 46  1  0
 16 47  1  0
 17 48  1  0
 18 49  1  0
 19 50  1  0
 20 51  1  0
 21 52  1  0
 22 53  1  0
 23 54  1  0
 34 55  1  0
 35 56  1  0
 36 57  1  0
 37 58  1  0
M  CHG  2  25  -1  30  -1
M  END
>  <UniqueID>  (60) 
54

>  <SMILES>  (60) 
Cc1cc(S(=O)(=O)Nc2cccc(Sc3ccccc3)c2)ccc1[N-]C(=O)c1n[n-]c(=O)c2ccccc12

>  <Energy>  (60) 
75.07842354623163

>  <Genealogy>  (60) 
Cc1cc(S(=O)(=O)Nc2cccc(Sc3ccccc3)c2)ccc1[N-]C(=O)c1n[n-]c(=O)c2ccccc12 (protonated)
Cc1cc(S(=O)(=O)Nc2cccc(Sc3ccccc3)c2)ccc1[N-]C(=O)c1n[n-]c(=O)c2ccccc12 (3D coordinates assigned)
Cc1cc(S(=O)(=O)Nc2cccc(Sc3ccccc3)c2)ccc1[N-]C(=O)c1n[n-]c(=O)c2ccccc12 (optimized conformer: 75.07842354623163 kcal/mol)

>  <smiles>  (60) 
Cc1cc(S(=O)(=O)Nc2cccc(Sc3ccccc3)c2)ccc1NC(=O)c1n[nH]c(=O)c2ccccc12

>  <score_type>  (60) 
oracle

>  <origin>  (60) 
adg

>  <m_score__min__energy>  (60) 
-15.4

>  <m_primary>  (60) 
energy

$$$$
60:0
     RDKit          3D

 30 32  0  0  0  0  0  0  0  0999 V2000
   62.9540   31.6390   48.7890 O   0  0  0  0  0  0  0  0  0  0  0  0
   61.8490   32.0520   48.3490 C   0  0  0  0  0  0  0  0  0  0  0  0
   61.3560   33.3280   48.7560 N   0  0  0  0  0  0  0  0  0  0  0  0
   60.1040   33.8240   48.2740 C   0  0  0  0  0  0  0  0  0  0  0  0
   59.7020   34.9540   48.6570 O   0  0  0  0  0  0  0  0  0  0  0  0
   59.2940   33.0080   47.3360 C   0  0  0  0  0  0  0  0  0  0  0  0
   58.0590   33.4790   46.8630 C   0  0  0  0  0  0  0  0  0  0  0  0
   57.3010   32.7100   45.9760 C   0  0  0  0  0  0  0  0  0  0  0  0
   57.7680   31.4680   45.5380 C   0  0  0  0  0  0  0  0  0  0  0  0
   56.9580   30.7050   44.6320 N   0  0  0  0  0  0  0  0  0  0  0  0
   56.3400   29.4390   44.9070 C   0  0  0  0  0  0  0  0  0  0  0  0
   55.0880   29.3460   44.8010 O   0  0  0  0  0  0  0  0  0  0  0  0
   57.1370   28.2340   45.2430 C   0  0  0  0  0  0  0  0  0  0  0  0
   58.5270   28.2270   45.0280 C   0  0  0  0  0  0  0  0  0  0  0  0
   59.2860   27.0970   45.3420 C   0  0  0  0  0  0  0  0  0  0  0  0
   58.6690   25.9600   45.8640 C   0  0  0  0  0  0  0  0  0  0  0  0
   57.2870   25.9490   46.0720 C   0  0  0  0  0  0  0  0  0  0  0  0
   56.5190   27.0780   45.7650 C   0  0  0  0  0  0  0  0  0  0  0  0
   55.1470   27.0450   45.9990 O   0  0  0  0  0  0  0  0  0  0  0  0
   58.9880   30.9760   46.0300 C   0  0  0  0  0  0  0  0  0  0  0  0
   59.7630   31.7420   46.9190 C   0  0  0  0  0  0  0  0  0  0  0  0
   61.0610   31.2310   47.4190 C   0  0  0  0  0  0  0  0  0  0  0  0
   61.4950   30.1040   47.0560 O   0  0  0  0  0  0  0  0  0  0  0  0
   57.6856   34.4597   47.1927 H   0  0  0  0  0  0  0  0  0  0  0  0
   56.3300   33.0849   45.6201 H   0  0  0  0  0  0  0  0  0  0  0  0
   59.0197   29.1172   44.6098 H   0  0  0  0  0  0  0  0  0  0  0  0
   60.3735   27.1038   45.1771 H   0  0  0  0  0  0  0  0  0  0  0  0
   59.2699   25.0725   46.1118 H   0  0  0  0  0  0  0  0  0  0  0  0
   56.8011   25.0497   46.4785 H   0  0  0  0  0  0  0  0  0  0  0  0
   59.3406   29.9822   45.7170 H   0  0  0  0  0  0  0  0  0  0  0  0
  1  2  2  0
  2  3  1  0
  3  4  1  0
  4  5  2  0
  4  6  1  0
  6  7  2  0
  7  8  1  0
  8  9  2  0
  9 10  1  0
 10 11  1  0
 11 12  2  0
 11 13  1  0
 13 14  2  0
 14 15  1  0
 15 16  2  0
 16 17  1  0
 17 18  2  0
 18 19  1  0
  9 20  1  0
 20 21  2  0
 21 22  1  0
 22 23  2  0
 22  2  1  0
 21  6  1  0
 18 13  1  0
  7 24  1  0
  8 25  1  0
 14 26  1  0
 15 27  1  0
 16 28  1  0
 17 29  1  0
 20 30  1  0
M  CHG  3   3  -1  10  -1  19  -1
M  END
>  <UniqueID>  (61) 
55

>  <SMILES>  (61) 
O=C1[N-]C(=O)c2ccc([N-]C(=O)c3ccccc3[O-])cc2C1=O

>  <Energy>  (61) 
41.55150973686582

>  <Genealogy>  (61) 
O=C1[N-]C(=O)c2ccc([N-]C(=O)c3ccccc3[O-])cc2C1=O (protonated)
O=C1[N-]C(=O)c2ccc([N-]C(=O)c3ccccc3[O-])cc2C1=O (3D coordinates assigned)
O=C1[N-]C(=O)c2ccc([N-]C(=O)c3ccccc3[O-])cc2C1=O (nonaromatic ring conformer: 41.55150973686582 kcal/mol)

>  <smiles>  (61) 
O=C1NC(=O)c2ccc(NC(=O)c3ccccc3O)cc2C1=O

>  <score_type>  (61) 
oracle

>  <origin>  (61) 
adg

>  <m_score__min__energy>  (61) 
-14.67

>  <m_primary>  (61) 
energy

$$$$
61:0
     RDKit          3D

 63 67  0  0  0  0  0  0  0  0999 V2000
   60.0190   35.6830   46.1480 C   0  0  0  0  0  0  0  0  0  0  0  0
   59.0540   34.5670   45.8440 C   0  0  0  0  0  0  0  0  0  0  0  0
   58.6520   34.3450   44.5160 C   0  0  0  0  0  0  0  0  0  0  0  0
   57.7560   33.3210   44.2080 C   0  0  0  0  0  0  0  0  0  0  0  0
   57.2310   32.5130   45.2180 C   0  0  0  0  0  0  0  0  0  0  0  0
   56.3290   31.4570   44.8650 N   0  0  0  0  0  0  0  0  0  0  0  0
   56.6980   30.1210   44.4990 C   0  0  0  0  0  0  0  0  0  0  0  0
   55.8020   29.2380   44.4450 O   0  0  0  0  0  0  0  0  0  0  0  0
   58.1370   29.7110   44.3310 C   0  0  0  0  0  0  0  0  0  0  0  0
   58.5350   28.8090   45.4250 N   0  0  0  0  0  0  0  0  0  0  0  0
   58.1600   27.4840   45.4250 C   0  0  0  0  0  0  0  0  0  0  0  0
   57.4470   27.0350   44.4830 O   0  0  0  0  0  0  0  0  0  0  0  0
   58.5630   26.6360   46.4370 N   0  0  0  0  0  0  0  0  0  0  0  0
   58.1520   25.2540   46.4200 C   0  0  0  0  0  0  0  0  0  0  0  0
   58.8370   24.3200   45.6240 C   0  0  0  0  0  0  0  0  0  0  0  0
   58.4380   22.9790   45.6100 C   0  0  0  0  0  0  0  0  0  0  0  0
   57.3560   22.5630   46.3910 C   0  0  0  0  0  0  0  0  0  0  0  0
   56.6700   23.4860   47.1850 C   0  0  0  0  0  0  0  0  0  0  0  0
   57.0650   24.8280   47.2020 C   0  0  0  0  0  0  0  0  0  0  0  0
   59.3580   27.0950   47.4590 C   0  0  0  0  0  0  0  0  0  0  0  0
   59.7190   26.3280   48.3940 O   0  0  0  0  0  0  0  0  0  0  0  0
   59.7570   28.4270   47.4600 C   0  0  0  0  0  0  0  0  0  0  0  0
   60.5690   29.0660   48.4070 C   0  0  0  0  0  0  0  0  0  0  0  0
   60.7830   30.4150   48.1070 C   0  0  0  0  0  0  0  0  0  0  0  0
   61.5800   31.3830   48.8910 C   0  0  0  0  0  0  0  0  0  0  0  0
   61.0330   31.9450   49.8800 O   0  0  0  0  0  0  0  0  0  0  0  0
   62.9740   31.6480   48.5720 N   0  0  0  0  0  0  0  0  0  0  0  0
   63.5120   32.7200   49.4360 C   0  0  0  0  0  0  0  0  0  0  0  0
   62.9560   34.1130   49.0490 C   0  0  0  0  0  0  0  0  0  0  0  0
   62.3300   34.1340   47.7780 O   0  0  0  0  0  0  0  0  0  0  0  0
   63.1330   33.4630   46.8320 C   0  0  0  0  0  0  0  0  0  0  0  0
   63.1870   31.9510   47.1340 C   0  0  0  0  0  0  0  0  0  0  0  0
   59.9590   30.7970   46.6790 S   0  0  0  0  0  0  0  0  0  0  0  0
   59.3350   29.2500   46.4400 C   0  0  0  0  0  0  0  0  0  0  0  0
   57.6520   32.7010   46.5430 C   0  0  0  0  0  0  0  0  0  0  0  0
   58.5530   33.7290   46.8700 C   0  0  0  0  0  0  0  0  0  0  0  0
   58.9730   33.9160   48.3050 C   0  0  0  0  0  0  0  0  0  0  0  0
   60.1170   35.7963   47.2377 H   0  0  0  0  0  0  0  0  0  0  0  0
   61.0017   35.4463   45.7141 H   0  0  0  0  0  0  0  0  0  0  0  0
   59.6430   36.6213   45.7141 H   0  0  0  0  0  0  0  0  0  0  0  0
   59.0471   34.9840   43.7125 H   0  0  0  0  0  0  0  0  0  0  0  0
   57.4613   33.1492   43.1623 H   0  0  0  0  0  0  0  0  0  0  0  0
   58.2579   29.1919   43.3687 H   0  0  0  0  0  0  0  0  0  0  0  0
   58.7730   30.6082   44.3535 H   0  0  0  0  0  0  0  0  0  0  0  0
   59.6899   24.6444   45.0098 H   0  0  0  0  0  0  0  0  0  0  0  0
   58.9760   22.2518   44.9841 H   0  0  0  0  0  0  0  0  0  0  0  0
   57.0442   21.5082   46.3806 H   0  0  0  0  0  0  0  0  0  0  0  0
   55.8179   23.1567   47.7978 H   0  0  0  0  0  0  0  0  0  0  0  0
   56.5233   25.5515   47.8291 H   0  0  0  0  0  0  0  0  0  0  0  0
   60.9913   28.5620   49.2888 H   0  0  0  0  0  0  0  0  0  0  0  0
   63.5170   30.7760   48.7720 H   0  0  0  0  0  0  0  0  0  0  0  0
   63.2379   32.5059   50.4795 H   0  0  0  0  0  0  0  0  0  0  0  0
   64.6042   32.7431   49.3075 H   0  0  0  0  0  0  0  0  0  0  0  0
   62.2185   34.4171   49.8064 H   0  0  0  0  0  0  0  0  0  0  0  0
   63.8112   34.8032   49.0021 H   0  0  0  0  0  0  0  0  0  0  0  0
   62.7109   33.6154   45.8277 H   0  0  0  0  0  0  0  0  0  0  0  0
   64.1537   33.8698   46.8839 H   0  0  0  0  0  0  0  0  0  0  0  0
   62.4046   31.4465   46.5480 H   0  0  0  0  0  0  0  0  0  0  0  0
   64.1912   31.5928   46.8632 H   0  0  0  0  0  0  0  0  0  0  0  0
   57.2731   32.0371   47.3340 H   0  0  0  0  0  0  0  0  0  0  0  0
   58.1729   33.5598   48.9706 H   0  0  0  0  0  0  0  0  0  0  0  0
   59.8916   33.3419   48.4960 H   0  0  0  0  0  0  0  0  0  0  0  0
   59.1610   34.9829   48.4960 H   0  0  0  0  0  0  0  0  0  0  0  0
  1  2  1  0
  2  3  2  0
  3  4  1  0
  4  5  2  0
  5  6  1  0
  6  7  1  0
  7  8  2  0
  7  9  1  0
  9 10  1  0
 10 11  1  0
 11 12  2  0
 11 13  1  0
 13 14  1  0
 14 15  2  0
 15 16  1  0
 16 17  2  0
 17 18  1  0
 18 19  2  0
 13 20  1  0
 20 21  2  0
 20 22  1  0
 22 23  1  0
 23 24  2  0
 24 25  1  0
 25 26  2  0
 25 27  1  0
 27 28  1  0
 28 29  1  0
 29 30  1  0
 30 31  1  0
 31 32  1  0
 24 33  1  0
 33 34  1  0
  5 35  1  0
 35 36  2  0
 36 37  1  0
 36  2  1  0
 34 10  1  0
 19 14  1  0
 34 22  2  0
 32 27  1  0
  1 38  1  0
  1 39  1  0
  1 40  1  0
  3 41  1  0
  4 42  1  0
  9 43  1  0
  9 44  1  0
 15 45  1  0
 16 46  1  0
 17 47  1  0
 18 48  1  0
 19 49  1  0
 23 50  1  0
 27 51  1  0
 28 52  1  0
 28 53  1  0
 29 54  1  0
 29 55  1  0
 31 56  1  0
 31 57  1  0
 32 58  1  0
 32 59  1  0
 35 60  1  0
 37 61  1  0
 37 62  1  0
 37 63  1  0
M  CHG  2   6  -1  27   1
M  END
>  <UniqueID>  (62) 
56

>  <SMILES>  (62) 
Cc1ccc([N-]C(=O)Cn2c(=O)n(-c3ccccc3)c(=O)c3cc(C(=O)[NH+]4CCOCC4)sc32)cc1C

>  <Energy>  (62) 
131.62044790774613

>  <Genealogy>  (62) 
Cc1ccc([N-]C(=O)Cn2c(=O)n(-c3ccccc3)c(=O)c3cc(C(=O)[NH+]4CCOCC4)sc32)cc1C (protonated)
Cc1ccc([N-]C(=O)Cn2c(=O)n(-c3ccccc3)c(=O)c3cc(C(=O)[NH+]4CCOCC4)sc32)cc1C (3D coordinates assigned)
Cc1ccc([N-]C(=O)Cn2c(=O)n(-c3ccccc3)c(=O)c3cc(C(=O)[NH+]4CCOCC4)sc32)cc1C (nonaromatic ring conformer: 131.62044790774613 kcal/mol)

>  <smiles>  (62) 
Cc1ccc(NC(=O)Cn2c(=O)n(-c3ccccc3)c(=O)c3cc(C(=O)N4CCOCC4)sc32)cc1C

>  <score_type>  (62) 
oracle

>  <origin>  (62) 
adg

>  <m_score__min__energy>  (62) 
-10.119999999999999

>  <m_primary>  (62) 
energy

$$$$
62:0
     RDKit          3D

 44 45  0  0  0  0  0  0  0  0999 V2000
   50.6320   33.0770   52.6650 C   0  0  0  0  0  0  0  0  0  0  0  0
   51.3960   32.6870   51.4860 N   0  0  0  0  0  0  0  0  0  0  0  0
   51.6280   30.9660   51.4800 S   0  0  0  0  0  0  0  0  0  0  0  0
   51.4370   30.4340   50.0850 O   0  0  0  0  0  0  0  0  0  0  0  0
   50.6070   30.3280   52.3780 O   0  0  0  0  0  0  0  0  0  0  0  0
   53.2400   30.5650   52.0690 C   0  0  0  0  0  0  0  0  0  0  0  0
   54.2750   31.5080   52.0130 C   0  0  0  0  0  0  0  0  0  0  0  0
   55.5450   31.1880   52.5030 C   0  0  0  0  0  0  0  0  0  0  0  0
   55.7930   29.9200   53.0530 C   0  0  0  0  0  0  0  0  0  0  0  0
   57.1470   29.5780   53.6120 C   0  0  0  0  0  0  0  0  0  0  0  0
   58.1850   30.3430   52.9240 N   0  0  0  0  0  0  0  0  0  0  0  0
   58.4320   30.2210   51.5190 C   0  0  0  0  0  0  0  0  0  0  0  0
   57.7800   29.3930   50.8260 O   0  0  0  0  0  0  0  0  0  0  0  0
   59.4250   31.0470   50.9060 N   0  0  0  0  0  0  0  0  0  0  0  0
   60.2700   30.5830   49.8140 C   0  0  0  0  0  0  0  0  0  0  0  0
   59.4370   30.4190   48.5760 C   0  0  0  0  0  0  0  0  0  0  0  0
   59.0930   29.1360   48.1200 C   0  0  0  0  0  0  0  0  0  0  0  0
   58.2890   28.9820   46.9880 C   0  0  0  0  0  0  0  0  0  0  0  0
   57.8060   30.1080   46.3060 C   0  0  0  0  0  0  0  0  0  0  0  0
   56.8040   29.9070   44.8730 S   0  0  0  0  0  0  0  0  0  0  0  0
   55.5320   28.7870   45.2110 N   0  0  0  0  0  0  0  0  0  0  0  0
   57.6370   29.3870   43.7340 O   0  0  0  0  0  0  0  0  0  0  0  0
   56.2160   31.2320   44.4760 O   0  0  0  0  0  0  0  0  0  0  0  0
   58.1420   31.3890   46.7640 C   0  0  0  0  0  0  0  0  0  0  0  0
   58.9460   31.5440   47.8970 C   0  0  0  0  0  0  0  0  0  0  0  0
   54.7510   28.9810   53.1160 C   0  0  0  0  0  0  0  0  0  0  0  0
   53.4820   29.3020   52.6250 C   0  0  0  0  0  0  0  0  0  0  0  0
   51.1868   32.7938   53.5716 H   0  0  0  0  0  0  0  0  0  0  0  0
   50.4748   34.1657   52.6564 H   0  0  0  0  0  0  0  0  0  0  0  0
   49.6581   32.5658   52.6564 H   0  0  0  0  0  0  0  0  0  0  0  0
   54.0879   32.5028   51.5824 H   0  0  0  0  0  0  0  0  0  0  0  0
   56.3532   31.9328   52.4574 H   0  0  0  0  0  0  0  0  0  0  0  0
   57.1687   29.8194   54.6850 H   0  0  0  0  0  0  0  0  0  0  0  0
   57.3353   28.5043   53.4647 H   0  0  0  0  0  0  0  0  0  0  0  0
   58.7700   31.0070   53.4810 H   0  0  0  0  0  0  0  0  0  0  0  0
   61.0653   31.3194   49.6266 H   0  0  0  0  0  0  0  0  0  0  0  0
   60.7227   29.6174   50.0836 H   0  0  0  0  0  0  0  0  0  0  0  0
   59.4584   28.2481   48.6568 H   0  0  0  0  0  0  0  0  0  0  0  0
   58.0338   27.9736   46.6303 H   0  0  0  0  0  0  0  0  0  0  0  0
   54.6560   29.3440   45.3210 H   0  0  0  0  0  0  0  0  0  0  0  0
   57.7715   32.2763   46.2297 H   0  0  0  0  0  0  0  0  0  0  0  0
   59.1948   32.5529   48.2578 H   0  0  0  0  0  0  0  0  0  0  0  0
   54.9339   27.9885   53.5536 H   0  0  0  0  0  0  0  0  0  0  0  0
   52.6710   28.5606   52.6754 H   0  0  0  0  0  0  0  0  0  0  0  0
  1  2  1  0
  2  3  1  0
  3  4  2  0
  3  5  2  0
  3  6  1  0
  6  7  2  0
  7  8  1  0
  8  9  2  0
  9 10  1  0
 10 11  1  0
 11 12  1  0
 12 13  2  0
 12 14  1  0
 14 15  1  0
 15 16  1  0
 16 17  2  0
 17 18  1  0
 18 19  2  0
 19 20  1  0
 20 21  1  0
 20 22  2  0
 20 23  2  0
 19 24  1  0
 24 25  2  0
  9 26  1  0
 26 27  2  0
 27  6  1  0
 25 16  1  0
  1 28  1  0
  1 29  1  0
  1 30  1  0
  7 31  1  0
  8 32  1  0
 10 33  1  0
 10 34  1  0
 11 35  1  0
 15 36  1  0
 15 37  1  0
 17 38  1  0
 18 39  1  0
 21 40  1  0
 24 41  1  0
 25 42  1  0
 26 43  1  0
 27 44  1  0
M  CHG  3   2  -1  14  -1  21  -1
M  END
>  <UniqueID>  (63) 
57

>  <SMILES>  (63) 
C[N-]S(=O)(=O)c1ccc(CNC(=O)[N-]Cc2ccc(S([NH-])(=O)=O)cc2)cc1

>  <Energy>  (63) 
35.97659353235667

>  <Genealogy>  (63) 
C[N-]S(=O)(=O)c1ccc(CNC(=O)[N-]Cc2ccc(S([NH-])(=O)=O)cc2)cc1 (protonated)
C[N-]S(=O)(=O)c1ccc(CNC(=O)[N-]Cc2ccc(S([NH-])(=O)=O)cc2)cc1 (3D coordinates assigned)
C[N-]S(=O)(=O)c1ccc(CNC(=O)[N-]Cc2ccc(S([NH-])(=O)=O)cc2)cc1 (optimized conformer: 35.97659353235667 kcal/mol)

>  <smiles>  (63) 
CNS(=O)(=O)c1ccc(CNC(=O)NCc2ccc(S(N)(=O)=O)cc2)cc1

>  <score_type>  (63) 
oracle

>  <origin>  (63) 
adg

>  <m_score__min__energy>  (63) 
-13.77

>  <m_primary>  (63) 
energy

$$$$
63:0
     RDKit          3D

 41 44  0  0  0  0  0  0  0  0999 V2000
   59.8370   35.2420   48.1670 H   0  0  0  0  0  0  0  0  0  0  0  0
   60.2730   34.7080   48.9100 O   0  0  0  0  0  0  0  0  0  0  0  0
   61.4850   34.0470   48.7250 C   0  0  0  0  0  0  0  0  0  0  0  0
   62.1740   33.5630   49.8460 C   0  0  0  0  0  0  0  0  0  0  0  0
   61.7904   33.7710   50.8557 H   0  0  0  0  0  0  0  0  0  0  0  0
   63.3420   32.8200   49.6880 C   0  0  0  0  0  0  0  0  0  0  0  0
   63.8858   32.4447   50.5674 H   0  0  0  0  0  0  0  0  0  0  0  0
   63.8130   32.5580   48.4040 C   0  0  0  0  0  0  0  0  0  0  0  0
   64.7228   31.9558   48.2642 H   0  0  0  0  0  0  0  0  0  0  0  0
   63.1490   33.0460   47.3240 N   0  0  0  0  0  0  0  0  0  0  0  0
   62.0210   33.8010   47.4320 C   0  0  0  0  0  0  0  0  0  0  0  0
   61.4740   34.2270   46.3250 N   0  0  0  0  0  0  0  0  0  0  0  0
   60.0950   34.5160   46.0480 C   0  0  0  0  0  0  0  0  0  0  0  0
   59.6930   35.7120   46.0510 O   0  0  0  0  0  0  0  0  0  0  0  0
   59.1750   33.4290   45.6450 C   0  0  0  0  0  0  0  0  0  0  0  0
   58.6450   32.5360   46.6180 C   0  0  0  0  0  0  0  0  0  0  0  0
   58.9264   32.6552   47.6747 H   0  0  0  0  0  0  0  0  0  0  0  0
   57.7660   31.5030   46.2460 C   0  0  0  0  0  0  0  0  0  0  0  0
   57.3520   30.8115   46.9947 H   0  0  0  0  0  0  0  0  0  0  0  0
   57.4370   31.3850   44.8960 C   0  0  0  0  0  0  0  0  0  0  0  0
   57.9360   32.2370   43.9570 C   0  0  0  0  0  0  0  0  0  0  0  0
   57.4740   31.9170   42.7340 N   0  0  0  0  0  0  0  0  0  0  0  0
   56.6800   30.8420   42.9780 C   0  0  0  0  0  0  0  0  0  0  0  0
   56.1301   30.3051   42.1910 H   0  0  0  0  0  0  0  0  0  0  0  0
   56.6330   30.4970   44.2880 N   0  0  0  0  0  0  0  0  0  0  0  0
   55.9370   29.3470   44.8670 C   0  0  0  0  0  0  0  0  0  0  0  0
   55.3915   29.6677   45.7668 H   0  0  0  0  0  0  0  0  0  0  0  0
   55.2327   28.9428   44.1250 H   0  0  0  0  0  0  0  0  0  0  0  0
   56.9270   28.2740   45.2410 C   0  0  0  0  0  0  0  0  0  0  0  0
   58.2990   28.4760   45.0120 C   0  0  0  0  0  0  0  0  0  0  0  0
   58.6475   29.4298   44.5891 H   0  0  0  0  0  0  0  0  0  0  0  0
   59.2240   27.4730   45.3180 C   0  0  0  0  0  0  0  0  0  0  0  0
   60.2964   27.6419   45.1408 H   0  0  0  0  0  0  0  0  0  0  0  0
   58.7880   26.2580   45.8480 C   0  0  0  0  0  0  0  0  0  0  0  0
   59.5169   25.4697   46.0872 H   0  0  0  0  0  0  0  0  0  0  0  0
   57.4270   26.0420   46.0750 C   0  0  0  0  0  0  0  0  0  0  0  0
   57.0864   25.0837   46.4941 H   0  0  0  0  0  0  0  0  0  0  0  0
   56.4950   27.0410   45.7710 C   0  0  0  0  0  0  0  0  0  0  0  0
   55.1440   26.8020   46.0020 O   0  0  0  0  0  0  0  0  0  0  0  0
   58.8070   33.2720   44.2870 C   0  0  0  0  0  0  0  0  0  0  0  0
   59.1985   33.9492   43.5136 H   0  0  0  0  0  0  0  0  0  0  0  0
  1  2  1  0
  2  3  1  0
  3  4  2  0
  4  5  1  0
  4  6  1  0
  6  7  1  0
  6  8  2  0
  8  9  1  0
  8 10  1  0
 10 11  1  0
 11 12  2  0
 12 13  1  0
 13 14  2  0
 13 15  1  0
 15 16  2  0
 16 17  1  0
 16 18  1  0
 18 19  1  0
 18 20  2  0
 20 21  1  0
 21 22  1  0
 22 23  2  0
 23 24  1  0
 23 25  1  0
 25 26  1  0
 26 27  1  0
 26 28  1  0
 26 29  1  0
 29 30  2  0
 30 31  1  0
 30 32  1  0
 32 33  1  0
 32 34  2  0
 34 35  1  0
 34 36  1  0
 36 37  1  0
 36 38  2  0
 38 39  1  0
 21 40  2  0
 40 41  1  0
 11  3  1  0
 40 15  1  0
 25 20  1  0
 38 29  1  0
M  CHG  2  10  -1  39  -1
M  END
>  <UniqueID>  (64) 
58

>  <SMILES>  (64) 
O=C(/N=c1/[n-]cccc1O)c1ccc2c(c1)ncn2Cc1ccccc1[O-]

>  <Energy>  (64) 
95.67724662816529

>  <Genealogy>  (64) 
O=C(N=c1[n-]cccc1O)c1ccc2c(c1)ncn2Cc1ccccc1[O-] (protonated)
O=C(/N=c1/[n-]cccc1O)c1ccc2c(c1)ncn2Cc1ccccc1[O-] (cis-trans isomerization)
O=C(/N=c1/[n-]cccc1O)c1ccc2c(c1)ncn2Cc1ccccc1[O-] (3D coordinates assigned)
O=C(/N=c1/[n-]cccc1O)c1ccc2c(c1)ncn2Cc1ccccc1[O-] (optimized conformer: 95.67724662816529 kcal/mol)

>  <smiles>  (64) 
O=C(N=c1[nH]cccc1O)c1ccc2c(c1)ncn2Cc1ccccc1O

>  <score_type>  (64) 
oracle

>  <origin>  (64) 
adg

>  <m_score__min__energy>  (64) 
-12.52

>  <m_primary>  (64) 
energy

$$$$
64:0
     RDKit          3D

 39 41  0  0  0  0  0  0  0  0999 V2000
   64.3761   34.0208   49.5024 H   0  0  0  0  0  0  0  0  0  0  0  0
   63.4760   33.8050   48.9080 C   0  0  0  0  0  0  0  0  0  0  0  0
   63.3770   33.8080   47.2250 S   0  0  0  0  0  0  0  0  0  0  0  0
   61.7420   33.3960   47.2180 C   0  0  0  0  0  0  0  0  0  0  0  0
   60.9990   33.2300   46.1650 N   0  0  0  0  0  0  0  0  0  0  0  0
   59.3560   33.7730   46.0340 S   0  0  0  0  0  0  0  0  0  0  0  0
   58.7180   33.7370   47.3940 O   0  0  0  0  0  0  0  0  0  0  0  0
   59.3450   35.1860   45.5240 O   0  0  0  0  0  0  0  0  0  0  0  0
   58.4700   32.7530   44.9050 C   0  0  0  0  0  0  0  0  0  0  0  0
   58.4710   33.0430   43.5360 C   0  0  0  0  0  0  0  0  0  0  0  0
   59.0350   33.9087   43.1585 H   0  0  0  0  0  0  0  0  0  0  0  0
   57.7570   32.2350   42.6480 C   0  0  0  0  0  0  0  0  0  0  0  0
   57.7577   32.4679   41.5729 H   0  0  0  0  0  0  0  0  0  0  0  0
   57.0420   31.1320   43.1210 C   0  0  0  0  0  0  0  0  0  0  0  0
   56.4772   30.5022   42.4179 H   0  0  0  0  0  0  0  0  0  0  0  0
   57.0420   30.8240   44.4940 C   0  0  0  0  0  0  0  0  0  0  0  0
   56.3340   29.6960   45.0240 N   0  0  0  0  0  0  0  0  0  0  0  0
   57.0150   28.1240   45.2900 S   0  0  0  0  0  0  0  0  0  0  0  0
   55.9120   27.1590   45.6200 O   0  0  0  0  0  0  0  0  0  0  0  0
   57.7050   27.6700   44.0340 O   0  0  0  0  0  0  0  0  0  0  0  0
   58.1500   28.1740   46.6370 C   0  0  0  0  0  0  0  0  0  0  0  0
   58.7610   27.0000   47.0880 C   0  0  0  0  0  0  0  0  0  0  0  0
   58.5286   26.0397   46.6045 H   0  0  0  0  0  0  0  0  0  0  0  0
   59.6640   27.0440   48.1490 C   0  0  0  0  0  0  0  0  0  0  0  0
   60.1367   26.1153   48.5011 H   0  0  0  0  0  0  0  0  0  0  0  0
   59.9750   28.2600   48.7710 C   0  0  0  0  0  0  0  0  0  0  0  0
   61.0660   28.2180   50.1510 Cl  0  0  0  0  0  0  0  0  0  0  0  0
   59.3700   29.4560   48.3180 C   0  0  0  0  0  0  0  0  0  0  0  0
   59.6740   30.7290   48.9180 N   0  0  0  0  0  0  0  0  0  0  0  0
   60.8190   30.9580   49.3600 O   0  0  0  0  0  0  0  0  0  0  0  0
   58.6810   31.6500   49.1580 O   0  0  0  0  0  0  0  0  0  0  0  0
   58.4470   29.3930   47.2570 C   0  0  0  0  0  0  0  0  0  0  0  0
   57.9532   30.3130   46.9110 H   0  0  0  0  0  0  0  0  0  0  0  0
   57.7590   31.6410   45.3780 C   0  0  0  0  0  0  0  0  0  0  0  0
   57.7641   31.4079   46.4530 H   0  0  0  0  0  0  0  0  0  0  0  0
   61.2670   33.2560   48.4730 N   0  0  0  0  0  0  0  0  0  0  0  0
   60.2790   33.0040   48.7000 H   0  0  0  0  0  0  0  0  0  0  0  0
   62.2210   33.4820   49.4140 C   0  0  0  0  0  0  0  0  0  0  0  0
   62.0166   33.4147   50.4928 H   0  0  0  0  0  0  0  0  0  0  0  0
  1  2  1  0
  2  3  1  0
  3  4  1  0
  4  5  2  0
  5  6  1  0
  6  7  2  0
  6  8  2  0
  6  9  1  0
  9 10  2  0
 10 11  1  0
 10 12  1  0
 12 13  1  0
 12 14  2  0
 14 15  1  0
 14 16  1  0
 16 17  1  0
 17 18  1  0
 18 19  2  0
 18 20  2  0
 18 21  1  0
 21 22  2  0
 22 23  1  0
 22 24  1  0
 24 25  1  0
 24 26  2  0
 26 27  1  0
 26 28  1  0
 28 29  1  0
 29 30  2  0
 29 31  1  0
 28 32  2  0
 32 33  1  0
 16 34  2  0
 34 35  1  0
  4 36  1  0
 36 37  1  0
 36 38  1  0
 38 39  1  0
 38  2  2  0
 34  9  1  0
 32 21  1  0
M  CHG  3  17  -1  29   1  31  -1
M  END
>  <UniqueID>  (65) 
59

>  <SMILES>  (65) 
O=[N+]([O-])c1cc(S(=O)(=O)[N-]c2cccc(S(=O)(=O)/N=c3/[nH]ccs3)c2)ccc1Cl

>  <Energy>  (65) 
82.52350126967416

>  <Genealogy>  (65) 
O=[N+]([O-])c1cc(S(=O)(=O)[N-]c2cccc(S(=O)(=O)N=c3[nH]ccs3)c2)ccc1Cl (protonated)
O=[N+]([O-])c1cc(S(=O)(=O)[N-]c2cccc(S(=O)(=O)/N=c3/[nH]ccs3)c2)ccc1Cl (cis-trans isomerization)
O=[N+]([O-])c1cc(S(=O)(=O)[N-]c2cccc(S(=O)(=O)/N=c3/[nH]ccs3)c2)ccc1Cl (3D coordinates assigned)
O=[N+]([O-])c1cc(S(=O)(=O)[N-]c2cccc(S(=O)(=O)/N=c3/[nH]ccs3)c2)ccc1Cl (optimized conformer: 82.52350126967416 kcal/mol)

>  <smiles>  (65) 
O=[N+]([O-])c1cc(S(=O)(=O)Nc2cccc(S(=O)(=O)N=c3[nH]ccs3)c2)ccc1Cl

>  <score_type>  (65) 
oracle

>  <origin>  (65) 
adg

>  <m_score__min__energy>  (65) 
-10.140000000000001

>  <m_primary>  (65) 
energy

$$$$
65:0
     RDKit          3D

 26 26  0  0  0  0  0  0  0  0999 V2000
   59.2450   27.7320   43.5850 O   0  0  0  0  0  0  0  0  0  0  0  0
   58.2910   27.4740   44.3670 C   0  0  0  0  0  0  0  0  0  0  0  0
   58.4800   26.4540   45.4460 C   0  0  0  0  0  0  0  0  0  0  0  0
   57.4570   26.6590   46.5250 C   0  0  0  0  0  0  0  0  0  0  0  0
   57.7360   27.3970   47.5070 O   0  0  0  0  0  0  0  0  0  0  0  0
   56.1190   26.0500   46.4320 C   0  0  0  0  0  0  0  0  0  0  0  0
   55.1490   26.7210   45.9900 O   0  0  0  0  0  0  0  0  0  0  0  0
   55.9140   24.7340   46.8260 O   0  0  0  0  0  0  0  0  0  0  0  0
   57.0540   28.1920   44.2610 N   0  0  0  0  0  0  0  0  0  0  0  0
   56.9260   29.4100   43.4640 C   0  0  0  0  0  0  0  0  0  0  0  0
   57.4160   30.5930   44.2540 C   0  0  0  0  0  0  0  0  0  0  0  0
   57.4790   31.8610   43.6500 C   0  0  0  0  0  0  0  0  0  0  0  0
   57.8970   32.9720   44.3880 C   0  0  0  0  0  0  0  0  0  0  0  0
   58.2520   32.8270   45.7330 C   0  0  0  0  0  0  0  0  0  0  0  0
   58.1860   31.5700   46.3410 C   0  0  0  0  0  0  0  0  0  0  0  0
   57.7670   30.4570   45.6070 C   0  0  0  0  0  0  0  0  0  0  0  0
   58.3645   25.4464   45.0201 H   0  0  0  0  0  0  0  0  0  0  0  0
   59.4870   26.5621   45.8753 H   0  0  0  0  0  0  0  0  0  0  0  0
   56.2330   27.8820   44.8270 H   0  0  0  0  0  0  0  0  0  0  0  0
   57.5252   29.3104   42.5469 H   0  0  0  0  0  0  0  0  0  0  0  0
   55.8684   29.5622   43.2026 H   0  0  0  0  0  0  0  0  0  0  0  0
   57.1984   31.9792   42.5930 H   0  0  0  0  0  0  0  0  0  0  0  0
   57.9468   33.9616   43.9103 H   0  0  0  0  0  0  0  0  0  0  0  0
   58.5830   33.7017   46.3121 H   0  0  0  0  0  0  0  0  0  0  0  0
   58.4644   31.4567   47.3991 H   0  0  0  0  0  0  0  0  0  0  0  0
   57.7119   29.4707   46.0909 H   0  0  0  0  0  0  0  0  0  0  0  0
  1  2  2  0
  2  3  1  0
  3  4  1  0
  4  5  2  0
  4  6  1  0
  6  7  2  0
  6  8  1  0
  2  9  1  0
  9 10  1  0
 10 11  1  0
 11 12  2  0
 12 13  1  0
 13 14  2  0
 14 15  1  0
 15 16  2  0
 16 11  1  0
  3 17  1  0
  3 18  1  0
  9 19  1  0
 10 20  1  0
 10 21  1  0
 12 22  1  0
 13 23  1  0
 14 24  1  0
 15 25  1  0
 16 26  1  0
M  CHG  1   8  -1
M  END
>  <UniqueID>  (66) 
60

>  <SMILES>  (66) 
O=C(CC(=O)C(=O)[O-])NCc1ccccc1

>  <Energy>  (66) 
17.571829192009904

>  <Genealogy>  (66) 
O=C(CC(=O)C(=O)[O-])NCc1ccccc1 (protonated)
O=C(CC(=O)C(=O)[O-])NCc1ccccc1 (3D coordinates assigned)
O=C(CC(=O)C(=O)[O-])NCc1ccccc1 (optimized conformer: 17.571829192009904 kcal/mol)

>  <smiles>  (66) 
O=C(CC(=O)C(=O)O)NCc1ccccc1

>  <score_type>  (66) 
oracle

>  <origin>  (66) 
adg

>  <m_score__min__energy>  (66) 
-9.4499999999999993

>  <m_primary>  (66) 
energy

$$$$
66:0
     RDKit          3D

 74 76  0  0  0  0  0  0  0  0999 V2000
   56.9500   27.3960   45.5330 C   0  0  0  0  0  0  0  0  0  0  0  0
   55.9020   28.3170   45.2570 O   0  0  0  0  0  0  0  0  0  0  0  0
   56.1390   29.6130   44.7900 C   0  0  0  0  0  0  0  0  0  0  0  0
   55.1770   30.3690   44.4810 O   0  0  0  0  0  0  0  0  0  0  0  0
   57.5460   30.1350   44.7150 C   0  0  1  0  0  0  0  0  0  0  0  0
   57.5910   31.5560   44.1140 C   0  0  0  0  0  0  0  0  0  0  0  0
   58.5360   32.4610   44.7990 N   0  0  0  0  0  0  0  0  0  0  0  0
   57.8460   33.4730   45.6090 C   0  0  0  0  0  0  0  0  0  0  0  0
   58.4470   33.5250   46.9870 C   0  0  0  0  0  0  0  0  0  0  0  0
   58.1850   32.4970   47.9070 C   0  0  0  0  0  0  0  0  0  0  0  0
   58.7640   32.5260   49.1780 C   0  0  0  0  0  0  0  0  0  0  0  0
   59.5950   33.5890   49.5500 C   0  0  0  0  0  0  0  0  0  0  0  0
   60.1390   33.6160   50.8730 N   0  0  0  0  0  0  0  0  0  0  0  0
   59.1680   33.5930   52.3130 S   0  0  0  0  0  0  0  0  0  0  0  0
   60.0750   33.6620   53.5140 O   0  0  0  0  0  0  0  0  0  0  0  0
   58.2650   34.7980   52.3160 O   0  0  0  0  0  0  0  0  0  0  0  0
   58.1950   32.1270   52.4270 C   0  0  0  0  0  0  0  0  0  0  0  0
   56.8500   32.1280   52.0280 C   0  0  0  0  0  0  0  0  0  0  0  0
   56.1060   30.9450   52.0600 C   0  0  0  0  0  0  0  0  0  0  0  0
   56.7010   29.7550   52.4900 C   0  0  0  0  0  0  0  0  0  0  0  0
   58.0410   29.7480   52.8930 C   0  0  0  0  0  0  0  0  0  0  0  0
   58.7850   30.9320   52.8660 C   0  0  0  0  0  0  0  0  0  0  0  0
   59.9060   34.5870   48.6130 C   0  0  0  0  0  0  0  0  0  0  0  0
   59.3320   34.5580   47.3390 C   0  0  0  0  0  0  0  0  0  0  0  0
   58.1660   30.1260   46.0400 N   0  0  0  0  0  0  0  0  0  0  0  0
   59.5370   29.7830   46.2660 C   0  0  0  0  0  0  0  0  0  0  0  0
   60.4320   30.6680   46.1890 O   0  0  0  0  0  0  0  0  0  0  0  0
   59.8910   28.3450   46.5180 C   0  0  0  0  0  0  0  0  0  0  0  0
   59.3190   27.8180   47.8480 C   0  0  0  0  0  0  0  0  0  0  0  0
   59.3760   28.8630   48.9820 C   0  0  0  0  0  0  0  0  0  0  0  0
   60.7790   29.0650   49.5820 C   0  0  0  0  0  0  0  0  0  0  0  0
   60.8950   30.3640   50.3990 C   0  0  0  0  0  0  0  0  0  0  0  0
   62.3480   30.8470   50.5220 C   0  0  0  0  0  0  0  0  0  0  0  0
   62.6870   31.8770   49.4710 C   0  0  0  0  0  0  0  0  0  0  0  0
   62.5720   31.5610   48.1040 C   0  0  0  0  0  0  0  0  0  0  0  0
   62.8400   32.5300   47.1320 C   0  0  0  0  0  0  0  0  0  0  0  0
   63.2190   33.8200   47.5160 C   0  0  0  0  0  0  0  0  0  0  0  0
   63.3320   34.1430   48.8710 C   0  0  0  0  0  0  0  0  0  0  0  0
   63.0710   33.1760   49.8470 C   0  0  0  0  0  0  0  0  0  0  0  0
   57.0690   27.2914   46.6215 H   0  0  0  0  0  0  0  0  0  0  0  0
   56.7029   26.4175   45.0955 H   0  0  0  0  0  0  0  0  0  0  0  0
   57.8887   27.7668   45.0955 H   0  0  0  0  0  0  0  0  0  0  0  0
   58.1142   29.4685   44.0494 H   0  0  0  0  0  0  0  0  0  0  0  0
   57.8892   31.4771   43.0581 H   0  0  0  0  0  0  0  0  0  0  0  0
   56.5868   31.9882   44.2355 H   0  0  0  0  0  0  0  0  0  0  0  0
   59.1960   31.9200   45.4030 H   0  0  0  0  0  0  0  0  0  0  0  0
   57.9499   34.4571   45.1287 H   0  0  0  0  0  0  0  0  0  0  0  0
   56.7814   33.2079   45.6887 H   0  0  0  0  0  0  0  0  0  0  0  0
   57.5215   31.6659   47.6259 H   0  0  0  0  0  0  0  0  0  0  0  0
   58.5661   31.7104   49.8891 H   0  0  0  0  0  0  0  0  0  0  0  0
   56.3794   33.0626   51.6889 H   0  0  0  0  0  0  0  0  0  0  0  0
   55.0516   30.9503   51.7466 H   0  0  0  0  0  0  0  0  0  0  0  0
   56.1155   28.8240   52.5115 H   0  0  0  0  0  0  0  0  0  0  0  0
   58.5090   28.8116   53.2309 H   0  0  0  0  0  0  0  0  0  0  0  0
   59.8362   30.9264   53.1900 H   0  0  0  0  0  0  0  0  0  0  0  0
   60.6033   35.3940   48.8822 H   0  0  0  0  0  0  0  0  0  0  0  0
   59.5736   35.3457   46.6102 H   0  0  0  0  0  0  0  0  0  0  0  0
   59.4902   27.7342   45.6956 H   0  0  0  0  0  0  0  0  0  0  0  0
   60.9873   28.2773   46.5769 H   0  0  0  0  0  0  0  0  0  0  0  0
   58.2695   27.5295   47.6889 H   0  0  0  0  0  0  0  0  0  0  0  0
   59.9366   26.9617   48.1568 H   0  0  0  0  0  0  0  0  0  0  0  0
   59.0300   29.8270   48.5808 H   0  0  0  0  0  0  0  0  0  0  0  0
   58.7360   28.4854   49.7931 H   0  0  0  0  0  0  0  0  0  0  0  0
   61.0058   28.2137   50.2407 H   0  0  0  0  0  0  0  0  0  0  0  0
   61.4907   29.1340   48.7461 H   0  0  0  0  0  0  0  0  0  0  0  0
   60.3024   31.1474   49.9040 H   0  0  0  0  0  0  0  0  0  0  0  0
   60.5215   30.1585   51.4130 H   0  0  0  0  0  0  0  0  0  0  0  0
   62.4920   31.2929   51.5172 H   0  0  0  0  0  0  0  0  0  0  0  0
   63.0100   29.9804   50.3778 H   0  0  0  0  0  0  0  0  0  0  0  0
   62.2702   30.5481   47.7993 H   0  0  0  0  0  0  0  0  0  0  0  0
   62.7526   32.2773   46.0650 H   0  0  0  0  0  0  0  0  0  0  0  0
   63.4285   34.5816   46.7505 H   0  0  0  0  0  0  0  0  0  0  0  0
   63.6268   35.1596   49.1704 H   0  0  0  0  0  0  0  0  0  0  0  0
   63.1665   33.4327   50.9124 H   0  0  0  0  0  0  0  0  0  0  0  0
  1  2  1  0
  2  3  1  0
  3  4  2  0
  3  5  1  0
  5  6  1  0
  6  7  1  0
  7  8  1  0
  8  9  1  0
  9 10  2  0
 10 11  1  0
 11 12  2  0
 12 13  1  0
 13 14  1  0
 14 15  2  0
 14 16  2  0
 14 17  1  0
 17 18  2  0
 18 19  1  0
 19 20  2  0
 20 21  1  0
 21 22  2  0
 12 23  1  0
 23 24  2  0
  5 25  1  0
 25 26  1  0
 26 27  2  0
 26 28  1  0
 28 29  1  0
 29 30  1  0
 30 31  1  0
 31 32  1  0
 32 33  1  0
 33 34  1  0
 34 35  2  0
 35 36  1  0
 36 37  2  0
 37 38  1  0
 38 39  2  0
 24  9  1  0
 39 34  1  0
 22 17  1  0
  1 40  1  0
  1 41  1  0
  1 42  1  0
  5 43  1  6
  6 44  1  0
  6 45  1  0
  7 46  1  0
  8 47  1  0
  8 48  1  0
 10 49  1  0
 11 50  1  0
 18 51  1  0
 19 52  1  0
 20 53  1  0
 21 54  1  0
 22 55  1  0
 23 56  1  0
 24 57  1  0
 28 58  1  0
 28 59  1  0
 29 60  1  0
 29 61  1  0
 30 62  1  0
 30 63  1  0
 31 64  1  0
 31 65  1  0
 32 66  1  0
 32 67  1  0
 33 68  1  0
 33 69  1  0
 35 70  1  0
 36 71  1  0
 37 72  1  0
 38 73  1  0
 39 74  1  0
M  CHG  2  13  -1  25  -1
M  END
>  <UniqueID>  (67) 
61

>  <SMILES>  (67) 
COC(=O)[C@@H](CNCc1ccc([N-]S(=O)(=O)c2ccccc2)cc1)[N-]C(=O)CCCCCCc1ccccc1

>  <Energy>  (67) 
69.58704636949106

>  <Genealogy>  (67) 
COC(=O)C(CNCc1ccc([N-]S(=O)(=O)c2ccccc2)cc1)[N-]C(=O)CCCCCCc1ccccc1 (protonated)
COC(=O)[C@@H](CNCc1ccc([N-]S(=O)(=O)c2ccccc2)cc1)[N-]C(=O)CCCCCCc1ccccc1 (chirality)
COC(=O)[C@@H](CNCc1ccc([N-]S(=O)(=O)c2ccccc2)cc1)[N-]C(=O)CCCCCCc1ccccc1 (3D coordinates assigned)
COC(=O)[C@@H](CNCc1ccc([N-]S(=O)(=O)c2ccccc2)cc1)[N-]C(=O)CCCCCCc1ccccc1 (optimized conformer: 69.58704636949106 kcal/mol)

>  <smiles>  (67) 
COC(=O)C(CNCc1ccc(NS(=O)(=O)c2ccccc2)cc1)NC(=O)CCCCCCc1ccccc1

>  <score_type>  (67) 
oracle

>  <origin>  (67) 
adg

>  <m_score__min__energy>  (67) 
-13.109999999999999

>  <m_primary>  (67) 
energy

$$$$
67:0
     RDKit          3D

 34 36  0  0  0  0  0  0  0  0999 V2000
   57.7690   22.0900   44.9540 N   0  0  0  0  0  0  0  0  0  0  0  0
   56.1800   22.6940   44.6340 S   0  0  0  0  0  0  0  0  0  0  0  0
   55.8790   22.5750   43.1660 O   0  0  0  0  0  0  0  0  0  0  0  0
   55.1830   21.8830   45.4150 O   0  0  0  0  0  0  0  0  0  0  0  0
   56.0760   24.3750   45.1200 C   0  0  0  0  0  0  0  0  0  0  0  0
   54.9990   24.9070   45.7380 N   0  0  0  0  0  0  0  0  0  0  0  0
   55.1440   26.2010   46.0160 N   0  0  0  0  0  0  0  0  0  0  0  0
   56.3400   26.6950   45.6240 C   0  0  0  0  0  0  0  0  0  0  0  0
   56.7120   27.9330   45.7610 N   0  0  0  0  0  0  0  0  0  0  0  0
   56.3820   29.0500   44.9180 C   0  0  0  0  0  0  0  0  0  0  0  0
   55.1700   29.3820   44.8170 O   0  0  0  0  0  0  0  0  0  0  0  0
   57.4260   29.8330   44.1620 C   0  0  0  0  0  0  0  0  0  0  0  0
   58.3220   30.5390   45.0790 N   0  0  0  0  0  0  0  0  0  0  0  0
   59.4120   29.9140   45.8280 C   0  0  0  0  0  0  0  0  0  0  0  0
   60.0810   31.0550   46.6350 C   0  0  0  0  0  0  0  0  0  0  0  0
   59.2980   32.2610   46.2450 C   0  0  0  0  0  0  0  0  0  0  0  0
   59.4750   33.5790   46.6690 C   0  0  0  0  0  0  0  0  0  0  0  0
   58.6130   34.5670   46.1660 C   0  0  0  0  0  0  0  0  0  0  0  0
   57.5970   34.2230   45.2530 C   0  0  0  0  0  0  0  0  0  0  0  0
   57.4380   32.8900   44.8410 C   0  0  0  0  0  0  0  0  0  0  0  0
   58.3100   31.9280   45.3590 C   0  0  0  0  0  0  0  0  0  0  0  0
   57.2900   25.5190   44.8860 S   0  0  0  0  0  0  0  0  0  0  0  0
   57.8030   21.8360   45.9670 H   0  0  0  0  0  0  0  0  0  0  0  0
   57.8720   21.2000   44.4150 H   0  0  0  0  0  0  0  0  0  0  0  0
   58.0169   29.1407   43.5443 H   0  0  0  0  0  0  0  0  0  0  0  0
   56.9163   30.5757   43.5307 H   0  0  0  0  0  0  0  0  0  0  0  0
   59.0172   29.1448   46.5081 H   0  0  0  0  0  0  0  0  0  0  0  0
   60.1300   29.4180   45.1583 H   0  0  0  0  0  0  0  0  0  0  0  0
   60.0044   30.8691   47.7165 H   0  0  0  0  0  0  0  0  0  0  0  0
   61.1561   31.1554   46.4250 H   0  0  0  0  0  0  0  0  0  0  0  0
   60.2721   33.8381   47.3814 H   0  0  0  0  0  0  0  0  0  0  0  0
   58.7316   35.6127   46.4860 H   0  0  0  0  0  0  0  0  0  0  0  0
   56.9257   35.0014   44.8613 H   0  0  0  0  0  0  0  0  0  0  0  0
   56.6476   32.6100   44.1290 H   0  0  0  0  0  0  0  0  0  0  0  0
  1  2  1  0
  2  3  2  0
  2  4  2  0
  2  5  1  0
  5  6  2  0
  6  7  1  0
  7  8  1  0
  8  9  2  3
  9 10  1  0
 10 11  2  0
 10 12  1  0
 12 13  1  0
 13 14  1  0
 14 15  1  0
 15 16  1  0
 16 17  2  0
 17 18  1  0
 18 19  2  0
 19 20  1  0
 20 21  2  0
  8 22  1  0
 22  5  1  0
 21 13  1  0
 21 16  1  0
  1 23  1  0
  1 24  1  0
 12 25  1  0
 12 26  1  0
 14 27  1  0
 14 28  1  0
 15 29  1  0
 15 30  1  0
 17 31  1  0
 18 32  1  0
 19 33  1  0
 20 34  1  0
M  CHG  1   7  -1
M  END
>  <UniqueID>  (68) 
62

>  <SMILES>  (68) 
NS(=O)(=O)c1n[n-]c(=NC(=O)CN2CCc3ccccc32)s1

>  <Energy>  (68) 
84.93025634201491

>  <Genealogy>  (68) 
NS(=O)(=O)c1n[n-]c(=NC(=O)CN2CCc3ccccc32)s1 (protonated)
NS(=O)(=O)c1n[n-]c(=NC(=O)CN2CCc3ccccc32)s1 (3D coordinates assigned)
NS(=O)(=O)c1n[n-]c(=NC(=O)CN2CCc3ccccc32)s1 (nonaromatic ring conformer: 84.93025634201491 kcal/mol)

>  <smiles>  (68) 
NS(=O)(=O)c1n[nH]c(=NC(=O)CN2CCc3ccccc32)s1

>  <score_type>  (68) 
oracle

>  <origin>  (68) 
adg

>  <m_score__min__energy>  (68) 
-10.470000000000001

>  <m_primary>  (68) 
energy

$$$$
68:0
     RDKit          3D

 66 70  0  0  0  0  0  0  0  0999 V2000
   62.7650   33.7530   51.3970 N   0  0  0  0  0  0  0  0  0  0  0  0
   62.8660   33.2970   50.0430 C   0  0  0  0  0  0  0  0  0  0  0  0
   62.9980   34.2360   49.0080 C   0  0  0  0  0  0  0  0  0  0  0  0
   63.1000   33.8160   47.6800 C   0  0  0  0  0  0  0  0  0  0  0  0
   63.0610   32.4550   47.3740 C   0  0  0  0  0  0  0  0  0  0  0  0
   62.9270   31.5090   48.3950 C   0  0  0  0  0  0  0  0  0  0  0  0
   62.8440   31.9190   49.7390 C   0  0  0  0  0  0  0  0  0  0  0  0
   62.6510   30.9680   50.7980 N   0  0  0  0  0  0  0  0  0  0  0  0
   61.6070   30.9680   51.7800 C   0  0  0  0  0  0  0  0  0  0  0  0
   61.7380   31.6410   52.8350 O   0  0  0  0  0  0  0  0  0  0  0  0
   60.3310   30.2540   51.5500 C   0  0  0  0  0  0  0  0  0  0  0  0
   59.2350   30.7730   50.9510 C   0  0  0  0  0  0  0  0  0  0  0  0
   59.3610   31.4990   49.6560 C   0  0  0  0  0  0  0  0  0  0  0  0
   59.5790   30.7990   48.4540 C   0  0  0  0  0  0  0  0  0  0  0  0
   59.7000   31.4870   47.2420 C   0  0  0  0  0  0  0  0  0  0  0  0
   59.6000   32.8800   47.2030 C   0  0  0  0  0  0  0  0  0  0  0  0
   59.7300   33.5270   45.9660 O   0  0  0  0  0  0  0  0  0  0  0  0
   58.6790   33.7930   45.0770 C   0  0  0  0  0  0  0  0  0  0  0  0
   58.2950   34.9790   44.8800 O   0  0  0  0  0  0  0  0  0  0  0  0
   57.9780   32.6720   44.4160 C   0  0  0  0  0  0  0  0  0  0  0  0
   58.0960   32.4710   43.0300 C   0  0  0  0  0  0  0  0  0  0  0  0
   57.4270   31.4110   42.4150 C   0  0  0  0  0  0  0  0  0  0  0  0
   56.6440   30.5560   43.1900 C   0  0  0  0  0  0  0  0  0  0  0  0
   56.5380   30.7570   44.5290 N   0  0  0  0  0  0  0  0  0  0  0  0
   57.1780   31.7820   45.1530 C   0  0  0  0  0  0  0  0  0  0  0  0
   59.4160   33.5880   48.4020 C   0  0  0  0  0  0  0  0  0  0  0  0
   59.2980   32.9050   49.6150 C   0  0  0  0  0  0  0  0  0  0  0  0
   57.9030   30.7070   51.5890 C   0  0  0  0  0  0  0  0  0  0  0  0
   57.0490   31.8200   51.5660 C   0  0  0  0  0  0  0  0  0  0  0  0
   55.7730   31.7360   52.1290 C   0  0  0  0  0  0  0  0  0  0  0  0
   55.3310   30.5390   52.7160 C   0  0  0  0  0  0  0  0  0  0  0  0
   53.9740   30.4410   53.3010 C   0  0  0  0  0  0  0  0  0  0  0  0
   53.7730   29.6680   54.2730 O   0  0  0  0  0  0  0  0  0  0  0  0
   52.8660   31.1770   52.7650 N   0  0  0  0  0  0  0  0  0  0  0  0
   52.3200   31.0110   51.4480 C   0  0  0  0  0  0  0  0  0  0  0  0
   52.6460   29.8550   50.7260 C   0  0  0  0  0  0  0  0  0  0  0  0
   52.1470   29.6660   49.4350 C   0  0  0  0  0  0  0  0  0  0  0  0
   51.2980   30.6210   48.8650 C   0  0  0  0  0  0  0  0  0  0  0  0
   50.9420   31.7600   49.5880 C   0  0  0  0  0  0  0  0  0  0  0  0
   51.4350   31.9540   50.8830 C   0  0  0  0  0  0  0  0  0  0  0  0
   51.0210   33.0700   51.6040 O   0  0  0  0  0  0  0  0  0  0  0  0
   56.1840   29.4230   52.7210 C   0  0  0  0  0  0  0  0  0  0  0  0
   57.4650   29.5090   52.1690 C   0  0  0  0  0  0  0  0  0  0  0  0
   62.6100   33.0760   52.1770 H   0  0  0  0  0  0  0  0  0  0  0  0
   62.8160   34.7680   51.6380 H   0  0  0  0  0  0  0  0  0  0  0  0
   63.0213   35.3100   49.2445 H   0  0  0  0  0  0  0  0  0  0  0  0
   63.2110   34.5578   46.8754 H   0  0  0  0  0  0  0  0  0  0  0  0
   63.1359   32.1256   46.3271 H   0  0  0  0  0  0  0  0  0  0  0  0
   62.8862   30.4382   48.1464 H   0  0  0  0  0  0  0  0  0  0  0  0
   60.2687   29.2117   51.8960 H   0  0  0  0  0  0  0  0  0  0  0  0
   59.6548   29.7017   48.4681 H   0  0  0  0  0  0  0  0  0  0  0  0
   59.8754   30.9265   46.3119 H   0  0  0  0  0  0  0  0  0  0  0  0
   58.7171   33.1507   42.4281 H   0  0  0  0  0  0  0  0  0  0  0  0
   57.5166   31.2519   41.3303 H   0  0  0  0  0  0  0  0  0  0  0  0
   56.1117   29.7180   42.7163 H   0  0  0  0  0  0  0  0  0  0  0  0
   57.0690   31.9151   46.2395 H   0  0  0  0  0  0  0  0  0  0  0  0
   59.3645   34.6867   48.3859 H   0  0  0  0  0  0  0  0  0  0  0  0
   59.1545   33.4712   50.5471 H   0  0  0  0  0  0  0  0  0  0  0  0
   57.3846   32.7602   51.1040 H   0  0  0  0  0  0  0  0  0  0  0  0
   55.1099   32.6135   52.1124 H   0  0  0  0  0  0  0  0  0  0  0  0
   53.2979   29.0929   51.1780 H   0  0  0  0  0  0  0  0  0  0  0  0
   52.4218   28.7656   48.8660 H   0  0  0  0  0  0  0  0  0  0  0  0
   50.9109   30.4737   47.8460 H   0  0  0  0  0  0  0  0  0  0  0  0
   50.2718   32.5076   49.1386 H   0  0  0  0  0  0  0  0  0  0  0  0
   55.8415   28.4753   53.1622 H   0  0  0  0  0  0  0  0  0  0  0  0
   58.1312   28.6339   52.1899 H   0  0  0  0  0  0  0  0  0  0  0  0
  1  2  1  0
  2  3  2  0
  3  4  1  0
  4  5  2  0
  5  6  1  0
  6  7  2  0
  7  8  1  0
  8  9  1  0
  9 10  2  0
  9 11  1  0
 11 12  2  3
 12 13  1  0
 13 14  2  0
 14 15  1  0
 15 16  2  0
 16 17  1  0
 17 18  1  0
 18 19  2  0
 18 20  1  0
 20 21  2  0
 21 22  1  0
 22 23  2  0
 23 24  1  0
 24 25  2  0
 16 26  1  0
 26 27  2  0
 12 28  1  0
 28 29  2  0
 29 30  1  0
 30 31  2  0
 31 32  1  0
 32 33  2  0
 32 34  1  0
 34 35  1  0
 35 36  2  0
 36 37  1  0
 37 38  2  0
 38 39  1  0
 39 40  2  0
 40 41  1  0
 31 42  1  0
 42 43  2  0
  7  2  1  0
 27 13  1  0
 43 28  1  0
 25 20  1  0
 40 35  1  0
  1 44  1  0
  1 45  1  0
  3 46  1  0
  4 47  1  0
  5 48  1  0
  6 49  1  0
 11 50  1  0
 14 51  1  0
 15 52  1  0
 21 53  1  0
 22 54  1  0
 23 55  1  0
 25 56  1  0
 26 57  1  0
 27 58  1  0
 29 59  1  0
 30 60  1  0
 36 61  1  0
 37 62  1  0
 38 63  1  0
 39 64  1  0
 42 65  1  0
 43 66  1  0
M  CHG  3   8  -1  34  -1  41  -1
M  END
>  <UniqueID>  (69) 
63

>  <SMILES>  (69) 
Nc1ccccc1[N-]C(=O)C=C(c1ccc(OC(=O)c2cccnc2)cc1)c1ccc(C(=O)[N-]c2ccccc2[O-])cc1

>  <Energy>  (69) 
103.82153703502276

>  <Genealogy>  (69) 
Nc1ccccc1[N-]C(=O)C=C(c1ccc(OC(=O)c2cccnc2)cc1)c1ccc(C(=O)[N-]c2ccccc2[O-])cc1 (protonated)
Nc1ccccc1[N-]C(=O)C=C(c1ccc(OC(=O)c2cccnc2)cc1)c1ccc(C(=O)[N-]c2ccccc2[O-])cc1 (3D coordinates assigned)
Nc1ccccc1[N-]C(=O)C=C(c1ccc(OC(=O)c2cccnc2)cc1)c1ccc(C(=O)[N-]c2ccccc2[O-])cc1 (optimized conformer: 103.82153703502276 kcal/mol)

>  <smiles>  (69) 
Nc1ccccc1NC(=O)C=C(c1ccc(OC(=O)c2cccnc2)cc1)c1ccc(C(=O)Nc2ccccc2O)cc1

>  <score_type>  (69) 
oracle

>  <origin>  (69) 
adg

>  <m_score__min__energy>  (69) 
-16.149999999999999

>  <m_primary>  (69) 
energy

$$$$
69:0
     RDKit          3D

 40 41  0  0  0  0  0  0  0  0999 V2000
   55.7880   30.0840   43.8380 C   0  0  0  0  0  0  0  0  0  0  0  0
   55.5920   29.1300   44.8770 O   0  0  0  0  0  0  0  0  0  0  0  0
   56.6140   28.3540   45.4460 C   0  0  0  0  0  0  0  0  0  0  0  0
   57.9560   28.7860   45.4790 C   0  0  0  0  0  0  0  0  0  0  0  0
   58.9500   27.9780   46.0560 C   0  0  0  0  0  0  0  0  0  0  0  0
   60.3830   28.4370   46.0630 C   0  0  0  0  0  0  0  0  0  0  0  0
   60.5760   29.4880   47.0590 N   0  0  0  0  0  0  0  0  0  0  0  0
   60.9270   29.2080   48.4200 C   0  0  0  0  0  0  0  0  0  0  0  0
   61.0600   28.0170   48.8120 O   0  0  0  0  0  0  0  0  0  0  0  0
   61.0830   30.3260   49.3980 C   0  0  0  0  0  0  0  0  0  0  0  0
   60.8310   31.5930   48.7170 N   0  0  0  0  0  0  0  0  0  0  0  0
   59.1280   31.7890   48.4440 S   0  0  0  0  0  0  0  0  0  0  0  0
   58.4660   32.3420   49.6760 O   0  0  0  0  0  0  0  0  0  0  0  0
   58.5220   30.4490   48.1390 O   0  0  0  0  0  0  0  0  0  0  0  0
   58.8640   32.8630   47.0730 C   0  0  0  0  0  0  0  0  0  0  0  0
   59.6480   34.0180   46.9340 C   0  0  0  0  0  0  0  0  0  0  0  0
   59.4380   34.8830   45.8560 C   0  0  0  0  0  0  0  0  0  0  0  0
   58.4410   34.6030   44.9170 C   0  0  0  0  0  0  0  0  0  0  0  0
   57.6520   33.4570   45.0560 C   0  0  0  0  0  0  0  0  0  0  0  0
   57.8600   32.5890   46.1310 C   0  0  0  0  0  0  0  0  0  0  0  0
   58.5980   26.7320   46.5970 C   0  0  0  0  0  0  0  0  0  0  0  0
   57.2700   26.3030   46.5680 C   0  0  0  0  0  0  0  0  0  0  0  0
   56.2820   27.1090   45.9960 C   0  0  0  0  0  0  0  0  0  0  0  0
   54.9650   26.6650   45.9730 O   0  0  0  0  0  0  0  0  0  0  0  0
   55.9907   31.0708   44.2797 H   0  0  0  0  0  0  0  0  0  0  0  0
   56.6421   29.7783   43.2159 H   0  0  0  0  0  0  0  0  0  0  0  0
   54.8826   30.1398   43.2159 H   0  0  0  0  0  0  0  0  0  0  0  0
   58.2264   29.7622   45.0501 H   0  0  0  0  0  0  0  0  0  0  0  0
   61.0354   27.5848   46.3042 H   0  0  0  0  0  0  0  0  0  0  0  0
   60.6347   28.8363   45.0694 H   0  0  0  0  0  0  0  0  0  0  0  0
   60.4420   30.4830   46.7640 H   0  0  0  0  0  0  0  0  0  0  0  0
   60.3631   30.1998   50.2201 H   0  0  0  0  0  0  0  0  0  0  0  0
   62.1039   30.3213   49.8077 H   0  0  0  0  0  0  0  0  0  0  0  0
   60.4294   34.2435   47.6746 H   0  0  0  0  0  0  0  0  0  0  0  0
   60.0580   35.7850   45.7466 H   0  0  0  0  0  0  0  0  0  0  0  0
   58.2772   35.2841   44.0689 H   0  0  0  0  0  0  0  0  0  0  0  0
   56.8663   33.2384   44.3178 H   0  0  0  0  0  0  0  0  0  0  0  0
   57.2360   31.6896   46.2393 H   0  0  0  0  0  0  0  0  0  0  0  0
   59.3713   26.0911   47.0455 H   0  0  0  0  0  0  0  0  0  0  0  0
   57.0001   25.3267   46.9970 H   0  0  0  0  0  0  0  0  0  0  0  0
  1  2  1  0
  2  3  1  0
  3  4  2  0
  4  5  1  0
  5  6  1  0
  6  7  1  0
  7  8  1  0
  8  9  2  0
  8 10  1  0
 10 11  1  0
 11 12  1  0
 12 13  2  0
 12 14  2  0
 12 15  1  0
 15 16  2  0
 16 17  1  0
 17 18  2  0
 18 19  1  0
 19 20  2  0
  5 21  2  0
 21 22  1  0
 22 23  2  0
 23 24  1  0
 23  3  1  0
 20 15  1  0
  1 25  1  0
  1 26  1  0
  1 27  1  0
  4 28  1  0
  6 29  1  0
  6 30  1  0
  7 31  1  0
 10 32  1  0
 10 33  1  0
 16 34  1  0
 17 35  1  0
 18 36  1  0
 19 37  1  0
 20 38  1  0
 21 39  1  0
 22 40  1  0
M  CHG  2  11  -1  24  -1
M  END
>  <UniqueID>  (70) 
64

>  <SMILES>  (70) 
COc1cc(CNC(=O)C[N-]S(=O)(=O)c2ccccc2)ccc1[O-]

>  <Energy>  (70) 
33.95900292804109

>  <Genealogy>  (70) 
COc1cc(CNC(=O)C[N-]S(=O)(=O)c2ccccc2)ccc1[O-] (protonated)
COc1cc(CNC(=O)C[N-]S(=O)(=O)c2ccccc2)ccc1[O-] (3D coordinates assigned)
COc1cc(CNC(=O)C[N-]S(=O)(=O)c2ccccc2)ccc1[O-] (optimized conformer: 33.95900292804109 kcal/mol)

>  <smiles>  (70) 
COc1cc(CNC(=O)CNS(=O)(=O)c2ccccc2)ccc1O

>  <score_type>  (70) 
oracle

>  <origin>  (70) 
adg

>  <m_score__min__energy>  (70) 
-12.380000000000001

>  <m_primary>  (70) 
energy

$$$$
70:0
     RDKit          3D

 51 53  0  0  0  0  0  0  0  0999 V2000
   66.4540   32.8420   50.2260 C   0  0  0  0  0  0  0  0  0  0  0  0
   65.2450   33.4530   49.7860 O   0  0  0  0  0  0  0  0  0  0  0  0
   64.0910   32.7470   49.4120 C   0  0  0  0  0  0  0  0  0  0  0  0
   63.6060   31.6540   50.1450 C   0  0  0  0  0  0  0  0  0  0  0  0
   62.4550   30.9840   49.7320 C   0  0  0  0  0  0  0  0  0  0  0  0
   61.7680   31.3700   48.5680 C   0  0  0  0  0  0  0  0  0  0  0  0
   60.2760   30.5050   48.1160 S   0  0  0  0  0  0  0  0  0  0  0  0
   59.1910   30.7770   49.1200 O   0  0  0  0  0  0  0  0  0  0  0  0
   60.5680   29.0310   48.1040 O   0  0  0  0  0  0  0  0  0  0  0  0
   59.6760   30.9560   46.5450 N   0  0  0  0  0  0  0  0  0  0  0  0
   58.3920   30.2970   46.2850 C   0  0  0  0  0  0  0  0  0  0  0  0
   57.9370   30.6030   44.8850 C   0  0  0  0  0  0  0  0  0  0  0  0
   57.0730   29.7220   44.2130 C   0  0  0  0  0  0  0  0  0  0  0  0
   56.6200   30.0240   42.9250 C   0  0  0  0  0  0  0  0  0  0  0  0
   57.0190   31.2120   42.3040 C   0  0  0  0  0  0  0  0  0  0  0  0
   57.8650   32.1010   42.9720 C   0  0  0  0  0  0  0  0  0  0  0  0
   58.3200   31.8020   44.2610 C   0  0  0  0  0  0  0  0  0  0  0  0
   62.2430   32.4890   47.8330 C   0  0  0  0  0  0  0  0  0  0  0  0
   61.5510   33.0080   46.5890 C   0  0  0  0  0  0  0  0  0  0  0  0
   60.8220   34.2700   46.8570 N   0  0  0  0  0  0  0  0  0  0  0  0
   60.6310   34.5440   48.2970 C   0  0  0  0  0  0  0  0  0  0  0  0
   59.5910   33.6020   48.9410 C   0  0  0  0  0  0  0  0  0  0  0  0
   58.5130   33.1990   48.0200 N   0  0  0  0  0  0  0  0  0  0  0  0
   58.2900   34.1910   46.9650 C   0  0  0  0  0  0  0  0  0  0  0  0
   59.5500   34.3700   46.0940 C   0  0  0  0  0  0  0  0  0  0  0  0
   63.4020   33.1570   48.2690 C   0  0  0  0  0  0  0  0  0  0  0  0
   66.4793   32.8292   51.3256 H   0  0  0  0  0  0  0  0  0  0  0  0
   66.5031   31.8109   49.8461 H   0  0  0  0  0  0  0  0  0  0  0  0
   67.3133   33.4140   49.8461 H   0  0  0  0  0  0  0  0  0  0  0  0
   64.1363   31.3236   51.0503 H   0  0  0  0  0  0  0  0  0  0  0  0
   62.0782   30.1391   50.3271 H   0  0  0  0  0  0  0  0  0  0  0  0
   59.5550   31.9930   46.5230 H   0  0  0  0  0  0  0  0  0  0  0  0
   58.5095   29.2095   46.4014 H   0  0  0  0  0  0  0  0  0  0  0  0
   57.6423   30.6673   46.9997 H   0  0  0  0  0  0  0  0  0  0  0  0
   56.7516   28.7907   44.7022 H   0  0  0  0  0  0  0  0  0  0  0  0
   55.9498   29.3272   42.4002 H   0  0  0  0  0  0  0  0  0  0  0  0
   56.6665   31.4467   41.2888 H   0  0  0  0  0  0  0  0  0  0  0  0
   58.1738   33.0372   42.4839 H   0  0  0  0  0  0  0  0  0  0  0  0
   58.9795   32.5078   44.7873 H   0  0  0  0  0  0  0  0  0  0  0  0
   62.3061   33.1903   45.8102 H   0  0  0  0  0  0  0  0  0  0  0  0
   60.8221   32.2526   46.2601 H   0  0  0  0  0  0  0  0  0  0  0  0
   61.5938   34.4129   48.8126 H   0  0  0  0  0  0  0  0  0  0  0  0
   60.2583   35.5742   48.3965 H   0  0  0  0  0  0  0  0  0  0  0  0
   60.1095   32.6960   49.2878 H   0  0  0  0  0  0  0  0  0  0  0  0
   59.1207   34.1556   49.7671 H   0  0  0  0  0  0  0  0  0  0  0  0
   58.7590   32.2850   47.5720 H   0  0  0  0  0  0  0  0  0  0  0  0
   57.4578   33.8568   46.3281 H   0  0  0  0  0  0  0  0  0  0  0  0
   58.0528   35.1555   47.4377 H   0  0  0  0  0  0  0  0  0  0  0  0
   59.5488   33.5913   45.3170 H   0  0  0  0  0  0  0  0  0  0  0  0
   59.5074   35.3845   45.6709 H   0  0  0  0  0  0  0  0  0  0  0  0
   63.7731   34.0204   47.6973 H   0  0  0  0  0  0  0  0  0  0  0  0
  1  2  1  0
  2  3  1  0
  3  4  2  0
  4  5  1  0
  5  6  2  0
  6  7  1  0
  7  8  2  0
  7  9  2  0
  7 10  1  0
 10 11  1  0
 11 12  1  0
 12 13  2  0
 13 14  1  0
 14 15  2  0
 15 16  1  0
 16 17  2  0
  6 18  1  0
 18 19  1  0
 19 20  1  0
 20 21  1  0
 21 22  1  0
 22 23  1  0
 23 24  1  0
 24 25  1  0
 18 26  2  0
 26  3  1  0
 17 12  1  0
 25 20  1  0
  1 27  1  0
  1 28  1  0
  1 29  1  0
  4 30  1  0
  5 31  1  0
 10 32  1  0
 11 33  1  0
 11 34  1  0
 13 35  1  0
 14 36  1  0
 15 37  1  0
 16 38  1  0
 17 39  1  0
 19 40  1  0
 19 41  1  0
 21 42  1  0
 21 43  1  0
 22 44  1  0
 22 45  1  0
 23 46  1  0
 24 47  1  0
 24 48  1  0
 25 49  1  0
 25 50  1  0
 26 51  1  0
M  END
>  <UniqueID>  (71) 
65

>  <SMILES>  (71) 
COc1ccc(S(=O)(=O)NCc2ccccc2)c(CN2CCNCC2)c1

>  <Energy>  (71) 
63.66317453737448

>  <Genealogy>  (71) 
COc1ccc(S(=O)(=O)NCc2ccccc2)c(CN2CCNCC2)c1 (3D coordinates assigned)
COc1ccc(S(=O)(=O)NCc2ccccc2)c(CN2CCNCC2)c1 (nonaromatic ring conformer: 63.66317453737448 kcal/mol)

>  <smiles>  (71) 
COc1ccc(S(=O)(=O)NCc2ccccc2)c(CN2CCNCC2)c1

>  <score_type>  (71) 
oracle

>  <origin>  (71) 
adg

>  <m_score__min__energy>  (71) 
-7.2400000000000002

>  <m_primary>  (71) 
energy

$$$$
71:0
     RDKit          3D

 69 72  0  0  0  0  0  0  0  0999 V2000
   58.2490   29.6450   49.9780 H   0  0  0  0  0  0  0  0  0  0  0  0
   57.7710   30.0140   50.8290 N   0  0  0  0  0  0  0  0  0  0  0  0
   57.7550   31.4120   51.1130 C   0  0  0  0  0  0  0  0  0  0  0  0
   56.7310   31.9200   51.6410 O   0  0  0  0  0  0  0  0  0  0  0  0
   58.9150   32.2680   50.7610 C   0  0  0  0  0  0  0  0  0  0  0  0
   58.9320   33.0010   49.5610 C   0  0  0  0  0  0  0  0  0  0  0  0
   58.0625   32.9675   48.8881 H   0  0  0  0  0  0  0  0  0  0  0  0
   60.0480   33.7730   49.2170 C   0  0  0  0  0  0  0  0  0  0  0  0
   60.0486   34.3435   48.2765 H   0  0  0  0  0  0  0  0  0  0  0  0
   61.1650   33.8240   50.0630 C   0  0  0  0  0  0  0  0  0  0  0  0
   62.3950   34.5920   49.6490 C   0  0  0  0  0  0  0  0  0  0  0  0
   62.7950   35.1280   50.5223 H   0  0  0  0  0  0  0  0  0  0  0  0
   62.1145   35.3010   48.8562 H   0  0  0  0  0  0  0  0  0  0  0  0
   63.4260   33.6920   49.1260 N   0  0  0  0  0  0  0  0  0  0  0  0
   63.2330   32.7270   48.0810 C   0  0  0  0  0  0  0  0  0  0  0  0
   63.9880   32.7490   47.0730 O   0  0  0  0  0  0  0  0  0  0  0  0
   62.1690   31.7120   48.1530 C   0  0  0  0  0  0  0  0  0  0  0  0
   62.1070   30.8430   49.2510 C   0  0  0  0  0  0  0  0  0  0  0  0
   62.8099   30.9647   50.0884 H   0  0  0  0  0  0  0  0  0  0  0  0
   61.1530   29.8220   49.2830 C   0  0  0  0  0  0  0  0  0  0  0  0
   61.1362   29.1146   50.1252 H   0  0  0  0  0  0  0  0  0  0  0  0
   60.2150   29.6950   48.2440 C   0  0  0  0  0  0  0  0  0  0  0  0
   59.2540   28.6740   48.2690 O   0  0  0  0  0  0  0  0  0  0  0  0
   58.7020   28.1400   47.0980 C   0  0  0  0  0  0  0  0  0  0  0  0
   58.7960   26.7670   46.8460 C   0  0  0  0  0  0  0  0  0  0  0  0
   59.2239   26.0964   47.6057 H   0  0  0  0  0  0  0  0  0  0  0  0
   58.3440   26.2450   45.6230 C   0  0  0  0  0  0  0  0  0  0  0  0
   58.5460   24.9040   45.2670 O   0  0  0  0  0  0  0  0  0  0  0  0
   57.6850   23.8390   45.6690 C   0  0  0  0  0  0  0  0  0  0  0  0
   56.6395   24.1801   45.6471 H   0  0  0  0  0  0  0  0  0  0  0  0
   57.9360   23.5201   46.6914 H   0  0  0  0  0  0  0  0  0  0  0  0
   57.8620   22.6890   44.7160 C   0  0  0  0  0  0  0  0  0  0  0  0
   58.7386   22.0377   44.8478 H   0  0  0  0  0  0  0  0  0  0  0  0
   57.0080   22.4090   43.7080 C   0  0  0  0  0  0  0  0  0  0  0  0
   56.0130   23.4610   43.2820 C   0  0  0  0  0  0  0  0  0  0  0  0
   55.5702   23.9292   44.1734 H   0  0  0  0  0  0  0  0  0  0  0  0
   56.5244   24.2274   42.6811 H   0  0  0  0  0  0  0  0  0  0  0  0
   55.2193   22.9931   42.6811 H   0  0  0  0  0  0  0  0  0  0  0  0
   57.0330   21.0770   42.9850 C   0  0  0  0  0  0  0  0  0  0  0  0
   57.0483   20.2602   43.7216 H   0  0  0  0  0  0  0  0  0  0  0  0
   56.1364   20.9852   42.3543 H   0  0  0  0  0  0  0  0  0  0  0  0
   57.9324   21.0189   42.3543 H   0  0  0  0  0  0  0  0  0  0  0  0
   57.7150   27.0890   44.6980 C   0  0  0  0  0  0  0  0  0  0  0  0
   57.3456   26.6747   43.7483 H   0  0  0  0  0  0  0  0  0  0  0  0
   57.5500   28.4600   44.9690 C   0  0  0  0  0  0  0  0  0  0  0  0
   56.8550   29.3390   44.0010 C   0  0  0  0  0  0  0  0  0  0  0  0
   56.6740   28.9470   42.8130 O   0  0  0  0  0  0  0  0  0  0  0  0
   56.3620   30.6230   44.4240 N   0  0  0  0  0  0  0  0  0  0  0  0
   57.0820   31.6670   44.7220 C   0  0  0  0  0  0  0  0  0  0  0  0
   57.1170   32.1630   45.9930 N   0  0  0  0  0  0  0  0  0  0  0  0
   57.8430   33.2680   46.3200 C   0  0  0  0  0  0  0  0  0  0  0  0
   57.8421   33.6411   47.3548 H   0  0  0  0  0  0  0  0  0  0  0  0
   58.5900   33.9280   45.3380 C   0  0  0  0  0  0  0  0  0  0  0  0
   59.3780   35.0810   45.6780 C   0  0  0  0  0  0  0  0  0  0  0  0
   60.0130   36.0090   45.9480 N   0  0  0  0  0  0  0  0  0  0  0  0
   58.5690   33.4410   44.0260 C   0  0  0  0  0  0  0  0  0  0  0  0
   59.1526   33.9458   43.2420 H   0  0  0  0  0  0  0  0  0  0  0  0
   57.8060   32.3130   43.7130 C   0  0  0  0  0  0  0  0  0  0  0  0
   57.7745   31.9351   42.6804 H   0  0  0  0  0  0  0  0  0  0  0  0
   58.0700   28.9810   46.1690 C   0  0  0  0  0  0  0  0  0  0  0  0
   57.9802   30.0568   46.3804 H   0  0  0  0  0  0  0  0  0  0  0  0
   60.2330   30.6100   47.1810 C   0  0  0  0  0  0  0  0  0  0  0  0
   59.4694   30.5495   46.3915 H   0  0  0  0  0  0  0  0  0  0  0  0
   61.2220   31.6010   47.1230 C   0  0  0  0  0  0  0  0  0  0  0  0
   61.2563   32.2932   46.2688 H   0  0  0  0  0  0  0  0  0  0  0  0
   61.1380   33.1260   51.2800 C   0  0  0  0  0  0  0  0  0  0  0  0
   61.9922   33.1930   51.9698 H   0  0  0  0  0  0  0  0  0  0  0  0
   60.0290   32.3460   51.6180 C   0  0  0  0  0  0  0  0  0  0  0  0
   60.0265   31.7863   52.5650 H   0  0  0  0  0  0  0  0  0  0  0  0
  1  2  1  0
  2  3  1  0
  3  4  2  0
  3  5  1  0
  5  6  2  0
  6  7  1  0
  6  8  1  0
  8  9  1  0
  8 10  2  0
 10 11  1  0
 11 12  1  0
 11 13  1  0
 11 14  1  0
 14 15  1  0
 15 16  2  0
 15 17  1  0
 17 18  2  0
 18 19  1  0
 18 20  1  0
 20 21  1  0
 20 22  2  0
 22 23  1  0
 23 24  1  0
 24 25  2  0
 25 26  1  0
 25 27  1  0
 27 28  1  0
 28 29  1  0
 29 30  1  0
 29 31  1  0
 29 32  1  0
 32 33  1  0
 32 34  2  3
 34 35  1  0
 35 36  1  0
 35 37  1  0
 35 38  1  0
 34 39  1  0
 39 40  1  0
 39 41  1  0
 39 42  1  0
 27 43  2  0
 43 44  1  0
 43 45  1  0
 45 46  1  0
 46 47  2  0
 46 48  1  0
 48 49  2  0
 49 50  1  0
 50 51  1  0
 51 52  1  0
 51 53  2  0
 53 54  1  0
 54 55  3  0
 53 56  1  0
 56 57  1  0
 56 58  2  0
 58 59  1  0
 45 60  2  0
 60 61  1  0
 22 62  1  0
 62 63  1  0
 62 64  2  0
 64 65  1  0
 10 66  1  0
 66 67  1  0
 66 68  2  0
 68 69  1  0
 68  5  1  0
 64 17  1  0
 60 24  1  0
 58 49  1  0
M  CHG  3   2  -1  14  -1  50  -1
M  END
>  <UniqueID>  (72) 
66

>  <SMILES>  (72) 
CC(C)=CCOc1cc(Oc2ccc(C(=O)[N-]Cc3ccc(C([NH-])=O)cc3)cc2)cc(C(=O)/N=c2/ccc(C#N)c[n-]2)c1

>  <Energy>  (72) 
83.46069798999669

>  <Genealogy>  (72) 
CC(C)=CCOc1cc(Oc2ccc(C(=O)[N-]Cc3ccc(C([NH-])=O)cc3)cc2)cc(C(=O)N=c2ccc(C#N)c[n-]2)c1 (protonated)
CC(C)=CCOc1cc(Oc2ccc(C(=O)[N-]Cc3ccc(C([NH-])=O)cc3)cc2)cc(C(=O)/N=c2/ccc(C#N)c[n-]2)c1 (cis-trans isomerization)
CC(C)=CCOc1cc(Oc2ccc(C(=O)[N-]Cc3ccc(C([NH-])=O)cc3)cc2)cc(C(=O)/N=c2/ccc(C#N)c[n-]2)c1 (3D coordinates assigned)
CC(C)=CCOc1cc(Oc2ccc(C(=O)[N-]Cc3ccc(C([NH-])=O)cc3)cc2)cc(C(=O)/N=c2/ccc(C#N)c[n-]2)c1 (optimized conformer: 83.46069798999669 kcal/mol)

>  <smiles>  (72) 
CC(C)=CCOc1cc(Oc2ccc(C(=O)NCc3ccc(C(N)=O)cc3)cc2)cc(C(=O)N=c2ccc(C#N)c[nH]2)c1

>  <score_type>  (72) 
oracle

>  <origin>  (72) 
adg

>  <m_score__min__energy>  (72) 
-17.09

>  <m_primary>  (72) 
energy

$$$$
72:0
     RDKit          3D

 46 48  0  0  0  0  0  0  0  0999 V2000
   55.1550   27.5330   45.3090 H   0  0  0  0  0  0  0  0  0  0  0  0
   55.5240   26.8960   46.0060 O   0  0  0  0  0  0  0  0  0  0  0  0
   56.8980   26.7240   46.1790 C   0  0  0  0  0  0  0  0  0  0  0  0
   57.3870   25.9080   47.2070 C   0  0  0  0  0  0  0  0  0  0  0  0
   56.6867   25.3981   47.8850 H   0  0  0  0  0  0  0  0  0  0  0  0
   58.7640   25.7420   47.3710 C   0  0  0  0  0  0  0  0  0  0  0  0
   59.1555   25.1068   48.1792 H   0  0  0  0  0  0  0  0  0  0  0  0
   59.6370   26.3910   46.4980 C   0  0  0  0  0  0  0  0  0  0  0  0
   60.7238   26.2654   46.6128 H   0  0  0  0  0  0  0  0  0  0  0  0
   59.1450   27.1790   45.5050 N   0  0  0  0  0  0  0  0  0  0  0  0
   57.8070   27.3700   45.3270 C   0  0  0  0  0  0  0  0  0  0  0  0
   57.3590   28.1260   44.3650 N   0  0  0  0  0  0  0  0  0  0  0  0
   56.7030   29.3970   44.5090 C   0  0  0  0  0  0  0  0  0  0  0  0
   55.6180   29.4430   45.1470 O   0  0  0  0  0  0  0  0  0  0  0  0
   57.2750   30.6560   43.9720 C   0  0  0  0  0  0  0  0  0  0  0  0
   56.9480   31.0510   42.6640 C   0  0  0  0  0  0  0  0  0  0  0  0
   56.2707   30.4297   42.0597 H   0  0  0  0  0  0  0  0  0  0  0  0
   57.4760   32.2260   42.1250 C   0  0  0  0  0  0  0  0  0  0  0  0
   57.0730   32.6990   40.4850 Cl  0  0  0  0  0  0  0  0  0  0  0  0
   58.3300   33.0220   42.8900 C   0  0  0  0  0  0  0  0  0  0  0  0
   58.7522   33.9428   42.4611 H   0  0  0  0  0  0  0  0  0  0  0  0
   58.6500   32.6530   44.1980 C   0  0  0  0  0  0  0  0  0  0  0  0
   59.3246   33.2853   44.7939 H   0  0  0  0  0  0  0  0  0  0  0  0
   58.1150   31.4760   44.7610 C   0  0  0  0  0  0  0  0  0  0  0  0
   58.3860   31.0940   46.0870 O   0  0  0  0  0  0  0  0  0  0  0  0
   58.2030   31.9060   47.2460 C   0  0  0  0  0  0  0  0  0  0  0  0
   57.1589   32.2498   47.2860 H   0  0  0  0  0  0  0  0  0  0  0  0
   58.4403   31.3096   48.1393 H   0  0  0  0  0  0  0  0  0  0  0  0
   59.1340   33.1240   47.2010 C   0  0  0  0  0  0  0  0  0  0  0  0
   58.8707   33.7448   46.3319 H   0  0  0  0  0  0  0  0  0  0  0  0
   59.0102   33.6913   48.1352 H   0  0  0  0  0  0  0  0  0  0  0  0
   60.5500   32.7120   47.0880 N   0  0  0  0  0  0  0  0  0  0  0  0
   61.0600   32.2800   48.4040 C   0  0  0  0  0  0  0  0  0  0  0  0
   61.0816   33.1433   49.0854 H   0  0  0  0  0  0  0  0  0  0  0  0
   60.3972   31.4986   48.8042 H   0  0  0  0  0  0  0  0  0  0  0  0
   62.4850   31.7050   48.2670 C   0  0  0  0  0  0  0  0  0  0  0  0
   63.0904   32.0506   49.1179 H   0  0  0  0  0  0  0  0  0  0  0  0
   62.4080   30.6078   48.2521 H   0  0  0  0  0  0  0  0  0  0  0  0
   63.1350   32.1310   47.0180 N   0  0  0  0  0  0  0  0  0  0  0  0
   64.1680   31.9900   47.1240 H   0  0  0  0  0  0  0  0  0  0  0  0
   62.8920   33.5540   46.7710 C   0  0  0  0  0  0  0  0  0  0  0  0
   63.2304   34.1364   47.6406 H   0  0  0  0  0  0  0  0  0  0  0  0
   63.4475   33.8617   45.8728 H   0  0  0  0  0  0  0  0  0  0  0  0
   61.3890   33.8070   46.5430 C   0  0  0  0  0  0  0  0  0  0  0  0
   61.1087   34.7485   47.0379 H   0  0  0  0  0  0  0  0  0  0  0  0
   61.2150   33.8592   45.4581 H   0  0  0  0  0  0  0  0  0  0  0  0
  1  2  1  0
  2  3  1  0
  3  4  2  0
  4  5  1  0
  4  6  1  0
  6  7  1  0
  6  8  2  0
  8  9  1  0
  8 10  1  0
 10 11  1  0
 11 12  2  0
 12 13  1  0
 13 14  2  0
 13 15  1  0
 15 16  2  0
 16 17  1  0
 16 18  1  0
 18 19  1  0
 18 20  2  0
 20 21  1  0
 20 22  1  0
 22 23  1  0
 22 24  2  0
 24 25  1  0
 25 26  1  0
 26 27  1  0
 26 28  1  0
 26 29  1  0
 29 30  1  0
 29 31  1  0
 29 32  1  0
 32 33  1  0
 33 34  1  0
 33 35  1  0
 33 36  1  0
 36 37  1  0
 36 38  1  0
 36 39  1  0
 39 40  1  0
 39 41  1  0
 41 42  1  0
 41 43  1  0
 41 44  1  0
 44 45  1  0
 44 46  1  0
 11  3  1  0
 24 15  1  0
 44 32  1  0
M  CHG  1  10  -1
M  END
>  <UniqueID>  (73) 
67

>  <SMILES>  (73) 
O=C(/N=c1\[n-]cccc1O)c1cc(Cl)ccc1OCCN1CCNCC1

>  <Energy>  (73) 
62.48059773398713

>  <Genealogy>  (73) 
O=C(N=c1[n-]cccc1O)c1cc(Cl)ccc1OCCN1CCNCC1 (protonated)
O=C(/N=c1\[n-]cccc1O)c1cc(Cl)ccc1OCCN1CCNCC1 (cis-trans isomerization)
O=C(/N=c1\[n-]cccc1O)c1cc(Cl)ccc1OCCN1CCNCC1 (3D coordinates assigned)
O=C(/N=c1\[n-]cccc1O)c1cc(Cl)ccc1OCCN1CCNCC1 (nonaromatic ring conformer: 62.48059773398713 kcal/mol)

>  <smiles>  (73) 
O=C(N=c1[nH]cccc1O)c1cc(Cl)ccc1OCCN1CCNCC1

>  <score_type>  (73) 
oracle

>  <origin>  (73) 
adg

>  <m_score__min__energy>  (73) 
-10.98

>  <m_primary>  (73) 
energy

$$$$
73:0
     RDKit          3D

 40 41  0  0  0  0  0  0  0  0999 V2000
   56.2640   23.3680   43.1070 C   0  0  0  0  0  0  0  0  0  0  0  0
   55.4990   22.4810   43.9790 N   0  0  0  0  0  0  0  0  0  0  0  0
   55.0360   23.3220   45.4290 S   0  0  0  0  0  0  0  0  0  0  0  0
   53.6620   23.9080   45.2550 O   0  0  0  0  0  0  0  0  0  0  0  0
   55.0150   22.3370   46.5630 O   0  0  0  0  0  0  0  0  0  0  0  0
   56.1900   24.6100   45.8120 C   0  0  0  0  0  0  0  0  0  0  0  0
   57.5540   24.2970   45.9330 C   0  0  0  0  0  0  0  0  0  0  0  0
   58.4900   25.2920   46.2190 C   0  0  0  0  0  0  0  0  0  0  0  0
   58.0750   26.6180   46.4160 C   0  0  0  0  0  0  0  0  0  0  0  0
   59.0140   27.6690   46.6800 N   0  0  0  0  0  0  0  0  0  0  0  0
   59.1640   28.8870   45.9380 C   0  0  0  0  0  0  0  0  0  0  0  0
   59.5830   29.9120   46.5380 O   0  0  0  0  0  0  0  0  0  0  0  0
   58.8650   28.9600   44.4640 C   0  0  0  0  0  0  0  0  0  0  0  0
   58.1780   30.2060   44.1360 N   0  0  0  0  0  0  0  0  0  0  0  0
   56.9030   30.5770   44.6670 C   0  0  0  0  0  0  0  0  0  0  0  0
   56.0410   29.6830   44.8690 O   0  0  0  0  0  0  0  0  0  0  0  0
   56.6380   31.9420   45.0180 N   0  0  0  0  0  0  0  0  0  0  0  0
   57.5910   32.9060   45.4880 C   0  0  0  0  0  0  0  0  0  0  0  0
   57.8020   33.1410   46.8610 C   0  0  0  0  0  0  0  0  0  0  0  0
   58.7240   34.1080   47.2750 C   0  0  0  0  0  0  0  0  0  0  0  0
   59.4300   34.8540   46.3280 C   0  0  0  0  0  0  0  0  0  0  0  0
   59.2080   34.6430   44.9650 C   0  0  0  0  0  0  0  0  0  0  0  0
   58.2860   33.6780   44.5480 C   0  0  0  0  0  0  0  0  0  0  0  0
   56.7210   26.9370   46.2840 C   0  0  0  0  0  0  0  0  0  0  0  0
   55.7710   25.9470   46.0040 C   0  0  0  0  0  0  0  0  0  0  0  0
   54.4300   26.3290   45.9310 O   0  0  0  0  0  0  0  0  0  0  0  0
   56.8606   24.0597   43.7199 H   0  0  0  0  0  0  0  0  0  0  0  0
   56.9340   22.7696   42.4721 H   0  0  0  0  0  0  0  0  0  0  0  0
   55.5737   23.9428   42.4721 H   0  0  0  0  0  0  0  0  0  0  0  0
   57.8878   23.2572   45.8010 H   0  0  0  0  0  0  0  0  0  0  0  0
   59.5574   25.0358   46.2903 H   0  0  0  0  0  0  0  0  0  0  0  0
   59.8090   28.9096   43.9015 H   0  0  0  0  0  0  0  0  0  0  0  0
   58.2132   28.1160   44.1939 H   0  0  0  0  0  0  0  0  0  0  0  0
   57.2403   32.5626   47.6093 H   0  0  0  0  0  0  0  0  0  0  0  0
   58.8935   34.2814   48.3480 H   0  0  0  0  0  0  0  0  0  0  0  0
   60.1610   35.6078   46.6557 H   0  0  0  0  0  0  0  0  0  0  0  0
   59.7585   35.2360   44.2198 H   0  0  0  0  0  0  0  0  0  0  0  0
   58.1051   33.5239   43.4740 H   0  0  0  0  0  0  0  0  0  0  0  0
   56.3965   27.9814   46.4018 H   0  0  0  0  0  0  0  0  0  0  0  0
   53.6790   25.8160   46.3720 H   0  0  0  0  0  0  0  0  0  0  0  0
  1  2  1  0
  2  3  1  0
  3  4  2  0
  3  5  2  0
  3  6  1  0
  6  7  2  0
  7  8  1  0
  8  9  2  0
  9 10  1  0
 10 11  1  0
 11 12  2  0
 11 13  1  0
 13 14  1  0
 14 15  1  0
 15 16  2  0
 15 17  1  0
 17 18  1  0
 18 19  2  0
 19 20  1  0
 20 21  2  0
 21 22  1  0
 22 23  2  0
  9 24  1  0
 24 25  2  0
 25 26  1  0
 25  6  1  0
 23 18  1  0
  1 27  1  0
  1 28  1  0
  1 29  1  0
  7 30  1  0
  8 31  1  0
 13 32  1  0
 13 33  1  0
 19 34  1  0
 20 35  1  0
 21 36  1  0
 22 37  1  0
 23 38  1  0
 24 39  1  0
 26 40  1  0
M  CHG  4   2  -1  10  -1  14  -1  17  -1
M  END
>  <UniqueID>  (74) 
68

>  <SMILES>  (74) 
C[N-]S(=O)(=O)c1ccc([N-]C(=O)C[N-]C(=O)[N-]c2ccccc2)cc1O

>  <Energy>  (74) 
47.177125465453116

>  <Genealogy>  (74) 
C[N-]S(=O)(=O)c1ccc([N-]C(=O)C[N-]C(=O)[N-]c2ccccc2)cc1O (protonated)
C[N-]S(=O)(=O)c1ccc([N-]C(=O)C[N-]C(=O)[N-]c2ccccc2)cc1O (3D coordinates assigned)
C[N-]S(=O)(=O)c1ccc([N-]C(=O)C[N-]C(=O)[N-]c2ccccc2)cc1O (optimized conformer: 47.177125465453116 kcal/mol)

>  <smiles>  (74) 
CNS(=O)(=O)c1ccc(NC(=O)CNC(=O)Nc2ccccc2)cc1O

>  <score_type>  (74) 
oracle

>  <origin>  (74) 
adg

>  <m_score__min__energy>  (74) 
-14.17

>  <m_primary>  (74) 
energy

$$$$
74:0
     RDKit          3D

 55 58  0  0  1  0  0  0  0  0999 V2000
   56.5590   23.5370   46.9240 C   0  0  0  0  0  0  0  0  0  0  0  0
   55.8810   24.8330   46.8320 N   0  0  0  0  0  0  0  0  0  0  0  0
   56.6350   25.8660   46.6200 C   0  0  0  0  0  0  0  0  0  0  0  0
   56.3690   26.7310   45.6320 N   0  0  0  0  0  0  0  0  0  0  0  0
   57.1130   27.8250   45.3610 C   0  0  0  0  0  0  0  0  0  0  0  0
   56.7670   28.5780   44.4540 N   0  0  0  0  0  0  0  0  0  0  0  0
   56.1260   29.7990   44.4510 C   0  0  0  0  0  0  0  0  0  0  0  0
   56.9370   30.9930   44.0810 C   0  0  0  0  0  0  0  0  0  0  0  0
   57.3490   31.2210   42.7600 C   0  0  0  0  0  0  0  0  0  0  0  0
   58.0990   32.3240   42.4100 C   0  0  0  0  0  0  0  0  0  0  0  0
   58.4610   33.2370   43.3750 C   0  0  0  0  0  0  0  0  0  0  0  0
   58.0870   33.0640   44.6830 C   0  0  0  0  0  0  0  0  0  0  0  0
   58.4190   33.9420   45.7410 N   0  0  0  0  0  0  0  0  0  0  0  0
   59.1350   33.6170   46.9020 C   0  0  0  0  0  0  0  0  0  0  0  0
   59.5600   32.4650   47.1090 O   0  0  0  0  0  0  0  0  0  0  0  0
   59.4200   34.5920   47.9220 N   0  0  0  0  0  0  0  0  0  0  0  0
   60.1430   34.3080   49.1190 C   0  0  0  0  0  0  0  0  0  0  0  0
   61.4840   33.7450   48.9480 C   0  0  0  0  0  0  0  0  0  0  0  0
   62.0950   33.8820   47.7080 C   0  0  0  0  0  0  0  0  0  0  0  0
   63.3550   33.3990   47.4370 C   0  0  0  0  0  0  0  0  0  0  0  0
   64.0680   32.7440   48.4250 C   0  0  0  0  0  0  0  0  0  0  0  0
   63.4780   32.5980   49.6600 C   0  0  0  0  0  0  0  0  0  0  0  0
   62.2000   33.0940   49.9170 C   0  0  0  0  0  0  0  0  0  0  0  0
   57.3410   31.9520   44.9860 C   0  0  0  0  0  0  0  0  0  0  0  0
   58.2120   28.0790   46.1300 C   0  0  0  0  0  0  0  0  0  0  0  0
   58.9850   29.1630   45.8710 C   0  0  0  0  0  0  0  0  0  0  0  0
   60.1110   29.3650   46.7070 C   0  0  0  0  0  0  0  0  0  0  0  0
   60.3380   28.4630   47.6970 C   0  0  0  0  0  0  0  0  0  0  0  0
   59.5620   27.3590   47.9640 C   0  0  0  0  0  0  0  0  0  0  0  0
   58.4680   27.1750   47.1430 C   0  0  0  0  0  0  0  0  0  0  0  0
   57.7080   26.0950   47.3910 N   0  0  0  0  0  0  0  0  0  0  0  0
   56.6984   23.2704   47.9821 H   0  0  0  0  0  0  0  0  0  0  0  0
   55.9479   22.7676   46.4295 H   0  0  0  0  0  0  0  0  0  0  0  0
   57.5395   23.6002   46.4295 H   0  0  0  0  0  0  0  0  0  0  0  0
   55.5230   26.5180   45.0530 H   0  0  0  0  0  0  0  0  0  0  0  0
   55.2908   29.7325   43.7383 H   0  0  0  0  0  0  0  0  0  0  0  0
   55.8335   29.9682   45.4978 H   0  0  0  0  0  0  0  0  0  0  0  0
   57.0656   30.4988   41.9802 H   0  0  0  0  0  0  0  0  0  0  0  0
   58.4067   32.4738   41.3646 H   0  0  0  0  0  0  0  0  0  0  0  0
   59.0581   34.1168   43.0930 H   0  0  0  0  0  0  0  0  0  0  0  0
   58.1040   34.9590   45.6720 H   0  0  0  0  0  0  0  0  0  0  0  0
   59.0580   35.5770   47.7440 H   0  0  0  0  0  0  0  0  0  0  0  0
   60.2432   35.2481   49.6812 H   0  0  0  0  0  0  0  0  0  0  0  0
   59.5616   33.5301   49.6357 H   0  0  0  0  0  0  0  0  0  0  0  0
   61.5473   34.3997   46.9068 H   0  0  0  0  0  0  0  0  0  0  0  0
   63.7939   33.5335   46.4374 H   0  0  0  0  0  0  0  0  0  0  0  0
   65.0768   32.3514   48.2295 H   0  0  0  0  0  0  0  0  0  0  0  0
   64.0257   32.0795   50.4607 H   0  0  0  0  0  0  0  0  0  0  0  0
   61.7593   32.9599   50.9159 H   0  0  0  0  0  0  0  0  0  0  0  0
   57.0413   31.8149   46.0355 H   0  0  0  0  0  0  0  0  0  0  0  0
   58.7483   29.8543   45.0488 H   0  0  0  0  0  0  0  0  0  0  0  0
   60.7804   30.2253   46.5590 H   0  0  0  0  0  0  0  0  0  0  0  0
   61.2157   28.6293   48.3388 H   0  0  0  0  0  0  0  0  0  0  0  0
   59.7993   26.6642   48.7831 H   0  0  0  0  0  0  0  0  0  0  0  0
   57.9380   25.4410   48.1650 H   0  0  0  0  0  0  0  0  0  0  0  0
  1  2  1  0
  2  3  2  0
  3  4  1  0
  4  5  1  0
  5  6  2  0
  6  7  1  0
  7  8  1  0
  8  9  2  0
  9 10  1  0
 10 11  2  0
 11 12  1  0
 12 13  1  0
 13 14  1  0
 14 15  2  0
 14 16  1  0
 16 17  1  0
 17 18  1  0
 18 19  2  0
 19 20  1  0
 20 21  2  0
 21 22  1  0
 22 23  2  0
 12 24  2  0
  5 25  1  0
 25 26  2  0
 26 27  1  0
 27 28  2  0
 28 29  1  0
 29 30  2  0
 30 31  1  0
 31  3  1  0
 24  8  1  0
 30 25  1  0
 23 18  1  0
  1 32  1  0
  1 33  1  0
  1 34  1  0
  4 35  1  0
  7 36  1  0
  7 37  1  0
  9 38  1  0
 10 39  1  0
 11 40  1  0
 13 41  1  0
 16 42  1  0
 17 43  1  0
 17 44  1  0
 19 45  1  0
 20 46  1  0
 21 47  1  0
 22 48  1  0
 23 49  1  0
 24 50  1  0
 26 51  1  0
 27 52  1  0
 28 53  1  0
 29 54  1  0
 31 55  1  0
M  END
>  <smiles>  (75) 
CN=c1[nH]c(=NCc2cccc(NC(=O)NCc3ccccc3)c2)c2ccccc2[nH]1

>  <score_type>  (75) 
oracle

>  <origin>  (75) 
adg

>  <m_score__min__energy>  (75) 
-9.9600000000000009

>  <m_primary>  (75) 
energy

$$$$
75:0
     RDKit          3D

 40 41  0  0  0  0  0  0  0  0999 V2000
   55.1680   28.9700   44.7580 N   0  0  0  0  0  0  0  0  0  0  0  0
   56.5040   30.0190   44.4400 S   0  0  0  0  0  0  0  0  0  0  0  0
   57.0330   29.7470   43.0590 O   0  0  0  0  0  0  0  0  0  0  0  0
   56.0490   31.4490   44.5100 O   0  0  0  0  0  0  0  0  0  0  0  0
   57.7670   29.7380   45.6340 C   0  0  0  0  0  0  0  0  0  0  0  0
   57.7270   28.6010   46.4530 C   0  0  0  0  0  0  0  0  0  0  0  0
   58.7220   28.3900   47.4130 C   0  0  0  0  0  0  0  0  0  0  0  0
   59.7660   29.3160   47.5670 C   0  0  0  0  0  0  0  0  0  0  0  0
   60.8260   29.1100   48.6140 C   0  0  0  0  0  0  0  0  0  0  0  0
   61.0060   30.3270   49.3980 N   0  0  0  0  0  0  0  0  0  0  0  0
   62.2820   30.8120   49.8270 C   0  0  0  0  0  0  0  0  0  0  0  0
   62.7940   30.4040   50.9040 O   0  0  0  0  0  0  0  0  0  0  0  0
   63.0360   31.7760   48.9670 C   0  0  0  0  0  0  0  0  0  0  0  0
   62.1600   32.3140   47.9280 N   0  0  0  0  0  0  0  0  0  0  0  0
   62.5470   33.4040   47.0820 C   0  0  0  0  0  0  0  0  0  0  0  0
   63.6920   33.9240   47.2000 O   0  0  0  0  0  0  0  0  0  0  0  0
   61.6060   33.9250   46.1350 N   0  0  0  0  0  0  0  0  0  0  0  0
   60.1750   33.8500   46.2300 C   0  0  0  0  0  0  0  0  0  0  0  0
   59.4090   34.0770   45.0790 C   0  0  0  0  0  0  0  0  0  0  0  0
   58.0130   34.0340   45.1380 C   0  0  0  0  0  0  0  0  0  0  0  0
   57.3710   33.7790   46.3540 C   0  0  0  0  0  0  0  0  0  0  0  0
   58.1260   33.5750   47.5120 C   0  0  0  0  0  0  0  0  0  0  0  0
   59.5230   33.6140   47.4560 C   0  0  0  0  0  0  0  0  0  0  0  0
   59.7940   30.4610   46.7550 C   0  0  0  0  0  0  0  0  0  0  0  0
   58.8000   30.6700   45.7940 C   0  0  0  0  0  0  0  0  0  0  0  0
   54.6660   29.3600   45.5870 H   0  0  0  0  0  0  0  0  0  0  0  0
   56.9105   27.8725   46.3403 H   0  0  0  0  0  0  0  0  0  0  0  0
   58.6864   27.4942   48.0504 H   0  0  0  0  0  0  0  0  0  0  0  0
   60.5225   28.2899   49.2813 H   0  0  0  0  0  0  0  0  0  0  0  0
   61.7754   28.8601   48.1179 H   0  0  0  0  0  0  0  0  0  0  0  0
   63.4119   32.6015   49.5892 H   0  0  0  0  0  0  0  0  0  0  0  0
   63.8782   31.2518   48.4918 H   0  0  0  0  0  0  0  0  0  0  0  0
   61.2100   31.8950   47.8060 H   0  0  0  0  0  0  0  0  0  0  0  0
   59.9093   34.2904   44.1229 H   0  0  0  0  0  0  0  0  0  0  0  0
   57.4190   34.2009   44.2273 H   0  0  0  0  0  0  0  0  0  0  0  0
   56.2726   33.7391   46.3988 H   0  0  0  0  0  0  0  0  0  0  0  0
   57.6204   33.3833   48.4699 H   0  0  0  0  0  0  0  0  0  0  0  0
   60.1136   33.4601   48.3711 H   0  0  0  0  0  0  0  0  0  0  0  0
   60.6021   31.1975   46.8754 H   0  0  0  0  0  0  0  0  0  0  0  0
   58.8295   31.5695   45.1615 H   0  0  0  0  0  0  0  0  0  0  0  0
  1  2  1  0
  2  3  2  0
  2  4  2  0
  2  5  1  0
  5  6  2  0
  6  7  1  0
  7  8  2  0
  8  9  1  0
  9 10  1  0
 10 11  1  0
 11 12  2  0
 11 13  1  0
 13 14  1  0
 14 15  1  0
 15 16  2  0
 15 17  1  0
 17 18  1  0
 18 19  2  0
 19 20  1  0
 20 21  2  0
 21 22  1  0
 22 23  2  0
  8 24  1  0
 24 25  2  0
 25  5  1  0
 23 18  1  0
  1 26  1  0
  6 27  1  0
  7 28  1  0
  9 29  1  0
  9 30  1  0
 13 31  1  0
 13 32  1  0
 14 33  1  0
 19 34  1  0
 20 35  1  0
 21 36  1  0
 22 37  1  0
 23 38  1  0
 24 39  1  0
 25 40  1  0
M  CHG  3   1  -1  10  -1  17  -1
M  END
>  <UniqueID>  (76) 
69

>  <SMILES>  (76) 
[NH-]S(=O)(=O)c1ccc(C[N-]C(=O)CNC(=O)[N-]c2ccccc2)cc1

>  <Energy>  (76) 
37.643817982848134

>  <Genealogy>  (76) 
[NH-]S(=O)(=O)c1ccc(C[N-]C(=O)CNC(=O)[N-]c2ccccc2)cc1 (protonated)
[NH-]S(=O)(=O)c1ccc(C[N-]C(=O)CNC(=O)[N-]c2ccccc2)cc1 (3D coordinates assigned)
[NH-]S(=O)(=O)c1ccc(C[N-]C(=O)CNC(=O)[N-]c2ccccc2)cc1 (optimized conformer: 37.643817982848134 kcal/mol)

>  <smiles>  (76) 
NS(=O)(=O)c1ccc(CNC(=O)CNC(=O)Nc2ccccc2)cc1

>  <score_type>  (76) 
oracle

>  <origin>  (76) 
adg

>  <m_score__min__energy>  (76) 
-12.33

>  <m_primary>  (76) 
energy

$$$$
76:0
     RDKit          3D

 47 50  0  0  0  0  0  0  0  0999 V2000
   60.2030   27.5220   47.0150 C   0  0  0  0  0  0  0  0  0  0  0  0
   59.3350   28.3250   46.3790 C   0  0  0  0  0  0  0  0  0  0  0  0
   58.3300   27.9460   45.4730 C   0  0  0  0  0  0  0  0  0  0  0  0
   57.8690   26.7320   45.1160 C   0  0  0  0  0  0  0  0  0  0  0  0
   57.2930   25.7290   46.0250 C   0  0  0  0  0  0  0  0  0  0  0  0
   57.9880   24.6930   46.5250 N   0  0  0  0  0  0  0  0  0  0  0  0
   57.0500   23.9760   47.1820 C   0  0  0  0  0  0  0  0  0  0  0  0
   57.3200   22.9190   47.8090 O   0  0  0  0  0  0  0  0  0  0  0  0
   55.7970   24.4760   47.1040 N   0  0  0  0  0  0  0  0  0  0  0  0
   55.9650   25.5770   46.3540 C   0  0  0  0  0  0  0  0  0  0  0  0
   54.9270   26.4130   45.9580 O   0  0  0  0  0  0  0  0  0  0  0  0
   57.8100   29.1230   44.9580 C   0  0  0  0  0  0  0  0  0  0  0  0
   58.4620   30.1610   45.5890 C   0  0  0  0  0  0  0  0  0  0  0  0
   58.1840   31.6140   45.3550 C   0  0  0  0  0  0  0  0  0  0  0  0
   59.3780   29.6800   46.4580 N   0  0  0  0  0  0  0  0  0  0  0  0
   60.2710   30.4820   47.2500 C   0  0  0  0  0  0  0  0  0  0  0  0
   59.8640   30.9590   48.5020 C   0  0  0  0  0  0  0  0  0  0  0  0
   60.7250   31.7520   49.2670 C   0  0  0  0  0  0  0  0  0  0  0  0
   62.0040   32.0810   48.7880 C   0  0  0  0  0  0  0  0  0  0  0  0
   62.8840   32.9020   49.5800 N   0  0  0  0  0  0  0  0  0  0  0  0
   64.2820   33.0770   49.1760 C   0  0  0  0  0  0  0  0  0  0  0  0
   65.1430   33.3580   50.4110 C   0  0  0  0  0  0  0  0  0  0  0  0
   64.6110   34.4330   51.1610 O   0  0  0  0  0  0  0  0  0  0  0  0
   63.3450   34.0740   51.6830 C   0  0  0  0  0  0  0  0  0  0  0  0
   62.3340   33.8510   50.5530 C   0  0  0  0  0  0  0  0  0  0  0  0
   62.4030   31.6100   47.5260 C   0  0  0  0  0  0  0  0  0  0  0  0
   61.5430   30.8160   46.7630 C   0  0  0  0  0  0  0  0  0  0  0  0
   60.9457   27.9508   47.7038 H   0  0  0  0  0  0  0  0  0  0  0  0
   60.1714   26.4353   46.8472 H   0  0  0  0  0  0  0  0  0  0  0  0
   57.9284   26.4669   44.0501 H   0  0  0  0  0  0  0  0  0  0  0  0
   54.0130   26.3420   46.3890 H   0  0  0  0  0  0  0  0  0  0  0  0
   57.0261   29.2120   44.1915 H   0  0  0  0  0  0  0  0  0  0  0  0
   58.0855   32.1289   46.3221 H   0  0  0  0  0  0  0  0  0  0  0  0
   59.0133   32.0589   44.7855 H   0  0  0  0  0  0  0  0  0  0  0  0
   57.2490   31.7214   44.7855 H   0  0  0  0  0  0  0  0  0  0  0  0
   58.8636   30.7091   48.8851 H   0  0  0  0  0  0  0  0  0  0  0  0
   60.3986   32.1207   50.2506 H   0  0  0  0  0  0  0  0  0  0  0  0
   64.6378   32.1605   48.6826 H   0  0  0  0  0  0  0  0  0  0  0  0
   64.3570   33.9241   48.4783 H   0  0  0  0  0  0  0  0  0  0  0  0
   65.1725   32.4577   51.0424 H   0  0  0  0  0  0  0  0  0  0  0  0
   66.1568   33.6272   50.0798 H   0  0  0  0  0  0  0  0  0  0  0  0
   63.4450   33.1464   52.2657 H   0  0  0  0  0  0  0  0  0  0  0  0
   62.9830   34.8915   52.3238 H   0  0  0  0  0  0  0  0  0  0  0  0
   61.4007   33.4463   50.9716 H   0  0  0  0  0  0  0  0  0  0  0  0
   62.1287   34.8089   50.0527 H   0  0  0  0  0  0  0  0  0  0  0  0
   63.3987   31.8679   47.1361 H   0  0  0  0  0  0  0  0  0  0  0  0
   61.8649   30.4514   45.7764 H   0  0  0  0  0  0  0  0  0  0  0  0
  1  2  2  0
  2  3  1  0
  3  4  2  3
  4  5  1  0
  5  6  1  0
  6  7  1  0
  7  8  2  0
  7  9  1  0
  9 10  1  0
 10 11  1  0
  3 12  1  0
 12 13  2  0
 13 14  1  0
 13 15  1  0
 15 16  1  0
 16 17  2  0
 17 18  1  0
 18 19  2  0
 19 20  1  0
 20 21  1  0
 21 22  1  0
 22 23  1  0
 23 24  1  0
 24 25  1  0
 19 26  1  0
 26 27  2  0
 15  2  1  0
 27 16  1  0
 10  5  2  0
 25 20  1  0
  1 28  1  0
  1 29  1  0
  4 30  1  0
 11 31  1  0
 12 32  1  0
 14 33  1  0
 14 34  1  0
 14 35  1  0
 17 36  1  0
 18 37  1  0
 21 38  1  0
 21 39  1  0
 22 40  1  0
 22 41  1  0
 24 42  1  0
 24 43  1  0
 25 44  1  0
 25 45  1  0
 26 46  1  0
 27 47  1  0
M  CHG  2   6  -1   9  -1
M  END
>  <UniqueID>  (77) 
70

>  <SMILES>  (77) 
C=c1c(=Cc2[n-]c(=O)[n-]c2O)cc(C)n1-c1ccc(N2CCOCC2)cc1

>  <Energy>  (77) 
130.44751476051303

>  <Genealogy>  (77) 
C=c1c(=Cc2[n-]c(=O)[n-]c2O)cc(C)n1-c1ccc(N2CCOCC2)cc1 (protonated)
C=c1c(=Cc2[n-]c(=O)[n-]c2O)cc(C)n1-c1ccc(N2CCOCC2)cc1 (3D coordinates assigned)
C=c1c(=Cc2[n-]c(=O)[n-]c2O)cc(C)n1-c1ccc(N2CCOCC2)cc1 (nonaromatic ring conformer: 130.44751476051303 kcal/mol)

>  <smiles>  (77) 
C=c1c(=Cc2[nH]c(=O)[nH]c2O)cc(C)n1-c1ccc(N2CCOCC2)cc1

>  <score_type>  (77) 
oracle

>  <origin>  (77) 
adg

>  <m_score__min__energy>  (77) 
-12.1

>  <m_primary>  (77) 
energy

$$$$
77:0
     RDKit          3D

 46 48  0  0  0  0  0  0  0  0999 V2000
   60.0280   26.9960   46.5420 C   0  0  0  0  0  0  0  0  0  0  0  0
   59.0890   28.0330   46.0220 C   0  0  0  0  0  0  0  0  0  0  0  0
   59.2560   29.3540   46.2270 N   0  0  0  0  0  0  0  0  0  0  0  0
   58.2730   29.9920   45.6060 N   0  0  0  0  0  0  0  0  0  0  0  0
   58.1470   31.4200   45.6250 C   0  0  0  0  0  0  0  0  0  0  0  0
   57.9820   32.1460   44.4320 C   0  0  0  0  0  0  0  0  0  0  0  0
   57.8490   33.5380   44.4650 C   0  0  0  0  0  0  0  0  0  0  0  0
   57.8680   34.2160   45.6880 C   0  0  0  0  0  0  0  0  0  0  0  0
   58.0030   33.4990   46.8800 C   0  0  0  0  0  0  0  0  0  0  0  0
   58.1400   32.1050   46.8510 C   0  0  0  0  0  0  0  0  0  0  0  0
   57.4880   29.0950   44.9690 C   0  0  0  0  0  0  0  0  0  0  0  0
   56.3020   29.4290   44.1180 C   0  0  0  0  0  0  0  0  0  0  0  0
   57.9730   27.8210   45.2280 C   0  0  0  0  0  0  0  0  0  0  0  0
   57.4040   26.5130   44.7640 C   0  0  0  0  0  0  0  0  0  0  0  0
   56.2530   26.1070   45.6440 C   0  0  0  0  0  0  0  0  0  0  0  0
   56.0700   26.7040   46.7350 O   0  0  0  0  0  0  0  0  0  0  0  0
   55.4480   24.9660   45.3370 N   0  0  0  0  0  0  0  0  0  0  0  0
   55.9420   23.7540   44.7540 C   0  0  0  0  0  0  0  0  0  0  0  0
   56.1220   23.6630   43.3650 C   0  0  0  0  0  0  0  0  0  0  0  0
   56.5640   22.4760   42.7820 C   0  0  0  0  0  0  0  0  0  0  0  0
   56.8250   21.3660   43.5810 C   0  0  0  0  0  0  0  0  0  0  0  0
   56.6380   21.4410   44.9620 C   0  0  0  0  0  0  0  0  0  0  0  0
   56.1890   22.6280   45.5590 C   0  0  0  0  0  0  0  0  0  0  0  0
   55.9700   22.7130   47.3090 S   0  0  0  0  0  0  0  0  0  0  0  0
   56.0130   24.3550   47.8530 N   0  0  0  0  0  0  0  0  0  0  0  0
   54.6440   22.1140   47.6820 O   0  0  0  0  0  0  0  0  0  0  0  0
   57.0730   21.9430   47.9780 O   0  0  0  0  0  0  0  0  0  0  0  0
   60.0162   27.0091   47.6419 H   0  0  0  0  0  0  0  0  0  0  0  0
   59.7142   26.0045   46.1837 H   0  0  0  0  0  0  0  0  0  0  0  0
   61.0457   27.2102   46.1837 H   0  0  0  0  0  0  0  0  0  0  0  0
   57.9574   31.6166   43.4681 H   0  0  0  0  0  0  0  0  0  0  0  0
   57.7292   34.1004   43.5273 H   0  0  0  0  0  0  0  0  0  0  0  0
   57.7768   35.3120   45.7117 H   0  0  0  0  0  0  0  0  0  0  0  0
   58.0017   34.0304   47.8432 H   0  0  0  0  0  0  0  0  0  0  0  0
   58.2425   31.5449   47.7921 H   0  0  0  0  0  0  0  0  0  0  0  0
   55.4443   29.6706   44.7630 H   0  0  0  0  0  0  0  0  0  0  0  0
   56.5387   30.2954   43.4830 H   0  0  0  0  0  0  0  0  0  0  0  0
   56.0518   28.5664   43.4830 H   0  0  0  0  0  0  0  0  0  0  0  0
   57.0501   26.6176   43.7277 H   0  0  0  0  0  0  0  0  0  0  0  0
   58.1864   25.7417   44.8169 H   0  0  0  0  0  0  0  0  0  0  0  0
   55.9124   24.5365   42.7302 H   0  0  0  0  0  0  0  0  0  0  0  0
   56.7062   22.4166   41.6929 H   0  0  0  0  0  0  0  0  0  0  0  0
   57.1785   20.4301   43.1238 H   0  0  0  0  0  0  0  0  0  0  0  0
   56.8448   20.5606   45.5883 H   0  0  0  0  0  0  0  0  0  0  0  0
   55.1690   24.8330   47.4680 H   0  0  0  0  0  0  0  0  0  0  0  0
   56.8450   24.8130   47.4140 H   0  0  0  0  0  0  0  0  0  0  0  0
  1  2  1  0
  2  3  2  0
  3  4  1  0
  4  5  1  0
  5  6  2  0
  6  7  1  0
  7  8  2  0
  8  9  1  0
  9 10  2  0
  4 11  1  0
 11 12  1  0
 11 13  2  0
 13 14  1  0
 14 15  1  0
 15 16  2  0
 15 17  1  0
 17 18  1  0
 18 19  2  0
 19 20  1  0
 20 21  2  0
 21 22  1  0
 22 23  2  0
 23 24  1  0
 24 25  1  0
 24 26  2  0
 24 27  2  0
 13  2  1  0
 23 18  1  0
 10  5  1  0
  1 28  1  0
  1 29  1  0
  1 30  1  0
  6 31  1  0
  7 32  1  0
  8 33  1  0
  9 34  1  0
 10 35  1  0
 12 36  1  0
 12 37  1  0
 12 38  1  0
 14 39  1  0
 14 40  1  0
 19 41  1  0
 20 42  1  0
 21 43  1  0
 22 44  1  0
 25 45  1  0
 25 46  1  0
M  CHG  1  17  -1
M  END
>  <UniqueID>  (78) 
71

>  <SMILES>  (78) 
Cc1nn(-c2ccccc2)c(C)c1CC(=O)[N-]c1ccccc1S(N)(=O)=O

>  <Energy>  (78) 
83.10141451610319

>  <Genealogy>  (78) 
Cc1nn(-c2ccccc2)c(C)c1CC(=O)[N-]c1ccccc1S(N)(=O)=O (protonated)
Cc1nn(-c2ccccc2)c(C)c1CC(=O)[N-]c1ccccc1S(N)(=O)=O (3D coordinates assigned)
Cc1nn(-c2ccccc2)c(C)c1CC(=O)[N-]c1ccccc1S(N)(=O)=O (optimized conformer: 83.10141451610319 kcal/mol)

>  <smiles>  (78) 
Cc1nn(-c2ccccc2)c(C)c1CC(=O)Nc1ccccc1S(N)(=O)=O

>  <score_type>  (78) 
oracle

>  <origin>  (78) 
adg

>  <m_score__min__energy>  (78) 
-11.300000000000001

>  <m_primary>  (78) 
energy

$$$$
78:0
     RDKit          3D

 59 62  0  0  0  0  0  0  0  0999 V2000
   60.2560   21.7990   45.5130 N   0  0  0  0  0  0  0  0  0  0  0  0
   59.0150   21.8480   44.7460 C   0  0  0  0  0  0  0  0  0  0  0  0
   58.3020   23.1470   45.0040 C   0  0  0  0  0  0  0  0  0  0  0  0
   56.9680   23.3160   44.6000 C   0  0  0  0  0  0  0  0  0  0  0  0
   56.3140   24.5310   44.8190 C   0  0  0  0  0  0  0  0  0  0  0  0
   56.9870   25.5990   45.4320 C   0  0  0  0  0  0  0  0  0  0  0  0
   56.2800   26.9020   45.6890 C   0  0  0  0  0  0  0  0  0  0  0  0
   57.1110   28.0280   45.2790 N   0  0  0  0  0  0  0  0  0  0  0  0
   56.6510   29.3860   45.2300 C   0  0  0  0  0  0  0  0  0  0  0  0
   55.4710   29.6410   44.8710 O   0  0  0  0  0  0  0  0  0  0  0  0
   57.5540   30.5200   45.6450 C   0  0  1  0  0  0  0  0  0  0  0  0
   59.0570   30.1720   45.5780 C   0  0  0  0  0  0  0  0  0  0  0  0
   59.5280   29.5070   46.8470 C   0  0  0  0  0  0  0  0  0  0  0  0
   59.9540   28.1680   46.8270 C   0  0  0  0  0  0  0  0  0  0  0  0
   60.3690   27.5440   48.0070 C   0  0  0  0  0  0  0  0  0  0  0  0
   60.3570   28.2470   49.2130 C   0  0  0  0  0  0  0  0  0  0  0  0
   59.9280   29.5770   49.2430 C   0  0  0  0  0  0  0  0  0  0  0  0
   59.5130   30.2060   48.0660 C   0  0  0  0  0  0  0  0  0  0  0  0
   57.2470   31.7340   44.8810 N   0  0  0  0  0  0  0  0  0  0  0  0
   57.5930   33.0970   45.1740 C   0  0  0  0  0  0  0  0  0  0  0  0
   56.6700   33.8780   45.5270 O   0  0  0  0  0  0  0  0  0  0  0  0
   59.0130   33.6050   45.1570 C   0  0  0  0  0  0  0  0  0  0  0  0
   59.4880   33.9470   46.5400 C   0  0  0  0  0  0  0  0  0  0  0  0
   58.8950   34.8480   47.4190 C   0  0  0  0  0  0  0  0  0  0  0  0
   59.6290   34.9590   48.5490 N   0  0  0  0  0  0  0  0  0  0  0  0
   60.6860   34.1440   48.3870 C   0  0  0  0  0  0  0  0  0  0  0  0
   61.7350   33.9310   49.2820 C   0  0  0  0  0  0  0  0  0  0  0  0
   62.7550   33.0400   48.8980 C   0  0  0  0  0  0  0  0  0  0  0  0
   62.7060   32.3920   47.6440 C   0  0  0  0  0  0  0  0  0  0  0  0
   61.6350   32.6290   46.7620 C   0  0  0  0  0  0  0  0  0  0  0  0
   60.6380   33.5130   47.1710 C   0  0  0  0  0  0  0  0  0  0  0  0
   58.3250   25.4360   45.8210 C   0  0  0  0  0  0  0  0  0  0  0  0
   58.9800   24.2200   45.6020 C   0  0  0  0  0  0  0  0  0  0  0  0
   61.0170   22.2190   44.9300 H   0  0  0  0  0  0  0  0  0  0  0  0
   60.5050   20.7920   45.6450 H   0  0  0  0  0  0  0  0  0  0  0  0
   59.2460   21.7659   43.6737 H   0  0  0  0  0  0  0  0  0  0  0  0
   58.3675   21.0134   45.0530 H   0  0  0  0  0  0  0  0  0  0  0  0
   56.4355   22.4882   44.1089 H   0  0  0  0  0  0  0  0  0  0  0  0
   55.2654   24.6512   44.5091 H   0  0  0  0  0  0  0  0  0  0  0  0
   55.3392   26.9210   45.1193 H   0  0  0  0  0  0  0  0  0  0  0  0
   56.0750   26.9871   46.7664 H   0  0  0  0  0  0  0  0  0  0  0  0
   57.3448   30.7097   46.7081 H   0  0  0  0  0  0  0  0  0  0  0  0
   59.2285   29.4899   44.7322 H   0  0  0  0  0  0  0  0  0  0  0  0
   59.6220   31.1068   45.4483 H   0  0  0  0  0  0  0  0  0  0  0  0
   59.9609   27.6090   45.8796 H   0  0  0  0  0  0  0  0  0  0  0  0
   60.7057   26.4970   47.9852 H   0  0  0  0  0  0  0  0  0  0  0  0
   60.6853   27.7541   50.1400 H   0  0  0  0  0  0  0  0  0  0  0  0
   59.9170   30.1293   50.1942 H   0  0  0  0  0  0  0  0  0  0  0  0
   59.1734   31.2519   48.0939 H   0  0  0  0  0  0  0  0  0  0  0  0
   59.6667   32.8269   44.7361 H   0  0  0  0  0  0  0  0  0  0  0  0
   59.0476   34.5171   44.5431 H   0  0  0  0  0  0  0  0  0  0  0  0
   57.9602   35.3934   47.2222 H   0  0  0  0  0  0  0  0  0  0  0  0
   59.4230   35.5670   49.3730 H   0  0  0  0  0  0  0  0  0  0  0  0
   61.7640   34.4424   50.2555 H   0  0  0  0  0  0  0  0  0  0  0  0
   63.5965   32.8470   49.5797 H   0  0  0  0  0  0  0  0  0  0  0  0
   63.5093   31.6983   47.3551 H   0  0  0  0  0  0  0  0  0  0  0  0
   61.5864   32.1326   45.7816 H   0  0  0  0  0  0  0  0  0  0  0  0
   58.8612   26.2683   46.3003 H   0  0  0  0  0  0  0  0  0  0  0  0
   60.0325   24.1041   45.9002 H   0  0  0  0  0  0  0  0  0  0  0  0
  1  2  1  0
  2  3  1  0
  3  4  2  0
  4  5  1  0
  5  6  2  0
  6  7  1  0
  7  8  1  0
  8  9  1  0
  9 10  2  0
  9 11  1  0
 11 12  1  0
 12 13  1  0
 13 14  2  0
 14 15  1  0
 15 16  2  0
 16 17  1  0
 17 18  2  0
 11 19  1  0
 19 20  1  0
 20 21  2  0
 20 22  1  0
 22 23  1  0
 23 24  2  0
 24 25  1  0
 25 26  1  0
 26 27  2  0
 27 28  1  0
 28 29  2  0
 29 30  1  0
 30 31  2  0
  6 32  1  0
 32 33  2  0
 33  3  1  0
 18 13  1  0
 31 23  1  0
 31 26  1  0
  1 34  1  0
  1 35  1  0
  2 36  1  0
  2 37  1  0
  4 38  1  0
  5 39  1  0
  7 40  1  0
  7 41  1  0
 11 42  1  1
 12 43  1  0
 12 44  1  0
 14 45  1  0
 15 46  1  0
 16 47  1  0
 17 48  1  0
 18 49  1  0
 22 50  1  0
 22 51  1  0
 24 52  1  0
 25 53  1  0
 27 54  1  0
 28 55  1  0
 29 56  1  0
 30 57  1  0
 32 58  1  0
 33 59  1  0
M  CHG  2   8  -1  19  -1
M  END
>  <UniqueID>  (79) 
72

>  <SMILES>  (79) 
NCc1ccc(C[N-]C(=O)[C@@H](Cc2ccccc2)[N-]C(=O)Cc2c[nH]c3ccccc23)cc1

>  <Energy>  (79) 
88.50683499408251

>  <Genealogy>  (79) 
NCc1ccc(C[N-]C(=O)C(Cc2ccccc2)[N-]C(=O)Cc2c[nH]c3ccccc23)cc1 (protonated)
NCc1ccc(C[N-]C(=O)[C@@H](Cc2ccccc2)[N-]C(=O)Cc2c[nH]c3ccccc23)cc1 (chirality)
NCc1ccc(C[N-]C(=O)[C@@H](Cc2ccccc2)[N-]C(=O)Cc2c[nH]c3ccccc23)cc1 (3D coordinates assigned)
NCc1ccc(C[N-]C(=O)[C@@H](Cc2ccccc2)[N-]C(=O)Cc2c[nH]c3ccccc23)cc1 (optimized conformer: 88.50683499408251 kcal/mol)

>  <smiles>  (79) 
NCc1ccc(CNC(=O)C(Cc2ccccc2)NC(=O)Cc2c[nH]c3ccccc23)cc1

>  <score_type>  (79) 
oracle

>  <origin>  (79) 
adg

>  <m_score__min__energy>  (79) 
-12.699999999999999

>  <m_primary>  (79) 
energy

$$$$
79:0
     RDKit          3D

 53 55  0  0  0  0  0  0  0  0999 V2000
   58.7894   36.0191   47.1877 H   0  0  0  0  0  0  0  0  0  0  0  0
   58.9710   34.9350   47.2300 C   0  0  0  0  0  0  0  0  0  0  0  0
   59.5070   34.4490   48.3140 N   0  0  0  0  0  0  0  0  0  0  0  0
   60.8590   33.9960   48.4910 C   0  0  0  0  0  0  0  0  0  0  0  0
   61.7080   33.7720   47.3930 C   0  0  0  0  0  0  0  0  0  0  0  0
   61.3464   33.9669   46.3726 H   0  0  0  0  0  0  0  0  0  0  0  0
   63.0090   33.3030   47.5920 C   0  0  0  0  0  0  0  0  0  0  0  0
   63.6689   33.1381   46.7275 H   0  0  0  0  0  0  0  0  0  0  0  0
   63.4790   33.0410   48.8880 C   0  0  0  0  0  0  0  0  0  0  0  0
   64.8140   32.5350   49.0660 N   0  0  0  0  0  0  0  0  0  0  0  0
   65.2370   31.9810   48.2880 H   0  0  0  0  0  0  0  0  0  0  0  0
   65.6030   32.7220   50.2530 C   0  0  0  0  0  0  0  0  0  0  0  0
   66.5820   31.7390   50.6000 N   0  0  0  0  0  0  0  0  0  0  0  0
   66.6910   30.8770   50.0200 H   0  0  0  0  0  0  0  0  0  0  0  0
   67.1940   31.8620   51.4360 H   0  0  0  0  0  0  0  0  0  0  0  0
   65.4900   33.8010   50.9670 N   0  0  0  0  0  0  0  0  0  0  0  0
   66.1740   34.5850   50.8630 H   0  0  0  0  0  0  0  0  0  0  0  0
   64.7000   33.9330   51.6360 H   0  0  0  0  0  0  0  0  0  0  0  0
   62.6090   33.2100   49.9790 C   0  0  0  0  0  0  0  0  0  0  0  0
   62.9541   32.9713   50.9958 H   0  0  0  0  0  0  0  0  0  0  0  0
   61.3070   33.6800   49.7790 C   0  0  0  0  0  0  0  0  0  0  0  0
   60.6314   33.8020   50.6385 H   0  0  0  0  0  0  0  0  0  0  0  0
   58.5910   34.1240   46.0530 C   0  0  0  0  0  0  0  0  0  0  0  0
   59.2840   34.2280   44.8360 C   0  0  0  0  0  0  0  0  0  0  0  0
   60.1401   34.9136   44.7521 H   0  0  0  0  0  0  0  0  0  0  0  0
   58.8940   33.4670   43.7310 C   0  0  0  0  0  0  0  0  0  0  0  0
   59.4499   33.5514   42.7856 H   0  0  0  0  0  0  0  0  0  0  0  0
   57.7930   32.5920   43.8200 C   0  0  0  0  0  0  0  0  0  0  0  0
   57.3360   31.7680   42.6740 C   0  0  0  0  0  0  0  0  0  0  0  0
   57.5048   32.1527   41.6574 H   0  0  0  0  0  0  0  0  0  0  0  0
   56.7290   30.5810   42.8090 C   0  0  0  0  0  0  0  0  0  0  0  0
   56.0472   30.2404   42.0158 H   0  0  0  0  0  0  0  0  0  0  0  0
   56.9430   29.7150   43.9840 C   0  0  0  0  0  0  0  0  0  0  0  0
   56.0650   29.6370   44.8870 O   0  0  0  0  0  0  0  0  0  0  0  0
   58.1590   28.9620   44.0980 N   0  0  0  0  0  0  0  0  0  0  0  0
   58.8940   29.0670   43.3630 H   0  0  0  0  0  0  0  0  0  0  0  0
   58.4160   28.0510   45.2110 C   0  0  0  0  0  0  0  0  0  0  0  0
   57.4711   27.5811   45.5213 H   0  0  0  0  0  0  0  0  0  0  0  0
   59.1302   27.2802   44.8859 H   0  0  0  0  0  0  0  0  0  0  0  0
   59.0020   28.8030   46.3740 C   0  0  0  0  0  0  0  0  0  0  0  0
   59.5900   30.0650   46.1950 C   0  0  0  0  0  0  0  0  0  0  0  0
   59.6403   30.5094   45.1900 H   0  0  0  0  0  0  0  0  0  0  0  0
   60.0980   30.7400   47.2620 N   0  0  0  0  0  0  0  0  0  0  0  0
   60.0530   30.2260   48.5190 C   0  0  0  0  0  0  0  0  0  0  0  0
   60.4743   30.7957   49.3603 H   0  0  0  0  0  0  0  0  0  0  0  0
   59.4730   28.9760   48.7450 C   0  0  0  0  0  0  0  0  0  0  0  0
   59.4327   28.5572   49.7613 H   0  0  0  0  0  0  0  0  0  0  0  0
   58.9450   28.2640   47.6670 C   0  0  0  0  0  0  0  0  0  0  0  0
   58.4837   27.2791   47.8320 H   0  0  0  0  0  0  0  0  0  0  0  0
   57.0740   32.5300   45.0250 C   0  0  0  0  0  0  0  0  0  0  0  0
   56.1932   31.8755   45.1007 H   0  0  0  0  0  0  0  0  0  0  0  0
   57.4670   33.2920   46.1290 C   0  0  0  0  0  0  0  0  0  0  0  0
   56.8896   33.2378   47.0637 H   0  0  0  0  0  0  0  0  0  0  0  0
  1  2  1  0
  2  3  2  3
  3  4  1  0
  4  5  2  0
  5  6  1  0
  5  7  1  0
  7  8  1  0
  7  9  2  0
  9 10  1  0
 10 11  1  0
 10 12  1  0
 12 13  1  0
 13 14  1  0
 13 15  1  0
 12 16  2  0
 16 17  1  0
 16 18  1  0
  9 19  1  0
 19 20  1  0
 19 21  2  0
 21 22  1  0
  2 23  1  0
 23 24  2  0
 24 25  1  0
 24 26  1  0
 26 27  1  0
 26 28  2  0
 28 29  1  0
 29 30  1  0
 29 31  2  0
 31 32  1  0
 31 33  1  0
 33 34  2  0
 33 35  1  0
 35 36  1  0
 35 37  1  0
 37 38  1  0
 37 39  1  0
 37 40  1  0
 40 41  2  0
 41 42  1  0
 41 43  1  0
 43 44  2  0
 44 45  1  0
 44 46  1  0
 46 47  1  0
 46 48  2  0
 48 49  1  0
 28 50  1  0
 50 51  1  0
 50 52  2  0
 52 53  1  0
 21  4  1  0
 52 23  1  0
 48 40  1  0
M  CHG  1  16   1
M  END
>  <UniqueID>  (80) 
73

>  <SMILES>  (80) 
NC(=[NH2+])Nc1ccc(N=Cc2ccc(/C=C/C(=O)NCc3cccnc3)cc2)cc1

>  <Energy>  (80) 
68.44351609775447

>  <Genealogy>  (80) 
NC(=[NH2+])Nc1ccc(N=Cc2ccc(C=CC(=O)NCc3cccnc3)cc2)cc1 (protonated)
NC(=[NH2+])Nc1ccc(N=Cc2ccc(/C=C/C(=O)NCc3cccnc3)cc2)cc1 (cis-trans isomerization)
NC(=[NH2+])Nc1ccc(N=Cc2ccc(/C=C/C(=O)NCc3cccnc3)cc2)cc1 (3D coordinates assigned)
NC(=[NH2+])Nc1ccc(N=Cc2ccc(/C=C/C(=O)NCc3cccnc3)cc2)cc1 (optimized conformer: 68.44351609775447 kcal/mol)

>  <smiles>  (80) 
N=C(N)Nc1ccc(N=Cc2ccc(C=CC(=O)NCc3cccnc3)cc2)cc1

>  <score_type>  (80) 
oracle

>  <origin>  (80) 
adg

>  <m_score__min__energy>  (80) 
-8.6300000000000008

>  <m_primary>  (80) 
energy

$$$$
80:0
     RDKit          3D

 67 71  0  0  0  0  0  0  0  0999 V2000
   57.7450   19.9690   43.3000 H   0  0  0  0  0  0  0  0  0  0  0  0
   57.2980   20.7400   42.8200 O   0  0  0  0  0  0  0  0  0  0  0  0
   56.5990   21.7220   43.5210 C   0  0  0  0  0  0  0  0  0  0  0  0
   55.8790   22.6940   42.8170 C   0  0  0  0  0  0  0  0  0  0  0  0
   55.8762   22.6849   41.7170 H   0  0  0  0  0  0  0  0  0  0  0  0
   55.1630   23.6770   43.5080 C   0  0  0  0  0  0  0  0  0  0  0  0
   54.5879   24.4300   42.9492 H   0  0  0  0  0  0  0  0  0  0  0  0
   55.1750   23.7070   44.9130 C   0  0  0  0  0  0  0  0  0  0  0  0
   54.3780   24.7490   45.6560 C   0  0  0  0  0  0  0  0  0  0  0  0
   53.8837   24.2754   46.5171 H   0  0  0  0  0  0  0  0  0  0  0  0
   53.6344   25.1746   44.9661 H   0  0  0  0  0  0  0  0  0  0  0  0
   55.2350   25.8310   46.1350 N   0  0  0  0  0  0  0  0  0  0  0  0
   56.5370   26.1250   45.6150 C   0  0  0  0  0  0  0  0  0  0  0  0
   56.9980   25.4310   44.6720 O   0  0  0  0  0  0  0  0  0  0  0  0
   57.3380   27.2330   46.1450 C   0  0  0  0  0  0  0  0  0  0  0  0
   57.0560   28.5060   45.7680 N   0  0  0  0  0  0  0  0  0  0  0  0
   57.7960   29.5720   46.1800 C   0  0  0  0  0  0  0  0  0  0  0  0
   57.5010   30.7810   45.7840 N   0  0  0  0  0  0  0  0  0  0  0  0
   57.0450   31.1810   44.4850 C   0  0  0  0  0  0  0  0  0  0  0  0
   56.1650   30.5180   43.8670 O   0  0  0  0  0  0  0  0  0  0  0  0
   57.6390   32.4000   43.8520 C   0  0  0  0  0  0  0  0  0  0  0  0
   58.4419   32.0940   43.1652 H   0  0  0  0  0  0  0  0  0  0  0  0
   56.8472   32.9328   43.3051 H   0  0  0  0  0  0  0  0  0  0  0  0
   58.2080   33.3240   44.8940 C   0  0  0  0  0  0  0  0  0  0  0  0
   59.3950   34.0310   44.6400 C   0  0  0  0  0  0  0  0  0  0  0  0
   59.8943   33.9312   43.6650 H   0  0  0  0  0  0  0  0  0  0  0  0
   59.9440   34.8610   45.6220 C   0  0  0  0  0  0  0  0  0  0  0  0
   60.8693   35.4188   45.4154 H   0  0  0  0  0  0  0  0  0  0  0  0
   59.3180   34.9830   46.8670 C   0  0  0  0  0  0  0  0  0  0  0  0
   59.7527   35.6349   47.6391 H   0  0  0  0  0  0  0  0  0  0  0  0
   58.1400   34.2770   47.1310 C   0  0  0  0  0  0  0  0  0  0  0  0
   57.6486   34.3742   48.1104 H   0  0  0  0  0  0  0  0  0  0  0  0
   57.5860   33.4470   46.1500 C   0  0  0  0  0  0  0  0  0  0  0  0
   56.6618   32.8892   46.3614 H   0  0  0  0  0  0  0  0  0  0  0  0
   58.9040   29.3630   47.0280 C   0  0  0  0  0  0  0  0  0  0  0  0
   59.7570   30.5030   47.4380 C   0  0  0  0  0  0  0  0  0  0  0  0
   61.0310   30.6800   46.8790 C   0  0  0  0  0  0  0  0  0  0  0  0
   61.4003   29.9718   46.1226 H   0  0  0  0  0  0  0  0  0  0  0  0
   61.8340   31.7530   47.2790 C   0  0  0  0  0  0  0  0  0  0  0  0
   62.8317   31.8856   46.8352 H   0  0  0  0  0  0  0  0  0  0  0  0
   61.3710   32.6640   48.2470 C   0  0  0  0  0  0  0  0  0  0  0  0
   62.1380   33.7540   48.6830 O   0  0  0  0  0  0  0  0  0  0  0  0
   63.5560   33.7460   48.8010 C   0  0  0  0  0  0  0  0  0  0  0  0
   63.8354   33.7444   49.8649 H   0  0  0  0  0  0  0  0  0  0  0  0
   63.9593   32.8456   48.3146 H   0  0  0  0  0  0  0  0  0  0  0  0
   63.9695   34.6418   48.3146 H   0  0  0  0  0  0  0  0  0  0  0  0
   60.0980   32.4830   48.8030 C   0  0  0  0  0  0  0  0  0  0  0  0
   59.7264   33.1914   49.5581 H   0  0  0  0  0  0  0  0  0  0  0  0
   59.2970   31.4100   48.4060 C   0  0  0  0  0  0  0  0  0  0  0  0
   58.3013   31.2749   48.8537 H   0  0  0  0  0  0  0  0  0  0  0  0
   59.2120   28.0440   47.4290 C   0  0  0  0  0  0  0  0  0  0  0  0
   60.6650   27.6650   48.4210 S   0  0  0  0  0  0  0  0  0  0  0  0
   60.0880   28.6780   49.7770 C   0  0  0  0  0  0  0  0  0  0  0  0
   60.8920   29.2070   50.7140 N   0  0  0  0  0  0  0  0  0  0  0  0
   60.1010   29.8600   51.5510 N   0  0  0  0  0  0  0  0  0  0  0  0
   58.8480   29.6920   51.0910 C   0  0  0  0  0  0  0  0  0  0  0  0
   57.6370   30.2830   51.7270 C   0  0  0  0  0  0  0  0  0  0  0  0
   57.7368   30.2343   52.8214 H   0  0  0  0  0  0  0  0  0  0  0  0
   57.5340   31.3327   51.4146 H   0  0  0  0  0  0  0  0  0  0  0  0
   56.7462   29.7184   51.4146 H   0  0  0  0  0  0  0  0  0  0  0  0
   58.8300   28.9690   49.9980 O   0  0  0  0  0  0  0  0  0  0  0  0
   58.4190   26.9810   46.9900 C   0  0  0  0  0  0  0  0  0  0  0  0
   58.6453   25.9527   47.3083 H   0  0  0  0  0  0  0  0  0  0  0  0
   55.8960   22.7270   45.6160 C   0  0  0  0  0  0  0  0  0  0  0  0
   55.9032   22.7357   46.7159 H   0  0  0  0  0  0  0  0  0  0  0  0
   56.6050   21.7400   44.9220 C   0  0  0  0  0  0  0  0  0  0  0  0
   57.1685   20.9762   45.4779 H   0  0  0  0  0  0  0  0  0  0  0  0
  1  2  1  0
  2  3  1  0
  3  4  2  0
  4  5  1  0
  4  6  1  0
  6  7  1  0
  6  8  2  0
  8  9  1  0
  9 10  1  0
  9 11  1  0
  9 12  1  0
 12 13  1  0
 13 14  2  0
 13 15  1  0
 15 16  1  0
 16 17  1  0
 17 18  2  0
 18 19  1  0
 19 20  2  0
 19 21  1  0
 21 22  1  0
 21 23  1  0
 21 24  1  0
 24 25  2  0
 25 26  1  0
 25 27  1  0
 27 28  1  0
 27 29  2  0
 29 30  1  0
 29 31  1  0
 31 32  1  0
 31 33  2  0
 33 34  1  0
 17 35  1  0
 35 36  1  0
 36 37  2  0
 37 38  1  0
 37 39  1  0
 39 40  1  0
 39 41  2  0
 41 42  1  0
 42 43  1  0
 43 44  1  0
 43 45  1  0
 43 46  1  0
 41 47  1  0
 47 48  1  0
 47 49  2  0
 49 50  1  0
 35 51  2  0
 51 52  1  0
 52 53  1  0
 53 54  2  0
 54 55  1  0
 55 56  2  0
 56 57  1  0
 57 58  1  0
 57 59  1  0
 57 60  1  0
 56 61  1  0
 51 62  1  0
 62 63  1  0
  8 64  1  0
 64 65  1  0
 64 66  2  0
 66 67  1  0
 66  3  1  0
 62 15  2  0
 33 24  1  0
 49 36  1  0
 61 53  1  0
M  CHG  2  12  -1  16  -1
M  END
>  <UniqueID>  (81) 
74

>  <SMILES>  (81) 
COc1ccc(-c2c(Sc3nnc(C)o3)cc(C(=O)[N-]Cc3ccc(O)cc3)[n-]/c2=N\C(=O)Cc2ccccc2)cc1

>  <Energy>  (81) 
110.33103168032144

>  <Genealogy>  (81) 
COc1ccc(-c2c(Sc3nnc(C)o3)cc(C(=O)[N-]Cc3ccc(O)cc3)[n-]c2=NC(=O)Cc2ccccc2)cc1 (protonated)
COc1ccc(-c2c(Sc3nnc(C)o3)cc(C(=O)[N-]Cc3ccc(O)cc3)[n-]/c2=N\C(=O)Cc2ccccc2)cc1 (cis-trans isomerization)
COc1ccc(-c2c(Sc3nnc(C)o3)cc(C(=O)[N-]Cc3ccc(O)cc3)[n-]/c2=N\C(=O)Cc2ccccc2)cc1 (3D coordinates assigned)
COc1ccc(-c2c(Sc3nnc(C)o3)cc(C(=O)[N-]Cc3ccc(O)cc3)[n-]/c2=N\C(=O)Cc2ccccc2)cc1 (optimized conformer: 110.33103168032144 kcal/mol)

>  <smiles>  (81) 
COc1ccc(-c2c(Sc3nnc(C)o3)cc(C(=O)NCc3ccc(O)cc3)[nH]c2=NC(=O)Cc2ccccc2)cc1

>  <score_type>  (81) 
oracle

>  <origin>  (81) 
adg

>  <m_score__min__energy>  (81) 
-13.32

>  <m_primary>  (81) 
energy

$$$$
81:0
     RDKit          3D

 43 44  0  0  0  0  0  0  0  0999 V2000
   59.4990   34.6790   45.6420 C   0  0  0  0  0  0  0  0  0  0  0  0
   58.3950   34.1930   46.5810 C   0  0  0  0  0  0  0  0  0  0  0  0
   57.4140   33.2220   45.9010 C   0  0  0  0  0  0  0  0  0  0  0  0
   57.7270   32.9130   44.4250 C   0  0  0  0  0  0  0  0  0  0  0  0
   57.5360   31.4420   44.0460 C   0  0  0  0  0  0  0  0  0  0  0  0
   57.2490   30.6680   45.2070 O   0  0  0  0  0  0  0  0  0  0  0  0
   56.6310   29.4150   45.1520 C   0  0  0  0  0  0  0  0  0  0  0  0
   55.4020   29.3410   44.8720 O   0  0  0  0  0  0  0  0  0  0  0  0
   57.4200   28.1790   45.4250 C   0  0  0  0  0  0  0  0  0  0  0  0
   58.8240   28.1970   45.3790 C   0  0  0  0  0  0  0  0  0  0  0  0
   59.5200   29.3600   45.0620 O   0  0  0  0  0  0  0  0  0  0  0  0
   59.5220   27.0650   45.6370 N   0  0  0  0  0  0  0  0  0  0  0  0
   58.9080   25.8970   45.9410 C   0  0  0  0  0  0  0  0  0  0  0  0
   59.6170   24.8810   46.1690 O   0  0  0  0  0  0  0  0  0  0  0  0
   57.5390   25.8270   45.9920 N   0  0  0  0  0  0  0  0  0  0  0  0
   56.8780   24.5570   46.3590 C   0  0  0  0  0  0  0  0  0  0  0  0
   56.8890   23.6000   45.1950 C   0  0  0  0  0  0  0  0  0  0  0  0
   56.0730   23.8340   44.0750 C   0  0  0  0  0  0  0  0  0  0  0  0
   56.1080   22.9610   42.9810 C   0  0  0  0  0  0  0  0  0  0  0  0
   56.9580   21.8530   42.9970 C   0  0  0  0  0  0  0  0  0  0  0  0
   57.7750   21.6140   44.1050 C   0  0  0  0  0  0  0  0  0  0  0  0
   57.7440   22.4840   45.2000 C   0  0  0  0  0  0  0  0  0  0  0  0
   56.7920   26.9530   45.7430 C   0  0  0  0  0  0  0  0  0  0  0  0
   55.5320   26.8960   45.8060 O   0  0  0  0  0  0  0  0  0  0  0  0
   60.3469   35.0522   46.2351 H   0  0  0  0  0  0  0  0  0  0  0  0
   59.8341   33.8452   45.0076 H   0  0  0  0  0  0  0  0  0  0  0  0
   59.1104   35.4893   45.0076 H   0  0  0  0  0  0  0  0  0  0  0  0
   58.8614   33.6798   47.4349 H   0  0  0  0  0  0  0  0  0  0  0  0
   57.8194   35.0752   46.8978 H   0  0  0  0  0  0  0  0  0  0  0  0
   57.4289   32.2743   46.4593 H   0  0  0  0  0  0  0  0  0  0  0  0
   56.4320   33.7176   45.9113 H   0  0  0  0  0  0  0  0  0  0  0  0
   57.0623   33.5223   43.7949 H   0  0  0  0  0  0  0  0  0  0  0  0
   58.7900   33.1482   44.2676 H   0  0  0  0  0  0  0  0  0  0  0  0
   56.7004   31.3553   43.3358 H   0  0  0  0  0  0  0  0  0  0  0  0
   58.4615   31.0672   43.5846 H   0  0  0  0  0  0  0  0  0  0  0  0
   59.2050   30.2640   45.3900 H   0  0  0  0  0  0  0  0  0  0  0  0
   57.4125   24.1025   47.2062 H   0  0  0  0  0  0  0  0  0  0  0  0
   55.8346   24.7667   46.6370 H   0  0  0  0  0  0  0  0  0  0  0  0
   55.4039   24.7069   44.0578 H   0  0  0  0  0  0  0  0  0  0  0  0
   55.4654   23.1480   42.1080 H   0  0  0  0  0  0  0  0  0  0  0  0
   56.9843   21.1680   42.1367 H   0  0  0  0  0  0  0  0  0  0  0  0
   58.4435   20.7405   44.1163 H   0  0  0  0  0  0  0  0  0  0  0  0
   58.3914   22.2941   46.0688 H   0  0  0  0  0  0  0  0  0  0  0  0
  1  2  1  0
  2  3  1  0
  3  4  1  0
  4  5  1  0
  5  6  1  0
  6  7  1  0
  7  8  2  0
  7  9  1  0
  9 10  2  0
 10 11  1  0
 10 12  1  0
 12 13  1  0
 13 14  2  0
 13 15  1  0
 15 16  1  0
 16 17  1  0
 17 18  2  0
 18 19  1  0
 19 20  2  0
 20 21  1  0
 21 22  2  0
 15 23  1  0
 23 24  2  0
 23  9  1  0
 22 17  1  0
  1 25  1  0
  1 26  1  0
  1 27  1  0
  2 28  1  0
  2 29  1  0
  3 30  1  0
  3 31  1  0
  4 32  1  0
  4 33  1  0
  5 34  1  0
  5 35  1  0
 11 36  1  0
 16 37  1  0
 16 38  1  0
 18 39  1  0
 19 40  1  0
 20 41  1  0
 21 42  1  0
 22 43  1  0
M  CHG  1  12  -1
M  END
>  <UniqueID>  (82) 
75

>  <SMILES>  (82) 
CCCCCOC(=O)c1c(O)[n-]c(=O)n(Cc2ccccc2)c1=O

>  <Energy>  (82) 
41.4461434571746

>  <Genealogy>  (82) 
CCCCCOC(=O)c1c(O)[n-]c(=O)n(Cc2ccccc2)c1=O (protonated)
CCCCCOC(=O)c1c(O)[n-]c(=O)n(Cc2ccccc2)c1=O (3D coordinates assigned)
CCCCCOC(=O)c1c(O)[n-]c(=O)n(Cc2ccccc2)c1=O (optimized conformer: 41.4461434571746 kcal/mol)

>  <smiles>  (82) 
CCCCCOC(=O)c1c(O)[nH]c(=O)n(Cc2ccccc2)c1=O

>  <score_type>  (82) 
oracle

>  <origin>  (82) 
adg

>  <m_score__min__energy>  (82) 
-8.9000000000000004

>  <m_primary>  (82) 
energy

$$$$
82:0
     RDKit          3D

 45 47  0  0  0  0  0  0  0  0999 V2000
   59.5330   32.3730   52.6520 C   0  0  0  0  0  0  0  0  0  0  0  0
   59.6660   32.5790   51.2490 O   0  0  0  0  0  0  0  0  0  0  0  0
   59.7380   31.5480   50.3010 C   0  0  0  0  0  0  0  0  0  0  0  0
   58.8520   31.4630   49.2100 C   0  0  0  0  0  0  0  0  0  0  0  0
   58.9640   30.4150   48.2920 C   0  0  0  0  0  0  0  0  0  0  0  0
   59.9510   29.4270   48.4540 C   0  0  0  0  0  0  0  0  0  0  0  0
   60.1200   28.3640   47.4990 N   0  0  0  0  0  0  0  0  0  0  0  0
   60.1110   26.9660   47.8280 C   0  0  0  0  0  0  0  0  0  0  0  0
   60.3490   26.5820   49.0050 O   0  0  0  0  0  0  0  0  0  0  0  0
   59.8080   25.9490   46.7700 C   0  0  0  0  0  0  0  0  0  0  0  0
   58.0060   25.7050   46.5940 S   0  0  0  0  0  0  0  0  0  0  0  0
   57.7170   27.2690   45.7700 C   0  0  0  0  0  0  0  0  0  0  0  0
   58.7640   27.9660   45.2590 N   0  0  0  0  0  0  0  0  0  0  0  0
   58.5740   29.1340   44.5940 C   0  0  0  0  0  0  0  0  0  0  0  0
   59.5730   29.7480   44.1320 O   0  0  0  0  0  0  0  0  0  0  0  0
   57.2730   29.6420   44.4230 C   0  0  0  0  0  0  0  0  0  0  0  0
   57.0280   30.9540   43.7120 C   0  0  0  0  0  0  0  0  0  0  0  0
   57.6470   32.0940   44.4750 C   0  0  0  0  0  0  0  0  0  0  0  0
   57.4660   32.1990   45.8660 C   0  0  0  0  0  0  0  0  0  0  0  0
   58.0160   33.2750   46.5700 C   0  0  0  0  0  0  0  0  0  0  0  0
   58.7460   34.2550   45.8930 C   0  0  0  0  0  0  0  0  0  0  0  0
   58.9270   34.1610   44.5100 C   0  0  0  0  0  0  0  0  0  0  0  0
   58.3780   33.0870   43.8020 C   0  0  0  0  0  0  0  0  0  0  0  0
   56.2090   28.9080   44.9780 C   0  0  0  0  0  0  0  0  0  0  0  0
   54.8980   29.3540   44.8600 O   0  0  0  0  0  0  0  0  0  0  0  0
   56.4540   27.7440   45.6330 N   0  0  0  0  0  0  0  0  0  0  0  0
   60.8440   29.5280   49.5300 C   0  0  0  0  0  0  0  0  0  0  0  0
   60.7320   30.5740   50.4490 C   0  0  0  0  0  0  0  0  0  0  0  0
   60.0529   33.1782   53.1917 H   0  0  0  0  0  0  0  0  0  0  0  0
   58.4672   32.3780   52.9239 H   0  0  0  0  0  0  0  0  0  0  0  0
   59.9762   31.4037   52.9239 H   0  0  0  0  0  0  0  0  0  0  0  0
   58.0687   32.2242   49.0796 H   0  0  0  0  0  0  0  0  0  0  0  0
   58.2747   30.3629   47.4363 H   0  0  0  0  0  0  0  0  0  0  0  0
   60.2610   28.6260   46.4970 H   0  0  0  0  0  0  0  0  0  0  0  0
   60.2197   26.2946   45.8103 H   0  0  0  0  0  0  0  0  0  0  0  0
   60.2645   24.9919   47.0626 H   0  0  0  0  0  0  0  0  0  0  0  0
   57.4720   30.9087   42.7066 H   0  0  0  0  0  0  0  0  0  0  0  0
   55.9432   31.1220   43.6419 H   0  0  0  0  0  0  0  0  0  0  0  0
   56.8892   31.4312   46.4025 H   0  0  0  0  0  0  0  0  0  0  0  0
   57.8736   33.3498   47.6582 H   0  0  0  0  0  0  0  0  0  0  0  0
   59.1783   35.1005   46.4481 H   0  0  0  0  0  0  0  0  0  0  0  0
   59.5021   34.9330   43.9777 H   0  0  0  0  0  0  0  0  0  0  0  0
   58.5193   33.0196   42.7132 H   0  0  0  0  0  0  0  0  0  0  0  0
   61.6391   28.7777   49.6515 H   0  0  0  0  0  0  0  0  0  0  0  0
   61.4311   30.6326   51.2963 H   0  0  0  0  0  0  0  0  0  0  0  0
  1  2  1  0
  2  3  1  0
  3  4  2  0
  4  5  1  0
  5  6  2  0
  6  7  1  0
  7  8  1  0
  8  9  2  0
  8 10  1  0
 10 11  1  0
 11 12  1  0
 12 13  2  0
 13 14  1  0
 14 15  2  0
 14 16  1  0
 16 17  1  0
 17 18  1  0
 18 19  2  0
 19 20  1  0
 20 21  2  0
 21 22  1  0
 22 23  2  0
 16 24  2  0
 24 25  1  0
 24 26  1  0
  6 27  1  0
 27 28  2  0
 28  3  1  0
 26 12  1  0
 23 18  1  0
  1 29  1  0
  1 30  1  0
  1 31  1  0
  4 32  1  0
  5 33  1  0
  7 34  1  0
 10 35  1  0
 10 36  1  0
 17 37  1  0
 17 38  1  0
 19 39  1  0
 20 40  1  0
 21 41  1  0
 22 42  1  0
 23 43  1  0
 27 44  1  0
 28 45  1  0
M  CHG  2  25  -1  26  -1
M  END
>  <UniqueID>  (83) 
76

>  <SMILES>  (83) 
COc1ccc(NC(=O)CSc2nc(=O)c(Cc3ccccc3)c([O-])[n-]2)cc1

>  <Energy>  (83) 
44.9806074448187

>  <Genealogy>  (83) 
COc1ccc(NC(=O)CSc2nc(=O)c(Cc3ccccc3)c([O-])[n-]2)cc1 (protonated)
COc1ccc(NC(=O)CSc2nc(=O)c(Cc3ccccc3)c([O-])[n-]2)cc1 (3D coordinates assigned)
COc1ccc(NC(=O)CSc2nc(=O)c(Cc3ccccc3)c([O-])[n-]2)cc1 (optimized conformer: 44.9806074448187 kcal/mol)

>  <smiles>  (83) 
COc1ccc(NC(=O)CSc2nc(=O)c(Cc3ccccc3)c(O)[nH]2)cc1

>  <score_type>  (83) 
oracle

>  <origin>  (83) 
adg

>  <m_score__min__energy>  (83) 
-12.800000000000001

>  <m_primary>  (83) 
energy

$$$$
83:0
     RDKit          3D

 62 65  0  0  0  0  0  0  0  0999 V2000
   61.7820   30.1530   49.9160 C   0  0  0  0  0  0  0  0  0  0  0  0
   60.8450   29.6140   48.9990 O   0  0  0  0  0  0  0  0  0  0  0  0
   60.0220   28.6550   49.6360 C   0  0  0  0  0  0  0  0  0  0  0  0
   60.3420   28.5780   51.1390 C   0  0  0  0  0  0  0  0  0  0  0  0
   59.4140   29.3540   51.9570 N   0  0  0  0  0  0  0  0  0  0  0  0
   58.4640   30.3000   51.4610 C   0  0  0  0  0  0  0  0  0  0  0  0
   57.2220   30.0880   51.6200 O   0  0  0  0  0  0  0  0  0  0  0  0
   58.9330   31.5450   50.7990 C   0  0  0  0  0  0  0  0  0  0  0  0
   59.6690   32.4970   51.5280 C   0  0  0  0  0  0  0  0  0  0  0  0
   60.0240   33.7120   50.9410 C   0  0  0  0  0  0  0  0  0  0  0  0
   59.6790   33.9870   49.6170 C   0  0  0  0  0  0  0  0  0  0  0  0
   58.9740   33.0390   48.8470 C   0  0  0  0  0  0  0  0  0  0  0  0
   58.6140   33.2860   47.4180 C   0  0  0  0  0  0  0  0  0  0  0  0
   59.0810   34.4120   46.7200 C   0  0  0  0  0  0  0  0  0  0  0  0
   58.7020   34.5910   45.3930 C   0  0  0  0  0  0  0  0  0  0  0  0
   57.9080   33.6700   44.7900 N   0  0  0  0  0  0  0  0  0  0  0  0
   57.4670   32.5710   45.4590 C   0  0  0  0  0  0  0  0  0  0  0  0
   56.6820   31.7050   44.8860 N   0  0  0  0  0  0  0  0  0  0  0  0
   57.0370   30.3530   44.5590 C   0  0  0  0  0  0  0  0  0  0  0  0
   56.8440   29.8930   43.2580 C   0  0  0  0  0  0  0  0  0  0  0  0
   57.2120   28.5880   42.9120 C   0  0  0  0  0  0  0  0  0  0  0  0
   57.7520   27.7120   43.8670 C   0  0  0  0  0  0  0  0  0  0  0  0
   57.8490   28.1400   45.2230 C   0  0  0  0  0  0  0  0  0  0  0  0
   57.5180   29.4730   45.5370 C   0  0  0  0  0  0  0  0  0  0  0  0
   58.3500   27.2700   46.3600 C   0  0  0  0  0  0  0  0  0  0  0  0
   59.0190   25.9500   45.9370 C   0  0  0  0  0  0  0  0  0  0  0  0
   58.0380   24.9290   45.5370 N   0  0  0  0  0  0  0  0  0  0  0  0
   56.8670   24.6560   46.8120 S   0  0  0  0  0  0  0  0  0  0  0  0
   56.2130   22.9930   46.7690 C   0  0  0  0  0  0  0  0  0  0  0  0
   55.7200   25.6090   46.6460 O   0  0  0  0  0  0  0  0  0  0  0  0
   57.4890   24.8740   48.1630 O   0  0  0  0  0  0  0  0  0  0  0  0
   57.3550   25.2270   44.2550 C   0  0  0  0  0  0  0  0  0  0  0  0
   58.0760   26.3040   43.4160 C   0  0  0  0  0  0  0  0  0  0  0  0
   57.8180   32.3960   46.7610 N   0  0  0  0  0  0  0  0  0  0  0  0
   58.6070   31.8160   49.4560 C   0  0  0  0  0  0  0  0  0  0  0  0
   61.4428   29.9579   50.9441 H   0  0  0  0  0  0  0  0  0  0  0  0
   62.7630   29.6812   49.7578 H   0  0  0  0  0  0  0  0  0  0  0  0
   61.8673   31.2382   49.7578 H   0  0  0  0  0  0  0  0  0  0  0  0
   58.9676   28.9398   49.5052 H   0  0  0  0  0  0  0  0  0  0  0  0
   60.2097   27.6703   49.1830 H   0  0  0  0  0  0  0  0  0  0  0  0
   60.2931   27.5255   51.4550 H   0  0  0  0  0  0  0  0  0  0  0  0
   61.3462   29.0025   51.2854 H   0  0  0  0  0  0  0  0  0  0  0  0
   59.9659   32.2825   52.5652 H   0  0  0  0  0  0  0  0  0  0  0  0
   60.5802   34.4590   51.5264 H   0  0  0  0  0  0  0  0  0  0  0  0
   59.9596   34.9521   49.1699 H   0  0  0  0  0  0  0  0  0  0  0  0
   59.7374   35.1424   47.2156 H   0  0  0  0  0  0  0  0  0  0  0  0
   59.0444   35.4751   44.8352 H   0  0  0  0  0  0  0  0  0  0  0  0
   56.4013   30.5572   42.5011 H   0  0  0  0  0  0  0  0  0  0  0  0
   57.0761   28.2434   41.8763 H   0  0  0  0  0  0  0  0  0  0  0  0
   57.6397   29.8297   46.5704 H   0  0  0  0  0  0  0  0  0  0  0  0
   59.0841   27.8532   46.9353 H   0  0  0  0  0  0  0  0  0  0  0  0
   57.4589   26.9858   46.9390 H   0  0  0  0  0  0  0  0  0  0  0  0
   59.6884   26.1493   45.0872 H   0  0  0  0  0  0  0  0  0  0  0  0
   59.5740   25.5616   46.8037 H   0  0  0  0  0  0  0  0  0  0  0  0
   56.0697   22.6287   47.7970 H   0  0  0  0  0  0  0  0  0  0  0  0
   55.2476   22.9922   46.2418 H   0  0  0  0  0  0  0  0  0  0  0  0
   56.9192   22.3348   46.2418 H   0  0  0  0  0  0  0  0  0  0  0  0
   57.3023   24.3009   43.6638 H   0  0  0  0  0  0  0  0  0  0  0  0
   56.3569   25.6188   44.5005 H   0  0  0  0  0  0  0  0  0  0  0  0
   59.1615   26.1483   43.5020 H   0  0  0  0  0  0  0  0  0  0  0  0
   57.7304   26.2010   42.3768 H   0  0  0  0  0  0  0  0  0  0  0  0
   58.0577   31.0639   48.8706 H   0  0  0  0  0  0  0  0  0  0  0  0
  1  2  1  0
  2  3  1  0
  3  4  1  0
  4  5  1  0
  5  6  1  0
  6  7  2  0
  6  8  1  0
  8  9  2  0
  9 10  1  0
 10 11  2  0
 11 12  1  0
 12 13  1  0
 13 14  1  0
 14 15  2  0
 15 16  1  0
 16 17  1  0
 17 18  2  3
 18 19  1  0
 19 20  2  0
 20 21  1  0
 21 22  2  0
 22 23  1  0
 23 24  2  0
 23 25  1  0
 25 26  1  0
 26 27  1  0
 27 28  1  0
 28 29  1  0
 28 30  2  0
 28 31  2  0
 27 32  1  0
 32 33  1  0
 17 34  1  0
 12 35  2  0
 35  8  1  0
 34 13  2  0
 24 19  1  0
 33 22  1  0
  1 36  1  0
  1 37  1  0
  1 38  1  0
  3 39  1  0
  3 40  1  0
  4 41  1  0
  4 42  1  0
  9 43  1  0
 10 44  1  0
 11 45  1  0
 14 46  1  0
 15 47  1  0
 20 48  1  0
 21 49  1  0
 24 50  1  0
 25 51  1  0
 25 52  1  0
 26 53  1  0
 26 54  1  0
 29 55  1  0
 29 56  1  0
 29 57  1  0
 32 58  1  0
 32 59  1  0
 33 60  1  0
 33 61  1  0
 35 62  1  0
M  CHG  2   5  -1  16  -1
M  END
>  <UniqueID>  (84) 
77

>  <SMILES>  (84) 
COCC[N-]C(=O)c1cccc(-c2cc[n-]c(=Nc3ccc4c(c3)CCN(S(C)(=O)=O)CC4)n2)c1

>  <Energy>  (84) 
90.33037079535596

>  <Genealogy>  (84) 
COCC[N-]C(=O)c1cccc(-c2cc[n-]c(=Nc3ccc4c(c3)CCN(S(C)(=O)=O)CC4)n2)c1 (protonated)
COCC[N-]C(=O)c1cccc(-c2cc[n-]c(=Nc3ccc4c(c3)CCN(S(C)(=O)=O)CC4)n2)c1 (3D coordinates assigned)
COCC[N-]C(=O)c1cccc(-c2cc[n-]c(=Nc3ccc4c(c3)CCN(S(C)(=O)=O)CC4)n2)c1 (nonaromatic ring conformer: 90.33037079535596 kcal/mol)

>  <smiles>  (84) 
COCCNC(=O)c1cccc(-c2cc[nH]c(=Nc3ccc4c(c3)CCN(S(C)(=O)=O)CC4)n2)c1

>  <score_type>  (84) 
oracle

>  <origin>  (84) 
adg

>  <m_score__min__energy>  (84) 
-12.050000000000001

>  <m_primary>  (84) 
energy

$$$$
84:0
     RDKit          3D

 53 55  0  0  0  0  0  0  0  0999 V2000
   62.5980   31.0230   51.0150 C   0  0  0  0  0  0  0  0  0  0  0  0
   61.4840   30.1510   50.8520 O   0  0  0  0  0  0  0  0  0  0  0  0
   60.1440   30.5250   51.0360 C   0  0  0  0  0  0  0  0  0  0  0  0
   59.3960   30.0990   52.1510 C   0  0  0  0  0  0  0  0  0  0  0  0
   58.0590   30.4760   52.2880 C   0  0  0  0  0  0  0  0  0  0  0  0
   57.4550   31.2800   51.3200 C   0  0  0  0  0  0  0  0  0  0  0  0
   58.1870   31.7110   50.2120 C   0  0  0  0  0  0  0  0  0  0  0  0
   59.5330   31.3410   50.0670 C   0  0  0  0  0  0  0  0  0  0  0  0
   60.2800   31.7840   48.9240 N   0  0  0  0  0  0  0  0  0  0  0  0
   60.7670   30.8240   47.9260 C   0  0  0  0  0  0  0  0  0  0  0  0
   59.8030   29.6820   47.7280 C   0  0  0  0  0  0  0  0  0  0  0  0
   59.6850   28.8360   48.6570 O   0  0  0  0  0  0  0  0  0  0  0  0
   59.0100   29.5380   46.5290 N   0  0  0  0  0  0  0  0  0  0  0  0
   57.8670   28.6140   46.5450 C   0  0  0  0  0  0  0  0  0  0  0  0
   57.0280   28.7510   45.2720 C   0  0  0  0  0  0  0  0  0  0  0  0
   56.9130   30.1770   44.9280 N   0  0  0  0  0  0  0  0  0  0  0  0
   55.8950   30.3780   43.8850 C   0  0  0  0  0  0  0  0  0  0  0  0
   58.2140   30.7420   44.5000 C   0  0  0  0  0  0  0  0  0  0  0  0
   59.4170   30.1270   45.2450 C   0  0  0  0  0  0  0  0  0  0  0  0
   60.2300   33.4710   48.5000 S   0  0  0  0  0  0  0  0  0  0  0  0
   61.6190   33.9620   48.1900 O   0  0  0  0  0  0  0  0  0  0  0  0
   59.7030   34.2650   49.6620 O   0  0  0  0  0  0  0  0  0  0  0  0
   59.1990   33.7110   47.0940 C   0  0  0  0  0  0  0  0  0  0  0  0
   59.6770   34.4260   45.9840 C   0  0  0  0  0  0  0  0  0  0  0  0
   58.8390   34.6750   44.8940 C   0  0  0  0  0  0  0  0  0  0  0  0
   57.5210   34.2110   44.9040 C   0  0  0  0  0  0  0  0  0  0  0  0
   57.0410   33.4920   46.0020 C   0  0  0  0  0  0  0  0  0  0  0  0
   57.8780   33.2400   47.0940 C   0  0  0  0  0  0  0  0  0  0  0  0
   62.7914   31.1744   52.0872 H   0  0  0  0  0  0  0  0  0  0  0  0
   63.4852   30.5769   50.5418 H   0  0  0  0  0  0  0  0  0  0  0  0
   62.3780   31.9913   50.5418 H   0  0  0  0  0  0  0  0  0  0  0  0
   59.8677   29.4663   52.9173 H   0  0  0  0  0  0  0  0  0  0  0  0
   57.4802   30.1388   53.1605 H   0  0  0  0  0  0  0  0  0  0  0  0
   56.4009   31.5744   51.4303 H   0  0  0  0  0  0  0  0  0  0  0  0
   57.7071   32.3428   49.4501 H   0  0  0  0  0  0  0  0  0  0  0  0
   60.9023   31.3456   46.9670 H   0  0  0  0  0  0  0  0  0  0  0  0
   61.7186   30.4081   48.2886 H   0  0  0  0  0  0  0  0  0  0  0  0
   58.2406   27.5821   46.6194 H   0  0  0  0  0  0  0  0  0  0  0  0
   57.2322   28.8594   47.4092 H   0  0  0  0  0  0  0  0  0  0  0  0
   57.5166   28.2106   44.4478 H   0  0  0  0  0  0  0  0  0  0  0  0
   56.0272   28.3258   45.4378 H   0  0  0  0  0  0  0  0  0  0  0  0
   54.9200   30.5705   44.3565 H   0  0  0  0  0  0  0  0  0  0  0  0
   56.1759   31.2380   43.2593 H   0  0  0  0  0  0  0  0  0  0  0  0
   55.8280   29.4758   43.2593 H   0  0  0  0  0  0  0  0  0  0  0  0
   58.3381   30.5574   43.4227 H   0  0  0  0  0  0  0  0  0  0  0  0
   58.1976   31.8164   44.7353 H   0  0  0  0  0  0  0  0  0  0  0  0
   59.8634   29.3420   44.6169 H   0  0  0  0  0  0  0  0  0  0  0  0
   60.1445   30.9271   45.4468 H   0  0  0  0  0  0  0  0  0  0  0  0
   60.7145   34.7913   45.9725 H   0  0  0  0  0  0  0  0  0  0  0  0
   59.2172   35.2368   44.0272 H   0  0  0  0  0  0  0  0  0  0  0  0
   56.8610   34.4118   44.0472 H   0  0  0  0  0  0  0  0  0  0  0  0
   56.0044   33.1240   46.0075 H   0  0  0  0  0  0  0  0  0  0  0  0
   57.4989   32.6706   47.9555 H   0  0  0  0  0  0  0  0  0  0  0  0
  1  2  1  0
  2  3  1  0
  3  4  2  0
  4  5  1  0
  5  6  2  0
  6  7  1  0
  7  8  2  0
  8  9  1  0
  9 10  1  0
 10 11  1  0
 11 12  2  0
 11 13  1  0
 13 14  1  0
 14 15  1  0
 15 16  1  0
 16 17  1  0
 16 18  1  0
 18 19  1  0
  9 20  1  0
 20 21  2  0
 20 22  2  0
 20 23  1  0
 23 24  2  0
 24 25  1  0
 25 26  2  0
 26 27  1  0
 27 28  2  0
  8  3  1  0
 19 13  1  0
 28 23  1  0
  1 29  1  0
  1 30  1  0
  1 31  1  0
  4 32  1  0
  5 33  1  0
  6 34  1  0
  7 35  1  0
 10 36  1  0
 10 37  1  0
 14 38  1  0
 14 39  1  0
 15 40  1  0
 15 41  1  0
 17 42  1  0
 17 43  1  0
 17 44  1  0
 18 45  1  0
 18 46  1  0
 19 47  1  0
 19 48  1  0
 24 49  1  0
 25 50  1  0
 26 51  1  0
 27 52  1  0
 28 53  1  0
M  END
>  <UniqueID>  (85) 
78

>  <SMILES>  (85) 
COc1ccccc1N(CC(=O)N1CCN(C)CC1)S(=O)(=O)c1ccccc1

>  <Energy>  (85) 
61.22980516203753

>  <Genealogy>  (85) 
COc1ccccc1N(CC(=O)N1CCN(C)CC1)S(=O)(=O)c1ccccc1 (3D coordinates assigned)
COc1ccccc1N(CC(=O)N1CCN(C)CC1)S(=O)(=O)c1ccccc1 (nonaromatic ring conformer: 61.22980516203753 kcal/mol)

>  <smiles>  (85) 
COc1ccccc1N(CC(=O)N1CCN(C)CC1)S(=O)(=O)c1ccccc1

>  <score_type>  (85) 
oracle

>  <origin>  (85) 
adg

>  <m_score__min__energy>  (85) 
-8.0999999999999996

>  <m_primary>  (85) 
energy

$$$$
85:0
     RDKit          3D

 44 46  0  0  0  0  0  0  0  0999 V2000
   61.2836   26.1796   48.1976 H   0  0  0  0  0  0  0  0  0  0  0  0
   60.7470   27.1130   47.9720 C   0  0  0  0  0  0  0  0  0  0  0  0
   60.7240   28.1860   48.9820 C   0  0  0  0  0  0  0  0  0  0  0  0
   60.5150   27.9200   50.1970 O   0  0  0  0  0  0  0  0  0  0  0  0
   60.9500   29.5360   48.5760 N   0  0  0  0  0  0  0  0  0  0  0  0
   61.7610   30.6850   49.5880 S   0  0  0  0  0  0  0  0  0  0  0  0
   62.7230   29.9740   50.4960 O   0  0  0  0  0  0  0  0  0  0  0  0
   60.7440   31.3990   50.4300 O   0  0  0  0  0  0  0  0  0  0  0  0
   62.6210   31.8610   48.6100 C   0  0  0  0  0  0  0  0  0  0  0  0
   62.9810   33.4310   49.0800 S   0  0  0  0  0  0  0  0  0  0  0  0
   63.7300   33.8760   47.6470 C   0  0  0  0  0  0  0  0  0  0  0  0
   64.1763   34.8579   47.4310 H   0  0  0  0  0  0  0  0  0  0  0  0
   63.6900   32.7920   46.7800 C   0  0  0  0  0  0  0  0  0  0  0  0
   64.1100   32.8204   45.7637 H   0  0  0  0  0  0  0  0  0  0  0  0
   63.0670   31.6610   47.3170 C   0  0  0  0  0  0  0  0  0  0  0  0
   62.9451   30.7146   46.7697 H   0  0  0  0  0  0  0  0  0  0  0  0
   60.1340   27.2400   46.7870 C   0  0  0  0  0  0  0  0  0  0  0  0
   60.7379   27.5719   45.9296 H   0  0  0  0  0  0  0  0  0  0  0  0
   58.6910   26.9620   46.5540 C   0  0  0  0  0  0  0  0  0  0  0  0
   58.0170   25.9160   47.2100 C   0  0  0  0  0  0  0  0  0  0  0  0
   58.5713   25.2517   47.8893 H   0  0  0  0  0  0  0  0  0  0  0  0
   56.6470   25.7130   47.0060 C   0  0  0  0  0  0  0  0  0  0  0  0
   56.1336   24.8885   47.5223 H   0  0  0  0  0  0  0  0  0  0  0  0
   55.9310   26.5480   46.1540 C   0  0  0  0  0  0  0  0  0  0  0  0
   54.5700   26.3380   45.9510 O   0  0  0  0  0  0  0  0  0  0  0  0
   56.5790   27.5980   45.5090 C   0  0  0  0  0  0  0  0  0  0  0  0
   56.0119   28.2622   44.8403 H   0  0  0  0  0  0  0  0  0  0  0  0
   57.9520   27.8140   45.7070 C   0  0  0  0  0  0  0  0  0  0  0  0
   58.5890   28.8700   45.0480 O   0  0  0  0  0  0  0  0  0  0  0  0
   58.4870   30.2030   45.4840 C   0  0  0  0  0  0  0  0  0  0  0  0
   57.4360   30.8770   45.2590 O   0  0  0  0  0  0  0  0  0  0  0  0
   59.5520   30.7510   46.2770 N   0  0  0  0  0  0  0  0  0  0  0  0
   60.3290   30.0980   46.5410 H   0  0  0  0  0  0  0  0  0  0  0  0
   59.5230   32.0570   46.8820 C   0  0  0  0  0  0  0  0  0  0  0  0
   60.0270   33.1920   46.2140 C   0  0  0  0  0  0  0  0  0  0  0  0
   60.4503   33.0900   45.2038 H   0  0  0  0  0  0  0  0  0  0  0  0
   59.9910   34.4460   46.8300 C   0  0  0  0  0  0  0  0  0  0  0  0
   60.3777   35.3285   46.2993 H   0  0  0  0  0  0  0  0  0  0  0  0
   59.4650   34.5830   48.1190 C   0  0  0  0  0  0  0  0  0  0  0  0
   59.4404   35.5715   48.6010 H   0  0  0  0  0  0  0  0  0  0  0  0
   58.9710   33.4640   48.7940 C   0  0  0  0  0  0  0  0  0  0  0  0
   58.5516   33.5733   49.8050 H   0  0  0  0  0  0  0  0  0  0  0  0
   59.0090   32.2030   48.1850 C   0  0  0  0  0  0  0  0  0  0  0  0
   58.5200   31.1300   48.8530 F   0  0  0  0  0  0  0  0  0  0  0  0
  1  2  1  0
  2  3  1  0
  3  4  2  0
  3  5  1  0
  5  6  1  0
  6  7  2  0
  6  8  2  0
  6  9  1  0
  9 10  1  0
 10 11  1  0
 11 12  1  0
 11 13  2  0
 13 14  1  0
 13 15  1  0
 15 16  1  0
  2 17  2  0
 17 18  1  0
 17 19  1  0
 19 20  2  0
 20 21  1  0
 20 22  1  0
 22 23  1  0
 22 24  2  0
 24 25  1  0
 24 26  1  0
 26 27  1  0
 26 28  2  0
 28 29  1  0
 29 30  1  0
 30 31  2  0
 30 32  1  0
 32 33  1  0
 32 34  1  0
 34 35  2  0
 35 36  1  0
 35 37  1  0
 37 38  1  0
 37 39  2  0
 39 40  1  0
 39 41  1  0
 41 42  1  0
 41 43  2  0
 43 44  1  0
 15  9  2  0
 28 19  1  0
 43 34  1  0
M  CHG  2   5  -1  25  -1
M  END
>  <UniqueID>  (86) 
79

>  <SMILES>  (86) 
O=C(/C=C/c1ccc([O-])cc1OC(=O)Nc1ccccc1F)[N-]S(=O)(=O)c1cccs1

>  <Energy>  (86) 
88.00269497999571

>  <Genealogy>  (86) 
O=C(C=Cc1ccc([O-])cc1OC(=O)Nc1ccccc1F)[N-]S(=O)(=O)c1cccs1 (protonated)
O=C(/C=C/c1ccc([O-])cc1OC(=O)Nc1ccccc1F)[N-]S(=O)(=O)c1cccs1 (cis-trans isomerization)
O=C(/C=C/c1ccc([O-])cc1OC(=O)Nc1ccccc1F)[N-]S(=O)(=O)c1cccs1 (3D coordinates assigned)
O=C(/C=C/c1ccc([O-])cc1OC(=O)Nc1ccccc1F)[N-]S(=O)(=O)c1cccs1 (optimized conformer: 88.00269497999571 kcal/mol)

>  <smiles>  (86) 
O=C(C=Cc1ccc(O)cc1OC(=O)Nc1ccccc1F)NS(=O)(=O)c1cccs1

>  <score_type>  (86) 
oracle

>  <origin>  (86) 
adg

>  <m_score__min__energy>  (86) 
-12.449999999999999

>  <m_primary>  (86) 
energy

$$$$
86:0
     RDKit          3D

 49 52  0  0  1  0  0  0  0  0999 V2000
   59.7000   33.7540   49.9050 C   0  0  0  0  0  0  0  0  0  0  0  0
   59.1290   33.1910   48.7610 O   0  0  0  0  0  0  0  0  0  0  0  0
   59.1040   33.7990   47.5120 C   0  0  0  0  0  0  0  0  0  0  0  0
   59.7180   35.0100   47.2520 C   0  0  0  0  0  0  0  0  0  0  0  0
   59.6560   35.5640   45.9820 C   0  0  0  0  0  0  0  0  0  0  0  0
   58.9890   34.9420   44.9360 C   0  0  0  0  0  0  0  0  0  0  0  0
   58.3790   33.7280   45.2140 C   0  0  0  0  0  0  0  0  0  0  0  0
   58.4340   33.1680   46.4770 C   0  0  0  0  0  0  0  0  0  0  0  0
   57.7700   31.9150   46.6480 N   0  0  0  0  0  0  0  0  0  0  0  0
   58.4210   30.8060   46.7210 C   0  0  0  0  0  0  0  0  0  0  0  0
   59.2480   30.6120   47.7490 N   0  0  0  0  0  0  0  0  0  0  0  0
   59.9190   29.4410   47.7960 C   0  0  0  0  0  0  0  0  0  0  0  0
   61.0650   29.0330   49.1000 S   0  0  0  0  0  0  0  0  0  0  0  0
   61.4540   30.4780   50.1240 C   0  0  0  0  0  0  0  0  0  0  0  0
   62.3170   31.3870   49.3300 C   0  0  0  0  0  0  0  0  0  0  0  0
   61.9040   31.7310   48.0390 C   0  0  0  0  0  0  0  0  0  0  0  0
   62.6240   32.5630   47.2250 C   0  0  0  0  0  0  0  0  0  0  0  0
   63.8220   33.0860   47.7150 C   0  0  0  0  0  0  0  0  0  0  0  0
   64.2610   32.7630   48.9980 C   0  0  0  0  0  0  0  0  0  0  0  0
   63.5030   31.9080   49.8090 C   0  0  0  0  0  0  0  0  0  0  0  0
   63.9200   31.5930   51.0470 F   0  0  0  0  0  0  0  0  0  0  0  0
   59.7320   28.5310   46.8250 N   0  0  0  0  0  0  0  0  0  0  0  0
   58.9150   28.7020   45.7940 C   0  0  0  0  0  0  0  0  0  0  0  0
   58.7630   27.7630   44.8490 N   0  0  0  0  0  0  0  0  0  0  0  0
   57.9180   28.0160   43.8380 C   0  0  0  0  0  0  0  0  0  0  0  0
   57.7760   27.1480   42.9620 O   0  0  0  0  0  0  0  0  0  0  0  0
   57.2200   29.1520   43.7270 N   0  0  0  0  0  0  0  0  0  0  0  0
   56.3150   29.3720   42.6020 C   0  0  0  0  0  0  0  0  0  0  0  0
   57.3470   30.1300   44.6670 C   0  0  0  0  0  0  0  0  0  0  0  0
   56.7070   31.2110   44.5950 O   0  0  0  0  0  0  0  0  0  0  0  0
   58.2130   29.8840   45.7100 C   0  0  0  0  0  0  0  0  0  0  0  0
   59.2451   33.3055   50.8005 H   0  0  0  0  0  0  0  0  0  0  0  0
   60.7828   33.5603   49.9076 H   0  0  0  0  0  0  0  0  0  0  0  0
   59.5216   34.8394   49.9076 H   0  0  0  0  0  0  0  0  0  0  0  0
   60.2570   35.5354   48.0542 H   0  0  0  0  0  0  0  0  0  0  0  0
   60.1520   36.5284   45.7978 H   0  0  0  0  0  0  0  0  0  0  0  0
   58.9461   35.3911   43.9328 H   0  0  0  0  0  0  0  0  0  0  0  0
   57.8404   33.1998   44.4134 H   0  0  0  0  0  0  0  0  0  0  0  0
   59.4150   31.2990   48.5150 H   0  0  0  0  0  0  0  0  0  0  0  0
   60.5255   30.9965   50.4052 H   0  0  0  0  0  0  0  0  0  0  0  0
   61.9728   30.1657   51.0423 H   0  0  0  0  0  0  0  0  0  0  0  0
   60.9587   31.3145   47.6610 H   0  0  0  0  0  0  0  0  0  0  0  0
   62.2690   32.8123   46.2141 H   0  0  0  0  0  0  0  0  0  0  0  0
   64.4235   33.7574   47.0845 H   0  0  0  0  0  0  0  0  0  0  0  0
   65.2060   33.1809   49.3752 H   0  0  0  0  0  0  0  0  0  0  0  0
   59.3100   26.8560   44.9230 H   0  0  0  0  0  0  0  0  0  0  0  0
   55.3115   29.6159   42.9809 H   0  0  0  0  0  0  0  0  0  0  0  0
   56.6881   30.2056   41.9889 H   0  0  0  0  0  0  0  0  0  0  0  0
   56.2638   28.4602   41.9889 H   0  0  0  0  0  0  0  0  0  0  0  0
  1  2  1  0
  2  3  1  0
  3  4  2  0
  4  5  1  0
  5  6  2  0
  6  7  1  0
  7  8  2  0
  8  9  1  0
  9 10  2  0
 10 11  1  0
 11 12  1  0
 12 13  1  0
 13 14  1  0
 14 15  1  0
 15 16  2  0
 16 17  1  0
 17 18  2  0
 18 19  1  0
 19 20  2  0
 20 21  1  0
 12 22  2  0
 22 23  1  0
 23 24  1  0
 24 25  1  0
 25 26  2  0
 25 27  1  0
 27 28  1  0
 27 29  1  0
 29 30  2  0
 29 31  1  0
  8  3  1  0
 31 10  1  0
 20 15  1  0
 31 23  2  0
  1 32  1  0
  1 33  1  0
  1 34  1  0
  4 35  1  0
  5 36  1  0
  6 37  1  0
  7 38  1  0
 11 39  1  0
 14 40  1  0
 14 41  1  0
 16 42  1  0
 17 43  1  0
 18 44  1  0
 19 45  1  0
 24 46  1  0
 28 47  1  0
 28 48  1  0
 28 49  1  0
M  END
>  <smiles>  (87) 
COc1ccccc1N=c1[nH]c(SCc2ccccc2F)nc2[nH]c(=O)n(C)c(=O)c12

>  <score_type>  (87) 
oracle

>  <origin>  (87) 
adg

>  <m_score__min__energy>  (87) 
-8.9399999999999995

>  <m_primary>  (87) 
energy

$$$$
87:0
     RDKit          3D

 51 54  0  0  0  0  0  0  0  0999 V2000
   57.6091   22.4826   44.5126 H   0  0  0  0  0  0  0  0  0  0  0  0
   57.0400   23.3640   44.8430 C   0  0  0  0  0  0  0  0  0  0  0  0
   57.5300   24.6110   44.6190 N   0  0  0  0  0  0  0  0  0  0  0  0
   56.8730   25.7390   45.0070 C   0  0  0  0  0  0  0  0  0  0  0  0
   57.4370   26.8880   44.7510 N   0  0  0  0  0  0  0  0  0  0  0  0
   57.5880   28.0120   45.6250 C   0  0  0  0  0  0  0  0  0  0  0  0
   56.9210   29.0560   45.3980 O   0  0  0  0  0  0  0  0  0  0  0  0
   58.5330   27.9640   46.7090 N   0  0  0  0  0  0  0  0  0  0  0  0
   58.9950   27.0480   46.9090 H   0  0  0  0  0  0  0  0  0  0  0  0
   58.7870   29.0550   47.6090 C   0  0  0  0  0  0  0  0  0  0  0  0
   58.9160   30.3750   47.1460 C   0  0  0  0  0  0  0  0  0  0  0  0
   58.8016   30.5924   46.0738 H   0  0  0  0  0  0  0  0  0  0  0  0
   59.1890   31.4140   48.0410 C   0  0  0  0  0  0  0  0  0  0  0  0
   59.2921   32.4436   47.6677 H   0  0  0  0  0  0  0  0  0  0  0  0
   59.3320   31.1530   49.4090 C   0  0  0  0  0  0  0  0  0  0  0  0
   59.6330   32.2460   50.2890 N   0  0  0  0  0  0  0  0  0  0  0  0
   60.9330   32.7790   50.5760 C   0  0  0  0  0  0  0  0  0  0  0  0
   61.5260   32.4580   51.6420 O   0  0  0  0  0  0  0  0  0  0  0  0
   61.5310   33.7290   49.6700 N   0  0  0  0  0  0  0  0  0  0  0  0
   60.9050   33.9820   48.4020 C   0  0  0  0  0  0  0  0  0  0  0  0
   59.6750   34.6620   48.3790 C   0  0  0  0  0  0  0  0  0  0  0  0
   59.2182   34.9932   49.3233 H   0  0  0  0  0  0  0  0  0  0  0  0
   59.0280   34.9210   47.1710 C   0  0  0  0  0  0  0  0  0  0  0  0
   58.0642   35.4511   47.1654 H   0  0  0  0  0  0  0  0  0  0  0  0
   59.6030   34.5080   45.9720 C   0  0  0  0  0  0  0  0  0  0  0  0
   59.0946   34.7161   45.0190 H   0  0  0  0  0  0  0  0  0  0  0  0
   60.8240   33.8300   45.9770 C   0  0  0  0  0  0  0  0  0  0  0  0
   61.2736   33.5164   45.0233 H   0  0  0  0  0  0  0  0  0  0  0  0
   61.4880   33.5420   47.1850 C   0  0  0  0  0  0  0  0  0  0  0  0
   62.8440   32.8570   47.0900 C   0  0  0  0  0  0  0  0  0  0  0  0
   63.1019   32.7843   46.0231 H   0  0  0  0  0  0  0  0  0  0  0  0
   62.7086   31.8968   47.6093 H   0  0  0  0  0  0  0  0  0  0  0  0
   64.0330   33.5250   47.8070 C   0  0  0  0  0  0  0  0  0  0  0  0
   64.0393   34.5944   47.5494 H   0  0  0  0  0  0  0  0  0  0  0  0
   64.9453   33.0107   47.4706 H   0  0  0  0  0  0  0  0  0  0  0  0
   63.9760   33.3930   49.3360 C   0  0  0  0  0  0  0  0  0  0  0  0
   64.9452   33.6967   49.7585 H   0  0  0  0  0  0  0  0  0  0  0  0
   63.7542   32.3451   49.5865 H   0  0  0  0  0  0  0  0  0  0  0  0
   62.8720   34.2780   49.9300 C   0  0  0  0  0  0  0  0  0  0  0  0
   62.9394   35.2802   49.4816 H   0  0  0  0  0  0  0  0  0  0  0  0
   63.0180   34.3212   51.0194 H   0  0  0  0  0  0  0  0  0  0  0  0
   59.2510   29.8270   49.8670 C   0  0  0  0  0  0  0  0  0  0  0  0
   59.4006   29.6061   50.9342 H   0  0  0  0  0  0  0  0  0  0  0  0
   58.9810   28.7870   48.9720 C   0  0  0  0  0  0  0  0  0  0  0  0
   58.9204   27.7519   49.3394 H   0  0  0  0  0  0  0  0  0  0  0  0
   55.6050   25.6080   45.6340 C   0  0  0  0  0  0  0  0  0  0  0  0
   54.8220   26.7060   45.9700 O   0  0  0  0  0  0  0  0  0  0  0  0
   55.0990   24.3280   45.8840 C   0  0  0  0  0  0  0  0  0  0  0  0
   54.1307   24.2114   46.3927 H   0  0  0  0  0  0  0  0  0  0  0  0
   55.8170   23.2000   45.4910 C   0  0  0  0  0  0  0  0  0  0  0  0
   55.4232   22.1923   45.6899 H   0  0  0  0  0  0  0  0  0  0  0  0
  1  2  1  0
  2  3  1  0
  3  4  1  0
  4  5  2  0
  5  6  1  0
  6  7  2  0
  6  8  1  0
  8  9  1  0
  8 10  1  0
 10 11  2  0
 11 12  1  0
 11 13  1  0
 13 14  1  0
 13 15  2  0
 15 16  1  0
 16 17  1  0
 17 18  2  0
 17 19  1  0
 19 20  1  0
 20 21  2  0
 21 22  1  0
 21 23  1  0
 23 24  1  0
 23 25  2  0
 25 26  1  0
 25 27  1  0
 27 28  1  0
 27 29  2  0
 29 30  1  0
 30 31  1  0
 30 32  1  0
 30 33  1  0
 33 34  1  0
 33 35  1  0
 33 36  1  0
 36 37  1  0
 36 38  1  0
 36 39  1  0
 39 40  1  0
 39 41  1  0
 15 42  1  0
 42 43  1  0
 42 44  2  0
 44 45  1  0
  4 46  1  0
 46 47  1  0
 46 48  2  0
 48 49  1  0
 48 50  1  0
 50 51  1  0
 50  2  2  0
 44 10  1  0
 39 19  1  0
 29 20  1  0
M  CHG  3   3  -1  16  -1  47  -1
M  END
>  <UniqueID>  (88) 
80

>  <SMILES>  (88) 
O=C(/N=c1/[n-]cccc1[O-])Nc1ccc([N-]C(=O)N2CCCCc3ccccc32)cc1

>  <Energy>  (88) 
88.41901397322785

>  <Genealogy>  (88) 
O=C(N=c1[n-]cccc1[O-])Nc1ccc([N-]C(=O)N2CCCCc3ccccc32)cc1 (protonated)
O=C(/N=c1/[n-]cccc1[O-])Nc1ccc([N-]C(=O)N2CCCCc3ccccc32)cc1 (cis-trans isomerization)
O=C(/N=c1/[n-]cccc1[O-])Nc1ccc([N-]C(=O)N2CCCCc3ccccc32)cc1 (3D coordinates assigned)
O=C(/N=c1/[n-]cccc1[O-])Nc1ccc([N-]C(=O)N2CCCCc3ccccc32)cc1 (nonaromatic ring conformer: 88.41901397322785 kcal/mol)

>  <smiles>  (88) 
O=C(N=c1[nH]cccc1O)Nc1ccc(NC(=O)N2CCCCc3ccccc32)cc1

>  <score_type>  (88) 
oracle

>  <origin>  (88) 
adg

>  <m_score__min__energy>  (88) 
-12.380000000000001

>  <m_primary>  (88) 
energy

$$$$
88:0
     RDKit          3D

 72 75  0  0  0  0  0  0  0  0999 V2000
   59.0450   29.6470   48.8160 C   0  0  0  0  0  0  0  0  0  0  0  0
   59.6930   31.0190   48.7180 C   0  0  0  0  0  0  0  0  0  0  0  0
   58.7090   31.9850   48.3480 O   0  0  0  0  0  0  0  0  0  0  0  0
   58.2790   32.2200   47.0320 C   0  0  0  0  0  0  0  0  0  0  0  0
   57.8630   31.1730   46.1860 C   0  0  0  0  0  0  0  0  0  0  0  0
   57.4380   31.4330   44.8760 C   0  0  0  0  0  0  0  0  0  0  0  0
   56.9380   30.1030   43.8320 S   0  0  0  0  0  0  0  0  0  0  0  0
   56.6690   30.6100   42.4420 O   0  0  0  0  0  0  0  0  0  0  0  0
   55.6700   29.5060   44.3680 O   0  0  0  0  0  0  0  0  0  0  0  0
   58.2000   28.9160   43.7460 N   0  0  0  0  0  0  0  0  0  0  0  0
   58.3160   27.8580   44.7100 C   0  0  0  0  0  0  0  0  0  0  0  0
   57.2380   26.9890   44.9340 C   0  0  0  0  0  0  0  0  0  0  0  0
   57.3130   25.9930   45.9160 C   0  0  0  0  0  0  0  0  0  0  0  0
   55.9190   24.9560   46.2050 S   0  0  0  0  0  0  0  0  0  0  0  0
   54.6450   25.7210   45.9690 O   0  0  0  0  0  0  0  0  0  0  0  0
   55.9510   24.4840   47.6300 O   0  0  0  0  0  0  0  0  0  0  0  0
   55.9960   23.5850   45.1250 N   0  0  0  0  0  0  0  0  0  0  0  0
   57.2560   22.8540   45.3270 C   0  0  0  0  0  0  0  0  0  0  0  0
   57.3430   21.6550   44.3600 C   0  0  0  0  0  0  0  0  0  0  0  0
   56.3110   21.6680   43.3890 O   0  0  0  0  0  0  0  0  0  0  0  0
   56.2840   22.9270   42.7450 C   0  0  0  0  0  0  0  0  0  0  0  0
   55.8750   24.0390   43.7290 C   0  0  0  0  0  0  0  0  0  0  0  0
   58.4910   25.8400   46.6610 C   0  0  0  0  0  0  0  0  0  0  0  0
   59.5810   26.6820   46.4280 C   0  0  0  0  0  0  0  0  0  0  0  0
   59.5030   27.6980   45.4610 C   0  0  0  0  0  0  0  0  0  0  0  0
   60.6880   28.6000   45.2430 C   0  0  0  0  0  0  0  0  0  0  0  0
   57.4070   32.7560   44.4110 C   0  0  0  0  0  0  0  0  0  0  0  0
   57.7970   33.8000   45.2450 C   0  0  0  0  0  0  0  0  0  0  0  0
   58.2470   33.5420   46.5470 C   0  0  0  0  0  0  0  0  0  0  0  0
   58.6760   34.6270   47.3240 O   0  0  0  0  0  0  0  0  0  0  0  0
   60.0450   34.9890   47.4960 C   0  0  0  0  0  0  0  0  0  0  0  0
   60.6000   34.2870   48.6950 C   0  0  0  0  0  0  0  0  0  0  0  0
   59.8980   34.2140   49.7410 O   0  0  0  0  0  0  0  0  0  0  0  0
   61.9380   33.7680   48.7060 N   0  0  0  0  0  0  0  0  0  0  0  0
   62.3970   32.9090   47.6060 C   0  0  0  0  0  0  0  0  0  0  0  0
   63.5650   32.0380   48.0590 C   0  0  0  0  0  0  0  0  0  0  0  0
   64.5650   32.8410   48.6480 O   0  0  0  0  0  0  0  0  0  0  0  0
   64.1030   33.3300   49.8930 C   0  0  0  0  0  0  0  0  0  0  0  0
   62.8670   34.2440   49.7440 C   0  0  0  0  0  0  0  0  0  0  0  0
   58.9173   29.3766   49.8746 H   0  0  0  0  0  0  0  0  0  0  0  0
   58.0623   29.6695   48.3222 H   0  0  0  0  0  0  0  0  0  0  0  0
   59.6866   28.9023   48.3222 H   0  0  0  0  0  0  0  0  0  0  0  0
   60.1253   31.2907   49.6923 H   0  0  0  0  0  0  0  0  0  0  0  0
   60.4877   30.9956   47.9578 H   0  0  0  0  0  0  0  0  0  0  0  0
   57.8719   30.1380   46.5585 H   0  0  0  0  0  0  0  0  0  0  0  0
   59.0230   29.1550   43.1480 H   0  0  0  0  0  0  0  0  0  0  0  0
   56.3233   27.0908   44.3316 H   0  0  0  0  0  0  0  0  0  0  0  0
   58.1021   23.5318   45.1410 H   0  0  0  0  0  0  0  0  0  0  0  0
   57.2906   22.4814   46.3614 H   0  0  0  0  0  0  0  0  0  0  0  0
   58.3139   21.6871   43.8440 H   0  0  0  0  0  0  0  0  0  0  0  0
   57.2326   20.7361   44.9545 H   0  0  0  0  0  0  0  0  0  0  0  0
   57.2848   23.1491   42.3463 H   0  0  0  0  0  0  0  0  0  0  0  0
   55.5456   22.8894   41.9305 H   0  0  0  0  0  0  0  0  0  0  0  0
   56.5284   24.9108   43.5772 H   0  0  0  0  0  0  0  0  0  0  0  0
   54.8246   24.3041   43.5384 H   0  0  0  0  0  0  0  0  0  0  0  0
   58.5569   25.0560   47.4298 H   0  0  0  0  0  0  0  0  0  0  0  0
   60.5073   26.5485   47.0060 H   0  0  0  0  0  0  0  0  0  0  0  0
   61.0962   28.9107   46.2160 H   0  0  0  0  0  0  0  0  0  0  0  0
   61.4609   28.0596   44.6768 H   0  0  0  0  0  0  0  0  0  0  0  0
   60.3729   29.4889   44.6768 H   0  0  0  0  0  0  0  0  0  0  0  0
   57.0736   32.9691   43.3846 H   0  0  0  0  0  0  0  0  0  0  0  0
   57.7516   34.8364   44.8791 H   0  0  0  0  0  0  0  0  0  0  0  0
   60.6165   34.6966   46.6028 H   0  0  0  0  0  0  0  0  0  0  0  0
   60.1211   36.0768   47.6403 H   0  0  0  0  0  0  0  0  0  0  0  0
   61.5681   32.2627   47.2815 H   0  0  0  0  0  0  0  0  0  0  0  0
   62.7303   33.5456   46.7732 H   0  0  0  0  0  0  0  0  0  0  0  0
   63.2074   31.3029   48.7951 H   0  0  0  0  0  0  0  0  0  0  0  0
   63.9869   31.5171   47.1868 H   0  0  0  0  0  0  0  0  0  0  0  0
   63.8353   32.4749   50.5311 H   0  0  0  0  0  0  0  0  0  0  0  0
   64.9110   33.9283   50.3393 H   0  0  0  0  0  0  0  0  0  0  0  0
   62.3346   34.2775   50.7060 H   0  0  0  0  0  0  0  0  0  0  0  0
   63.2218   35.2411   49.4443 H   0  0  0  0  0  0  0  0  0  0  0  0
  1  2  1  0
  2  3  1  0
  3  4  1  0
  4  5  2  0
  5  6  1  0
  6  7  1  0
  7  8  2  0
  7  9  2  0
  7 10  1  0
 10 11  1  0
 11 12  2  0
 12 13  1  0
 13 14  1  0
 14 15  2  0
 14 16  2  0
 14 17  1  0
 17 18  1  0
 18 19  1  0
 19 20  1  0
 20 21  1  0
 21 22  1  0
 13 23  2  0
 23 24  1  0
 24 25  2  0
 25 26  1  0
  6 27  2  0
 27 28  1  0
 28 29  2  0
 29 30  1  0
 30 31  1  0
 31 32  1  0
 32 33  2  0
 32 34  1  0
 34 35  1  0
 35 36  1  0
 36 37  1  0
 37 38  1  0
 38 39  1  0
 29  4  1  0
 39 34  1  0
 25 11  1  0
 22 17  1  0
  1 40  1  0
  1 41  1  0
  1 42  1  0
  2 43  1  0
  2 44  1  0
  5 45  1  0
 10 46  1  0
 12 47  1  0
 18 48  1  0
 18 49  1  0
 19 50  1  0
 19 51  1  0
 21 52  1  0
 21 53  1  0
 22 54  1  0
 22 55  1  0
 23 56  1  0
 24 57  1  0
 26 58  1  0
 26 59  1  0
 26 60  1  0
 27 61  1  0
 28 62  1  0
 31 63  1  0
 31 64  1  0
 35 65  1  0
 35 66  1  0
 36 67  1  0
 36 68  1  0
 38 69  1  0
 38 70  1  0
 39 71  1  0
 39 72  1  0
M  END
>  <UniqueID>  (89) 
81

>  <SMILES>  (89) 
CCOc1cc(S(=O)(=O)Nc2cc(S(=O)(=O)N3CCOCC3)ccc2C)ccc1OCC(=O)N1CCOCC1

>  <Energy>  (89) 
86.50215704997065

>  <Genealogy>  (89) 
CCOc1cc(S(=O)(=O)Nc2cc(S(=O)(=O)N3CCOCC3)ccc2C)ccc1OCC(=O)N1CCOCC1 (3D coordinates assigned)
CCOc1cc(S(=O)(=O)Nc2cc(S(=O)(=O)N3CCOCC3)ccc2C)ccc1OCC(=O)N1CCOCC1 (nonaromatic ring conformer: 86.50215704997065 kcal/mol)

>  <smiles>  (89) 
CCOc1cc(S(=O)(=O)Nc2cc(S(=O)(=O)N3CCOCC3)ccc2C)ccc1OCC(=O)N1CCOCC1

>  <score_type>  (89) 
oracle

>  <origin>  (89) 
adg

>  <m_score__min__energy>  (89) 
-11.65

>  <m_primary>  (89) 
energy

$$$$
89:0
     RDKit          3D

 40 42  0  0  0  0  0  0  0  0999 V2000
   55.5360   29.7980   44.8330 O   0  0  0  0  0  0  0  0  0  0  0  0
   56.7480   29.5970   45.1220 C   0  0  0  0  0  0  0  0  0  0  0  0
   57.8180   30.3530   44.4030 C   0  0  0  0  0  0  0  0  0  0  0  0
   57.9930   31.7000   45.0490 C   0  0  0  0  0  0  0  0  0  0  0  0
   58.5460   31.8000   46.3380 C   0  0  0  0  0  0  0  0  0  0  0  0
   58.7660   33.0550   46.9140 C   0  0  0  0  0  0  0  0  0  0  0  0
   58.4450   34.2180   46.2060 C   0  0  0  0  0  0  0  0  0  0  0  0
   57.9080   34.1270   44.9180 C   0  0  0  0  0  0  0  0  0  0  0  0
   57.6870   32.8730   44.3380 C   0  0  0  0  0  0  0  0  0  0  0  0
   57.0990   28.7110   46.1470 O   0  0  0  0  0  0  0  0  0  0  0  0
   57.4200   27.3660   45.9350 C   0  0  0  0  0  0  0  0  0  0  0  0
   58.7680   26.9980   45.8740 C   0  0  0  0  0  0  0  0  0  0  0  0
   59.1290   25.6640   45.6760 C   0  0  0  0  0  0  0  0  0  0  0  0
   58.1420   24.6830   45.5540 C   0  0  0  0  0  0  0  0  0  0  0  0
   56.7860   25.0290   45.6330 C   0  0  0  0  0  0  0  0  0  0  0  0
   55.5450   23.7770   45.5410 S   0  0  0  0  0  0  0  0  0  0  0  0
   55.2090   23.4780   44.1060 O   0  0  0  0  0  0  0  0  0  0  0  0
   54.2940   24.2670   46.2160 O   0  0  0  0  0  0  0  0  0  0  0  0
   56.1470   22.3260   46.2990 N   0  0  0  0  0  0  0  0  0  0  0  0
   56.0210   21.1490   45.6210 C   0  0  0  0  0  0  0  0  0  0  0  0
   56.5080   19.9620   46.1640 C   0  0  0  0  0  0  0  0  0  0  0  0
   57.1290   20.0090   47.4080 C   0  0  0  0  0  0  0  0  0  0  0  0
   57.5850   18.9570   47.9290 O   0  0  0  0  0  0  0  0  0  0  0  0
   57.2460   21.1920   48.0600 N   0  0  0  0  0  0  0  0  0  0  0  0
   56.7650   22.3440   47.5230 C   0  0  0  0  0  0  0  0  0  0  0  0
   56.9030   23.4190   48.1640 O   0  0  0  0  0  0  0  0  0  0  0  0
   56.4240   26.3720   45.8340 C   0  0  0  0  0  0  0  0  0  0  0  0
   55.0830   26.7140   45.9700 O   0  0  0  0  0  0  0  0  0  0  0  0
   58.7635   29.7935   44.4575 H   0  0  0  0  0  0  0  0  0  0  0  0
   57.5326   30.4837   43.3487 H   0  0  0  0  0  0  0  0  0  0  0  0
   58.8064   30.8879   46.8951 H   0  0  0  0  0  0  0  0  0  0  0  0
   59.1922   33.1279   47.9255 H   0  0  0  0  0  0  0  0  0  0  0  0
   58.6150   35.2043   46.6625 H   0  0  0  0  0  0  0  0  0  0  0  0
   57.6592   35.0420   44.3604 H   0  0  0  0  0  0  0  0  0  0  0  0
   57.2721   32.8050   43.3215 H   0  0  0  0  0  0  0  0  0  0  0  0
   59.5491   27.7649   45.9828 H   0  0  0  0  0  0  0  0  0  0  0  0
   60.1914   25.3852   45.6160 H   0  0  0  0  0  0  0  0  0  0  0  0
   58.4305   23.6335   45.3951 H   0  0  0  0  0  0  0  0  0  0  0  0
   55.5304   21.1370   44.6365 H   0  0  0  0  0  0  0  0  0  0  0  0
   56.4040   19.0104   45.6221 H   0  0  0  0  0  0  0  0  0  0  0  0
  1  2  2  0
  2  3  1  0
  3  4  1  0
  4  5  2  0
  5  6  1  0
  6  7  2  0
  7  8  1  0
  8  9  2  0
  2 10  1  0
 10 11  1  0
 11 12  2  0
 12 13  1  0
 13 14  2  0
 14 15  1  0
 15 16  1  0
 16 17  2  0
 16 18  2  0
 16 19  1  0
 19 20  1  0
 20 21  2  0
 21 22  1  0
 22 23  2  0
 22 24  1  0
 24 25  1  0
 25 26  2  0
 15 27  2  0
 27 28  1  0
  9  4  1  0
 27 11  1  0
 25 19  1  0
  3 29  1  0
  3 30  1  0
  5 31  1  0
  6 32  1  0
  7 33  1  0
  8 34  1  0
  9 35  1  0
 12 36  1  0
 13 37  1  0
 14 38  1  0
 20 39  1  0
 21 40  1  0
M  CHG  2  24  -1  28  -1
M  END
>  <UniqueID>  (90) 
82

>  <SMILES>  (90) 
O=C(Cc1ccccc1)Oc1cccc(S(=O)(=O)n2ccc(=O)[n-]c2=O)c1[O-]

>  <Energy>  (90) 
52.607063368800205

>  <Genealogy>  (90) 
O=C(Cc1ccccc1)Oc1cccc(S(=O)(=O)n2ccc(=O)[n-]c2=O)c1[O-] (protonated)
O=C(Cc1ccccc1)Oc1cccc(S(=O)(=O)n2ccc(=O)[n-]c2=O)c1[O-] (3D coordinates assigned)
O=C(Cc1ccccc1)Oc1cccc(S(=O)(=O)n2ccc(=O)[n-]c2=O)c1[O-] (optimized conformer: 52.607063368800205 kcal/mol)

>  <smiles>  (90) 
O=C(Cc1ccccc1)Oc1cccc(S(=O)(=O)n2ccc(=O)[nH]c2=O)c1O

>  <score_type>  (90) 
oracle

>  <origin>  (90) 
adg

>  <m_score__min__energy>  (90) 
-15.300000000000001

>  <m_primary>  (90) 
energy

$$$$
90:0
     RDKit          3D

 66 70  0  0  0  0  0  0  0  0999 V2000
   61.7190   33.7620   47.8390 C   0  0  0  0  0  0  0  0  0  0  0  0
   60.4320   33.0460   47.6040 C   0  0  0  0  0  0  0  0  0  0  0  0
   60.0980   32.4600   46.4800 O   0  0  0  0  0  0  0  0  0  0  0  0
   58.8990   31.9500   46.6550 C   0  0  0  0  0  0  0  0  0  0  0  0
   58.1500   31.2300   45.6070 C   0  0  0  0  0  0  0  0  0  0  0  0
   58.1410   31.7040   44.2860 C   0  0  0  0  0  0  0  0  0  0  0  0
   57.4040   31.0330   43.3040 C   0  0  0  0  0  0  0  0  0  0  0  0
   56.6650   29.8900   43.6320 C   0  0  0  0  0  0  0  0  0  0  0  0
   56.6460   29.4180   44.9470 C   0  0  0  0  0  0  0  0  0  0  0  0
   55.8820   28.2400   45.2480 N   0  0  0  0  0  0  0  0  0  0  0  0
   56.3560   27.0640   45.9240 C   0  0  0  0  0  0  0  0  0  0  0  0
   55.5440   26.1240   46.1510 O   0  0  0  0  0  0  0  0  0  0  0  0
   57.7520   26.9340   46.3900 C   0  0  0  0  0  0  0  0  0  0  0  0
   58.6770   26.1310   45.7000 C   0  0  0  0  0  0  0  0  0  0  0  0
   59.9850   26.0270   46.1790 C   0  0  0  0  0  0  0  0  0  0  0  0
   60.3600   26.7260   47.3270 C   0  0  0  0  0  0  0  0  0  0  0  0
   59.4250   27.5420   47.9670 C   0  0  0  0  0  0  0  0  0  0  0  0
   58.1570   27.6300   47.4890 N   0  0  0  0  0  0  0  0  0  0  0  0
   57.4130   30.0770   45.9280 C   0  0  0  0  0  0  0  0  0  0  0  0
   58.4100   32.1880   47.8920 N   0  0  0  0  0  0  0  0  0  0  0  0
   59.3880   32.8900   48.4910 C   0  0  0  0  0  0  0  0  0  0  0  0
   59.2950   33.4230   49.8900 C   0  0  0  0  0  0  0  0  0  0  0  0
   58.2470   32.7270   50.6380 N   0  0  0  0  0  0  0  0  0  0  0  0
   58.5180   31.9900   51.8430 C   0  0  0  0  0  0  0  0  0  0  0  0
   59.7120   31.8550   52.2320 O   0  0  0  0  0  0  0  0  0  0  0  0
   57.4240   31.3540   52.6240 C   0  0  0  0  0  0  0  0  0  0  0  0
   57.5310   31.2480   54.0240 C   0  0  0  0  0  0  0  0  0  0  0  0
   56.5220   30.6360   54.7700 C   0  0  0  0  0  0  0  0  0  0  0  0
   55.3850   30.1340   54.1350 C   0  0  0  0  0  0  0  0  0  0  0  0
   55.2440   30.2480   52.7420 C   0  0  0  0  0  0  0  0  0  0  0  0
   54.0120   29.6960   52.0520 C   0  0  0  0  0  0  0  0  0  0  0  0
   53.0000   30.7230   51.7070 N   0  0  0  0  0  0  0  0  0  0  0  0
   52.2180   30.4040   50.5040 C   0  0  0  0  0  0  0  0  0  0  0  0
   51.3020   31.5920   50.1440 C   0  0  0  0  0  0  0  0  0  0  0  0
   51.3970   32.6460   51.0870 O   0  0  0  0  0  0  0  0  0  0  0  0
   51.0990   32.1600   52.3830 C   0  0  0  0  0  0  0  0  0  0  0  0
   52.1090   31.0780   52.8260 C   0  0  0  0  0  0  0  0  0  0  0  0
   56.2670   30.8580   51.9930 C   0  0  0  0  0  0  0  0  0  0  0  0
   61.8926   33.8586   48.9209 H   0  0  0  0  0  0  0  0  0  0  0  0
   62.5435   33.1929   47.3847 H   0  0  0  0  0  0  0  0  0  0  0  0
   61.6702   34.7626   47.3847 H   0  0  0  0  0  0  0  0  0  0  0  0
   58.7145   32.6048   44.0221 H   0  0  0  0  0  0  0  0  0  0  0  0
   57.4052   31.4054   42.2690 H   0  0  0  0  0  0  0  0  0  0  0  0
   56.0974   29.3617   42.8518 H   0  0  0  0  0  0  0  0  0  0  0  0
   58.3736   25.5898   44.7917 H   0  0  0  0  0  0  0  0  0  0  0  0
   60.7169   25.3963   45.6531 H   0  0  0  0  0  0  0  0  0  0  0  0
   61.3819   26.6351   47.7238 H   0  0  0  0  0  0  0  0  0  0  0  0
   59.7161   28.1146   48.8600 H   0  0  0  0  0  0  0  0  0  0  0  0
   57.4353   29.6852   46.9556 H   0  0  0  0  0  0  0  0  0  0  0  0
   60.2597   33.2761   50.3977 H   0  0  0  0  0  0  0  0  0  0  0  0
   59.0474   34.4939   49.8457 H   0  0  0  0  0  0  0  0  0  0  0  0
   57.3060   32.6650   50.1930 H   0  0  0  0  0  0  0  0  0  0  0  0
   58.4179   31.6512   54.5347 H   0  0  0  0  0  0  0  0  0  0  0  0
   56.6235   30.5492   55.8619 H   0  0  0  0  0  0  0  0  0  0  0  0
   54.5963   29.6473   54.7276 H   0  0  0  0  0  0  0  0  0  0  0  0
   54.3297   29.1986   51.1237 H   0  0  0  0  0  0  0  0  0  0  0  0
   53.5336   29.0053   52.7620 H   0  0  0  0  0  0  0  0  0  0  0  0
   52.9023   30.2040   49.6663 H   0  0  0  0  0  0  0  0  0  0  0  0
   51.5996   29.5154   50.6987 H   0  0  0  0  0  0  0  0  0  0  0  0
   51.5911   31.9750   49.1542 H   0  0  0  0  0  0  0  0  0  0  0  0
   50.2632   31.2301   50.1453 H   0  0  0  0  0  0  0  0  0  0  0  0
   51.1354   32.9968   53.0960 H   0  0  0  0  0  0  0  0  0  0  0  0
   50.0960   31.7088   52.3611 H   0  0  0  0  0  0  0  0  0  0  0  0
   52.7115   31.4640   53.6615 H   0  0  0  0  0  0  0  0  0  0  0  0
   51.5571   30.1809   53.1431 H   0  0  0  0  0  0  0  0  0  0  0  0
   56.1617   30.9485   50.9018 H   0  0  0  0  0  0  0  0  0  0  0  0
  1  2  1  0
  2  3  1  0
  3  4  1  0
  4  5  1  0
  5  6  2  0
  6  7  1  0
  7  8  2  0
  8  9  1  0
  9 10  1  0
 10 11  1  0
 11 12  2  0
 11 13  1  0
 13 14  2  0
 14 15  1  0
 15 16  2  0
 16 17  1  0
 17 18  2  0
  9 19  2  0
  4 20  2  0
 20 21  1  0
 21 22  1  0
 22 23  1  0
 23 24  1  0
 24 25  2  0
 24 26  1  0
 26 27  2  0
 27 28  1  0
 28 29  2  0
 29 30  1  0
 30 31  1  0
 31 32  1  0
 32 33  1  0
 33 34  1  0
 34 35  1  0
 35 36  1  0
 36 37  1  0
 30 38  2  0
 21  2  2  0
 38 26  1  0
 19  5  1  0
 37 32  1  0
 18 13  1  0
  1 39  1  0
  1 40  1  0
  1 41  1  0
  6 42  1  0
  7 43  1  0
  8 44  1  0
 14 45  1  0
 15 46  1  0
 16 47  1  0
 17 48  1  0
 19 49  1  0
 22 50  1  0
 22 51  1  0
 23 52  1  0
 27 53  1  0
 28 54  1  0
 29 55  1  0
 31 56  1  0
 31 57  1  0
 33 58  1  0
 33 59  1  0
 34 60  1  0
 34 61  1  0
 36 62  1  0
 36 63  1  0
 37 64  1  0
 37 65  1  0
 38 66  1  0
M  CHG  1  10  -1
M  END
>  <UniqueID>  (91) 
83

>  <SMILES>  (91) 
Cc1oc(-c2cccc([N-]C(=O)c3ccccn3)c2)nc1CNC(=O)c1cccc(CN2CCOCC2)c1

>  <Energy>  (91) 
117.97892776413731

>  <Genealogy>  (91) 
Cc1oc(-c2cccc([N-]C(=O)c3ccccn3)c2)nc1CNC(=O)c1cccc(CN2CCOCC2)c1 (protonated)
Cc1oc(-c2cccc([N-]C(=O)c3ccccn3)c2)nc1CNC(=O)c1cccc(CN2CCOCC2)c1 (3D coordinates assigned)
Cc1oc(-c2cccc([N-]C(=O)c3ccccn3)c2)nc1CNC(=O)c1cccc(CN2CCOCC2)c1 (nonaromatic ring conformer: 117.97892776413731 kcal/mol)

>  <smiles>  (91) 
Cc1oc(-c2cccc(NC(=O)c3ccccn3)c2)nc1CNC(=O)c1cccc(CN2CCOCC2)c1

>  <score_type>  (91) 
oracle

>  <origin>  (91) 
adg

>  <m_score__min__energy>  (91) 
-12.74

>  <m_primary>  (91) 
energy

$$$$
91:0
     RDKit          3D

 36 38  0  0  0  0  0  0  0  0999 V2000
   53.6590   26.5490   46.3790 H   0  0  0  0  0  0  0  0  0  0  0  0
   54.4460   25.9840   45.9860 N   0  0  0  0  0  0  0  0  0  0  0  0
   55.6630   26.4210   46.0000 C   0  0  0  0  0  0  0  0  0  0  0  0
   56.6760   25.5890   46.4080 N   0  0  0  0  0  0  0  0  0  0  0  0
   57.9750   26.0100   46.4320 C   0  0  0  0  0  0  0  0  0  0  0  0
   58.8940   25.2370   46.8110 O   0  0  0  0  0  0  0  0  0  0  0  0
   58.2410   27.3090   46.0270 C   0  0  0  0  0  0  0  0  0  0  0  0
   57.2280   28.1150   45.6240 C   0  0  0  0  0  0  0  0  0  0  0  0
   55.9370   27.7030   45.6040 N   0  0  0  0  0  0  0  0  0  0  0  0
   57.7120   29.3170   45.2660 N   0  0  0  0  0  0  0  0  0  0  0  0
   56.9720   30.4910   44.7940 C   0  0  0  0  0  0  0  0  0  0  0  0
   55.9293   30.2030   44.5945 H   0  0  0  0  0  0  0  0  0  0  0  0
   57.0144   31.2684   45.5710 H   0  0  0  0  0  0  0  0  0  0  0  0
   58.1520   32.2480   43.4260 C   0  0  0  0  0  0  0  0  0  0  0  0
   59.0130   32.3579   42.7503 H   0  0  0  0  0  0  0  0  0  0  0  0
   57.6910   33.4400   44.1650 C   0  0  0  0  0  0  0  0  0  0  0  0
   56.6287   33.7231   44.1293 H   0  0  0  0  0  0  0  0  0  0  0  0
   58.5470   34.1800   44.8770 C   0  0  0  0  0  0  0  0  0  0  0  0
   59.0157   35.0490   44.3921 H   0  0  0  0  0  0  0  0  0  0  0  0
   57.5820   31.0400   43.5310 C   0  0  0  0  0  0  0  0  0  0  0  0
   57.5579   30.4054   42.6328 H   0  0  0  0  0  0  0  0  0  0  0  0
   58.8960   33.8870   46.2890 C   0  0  0  0  0  0  0  0  0  0  0  0
   58.2480   32.8780   47.0300 C   0  0  0  0  0  0  0  0  0  0  0  0
   57.4605   32.2724   46.5576 H   0  0  0  0  0  0  0  0  0  0  0  0
   58.6010   32.6430   48.3620 C   0  0  0  0  0  0  0  0  0  0  0  0
   58.0977   31.8473   48.9309 H   0  0  0  0  0  0  0  0  0  0  0  0
   59.5910   33.4160   48.9720 C   0  0  0  0  0  0  0  0  0  0  0  0
   59.8707   33.2255   50.0187 H   0  0  0  0  0  0  0  0  0  0  0  0
   60.2260   34.4310   48.2530 C   0  0  0  0  0  0  0  0  0  0  0  0
   61.0018   35.0434   48.7359 H   0  0  0  0  0  0  0  0  0  0  0  0
   59.8770   34.6700   46.9200 C   0  0  0  0  0  0  0  0  0  0  0  0
   60.3742   35.4768   46.3616 H   0  0  0  0  0  0  0  0  0  0  0  0
   59.0480   29.1970   45.4950 C   0  0  0  0  0  0  0  0  0  0  0  0
   59.8730   30.1290   45.3030 O   0  0  0  0  0  0  0  0  0  0  0  0
   59.4090   27.9720   45.9570 N   0  0  0  0  0  0  0  0  0  0  0  0
   60.3640   27.6300   46.2030 H   0  0  0  0  0  0  0  0  0  0  0  0
  1  2  1  0
  2  3  2  3
  3  4  1  0
  4  5  1  0
  5  6  2  0
  5  7  1  0
  7  8  2  0
  8  9  1  0
  8 10  1  0
 10 11  1  0
 11 12  1  0
 11 13  1  0
 11 14  1  0
 14 15  1  0
 14 16  2  0
 16 17  1  0
 16 18  1  0
 18 19  1  0
 18 20  2  0
 20 21  1  0
 20 22  1  0
 22 23  2  0
 23 24  1  0
 23 25  1  0
 25 26  1  0
 25 27  2  0
 27 28  1  0
 27 29  1  0
 29 30  1  0
 29 31  2  0
 31 32  1  0
 10 33  1  0
 33 34  2  0
 33 35  1  0
 35 36  1  0
  9  3  1  0
 31 22  1  0
 35  7  1  0
M  CHG  2   4  -1   9  -1
M  END
>  <UniqueID>  (92) 
84

>  <SMILES>  (92) 
N=c1[n-]c(=O)c2[nH]c(=O)n(CC=C/C=C/c3ccccc3)c2[n-]1

>  <Energy>  (92) 
80.32758297922727

>  <Genealogy>  (92) 
N=c1[n-]c(=O)c2[nH]c(=O)n(CC=CC=Cc3ccccc3)c2[n-]1 (protonated)
N=c1[n-]c(=O)c2[nH]c(=O)n(CC=C/C=C/c3ccccc3)c2[n-]1 (cis-trans isomerization)
N=c1[n-]c(=O)c2[nH]c(=O)n(CC=C/C=C/c3ccccc3)c2[n-]1 (3D coordinates assigned)
N=c1[n-]c(=O)c2[nH]c(=O)n(CC=C/C=C/c3ccccc3)c2[n-]1 (optimized conformer: 80.32758297922727 kcal/mol)

>  <smiles>  (92) 
N=c1[nH]c(=O)c2[nH]c(=O)n(CC=CC=Cc3ccccc3)c2[nH]1

>  <score_type>  (92) 
oracle

>  <origin>  (92) 
adg

>  <m_score__min__energy>  (92) 
-12.15

>  <m_primary>  (92) 
energy

$$$$
92:0
     RDKit          3D

 55 56  0  0  0  0  0  0  0  0999 V2000
   59.2970   29.2700   47.6270 C   0  0  0  0  0  0  0  0  0  0  0  0
   59.2000   30.7890   47.7400 C   0  0  0  0  0  0  0  0  0  0  0  0
   60.0360   31.5060   46.6690 C   0  0  0  0  0  0  0  0  0  0  0  0
   60.0020   32.9670   46.8510 N   0  0  0  0  0  0  0  0  0  0  0  0
   61.2190   33.6540   47.3090 C   0  0  0  0  0  0  0  0  0  0  0  0
   62.4420   32.7480   47.1360 C   0  0  0  0  0  0  0  0  0  0  0  0
   63.7390   33.5460   47.2290 C   0  0  0  0  0  0  0  0  0  0  0  0
   58.8090   33.7400   46.5740 C   0  0  0  0  0  0  0  0  0  0  0  0
   58.7540   34.9470   46.9400 O   0  0  0  0  0  0  0  0  0  0  0  0
   57.6600   33.1760   45.7720 C   0  0  0  0  0  0  0  0  0  0  0  0
   58.0370   32.9850   44.3750 N   0  0  0  0  0  0  0  0  0  0  0  0
   57.5100   31.9360   43.5560 C   0  0  0  0  0  0  0  0  0  0  0  0
   57.5390   32.0330   42.2990 O   0  0  0  0  0  0  0  0  0  0  0  0
   56.9440   30.7340   44.1790 C   0  0  0  0  0  0  0  0  0  0  0  0
   57.6510   29.6210   44.5870 C   0  0  0  0  0  0  0  0  0  0  0  0
   56.6750   28.7760   45.0700 C   0  0  0  0  0  0  0  0  0  0  0  0
   56.8980   27.4240   45.6770 C   0  0  0  0  0  0  0  0  0  0  0  0
   55.6310   26.7260   45.8690 N   0  0  0  0  0  0  0  0  0  0  0  0
   55.4650   25.3080   46.0150 C   0  0  0  0  0  0  0  0  0  0  0  0
   55.9390   24.7490   47.0380 O   0  0  0  0  0  0  0  0  0  0  0  0
   54.7210   24.4710   45.0120 C   0  0  0  0  0  0  0  0  0  0  0  0
   55.6140   23.3900   44.4680 C   0  0  0  0  0  0  0  0  0  0  0  0
   55.8410   23.2790   43.0860 C   0  0  0  0  0  0  0  0  0  0  0  0
   56.6580   22.2610   42.5860 C   0  0  0  0  0  0  0  0  0  0  0  0
   57.2490   21.3450   43.4590 C   0  0  0  0  0  0  0  0  0  0  0  0
   57.0220   21.4420   44.8330 C   0  0  0  0  0  0  0  0  0  0  0  0
   56.2040   22.4580   45.3380 C   0  0  0  0  0  0  0  0  0  0  0  0
   55.4680   29.3640   44.9730 N   0  0  0  0  0  0  0  0  0  0  0  0
   55.6320   30.5580   44.4250 N   0  0  0  0  0  0  0  0  0  0  0  0
   59.3252   28.8285   48.6341 H   0  0  0  0  0  0  0  0  0  0  0  0
   58.4215   28.8862   47.0827 H   0  0  0  0  0  0  0  0  0  0  0  0
   60.2142   29.0006   47.0827 H   0  0  0  0  0  0  0  0  0  0  0  0
   58.1471   31.0861   47.6250 H   0  0  0  0  0  0  0  0  0  0  0  0
   59.5931   31.0797   48.7254 H   0  0  0  0  0  0  0  0  0  0  0  0
   61.0782   31.1608   46.7378 H   0  0  0  0  0  0  0  0  0  0  0  0
   59.6113   31.2697   45.6822 H   0  0  0  0  0  0  0  0  0  0  0  0
   61.3612   34.5712   46.7186 H   0  0  0  0  0  0  0  0  0  0  0  0
   61.1080   33.9032   48.3746 H   0  0  0  0  0  0  0  0  0  0  0  0
   62.4351   31.9817   47.9252 H   0  0  0  0  0  0  0  0  0  0  0  0
   62.3913   32.2815   46.1411 H   0  0  0  0  0  0  0  0  0  0  0  0
   63.9969   33.7047   48.2865 H   0  0  0  0  0  0  0  0  0  0  0  0
   64.5483   32.9894   46.7338 H   0  0  0  0  0  0  0  0  0  0  0  0
   63.6070   34.5193   46.7338 H   0  0  0  0  0  0  0  0  0  0  0  0
   57.3650   32.2066   46.2001 H   0  0  0  0  0  0  0  0  0  0  0  0
   56.8228   33.8883   45.8133 H   0  0  0  0  0  0  0  0  0  0  0  0
   58.7364   29.4490   44.5382 H   0  0  0  0  0  0  0  0  0  0  0  0
   57.5391   26.8302   45.0089 H   0  0  0  0  0  0  0  0  0  0  0  0
   57.3811   27.5531   46.6568 H   0  0  0  0  0  0  0  0  0  0  0  0
   53.8493   24.0102   45.4996 H   0  0  0  0  0  0  0  0  0  0  0  0
   54.3929   25.1147   44.1825 H   0  0  0  0  0  0  0  0  0  0  0  0
   55.3740   23.9960   42.3947 H   0  0  0  0  0  0  0  0  0  0  0  0
   56.8357   22.1812   41.5034 H   0  0  0  0  0  0  0  0  0  0  0  0
   57.8939   20.5464   43.0636 H   0  0  0  0  0  0  0  0  0  0  0  0
   57.4869   20.7187   45.5191 H   0  0  0  0  0  0  0  0  0  0  0  0
   56.0219   22.5275   46.4206 H   0  0  0  0  0  0  0  0  0  0  0  0
  1  2  1  0
  2  3  1  0
  3  4  1  0
  4  5  1  0
  5  6  1  0
  6  7  1  0
  4  8  1  0
  8  9  2  0
  8 10  1  0
 10 11  1  0
 11 12  1  0
 12 13  2  0
 12 14  1  0
 14 15  2  0
 15 16  1  0
 16 17  1  0
 17 18  1  0
 18 19  1  0
 19 20  2  0
 19 21  1  0
 21 22  1  0
 22 23  2  0
 23 24  1  0
 24 25  2  0
 25 26  1  0
 26 27  2  0
 16 28  2  0
 28 29  1  0
 29 14  1  0
 27 22  1  0
  1 30  1  0
  1 31  1  0
  1 32  1  0
  2 33  1  0
  2 34  1  0
  3 35  1  0
  3 36  1  0
  5 37  1  0
  5 38  1  0
  6 39  1  0
  6 40  1  0
  7 41  1  0
  7 42  1  0
  7 43  1  0
 10 44  1  0
 10 45  1  0
 15 46  1  0
 17 47  1  0
 17 48  1  0
 21 49  1  0
 21 50  1  0
 23 51  1  0
 24 52  1  0
 25 53  1  0
 26 54  1  0
 27 55  1  0
M  CHG  3  11  -1  18  -1  29  -1
M  END
>  <UniqueID>  (93) 
85

>  <SMILES>  (93) 
CCCN(CCC)C(=O)C[N-]C(=O)c1cc(C[N-]C(=O)Cc2ccccc2)n[n-]1

>  <Energy>  (93) 
67.04346173159405

>  <Genealogy>  (93) 
CCCN(CCC)C(=O)C[N-]C(=O)c1cc(C[N-]C(=O)Cc2ccccc2)n[n-]1 (protonated)
CCCN(CCC)C(=O)C[N-]C(=O)c1cc(C[N-]C(=O)Cc2ccccc2)n[n-]1 (3D coordinates assigned)
CCCN(CCC)C(=O)C[N-]C(=O)c1cc(C[N-]C(=O)Cc2ccccc2)n[n-]1 (optimized conformer: 67.04346173159405 kcal/mol)

>  <smiles>  (93) 
CCCN(CCC)C(=O)CNC(=O)c1cc(CNC(=O)Cc2ccccc2)n[nH]1

>  <score_type>  (93) 
oracle

>  <origin>  (93) 
adg

>  <m_score__min__energy>  (93) 
-13.210000000000001

>  <m_primary>  (93) 
energy

$$$$
93:0
     RDKit          3D

 64 67  0  0  0  0  0  0  0  0999 V2000
   61.6240   34.2500   49.3030 C   0  0  0  0  0  0  0  0  0  0  0  0
   61.2430   33.2730   50.1320 C   0  0  0  0  0  0  0  0  0  0  0  0
   60.4270   32.1010   49.6600 C   0  0  0  0  0  0  0  0  0  0  0  0
   61.2820   31.1470   48.9330 N   0  0  0  0  0  0  0  0  0  0  0  0
   62.7130   31.3390   48.9700 C   0  0  0  0  0  0  0  0  0  0  0  0
   63.3510   31.5840   47.9110 O   0  0  0  0  0  0  0  0  0  0  0  0
   63.3830   31.3060   50.2020 O   0  0  0  0  0  0  0  0  0  0  0  0
   64.6040   31.9370   50.4800 C   0  0  0  0  0  0  0  0  0  0  0  0
   64.7060   33.3310   50.6580 C   0  0  0  0  0  0  0  0  0  0  0  0
   65.9490   33.9160   50.9200 C   0  0  0  0  0  0  0  0  0  0  0  0
   67.0950   33.1220   50.9980 C   0  0  0  0  0  0  0  0  0  0  0  0
   67.0030   31.7410   50.8040 C   0  0  0  0  0  0  0  0  0  0  0  0
   65.7630   31.1530   50.5400 C   0  0  0  0  0  0  0  0  0  0  0  0
   60.6860   30.0600   48.1240 C   0  0  1  0  0  0  0  0  0  0  0  0
   59.1520   30.0450   48.2530 C   0  0  0  0  0  0  0  0  0  0  0  0
   58.5170   28.8960   47.4380 C   0  0  0  0  0  0  0  0  0  0  0  0
   59.3190   28.5090   46.2430 N   0  0  1  0  0  0  0  0  0  0  0  0
   58.5580   27.7340   45.2210 C   0  0  0  0  0  0  0  0  0  0  0  0
   57.7950   28.5370   44.1380 C   0  0  0  0  0  0  0  0  0  0  0  0
   56.9960   29.6940   44.6810 C   0  0  0  0  0  0  0  0  0  0  0  0
   55.8050   29.4790   45.0360 O   0  0  0  0  0  0  0  0  0  0  0  0
   57.5350   31.0790   44.7620 C   0  0  0  0  0  0  0  0  0  0  0  0
   57.7830   31.7920   43.5730 C   0  0  0  0  0  0  0  0  0  0  0  0
   58.3480   33.0700   43.6090 C   0  0  0  0  0  0  0  0  0  0  0  0
   58.6570   33.6690   44.8350 C   0  0  0  0  0  0  0  0  0  0  0  0
   59.2350   34.9480   44.8810 C   0  0  0  0  0  0  0  0  0  0  0  0
   59.5280   35.5400   46.1120 C   0  0  0  0  0  0  0  0  0  0  0  0
   59.2440   34.8660   47.3020 C   0  0  0  0  0  0  0  0  0  0  0  0
   58.6710   33.5920   47.2710 C   0  0  0  0  0  0  0  0  0  0  0  0
   58.3780   32.9820   46.0410 C   0  0  0  0  0  0  0  0  0  0  0  0
   57.8120   31.6990   45.9960 C   0  0  0  0  0  0  0  0  0  0  0  0
   60.0680   29.6490   45.6680 C   0  0  0  0  0  0  0  0  0  0  0  0
   61.1440   30.1530   46.6490 C   0  0  0  0  0  0  0  0  0  0  0  0
   62.2205   35.0924   49.6831 H   0  0  0  0  0  0  0  0  0  0  0  0
   61.3410   34.2115   48.2407 H   0  0  0  0  0  0  0  0  0  0  0  0
   61.5350   33.3278   51.1911 H   0  0  0  0  0  0  0  0  0  0  0  0
   59.9775   31.5976   50.5286 H   0  0  0  0  0  0  0  0  0  0  0  0
   59.6367   32.4618   48.9853 H   0  0  0  0  0  0  0  0  0  0  0  0
   63.8063   33.9603   50.5908 H   0  0  0  0  0  0  0  0  0  0  0  0
   66.0240   35.0038   51.0649 H   0  0  0  0  0  0  0  0  0  0  0  0
   68.0703   33.5835   51.2122 H   0  0  0  0  0  0  0  0  0  0  0  0
   67.9070   31.1166   50.8591 H   0  0  0  0  0  0  0  0  0  0  0  0
   65.6968   30.0670   50.3782 H   0  0  0  0  0  0  0  0  0  0  0  0
   61.0503   29.1002   48.5191 H   0  0  0  0  0  0  0  0  0  0  0  0
   58.7548   31.0030   47.8863 H   0  0  0  0  0  0  0  0  0  0  0  0
   58.9003   29.8912   49.3127 H   0  0  0  0  0  0  0  0  0  0  0  0
   57.5201   29.2163   47.1009 H   0  0  0  0  0  0  0  0  0  0  0  0
   58.4684   28.0166   48.0970 H   0  0  0  0  0  0  0  0  0  0  0  0
   60.0480   27.8350   46.5860 H   0  0  0  0  0  0  0  0  0  0  0  0
   59.2744   27.0796   44.7027 H   0  0  0  0  0  0  0  0  0  0  0  0
   57.7732   27.2141   45.7900 H   0  0  0  0  0  0  0  0  0  0  0  0
   58.5282   28.9305   43.4186 H   0  0  0  0  0  0  0  0  0  0  0  0
   57.0769   27.8440   43.6753 H   0  0  0  0  0  0  0  0  0  0  0  0
   57.5289   31.3375   42.6040 H   0  0  0  0  0  0  0  0  0  0  0  0
   58.5503   33.6065   42.6703 H   0  0  0  0  0  0  0  0  0  0  0  0
   59.4573   35.4843   43.9467 H   0  0  0  0  0  0  0  0  0  0  0  0
   59.9840   36.5405   46.1442 H   0  0  0  0  0  0  0  0  0  0  0  0
   59.4725   35.3403   48.2678 H   0  0  0  0  0  0  0  0  0  0  0  0
   58.4492   33.0664   48.2115 H   0  0  0  0  0  0  0  0  0  0  0  0
   57.5823   31.1720   46.9338 H   0  0  0  0  0  0  0  0  0  0  0  0
   59.3664   30.4681   45.4516 H   0  0  0  0  0  0  0  0  0  0  0  0
   60.5641   29.3131   44.7455 H   0  0  0  0  0  0  0  0  0  0  0  0
   61.3713   31.2035   46.4151 H   0  0  0  0  0  0  0  0  0  0  0  0
   62.0312   29.5134   46.5319 H   0  0  0  0  0  0  0  0  0  0  0  0
  1  2  2  0
  2  3  1  0
  3  4  1  0
  4  5  1  0
  5  6  2  0
  5  7  1  0
  7  8  1  0
  8  9  2  0
  9 10  1  0
 10 11  2  0
 11 12  1  0
 12 13  2  0
  4 14  1  0
 14 15  1  0
 15 16  1  0
 16 17  1  0
 17 18  1  0
 18 19  1  0
 19 20  1  0
 20 21  2  0
 20 22  1  0
 22 23  2  0
 23 24  1  0
 24 25  2  0
 25 26  1  0
 26 27  2  0
 27 28  1  0
 28 29  2  0
 29 30  1  0
 30 31  2  0
 17 32  1  0
 32 33  1  0
 13  8  1  0
 33 14  1  0
 31 22  1  0
 30 25  1  0
  1 34  1  0
  1 35  1  0
  2 36  1  0
  3 37  1  0
  3 38  1  0
  9 39  1  0
 10 40  1  0
 11 41  1  0
 12 42  1  0
 13 43  1  0
 14 44  1  1
 15 45  1  0
 15 46  1  0
 16 47  1  0
 16 48  1  0
 17 49  1  1
 18 50  1  0
 18 51  1  0
 19 52  1  0
 19 53  1  0
 23 54  1  0
 24 55  1  0
 26 56  1  0
 27 57  1  0
 28 58  1  0
 29 59  1  0
 31 60  1  0
 32 61  1  0
 32 62  1  0
 33 63  1  0
 33 64  1  0
M  CHG  1  17   1
M  END
>  <UniqueID>  (94) 
86

>  <SMILES>  (94) 
C=CCN(C(=O)Oc1ccccc1)C1CC[NH+](CCC(=O)c2ccc3ccccc3c2)CC1

>  <Energy>  (94) 
86.78419970971127

>  <Genealogy>  (94) 
C=CCN(C(=O)Oc1ccccc1)C1CC[NH+](CCC(=O)c2ccc3ccccc3c2)CC1 (protonated)
C=CCN(C(=O)Oc1ccccc1)C1CC[NH+](CCC(=O)c2ccc3ccccc3c2)CC1 (3D coordinates assigned)
C=CCN(C(=O)Oc1ccccc1)C1CC[NH+](CCC(=O)c2ccc3ccccc3c2)CC1 (nonaromatic ring conformer: 86.78419970971127 kcal/mol)

>  <smiles>  (94) 
C=CCN(C(=O)Oc1ccccc1)C1CCN(CCC(=O)c2ccc3ccccc3c2)CC1

>  <score_type>  (94) 
oracle

>  <origin>  (94) 
adg

>  <m_score__min__energy>  (94) 
-8.9100000000000001

>  <m_primary>  (94) 
energy

$$$$
94:0
     RDKit          3D

 40 41  0  0  0  0  0  0  0  0999 V2000
   59.0962   35.6170   44.1117 H   0  0  0  0  0  0  0  0  0  0  0  0
   58.8700   34.8470   44.8640 C   0  0  0  0  0  0  0  0  0  0  0  0
   58.0840   33.7890   44.5370 N   0  0  0  0  0  0  0  0  0  0  0  0
   57.7790   32.8050   45.4260 C   0  0  0  0  0  0  0  0  0  0  0  0
   57.0160   31.8260   45.0250 N   0  0  0  0  0  0  0  0  0  0  0  0
   57.2590   30.4140   45.1330 C   0  0  0  0  0  0  0  0  0  0  0  0
   56.2730   29.6310   45.1800 O   0  0  0  0  0  0  0  0  0  0  0  0
   58.6440   29.8420   44.9830 C   0  0  0  0  0  0  0  0  0  0  0  0
   59.2564   30.5393   44.3925 H   0  0  0  0  0  0  0  0  0  0  0  0
   59.0691   29.7006   45.9877 H   0  0  0  0  0  0  0  0  0  0  0  0
   58.6180   28.4820   44.2770 C   0  0  0  0  0  0  0  0  0  0  0  0
   57.6894   28.3931   43.6941 H   0  0  0  0  0  0  0  0  0  0  0  0
   59.4894   28.4077   43.6098 H   0  0  0  0  0  0  0  0  0  0  0  0
   58.6780   27.3750   45.2830 C   0  0  0  0  0  0  0  0  0  0  0  0
   59.7240   26.6780   45.3770 O   0  0  0  0  0  0  0  0  0  0  0  0
   57.5330   27.0770   46.0940 N   0  0  0  0  0  0  0  0  0  0  0  0
   56.7100   27.7220   46.0640 H   0  0  0  0  0  0  0  0  0  0  0  0
   57.4340   25.8580   46.8920 C   0  0  0  0  0  0  0  0  0  0  0  0
   58.4158   25.3630   46.9241 H   0  0  0  0  0  0  0  0  0  0  0  0
   57.1141   26.1191   47.9115 H   0  0  0  0  0  0  0  0  0  0  0  0
   56.4230   24.9220   46.2810 C   0  0  0  0  0  0  0  0  0  0  0  0
   56.7400   23.5580   46.1550 C   0  0  0  0  0  0  0  0  0  0  0  0
   57.7283   23.1950   46.4735 H   0  0  0  0  0  0  0  0  0  0  0  0
   55.8080   22.6610   45.6280 C   0  0  0  0  0  0  0  0  0  0  0  0
   56.0657   21.5962   45.5288 H   0  0  0  0  0  0  0  0  0  0  0  0
   54.5500   23.1140   45.2270 C   0  0  0  0  0  0  0  0  0  0  0  0
   53.8166   22.4058   44.8140 H   0  0  0  0  0  0  0  0  0  0  0  0
   54.2220   24.4670   45.3500 C   0  0  0  0  0  0  0  0  0  0  0  0
   53.2306   24.8214   45.0314 H   0  0  0  0  0  0  0  0  0  0  0  0
   55.1500   25.3730   45.8770 C   0  0  0  0  0  0  0  0  0  0  0  0
   54.7950   26.7120   45.9940 O   0  0  0  0  0  0  0  0  0  0  0  0
   58.2660   32.9020   46.7460 C   0  0  0  0  0  0  0  0  0  0  0  0
   58.0144   32.1279   47.4859 H   0  0  0  0  0  0  0  0  0  0  0  0
   59.0720   33.9890   47.1110 C   0  0  0  0  0  0  0  0  0  0  0  0
   59.6360   34.0800   48.4980 C   0  0  0  0  0  0  0  0  0  0  0  0
   58.8272   33.9495   49.2320 H   0  0  0  0  0  0  0  0  0  0  0  0
   60.3903   33.2919   48.6395 H   0  0  0  0  0  0  0  0  0  0  0  0
   60.1041   35.0653   48.6395 H   0  0  0  0  0  0  0  0  0  0  0  0
   59.3910   34.9580   46.1540 C   0  0  0  0  0  0  0  0  0  0  0  0
   60.0474   35.8009   46.4161 H   0  0  0  0  0  0  0  0  0  0  0  0
  1  2  1  0
  2  3  1  0
  3  4  1  0
  4  5  2  0
  5  6  1  0
  6  7  2  0
  6  8  1  0
  8  9  1  0
  8 10  1  0
  8 11  1  0
 11 12  1  0
 11 13  1  0
 11 14  1  0
 14 15  2  0
 14 16  1  0
 16 17  1  0
 16 18  1  0
 18 19  1  0
 18 20  1  0
 18 21  1  0
 21 22  2  0
 22 23  1  0
 22 24  1  0
 24 25  1  0
 24 26  2  0
 26 27  1  0
 26 28  1  0
 28 29  1  0
 28 30  2  0
 30 31  1  0
  4 32  1  0
 32 33  1  0
 32 34  2  0
 34 35  1  0
 35 36  1  0
 35 37  1  0
 35 38  1  0
 34 39  1  0
 39 40  1  0
 39  2  2  0
 30 21  1  0
M  CHG  2   3  -1  31  -1
M  END
>  <UniqueID>  (95) 
87

>  <SMILES>  (95) 
Cc1cc[n-]/c(=N/C(=O)CCC(=O)NCc2ccccc2[O-])c1

>  <Energy>  (95) 
43.43941841485327

>  <Genealogy>  (95) 
Cc1cc[n-]c(=NC(=O)CCC(=O)NCc2ccccc2[O-])c1 (protonated)
Cc1cc[n-]/c(=N/C(=O)CCC(=O)NCc2ccccc2[O-])c1 (cis-trans isomerization)
Cc1cc[n-]/c(=N/C(=O)CCC(=O)NCc2ccccc2[O-])c1 (3D coordinates assigned)
Cc1cc[n-]/c(=N/C(=O)CCC(=O)NCc2ccccc2[O-])c1 (optimized conformer: 43.43941841485327 kcal/mol)

>  <smiles>  (95) 
Cc1cc[nH]c(=NC(=O)CCC(=O)NCc2ccccc2O)c1

>  <score_type>  (95) 
oracle

>  <origin>  (95) 
adg

>  <m_score__min__energy>  (95) 
-13.02

>  <m_primary>  (95) 
energy

$$$$
95:0
     RDKit          3D

 58 61  0  0  0  0  0  0  0  0999 V2000
   57.7090   31.9500   41.8680 C   0  0  0  0  0  0  0  0  0  0  0  0
   57.8340   32.2420   43.3400 C   0  0  0  0  0  0  0  0  0  0  0  0
   58.3520   33.4900   43.7320 C   0  0  0  0  0  0  0  0  0  0  0  0
   58.4980   33.8110   45.0800 C   0  0  0  0  0  0  0  0  0  0  0  0
   58.1470   32.8900   46.0680 C   0  0  0  0  0  0  0  0  0  0  0  0
   58.3080   33.2600   47.4430 N   0  0  0  0  0  0  0  0  0  0  0  0
   59.4240   32.9940   48.3090 C   0  0  0  0  0  0  0  0  0  0  0  0
   60.2190   32.0720   47.9900 O   0  0  0  0  0  0  0  0  0  0  0  0
   59.6580   33.7280   49.6050 C   0  0  0  0  0  0  0  0  0  0  0  0
   58.9710   32.8400   51.0450 S   0  0  0  0  0  0  0  0  0  0  0  0
   59.5960   31.2300   50.5490 C   0  0  0  0  0  0  0  0  0  0  0  0
   58.7880   30.2410   50.1090 N   0  0  0  0  0  0  0  0  0  0  0  0
   59.6370   29.2350   49.8130 C   0  0  0  0  0  0  0  0  0  0  0  0
   60.9340   29.6300   50.0640 C   0  0  0  0  0  0  0  0  0  0  0  0
   60.9040   30.8900   50.5320 N   0  0  0  0  0  0  0  0  0  0  0  0
   62.0650   31.7330   50.8090 C   0  0  0  0  0  0  0  0  0  0  0  0
   62.6240   32.2940   49.5280 C   0  0  0  0  0  0  0  0  0  0  0  0
   62.8990   31.4310   48.4530 C   0  0  0  0  0  0  0  0  0  0  0  0
   63.3870   31.9360   47.2460 C   0  0  0  0  0  0  0  0  0  0  0  0
   63.6100   33.3100   47.0990 C   0  0  0  0  0  0  0  0  0  0  0  0
   63.3420   34.1780   48.1600 C   0  0  0  0  0  0  0  0  0  0  0  0
   62.8470   33.6780   49.3710 C   0  0  0  0  0  0  0  0  0  0  0  0
   62.5860   34.5430   50.3800 F   0  0  0  0  0  0  0  0  0  0  0  0
   57.5790   31.6640   45.6920 C   0  0  0  0  0  0  0  0  0  0  0  0
   57.4510   31.3100   44.3400 C   0  0  0  0  0  0  0  0  0  0  0  0
   56.7950   29.6950   43.9940 S   0  0  0  0  0  0  0  0  0  0  0  0
   55.7400   29.3980   45.0230 O   0  0  0  0  0  0  0  0  0  0  0  0
   56.1730   29.6080   42.6300 O   0  0  0  0  0  0  0  0  0  0  0  0
   58.0830   28.5150   44.1230 N   0  0  0  0  0  0  0  0  0  0  0  0
   57.7080   27.3930   45.0060 C   0  0  0  0  0  0  0  0  0  0  0  0
   57.7700   27.7740   46.5050 C   0  0  0  0  0  0  0  0  0  0  0  0
   58.5290   28.9420   46.7680 O   0  0  0  0  0  0  0  0  0  0  0  0
   59.7090   28.9370   45.9980 C   0  0  0  0  0  0  0  0  0  0  0  0
   59.3710   29.1350   44.5090 C   0  0  0  0  0  0  0  0  0  0  0  0
   57.2796   30.9469   41.7283 H   0  0  0  0  0  0  0  0  0  0  0  0
   57.0524   32.6983   41.4002 H   0  0  0  0  0  0  0  0  0  0  0  0
   58.7037   31.9914   41.4002 H   0  0  0  0  0  0  0  0  0  0  0  0
   58.6454   34.2215   42.9647 H   0  0  0  0  0  0  0  0  0  0  0  0
   58.8925   34.7968   45.3673 H   0  0  0  0  0  0  0  0  0  0  0  0
   60.7414   33.8508   49.7503 H   0  0  0  0  0  0  0  0  0  0  0  0
   59.1466   34.6995   49.5361 H   0  0  0  0  0  0  0  0  0  0  0  0
   59.3392   28.2481   49.4291 H   0  0  0  0  0  0  0  0  0  0  0  0
   61.8362   29.0203   49.9084 H   0  0  0  0  0  0  0  0  0  0  0  0
   61.7627   32.5617   51.4661 H   0  0  0  0  0  0  0  0  0  0  0  0
   62.8389   31.1245   51.2997 H   0  0  0  0  0  0  0  0  0  0  0  0
   62.7285   30.3499   48.5634 H   0  0  0  0  0  0  0  0  0  0  0  0
   63.5965   31.2530   46.4095 H   0  0  0  0  0  0  0  0  0  0  0  0
   63.9962   33.7061   46.1482 H   0  0  0  0  0  0  0  0  0  0  0  0
   63.5202   35.2573   48.0441 H   0  0  0  0  0  0  0  0  0  0  0  0
   57.2283   30.9689   46.4691 H   0  0  0  0  0  0  0  0  0  0  0  0
   56.6816   27.0806   44.7633 H   0  0  0  0  0  0  0  0  0  0  0  0
   58.4283   26.5789   44.8373 H   0  0  0  0  0  0  0  0  0  0  0  0
   56.7433   27.9397   46.8634 H   0  0  0  0  0  0  0  0  0  0  0  0
   58.2692   26.9437   47.0260 H   0  0  0  0  0  0  0  0  0  0  0  0
   60.3657   29.7532   46.3335 H   0  0  0  0  0  0  0  0  0  0  0  0
   60.2178   27.9702   46.1258 H   0  0  0  0  0  0  0  0  0  0  0  0
   59.3172   30.2140   44.3018 H   0  0  0  0  0  0  0  0  0  0  0  0
   60.1622   28.6445   43.9229 H   0  0  0  0  0  0  0  0  0  0  0  0
  1  2  1  0
  2  3  2  0
  3  4  1  0
  4  5  2  0
  5  6  1  0
  6  7  1  0
  7  8  2  0
  7  9  1  0
  9 10  1  0
 10 11  1  0
 11 12  2  0
 12 13  1  0
 13 14  2  0
 14 15  1  0
 15 16  1  0
 16 17  1  0
 17 18  2  0
 18 19  1  0
 19 20  2  0
 20 21  1  0
 21 22  2  0
 22 23  1  0
  5 24  1  0
 24 25  2  0
 25 26  1  0
 26 27  2  0
 26 28  2  0
 26 29  1  0
 29 30  1  0
 30 31  1  0
 31 32  1  0
 32 33  1  0
 33 34  1  0
 25  2  1  0
 34 29  1  0
 15 11  1  0
 22 17  1  0
  1 35  1  0
  1 36  1  0
  1 37  1  0
  3 38  1  0
  4 39  1  0
  9 40  1  0
  9 41  1  0
 13 42  1  0
 14 43  1  0
 16 44  1  0
 16 45  1  0
 18 46  1  0
 19 47  1  0
 20 48  1  0
 21 49  1  0
 24 50  1  0
 30 51  1  0
 30 52  1  0
 31 53  1  0
 31 54  1  0
 33 55  1  0
 33 56  1  0
 34 57  1  0
 34 58  1  0
M  CHG  1   6  -1
M  END
>  <UniqueID>  (96) 
88

>  <SMILES>  (96) 
Cc1ccc([N-]C(=O)CSc2nccn2Cc2ccccc2F)cc1S(=O)(=O)N1CCOCC1

>  <Energy>  (96) 
101.9984923638429

>  <Genealogy>  (96) 
Cc1ccc([N-]C(=O)CSc2nccn2Cc2ccccc2F)cc1S(=O)(=O)N1CCOCC1 (protonated)
Cc1ccc([N-]C(=O)CSc2nccn2Cc2ccccc2F)cc1S(=O)(=O)N1CCOCC1 (3D coordinates assigned)
Cc1ccc([N-]C(=O)CSc2nccn2Cc2ccccc2F)cc1S(=O)(=O)N1CCOCC1 (nonaromatic ring conformer: 101.9984923638429 kcal/mol)

>  <smiles>  (96) 
Cc1ccc(NC(=O)CSc2nccn2Cc2ccccc2F)cc1S(=O)(=O)N1CCOCC1

>  <score_type>  (96) 
oracle

>  <origin>  (96) 
adg

>  <m_score__min__energy>  (96) 
-11.859999999999999

>  <m_primary>  (96) 
energy

$$$$
